data_functionalizedCrystal
_audit_creation_method	'MofGen! by Chris Wilmer'
_symmetry_space_group_name_H-M	'P1'
_symmetry_Int_Tables_number	1
_symmetry_cell_setting	triclinic
loop_
_symmetry_equiv_pos_as_xyz
  x,y,z
_cell_length_a	17.699083
_cell_length_b	15.944551
_cell_length_c	16.776229
_cell_angle_alpha	89.992397
_cell_angle_beta	89.998886
_cell_angle_gamma	83.390877
loop_
_atom_site_label
_atom_site_type_symbol
_atom_site_fract_x
_atom_site_fract_y
_atom_site_fract_z
O1	O	1.004260	0.106222	-0.066178
O2	O	0.783905	0.120042	-0.066204
O3	O	0.900100	-0.009156	-0.066183
O4	O	0.888065	0.235419	-0.066199
O5	O	0.900084	-0.009164	0.066393
O6	O	0.783890	0.120034	0.066372
O7	O	1.004244	0.106214	0.066398
Zn8	Zn	0.894065	0.113123	0.087435
Zn9	Zn	0.894085	0.113133	-0.087241
O10	O	0.888050	0.235411	0.066377
C11	C	0.755700	0.119542	0.000080
C12	C	0.671679	0.118057	0.000071
C13	C	0.623187	0.193893	0.000066
C14	C	0.544242	0.192492	0.000076
C15	C	0.513789	0.115254	0.000086
C16	C	0.562287	0.039412	0.000093
C17	C	0.641231	0.040814	0.000088
C18	C	0.243914	0.033758	0.000113
C19	C	0.164964	0.032362	0.000115
C20	C	0.146925	0.185436	0.000101
C21	C	0.225869	0.186837	0.000096
C22	C	0.274360	0.110996	0.000108
C23	C	0.359962	0.112516	0.000098
C24	C	0.428189	0.113733	0.000090
C25	C	0.899593	-0.040453	0.000105
C26	C	0.898095	-0.133696	0.000105
C27	C	0.822492	-0.348393	0.000085
C28	C	0.857592	-0.409488	0.065458
C29	C	0.895385	-0.304416	0.000099
C30	C	0.857624	-0.409464	-0.065252
C31	C	0.892762	-0.469323	0.000089
C32	C	0.930505	-0.364283	0.065525
C33	C	0.930527	-0.364252	-0.065244
C34	C	0.965680	-0.425329	0.000145
C35	C	0.896894	-0.209417	0.000105
C36	C	0.891259	-0.564321	0.000089
C37	C	1.032450	0.106713	0.000112
C38	C	1.116471	0.108199	0.000116
C39	C	0.888557	0.266708	0.000087
C40	C	0.890055	0.359951	0.000082
N41	N	0.894056	0.113115	0.206646
N42	N	0.894099	0.113134	-0.206452
C43	C	0.945523	0.055930	0.248372
C44	C	0.945527	0.055929	0.331824
C45	C	0.894068	0.113118	0.373549
C46	C	0.842595	0.170306	0.331816
C47	C	0.842588	0.170302	0.248366
C48	C	0.842623	0.170323	0.668364
C49	C	0.842636	0.170324	0.751820
C50	C	0.945562	0.055949	0.751822
C51	C	0.945555	0.055945	0.668372
C52	C	0.894080	0.113130	0.626647
C53	C	0.894075	0.113129	0.536158
C54	C	0.894076	0.113124	0.464036
H55	H	0.107434	0.247189	0.000096
H56	H	0.961338	-0.344183	-0.120506
H57	H	0.800712	0.216886	0.634398
O58	O	0.820739	-0.433232	-0.131163
C59	C	0.703551	-0.420749	-0.205612
C60	C	0.745243	-0.393754	-0.130950
H61	H	0.642501	-0.388857	-0.205456
H62	H	0.733983	-0.401220	-0.261342
H63	H	0.703293	-0.492214	-0.205283
H64	H	0.745513	-0.322293	-0.131202
H65	H	0.714798	-0.413345	-0.075254
H66	H	0.800678	0.216867	0.214393
H67	H	0.800692	0.216868	0.365793
O68	O	0.967369	-0.340582	0.131476
C69	C	1.084255	-0.353907	0.206466
C70	C	1.042607	-0.380806	0.131736
H71	H	1.145088	-0.386430	0.206710
H72	H	1.085135	-0.282528	0.205958
H73	H	1.053349	-0.372896	0.262088
H74	H	1.073480	-0.361874	0.076075
H75	H	1.041721	-0.452183	0.132315
O76	O	0.652640	0.268997	0.000091
C77	C	0.626406	0.420682	0.000034
C78	C	0.592953	0.335685	0.000021
H79	H	0.578166	0.474622	-0.000040
H80	H	0.662889	0.425221	0.055527
H81	H	0.662938	0.425124	-0.055439
H82	H	0.556387	0.331186	0.055456
H83	H	0.556513	0.331183	-0.055509
O84	O	0.255324	0.261940	0.000123
C85	C	0.229098	0.413626	0.000069
C86	C	0.195641	0.328631	0.000053
H87	H	0.180860	0.467569	-0.000004
H88	H	0.265580	0.418161	0.055563
H89	H	0.265631	0.418067	-0.055403
H90	H	0.159073	0.324133	0.055488
H91	H	0.159201	0.324133	-0.055478
O92	O	0.995541	0.000294	0.207968
C93	C	1.097661	-0.113123	0.216788
C94	C	1.041046	-0.050171	0.262641
H95	H	1.134478	-0.153928	0.260971
H96	H	1.065022	-0.155100	0.177752
H97	H	1.135433	-0.076896	0.177686
H98	H	1.003261	-0.086328	0.301787
H99	H	1.073732	-0.008194	0.301627
H100	H	0.826754	-0.429535	0.120718
O101	O	0.135507	-0.042745	0.000165
C102	C	0.161726	-0.194432	0.000141
C103	C	0.195187	-0.109441	0.000106
H104	H	0.209961	-0.248378	0.000077
H105	H	0.125243	-0.198967	0.055638
H106	H	0.125191	-0.198868	-0.055328
H107	H	0.231756	-0.104947	0.055537
H108	H	0.231626	-0.104942	-0.055428
H109	H	0.504763	0.254246	0.000072
O110	O	1.037878	-0.465169	0.000136
C111	C	1.117573	-0.598302	-0.000458
C112	C	1.035771	-0.553298	-0.000459
H113	H	1.115897	-0.669561	-0.000922
H114	H	1.148879	-0.578941	-0.055676
H115	H	1.148507	-0.579712	0.055287
H116	H	1.004773	-0.571864	-0.056166
H117	H	1.004523	-0.572660	0.054796
O118	O	0.995423	0.000298	0.372389
C119	C	1.011561	-0.114412	0.466650
C120	C	0.954967	-0.051467	0.420751
H121	H	0.978875	-0.156269	0.505775
H122	H	1.048330	-0.155341	0.422525
H123	H	1.049385	-0.078179	0.505674
H124	H	0.917095	-0.087632	0.381726
H125	H	0.918252	-0.010540	0.464919
O126	O	0.750361	-0.308368	0.000110
C127	C	0.670944	-0.175051	-0.000476
C128	C	0.752667	-0.220272	-0.000527
H129	H	0.672782	-0.103818	-0.000974
H130	H	0.639546	-0.194326	-0.055659
H131	H	0.639999	-0.193542	0.055303
H132	H	0.783677	-0.201804	-0.056269
H133	H	0.784008	-0.200995	0.054693
H134	H	0.283386	-0.027997	0.000123
H135	H	0.537486	-0.023476	0.000112
O136	O	0.995570	0.000310	0.627965
C137	C	1.097690	-0.113109	0.636777
C138	C	1.041078	-0.050157	0.682634
H139	H	1.134508	-0.153916	0.680957
H140	H	1.065048	-0.155084	0.597742
H141	H	1.135460	-0.076882	0.597673
H142	H	1.003294	-0.086315	0.721781
H143	H	1.073767	-0.008182	0.721619
H144	H	0.680713	-0.020940	0.000091
H145	H	0.987473	0.009384	0.785804
H146	H	0.800728	0.216896	0.785791
