data_functionalizedCrystal
_audit_creation_method	'MofGen! by Chris Wilmer'
_symmetry_space_group_name_H-M	'P1'
_symmetry_Int_Tables_number	1
_symmetry_cell_setting	triclinic
loop_
_symmetry_equiv_pos_as_xyz
  x,y,z
_cell_length_a	14.971486
_cell_length_b	13.339070
_cell_length_c	13.448316
_cell_angle_alpha	89.996829
_cell_angle_beta	89.998199
_cell_angle_gamma	99.621712
loop_
_atom_site_label
_atom_site_type_symbol
_atom_site_fract_x
_atom_site_fract_y
_atom_site_fract_z
O1	O	1.219550	0.131873	-0.082571
O2	O	1.719550	0.631873	0.417429
O3	O	0.963055	0.147665	-0.082597
O4	O	1.463055	0.647665	0.417403
O5	O	1.061865	-0.007530	-0.082584
O6	O	1.561865	0.492470	0.417416
O7	O	1.120740	0.287068	-0.082584
O8	O	1.620740	0.787068	0.417416
O9	O	1.061845	-0.007540	0.082800
O10	O	1.561845	0.492460	0.582800
O11	O	0.963035	0.147656	0.082787
O12	O	1.463035	0.647656	0.582787
O13	O	1.219531	0.131864	0.082813
O14	O	1.719531	0.631864	0.582813
Cu15	Cu	1.091281	0.139759	0.097901
Cu16	Cu	1.591281	0.639759	0.597901
Cu17	Cu	1.091304	0.139770	-0.097685
Cu18	Cu	1.591304	0.639770	0.402315
O19	O	1.120720	0.287059	0.082800
O20	O	1.620720	0.787059	0.582800
C21	C	0.929545	0.146954	0.000091
C22	C	1.429545	0.646954	0.500091
C23	C	0.829725	0.144838	0.000081
C24	C	1.329725	0.644838	0.500081
C25	C	0.795041	0.236011	0.000082
C26	C	1.295041	0.736011	0.500082
C27	C	0.701248	0.234016	0.000097
C28	C	1.201248	0.734016	0.500097
C29	C	0.642141	0.140847	0.000103
C30	C	1.142141	0.640847	0.500103
C31	C	0.676832	0.049667	0.000105
C32	C	1.176832	0.549667	0.500105
C33	C	0.770623	0.051663	0.000097
C34	C	1.270623	0.551663	0.500097
C35	C	0.481342	0.045514	0.000119
C36	C	0.981342	0.545514	0.500119
C37	C	0.387545	0.043518	0.000125
C38	C	0.887545	0.543518	0.500125
C39	C	0.411968	0.227867	0.000119
C40	C	0.911968	0.727867	0.500119
C41	C	0.505759	0.229863	0.000111
C42	C	1.005759	0.729863	0.500111
C43	C	0.540442	0.138682	0.000111
C44	C	1.040442	0.638682	0.500111
C45	C	1.051910	-0.045236	0.000105
C46	C	1.551910	0.454764	0.500105
C47	C	1.022266	-0.157574	0.000098
C48	C	1.522266	0.342426	0.500098
C49	C	1.252762	-0.522088	0.000122
C50	C	1.752762	-0.022088	0.500122
C51	C	1.280617	-0.416541	0.000135
C52	C	1.780617	0.083459	0.500135
C53	C	1.216032	-0.351794	0.000125
C54	C	1.716032	0.148206	0.500125
C55	C	1.123587	-0.392604	0.000104
C56	C	1.623587	0.107396	0.500104
C57	C	1.095729	-0.498161	0.000100
C58	C	1.595729	0.001839	0.500100
C59	C	1.058999	-0.327867	0.000103
C60	C	1.558999	0.172133	0.500103
C61	C	0.966554	-0.368677	0.000082
C62	C	1.466554	0.131323	0.500082
C63	C	0.938701	-0.474224	0.000077
C64	C	1.438701	0.025776	0.500077
C65	C	1.003286	-0.538970	0.000086
C66	C	1.503286	-0.038970	0.500086
C67	C	1.086856	-0.222311	0.000107
C68	C	1.586856	0.277689	0.500107
C69	C	0.929823	-0.198384	0.000084
C70	C	1.429823	0.301616	0.500084
C71	C	0.901968	-0.303930	0.000072
C72	C	1.401968	0.196070	0.500072
C73	C	1.253040	0.132575	0.000122
C74	C	1.753040	0.632575	0.500122
C75	C	1.352860	0.134691	0.000126
C76	C	1.852860	0.634691	0.500126
C77	C	1.130675	0.324765	0.000108
C78	C	1.630675	0.824765	0.500108
C79	C	1.160319	0.437102	0.000109
C80	C	1.660319	0.937102	0.500109
N81	N	1.091271	0.139750	0.235465
N82	N	1.591271	0.639750	0.735465
N83	N	1.091319	0.139771	-0.235249
N84	N	1.591319	0.639771	0.264751
C85	C	1.135050	0.071058	0.287511
C86	C	1.635050	0.571058	0.787511
C87	C	1.135056	0.071057	0.391614
C88	C	1.635056	0.571057	0.891614
C89	C	1.091287	0.139754	0.443669
C90	C	1.591287	0.639754	0.943669
C91	C	1.047502	0.208449	0.391616
C92	C	1.547502	0.708449	0.891616
C93	C	1.047492	0.208445	0.287515
C94	C	1.547492	0.708445	0.787515
C95	C	1.047529	0.208456	0.608596
C96	C	1.547529	0.708456	1.108596
C97	C	1.047540	0.208463	0.712705
C98	C	1.547540	0.708463	1.212705
C99	C	1.135093	0.071069	0.712696
C100	C	1.635093	0.571069	1.212696
C101	C	1.135082	0.071064	0.608594
C102	C	1.635082	0.571064	1.108594
C103	C	1.091299	0.139761	0.556548
C104	C	1.591299	0.639761	1.056548
H105	H	0.339422	-0.032348	0.000131
H106	H	0.839422	0.467652	0.500131
F107	F	1.181641	-0.002056	0.232120
F108	F	1.681641	0.497944	0.732120
F109	F	0.664339	0.331055	0.000094
F110	F	1.164339	0.831055	0.500094
F111	F	0.613924	-0.049490	0.000118
F112	F	1.113924	0.450510	0.500118
H113	H	0.553882	0.305729	0.000096
H114	H	1.053882	0.805729	0.500096
H115	H	1.170703	0.015122	0.433990
H116	H	1.670703	0.515122	0.933990
H117	H	0.877232	-0.145666	0.000082
H118	H	1.377232	0.354334	0.500082
H119	H	1.011898	0.264402	0.755083
H120	H	1.511898	0.764402	1.255083
F121	F	1.181672	-0.002044	0.553193
F122	F	1.681672	0.497956	1.053193
H123	H	0.383724	0.302110	0.000123
H124	H	0.883724	0.802110	0.500123
H125	H	1.355886	-0.383322	0.000153
H126	H	1.855886	0.116678	0.500153
F127	F	1.000914	0.281558	0.447018
F128	F	1.500914	0.781558	0.947018
F129	F	1.321488	-0.591000	0.000148
F130	F	1.821488	-0.091000	0.500148
H131	H	1.162125	-0.189094	0.000124
H132	H	1.662125	0.310906	0.500124
H133	H	1.238717	-0.265854	0.000135
H134	H	1.738717	0.234146	0.500135
F135	F	0.840312	-0.517653	0.000067
F136	F	1.340312	-0.017653	0.500067
H137	H	1.011872	0.264394	0.566223
H138	H	1.511872	0.764394	1.066223
H139	H	0.798860	-0.022579	0.000096
H140	H	1.298860	0.477421	0.500096
F141	F	0.973644	-0.651308	-0.000021
F142	F	1.473644	-0.151308	0.499979
F143	F	1.181691	-0.002042	0.768091
F144	F	1.681691	0.497958	1.268091
F145	F	0.518253	-0.051531	0.000122
F146	F	1.018253	0.448469	0.500122
H147	H	0.826698	-0.337172	0.000056
H148	H	1.326698	0.162828	0.500056
H149	H	0.843160	0.311879	0.000077
H150	H	1.343160	0.811879	0.500077
F151	F	1.000892	0.281554	0.232125
F152	F	1.500892	0.781554	0.732125
