data_functionalizedCrystal
_audit_creation_method	'MofGen! by Chris Wilmer'
_symmetry_space_group_name_H-M	'P1'
_symmetry_Int_Tables_number	1
_symmetry_cell_setting	triclinic
loop_
_symmetry_equiv_pos_as_xyz
  x,y,z
_cell_length_a	19.805405
_cell_length_b	21.295418
_cell_length_c	19.805398
_cell_angle_alpha	89.964511
_cell_angle_beta	90.030326
_cell_angle_gamma	89.955382
loop_
_atom_site_label
_atom_site_type_symbol
_atom_site_fract_x
_atom_site_fract_y
_atom_site_fract_z
Zn1	Zn	-0.269143	-0.962297	0.383116
Zn2	Zn	-0.019143	-0.712297	0.633116
Zn3	Zn	0.230857	-0.462297	0.883116
Zn4	Zn	0.480857	-0.212297	1.133116
Zn5	Zn	-0.382333	-0.962230	0.269924
Zn6	Zn	-0.132333	-0.712230	0.519924
Zn7	Zn	0.117667	-0.462230	0.769924
Zn8	Zn	0.367667	-0.212230	1.019924
Zn9	Zn	-0.269200	-0.857043	0.269896
Zn10	Zn	-0.019200	-0.607043	0.519896
Zn11	Zn	0.230800	-0.357043	0.769896
Zn12	Zn	0.480800	-0.107043	1.019896
Zn13	Zn	-0.382331	-0.856997	0.383027
Zn14	Zn	-0.132331	-0.606997	0.633027
Zn15	Zn	0.117669	-0.356997	0.883027
Zn16	Zn	0.367669	-0.106997	1.133027
O17	O	-0.325752	-0.909642	0.326491
O18	O	-0.075752	-0.659642	0.576491
O19	O	0.174248	-0.409642	0.826491
O20	O	0.424248	-0.159642	1.076491
O21	O	-0.284135	-1.050377	0.368150
O22	O	-0.034135	-0.800377	0.618150
O23	O	0.215865	-0.550377	0.868150
O24	O	0.465865	-0.300377	1.118150
O25	O	-0.367351	-0.948267	0.175204
O26	O	-0.117351	-0.698267	0.425204
O27	O	0.132649	-0.448267	0.675204
O28	O	0.382649	-0.198267	0.925204
O29	O	-0.174476	-0.871052	0.284940
O30	O	0.075524	-0.621052	0.534940
O31	O	0.325524	-0.371052	0.784940
O32	O	0.575524	-0.121052	1.034940
O33	O	-0.367296	-1.050328	0.284988
O34	O	-0.117296	-0.800328	0.534988
O35	O	0.132704	-0.550328	0.784988
O36	O	0.382704	-0.300328	1.034988
O37	O	-0.174434	-0.948382	0.368122
O38	O	0.075566	-0.698382	0.618122
O39	O	0.325566	-0.448382	0.868122
O40	O	0.575566	-0.198382	1.118122
O41	O	-0.284232	-0.870987	0.175183
O42	O	-0.034232	-0.620987	0.425183
O43	O	0.215768	-0.370987	0.675183
O44	O	0.465768	-0.120987	0.925183
O45	O	-0.284230	-0.768947	0.284854
O46	O	-0.034230	-0.518947	0.534854
O47	O	0.215770	-0.268947	0.784854
O48	O	0.465770	-0.018947	1.034854
O49	O	-0.367292	-0.870974	0.477755
O50	O	-0.117292	-0.620974	0.727755
O51	O	0.132708	-0.370974	0.977755
O52	O	0.382708	-0.120974	1.227755
O53	O	-0.367347	-0.768914	0.367971
O54	O	-0.117347	-0.518914	0.617971
O55	O	0.132653	-0.268914	0.867971
O56	O	0.382653	-0.018914	1.117971
O57	O	-0.284133	-0.948338	0.477820
O58	O	-0.034133	-0.698338	0.727820
O59	O	0.215867	-0.448338	0.977820
O60	O	0.465867	-0.198338	1.227820
O61	O	-0.477050	-0.948223	0.284902
O62	O	-0.227050	-0.698223	0.534902
O63	O	0.022950	-0.448223	0.784902
O64	O	0.272950	-0.198223	1.034902
O65	O	-0.477048	-0.870909	0.367998
O66	O	-0.227048	-0.620909	0.617998
O67	O	0.022952	-0.370909	0.867998
O68	O	0.272952	-0.120909	1.117998
C69	C	-0.501608	-0.909571	0.326458
C70	C	-0.251608	-0.659571	0.576458
C71	C	-0.001608	-0.409571	0.826458
C72	C	0.248392	-0.159571	1.076458
C73	C	-0.576840	-0.909598	0.326466
C74	C	-0.326840	-0.659598	0.576466
C75	C	-0.076840	-0.409598	0.826466
C76	C	0.173160	-0.159598	1.076466
C77	C	-0.325795	-0.746090	0.326400
C78	C	-0.075795	-0.496090	0.576400
C79	C	0.174205	-0.246090	0.826400
C80	C	0.424205	0.003910	1.076400
C81	C	-0.325830	-0.676122	0.326377
C82	C	-0.075830	-0.426122	0.576377
C83	C	0.174170	-0.176122	0.826377
C84	C	0.424170	0.073878	1.076377
C85	C	-0.612162	-0.949894	0.283244
C86	C	-0.362162	-0.699894	0.533244
C87	C	-0.112162	-0.449894	0.783244
C88	C	0.137838	-0.199894	1.033244
C89	C	-0.682851	-0.949921	0.283259
C90	C	-0.432851	-0.699921	0.533259
C91	C	-0.182851	-0.449921	0.783259
C92	C	0.067149	-0.199921	1.033259
C93	C	-0.718215	-0.909648	0.326493
C94	C	-0.468215	-0.659648	0.576493
C95	C	-0.218215	-0.409648	0.826493
C96	C	0.031785	-0.159648	1.076493
C97	C	-0.682888	-0.869350	0.369721
C98	C	-0.432888	-0.619350	0.619721
C99	C	-0.182888	-0.369350	0.869721
C100	C	0.067112	-0.119350	1.119721
C101	C	-0.612201	-0.869327	0.369709
C102	C	-0.362201	-0.619327	0.619709
C103	C	-0.112201	-0.369327	0.869709
C104	C	0.137799	-0.119327	1.119709
C105	C	-0.967961	-0.869442	0.369771
C106	C	-0.717961	-0.619442	0.619771
C107	C	-0.467961	-0.369442	0.869771
C108	C	-0.217961	-0.119442	1.119771
C109	C	-1.038653	-0.869467	0.369778
C110	C	-0.788653	-0.619467	0.619778
C111	C	-0.538653	-0.369467	0.869778
C112	C	-0.288653	-0.119467	1.119778
C113	C	-1.038611	-0.950037	0.283321
C114	C	-0.788611	-0.700037	0.533321
C115	C	-0.538611	-0.450037	0.783321
C116	C	-0.288611	-0.200037	1.033321
C117	C	-0.967924	-0.950014	0.283309
C118	C	-0.717924	-0.700014	0.533309
C119	C	-0.467924	-0.450014	0.783309
C120	C	-0.217924	-0.200014	1.033309
C121	C	-0.932603	-0.909718	0.326539
C122	C	-0.682603	-0.659718	0.576539
C123	C	-0.432603	-0.409718	0.826539
C124	C	-0.182603	-0.159718	1.076539
C125	C	-0.855954	-0.909691	0.326523
C126	C	-0.605954	-0.659691	0.576523
C127	C	-0.355954	-0.409691	0.826523
C128	C	-0.105954	-0.159691	1.076523
C129	C	-0.794863	-0.909672	0.326506
C130	C	-0.544863	-0.659672	0.576506
C131	C	-0.294863	-0.409672	0.826506
C132	C	-0.044863	-0.159672	1.076506
C133	C	-0.369168	-0.643254	0.369589
C134	C	-0.119168	-0.393254	0.619589
C135	C	0.130832	-0.143254	0.869589
C136	C	0.380832	0.106746	1.119589
C137	C	-0.369154	-0.577512	0.369614
C138	C	-0.119154	-0.327512	0.619614
C139	C	0.130846	-0.077512	0.869614
C140	C	0.380846	0.172488	1.119614
C141	C	-0.325809	-0.544639	0.326416
C142	C	-0.075809	-0.294639	0.576416
C143	C	0.174191	-0.044639	0.826416
C144	C	0.424191	0.205361	1.076416
C145	C	-0.282463	-0.577515	0.283201
C146	C	-0.032463	-0.327515	0.533201
C147	C	0.217537	-0.077515	0.783201
C148	C	0.467537	0.172485	1.033201
C149	C	-0.282473	-0.643256	0.283182
C150	C	-0.032473	-0.393256	0.533182
C151	C	0.217527	-0.143256	0.783182
C152	C	0.467527	0.106744	1.033182
N153	N	-0.320527	-0.441375	0.267208
N154	N	-0.070527	-0.191375	0.517208
N155	N	0.179473	0.058625	0.767208
N156	N	0.429473	0.308625	1.017208
N157	N	-0.320521	-0.378923	0.267228
N158	N	-0.070521	-0.128923	0.517228
N159	N	0.179479	0.121077	0.767228
N160	N	0.429479	0.371077	1.017228
C161	C	-0.325775	-0.346565	0.326472
C162	C	-0.075775	-0.096565	0.576472
C163	C	0.174225	0.153435	0.826472
C164	C	0.424225	0.403435	1.076472
N165	N	-0.331048	-0.379017	0.385697
N166	N	-0.081048	-0.129017	0.635697
N167	N	0.168952	0.120983	0.885697
N168	N	0.418952	0.370983	1.135697
N169	N	-0.331057	-0.441474	0.385676
N170	N	-0.081057	-0.191474	0.635676
N171	N	0.168943	0.058526	0.885676
N172	N	0.418943	0.308526	1.135676
C173	C	-0.325793	-0.473354	0.326432
C174	C	-0.075793	-0.223354	0.576432
C175	C	0.174207	0.026646	0.826432
C176	C	0.424207	0.276646	1.076432
C177	C	-0.369100	-0.242411	0.369715
C178	C	-0.119100	0.007589	0.619715
C179	C	0.130900	0.257589	0.869715
C180	C	0.380900	0.507589	1.119715
C181	C	-0.369082	-0.176668	0.369741
C182	C	-0.119082	0.073332	0.619741
C183	C	0.130918	0.323332	0.869741
C184	C	0.380918	0.573332	1.119741
C185	C	-0.282394	-0.176672	0.283323
C186	C	-0.032394	0.073328	0.533323
C187	C	0.217606	0.323328	0.783323
C188	C	0.467606	0.573328	1.033323
C189	C	-0.282409	-0.242415	0.283302
C190	C	-0.032409	0.007585	0.533302
C191	C	0.217591	0.257585	0.783302
C192	C	0.467591	0.507585	1.033302
C193	C	-0.325766	-0.275280	0.326497
C194	C	-0.075766	-0.025280	0.576497
C195	C	0.174234	0.224720	0.826497
C196	C	0.424234	0.474720	1.076497
C197	C	-0.149209	-0.909730	0.326538
C198	C	0.100791	-0.659730	0.576538
C199	C	0.350791	-0.409730	0.826538
C200	C	0.600791	-0.159730	1.076538
C201	C	-0.073977	-0.909767	0.326559
C202	C	0.176023	-0.659767	0.576559
C203	C	0.426023	-0.409767	0.826559
C204	C	0.676023	-0.159767	1.076559
C205	C	-0.325706	-0.909658	0.503033
C206	C	-0.075706	-0.659658	0.753033
C207	C	0.174294	-0.409658	1.003033
C208	C	0.424294	-0.159658	1.253033
C209	C	-0.325687	-0.909666	0.578265
C210	C	-0.075687	-0.659666	0.828265
C211	C	0.174313	-0.409666	1.078265
C212	C	0.424313	-0.159666	1.328265
C213	C	-0.325721	-0.073832	0.326562
C214	C	-0.075721	0.176168	0.576562
C215	C	0.174279	0.426168	0.826562
C216	C	0.424279	0.676168	1.076562
C217	C	-0.325736	-0.143800	0.326543
C218	C	-0.075736	0.106200	0.576543
C219	C	0.174264	0.356200	0.826543
C220	C	0.424264	0.606200	1.076543
C221	C	-0.325749	-0.909661	0.150635
C222	C	-0.075749	-0.659661	0.400635
C223	C	0.174251	-0.409661	0.650635
C224	C	0.424251	-0.159661	0.900635
C225	C	-0.325577	-0.909776	0.075403
C226	C	-0.075577	-0.659776	0.325403
C227	C	0.174423	-0.409776	0.575403
C228	C	0.424423	-0.159776	0.825403
C229	C	-0.368859	-0.950005	1.040065
C230	C	-0.118859	-0.700005	1.290065
C231	C	0.131141	-0.450005	1.540065
C232	C	0.381141	-0.200005	1.790065
C233	C	-0.368877	-0.949987	0.969376
C234	C	-0.118877	-0.699987	1.219376
C235	C	0.131123	-0.449987	1.469376
C236	C	0.381123	-0.199987	1.719376
C237	C	-0.325610	-0.909744	0.934027
C238	C	-0.075610	-0.659744	1.184027
C239	C	0.174390	-0.409744	1.434027
C240	C	0.424390	-0.159744	1.684027
C241	C	-0.282327	-0.869510	0.969370
C242	C	-0.032327	-0.619510	1.219370
C243	C	0.217673	-0.369510	1.469370
C244	C	0.467673	-0.119510	1.719370
C245	C	-0.282312	-0.869525	1.040058
C246	C	-0.032312	-0.619525	1.290058
C247	C	0.217688	-0.369525	1.540058
C248	C	0.467688	-0.119525	1.790058
C249	C	-0.282385	-0.869450	0.684297
C250	C	-0.032385	-0.619450	0.934297
C251	C	0.217615	-0.369450	1.184297
C252	C	0.467615	-0.119450	1.434297
C253	C	-0.282401	-0.869439	0.613605
C254	C	-0.032401	-0.619439	0.863605
C255	C	0.217599	-0.369439	1.113605
C256	C	0.467599	-0.119439	1.363605
C257	C	-0.368950	-0.949912	0.613616
C258	C	-0.118950	-0.699912	0.863616
C259	C	0.131050	-0.449912	1.113616
C260	C	0.381050	-0.199912	1.363616
C261	C	-0.368935	-0.949926	0.684303
C262	C	-0.118935	-0.699926	0.934303
C263	C	0.131065	-0.449926	1.184303
C264	C	0.381065	-0.199926	1.434303
C265	C	-0.325655	-0.909691	0.719640
C266	C	-0.075655	-0.659691	0.969640
C267	C	0.174345	-0.409691	1.219640
C268	C	0.424345	-0.159691	1.469640
C269	C	-0.325636	-0.909710	0.796288
C270	C	-0.075636	-0.659710	1.046288
C271	C	0.174364	-0.409710	1.296288
C272	C	0.424364	-0.159710	1.546288
C273	C	-0.325625	-0.909728	0.857380
C274	C	-0.075625	-0.659728	1.107380
C275	C	0.174375	-0.409728	1.357380
C276	C	0.424375	-0.159728	1.607380
H277	H	-0.583373	-0.982687	0.248034
H278	H	-0.333373	-0.732687	0.498034
H279	H	-0.083373	-0.482687	0.748034
H280	H	0.166627	-0.232687	0.998034
H281	H	-0.939132	-0.982806	0.248101
H282	H	-0.689132	-0.732806	0.498101
H283	H	-0.439132	-0.482806	0.748101
H284	H	-0.189132	-0.232806	0.998101
F285	F	-0.236349	-0.826604	0.575985
F286	F	0.013651	-0.576604	0.825985
F287	F	0.263651	-0.326604	1.075985
F288	F	0.513651	-0.076604	1.325985
H289	H	-1.067378	-0.982850	0.248124
H290	H	-0.817378	-0.732850	0.498124
H291	H	-0.567378	-0.482850	0.748124
H292	H	-0.317378	-0.232850	0.998124
F293	F	-0.414907	-0.992842	1.077680
F294	F	-0.164907	-0.742842	1.327680
F295	F	0.085093	-0.492842	1.577680
F296	F	0.335093	-0.242842	1.827680
F297	F	-0.720440	-0.992812	0.237257
F298	F	-0.470440	-0.742812	0.487257
F299	F	-0.220440	-0.492812	0.737257
F300	F	0.029560	-0.242812	0.987257
H301	H	-1.067445	-0.836673	0.404990
H302	H	-0.817445	-0.586673	0.654990
H303	H	-0.567445	-0.336673	0.904990
H304	H	-0.317445	-0.086673	1.154990
H305	H	-0.939208	-0.836631	0.404969
H306	H	-0.689208	-0.586631	0.654969
H307	H	-0.439208	-0.336631	0.904969
H308	H	-0.189208	-0.086631	1.154969
F309	F	-0.720528	-0.826491	0.415739
F310	F	-0.470528	-0.576491	0.665739
F311	F	-0.220528	-0.326491	0.915739
F312	F	0.029472	-0.076491	1.165739
H313	H	-0.247144	-0.836687	0.713060
H314	H	0.002856	-0.586687	0.963060
H315	H	0.252856	-0.336687	1.213060
H316	H	0.502856	-0.086687	1.463060
H317	H	-0.247101	-0.836741	0.940584
H318	H	0.002899	-0.586741	1.190584
H319	H	0.252899	-0.336741	1.440584
H320	H	0.502899	-0.086741	1.690584
H321	H	-0.583442	-0.836514	0.404906
H322	H	-0.333442	-0.586514	0.654906
H323	H	-0.083442	-0.336514	0.904906
H324	H	0.166558	-0.086514	1.154906
H325	H	-0.404193	-0.982671	0.584836
H326	H	-0.154193	-0.732671	0.834836
H327	H	0.095807	-0.482671	1.084836
H328	H	0.345807	-0.232671	1.334836
H329	H	-0.404471	-0.670009	0.404763
H330	H	-0.154471	-0.420009	0.654763
H331	H	0.095529	-0.170009	0.904763
H332	H	0.345529	0.079991	1.154763
H333	H	-0.404372	-0.149908	0.404934
H334	H	-0.154372	0.100092	0.654934
H335	H	0.095628	0.350092	0.904934
H336	H	0.345628	0.600092	1.154934
F337	F	-0.236330	-0.542529	0.237229
F338	F	0.013670	-0.292529	0.487229
F339	F	0.263670	-0.042529	0.737229
F340	F	0.513670	0.207471	0.987229
H341	H	-0.247099	-0.149908	0.248153
H342	H	0.002901	0.100092	0.498153
H343	H	0.252901	0.350092	0.748153
H344	H	0.502901	0.600092	0.998153
H345	H	-0.404445	-0.550746	0.404805
H346	H	-0.154445	-0.300746	0.654805
H347	H	0.095555	-0.050746	0.904805
H348	H	0.345555	0.199254	1.154805
F349	F	-0.236244	-0.826711	1.077667
F350	F	0.013756	-0.576711	1.327667
F351	F	0.263756	-0.326711	1.577667
F352	F	0.513756	-0.076711	1.827667
F353	F	-0.236344	-0.678237	0.237189
F354	F	0.013656	-0.428237	0.487189
F355	F	0.263656	-0.178237	0.737189
F356	F	0.513656	0.071763	0.987189
H357	H	-0.247122	-0.269176	0.248111
H358	H	0.002878	-0.019176	0.498111
H359	H	0.252878	0.230824	0.748111
H360	H	0.502878	0.480824	0.998111
F361	F	-0.415240	-0.277392	0.415690
F362	F	-0.165240	-0.027392	0.665690
F363	F	0.084760	0.222608	0.915690
F364	F	0.334760	0.472608	1.165690
F365	F	-0.414943	-0.992805	0.931770
F366	F	-0.164943	-0.742805	1.181770
F367	F	0.085057	-0.492805	1.431770
F368	F	0.335057	-0.242805	1.681770
H369	H	-0.404165	-0.982699	0.713081
H370	H	-0.154165	-0.732699	0.963081
H371	H	0.095835	-0.482699	1.213081
H372	H	0.345835	-0.232699	1.463081
