data_functionalizedCrystal
_audit_creation_method	'MofGen! by Chris Wilmer'
_symmetry_space_group_name_H-M	'P1'
_symmetry_Int_Tables_number	1
_symmetry_cell_setting	triclinic
loop_
_symmetry_equiv_pos_as_xyz
  x,y,z
_cell_length_a	29.839131
_cell_length_b	17.077404
_cell_length_c	17.077396
_cell_angle_alpha	89.981638
_cell_angle_beta	89.968087
_cell_angle_gamma	90.039390
loop_
_atom_site_label
_atom_site_type_symbol
_atom_site_fract_x
_atom_site_fract_y
_atom_site_fract_z
Zn1	Zn	-0.178878	1.199953	-0.443800
Zn2	Zn	-0.254008	1.199818	-0.312526
Zn3	Zn	-0.178890	1.068685	-0.312551
Zn4	Zn	-0.253979	1.068611	-0.443752
O5	O	-0.216439	1.134267	-0.378157
O6	O	-0.188851	1.309782	-0.426396
O7	O	-0.244062	1.182398	-0.202682
O8	O	-0.116022	1.086186	-0.329991
O9	O	-0.244049	1.309683	-0.329950
O10	O	-0.116012	1.182628	-0.426420
O11	O	-0.188873	1.086055	-0.202700
O12	O	-0.188844	0.958829	-0.329945
O13	O	-0.243999	1.086059	-0.553606
O14	O	-0.244011	0.958774	-0.426338
O15	O	-0.188822	1.182556	-0.553641
O16	O	-0.316872	1.182325	-0.329903
O17	O	-0.316850	1.085928	-0.426315
C18	C	-0.216426	0.930319	-0.378140
C19	C	-0.216431	0.843069	-0.378151
C20	C	-0.333161	1.134125	-0.378118
C21	C	-0.383096	1.134136	-0.378128
C22	C	-0.187741	0.802132	-0.428447
C23	C	-0.187744	0.720151	-0.428451
C24	C	-0.216440	0.679110	-0.378161
C25	C	-0.245132	0.720053	-0.327860
C26	C	-0.245126	0.802032	-0.327853
C27	C	-0.245142	0.549183	-0.327879
C28	C	-0.245148	0.467199	-0.327887
C29	C	-0.187759	0.467302	-0.428477
C30	C	-0.187754	0.549281	-0.428470
C31	C	-0.216447	0.590219	-0.378169
C32	C	-0.692738	1.184552	-0.328029
C33	C	-0.880411	1.184649	-0.328060
O34	O	-0.904675	1.227402	-0.285434
N35	N	-0.903881	1.134430	-0.378217
C36	C	-0.880430	1.084186	-0.428373
O37	O	-0.904699	1.041479	-0.471041
C38	C	-0.692757	1.084094	-0.428346
C39	C	-0.669290	1.134311	-0.378180
C40	C	-0.669270	1.234766	-0.277868
C41	C	-0.622355	1.234738	-0.277858
C42	C	-0.598907	1.184497	-0.328009
C43	C	-0.622375	1.134283	-0.378170
C44	C	-0.669307	1.033855	-0.478506
C45	C	-0.622386	1.033837	-0.478496
C46	C	-0.598919	1.084054	-0.428330
C47	C	-0.552011	1.084014	-0.428311
N48	N	-0.528541	1.134233	-0.378154
C49	C	-0.551989	1.184475	-0.328003
C50	C	-0.978960	1.084237	-0.428382
C51	C	-1.025878	1.084259	-0.428388
C52	C	-1.025856	1.184723	-0.328076
C53	C	-0.978937	1.184697	-0.328067
C54	C	-0.955490	1.134456	-0.378226
C55	C	-0.453463	1.184412	-0.327985
C56	C	-0.406544	1.184378	-0.327977
C57	C	-0.406570	1.083917	-0.428292
C58	C	-0.453485	1.083948	-0.428297
C59	C	-0.476931	1.134202	-0.378141
O60	O	-0.527719	1.041289	-0.470920
O61	O	-0.527712	1.227188	-0.285354
C62	C	-0.739653	1.184580	-0.328039
C63	C	-0.763121	1.134366	-0.378200
C64	C	-0.739673	1.084125	-0.428351
C65	C	-0.810039	1.134388	-0.378206
C66	C	-0.833487	1.184630	-0.328056
C67	C	-0.810017	1.234849	-0.277899
C68	C	-0.763101	1.234822	-0.277889
C69	C	-0.763143	1.033905	-0.478508
C70	C	-0.810058	1.033937	-0.478513
C71	C	-0.833506	1.084178	-0.428363
C72	C	-0.099260	1.134431	-0.378214
C73	C	-0.049326	1.134500	-0.378238
C74	C	-0.216406	1.134314	-0.582902
C75	C	-0.216392	1.134335	-0.670152
C76	C	-0.216452	1.339011	-0.378175
C77	C	-0.216458	1.426261	-0.378183
C78	C	-0.187659	1.184582	-0.711161
C79	C	-0.187644	1.184592	-0.793142
C80	C	-0.216364	1.134357	-0.834111
C81	C	-0.245098	1.084104	-0.793096
C82	C	-0.245111	1.084091	-0.711117
C83	C	-0.245071	1.084135	-0.963966
C84	C	-0.245060	1.084149	-1.045950
C85	C	-0.187605	1.184636	-1.045991
C86	C	-0.187617	1.184624	-0.964012
C87	C	-0.216352	1.134371	-0.923002
C88	C	-0.216439	1.134265	-0.174209
C89	C	-0.216327	1.134397	-0.086960
H90	H	-0.164374	0.835542	-0.469401
F91	F	-0.275670	0.676372	-0.274334
H92	H	-0.744055	0.992994	-0.519348
F93	F	-0.157216	0.592959	-0.482000
H94	H	-1.044981	1.043360	-0.469231
F95	F	-0.275691	1.030608	-0.667472
H96	H	-0.472547	1.225336	-0.287145
F97	F	-0.275698	0.423521	-0.274378
F98	F	-0.381570	1.237828	-0.274581
H99	H	-0.164382	0.686823	-0.469409
H100	H	-0.268445	1.043242	-1.079306
H101	H	-0.268463	1.043202	-0.930578
H102	H	-0.959873	1.043323	-0.469229
F103	F	-0.157221	0.423733	-0.482010
H104	H	-0.268505	0.582512	-0.286917
F105	F	-0.694273	0.980412	-0.531906
H106	H	-0.268489	0.835363	-0.286896
F107	F	-0.597385	1.288196	-0.224474
F108	F	-0.275663	1.030637	-0.836700
F109	F	-0.694218	1.288246	-0.224487
H110	H	-0.743997	1.275713	-0.237039
F111	F	-0.953966	1.238145	-0.274675
F112	F	-0.381607	1.030451	-0.481666
H113	H	-0.164248	1.225511	-0.826528
H114	H	-1.044955	1.225632	-0.287241
F115	F	-0.597435	0.980364	-0.531885
H116	H	-0.164233	1.225534	-0.930657
H117	H	-0.472594	1.043059	-0.469149
F118	F	-0.834980	1.288318	-0.224522
H119	H	-0.164207	1.225552	-1.079385
H120	H	-0.829162	0.993037	-0.519364
F121	F	-0.157092	1.238054	-0.667566
