data_functionalizedCrystal
_audit_creation_method	'MofGen! by Chris Wilmer'
_symmetry_space_group_name_H-M	'P1'
_symmetry_Int_Tables_number	1
_symmetry_cell_setting	triclinic
loop_
_symmetry_equiv_pos_as_xyz
  x,y,z
_cell_length_a	12.759401
_cell_length_b	19.077068
_cell_length_c	12.759393
_cell_angle_alpha	92.261232
_cell_angle_beta	89.981504
_cell_angle_gamma	92.327081
loop_
_atom_site_label
_atom_site_type_symbol
_atom_site_fract_x
_atom_site_fract_y
_atom_site_fract_z
Zn1	Zn	1.589361	-0.280156	-0.610733
Zn2	Zn	1.582157	-0.397871	-0.442092
Zn3	Zn	1.413661	-0.280192	-0.435075
Zn4	Zn	1.406557	-0.397817	-0.617730
O5	O	1.497934	-0.339009	-0.526408
O6	O	1.735426	-0.295778	-0.588371
O7	O	1.559764	-0.382299	-0.294142
O8	O	1.442956	-0.181697	-0.452511
O9	O	1.730133	-0.382263	-0.464471
O10	O	1.572043	-0.181670	-0.581567
O11	O	1.435971	-0.295841	-0.288987
O12	O	1.265698	-0.295788	-0.459296
O13	O	1.430848	-0.382171	-0.763821
O14	O	1.260479	-0.382207	-0.593492
O15	O	1.565154	-0.295726	-0.758680
O16	O	1.552875	-0.496355	-0.471256
O17	O	1.423862	-0.496315	-0.600297
C18	C	1.224968	-0.338996	-0.526393
C19	C	1.108190	-0.339007	-0.526412
C20	C	1.050634	-0.384078	-0.596181
C21	C	0.940909	-0.384086	-0.596193
C22	C	0.946308	-0.293953	-0.456658
C23	C	1.056030	-0.293941	-0.456652
C24	C	1.047516	-0.436117	-0.676738
C25	C	0.937791	-0.436126	-0.676750
C26	C	1.486845	-0.521872	-0.537320
C27	C	1.482197	-0.600102	-0.542023
C28	C	1.547235	-0.636852	-0.477104
C29	C	1.542870	-0.710357	-0.481534
C30	C	1.473460	-0.747111	-0.550879
C31	C	1.408418	-0.710356	-0.615805
C32	C	1.412790	-0.636852	-0.611380
C33	C	1.453182	-0.966943	-0.571318
C34	C	1.448813	-1.040452	-0.575736
C35	C	1.583267	-1.040448	-0.441466
C36	C	1.587627	-0.966943	-0.437042
C37	C	1.522590	-0.930195	-0.501972
N38	N	1.468994	-0.822245	-0.555406
N39	N	1.527062	-0.855062	-0.497450
C40	C	1.771967	-0.339023	-0.526423
C41	C	1.888743	-0.339028	-0.526430
C42	C	1.498012	-0.338938	-0.800437
C43	C	1.498045	-0.338908	-0.917212
C44	C	1.509096	-0.155432	-0.515476
C45	C	1.513852	-0.077202	-0.510817
C46	C	1.567988	-0.293891	-0.969398
C47	C	1.568014	-0.293866	-1.079121
C48	C	1.428152	-0.383879	-1.084461
C49	C	1.428122	-0.383901	-0.974740
C50	C	1.648739	-0.241925	-0.966316
C51	C	1.648766	-0.241900	-1.076039
C52	C	1.497920	-0.339029	-0.253441
C53	C	1.498102	-0.338861	-0.136655
H54	H	1.078200	-0.421581	-0.757275
O55	O	1.626556	-0.176957	-0.926797
C56	C	1.534600	-0.181491	-0.865720
H57	H	1.522340	-0.237258	-0.837801
H58	H	1.464463	-0.167601	-0.915030
C59	C	1.560516	-0.061378	-0.804398
C60	C	1.545463	-0.129872	-0.770099
H61	H	1.567214	-0.029536	-0.745416
H62	H	1.622467	-0.058323	-0.845549
H63	H	1.502066	-0.049814	-0.845490
H64	H	1.603919	-0.141438	-0.729020
H65	H	1.483523	-0.132928	-0.728938
H66	H	1.078409	-0.487869	-0.650548
O67	O	1.360313	-0.427660	-0.923937
C68	C	1.417328	-0.473154	-0.863192
H69	H	1.498457	-0.448348	-0.845276
H70	H	1.425702	-0.525304	-0.908579
C71	C	1.259062	-0.516378	-0.781733
C72	C	1.358703	-0.485908	-0.759721
H73	H	1.222898	-0.524249	-0.717909
H74	H	1.220649	-0.485730	-0.822660
H75	H	1.266054	-0.559833	-0.819558
H76	H	1.351709	-0.442450	-0.721908
H77	H	1.397114	-0.516550	-0.718784
H78	H	1.595830	-0.740275	-0.428669
O79	O	1.360338	-0.427564	-1.140507
C80	C	1.375340	-0.417879	-1.248540
H81	H	1.457825	-0.394830	-1.262163
H82	H	1.315310	-0.380389	-1.277444
C83	C	1.260087	-0.517390	-1.292373
C84	C	1.361400	-0.489085	-1.309105
H85	H	1.251484	-0.561312	-1.329734
H86	H	1.249976	-0.523913	-1.219589
H87	H	1.210073	-0.486141	-1.316459
H88	H	1.411412	-0.520329	-1.285008
H89	H	1.371519	-0.482568	-1.381887
H90	H	1.351908	-0.740287	-0.672271
O91	O	0.898668	-0.413026	-0.767729
C92	C	0.930287	-0.456964	-0.852389
H93	H	0.949577	-0.510457	-0.822410
H94	H	1.002764	-0.432308	-0.890839
C95	C	0.817172	-0.400303	-0.970246
C96	C	0.840855	-0.466007	-0.933427
H97	H	0.762009	-0.405879	-1.020237
H98	H	0.795872	-0.370700	-0.913211
H99	H	0.877576	-0.379763	-1.002280
H100	H	0.780455	-0.486541	-0.901382
H101	H	0.862143	-0.495614	-0.990459
H102	H	1.724832	-0.261465	-0.933449
O103	O	1.617622	-0.180115	-1.112844
C104	C	1.514921	-0.167768	-1.077893
H105	H	1.498052	-0.198294	-1.004318
H106	H	1.456411	-0.185752	-1.141910
C107	C	1.525276	-0.051261	-1.142992
C108	C	1.504561	-0.088749	-1.052621
H109	H	1.518882	-0.002518	-1.127407
H110	H	1.594466	-0.059580	-1.166543
H111	H	1.476515	-0.066256	-1.196331
H112	H	1.553329	-0.073760	-0.999289
H113	H	1.435378	-0.080426	-1.029060
O114	O	1.744743	-0.259441	-1.112579
C115	C	1.767451	-0.326868	-1.079660
H116	H	1.691147	-0.357268	-1.061960
H117	H	1.818062	-0.321766	-1.005925
C118	C	1.920680	-0.329010	-1.188958
C119	C	1.826962	-0.366350	-1.167226
H120	H	1.957393	-0.353364	-1.242969
H121	H	1.905384	-0.283582	-1.211133
H122	H	1.962844	-0.324761	-1.127504
H123	H	1.784795	-0.370591	-1.228675
H124	H	1.842252	-0.411780	-1.145063
H125	H	1.102889	-0.257236	-0.399846
O126	O	1.646563	-1.076175	-0.378560
C127	C	1.711845	-1.118631	-0.440996
H128	H	1.719596	-1.096432	-0.522414
H129	H	1.676054	-1.174357	-0.447935
C130	C	1.811515	-1.146985	-0.289844
C131	C	1.821041	-1.119716	-0.389840
H132	H	1.878871	-1.147658	-0.258288
H133	H	1.767531	-1.118384	-0.247778
H134	H	1.781685	-1.193421	-0.295641
H135	H	1.850858	-1.073279	-0.384041
H136	H	1.865033	-1.148310	-0.431904
O137	O	1.654909	-0.931215	-0.369568
C138	C	1.597658	-0.888755	-0.299118
H139	H	1.513593	-0.910954	-0.293895
H140	H	1.597338	-0.833031	-0.328240
C141	C	1.752358	-0.860398	-0.196290
C142	C	1.649110	-0.887666	-0.189870
H143	H	1.784098	-0.859723	-0.128902
H144	H	1.790931	-0.889002	-0.243756
H145	H	1.752077	-0.813964	-0.220563
H146	H	1.649393	-0.934102	-0.165610
H147	H	1.610538	-0.859070	-0.142397
H148	H	0.903825	-0.257262	-0.399862
O149	O	1.381364	-1.076048	-0.643201
C150	C	1.324881	-1.027852	-0.699547
H151	H	1.371027	-0.975429	-0.700065
H152	H	1.245565	-1.020100	-0.660549
C153	C	1.251316	-1.120878	-0.812437
C154	C	1.307996	-1.056493	-0.813082
H155	H	1.240895	-1.138545	-0.882469
H156	H	1.289366	-1.153349	-0.774474
H157	H	1.185225	-1.114409	-0.779934
H158	H	1.374091	-1.062963	-0.845572
H159	H	1.269957	-1.024023	-0.851053
H160	H	0.904709	-0.490623	-0.658076
H161	H	1.603752	-0.606931	-0.420632
O162	O	1.390149	-0.931224	-0.634493
C163	C	1.452448	-0.888624	-0.699831
H164	H	1.533880	-0.910720	-0.707724
H165	H	1.459389	-0.832930	-0.664008
C166	C	1.301105	-0.860337	-0.799240
C167	C	1.401120	-0.887479	-0.808941
H168	H	1.269442	-0.859627	-0.866542
H169	H	1.259132	-0.889035	-0.755218
H170	H	1.306903	-0.813928	-0.769383
H171	H	1.395319	-0.933891	-0.838785
H172	H	1.443091	-0.858789	-0.852971
H173	H	1.359830	-0.606931	-0.664245
