data_functionalizedCrystal
_audit_creation_method	'MofGen! by Chris Wilmer'
_symmetry_space_group_name_H-M	'P1'
_symmetry_Int_Tables_number	1
_symmetry_cell_setting	triclinic
loop_
_symmetry_equiv_pos_as_xyz
  x,y,z
_cell_length_a	14.044191
_cell_length_b	23.532407
_cell_length_c	12.503572
_cell_angle_alpha	93.496478
_cell_angle_beta	86.162165
_cell_angle_gamma	88.020227
loop_
_atom_site_label
_atom_site_type_symbol
_atom_site_fract_x
_atom_site_fract_y
_atom_site_fract_z
O1	O	1.261909	0.134239	-0.089289
O2	O	0.985986	0.129282	-0.089302
O3	O	1.132267	0.049280	-0.089275
O4	O	1.115628	0.214240	-0.089315
O5	O	1.121265	0.055308	0.089365
O6	O	0.974985	0.135309	0.089338
O7	O	1.250907	0.140266	0.089351
Cu8	Cu	1.111942	0.138338	0.105656
Cu9	Cu	1.124952	0.131210	-0.105606
O10	O	1.104627	0.220268	0.089325
C11	C	0.945192	0.130127	0.000017
C12	C	0.840027	0.123660	0.000013
C13	C	1.126342	0.031055	0.000048
C14	C	1.125068	-0.032231	0.000056
C15	C	0.589420	0.157705	0.000015
C16	C	0.647480	0.111845	0.000025
C17	C	0.754623	0.118420	0.000018
C18	C	0.482267	0.151131	0.000022
C19	C	1.203646	-0.427075	0.000001
C20	C	1.202463	-0.486540	-0.000008
O21	O	1.275306	-0.519337	-0.000044
N22	N	1.115499	-0.513881	-0.000011
C23	C	1.029713	-0.481755	-0.000017
O24	O	0.955634	-0.510471	-0.000021
C25	C	1.030897	-0.422292	-0.000016
C26	C	1.117867	-0.394953	-0.000002
C27	C	1.290609	-0.399737	0.000013
C28	C	1.291791	-0.340276	0.000024
C29	C	1.206011	-0.308154	0.000021
C30	C	1.119049	-0.335493	0.000008
C31	C	0.945113	-0.390167	-0.000030
C32	C	0.946305	-0.330699	-0.000030
C33	C	1.033274	-0.303361	-0.000016
C34	C	1.034452	-0.243910	0.000015
N35	N	1.121416	-0.216569	0.000019
C36	C	1.207196	-0.248691	0.000021
C37	C	1.027232	-0.606632	-0.000020
C38	C	1.026046	-0.666094	-0.000013
C39	C	1.198797	-0.670875	-0.000006
C40	C	1.199982	-0.611412	-0.000005
C41	C	1.114196	-0.579291	-0.000017
C42	C	1.209673	-0.123819	0.000044
C43	C	1.210847	-0.064353	0.000058
C44	C	1.038097	-0.059577	0.000046
C45	C	1.036922	-0.119038	0.000037
C46	C	1.122717	-0.151158	0.000032
O47	O	0.961648	-0.211077	0.000047
O48	O	1.281263	-0.219968	0.000012
C49	C	1.291702	0.139421	0.000030
C50	C	1.396867	0.145888	0.000027
C51	C	1.110552	0.238493	-0.000000
C52	C	1.111827	0.301778	-0.000016
N53	N	1.102798	0.143352	0.254247
N54	N	1.134103	0.126192	-0.254197
C55	C	1.089347	0.150732	0.473359
C56	C	1.147551	0.118814	0.526697
C57	C	1.140067	0.122920	0.648619
C58	C	1.096830	0.146626	0.351426
H59	H	0.616725	0.067643	-0.000040
F60	F	1.016874	0.190478	0.533352
H61	H	0.620178	0.201901	0.000001
F62	F	1.303416	-0.035261	0.000073
F63	F	1.300986	-0.157995	0.000039
H64	H	0.966102	-0.141297	0.000055
F65	F	0.946809	-0.025380	0.000043
H66	H	1.362611	-0.318023	0.000031
H67	H	1.270800	-0.589157	0.000006
H68	H	1.360465	-0.425885	0.000012
F69	F	0.852547	-0.419249	-0.000050
H70	H	1.268644	-0.697040	-0.000007
H71	H	0.955226	-0.688347	-0.000006
H72	H	0.876446	-0.304549	-0.000041
F73	F	0.935920	-0.572451	-0.000022
F74	F	1.220312	0.079251	0.466703
