data_functionalizedCrystal
_audit_creation_method	'MofGen! by Chris Wilmer'
_symmetry_space_group_name_H-M	'P1'
_symmetry_Int_Tables_number	1
_symmetry_cell_setting	triclinic
loop_
_symmetry_equiv_pos_as_xyz
  x,y,z
_cell_length_a	17.077404
_cell_length_b	18.050589
_cell_length_c	17.077383
_cell_angle_alpha	89.913885
_cell_angle_beta	89.939233
_cell_angle_gamma	90.026468
loop_
_atom_site_label
_atom_site_type_symbol
_atom_site_fract_x
_atom_site_fract_y
_atom_site_fract_z
Zn1	Zn	1.200330	-0.295243	-0.443905
Zn2	Zn	1.200135	-0.419574	-0.312648
Zn3	Zn	1.068972	-0.295398	-0.312649
Zn4	Zn	1.069018	-0.419392	-0.443867
O5	O	1.134614	-0.357402	-0.378267
O6	O	1.310151	-0.311747	-0.426509
O7	O	1.182635	-0.403243	-0.202801
O8	O	1.086460	-0.191453	-0.330076
O9	O	1.310008	-0.403092	-0.330075
O10	O	1.182968	-0.191339	-0.426510
O11	O	1.086270	-0.312012	-0.202801
O12	O	0.959131	-0.311835	-0.330039
O13	O	1.086538	-0.402783	-0.553720
O14	O	0.959165	-0.402933	-0.426445
O15	O	1.183012	-0.311571	-0.553748
O16	O	1.182680	-0.523474	-0.330038
O17	O	1.086348	-0.523341	-0.426444
C18	C	0.930666	-0.357382	-0.378239
C19	C	0.843416	-0.357391	-0.378245
C20	C	1.134519	-0.550354	-0.378254
C21	C	1.134550	-0.632900	-0.378275
C22	C	0.467674	-0.309944	-0.428589
C23	C	0.549654	-0.309939	-0.428581
C24	C	0.590567	-0.357418	-0.378287
C25	C	0.549496	-0.404910	-0.328004
C26	C	0.467517	-0.404919	-0.328017
C27	C	0.720366	-0.404888	-0.327979
C28	C	0.802351	-0.404878	-0.327964
C29	C	0.802503	-0.309908	-0.428542
C30	C	0.720524	-0.309917	-0.428555
C31	C	0.679458	-0.357408	-0.378271
C32	C	1.082217	-0.832305	-0.430682
C33	C	1.063033	-0.881819	-0.359052
C34	C	1.134628	-0.784030	-0.378285
C35	C	1.153850	-0.881598	-0.449923
C36	C	1.134701	-0.930015	-0.378301
C37	C	1.115406	-0.832457	-0.306617
C38	C	1.206257	-0.832232	-0.397536
C39	C	1.187099	-0.881723	-0.325857
C40	C	1.134583	-0.699932	-0.378277
C41	C	1.134745	-1.014112	-0.378302
C42	C	1.339358	-0.357423	-0.378296
C43	C	1.426608	-0.357432	-0.378309
C44	C	1.134802	-0.357139	-0.583012
C45	C	1.134882	-0.357028	-0.670262
C46	C	1.134730	-0.163696	-0.378297
C47	C	1.134780	-0.081151	-0.378310
C48	C	1.134472	-0.357610	-0.174319
C49	C	1.134544	-0.357513	-0.087069
C50	C	1.084715	-0.405299	-0.045851
C51	C	1.084778	-0.405201	0.036129
C52	C	1.134674	-0.357320	0.076890
C53	C	1.184504	-0.309529	0.035666
C54	C	1.184437	-0.309624	-0.046313
C55	C	1.184642	-0.309336	0.206535
C56	C	1.184711	-0.309242	0.288520
C57	C	1.084983	-0.404913	0.288977
C58	C	1.084916	-0.405008	0.206999
C59	C	1.134748	-0.357217	0.165780
H60	H	0.434368	-0.271277	-0.469540
H61	H	0.835943	-0.271238	-0.469484
H62	H	1.170080	-0.903187	-0.510500
C63	C	0.846878	-0.456472	-0.273495
C64	C	0.893996	-0.504053	-0.317856
C65	C	0.935035	-0.551585	-0.267707
H66	H	0.810775	-0.484835	-0.243533
H67	H	0.878871	-0.428073	-0.239351
H68	H	0.862005	-0.532450	-0.351986
H69	H	0.930113	-0.475711	-0.347817
H70	H	0.967028	-0.523185	-0.233563
H71	H	0.898926	-0.579942	-0.237747
H72	H	0.967014	-0.583870	-0.297798
H73	H	1.044407	-0.443825	0.322541
H74	H	0.686933	-0.443564	-0.287036
C75	C	0.982251	-0.910822	-0.337492
C76	C	0.927575	-0.885802	-0.392535
C77	C	0.853152	-0.912510	-0.372711
H78	H	0.968154	-0.893290	-0.286993
H79	H	0.982949	-0.963451	-0.337220
H80	H	0.926875	-0.833185	-0.392799
H81	H	0.941646	-0.903333	-0.443039
H82	H	0.853851	-0.965139	-0.372438
H83	H	0.839064	-0.894976	-0.322210
H84	H	0.816047	-0.895544	-0.410058
H85	H	0.582814	-0.443571	-0.287057
H86	H	1.044087	-0.444292	-0.079033
C87	C	1.238584	-0.257862	-0.091167
C88	C	1.289142	-0.299621	-0.138224
C89	C	1.339024	-0.251959	-0.179562
H90	H	1.268386	-0.229315	-0.055243
H91	H	1.208320	-0.225757	-0.123227
H92	H	1.319402	-0.331713	-0.106168
H93	H	1.259362	-0.328166	-0.174164
H94	H	1.308760	-0.219854	-0.211621
H95	H	1.368820	-0.223414	-0.143632
H96	H	1.373328	-0.280285	-0.211500
H97	H	1.225336	-0.270249	0.321705
C98	C	0.594098	-0.258293	-0.483195
C99	C	0.540722	-0.216696	-0.527222
C100	C	0.581635	-0.169102	-0.577535
H101	H	0.626113	-0.286618	-0.517415
H102	H	0.626036	-0.225888	-0.453234
H103	H	0.508798	-0.249097	-0.557181
H104	H	0.508705	-0.188357	-0.493024
H105	H	0.613572	-0.136697	-0.547573
H106	H	0.613648	-0.197433	-0.611749
H107	H	0.545425	-0.140868	-0.607408
H108	H	1.225215	-0.270415	0.172978
H109	H	1.266783	-0.810437	-0.413839
C110	C	0.423069	-0.456505	-0.273340
C111	C	0.476444	-0.498070	-0.229277
C112	C	0.435529	-0.545596	-0.178895
H113	H	0.391113	-0.488938	-0.303228
H114	H	0.391073	-0.428110	-0.239153
H115	H	0.508426	-0.526463	-0.263460
H116	H	0.508402	-0.465656	-0.199373
H117	H	0.403533	-0.517201	-0.144707
H118	H	0.403573	-0.578024	-0.208789
H119	H	0.471736	-0.573798	-0.148987
H120	H	1.044211	-0.444121	0.069685
C121	C	1.246136	-0.910440	-0.266595
C122	C	1.225686	-0.885423	-0.191753
C123	C	1.280042	-0.911872	-0.137138
H124	H	1.296871	-0.892728	-0.279726
H125	H	1.246135	-0.963069	-0.267175
H126	H	1.225695	-0.832805	-0.191175
H127	H	1.174960	-0.903133	-0.178598
H128	H	1.280041	-0.964502	-0.137719
H129	H	1.330773	-0.894158	-0.150277
H130	H	1.266170	-0.894908	-0.086351
C131	C	1.023094	-0.803470	-0.489796
C132	C	1.042614	-0.829455	-0.564516
C133	C	0.988161	-0.802915	-0.618985
H134	H	1.023763	-0.750850	-0.489817
H135	H	0.972243	-0.820475	-0.476045
H136	H	1.093452	-0.812446	-0.578263
H137	H	1.041939	-0.882072	-0.564521
H138	H	0.937310	-0.819920	-0.605234
H139	H	0.988835	-0.750295	-0.618998
H140	H	1.001394	-0.820547	-0.669686
C141	C	1.030659	-0.457021	0.162884
C142	C	0.987017	-0.498839	0.216525
C143	C	0.937018	-0.546753	0.175915
H144	H	1.060803	-0.489276	0.130936
H145	H	0.996190	-0.428896	0.130905
H146	H	1.021482	-0.526962	0.248490
H147	H	0.956857	-0.466603	0.248474
H148	H	0.902549	-0.518628	0.143936
H149	H	0.967169	-0.579003	0.143969
H150	H	0.907396	-0.575127	0.212304
C151	C	1.093643	-0.803653	-0.225885
C152	C	1.093806	-0.726090	-0.226833
C153	C	1.073749	-0.699529	-0.152483
H154	H	1.130633	-0.820890	-0.188574
H155	H	1.042924	-0.821003	-0.212125
H156	H	1.144518	-0.708746	-0.240584
H157	H	1.056815	-0.708833	-0.264129
H158	H	1.023031	-0.716879	-0.138723
H159	H	1.110742	-0.716771	-0.115178
H160	H	1.073851	-0.646900	-0.153118
H161	H	0.687215	-0.271252	-0.469506
C162	C	1.238552	-0.257504	0.080020
C163	C	1.193814	-0.210165	0.127051
C164	C	1.243580	-0.162238	0.167928
H165	H	1.268237	-0.228985	0.043820
H166	H	1.272968	-0.285627	0.112059
H167	H	1.159412	-0.182044	0.095015
H168	H	1.164130	-0.238662	0.163266
H169	H	1.277995	-0.190361	0.199967
H170	H	1.273262	-0.133725	0.131722
H171	H	1.213232	-0.130117	0.199849
