data_functionalizedCrystal
_audit_creation_method	'MofGen! by Chris Wilmer'
_symmetry_space_group_name_H-M	'P1'
_symmetry_Int_Tables_number	1
_symmetry_cell_setting	triclinic
loop_
_symmetry_equiv_pos_as_xyz
  x,y,z
_cell_length_a	13.897449
_cell_length_b	18.101395
_cell_length_c	13.897441
_cell_angle_alpha	89.969302
_cell_angle_beta	89.979267
_cell_angle_gamma	90.032384
loop_
_atom_site_label
_atom_site_type_symbol
_atom_site_fract_x
_atom_site_fract_y
_atom_site_fract_z
Zn1	Zn	1.474613	-0.294781	-0.545380
Zn2	Zn	1.807946	0.038553	-0.212047
Zn3	Zn	2.141279	0.371886	0.121286
Zn4	Zn	1.474469	-0.418636	-0.384082
Zn5	Zn	1.807802	-0.085303	-0.050748
Zn6	Zn	2.141136	0.248030	0.282585
Zn7	Zn	1.313302	-0.294816	-0.384099
Zn8	Zn	1.646635	0.038517	-0.050766
Zn9	Zn	1.979969	0.371851	0.282568
Zn10	Zn	1.313246	-0.418588	-0.545334
Zn11	Zn	1.646579	-0.085254	-0.212001
Zn12	Zn	1.979913	0.248079	0.121332
O13	O	1.393907	-0.356705	-0.464724
O14	O	1.727241	-0.023372	-0.131390
O15	O	2.060574	0.309961	0.201943
O16	O	1.609575	-0.311216	-0.523996
O17	O	1.942909	0.022117	-0.190663
O18	O	2.276242	0.355451	0.142671
O19	O	1.453053	-0.402246	-0.249102
O20	O	1.786386	-0.068913	0.084231
O21	O	2.119720	0.264420	0.417565
O22	O	1.334784	-0.191178	-0.405520
O23	O	1.668117	0.142155	-0.072186
O24	O	2.001450	0.475488	0.261147
O25	O	1.609470	-0.402212	-0.405490
O26	O	1.942803	-0.068879	-0.072157
O27	O	2.276136	0.264454	0.261176
O28	O	1.453298	-0.191152	-0.524013
O29	O	1.786631	0.142181	-0.190679
O30	O	2.119965	0.475514	0.142654
O31	O	1.334644	-0.311276	-0.249115
O32	O	1.667978	0.022057	0.084218
O33	O	2.001311	0.355391	0.417552
O34	O	1.178313	-0.311229	-0.405475
O35	O	1.511646	0.022104	-0.072142
O36	O	1.844979	0.355438	0.261192
O37	O	1.334688	-0.402129	-0.680322
O38	O	1.668022	-0.068796	-0.346989
O39	O	2.001355	0.264537	-0.013655
O40	O	1.178272	-0.402164	-0.523934
O41	O	1.511605	-0.068830	-0.190600
O42	O	1.844938	0.264503	0.142733
O43	O	1.453244	-0.311169	-0.680356
O44	O	1.786577	0.022164	-0.347023
O45	O	2.119910	0.355498	-0.013689
O46	O	1.452999	-0.522263	-0.405445
O47	O	1.786332	-0.188929	-0.072112
O48	O	2.119665	0.144404	0.261221
O49	O	1.334549	-0.522227	-0.523917
O50	O	1.667882	-0.188894	-0.190584
O51	O	2.001215	0.144440	0.142750
C52	C	1.143293	-0.356695	-0.464702
C53	C	1.476626	-0.023362	-0.131368
C54	C	1.809960	0.309971	0.201965
C55	C	1.036079	-0.356709	-0.464715
C56	C	1.369412	-0.023376	-0.131382
C57	C	1.702746	0.309958	0.201951
C58	C	0.839784	-0.356712	-0.464741
C59	C	1.173117	-0.023378	-0.131407
C60	C	1.506451	0.309955	0.201926
C61	C	0.949016	-0.356708	-0.464724
C62	C	1.282350	-0.023374	-0.131390
C63	C	1.615683	0.309959	0.201943
C64	C	1.393778	-0.549116	-0.464695
C65	C	1.727112	-0.215782	-0.131362
C66	C	2.060445	0.117551	0.201971
C67	C	1.393811	-0.631430	-0.464716
C68	C	1.727145	-0.298097	-0.131382
C69	C	2.060478	0.035237	0.201951
C70	C	1.394023	-0.930521	-0.464767
C71	C	1.727356	-0.597187	-0.131434
C72	C	2.060690	-0.263854	0.201899
C73	C	1.319670	-0.899204	-0.539492
C74	C	1.653004	-0.565871	-0.206158
C75	C	1.986337	-0.232537	0.127175
C76	C	1.319317	-0.813586	-0.539258
C77	C	1.652650	-0.480253	-0.205925
C78	C	1.985984	-0.146919	0.127409
C79	C	1.393918	-0.782138	-0.464743
C80	C	1.727251	-0.448805	-0.131409
C81	C	2.060585	-0.115472	0.201924
C82	C	1.366392	-0.813295	-0.363084
C83	C	1.699725	-0.479961	-0.029750
C84	C	2.033059	-0.146628	0.303583
C85	C	1.365913	-0.898940	-0.363531
C86	C	1.699246	-0.565607	-0.030198
C87	C	2.032579	-0.232273	0.303136
C88	C	1.496064	-0.898862	-0.490807
C89	C	1.829398	-0.565528	-0.157474
C90	C	2.162731	-0.232195	0.175859
C91	C	1.495464	-0.813210	-0.493037
C92	C	1.828798	-0.479877	-0.159703
C93	C	2.162131	-0.146544	0.173630
C94	C	1.393860	-0.698279	-0.464722
C95	C	1.727194	-0.364945	-0.131389
C96	C	2.060527	-0.031612	0.201944
C97	C	1.394078	-1.014380	-0.464781
C98	C	1.727412	-0.681047	-0.131448
C99	C	2.060745	-0.347714	0.201886
C100	C	1.645500	-0.356716	-0.464746
C101	C	1.978834	-0.023382	-0.131413
C102	C	2.312167	0.309951	0.201920
C103	C	1.752714	-0.356720	-0.464756
C104	C	2.086048	-0.023387	-0.131423
C105	C	2.419381	0.309947	0.201911
C106	C	1.393976	-0.356640	-0.716317
C107	C	1.727309	-0.023306	-0.382984
C108	C	2.060642	0.310027	-0.049650
C109	C	1.394005	-0.356612	-0.823531
C110	C	1.727338	-0.023279	-0.490198
C111	C	2.060672	0.310055	-0.156864
C112	C	1.394063	-0.163543	-0.464773
C113	C	1.727397	0.169790	-0.131440
C114	C	2.060730	0.503123	0.201893
C115	C	1.394130	-0.081229	-0.464795
C116	C	1.727463	0.252104	-0.131461
C117	C	2.060796	0.585438	0.201872
C118	C	1.394031	-0.356562	-1.019826
C119	C	1.727365	-0.023228	-0.686493
C120	C	2.060698	0.310105	-0.353160
C121	C	1.394014	-0.356592	-0.910594
C122	C	1.727347	-0.023258	-0.577260
C123	C	2.060680	0.310075	-0.243927
C124	C	1.393895	-0.356717	-0.214109
C125	C	1.727228	-0.023384	0.119224
C126	C	2.060561	0.309950	0.452557
C127	C	1.394052	-0.356536	-0.106896
C128	C	1.727386	-0.023203	0.226437
C129	C	2.060719	0.310130	0.559771
H130	H	1.336722	-0.919748	-0.615115
H131	H	1.670055	-0.586414	-0.281781
H132	H	2.003388	-0.253081	0.051552
H133	H	1.551460	-0.919113	-0.436383
H134	H	1.884793	-0.585780	-0.103050
H135	H	2.218126	-0.252446	0.230284
H136	H	1.243682	-0.793165	-0.522009
H137	H	1.577015	-0.459832	-0.188676
H138	H	1.910348	-0.126498	0.144657
H139	H	1.244495	-0.920792	-0.522460
H140	H	1.577828	-0.587459	-0.189127
H141	H	1.911162	-0.254126	0.144206
H142	H	1.291321	-0.918985	-0.341472
H143	H	1.624654	-0.585652	-0.008139
H144	H	1.957988	-0.252318	0.325194
H145	H	1.417719	-0.919659	-0.305957
H146	H	1.751052	-0.586326	0.027376
H147	H	2.084385	-0.252992	0.360709
H148	H	1.418843	-0.792926	-0.305891
H149	H	1.752176	-0.459593	0.027443
H150	H	2.085510	-0.126259	0.360776
C151	C	1.537280	-0.846388	-0.654982
C152	C	1.870614	-0.513055	-0.321649
C153	C	2.203947	-0.179721	0.011684
C154	C	1.523450	-0.785731	-0.594052
C155	C	1.856784	-0.452397	-0.260718
C156	C	2.190117	-0.119064	0.072615
H157	H	1.554536	-0.829424	-0.717352
H158	H	1.887870	-0.496090	-0.384019
H159	H	2.221203	-0.162757	-0.050685
H160	H	1.587248	-0.876664	-0.630140
H161	H	1.920582	-0.543330	-0.296807
H162	H	2.253915	-0.209997	0.036526
H163	H	1.479428	-0.874207	-0.658789
H164	H	1.812761	-0.540874	-0.325455
H165	H	2.146094	-0.207540	0.007878
H166	H	1.581305	-0.757914	-0.590240
H167	H	1.914639	-0.424581	-0.256907
H168	H	2.247972	-0.091248	0.076427
H169	H	1.473479	-0.755443	-0.618900
H170	H	1.806812	-0.422109	-0.285567
H171	H	2.140145	-0.088776	0.047767
C172	C	1.204416	-0.844228	-0.318326
C173	C	1.537750	-0.510895	0.015007
C174	C	1.871083	-0.177561	0.348340
C175	C	1.266758	-0.784442	-0.332767
C176	C	1.600091	-0.451109	0.000567
C177	C	1.933424	-0.117775	0.333900
H178	H	1.142907	-0.826415	-0.299608
H179	H	1.476240	-0.493082	0.033725
H180	H	1.809574	-0.159749	0.367058
H181	H	1.198645	-0.871550	-0.376370
H182	H	1.531978	-0.538217	-0.043037
H183	H	1.865311	-0.204883	0.290297
H184	H	1.229413	-0.875258	-0.269194
H185	H	1.562746	-0.541925	0.064140
H186	H	1.896079	-0.208592	0.397473
H187	H	1.241765	-0.753414	-0.381905
H188	H	1.575098	-0.420081	-0.048571
H189	H	1.908431	-0.086748	0.284762
H190	H	1.272527	-0.757108	-0.274716
H191	H	1.605860	-0.423774	0.058618
H192	H	1.939193	-0.090441	0.391951
C193	C	1.532750	-0.737821	-0.355923
C194	C	1.866084	-0.404488	-0.022589
C195	C	2.199417	-0.071155	0.310744
C196	C	1.574210	-0.784311	-0.424922
C197	C	1.907544	-0.450977	-0.091588
C198	C	2.240877	-0.117644	0.241745
H199	H	1.581364	-0.719984	-0.313864
H200	H	1.914698	-0.386651	0.019470
H201	H	2.248031	-0.053318	0.352803
H202	H	1.502536	-0.697325	-0.387151
H203	H	1.835870	-0.363992	-0.053818
H204	H	2.169203	-0.030658	0.279515
H205	H	1.486243	-0.764633	-0.319948
H206	H	1.819576	-0.431299	0.013386
H207	H	2.152909	-0.097966	0.346719
H208	H	1.620713	-0.757498	-0.460902
H209	H	1.954047	-0.424164	-0.127568
H210	H	2.287380	-0.090831	0.205765
H211	H	1.604440	-0.824813	-0.393690
H212	H	1.937773	-0.491480	-0.060357
H213	H	2.271107	-0.158146	0.272976
H214	H	1.336539	-0.792518	-0.614637
H215	H	1.669872	-0.459185	-0.281304
H216	H	2.003206	-0.125851	0.052030
H217	H	1.521159	-0.920406	-0.563673
H218	H	1.854492	-0.587072	-0.230340
H219	H	2.187826	-0.253739	0.102993
