data_functionalizedCrystal
_audit_creation_method	'MofGen! by Chris Wilmer'
_symmetry_space_group_name_H-M	'P1'
_symmetry_Int_Tables_number	1
_symmetry_cell_setting	triclinic
loop_
_symmetry_equiv_pos_as_xyz
  x,y,z
_cell_length_a	23.532355
_cell_length_b	27.732048
_cell_length_c	22.610064
_cell_angle_alpha	89.994363
_cell_angle_beta	89.995874
_cell_angle_gamma	82.735077
loop_
_atom_site_label
_atom_site_type_symbol
_atom_site_fract_x
_atom_site_fract_y
_atom_site_fract_z
O1	O	0.755153	0.058549	0.049110
O2	O	1.255153	0.558549	0.549110
O3	O	0.589267	0.067065	0.049130
O4	O	1.089267	0.567065	0.549130
O5	O	0.677362	-0.007583	0.049108
O6	O	1.177362	0.492417	0.549108
O7	O	0.667058	0.133196	0.049132
O8	O	1.167058	0.633196	0.549132
O9	O	0.677356	-0.007564	-0.049261
O10	O	1.177356	0.492436	0.450739
O11	O	0.589261	0.067084	-0.049239
O12	O	1.089261	0.567084	0.450761
O13	O	0.755147	0.058568	-0.049259
O14	O	1.255147	0.558568	0.450741
Zn15	Zn	0.672203	0.062829	-0.064867
Zn16	Zn	1.172203	0.562829	0.435133
Zn17	Zn	0.672211	0.062804	0.064739
Zn18	Zn	1.172211	0.562804	0.564739
O19	O	0.667052	0.133215	-0.049237
O20	O	1.167052	0.633215	0.450763
C21	C	0.568048	0.066862	-0.000052
C22	C	1.068048	0.566862	0.499948
C23	C	0.504831	0.066222	-0.000045
C24	C	1.004831	0.566222	0.499955
C25	C	0.112822	0.062211	-0.053692
C26	C	0.612822	0.562211	0.446308
C27	C	0.053424	0.061602	-0.053694
C28	C	0.553424	0.561602	0.446306
O29	O	0.022703	0.061279	-0.099296
O30	O	0.522703	0.561279	0.400704
N31	N	0.023720	0.061289	-0.000073
N32	N	0.523720	0.561289	0.499927
C33	C	0.053417	0.061581	0.053554
C34	C	0.553417	0.561581	0.553554
O35	O	0.022697	0.061259	0.099162
O36	O	0.522697	0.561259	0.599162
C37	C	0.112815	0.062186	0.053555
C38	C	0.612815	0.562186	0.553555
C39	C	0.142515	0.062504	-0.000069
C40	C	0.642515	0.562504	0.499931
C41	C	0.142523	0.062527	-0.107311
C42	C	0.642523	0.562527	0.392689
C43	C	0.201917	0.063137	-0.107309
C44	C	0.701917	0.563137	0.392691
C45	C	0.231610	0.063430	-0.053686
C46	C	0.731610	0.563430	0.446314
C47	C	0.201909	0.063114	-0.000066
C48	C	0.701909	0.563114	0.499934
C49	C	0.142512	0.062475	0.107181
C50	C	0.642512	0.562475	0.607181
C51	C	0.201913	0.063080	0.107179
C52	C	0.701913	0.563080	0.607179
C53	C	0.231614	0.063397	0.053554
C54	C	0.731614	0.563397	0.553554
C55	C	0.290996	0.064016	0.053559
C56	C	0.790996	0.564016	0.553559
N57	N	0.320701	0.064329	-0.000062
N58	N	0.820701	0.564329	0.499938
C59	C	0.291007	0.064036	-0.053685
C60	C	0.791007	0.564036	0.446315
C61	C	-0.071322	0.060309	0.053546
C62	C	0.428678	0.560309	0.553546
C63	C	-0.130719	0.059707	0.053545
C64	C	0.369281	0.559707	0.553545
C65	C	-0.130708	0.059726	-0.053703
C66	C	0.369292	0.559726	0.446297
C67	C	-0.071310	0.060332	-0.053701
C68	C	0.428690	0.560332	0.446299
C69	C	-0.041617	0.060621	-0.000075
C70	C	0.458383	0.560621	0.499925
C71	C	0.415739	0.065317	-0.053675
C72	C	0.915739	0.565317	0.446325
C73	C	0.475138	0.065929	-0.053668
C74	C	0.975138	0.565929	0.446332
C75	C	0.475122	0.065906	0.053580
C76	C	0.975122	0.565906	0.553580
C77	C	0.415728	0.065297	0.053573
C78	C	0.915728	0.565297	0.553573
C79	C	0.386038	0.065001	-0.000059
C80	C	0.886038	0.565001	0.499941
O81	O	0.321755	0.064337	0.099138
O82	O	0.821755	0.564337	0.599138
O83	O	0.321736	0.064351	-0.099285
O84	O	0.821736	0.564351	0.400715
C85	C	0.677143	-0.025580	-0.000078
C86	C	1.177143	0.474420	0.499922
C87	C	0.676491	-0.079236	-0.000083
C88	C	1.176491	0.420764	0.499917
C89	C	0.724449	-0.417985	-0.000058
C90	C	1.224449	0.082015	0.499942
C91	C	0.722033	-0.619648	-0.000049
C92	C	1.222033	-0.119648	0.499951
O93	O	0.765887	-0.650843	-0.000029
O94	O	1.265887	-0.150843	0.499971
N95	N	0.669796	-0.638844	-0.000044
N96	N	1.169796	-0.138844	0.499956
C97	C	0.618160	-0.607621	-0.000036
C98	C	1.118160	-0.107621	0.499964
O99	O	0.573674	-0.628575	-0.000025
O100	O	1.073674	-0.128575	0.499975
C101	C	0.620577	-0.405959	-0.000041
C102	C	1.120577	0.094041	0.499959
C103	C	0.672817	-0.386766	-0.000052
C104	C	1.172817	0.113234	0.499948
C105	C	0.776685	-0.398792	-0.000069
C106	C	1.276685	0.101208	0.499931
C107	C	0.777289	-0.348379	-0.000074
C108	C	1.277289	0.151621	0.499926
C109	C	0.725657	-0.317160	-0.000069
C110	C	1.225657	0.182840	0.499931
C111	C	0.673421	-0.336353	-0.000058
C112	C	1.173421	0.163647	0.499942
C113	C	0.568942	-0.374736	-0.000029
C114	C	1.068942	0.125264	0.499971
C115	C	0.569551	-0.324318	-0.000029
C116	C	1.069551	0.175682	0.499971
C117	C	0.621791	-0.305125	-0.000040
C118	C	1.121791	0.194875	0.499960
C119	C	0.622392	-0.254721	-0.000057
C120	C	1.122392	0.245279	0.499943
N121	N	0.674629	-0.235525	-0.000063
N122	N	1.174629	0.264475	0.499937
C123	C	0.726261	-0.266744	-0.000069
C124	C	1.226261	0.233256	0.499931
C125	C	0.616895	-0.713496	-0.000035
C126	C	1.116895	-0.213496	0.499965
C127	C	0.616290	-0.763912	-0.000035
C128	C	1.116290	-0.263912	0.499965
C129	C	0.720163	-0.775936	-0.000047
C130	C	1.220163	-0.275936	0.499953
C131	C	0.720767	-0.725520	-0.000051
C132	C	1.220767	-0.225520	0.499949
C133	C	0.669131	-0.694301	-0.000041
C134	C	1.169131	-0.194301	0.499959
C135	C	0.727525	-0.160873	-0.000080
C136	C	1.227525	0.339127	0.499920
C137	C	0.728124	-0.110456	-0.000088
C138	C	1.228124	0.389544	0.499912
C139	C	0.624251	-0.098436	-0.000073
C140	C	1.124251	0.401564	0.499927
C141	C	0.623652	-0.148849	-0.000068
C142	C	1.123652	0.351151	0.499932
C143	C	0.675293	-0.180067	-0.000070
C144	C	1.175293	0.319933	0.499930
O145	O	0.578561	-0.223497	-0.000071
O146	O	1.078561	0.276503	0.499929
O147	O	0.770740	-0.245780	-0.000067
O148	O	1.270740	0.254220	0.499933
C149	C	0.723846	-0.468398	-0.000053
C150	C	1.223846	0.031602	0.499947
C151	C	0.671610	-0.487591	-0.000042
C152	C	1.171610	0.012409	0.499958
C153	C	0.619978	-0.456372	-0.000036
C154	C	1.119978	0.043628	0.499964
C155	C	0.671006	-0.538007	-0.000042
C156	C	1.171006	-0.038007	0.499958
C157	C	0.722638	-0.569226	-0.000047
C158	C	1.222638	-0.069226	0.499953
C159	C	0.774875	-0.550030	-0.000053
C160	C	1.274875	-0.050030	0.499947
C161	C	0.775478	-0.499617	-0.000058
C162	C	1.275478	0.000383	0.499942
C163	C	0.567741	-0.475568	-0.000030
C164	C	1.067741	0.024432	0.499970
C165	C	0.567142	-0.525981	-0.000026
C166	C	1.067142	-0.025981	0.499974
C167	C	0.618774	-0.557200	-0.000031
C168	C	1.118774	-0.057200	0.499969
C169	C	0.776366	0.058771	-0.000075
C170	C	1.276366	0.558771	0.499925
C171	C	0.839583	0.059411	-0.000078
C172	C	1.339583	0.559411	0.499922
C173	C	0.667271	0.151213	-0.000050
C174	C	1.167271	0.651213	0.499950
C175	C	0.667923	0.204869	-0.000041
C176	C	1.167923	0.704869	0.499959
N177	N	0.672202	0.062846	-0.153320
N178	N	1.172202	0.562846	0.346680
C179	C	0.633181	0.095860	-0.438158
C180	C	1.133181	0.595860	0.061842
C181	C	0.633179	0.095865	-0.376238
C182	C	1.133179	0.595865	0.123762
O183	O	0.599985	0.123956	-0.344211
O184	O	1.099985	0.623956	0.155789
N185	N	0.672198	0.062826	-0.345272
N186	N	1.172198	0.562826	0.154728
C187	C	0.711217	0.029778	-0.376229
C188	C	1.211217	0.529778	0.123771
O189	O	0.744404	0.001677	-0.344204
O190	O	1.244404	0.501677	0.155796
C191	C	0.711215	0.029771	-0.438147
C192	C	1.211215	0.529771	0.061853
C193	C	0.672198	0.062815	-0.469111
C194	C	1.172198	0.562815	0.030889
C195	C	0.594166	0.128900	-0.469121
C196	C	1.094166	0.628900	0.030879
C197	C	0.594169	0.128896	-0.531037
C198	C	1.094169	0.628896	-0.031037
C199	C	0.633186	0.095851	-0.561989
C200	C	1.133186	0.595851	-0.061989
C201	C	0.672200	0.062811	-0.531026
C202	C	1.172200	0.562811	-0.031026
C203	C	0.750231	-0.003279	-0.469103
C204	C	1.250231	0.496721	0.030897
C205	C	0.750225	-0.003283	-0.531026
C206	C	1.250225	0.496717	-0.031026
C207	C	0.711208	0.029761	-0.561989
C208	C	1.211208	0.529761	-0.061989
C209	C	0.711219	0.029762	-0.623894
C210	C	1.211219	0.529762	-0.123894
N211	N	0.672201	0.062800	-0.654861
N212	N	1.172201	0.562800	-0.154861
C213	C	0.633184	0.095845	-0.623908
C214	C	1.133184	0.595845	-0.123908
C215	C	0.711216	0.029794	-0.246195
C216	C	1.211216	0.529794	0.253805
C217	C	0.711221	0.029802	-0.184277
C218	C	1.211221	0.529802	0.315723
C219	C	0.633183	0.095888	-0.184291
C220	C	1.133183	0.595888	0.315709
C221	C	0.633181	0.095882	-0.246210
C222	C	1.133181	0.595882	0.253790
C223	C	0.672198	0.062832	-0.277161
C224	C	1.172198	0.562832	0.222839
C225	C	0.633192	0.095834	-0.753935
C226	C	1.133192	0.595834	-0.253935
C227	C	0.633200	0.095828	-0.815857
C228	C	1.133200	0.595828	-0.315857
C229	C	0.711236	0.029740	-0.815837
C230	C	1.211236	0.529740	-0.315837
C231	C	0.711231	0.029748	-0.753922
C232	C	1.211231	0.529748	-0.253922
C233	C	0.672204	0.062796	-0.722972
C234	C	1.172204	0.562796	-0.222972
O235	O	0.744395	0.001684	-0.655961
O236	O	1.244395	0.501684	-0.155961
O237	O	0.599997	0.123937	-0.655941
O238	O	1.099997	0.623937	-0.155941
N239	N	0.672217	0.062783	0.153191
N240	N	1.172217	0.562783	0.653191
H241	H	-0.047150	0.060549	0.097217
H242	H	0.452850	0.560549	0.597217
H243	H	0.743005	0.002837	-0.841049
H244	H	1.243005	0.502837	-0.341049
H245	H	0.526402	-0.390354	-0.000016
H246	H	1.026402	0.109646	0.499984
H247	H	0.118353	0.062288	-0.150980
H248	H	0.618353	0.562288	0.349020
H249	H	0.524599	-0.541602	-0.000021
H250	H	1.024599	-0.041602	0.499979
C251	C	0.781713	-0.675808	0.050510
C252	C	1.281713	-0.175808	0.550510
C253	C	0.778189	-0.704423	-0.000058
C254	C	1.278189	-0.204423	0.499942
H255	H	0.817163	-0.662784	0.050503
H256	H	1.317163	-0.162784	0.550503
H257	H	0.779321	-0.695231	0.084806
H258	H	1.279321	-0.195231	0.584806
H259	H	0.751049	-0.649999	0.050508
H260	H	1.251049	-0.149999	0.550508
H261	H	0.808851	-0.730235	-0.000054
H262	H	1.308851	-0.230235	0.499946
H263	H	0.780587	-0.685000	-0.034363
H264	H	1.280587	-0.185000	0.465637
H265	H	0.742993	0.002882	-0.271393
H266	H	1.242993	0.502882	0.228607
H267	H	0.525695	-0.450153	-0.000024
H268	H	1.025695	0.049847	0.499976
H269	H	0.782002	-0.030186	-0.443902
H270	H	1.282002	0.469814	0.056098
H271	H	0.499317	0.066189	-0.097337
H272	H	0.999317	0.566189	0.402663
C273	C	0.556062	0.161163	-0.760185
C274	C	1.056062	0.661163	-0.260185
C275	C	0.590299	0.132165	-0.719922
C276	C	1.090299	0.632165	-0.219922
H277	H	0.529586	0.183595	-0.739186
H278	H	1.029586	0.683595	-0.239186
H279	H	0.535756	0.141130	-0.784327
H280	H	1.035756	0.641130	-0.284327
H281	H	0.579626	0.178436	-0.784344
H282	H	1.079626	0.678436	-0.284344
H283	H	0.566735	0.114888	-0.695766
H284	H	1.066735	0.614888	-0.195766
H285	H	0.610606	0.152200	-0.695771
H286	H	1.110606	0.652200	-0.195771
C287	C	0.557303	-0.649821	-0.050594
C288	C	1.057303	-0.149821	0.449406
C289	C	0.560133	-0.679182	-0.000028
C290	C	1.060133	-0.179182	0.499972
H291	H	0.522262	-0.628637	-0.050588
H292	H	1.022262	-0.128637	0.449412
H293	H	0.559226	-0.669736	-0.084891
H294	H	1.059226	-0.169736	0.415109
H295	H	0.588500	-0.631173	-0.050590
H296	H	1.088500	-0.131173	0.449410
H297	H	0.528939	-0.697833	-0.000034
H298	H	1.028939	-0.197833	0.499966
H299	H	0.558204	-0.659264	0.034278
H300	H	1.058204	-0.159264	0.534278
H301	H	0.562396	0.155802	-0.556243
H302	H	1.062396	0.655802	-0.056243
H303	H	-0.154897	0.059456	0.097211
H304	H	0.345103	0.559456	0.597211
C305	C	0.620250	0.161673	-0.885498
C306	C	1.120250	0.661673	-0.385498
C307	C	0.590307	0.132151	-0.849890
C308	C	1.090307	0.632151	-0.349890
H309	H	0.593769	0.184098	-0.906503
H310	H	1.093769	0.684098	-0.406503
H311	H	0.643481	0.141995	-0.912795
H312	H	1.143481	0.641995	-0.412795
H313	H	0.643800	0.178955	-0.861341
H314	H	1.143800	0.678955	-0.361341
H315	H	0.566761	0.114866	-0.874047
H316	H	1.066761	0.614866	-0.374047
H317	H	0.567067	0.151832	-0.822590
H318	H	1.067067	0.651832	-0.322590
C319	C	0.765350	-0.858561	-0.000039
C320	C	1.265350	-0.358561	0.499961
C321	C	0.776919	-0.810259	-0.000045
C322	C	1.276919	-0.310259	0.499955
H323	H	0.800387	-0.879751	-0.000029
H324	H	1.300387	-0.379751	0.499971
H325	H	0.743919	-0.864347	-0.034341
H326	H	1.243919	-0.364347	0.465659
H327	H	0.743904	-0.864344	0.034266
H328	H	1.243904	-0.364344	0.534266
H329	H	0.798361	-0.804475	-0.034352
H330	H	1.298361	-0.304475	0.465648
H331	H	0.798359	-0.804470	0.034262
H332	H	1.298359	-0.304470	0.534262
H333	H	0.601412	0.122795	-0.159078
H334	H	1.101412	0.622795	0.340922
C335	C	0.559508	0.158269	-0.374215
C336	C	1.059508	0.658269	0.125785
C337	C	0.551278	0.165230	-0.435104
C338	C	1.051278	0.665230	0.064896
H339	H	0.533029	0.180701	-0.353219
H340	H	1.033029	0.680701	0.146781
H341	H	0.597467	0.163349	-0.364075
H342	H	1.097467	0.663349	0.135925
H343	H	0.553602	0.126038	-0.364056
H344	H	1.053602	0.626038	0.135944
H345	H	0.557188	0.197461	-0.445264
H346	H	1.057188	0.697461	0.054736
H347	H	0.513310	0.160155	-0.445248
H348	H	1.013310	0.660155	0.054752
C349	C	0.788756	0.018881	-0.114551
C350	C	1.288756	0.518881	0.385449
C351	C	0.754034	-0.006551	-0.150200
C352	C	1.254034	0.493449	0.349800
H353	H	0.815164	-0.003575	-0.093505
H354	H	1.315164	0.496425	0.406495
H355	H	0.765516	0.038590	-0.087291
H356	H	1.265516	0.538590	0.412709
H357	H	0.809143	0.038870	-0.138686
H358	H	1.309143	0.538870	0.361314
H359	H	0.733644	-0.026538	-0.126065
H360	H	1.233644	0.473462	0.373935
H361	H	0.777278	-0.026268	-0.177464
H362	H	1.277278	0.473732	0.322536
H363	H	0.527501	-0.298901	-0.000019
H364	H	1.027501	0.201099	0.499981
H365	H	0.573751	-0.779534	-0.000036
H366	H	1.073751	-0.279534	0.499964
C367	C	0.556043	0.161202	-0.239990
C368	C	1.056043	0.661202	0.260010
C369	C	0.590286	0.132199	-0.280241
C370	C	1.090286	0.632199	0.219759
H371	H	0.529557	0.183620	-0.260998
H372	H	1.029557	0.683620	0.239002
H373	H	0.579597	0.178487	-0.215852
H374	H	1.079597	0.678487	0.284148
H375	H	0.535743	0.141166	-0.215827
H376	H	1.035743	0.641166	0.284173
H377	H	0.610589	0.152234	-0.304401
H378	H	1.110589	0.652234	0.195599
H379	H	0.566729	0.114913	-0.304390
H380	H	1.066729	0.614913	0.195610
H381	H	0.781997	-0.030197	-0.556224
H382	H	1.281997	0.469803	-0.056224
C383	C	0.830260	-0.167681	-0.000101
C384	C	1.330260	0.332319	0.499899
C385	C	0.784289	-0.195183	-0.000087
C386	C	1.284289	0.304817	0.499913
H387	H	0.865303	-0.188863	-0.000112
H388	H	1.365303	0.311137	0.499888
H389	H	0.828336	-0.147770	0.034200
H390	H	1.328336	0.352230	0.534200
H391	H	0.828322	-0.147763	-0.034407
H392	H	1.328322	0.352237	0.465593
H393	H	0.786225	-0.215099	0.034222
H394	H	1.286225	0.284901	0.534222
H395	H	0.786214	-0.215102	-0.034392
H396	H	1.286214	0.284898	0.465608
H397	H	0.391572	0.065080	-0.097347
H398	H	0.891572	0.565080	0.402653
H399	H	0.499308	0.066147	0.097238
H400	H	0.999308	0.566147	0.597238
C401	C	0.521038	-0.131897	-0.000051
C402	C	1.021038	0.368103	0.499949
C403	C	0.566229	-0.169949	-0.000055
C404	C	1.066229	0.330051	0.499945
H405	H	0.485589	-0.144922	-0.000033
H406	H	0.985589	0.355078	0.499967
H407	H	0.523429	-0.112488	-0.034358
H408	H	1.023429	0.387512	0.465642
H409	H	0.523446	-0.112480	0.034249
H410	H	1.023446	0.387520	0.534249
H411	H	0.563825	-0.189364	-0.034357
H412	H	1.063825	0.310636	0.465643
H413	H	0.563838	-0.189366	0.034256
H414	H	1.063838	0.310634	0.534256
C415	C	0.788368	-0.035576	-0.760131
C416	C	1.288368	0.464424	-0.260131
C417	C	0.754120	-0.006572	-0.719883
C418	C	1.254120	0.493428	-0.219883
H419	H	0.814841	-0.058002	-0.739119
H420	H	1.314841	0.441998	-0.239119
H421	H	0.808677	-0.015546	-0.784282
H422	H	1.308677	0.484454	-0.284282
H423	H	0.764811	-0.052856	-0.784281
H424	H	1.264811	0.447144	-0.284281
H425	H	0.777677	0.010711	-0.695736
H426	H	1.277677	0.510711	-0.195736
H427	H	0.733810	-0.026604	-0.695723
H428	H	1.233810	0.473396	-0.195723
H429	H	0.118340	0.062216	0.150848
H430	H	0.618340	0.562216	0.650848
H431	H	0.226094	0.063392	-0.150975
H432	H	0.726094	0.563392	0.349025
H433	H	0.226086	0.063316	0.150849
H434	H	0.726086	0.563316	0.650849
H435	H	-0.047132	0.060591	-0.097367
H436	H	0.452868	0.560591	0.402633
H437	H	-0.154894	0.059487	-0.097366
H438	H	0.345106	0.559487	0.402634
H439	H	0.391543	0.065047	0.097238
H440	H	0.891543	0.565047	0.597238
H441	H	0.770666	-0.094832	-0.000099
H442	H	1.270666	0.405168	0.499901
C443	C	0.879899	-0.365344	-0.000080
C444	C	1.379899	0.134656	0.499920
C445	C	0.834713	-0.327287	-0.000079
C446	C	1.334713	0.172713	0.499921
H447	H	0.915351	-0.352324	-0.000078
H448	H	1.415351	0.147676	0.499922
H449	H	0.877499	-0.384752	-0.034381
H450	H	1.377499	0.115248	0.465619
H451	H	0.877494	-0.384760	0.034226
H452	H	1.377494	0.115240	0.534226
H453	H	0.837116	-0.307873	-0.034388
H454	H	1.337116	0.192127	0.465612
H455	H	0.837114	-0.307870	0.034226
H456	H	1.337114	0.192130	0.534226
H457	H	0.818017	-0.483996	-0.000067
H458	H	1.318017	0.016004	0.499933
H459	H	0.818733	-0.424206	-0.000071
H460	H	1.318733	0.075794	0.499929
H461	H	0.816915	-0.575458	-0.000060
H462	H	1.316915	-0.075458	0.499940
C463	C	0.579067	-0.015811	-0.000065
C464	C	1.079067	0.484189	0.499935
C465	C	0.567498	-0.064113	-0.000063
C466	C	1.067498	0.435887	0.499937
H467	H	0.544029	0.005379	-0.000052
H468	H	1.044029	0.505379	0.499948
H469	H	0.600496	-0.010021	-0.034372
H470	H	1.100496	0.489979	0.465628
H471	H	0.600513	-0.010030	0.034236
H472	H	1.100513	0.489970	0.534236
H473	H	0.546055	-0.069894	-0.034366
H474	H	1.046055	0.430106	0.465634
H475	H	0.546060	-0.069905	0.034247
H476	H	1.046060	0.430095	0.534247
