data_functionalizedCrystal
_audit_creation_method	'MofGen! by Chris Wilmer'
_symmetry_space_group_name_H-M	'P1'
_symmetry_Int_Tables_number	1
_symmetry_cell_setting	triclinic
loop_
_symmetry_equiv_pos_as_xyz
  x,y,z
_cell_length_a	12.827893
_cell_length_b	12.827892
_cell_length_c	12.827885
_cell_angle_alpha	89.970214
_cell_angle_beta	89.980919
_cell_angle_gamma	90.015363
loop_
_atom_site_label
_atom_site_type_symbol
_atom_site_fract_x
_atom_site_fract_y
_atom_site_fract_z
Zn1	Zn	1.597670	-0.415983	-0.590843
Zn2	Zn	1.597564	-0.590761	-0.416104
Zn3	Zn	1.422911	-0.416034	-0.416118
Zn4	Zn	1.422896	-0.590683	-0.590804
O5	O	1.510260	-0.503365	-0.503467
O6	O	1.743892	-0.439179	-0.567674
O7	O	1.574357	-0.567637	-0.269869
O8	O	1.446144	-0.269791	-0.439318
O9	O	1.743814	-0.567587	-0.439294
O10	O	1.574538	-0.269754	-0.567688
O11	O	1.446041	-0.439266	-0.269880
O12	O	1.276673	-0.439190	-0.439280
O13	O	1.446118	-0.567455	-0.737046
O14	O	1.276662	-0.567504	-0.567621
O15	O	1.574524	-0.439104	-0.737074
O16	O	1.574343	-0.736986	-0.439256
O17	O	1.446016	-0.736929	-0.567608
C18	C	1.238750	-0.503345	-0.503448
C19	C	1.122597	-0.503362	-0.503465
C20	C	1.510195	-0.774875	-0.503449
C21	C	1.510262	-0.891028	-0.503476
C22	C	0.950806	-0.439952	-0.567106
C23	C	1.070857	-0.439934	-0.567091
C24	C	1.573838	-0.942807	-0.440034
C25	C	1.573910	-1.062857	-0.440060
C26	C	1.782830	-0.503386	-0.503487
C27	C	1.898983	-0.503395	-0.503495
C28	C	1.510331	-0.503265	-0.776038
C29	C	1.510362	-0.503222	-0.892191
C30	C	1.510354	-0.230795	-0.503509
C31	C	1.510394	-0.114642	-0.503526
C32	C	1.573907	-0.439697	-0.943990
C33	C	1.573940	-0.439652	-1.064040
C34	C	1.510249	-0.503390	-0.231957
C35	C	1.510422	-0.503138	-0.115805
H36	H	1.115423	-0.385614	-0.621546
C37	C	1.647442	-0.366175	-1.124209
C38	C	1.729423	-0.411502	-1.199269
C39	C	1.802927	-0.338023	-1.259441
C40	C	1.794450	-0.219216	-1.244551
C41	C	1.712466	-0.173882	-1.169487
C42	C	1.638962	-0.247362	-1.109316
H43	H	1.735701	-0.499456	-1.210294
H44	H	1.863617	-0.371582	-1.315008
H45	H	1.848862	-0.164822	-1.289093
H46	H	1.706188	-0.085929	-1.158462
H47	H	1.578271	-0.213802	-1.053749
H48	H	1.628220	-0.898262	-0.385702
H49	H	1.628336	-1.107385	-0.385742
C50	C	0.959101	-0.576759	-0.429903
C51	C	0.944141	-0.568107	-0.311107
C52	C	1.004256	-0.641473	-0.237512
C53	C	1.079329	-0.723491	-0.282713
C54	C	1.094292	-0.732146	-0.401514
C55	C	1.034178	-0.658780	-0.475109
H56	H	0.888564	-0.507389	-0.277642
H57	H	0.993179	-0.635065	-0.149567
H58	H	1.123829	-0.777800	-0.228233
H59	H	1.149869	-0.792863	-0.434980
H60	H	1.045255	-0.665187	-0.563054
C61	C	1.436855	-1.054504	-0.576910
C62	C	1.445312	-1.069314	-0.695733
C63	C	1.371773	-1.009167	-0.769117
C64	C	1.289778	-0.934209	-0.723678
C65	C	1.281318	-0.919395	-0.604849
C66	C	1.354857	-0.979543	-0.531465
H67	H	1.506013	-1.124805	-0.729375
H68	H	1.378037	-1.020133	-0.857082
H69	H	1.235340	-0.889684	-0.778001
H70	H	1.220617	-0.863904	-0.571207
H71	H	1.348593	-0.968576	-0.443500
C72	C	1.647377	-0.366269	-0.883842
C73	C	1.602036	-0.284320	-0.808787
C74	C	1.675509	-0.210890	-0.748641
C75	C	1.794322	-0.219410	-0.763552
C76	C	1.839669	-0.301363	-0.838611
C77	C	1.766196	-0.374793	-0.898756
H78	H	1.514078	-0.278010	-0.797746
H79	H	1.641940	-0.150223	-0.693078
H80	H	1.848711	-0.165053	-0.719028
H81	H	1.927627	-0.307673	-0.849651
H82	H	1.799765	-0.435460	-0.954319
H83	H	1.455890	-0.935576	-0.557815
H84	H	1.455975	-0.557567	-0.936721
C85	C	1.436917	-0.576618	-1.055643
C86	C	1.354936	-0.531290	-0.980583
C87	C	1.281431	-0.604769	-0.920412
C88	C	1.289907	-0.723576	-0.935302
C89	C	1.371892	-0.768910	-1.010365
C90	C	1.445396	-0.695431	-1.070536
H91	H	1.348658	-0.443336	-0.969558
H92	H	1.220741	-0.571209	-0.864845
H93	H	1.235495	-0.777970	-0.890760
H94	H	1.378169	-0.856864	-1.021390
H95	H	1.506087	-0.728991	-1.126103
H96	H	1.078037	-0.557678	-0.449000
H97	H	0.906297	-0.385655	-0.621582
