data_functionalizedCrystal
_audit_creation_method	'MofGen! by Chris Wilmer'
_symmetry_space_group_name_H-M	'P1'
_symmetry_Int_Tables_number	1
_symmetry_cell_setting	triclinic
loop_
_symmetry_equiv_pos_as_xyz
  x,y,z
_cell_length_a	10.686220
_cell_length_b	19.077068
_cell_length_c	19.077174
_cell_angle_alpha	85.342852
_cell_angle_beta	91.882865
_cell_angle_gamma	83.477335
loop_
_atom_site_label
_atom_site_type_symbol
_atom_site_fract_x
_atom_site_fract_y
_atom_site_fract_z
Zn1	Zn	1.937147	0.210211	-0.323598
Zn2	Zn	2.437147	0.710211	0.176402
Zn3	Zn	1.920694	0.324100	-0.211174
Zn4	Zn	2.420694	0.824100	0.288826
Zn5	Zn	1.717997	0.215279	-0.215485
Zn6	Zn	2.217997	0.715279	0.284515
Zn7	Zn	1.717913	0.337847	-0.338048
Zn8	Zn	2.217913	0.837847	0.161952
O9	O	1.823438	0.271859	-0.272076
O10	O	2.323438	0.771859	0.227924
O11	O	2.111543	0.217445	-0.300833
O12	O	2.611543	0.717445	0.199167
O13	O	1.886955	0.306032	-0.113403
O14	O	2.386955	0.806032	0.386597
O15	O	1.753989	0.115648	-0.225583
O16	O	2.253989	0.615648	0.274417
O17	O	2.099455	0.301119	-0.218236
O18	O	2.599455	0.801119	0.281764
O19	O	1.914997	0.111925	-0.305013
O20	O	2.414997	0.611925	0.194987
O21	O	1.738035	0.226082	-0.116570
O22	O	2.238035	0.726082	0.383430
O23	O	1.541407	0.239411	-0.239595
O24	O	2.041407	0.739411	0.260405
O25	O	1.753846	0.324548	-0.434474
O26	O	2.253846	0.824548	0.065526
O27	O	1.541345	0.329462	-0.329641
O28	O	2.041345	0.829462	0.170359
O29	O	1.914915	0.230774	-0.423858
O30	O	2.414915	0.730774	0.076142
O31	O	1.886874	0.424882	-0.232247
O32	O	2.386874	0.924882	0.267753
O33	O	1.737892	0.434981	-0.325461
O34	O	2.237892	0.934981	0.174539
C35	C	1.495591	0.286479	-0.286654
C36	C	1.995591	0.786479	0.213346
C37	C	1.355337	0.292751	-0.292908
C38	C	1.855337	0.792751	0.207092
C39	C	1.810623	0.455589	-0.279968
C40	C	2.310623	0.955589	0.220032
C41	C	1.805259	0.534186	-0.283363
C42	C	2.305259	1.034186	0.216637
C43	C	1.836206	0.278629	-0.455378
C44	C	2.336206	0.778629	0.044622
C45	C	1.841648	0.281514	-0.533491
C46	C	2.341648	0.781514	-0.033491
C47	C	2.152564	0.257183	-0.257442
C48	C	2.652564	0.757183	0.242558
C49	C	2.292818	0.250929	-0.251205
C50	C	2.792818	0.750929	0.248795
C51	C	1.836337	0.087410	-0.264167
C52	C	2.336337	0.587410	0.235833
C53	C	1.841834	0.008809	-0.260797
C54	C	2.341834	0.508809	0.239203
C55	C	1.880370	0.565827	-0.236461
C56	C	2.380370	1.065827	0.263539
C57	C	1.875332	0.639677	-0.239658
C58	C	2.375332	1.139677	0.260342
C59	C	1.795175	0.681884	-0.289754
C60	C	2.295175	1.181884	0.210246
C61	C	1.720060	0.650238	-0.336661
C62	C	2.220060	1.150238	0.163339
C63	C	1.725106	0.576389	-0.333467
C64	C	2.225106	1.076389	0.166533
C65	C	1.771766	0.903314	-0.304510
C66	C	2.271766	1.403314	0.195490
C67	C	1.766723	0.977168	-0.307699
C68	C	2.266723	1.477168	0.192301
C69	C	1.921997	0.966602	-0.210696
C70	C	2.421997	1.466602	0.289304
C71	C	1.927030	0.892753	-0.207504
C72	C	2.427030	1.392753	0.292496
C73	C	1.851920	0.861113	-0.254413
C74	C	2.351920	1.361113	0.245587
N75	N	1.790020	0.757370	-0.293021
N76	N	2.290020	1.257370	0.206979
N77	N	1.857083	0.785627	-0.251149
N78	N	2.357083	1.285627	0.248851
C79	C	1.766673	0.241244	-0.571836
C80	C	2.266673	0.741244	-0.071836
C81	C	1.771780	0.243961	-0.645232
C82	C	2.271780	0.743961	-0.145232
C83	C	1.851870	0.286945	-0.680279
C84	C	2.351870	0.786945	-0.180279
C85	C	1.926848	0.327219	-0.641929
C86	C	2.426848	0.827219	-0.141929
C87	C	1.921733	0.324506	-0.568535
C88	C	2.421733	0.824506	-0.068535
C89	C	1.875475	0.299527	-0.899606
C90	C	2.375475	0.799527	-0.399606
C91	C	1.880587	0.302236	-0.973005
C92	C	2.380587	0.802236	-0.473005
C93	C	1.725517	0.218979	-0.976303
C94	C	2.225517	0.718979	-0.476303
C95	C	1.720415	0.216266	-0.902907
C96	C	2.220415	0.716266	-0.402907
C97	C	1.795388	0.256543	-0.864563
C98	C	2.295388	0.756543	-0.364563
N99	N	1.857095	0.289721	-0.755301
N100	N	2.357095	0.789721	-0.255301
N101	N	1.790155	0.253770	-0.789543
N102	N	2.290155	0.753770	-0.289543
C103	C	1.810795	0.265061	-0.089482
C104	C	2.310795	0.765061	0.410518
C105	C	1.805612	0.261966	-0.011350
C106	C	2.305612	0.761966	0.488650
H107	H	1.346592	0.210326	-0.210717
H108	H	1.846592	0.710326	0.289283
H109	H	1.992052	0.362221	-0.670471
H110	H	2.492052	0.862221	-0.170471
H111	H	1.654800	0.684608	-0.377453
H112	H	2.154800	1.184608	0.122547
H113	H	1.663944	0.550627	-0.371660
H114	H	2.163944	1.050627	0.128340
H115	H	1.301557	0.333361	-0.333395
H116	H	1.801557	0.833361	0.166605
Br117	Br	2.023478	0.379166	-0.516494
Br118	Br	2.523478	0.879166	-0.016494
H119	H	1.945637	0.531467	-0.195665
H120	H	2.445637	1.031467	0.304335
Br121	Br	2.023932	1.009546	-0.147040
Br122	Br	2.523932	1.509546	0.352960
Br123	Br	1.657984	0.182901	-0.524278
Br124	Br	2.157984	0.682901	-0.024278
H125	H	1.936495	0.665436	-0.201464
H126	H	2.436495	1.165436	0.298536
H127	H	1.664477	0.186188	-1.007530
H128	H	2.164477	0.686188	-0.507530
H129	H	1.992300	0.858389	-0.166712
H130	H	2.492300	1.358389	0.333288
Br131	Br	1.669831	0.860383	-0.368173
Br132	Br	2.169831	1.360383	0.131827
Br133	Br	1.657908	1.034450	-0.375680
Br134	Br	2.157908	1.534450	0.124320
H135	H	1.945811	0.337239	-1.001538
H136	H	2.445811	0.837239	-0.501538
H137	H	1.710723	0.211172	-0.676450
H138	H	2.210723	0.711172	-0.176450
Br139	Br	1.611724	0.157925	-0.855347
Br140	Br	2.111724	0.657925	-0.355347
Br141	Br	1.977232	0.354185	-0.847577
Br142	Br	2.477232	0.854185	-0.347577
