data_functionalizedCrystal
_audit_creation_method	'MofGen! by Chris Wilmer'
_symmetry_space_group_name_H-M	'P1'
_symmetry_Int_Tables_number	1
_symmetry_cell_setting	triclinic
loop_
_symmetry_equiv_pos_as_xyz
  x,y,z
_cell_length_a	16.625545
_cell_length_b	17.077404
_cell_length_c	17.077396
_cell_angle_alpha	89.980499
_cell_angle_beta	89.971947
_cell_angle_gamma	90.024262
loop_
_atom_site_label
_atom_site_type_symbol
_atom_site_fract_x
_atom_site_fract_y
_atom_site_fract_z
Zn1	Zn	0.320997	-1.200048	0.443845
Zn2	Zn	0.455839	-1.199953	0.312580
Zn3	Zn	0.321025	-1.068780	0.312593
Zn4	Zn	0.455792	-1.068746	0.443804
O5	O	0.388413	-1.134382	0.378205
O6	O	0.338892	-1.309883	0.426444
O7	O	0.437988	-1.182527	0.202735
O8	O	0.208189	-1.086248	0.330027
O9	O	0.437960	-1.309812	0.330005
O10	O	0.208168	-1.182690	0.426457
O11	O	0.338940	-1.086155	0.202744
O12	O	0.338894	-0.958929	0.329986
O13	O	0.437879	-1.086189	0.553656
O14	O	0.437906	-0.958903	0.426386
O15	O	0.338846	-1.182656	0.553687
O16	O	0.568666	-1.182493	0.329964
O17	O	0.568630	-1.086096	0.426374
C18	C	0.597904	-1.134302	0.378180
C19	C	0.687525	-1.134339	0.378196
C20	C	0.388399	-0.930434	0.378184
C21	C	0.388412	-0.843184	0.378193
C22	C	0.388354	-1.134429	0.582950
C23	C	0.388329	-1.134449	0.670200
C24	C	1.015701	-1.134468	0.378290
C25	C	0.924392	-1.134429	0.378266
C26	C	0.851616	-1.134403	0.378242
C27	C	0.760302	-1.134366	0.378219
C28	C	1.178104	-1.134477	0.378257
C29	C	1.088483	-1.134500	0.378303
C30	C	0.388428	-1.339126	0.378228
C31	C	0.388435	-1.426376	0.378237
C32	C	0.440045	-0.802201	0.428308
C33	C	0.440047	-0.720221	0.428321
C34	C	0.388419	-0.679225	0.378214
C35	C	0.336780	-0.720213	0.328097
C36	C	0.336774	-0.802192	0.328089
C37	C	0.336795	-0.549343	0.328115
C38	C	0.336801	-0.467359	0.328122
C39	C	0.440068	-0.467372	0.428347
C40	C	0.440063	-0.549351	0.428339
C41	C	0.388425	-0.590334	0.378221
C42	C	0.388414	-1.134380	0.174258
C43	C	0.388212	-1.134511	0.087008
C44	C	0.336758	-1.184682	0.711207
C45	C	0.336731	-1.184691	0.793187
C46	C	0.388280	-1.134472	0.834159
C47	C	0.439853	-1.084234	0.793146
C48	C	0.439875	-1.084221	0.711167
C49	C	0.439804	-1.084265	0.964016
C50	C	0.439783	-1.084279	1.046001
C51	C	0.336660	-1.184736	1.046037
C52	C	0.336682	-1.184723	0.964058
C53	C	0.388257	-1.134486	0.923050
H54	H	0.482090	-0.835574	0.469108
H55	H	0.482093	-0.686856	0.469128
H56	H	0.294739	-1.225598	0.826572
H57	H	0.481789	-1.043344	0.930631
H58	H	0.294725	-0.835559	0.287284
H59	H	0.481861	-1.043308	0.677780
H60	H	0.482108	-0.582728	0.469137
H61	H	0.294665	-1.225640	1.079429
H62	H	0.294783	-1.225579	0.677854
H63	H	0.294739	-0.582709	0.287311
H64	H	0.481757	-1.043384	1.079358
H65	H	0.481822	-1.043341	0.826512
H66	H	0.482112	-0.433999	0.469158
H67	H	0.294752	-0.433982	0.287330
H68	H	0.294739	-0.686828	0.287302
H69	H	0.294711	-1.225621	0.930701
