data_functionalizedCrystal
_audit_creation_method	'MofGen! by Chris Wilmer'
_symmetry_space_group_name_H-M	'P1'
_symmetry_Int_Tables_number	1
_symmetry_cell_setting	triclinic
loop_
_symmetry_equiv_pos_as_xyz
  x,y,z
_cell_length_a	6.817900
_cell_length_b	11.102288
_cell_length_c	10.992410
_cell_angle_alpha	91.891911
_cell_angle_beta	108.764651
_cell_angle_gamma	108.605689
loop_
_atom_site_label
_atom_site_type_symbol
_atom_site_fract_x
_atom_site_fract_y
_atom_site_fract_z
V1	V	-4.113419	-0.175839	-0.400593
O2	O	-4.072416	0.008450	-0.392967
O3	O	-4.090183	-0.348659	-0.397854
O4	O	-4.091024	-0.173134	-0.575306
O5	O	-4.071569	-0.168290	-0.214287
V6	V	-4.590417	-0.153796	-0.378309
O7	O	-4.388992	-0.224192	-0.449474
O8	O	-4.765042	-0.105443	-0.329428
O9	O	-4.390446	0.019024	-0.381049
O10	O	-4.748817	-0.338085	-0.385935
O11	O	-4.749664	-0.161345	-0.564616
O12	O	-4.389605	-0.156501	-0.203597
C13	C	-3.940465	-0.390789	-0.391534
C14	C	-4.002927	-0.532072	-0.390459
C15	C	-4.216309	-0.604920	-0.396363
C16	C	-4.274993	-0.737672	-0.395363
C17	C	-3.906886	-0.724714	-0.382548
C18	C	-3.848211	-0.591966	-0.383557
C19	C	-3.941535	-0.166888	-0.617890
C20	C	-4.004675	-0.165820	-0.760719
C21	C	-3.871844	-0.156090	-0.955842
C22	C	-3.806286	-0.157727	-0.807359
C23	C	-4.202100	-0.291131	-0.837823
C24	C	-4.266419	-0.290023	-0.986389
C25	C	-4.145329	-0.047376	-0.948357
C26	C	-4.074622	-0.046782	-0.799344
C27	C	-4.203507	0.061147	-0.387365
C28	C	-4.120285	0.202429	-0.388449
C29	C	-4.202436	-0.162751	-0.161006
C30	C	-4.118534	-0.163813	-0.018176
H31	H	-3.674445	-0.532651	-0.378753
C32	C	-3.608811	-0.037546	-0.736465
C33	C	-3.547595	0.037207	-0.827244
C34	C	-3.365661	0.147918	-0.761992
H35	H	-3.647034	0.010773	-0.680661
H36	H	-3.488676	-0.061478	-0.686439
H37	H	-3.667705	0.061141	-0.877247
H38	H	-3.509331	-0.011073	-0.883051
H39	H	-3.245525	0.123986	-0.711967
H40	H	-3.403902	0.196226	-0.706190
H41	H	-3.324090	0.198646	-0.823575
H42	H	-4.042863	0.047783	-0.968716
C43	C	-3.729692	-0.270936	-0.774528
C44	C	-3.742328	-0.338128	-0.888463
C45	C	-3.671819	-0.442439	-0.858275
H46	H	-3.581276	-0.240442	-0.715756
H47	H	-3.821746	-0.326627	-0.735554
H48	H	-3.650274	-0.282446	-0.927418
H49	H	-3.890723	-0.368652	-0.947250
H50	H	-3.763873	-0.498130	-0.819301
H51	H	-3.523406	-0.411933	-0.799500
H52	H	-3.680402	-0.488048	-0.935575
C53	C	-4.244863	-0.407613	-1.047843
C54	C	-4.174180	-0.478990	-0.951119
C55	C	-4.154261	-0.587313	-1.007672
H56	H	-4.384090	-0.459267	-1.109493
H57	H	-4.140028	-0.381014	-1.090151
H58	H	-4.279011	-0.505590	-0.908833
H59	H	-4.034946	-0.427374	-0.889463
H60	H	-4.049425	-0.560714	-1.049980
H61	H	-4.293494	-0.638956	-1.069321
H62	H	-4.106282	-0.635750	-0.942053
C63	C	-3.884270	0.076780	-0.729297
C64	C	-3.828016	0.078583	-0.594844
C65	C	-3.652686	0.192390	-0.530266
H66	H	-3.760238	0.081065	-0.753011
H67	H	-3.927552	0.148479	-0.752970
H68	H	-3.784726	0.006903	-0.571181
H69	H	-3.951997	0.074319	-0.571092
H70	H	-3.695967	0.264090	-0.553939
H71	H	-3.528668	0.196665	-0.553990
H72	H	-3.614509	0.193634	-0.439033
C73	C	-4.383797	-0.053165	-1.002841
C74	C	-4.391739	0.058451	-1.056749
C75	C	-4.611373	0.053159	-1.106944
H76	H	-4.468270	-0.126202	-1.068163
H77	H	-4.442916	-0.059409	-0.934987
H78	H	-4.332649	0.064682	-1.124596
H79	H	-4.307313	0.131505	-0.991452
H80	H	-4.670492	0.046915	-1.039090
H81	H	-4.695827	-0.019881	-1.172261
H82	H	-4.616789	0.128894	-1.143516
H83	H	-3.755068	-0.065366	-0.974671
H84	H	-4.342292	-0.556159	-0.401981
C85	C	-3.738867	-0.789773	-0.374774
C86	C	-3.704442	-0.848444	-0.262750
C87	C	-3.549651	-0.908370	-0.255532
H88	H	-3.792757	-0.852984	-0.449287
H89	H	-3.603300	-0.727400	-0.371331
H90	H	-3.839983	-0.910810	-0.266203
H91	H	-3.650522	-0.785260	-0.188217
H92	H	-3.414083	-0.845998	-0.252089
H93	H	-3.603556	-0.971576	-0.330050
H94	H	-3.526258	-0.948175	-0.179518
H95	H	-4.216742	-0.045310	-0.766833
H96	H	-3.846512	-0.239751	-1.003834
H97	H	-4.448746	-0.796980	-0.400174
H98	H	-4.448370	-0.300919	-1.029021
H99	H	-4.352427	-0.301578	-0.809019
H100	H	-4.155922	-0.379511	-0.812218
