data_functionalizedCrystal
_audit_creation_method	'MofGen! by Chris Wilmer'
_symmetry_space_group_name_H-M	'P1'
_symmetry_Int_Tables_number	1
_symmetry_cell_setting	triclinic
loop_
_symmetry_equiv_pos_as_xyz
  x,y,z
_cell_length_a	16.956995
_cell_length_b	19.188930
_cell_length_c	17.666332
_cell_angle_alpha	90.006765
_cell_angle_beta	90.009565
_cell_angle_gamma	79.599626
loop_
_atom_site_label
_atom_site_type_symbol
_atom_site_fract_x
_atom_site_fract_y
_atom_site_fract_z
O1	O	1.057939	0.028939	0.063003
O2	O	1.557939	0.528939	0.563003
O3	O	0.825696	0.053455	0.062996
O4	O	1.325696	0.553455	0.562996
O5	O	0.948520	-0.060827	0.062985
O6	O	1.448520	0.439173	0.562985
O7	O	0.935116	0.143222	0.063014
O8	O	1.435116	0.643222	0.563014
O9	O	0.948503	-0.060823	-0.062912
O10	O	1.448503	0.439177	0.437088
O11	O	0.825680	0.053460	-0.062901
O12	O	1.325680	0.553460	0.437099
O13	O	1.057923	0.028944	-0.062894
O14	O	1.557923	0.528944	0.437106
Cu15	Cu	0.941800	0.041202	-0.074393
Cu16	Cu	1.441800	0.541202	0.425607
Cu17	Cu	0.941819	0.041197	0.074495
Cu18	Cu	1.441819	0.541197	0.574495
O19	O	0.935099	0.143226	-0.062883
O20	O	1.435099	0.643226	0.437117
C21	C	0.795976	0.054713	0.000046
C22	C	1.295976	0.554713	0.500046
C23	C	0.707442	0.058445	0.000043
C24	C	1.207442	0.558445	0.500043
C25	C	0.948077	-0.086812	0.000034
C26	C	1.448077	0.413188	0.500034
C27	C	0.946774	-0.164245	0.000028
C28	C	1.446774	0.335755	0.500028
C29	C	0.208044	0.086363	0.000075
C30	C	0.708044	0.586363	0.500075
C31	C	0.291232	0.082851	0.000074
C32	C	0.791232	0.582851	0.500074
C33	C	0.342550	0.016930	0.000058
C34	C	0.842550	0.516930	0.500058
C35	C	0.310677	-0.045484	0.000052
C36	C	0.810677	0.454516	0.500052
C37	C	0.227491	-0.041971	0.000059
C38	C	0.727491	0.458029	0.500059
C39	C	0.592383	-0.000456	0.000043
C40	C	1.092383	0.499544	0.500043
C41	C	0.675574	-0.003964	0.000034
C42	C	1.175574	0.496036	0.500034
C43	C	0.656123	0.124371	0.000057
C44	C	1.156123	0.624371	0.500057
C45	C	0.572937	0.127878	0.000059
C46	C	1.072937	0.627878	0.500059
C47	C	0.541071	0.065465	0.000056
C48	C	1.041071	0.565465	0.500056
N49	N	0.427581	0.013338	0.000055
N50	N	0.927581	0.513338	0.500055
N51	N	0.456041	0.069057	0.000065
N52	N	0.956041	0.569057	0.500065
C53	C	1.018843	-0.213135	0.000026
C54	C	1.518843	0.286865	0.500026
C55	C	1.017619	-0.285892	0.000038
C56	C	1.517619	0.214108	0.500038
C57	C	0.944322	-0.309754	0.000037
C58	C	1.444322	0.190246	0.500037
C59	C	0.872244	-0.260854	0.000042
C60	C	1.372244	0.239146	0.500042
C61	C	0.873470	-0.188099	0.000038
C62	C	1.373470	0.311901	0.500038
N63	N	0.888290	-0.414674	-0.042810
N64	N	1.388290	0.085326	0.457190
N65	N	0.887130	-0.483789	-0.042808
N66	N	1.387130	0.016211	0.457192
C67	C	0.940623	-0.528959	0.000052
C68	C	1.440623	-0.028959	0.500052
N69	N	0.995332	-0.502406	0.042899
N70	N	1.495332	-0.002406	0.542899
N71	N	0.996495	-0.433285	0.042893
N72	N	1.496495	0.066715	0.542893
C73	C	0.942984	-0.388643	0.000042
C74	C	1.442984	0.111357	0.500042
C75	C	1.011369	-0.656741	0.000065
C76	C	1.511369	-0.156741	0.500065
C77	C	1.010142	-0.729499	0.000082
C78	C	1.510142	-0.229499	0.500082
C79	C	0.864765	-0.704459	0.000078
C80	C	1.364765	-0.204459	0.500078
C81	C	0.865994	-0.631703	0.000068
C82	C	1.365994	-0.131703	0.500068
C83	C	0.939299	-0.607849	0.000058
C84	C	1.439299	-0.107849	0.500058
C85	C	1.087643	0.027686	0.000058
C86	C	1.587643	0.527686	0.500058
C87	C	1.176177	0.023954	0.000066
C88	C	1.676177	0.523954	0.500066
C89	C	0.935541	0.169211	0.000069
C90	C	1.435541	0.669211	0.500069
C91	C	0.936844	0.246644	0.000081
C92	C	1.436844	0.746644	0.500081
N93	N	0.941792	0.041205	-0.179112
N94	N	1.441792	0.541205	0.320888
C95	C	0.990054	0.080770	-0.781153
C96	C	1.490054	0.580770	-0.281153
C97	C	0.990046	0.080777	-0.701906
C98	C	1.490046	0.580777	-0.201906
C99	C	0.941826	0.041189	-0.662294
C100	C	1.441826	0.541189	-0.162294
C101	C	0.893595	0.001605	-0.701936
C102	C	1.393595	0.501605	-0.201936
C103	C	0.893599	0.001605	-0.781182
C104	C	1.393599	0.501605	-0.281182
N105	N	0.939895	-0.019865	-0.537878
N106	N	1.439895	0.480135	-0.037878
N107	N	0.939897	-0.019863	-0.462598
N108	N	1.439897	0.480137	0.037402
C109	C	0.941812	0.041190	-0.423530
C110	C	1.441812	0.541190	0.076470
N111	N	0.943742	0.102240	-0.462586
N112	N	1.443742	0.602240	0.037414
N113	N	0.943745	0.102237	-0.537873
N114	N	1.443745	0.602237	-0.037873
C115	C	0.941817	0.041186	-0.576365
C116	C	1.441817	0.541186	-0.076365
C117	C	0.990027	0.080783	-0.297968
C118	C	1.490027	0.580783	0.202032
C119	C	0.990014	0.080792	-0.218719
C120	C	1.490014	0.580792	0.281281
C121	C	0.893567	0.001614	-0.218750
C122	C	1.393567	0.501614	0.281250
C123	C	0.893576	0.001611	-0.297998
C124	C	1.393576	0.501611	0.202002
C125	C	0.941811	0.041195	-0.337602
C126	C	1.441811	0.541195	0.162398
N127	N	0.941833	0.041188	0.179214
N128	N	1.441833	0.541188	0.679214
H129	H	0.166266	0.140044	0.000081
H130	H	0.666266	0.640044	0.500081
N131	N	0.559822	-0.064198	0.000034
N132	N	1.059822	0.435802	0.500034
N133	N	0.515585	-0.076564	0.053101
N134	N	1.015585	0.423436	0.553101
H135	H	0.492582	-0.121584	0.053093
H136	H	0.992582	0.378416	0.553093
N137	N	0.844330	-0.038821	-0.821669
N138	N	1.344330	0.461179	-0.321669
N139	N	0.769977	-0.026202	-0.812836
N140	N	1.269977	0.473798	-0.312836
H141	H	0.735180	-0.054752	-0.841431
H142	H	1.235180	0.445248	-0.341431
N143	N	0.363106	-0.112816	0.000046
N144	N	0.863106	0.387184	0.500046
N145	N	0.437377	-0.115945	0.000040
N146	N	0.937377	0.384055	0.500040
H147	H	0.474406	-0.163500	0.000035
H148	H	0.974406	0.336500	0.500035
N149	N	0.844339	-0.038824	-0.661465
N150	N	1.344339	0.461176	-0.161465
N151	N	0.844342	-0.038819	-0.590710
N152	N	1.344342	0.461181	-0.090710
H153	H	0.809550	-0.067370	-0.562127
H154	H	1.309550	0.432630	-0.062127
H155	H	0.812565	-0.280287	0.000042
H156	H	1.312565	0.219713	0.500042
N157	N	0.792377	-0.581758	0.000044
N158	N	1.292377	-0.081758	0.500044
N159	N	0.776839	-0.538378	-0.053031
N160	N	1.276839	-0.038378	0.446969
H161	H	0.724843	-0.503103	-0.053047
H162	H	1.224843	-0.003103	0.446953
H163	H	1.029313	0.113012	-0.669631
H164	H	1.529313	0.613012	-0.169631
H165	H	1.029329	0.113003	-0.813394
H166	H	1.529329	0.613003	-0.313394
N167	N	0.799843	-0.138164	0.000043
N168	N	1.299843	0.361836	0.500043
N169	N	0.734402	-0.159474	0.000049
N170	N	1.234402	0.340526	0.500049
H171	H	0.682401	-0.124207	0.000052
H172	H	1.182401	0.375793	0.500052
N173	N	0.194949	-0.105727	0.000055
N174	N	0.694949	0.394273	0.500055
N175	N	0.240776	-0.164582	0.000043
N176	N	0.740776	0.335418	0.500043
H177	H	0.217795	-0.209613	0.000044
H178	H	0.717795	0.290387	0.500044
N179	N	1.039298	0.121219	-0.338416
N180	N	1.539298	0.621219	0.161584
N181	N	1.082346	0.156564	-0.303016
N182	N	1.582346	0.656564	0.196984
H183	H	1.117144	0.185122	-0.331581
H184	H	1.617144	0.685122	0.168419
N185	N	0.844337	-0.038837	-0.338487
N186	N	1.344337	0.461163	0.161513
N187	N	0.875645	-0.086792	-0.382706
N188	N	1.375645	0.413208	0.117294
H189	H	0.840867	-0.115359	-0.411302
H190	H	1.340867	0.384641	0.088698
N191	N	0.844319	-0.038825	-0.178287
N192	N	1.344319	0.461175	0.321713
N193	N	0.875618	-0.086777	-0.134064
N194	N	1.375618	0.413223	0.365936
H195	H	0.840833	-0.115337	-0.105483
H196	H	1.340833	0.384663	0.394517
H197	H	0.682078	0.175185	0.000060
H198	H	1.182078	0.675185	0.500060
N199	N	0.323771	0.146607	0.000091
N200	N	0.823771	0.646607	0.500091
N201	N	0.277942	0.205461	0.000104
N202	N	0.777942	0.705461	0.500104
H203	H	0.300921	0.250493	0.000120
H204	H	0.800921	0.750493	0.500120
N205	N	1.039265	0.121243	-0.178244
N206	N	1.539265	0.621243	0.321756
N207	N	1.082318	0.156584	-0.213618
N208	N	1.582318	0.656584	0.286382
H209	H	1.117101	0.185156	-0.185033
H210	H	1.617101	0.685156	0.314967
N211	N	1.093720	-0.188772	0.000009
N212	N	1.593720	0.311228	0.500009
N213	N	1.142241	-0.205287	-0.053061
N214	N	1.642241	0.294713	0.446939
H215	H	1.195124	-0.188079	-0.053072
H216	H	1.695124	0.311921	0.446928
N217	N	0.520530	0.195222	0.000071
N218	N	1.020530	0.695222	0.500071
N219	N	0.548995	0.250940	0.000078
N220	N	1.048995	0.750940	0.500078
H221	H	0.511983	0.298503	0.000084
H222	H	1.011983	0.798503	0.500084
H223	H	0.717357	-0.057648	0.000025
H224	H	1.217357	0.442352	0.500025
N225	N	1.086237	-0.632357	0.000074
N226	N	1.586237	-0.132357	0.500074
N227	N	1.087323	-0.567397	0.000069
N228	N	1.587323	-0.067397	0.500069
H229	H	1.140198	-0.550176	0.000077
H230	H	1.640198	-0.050176	0.500077
H231	H	1.068832	-0.769306	0.000085
H232	H	1.568832	-0.269306	0.500085
H233	H	1.076308	-0.325706	0.000040
H234	H	1.576308	0.174294	0.500040
H235	H	0.805085	-0.723887	0.000080
H236	H	1.305085	-0.223887	0.500080
