data_functionalizedCrystal
_audit_creation_method	'MofGen! by Chris Wilmer'
_symmetry_space_group_name_H-M	'P1'
_symmetry_Int_Tables_number	1
_symmetry_cell_setting	triclinic
loop_
_symmetry_equiv_pos_as_xyz
  x,y,z
_cell_length_a	13.897449
_cell_length_b	13.897448
_cell_length_c	13.897441
_cell_angle_alpha	90.029627
_cell_angle_beta	90.021257
_cell_angle_gamma	90.018519
loop_
_atom_site_label
_atom_site_type_symbol
_atom_site_fract_x
_atom_site_fract_y
_atom_site_fract_z
Zn1	Zn	1.474682	-0.383972	0.545450
Zn2	Zn	1.974682	0.116028	1.045450
Zn3	Zn	1.474582	-0.545291	0.384151
Zn4	Zn	1.974582	-0.045291	0.884151
Zn5	Zn	1.313377	-0.384014	0.384161
Zn6	Zn	1.813377	0.115986	0.884161
Zn7	Zn	1.313353	-0.545229	0.545396
Zn8	Zn	1.813353	-0.045229	1.045396
O9	O	1.393999	-0.464627	0.464789
O10	O	1.893999	0.035373	0.964789
O11	O	1.609651	-0.405380	0.524071
O12	O	2.109651	0.094620	1.024071
O13	O	1.453166	-0.523941	0.249171
O14	O	1.953166	-0.023941	0.749171
O15	O	1.334827	-0.249027	0.405582
O16	O	1.834827	0.250973	0.905582
O17	O	1.609577	-0.523900	0.405566
O18	O	2.109577	-0.023900	0.905566
O19	O	1.453337	-0.248996	0.524081
O20	O	1.953337	0.251004	1.024081
O21	O	1.334730	-0.405451	0.249178
O22	O	1.834730	0.094549	0.749178
O23	O	1.178393	-0.405391	0.405530
O24	O	1.678393	0.094609	0.905530
O25	O	1.334785	-0.523795	0.680385
O26	O	1.834785	-0.023795	1.180385
O27	O	1.178375	-0.523835	0.523990
O28	O	1.678375	-0.023835	1.023990
O29	O	1.453313	-0.405320	0.680424
O30	O	1.953313	0.094680	1.180424
O31	O	1.453143	-0.680264	0.405514
O32	O	1.953143	-0.180264	0.905514
O33	O	1.334689	-0.680219	0.523980
O34	O	1.834689	-0.180219	1.023980
C35	C	1.143384	-0.464612	0.464756
C36	C	1.643384	0.035388	0.964756
C37	C	1.036171	-0.464629	0.464764
C38	C	1.536171	0.035371	0.964764
C39	C	0.949101	-0.464632	0.464780
C40	C	1.449101	0.035368	0.964780
C41	C	0.839868	-0.464639	0.464810
C42	C	1.339868	0.035361	0.964810
C43	C	1.393928	-0.715241	0.464761
C44	C	1.893928	-0.215241	0.964761
C45	C	1.393987	-0.822455	0.464782
C46	C	1.893987	-0.322455	0.964782
C47	C	1.394088	-1.018750	0.464842
C48	C	1.894088	-0.518750	0.964842
C49	C	1.394029	-0.909517	0.464812
C50	C	1.894029	-0.409517	0.964812
C51	C	1.645592	-0.464642	0.464824
C52	C	2.145592	0.035358	0.964824
C53	C	1.752806	-0.464649	0.464838
C54	C	2.252806	0.035351	0.964838
C55	C	1.394058	-0.464546	0.716382
C56	C	1.894058	0.035454	1.216382
C57	C	1.394083	-0.464511	0.823596
C58	C	1.894083	0.035489	1.323596
C59	C	1.394096	-0.213034	0.464838
C60	C	1.894096	0.286966	0.964838
C61	C	1.394137	-0.105820	0.464859
C62	C	1.894137	0.394180	0.964859
C63	C	1.393995	-0.464638	0.214175
C64	C	1.893995	0.035362	0.714175
C65	C	1.394157	-0.464400	0.106962
C66	C	1.894157	0.035600	0.606962
C67	C	1.394103	-0.464484	0.910666
C68	C	1.894103	0.035516	1.410666
C69	C	1.394130	-0.464440	1.019899
C70	C	1.894130	0.035560	1.519899
