data_functionalizedCrystal
_audit_creation_method	'MofGen! by Chris Wilmer'
_symmetry_space_group_name_H-M	'P1'
_symmetry_Int_Tables_number	1
_symmetry_cell_setting	triclinic
loop_
_symmetry_equiv_pos_as_xyz
  x,y,z
_cell_length_a	19.288864
_cell_length_b	19.288865
_cell_length_c	17.766277
_cell_angle_alpha	90.012963
_cell_angle_beta	90.012907
_cell_angle_gamma	83.136245
loop_
_atom_site_label
_atom_site_type_symbol
_atom_site_fract_x
_atom_site_fract_y
_atom_site_fract_z
O1	O	0.921342	0.086651	0.062844
O2	O	1.421342	0.586651	0.562844
O3	O	0.719082	0.098340	0.062794
O4	O	1.219082	0.598340	0.562794
O5	O	0.826056	-0.008635	0.062806
O6	O	1.326056	0.491365	0.562806
O7	O	0.814368	0.193626	0.062832
O8	O	1.314368	0.693626	0.562832
O9	O	0.826059	-0.008645	-0.062383
O10	O	1.326059	0.491355	0.437617
O11	O	0.719084	0.098329	-0.062395
O12	O	1.219084	0.598329	0.437605
O13	O	0.921345	0.086641	-0.062344
O14	O	1.421345	0.586641	0.437656
Cu15	Cu	0.820215	0.092484	-0.073800
Cu16	Cu	1.320215	0.592484	0.426200
Cu17	Cu	0.820212	0.092497	0.074250
Cu18	Cu	1.320212	0.592497	0.574250
O19	O	0.814370	0.193615	-0.062356
O20	O	1.314370	0.693615	0.437644
C21	C	0.693207	0.097959	0.000193
C22	C	1.193207	0.597959	0.500193
C23	C	0.616103	0.096830	0.000173
C24	C	1.116103	0.596830	0.500173
C25	C	0.571407	0.159598	0.000193
C26	C	1.071407	0.659598	0.500193
C27	C	0.498960	0.158537	0.000201
C28	C	0.998960	0.658537	0.500201
C29	C	0.471212	0.094705	0.000205
C30	C	0.971212	0.594705	0.500205
C31	C	0.515918	0.031929	0.000180
C32	C	1.015918	0.531929	0.500180
C33	C	0.588364	0.032991	0.000164
C34	C	1.088364	0.532991	0.500164
C35	C	0.362949	0.044529	0.044082
C36	C	0.862949	0.544529	0.544082
C37	C	0.290505	0.043469	0.044103
C38	C	0.790505	0.543469	0.544103
C39	C	0.247767	0.091425	0.000250
C40	C	0.747767	0.591425	0.500250
C41	C	0.277480	0.140452	-0.043614
C42	C	0.777480	0.640452	0.456386
C43	C	0.349926	0.141515	-0.043630
C44	C	0.849926	0.641515	0.456370
C45	C	0.392658	0.093546	0.000221
C46	C	0.892658	0.593546	0.500221
C47	C	0.124514	0.153047	0.000278
C48	C	0.624514	0.653047	0.500278
C49	C	0.052066	0.151984	0.000281
C50	C	0.552066	0.651984	0.500281
C51	C	0.069026	0.025374	0.000267
C52	C	0.569026	0.525374	0.500267
C53	C	0.141473	0.026439	0.000256
C54	C	0.641473	0.526439	0.500256
C55	C	0.169212	0.090278	0.000265
C56	C	0.669212	0.590278	0.500265
C57	C	0.825682	-0.034516	0.000209
C58	C	1.325682	0.465484	0.500209
C59	C	0.824553	-0.111620	0.000202
C60	C	1.324553	0.388380	0.500202
C61	C	0.887321	-0.156316	0.000214
C62	C	1.387321	0.343684	0.500214
C63	C	0.886260	-0.228763	0.000226
C64	C	1.386260	0.271237	0.500226
C65	C	0.822428	-0.256511	0.000210
C66	C	1.322428	0.243489	0.500210
C67	C	0.759652	-0.211805	0.000203
C68	C	1.259652	0.288195	0.500203
C69	C	0.760714	-0.139359	0.000198
C70	C	1.260714	0.360641	0.500198
C71	C	0.772249	-0.364802	-0.043653
C72	C	1.272249	0.135198	0.456347
C73	C	0.771189	-0.437246	-0.043654
C74	C	1.271189	0.062754	0.456346
C75	C	0.819148	-0.479956	0.000226
C76	C	1.319148	0.020044	0.500226
C77	C	0.868179	-0.450215	0.044097
C78	C	1.368179	0.049785	0.544097
C79	C	0.869241	-0.377769	0.044093
C80	C	1.369241	0.122231	0.544093
C81	C	0.821269	-0.335065	0.000215
C82	C	1.321269	0.164935	0.500215
C83	C	0.880770	-0.603209	0.000252
C84	C	1.380770	-0.103209	0.500252
C85	C	0.879707	-0.675657	0.000268
C86	C	1.379707	-0.175657	0.500268
C87	C	0.753097	-0.658697	0.000238
C88	C	1.253097	-0.158697	0.500238
C89	C	0.754162	-0.586250	0.000229
C90	C	1.254162	-0.086250	0.500229
C91	C	0.818000	-0.558511	0.000232
C92	C	1.318000	-0.058511	0.500232
C93	C	0.947220	0.087022	0.000258
C94	C	1.447220	0.587022	0.500258
C95	C	1.024324	0.088151	0.000283
C96	C	1.524324	0.588151	0.500283
C97	C	0.814745	0.219497	0.000242
C98	C	1.314745	0.719497	0.500242
C99	C	0.815874	0.296601	0.000254
C100	C	1.315874	0.796601	0.500254
N101	N	0.820210	0.092501	0.178380
N102	N	1.320210	0.592501	0.678380
N103	N	0.820222	0.092475	-0.177931
N104	N	1.320222	0.592475	0.322069
C105	C	0.867663	0.045224	0.217772
C106	C	1.367663	0.545224	0.717772
C107	C	0.867669	0.045223	0.296574
C108	C	1.367669	0.545223	0.796574
C109	C	0.820210	0.092492	0.335981
C110	C	1.320210	0.592492	0.835981
C111	C	0.772754	0.139777	0.296579
C112	C	1.272754	0.639777	0.796579
C113	C	0.772754	0.139781	0.217779
C114	C	1.272754	0.639781	0.717779
C115	C	0.756923	0.101637	0.460811
C116	C	1.256923	0.601637	0.960811
C117	C	0.756922	0.101627	0.539610
C118	C	1.256922	0.601627	1.039610
C119	C	0.820210	0.092482	0.579027
C120	C	1.320210	0.592482	1.079027
C121	C	0.883503	0.083330	0.539636
C122	C	1.383503	0.583330	1.039636
C123	C	0.883503	0.083335	0.460836
C124	C	1.383503	0.583335	0.960836
C125	C	0.820205	0.092492	0.421426
C126	C	1.320205	0.592492	0.921426
C127	C	0.867673	0.045202	0.703865
C128	C	1.367673	0.545202	1.203865
C129	C	0.867680	0.045205	0.782668
C130	C	1.367680	0.545205	1.282668
C131	C	0.772760	0.139755	0.782672
C132	C	1.272760	0.639755	1.282672
C133	C	0.772759	0.139755	0.703870
C134	C	1.272759	0.639755	1.203870
C135	C	0.820215	0.092474	0.664471
C136	C	1.320215	0.592474	1.164471
H137	H	0.015674	0.203099	0.000293
H138	H	0.515674	0.703099	0.500293
C139	C	0.038513	-0.044840	0.000275
C140	C	0.538513	0.455160	0.500275
H141	H	-0.011035	-0.036485	0.000293
H142	H	0.488965	0.463515	0.500293
H143	H	0.053853	-0.070684	-0.043384
H144	H	0.553853	0.429316	0.456616
H145	H	0.053886	-0.070667	0.043934
H146	H	0.553886	0.429333	0.543934
H147	H	0.906312	0.006724	0.328653
H148	H	1.406312	0.506724	0.828653
H149	H	0.906306	0.006727	0.185696
H150	H	1.406306	0.506727	0.685696
H151	H	0.731263	-0.461456	-0.079371
H152	H	1.231263	0.038544	0.420629
C153	C	0.920932	-0.497185	0.092372
C154	C	1.420932	0.002815	0.592372
H155	H	0.913273	-0.544590	0.086102
H156	H	1.413273	-0.044590	0.586102
H157	H	0.967063	-0.491476	0.076966
H158	H	1.467063	0.008524	0.576966
H159	H	0.914994	-0.484475	0.143838
H160	H	1.414994	0.015525	0.643838
H161	H	0.266317	0.003551	0.079822
H162	H	0.766317	0.503551	0.579822
H163	H	0.709599	-0.102967	0.000188
H164	H	1.209599	0.397033	0.500188
C165	C	0.953118	0.073280	0.417508
C166	C	1.453118	0.573280	0.917508
H167	H	0.990813	0.067837	0.452264
H168	H	1.490813	0.567837	0.952264
H169	H	0.954730	0.032828	0.386752
H170	H	1.454730	0.532828	0.886752
H171	H	0.956762	0.112985	0.386785
H172	H	1.456762	0.612985	0.886785
C173	C	0.682881	-0.689207	0.000224
C174	C	1.182881	-0.189207	0.500224
H175	H	0.645649	-0.652208	0.000219
H176	H	1.145649	-0.152208	0.500219
H177	H	0.679833	-0.717129	-0.043429
H178	H	1.179833	-0.217129	0.456571
H179	H	0.679836	-0.717101	0.043888
H180	H	1.179836	-0.217101	0.543888
H181	H	0.177866	-0.024674	0.000244
H182	H	0.677866	0.475326	0.500244
C183	C	0.719490	-0.317827	-0.091923
C184	C	1.219490	0.182173	0.408077
H185	H	0.690146	-0.345915	-0.118057
H186	H	1.190146	0.154085	0.381943
H187	H	0.691858	-0.285801	-0.060313
H188	H	1.191858	0.214199	0.439687
H189	H	0.743924	-0.292794	-0.127189
H190	H	1.243924	0.207206	0.372811
H191	H	0.147101	0.205028	0.000274
H192	H	0.647101	0.705028	0.500274
C193	C	0.953124	0.073282	0.582984
C194	C	1.453124	0.573282	1.082984
H195	H	0.944063	0.074602	0.635556
H196	H	1.444063	0.574602	1.135556
H197	H	0.978116	0.029451	0.570069
H198	H	1.478116	0.529451	1.070069
H199	H	0.980140	0.109609	0.570079
H200	H	1.480140	0.609609	1.070079
H201	H	0.705386	0.109071	0.571676
H202	H	1.205386	0.609071	1.071676
C203	C	0.689438	-0.242324	0.000183
C204	C	1.189438	0.257676	0.500183
H205	H	0.697795	-0.291872	0.000179
H206	H	1.197795	0.208128	0.500179
H207	H	0.663601	-0.226958	0.043832
H208	H	1.163601	0.273042	0.543832
H209	H	0.663605	-0.226977	-0.043485
H210	H	1.163605	0.273023	0.456515
C211	C	0.919875	-0.006800	0.660523
C212	C	1.419875	0.493200	1.160523
H213	H	0.948145	-0.034951	0.695273
H214	H	1.448145	0.465049	1.195273
H215	H	0.895041	-0.035703	0.629771
H216	H	1.395041	0.464297	1.129771
H217	H	0.948656	0.018178	0.629796
H218	H	1.448656	0.518178	1.129796
H219	H	0.397742	0.005477	0.079797
H220	H	0.897742	0.505477	0.579797
H221	H	0.593987	0.211580	0.000202
H222	H	1.093987	0.711580	0.500202
C223	C	0.449785	0.227584	0.000235
C224	C	0.949785	0.727584	0.500235
H225	H	0.476682	0.265755	0.000244
H226	H	0.976682	0.765755	0.500244
H227	H	0.421149	0.229805	-0.043410
H228	H	0.921149	0.729805	0.456590
H229	H	0.421195	0.229793	0.043908
H230	H	0.921195	0.729793	0.543908
C231	C	0.485399	-0.038285	0.000188
C232	C	0.985399	0.461715	0.500188
H233	H	0.435851	-0.029928	0.000209
H234	H	0.935851	0.470072	0.500209
H235	H	0.500736	-0.064127	-0.043473
H236	H	1.000736	0.435873	0.456527
H237	H	0.500774	-0.064114	0.043844
H238	H	1.000774	0.435886	0.543844
H239	H	0.705382	0.109088	0.428724
H240	H	1.205382	0.609088	0.928724
C241	C	0.919880	-0.006802	0.826000
C242	C	1.419880	0.493198	1.326000
H243	H	0.948136	-0.034962	0.791247
H244	H	1.448136	0.465038	1.291247
H245	H	0.948663	0.018165	0.856754
H246	H	1.448663	0.518165	1.356754
H247	H	0.895040	-0.035707	0.856725
H248	H	1.395040	0.464293	1.356725
C249	C	0.720551	0.191770	0.339923
C250	C	1.220551	0.691770	0.839923
H251	H	0.727342	0.184992	0.392496
H252	H	1.227342	0.684992	0.892496
H253	H	0.727857	0.238134	0.327026
H254	H	1.227857	0.738134	0.827026
H255	H	0.674243	0.184252	0.326993
H256	H	1.174243	0.684252	0.826993
H257	H	0.374116	0.181432	-0.079347
H258	H	0.874116	0.681432	0.420653
C259	C	0.230477	0.193210	-0.091850
C260	C	0.730477	0.693210	0.408150
H261	H	0.183077	0.185554	-0.085566
H262	H	0.683077	0.685554	0.414434
H263	H	0.236202	0.239339	-0.076422
H264	H	0.736202	0.739339	0.423578
H265	H	0.243149	0.187276	-0.143324
H266	H	0.743149	0.687276	0.356676
C267	C	0.720563	0.191757	0.826009
C268	C	1.220563	0.691757	1.326009
H269	H	0.727358	0.184983	0.878583
H270	H	1.227358	0.684983	1.378583
H271	H	0.727874	0.238117	0.813106
H272	H	1.227874	0.738117	1.313106
H273	H	0.674252	0.184244	0.813086
H274	H	1.174252	0.684244	1.313086
C275	C	0.637532	-0.036057	0.000151
C276	C	1.137532	0.463943	0.500151
H277	H	0.610633	-0.074226	0.000158
H278	H	1.110633	0.425774	0.500158
H279	H	0.666133	-0.038279	-0.043508
H280	H	1.166133	0.461721	0.456492
H281	H	0.666156	-0.038267	0.043810
H282	H	1.166156	0.461733	0.543810
C283	C	0.720556	0.191754	0.660536
C284	C	1.220556	0.691754	1.160536
H285	H	0.692288	0.219903	0.695289
H286	H	1.192288	0.719903	1.195289
H287	H	0.745388	0.220660	0.629811
H288	H	1.245388	0.720660	1.129811
H289	H	0.691774	0.166779	0.629783
H290	H	1.191774	0.666779	1.129783
H291	H	0.734112	0.178280	0.185705
H292	H	1.234112	0.678280	0.685705
H293	H	0.939303	-0.133736	0.000220
H294	H	1.439303	0.366264	0.500220
H295	H	0.937375	-0.265162	0.000238
H296	H	1.437375	0.234838	0.500238
H297	H	0.909162	-0.353556	0.079815
H298	H	1.409162	0.146444	0.579815
H299	H	0.932751	-0.580622	0.000258
H300	H	1.432751	-0.080622	0.500258
C301	C	0.948755	-0.724823	0.000280
C302	C	1.448755	-0.224823	0.500280
H303	H	0.986924	-0.697924	0.000274
H304	H	1.486924	-0.197924	0.500274
H305	H	0.950978	-0.753426	0.043938
H306	H	1.450978	-0.253426	0.543938
H307	H	0.950967	-0.753448	-0.043379
H308	H	1.450967	-0.253448	0.456621
C309	C	0.685116	-0.537082	0.000203
C310	C	1.185116	-0.037082	0.500203
H311	H	0.646947	-0.563981	0.000189
H312	H	1.146947	-0.063981	0.500189
H313	H	0.682896	-0.508454	0.043855
H314	H	1.182896	-0.008454	0.543855
H315	H	0.682903	-0.508483	-0.043463
H316	H	1.182903	-0.008483	0.456537
