data_functionalizedCrystal
_audit_creation_method	'MofGen! by Chris Wilmer'
_symmetry_space_group_name_H-M	'P1'
_symmetry_Int_Tables_number	1
_symmetry_cell_setting	triclinic
loop_
_symmetry_equiv_pos_as_xyz
  x,y,z
_cell_length_a	11.792241
_cell_length_b	11.792241
_cell_length_c	15.186229
_cell_angle_alpha	90.012103
_cell_angle_beta	90.003664
_cell_angle_gamma	84.193416
loop_
_atom_site_label
_atom_site_type_symbol
_atom_site_fract_x
_atom_site_fract_y
_atom_site_fract_z
O1	O	1.506913	0.155579	0.073143
O2	O	2.006913	0.655579	0.573143
O3	O	1.176572	0.171612	0.073164
O4	O	1.676572	0.671612	0.573164
O5	O	1.349759	-0.001575	0.073147
O6	O	1.849759	0.498425	0.573147
O7	O	1.333726	0.328766	0.073160
O8	O	1.833726	0.828766	0.573160
O9	O	1.349735	-0.001603	-0.073310
O10	O	1.849735	0.498397	0.426690
O11	O	1.176548	0.171584	-0.073293
O12	O	1.676548	0.671584	0.426707
O13	O	1.506889	0.155551	-0.073314
O14	O	2.006889	0.655551	0.426686
Zn15	Zn	1.341715	0.163563	-0.096557
Zn16	Zn	1.841715	0.663563	0.403443
Zn17	Zn	1.341746	0.163600	0.096407
Zn18	Zn	1.841746	0.663600	0.596407
O19	O	1.333702	0.328738	-0.073297
O20	O	1.833702	0.828738	0.426703
C21	C	1.134269	0.170591	-0.000062
C22	C	1.634269	0.670591	0.499938
C23	C	1.008255	0.167576	-0.000054
C24	C	1.508255	0.667576	0.499946
C25	C	0.777543	0.162034	-0.000080
C26	C	1.277543	0.662034	0.499920
C27	C	0.905928	0.165113	-0.000066
C28	C	1.405928	0.665113	0.499934
C29	C	1.348740	-0.043880	-0.000081
C30	C	1.848740	0.456120	0.499919
C31	C	1.345726	-0.169894	-0.000080
C32	C	1.845726	0.330106	0.499920
C33	C	1.340183	-0.400606	-0.000065
C34	C	1.840183	0.099394	0.499935
C35	C	1.343262	-0.272221	-0.000073
C36	C	1.843262	0.227779	0.499927
C37	C	1.549192	0.156572	-0.000086
C38	C	2.049192	0.656572	0.499914
C39	C	1.675206	0.159587	-0.000088
C40	C	2.175206	0.659587	0.499912
C41	C	1.334721	0.371043	-0.000067
C42	C	1.834721	0.871043	0.499933
C43	C	1.337736	0.497057	-0.000062
C44	C	1.837736	0.997057	0.499938
N45	N	1.341702	0.163537	-0.228249
N46	N	1.841702	0.663537	0.271751
C47	C	1.272481	0.094286	-0.546200
C48	C	1.772481	0.594286	-0.046200
C49	C	1.272471	0.094269	-0.454010
C50	C	1.772471	0.594269	0.045990
C51	C	1.410997	0.232871	-0.453956
C52	C	1.910997	0.732871	0.046044
C53	C	1.411012	0.232881	-0.546144
C54	C	1.911012	0.732881	-0.046144
C55	C	1.341747	0.163590	-0.592264
C56	C	1.841747	0.663590	-0.092264
C57	C	1.341723	0.163564	-0.407886
C58	C	1.841723	0.663564	0.092114
C59	C	1.341713	0.163547	-0.307930
C60	C	1.841713	0.663547	0.192070
C61	C	1.341759	0.163606	-0.692226
C62	C	1.841759	0.663606	-0.192226
N63	N	1.341769	0.163617	0.228100
N64	N	1.841769	0.663617	0.728100
H65	H	1.216082	0.037864	-0.583748
H66	H	1.716082	0.537864	-0.083748
H67	H	1.467389	0.289286	-0.416395
H68	H	1.967389	0.789286	0.083605
Br69	Br	1.505033	0.326935	-0.608665
Br70	Br	2.005033	0.826935	-0.108665
H71	H	1.216068	0.037834	-0.416509
H72	H	1.716068	0.537834	0.083491
