data_functionalizedCrystal
_audit_creation_method	'MofGen! by Chris Wilmer'
_symmetry_space_group_name_H-M	'P1'
_symmetry_Int_Tables_number	1
_symmetry_cell_setting	triclinic
loop_
_symmetry_equiv_pos_as_xyz
  x,y,z
_cell_length_a	6.817900
_cell_length_b	17.513362
_cell_length_c	17.110486
_cell_angle_alpha	95.939181
_cell_angle_beta	99.060439
_cell_angle_gamma	106.557224
loop_
_atom_site_label
_atom_site_type_symbol
_atom_site_fract_x
_atom_site_fract_y
_atom_site_fract_z
V1	V	-3.992678	-0.110089	-0.247447
O2	O	-3.964580	0.005535	-0.241987
O3	O	-3.960067	-0.218524	-0.246476
O4	O	-3.922278	-0.108289	-0.355038
O5	O	-4.002631	-0.105463	-0.132673
V6	V	-4.477111	-0.096272	-0.233632
O7	O	-4.251941	-0.140399	-0.277753
O8	O	-4.668046	-0.065963	-0.203326
O9	O	-4.286516	0.012162	-0.234603
O10	O	-4.622607	-0.211896	-0.239092
O11	O	-4.584556	-0.100898	-0.348406
O12	O	-4.324305	-0.098073	-0.126040
C13	C	-3.809621	-0.244961	-0.242758
C14	C	-3.864098	-0.333607	-0.242681
C15	C	-3.707801	-0.371197	-0.238669
C16	C	-3.758995	-0.454488	-0.238587
C17	C	-3.966491	-0.500188	-0.242523
C18	C	-4.122797	-0.462592	-0.246534
C19	C	-4.071599	-0.379301	-0.246610
C20	C	-4.130174	-0.751873	-0.242487
C21	C	-4.181363	-0.835169	-0.242413
C22	C	-3.817556	-0.827060	-0.234465
C23	C	-3.766376	-0.743769	-0.234546
C24	C	-3.922684	-0.706179	-0.238552
C25	C	-4.018826	-0.585325	-0.242442
C26	C	-3.870346	-0.621043	-0.238628
C27	C	-3.761416	-0.104344	-0.381240
C28	C	-3.785244	-0.103590	-0.469201
C29	C	-3.978305	-0.107215	-0.514583
C30	C	-4.000682	-0.106505	-0.597231
C31	C	-3.829999	-0.102176	-0.634497
C32	C	-3.636921	-0.098548	-0.589109
C33	C	-3.614543	-0.099252	-0.506461
C34	C	-3.888464	-0.099846	-0.883837
C35	C	-3.910860	-0.099145	-0.966491
C36	C	-4.274619	-0.107101	-0.974607
C37	C	-4.252226	-0.107809	-0.891958
C38	C	-4.059149	-0.104177	-0.846577
C39	C	-3.852869	-0.101453	-0.718978
C40	C	-4.036278	-0.104894	-0.762097
C41	C	-4.100305	0.038595	-0.238318
C42	C	-4.025066	0.127240	-0.238400
C43	C	-4.148510	-0.102020	-0.099835
C44	C	-4.103920	-0.102770	-0.011873
H45	H	-4.257460	-0.721279	-0.245756
H46	H	-4.198874	-0.348696	-0.249872
O47	O	-3.680236	-0.095940	-0.834895
H48	H	-3.565324	-0.092823	-0.874698
O49	O	-3.484003	-0.321911	-0.234432
H50	H	-3.431613	-0.275298	-0.180042
H51	H	-3.713905	-0.097931	-0.749330
O52	O	-4.220365	-0.109556	-0.721906
H53	H	-4.348051	-0.165919	-0.748523
O54	O	-3.648977	-0.867604	-0.230138
H55	H	-3.572301	-0.858143	-0.282490
O56	O	-4.242619	-0.634618	-0.246682
H57	H	-4.295009	-0.681225	-0.301076
H58	H	-3.597414	-0.706565	-0.231338
O59	O	-3.590426	-0.495038	-0.234271
H60	H	-3.437547	-0.449269	-0.231561
H61	H	-4.350335	-0.872376	-0.245618
O62	O	-4.346598	-0.511875	-0.250770
H63	H	-4.355948	-0.576108	-0.250049
H64	H	-3.701401	-0.583830	-0.235419
H65	H	-4.117301	-0.110745	-0.484248
H66	H	-4.157886	-0.109453	-0.634177
O67	O	-4.436323	-0.112460	-0.851770
H68	H	-4.564020	-0.168819	-0.878391
O69	O	-3.726749	-0.094476	-1.006684
H70	H	-3.774763	-0.094608	-1.071780
H71	H	-3.497947	-0.095019	-0.619457
H72	H	-4.431815	-0.110057	-1.011566
H73	H	-3.457321	-0.096280	-0.469509
