data_functionalizedCrystal
_audit_creation_method	'MofGen! by Chris Wilmer'
_symmetry_space_group_name_H-M	'P1'
_symmetry_Int_Tables_number	1
_symmetry_cell_setting	triclinic
loop_
_symmetry_equiv_pos_as_xyz
  x,y,z
_cell_length_a	27.732048
_cell_length_b	15.944551
_cell_length_c	15.021413
_cell_angle_alpha	90.002826
_cell_angle_beta	89.999048
_cell_angle_gamma	96.929303
loop_
_atom_site_label
_atom_site_type_symbol
_atom_site_fract_x
_atom_site_fract_y
_atom_site_fract_z
O1	O	0.062334	-1.113714	-0.073949
O2	O	0.070020	-0.869064	-0.073973
O3	O	-0.004187	-0.998987	-0.073943
O4	O	0.136541	-0.983790	-0.073979
O5	O	-0.004176	-0.998966	0.074121
O6	O	0.070030	-0.869043	0.074092
O7	O	0.062345	-1.113693	0.074115
Zn8	Zn	0.066189	-0.991365	0.097612
Zn9	Zn	0.066175	-0.991392	-0.097469
O10	O	0.136551	-0.983770	0.074086
C11	C	0.069706	-0.837763	0.000057
C12	C	0.068749	-0.744530	0.000049
C13	C	-0.022190	-0.998658	0.000091
C14	C	-0.075849	-0.997697	0.000099
N15	N	0.066198	-0.991352	0.230749
C16	C	-0.414358	-1.068426	0.000060
C17	C	-0.616033	-1.064862	0.000047
O18	O	-0.647008	-1.129539	0.000014
N19	N	-0.635490	-0.987823	0.000040
C20	C	-0.604525	-0.911669	0.000031
O21	O	-0.625703	-0.846061	0.000016
C22	C	-0.402851	-0.915234	0.000038
C23	C	-0.383397	-0.992278	0.000053
C24	C	-0.394903	-1.145464	0.000074
C25	C	-0.344487	-1.146354	0.000082
C26	C	-0.313526	-1.070206	0.000076
C27	C	-0.332981	-0.993168	0.000061
C28	C	-0.371887	-0.839081	0.000022
C29	C	-0.321466	-0.839979	0.000021
C30	C	-0.302012	-0.917024	0.000037
C31	C	-0.251604	-0.917911	0.000063
N32	N	-0.232147	-0.994950	0.000069
C33	C	-0.263108	-1.071098	0.000076
C34	C	-0.710408	-0.909803	0.000030
C35	C	-0.760826	-0.908912	0.000030
C36	C	-0.772330	-1.062105	0.000044
C37	C	-0.721911	-1.062995	0.000050
C38	C	-0.690950	-0.986842	0.000036
C39	C	-0.157231	-1.072961	0.000093
C40	C	-0.106810	-1.073845	0.000105
C41	C	-0.095310	-0.920652	0.000086
C42	C	-0.145727	-0.919768	0.000079
C43	C	-0.176686	-0.995930	0.000080
O44	O	-0.220600	-0.853269	0.000085
O45	O	-0.241921	-1.136697	0.000071
C46	C	-0.464774	-1.067536	0.000052
C47	C	-0.484228	-0.990498	0.000037
C48	C	-0.453268	-0.914350	0.000031
C49	C	-0.534647	-0.989607	0.000037
C50	C	-0.565608	-1.065754	0.000044
C51	C	-0.546150	-1.142794	0.000050
C52	C	-0.495734	-1.143684	0.000058
C53	C	-0.472725	-0.837311	0.000024
C54	C	-0.523141	-0.836427	0.000017
C55	C	-0.554102	-0.912575	0.000023
C56	C	0.154554	-0.984099	0.000049
C57	C	0.208213	-0.985059	0.000036
C58	C	0.062658	-1.144993	0.000084
C59	C	0.063615	-1.238227	0.000086
C60	C	0.020466	-0.530305	0.000078
C61	C	0.042882	-0.469001	-0.072931
C62	C	0.067019	-0.573827	0.000060
C63	C	0.042904	-0.469003	0.073049
C64	C	0.065344	-0.408936	0.000074
C65	C	0.089448	-0.513752	-0.073010
C66	C	0.089463	-0.513760	0.073036
C67	C	0.111912	-0.452474	0.000009
C68	C	0.067983	-0.668816	0.000051
C69	C	0.064384	-0.313947	0.000077
N70	N	0.066162	-0.991411	-0.230607
C71	C	0.100495	-0.931267	0.470419
C72	C	0.109879	-1.007044	0.529758
C73	C	0.066186	-0.991374	0.412356
C74	C	0.056813	-0.915617	0.529759
C75	C	0.066176	-0.991388	0.587780
C76	C	0.075592	-1.067190	0.470389
C77	C	0.022507	-0.975712	0.470385
C78	C	0.031872	-1.051545	0.529697
C79	C	0.066194	-0.991365	0.311299
C80	C	0.066168	-0.991406	0.688836
H81	H	-0.090973	-1.136586	0.000120
H82	H	0.023188	-0.449157	-0.134645
H83	H	0.109118	-0.533491	-0.134801
H84	H	-0.018169	-0.564143	-0.000003
C85	C	0.139723	-0.862670	0.435246
N86	N	0.169271	-0.811009	0.408751
C87	C	-0.580217	-1.226556	0.000056
N88	N	-0.605878	-1.289643	0.000054
H89	H	-0.387718	-0.776344	0.000004
H90	H	-0.479900	-1.206421	0.000071
H91	H	0.002852	-1.102437	0.555561
C92	C	-0.544535	-0.751666	0.000001
N93	N	-0.560646	-0.687826	-0.000020
C94	C	-0.027373	-0.957764	0.435118
N95	N	-0.064942	-0.944236	0.408552
H96	H	0.150587	-0.418809	-0.000042
C97	C	0.046106	-0.829057	0.564987
N98	N	0.038045	-0.763859	0.591516
C99	C	0.016299	-0.442206	0.156433
N100	N	-0.003743	-0.422025	0.219235
C101	C	-0.676357	-0.826023	0.000015
N102	N	-0.650711	-0.762918	0.000007
H103	H	0.109141	-0.533625	0.134753
H104	H	-0.182432	-1.134979	0.000090
H105	H	0.146814	-1.020304	0.555837
H106	H	-0.328652	-1.209091	0.000091
C107	C	-0.428953	-1.229240	0.000091
N108	N	-0.454596	-1.292346	0.000113
H109	H	-0.706075	-1.125732	0.000062
H110	H	0.083560	-1.131275	0.444419
C111	C	-0.287412	-0.756202	0.000009
N112	N	-0.261764	-0.693102	0.000003
C113	C	-0.806396	-1.145868	0.000044
N114	N	-0.832057	-1.208955	0.000036
C115	C	-0.167127	-0.835016	0.000068
N116	N	-0.183242	-0.771179	0.000050
H117	H	-0.070093	-0.858655	0.000084
C118	C	-0.782220	-0.824157	0.000024
N119	N	-0.798331	-0.760317	0.000013
H120	H	-0.447521	-0.775301	0.000017
