data_functionalizedCrystal
_audit_creation_method	'MofGen! by Chris Wilmer'
_symmetry_space_group_name_H-M	'P1'
_symmetry_Int_Tables_number	1
_symmetry_cell_setting	triclinic
loop_
_symmetry_equiv_pos_as_xyz
  x,y,z
_cell_length_a	17.038272
_cell_length_b	15.944551
_cell_length_c	15.021413
_cell_angle_alpha	90.002826
_cell_angle_beta	90.004029
_cell_angle_gamma	92.694853
loop_
_atom_site_label
_atom_site_type_symbol
_atom_site_fract_x
_atom_site_fract_y
_atom_site_fract_z
O1	O	0.100827	-1.121728	-0.073940
O2	O	0.113259	-0.878066	-0.073962
O3	O	-0.006773	-0.998449	-0.073944
O4	O	0.220859	-1.001345	-0.073958
O5	O	-0.006755	-0.998429	0.074120
O6	O	0.113277	-0.878046	0.074102
O7	O	0.100844	-1.121708	0.074125
Zn8	Zn	0.107063	-0.999874	0.097622
Zn9	Zn	0.107041	-0.999900	-0.097459
O10	O	0.220876	-1.001326	0.074107
C11	C	0.112752	-0.846725	0.000067
C12	C	0.111205	-0.753369	0.000059
C13	C	-0.035893	-0.995805	0.000088
C14	C	-0.122688	-0.987945	0.000087
C15	C	0.101352	-1.153049	0.000093
C16	C	0.102899	-1.246405	0.000096
C17	C	-0.172781	-1.060103	0.000094
C18	C	-0.254334	-1.052713	0.000085
C19	C	-0.285792	-0.973165	0.000075
C20	C	-0.235693	-0.901002	0.000065
C21	C	-0.154142	-0.908393	0.000068
C22	C	-0.531558	-0.947056	0.000061
C23	C	-0.613115	-0.939671	0.000060
C24	C	-0.631751	-1.091383	0.000079
C25	C	-0.550197	-1.098766	0.000087
C26	C	-0.500105	-1.026603	0.000072
C27	C	-0.369152	-0.965610	0.000069
C28	C	-0.416747	-1.034159	0.000073
C29	C	0.249997	-1.003969	0.000073
C30	C	0.336792	-1.011829	0.000068
N31	N	0.107078	-0.999863	0.230759
C32	C	0.033105	-0.532936	0.000081
C33	C	0.069363	-0.474515	-0.072924
C34	C	0.108405	-0.582443	0.000070
C35	C	0.069398	-0.474519	0.073055
C36	C	0.105696	-0.417337	0.000084
C37	C	0.144684	-0.525252	-0.072996
C38	C	0.144709	-0.525262	0.073049
C39	C	0.181022	-0.466862	0.000026
C40	C	0.109964	-0.677557	0.000061
C41	C	0.104143	-0.322225	0.000087
N42	N	0.107019	-0.999917	-0.230597
C43	C	0.162555	-0.944187	0.470434
C44	C	0.177734	-1.021171	0.529775
C45	C	0.107059	-0.999883	0.412366
C46	C	0.091897	-0.922921	0.529768
C47	C	0.107041	-0.999896	0.587790
C48	C	0.122273	-1.076908	0.470400
C49	C	0.036405	-0.978606	0.470388
C50	C	0.051554	-1.055643	0.529702
C51	C	0.107070	-0.999875	0.311309
C52	C	0.107029	-0.999913	0.688846
H53	H	-0.295117	-1.111472	0.000093
N54	N	-0.516268	-1.184564	0.000104
H55	H	-0.560378	-1.229156	0.000107
H56	H	-0.482839	-1.190945	-0.054782
H57	H	-0.394774	-0.900842	0.000062
N58	N	0.256861	-1.045028	0.564346
H59	H	0.268738	-1.102755	0.541822
H60	H	0.298705	-1.002869	0.542789
N61	N	-0.100120	-0.830558	0.000075
H62	H	-0.065869	-0.830237	0.054965
H63	H	-0.065919	-0.830285	-0.054846
N64	N	-0.049688	-0.571138	0.000006
H65	H	-0.078038	-0.552739	-0.055189
H66	H	-0.048006	-0.634367	0.000605
H67	H	0.037507	-0.452139	-0.134642
N68	N	0.074905	-0.836705	0.564310
H69	H	0.074517	-0.837477	0.631540
H70	H	0.116879	-0.794725	0.542689
N71	N	0.224759	-0.881867	0.435946
H72	H	0.213859	-0.823875	0.458470
H73	H	0.278079	-0.898127	0.457554
H74	H	0.176503	-0.547520	-0.134784
N75	N	0.263882	-0.428847	-0.000027
H76	H	0.292208	-0.447347	-0.055195
H77	H	0.262323	-0.365607	0.000531
N78	N	-0.042702	-0.954729	0.435792
H79	H	-0.084752	-0.996191	0.458291
H80	H	-0.054031	-0.896533	0.457354
H81	H	0.176539	-0.547657	0.134769
N82	N	0.027208	-0.444884	0.154809
H83	H	-0.028656	-0.469061	0.154743
H84	H	0.055151	-0.464187	0.209902
H85	H	0.004613	-1.102803	0.555561
N86	N	0.139351	-1.163156	0.436017
H87	H	0.097691	-1.205283	0.458081
H88	H	0.139292	-1.162538	0.368786
H89	H	-0.638725	-0.874891	0.000067
N90	N	-0.138857	-1.145903	0.000114
H91	H	-0.157124	-1.177789	-0.054770
H92	H	-0.079599	-1.139567	0.000152
N93	N	-0.685777	-1.169212	0.000097
H94	H	-0.742213	-1.152463	0.000094
H95	H	-0.675595	-1.203637	-0.054788
H96	H	-0.261313	-0.836233	0.000051
N97	N	-0.477537	-0.869226	0.000050
H98	H	-0.487665	-0.834787	-0.054840
H99	H	-0.487679	-0.834837	0.054971
N100	N	-0.382823	-1.119956	0.000091
H101	H	-0.349402	-1.126416	-0.054792
H102	H	-0.349440	-1.126328	0.055020
