data_functionalizedCrystal
_audit_creation_method	'MofGen! by Chris Wilmer'
_symmetry_space_group_name_H-M	'P1'
_symmetry_Int_Tables_number	1
_symmetry_cell_setting	triclinic
loop_
_symmetry_equiv_pos_as_xyz
  x,y,z
_cell_length_a	12.837943
_cell_length_b	15.944493
_cell_length_c	11.295483
_cell_angle_alpha	94.100278
_cell_angle_beta	85.461227
_cell_angle_gamma	89.151992
loop_
_atom_site_label
_atom_site_type_symbol
_atom_site_fract_x
_atom_site_fract_y
_atom_site_fract_z
O1	O	1.382393	0.213269	-0.098973
O2	O	1.882393	0.713269	0.401027
O3	O	1.080590	0.202482	-0.098982
O4	O	1.580590	0.702482	0.401018
O5	O	1.239765	0.086258	-0.098987
O6	O	1.739765	0.586258	0.401013
O7	O	1.223218	0.329492	-0.098968
O8	O	1.723218	0.829492	0.401032
O9	O	1.225784	0.096449	0.099064
O10	O	1.725784	0.596449	0.599064
O11	O	1.066609	0.212672	0.099070
O12	O	1.566609	0.712672	0.599070
O13	O	1.368412	0.223459	0.099078
O14	O	1.868412	0.723459	0.599078
Cu15	Cu	1.216234	0.218996	0.117158
Cu16	Cu	1.716234	0.718996	0.617158
Cu17	Cu	1.232768	0.206945	-0.117061
Cu18	Cu	1.732768	0.706945	0.382939
O19	O	1.209237	0.339683	0.099084
O20	O	1.709237	0.839683	0.599084
C21	C	1.034980	0.203933	0.000043
C22	C	1.534980	0.703933	0.500043
C23	C	0.919905	0.193065	0.000039
C24	C	1.419905	0.693065	0.500039
C25	C	0.678920	0.323719	0.000066
C26	C	1.178920	0.823719	0.500066
C27	C	0.570796	0.313512	0.000063
C28	C	1.070796	0.813512	0.500063
C29	C	0.595531	0.162443	0.000039
C30	C	1.095531	0.662443	0.500039
C31	C	0.703655	0.172650	0.000041
C32	C	1.203655	0.672650	0.500041
C33	C	0.745345	0.253291	0.000053
C34	C	1.245345	0.753291	0.500053
C35	C	0.853471	0.263498	0.000048
C36	C	1.353471	0.763498	0.500048
C37	C	0.878203	0.112430	0.000032
C38	C	1.378203	0.612430	0.500032
C39	C	0.770080	0.102222	0.000029
C40	C	1.270080	0.602222	0.500029
C41	C	1.232098	0.060004	0.000034
C42	C	1.732098	0.560004	0.500034
C43	C	1.230072	-0.033407	0.000018
C44	C	1.730072	0.466593	0.500018
C45	C	1.323764	-0.261670	0.000044
C46	C	1.823764	0.238330	0.500044
C47	C	1.280132	-0.321305	-0.097607
C48	C	1.780132	0.178695	0.402393
C49	C	1.226314	-0.204428	0.000033
C50	C	1.726314	0.295572	0.500033
C51	C	1.266325	-0.311236	0.097656
C52	C	1.766325	0.188764	0.597656
C53	C	1.222692	-0.369626	0.000052
C54	C	1.722692	0.130374	0.500052
C55	C	1.182714	-0.262836	-0.097698
C56	C	1.682714	0.237164	0.402302
C57	C	1.168916	-0.252758	0.097653
C58	C	1.668916	0.247242	0.597653
C59	C	1.125213	-0.312366	-0.000022
C60	C	1.625213	0.187634	0.499978
C61	C	1.228404	-0.109261	0.000021
C62	C	1.728404	0.390739	0.500021
C63	C	1.220595	-0.464791	0.000056
C64	C	1.720595	0.035209	0.500056
C65	C	1.414022	0.222008	0.000051
C66	C	1.914022	0.722008	0.500051
C67	C	1.529098	0.232876	0.000048
C68	C	2.029098	0.732876	0.500048
C69	C	1.216903	0.365936	0.000061
C70	C	1.716903	0.865936	0.500061
C71	C	1.218930	0.459348	0.000068
C72	C	1.718930	0.959348	0.500068
N73	N	1.204613	0.227473	0.281894
N74	N	1.704613	0.727473	0.781894
N75	N	1.244397	0.198462	-0.281798
N76	N	1.744397	0.698462	0.218202
C77	C	1.328055	0.137396	0.531180
C78	C	1.828055	0.637396	1.031180
C79	C	1.319280	0.143808	0.655844
C80	C	1.819280	0.643808	1.155844
C81	C	1.178283	0.246705	0.655888
C82	C	1.678283	0.746705	1.155888
C83	C	1.187058	0.240293	0.531225
C84	C	1.687058	0.740293	1.031225
C85	C	1.261947	0.185637	0.468874
C86	C	1.761947	0.685637	0.968874
C87	C	1.270727	0.179230	0.344208
C88	C	1.770727	0.679230	0.844208
C89	C	1.129726	0.282122	0.344255
C90	C	1.629726	0.782122	0.844255
C91	C	1.120951	0.288534	0.468919
C92	C	1.620951	0.788534	0.968919
H93	H	0.736119	0.036567	0.000033
H94	H	1.236119	0.536567	0.500033
Cl95	Cl	1.084131	0.315401	0.734283
Cl96	Cl	1.584131	0.815401	1.234283
Cl97	Cl	1.128222	-0.229992	-0.225299
Cl98	Cl	1.628222	0.270008	0.274701
Cl99	Cl	0.731336	0.425092	0.000065
Cl100	Cl	1.231336	0.925092	0.500065
Cl101	Cl	1.026806	0.357239	0.547311
Cl102	Cl	1.526806	0.857239	1.047311
H103	H	1.407712	-0.239332	-0.000052
H104	H	1.907712	0.260668	0.499948
Cl105	Cl	0.905882	0.364873	0.000060
Cl106	Cl	1.405882	0.864873	0.500060
Cl107	Cl	1.364874	0.110523	0.265828
Cl108	Cl	1.864874	0.610523	0.765828
H109	H	1.075900	0.321406	0.293512
H110	H	1.575900	0.821406	0.793512
H111	H	0.516716	0.370862	0.000077
H112	H	1.016716	0.870862	0.500077
H113	H	1.301673	-0.332625	0.180207
H114	H	1.801673	0.167375	0.680207
H115	H	1.389039	0.092899	0.480413
H116	H	1.889039	0.592899	0.980413
H117	H	1.041211	-0.334556	-0.000078
H118	H	1.541211	0.165444	0.499922
Cl119	Cl	1.096454	-0.206539	0.225118
Cl120	Cl	1.596454	0.293461	0.725118
Cl121	Cl	0.543100	0.061075	0.000039
Cl122	Cl	1.043100	0.561075	0.500039
Cl123	Cl	1.402388	0.083157	0.734167
Cl124	Cl	1.902388	0.583157	1.234167
Cl125	Cl	1.352667	-0.367474	-0.225063
Cl126	Cl	1.852667	0.132526	0.274937
Cl127	Cl	0.961718	0.023885	-0.000003
Cl128	Cl	1.461718	0.523885	0.499997
