data_functionalizedCrystal
_audit_creation_method	'MofGen! by Chris Wilmer'
_symmetry_space_group_name_H-M	'P1'
_symmetry_Int_Tables_number	1
_symmetry_cell_setting	triclinic
loop_
_symmetry_equiv_pos_as_xyz
  x,y,z
_cell_length_a	25.639242
_cell_length_b	10.685383
_cell_length_c	10.685880
_cell_angle_alpha	89.701762
_cell_angle_beta	85.595088
_cell_angle_gamma	85.617391
loop_
_atom_site_label
_atom_site_type_symbol
_atom_site_fract_x
_atom_site_fract_y
_atom_site_fract_z
Zn1	Zn	0.803082	0.553940	-0.671280
Zn2	Zn	1.303082	1.053940	-0.171280
Zn3	Zn	0.789690	0.747696	-0.445409
Zn4	Zn	1.289690	1.247696	0.054591
Zn5	Zn	0.709487	0.537909	-0.461491
Zn6	Zn	1.209487	1.037909	0.038509
Zn7	Zn	0.708458	0.763654	-0.655093
Zn8	Zn	1.208458	1.263654	-0.155093
O9	O	0.752679	0.650800	-0.558318
O10	O	1.252679	1.150800	-0.058318
O11	O	0.874471	0.579673	-0.641362
O12	O	1.374471	1.079673	-0.141362
O13	O	0.773877	0.706480	-0.271991
O14	O	1.273877	1.206480	0.228009
O15	O	0.727937	0.364473	-0.502824
O16	O	1.227937	0.864473	-0.002824
O17	O	0.864632	0.722025	-0.475415
O18	O	1.364632	1.222025	0.024585
O19	O	0.796701	0.376251	-0.656956
O20	O	1.296701	0.876251	-0.156956
O21	O	0.714952	0.552350	-0.283807
O22	O	1.214952	1.052350	0.216193
O23	O	0.636185	0.567824	-0.487128
O24	O	1.136185	1.067824	0.012872
O25	O	0.726184	0.749223	-0.832791
O26	O	1.226184	1.249223	-0.332791
O27	O	0.635429	0.733678	-0.629367
O28	O	1.135429	1.233678	-0.129367
O29	O	0.795703	0.595147	-0.844683
O30	O	1.295703	1.095147	-0.344683
O31	O	0.772880	0.925376	-0.459719
O32	O	1.272880	1.425376	0.040281
O33	O	0.713199	0.937100	-0.613773
O34	O	1.213199	1.437100	-0.113773
C35	C	0.616836	0.650744	-0.558237
C36	C	1.116836	1.150744	-0.058237
C37	C	0.558721	0.650753	-0.558229
C38	C	1.058721	1.150753	-0.058229
C39	C	0.741490	0.976762	-0.533272
C40	C	1.241490	1.476762	-0.033272
C41	C	0.736752	1.116213	-0.522599
C42	C	1.236752	1.616213	-0.022599
C43	C	0.762323	0.675753	-0.885528
C44	C	1.262323	1.175753	-0.385528
C45	C	0.766432	0.686387	-1.024966
C46	C	1.266432	1.186387	-0.524966
C47	C	0.197968	0.737289	-0.632295
C48	C	0.697968	1.237289	-0.132295
C49	C	0.143364	0.737298	-0.632314
C50	C	0.643364	1.237298	-0.132314
O51	O	0.114796	0.810807	-0.695221
O52	O	0.614796	1.310807	-0.195221
N53	N	0.116441	0.650841	-0.558397
N54	N	0.616441	1.150841	-0.058397
C55	C	0.144126	0.564361	-0.484466
C56	C	0.644126	1.064361	0.015534
O57	O	0.116212	0.490822	-0.421596
O58	O	0.616212	0.990822	0.078404
C59	C	0.198729	0.564347	-0.484454
C60	C	0.698729	1.064347	0.015546
C61	C	0.225649	0.650818	-0.558366
C62	C	0.725649	1.150818	-0.058366
C63	C	0.224888	0.823751	-0.706203
C64	C	0.724888	1.323751	-0.206203
C65	C	0.279488	0.823743	-0.706181
C66	C	0.779488	1.323743	-0.206181
C67	C	0.307168	0.737272	-0.632253
C68	C	0.807168	1.237272	-0.132253
C69	C	0.280249	0.650810	-0.558345
C70	C	0.780249	1.150810	-0.058345
C71	C	0.226413	0.477862	-0.410530
C72	C	0.726413	0.977862	0.089470
C73	C	0.281021	0.477855	-0.410526
C74	C	0.781021	0.977855	0.089474
C75	C	0.307940	0.564326	-0.484438
C76	C	0.807940	1.064326	0.015562
C77	C	0.362530	0.564331	-0.484395
C78	C	0.862530	1.064331	0.015605
N79	N	0.389452	0.650788	-0.558312
N80	N	0.889452	1.150788	-0.058312
C81	C	0.361772	0.737258	-0.632241
C82	C	0.861772	1.237258	-0.132241
C83	C	0.029455	0.564395	-0.484497
C84	C	0.529455	1.064395	0.015503
C85	C	-0.025148	0.564414	-0.484501
C86	C	0.474852	1.064414	0.015499
C87	C	-0.025906	0.737350	-0.632352
C88	C	0.474094	1.237350	-0.132352
C89	C	0.028698	0.737336	-0.632340
C90	C	0.528698	1.237336	-0.132340
C91	C	0.056378	0.650852	-0.558414
C92	C	0.556378	1.150852	-0.058414
C93	C	0.476436	0.737236	-0.632190
C94	C	0.976436	1.237236	-0.132190
C95	C	0.531041	0.737224	-0.632158
C96	C	1.031041	1.237224	-0.132158
C97	C	0.531794	0.564284	-0.484313
C98	C	1.031794	1.064284	0.015687
C99	C	0.477194	0.564300	-0.484339
C100	C	0.977194	1.064300	0.015661
C101	C	0.449516	0.650781	-0.558288
C102	C	0.949516	1.150781	-0.058288
O103	O	0.391133	0.490856	-0.421525
O104	O	0.891133	0.990856	0.078475
O105	O	0.389693	0.810774	-0.695113
O106	O	0.889693	1.310774	-0.195113
C107	C	0.889053	0.650857	-0.558400
C108	C	1.389053	1.150857	-0.058400
C109	C	0.947167	0.650881	-0.558435
C110	C	1.447167	1.150881	-0.058435
C111	C	0.763907	1.323567	-0.583479
C112	C	1.263907	1.823567	-0.083479
C113	C	0.768641	1.184117	-0.594173
C114	C	1.268641	1.684117	-0.094173
C115	C	0.743106	0.625853	-0.232388
C116	C	1.243106	1.125853	0.267612
C117	C	0.739110	0.614866	-0.092978
C118	C	1.239110	1.114866	0.407022
H119	H	0.552956	0.807643	-0.692347
H120	H	1.052956	1.307643	-0.192347
H121	H	0.705820	1.164761	-0.453161
H122	H	1.205820	1.664761	0.046839
N123	N	0.799720	0.773421	-1.085754
N124	N	1.299720	1.273421	-0.585754
N125	N	0.803126	0.782235	-1.202738
N126	N	1.303126	1.282235	-0.702738
H127	H	0.826635	0.843702	-1.245672
H128	H	1.326635	1.343702	-0.745672
H129	H	0.453907	0.807654	-0.692409
H130	H	0.953907	1.307654	-0.192409
H131	H	-0.047061	0.494012	-0.424300
H132	H	0.452939	0.994012	0.075700
N133	N	0.057729	0.476044	-0.408984
N134	N	0.557729	0.976044	0.091016
N135	N	0.055845	0.360942	-0.426391
N136	N	0.555845	0.860942	0.073609
H137	H	0.075812	0.298540	-0.373063
H138	H	0.575812	0.798540	0.126937
H139	H	0.712570	0.545502	-1.044533
H140	H	1.212570	1.045502	-0.544533
H141	H	0.202356	0.894167	-0.766411
H142	H	0.702356	1.394167	-0.266411
N143	N	0.306973	0.912079	-0.781692
N144	N	0.806973	1.412079	-0.281692
N145	N	0.282243	0.989269	-0.847691
N146	N	0.782243	1.489269	-0.347691
H147	H	0.301651	1.051659	-0.901028
H148	H	0.801651	1.551659	-0.401028
H149	H	0.050612	0.807747	-0.692528
H150	H	0.550612	1.307747	-0.192528
N151	N	0.807451	1.123206	-0.681273
N152	N	1.307451	1.623206	-0.181273
N153	N	0.841943	1.046662	-0.642743
N154	N	1.341943	1.546662	-0.142743
H155	H	0.869355	1.003643	-0.704252
H156	H	1.369355	1.503643	-0.204252
N157	N	-0.054195	0.825679	-0.707856
N158	N	0.445805	1.325679	-0.207856
N159	N	-0.102947	0.825669	-0.707847
N160	N	0.397053	1.325669	-0.207847
H161	H	-0.122929	0.888050	-0.761165
H162	H	0.377071	1.388050	-0.261165
H163	H	0.204505	0.407451	-0.350339
H164	H	0.704505	0.907451	0.149661
H165	H	0.455275	0.493891	-0.424151
H166	H	0.955275	0.993891	0.075849
N167	N	0.309287	0.389492	-0.335014
N168	N	0.809287	0.889492	0.164986
N169	N	0.285241	0.312295	-0.269039
N170	N	0.785241	0.812295	0.230961
H171	H	0.305203	0.249887	-0.215710
H172	H	0.805203	0.749887	0.284290
H173	H	0.554341	0.493885	-0.424118
H174	H	1.054341	0.993885	0.075882
