data_functionalizedCrystal
_audit_creation_method	'MofGen! by Chris Wilmer'
_symmetry_space_group_name_H-M	'P1'
_symmetry_Int_Tables_number	1
_symmetry_cell_setting	triclinic
loop_
_symmetry_equiv_pos_as_xyz
  x,y,z
_cell_length_a	16.625546
_cell_length_b	19.805407
_cell_length_c	16.625548
_cell_angle_alpha	89.994286
_cell_angle_beta	89.988486
_cell_angle_gamma	90.022468
loop_
_atom_site_label
_atom_site_type_symbol
_atom_site_fract_x
_atom_site_fract_y
_atom_site_fract_z
Zn1	Zn	0.321150	-1.034662	0.455918
Zn2	Zn	0.821150	-0.534662	0.955918
Zn3	Zn	0.455949	-1.034612	0.321080
Zn4	Zn	0.955949	-0.534612	0.821080
Zn5	Zn	0.321134	-0.921504	0.321096
Zn6	Zn	0.821134	-0.421504	0.821096
Zn7	Zn	0.455945	-0.921448	0.455868
Zn8	Zn	0.955945	-0.421448	0.955868
O9	O	0.388545	-0.978056	0.388491
O10	O	0.888545	-0.478056	0.888491
O11	O	0.339040	-1.129372	0.438046
O12	O	0.839040	-0.629372	0.938046
O13	O	0.438061	-1.019610	0.208250
O14	O	0.938061	-0.519610	0.708250
O15	O	0.208304	-0.936559	0.339008
O16	O	0.708304	-0.436559	0.839008
O17	O	0.438076	-1.129335	0.338981
O18	O	0.938076	-0.629335	0.838981
O19	O	0.208316	-1.019695	0.438061
O20	O	0.708316	-0.519695	0.938061
O21	O	0.339013	-0.936510	0.208262
O22	O	0.839013	-0.436510	0.708262
O23	O	0.339009	-0.826780	0.338960
O24	O	0.839009	-0.326780	0.838960
O25	O	0.438069	-0.936463	0.568707
O26	O	0.938069	-0.436463	1.068707
O27	O	0.438053	-0.826738	0.437976
O28	O	0.938053	-0.326738	0.937976
O29	O	0.339036	-1.019641	0.568744
O30	O	0.839036	-0.519641	1.068744
O31	O	0.568781	-1.019556	0.338933
O32	O	1.068781	-0.519556	0.838933
O33	O	0.568778	-0.936415	0.437960
O34	O	1.068778	-0.436415	0.937960
C35	C	0.598036	-0.977992	0.388457
C36	C	1.098036	-0.477992	0.888457
C37	C	0.687657	-0.978027	0.388469
C38	C	1.187657	-0.478027	0.888469
C39	C	0.388529	-0.802200	0.388465
C40	C	0.888529	-0.302200	0.888465
C41	C	0.388542	-0.726968	0.388473
C42	C	0.888542	-0.226968	0.888473
C43	C	0.178236	-0.978139	0.388542
C44	C	0.678236	-0.478139	0.888542
C45	C	0.088615	-0.978174	0.388564
C46	C	0.588615	-0.478174	0.888564
C47	C	1.015832	-0.978145	0.388553
C48	C	1.515832	-0.478145	0.888553
C49	C	0.924524	-0.978110	0.388532
C50	C	1.424524	-0.478110	0.888532
C51	C	0.851747	-0.978085	0.388511
C52	C	1.351747	-0.478085	0.888511
C53	C	0.760433	-0.978051	0.388491
C54	C	1.260433	-0.478051	0.888491
C55	C	0.388554	-0.978051	0.598800
C56	C	0.888554	-0.478051	1.098800
C57	C	0.388558	-0.978049	0.688421
C58	C	0.888558	-0.478049	1.188421
C59	C	0.388561	-1.154599	0.388517
C60	C	0.888561	-0.654599	0.888517
C61	C	0.388568	-1.229831	0.388529
C62	C	0.888568	-0.729831	0.888529
C63	C	0.440192	-0.691620	0.439947
C64	C	0.940192	-0.191620	0.939947
C65	C	0.440194	-0.620932	0.439958
C66	C	0.940194	-0.120932	0.939958
C67	C	0.388548	-0.585593	0.388491
C68	C	0.888548	-0.085593	0.888491
C69	C	0.336892	-0.620945	0.337014
C70	C	0.836892	-0.120945	0.837014
C71	C	0.336888	-0.691632	0.337008
C72	C	0.836888	-0.191632	0.837008
C73	C	0.336910	-0.335872	0.337041
C74	C	0.836910	0.164128	0.837041
C75	C	0.336921	-0.265180	0.337050
C76	C	0.836921	0.234820	0.837050
C77	C	0.440216	-0.265171	0.439992
C78	C	0.940216	0.234829	0.939992
C79	C	0.440211	-0.335858	0.439985
C80	C	0.940211	0.164142	0.939985
C81	C	0.388553	-0.371205	0.388512
C82	C	0.888553	0.128795	0.888512
C83	C	0.388551	-0.447854	0.388501
C84	C	0.888551	0.052146	0.888501
C85	C	0.388554	-0.508945	0.388497
C86	C	0.888554	-0.008945	0.888497
C87	C	0.388562	-0.978047	0.761203
C88	C	0.888562	-0.478047	1.261203
C89	C	0.388559	-0.978047	0.852512
C90	C	0.888559	-0.478047	1.352512
C91	C	0.388552	-0.978049	0.925288
C92	C	0.888552	-0.478049	1.425288
C93	C	0.388550	-0.978050	1.016602
C94	C	0.888550	-0.478050	1.516602
C95	C	0.388552	-0.978054	1.179000
C96	C	0.888552	-0.478054	1.679000
C97	C	0.388543	-0.978053	1.089379
C98	C	0.888543	-0.478053	1.589379
H99	H	0.482251	-0.720388	0.481855
H100	H	0.982251	-0.220388	0.981855
Cl101	Cl	0.271966	-0.380299	0.272334
Cl102	Cl	0.771966	0.119701	0.772334
H103	H	0.294838	-0.592166	0.295112
H104	H	0.794838	-0.092166	0.795112
H105	H	0.294860	-0.236409	0.295139
H106	H	0.794860	0.263591	0.795139
Cl107	Cl	0.271951	-0.736070	0.272296
Cl108	Cl	0.771951	-0.236070	0.772296
H109	H	0.482253	-0.592155	0.481873
H110	H	0.982253	-0.092155	0.981873
Cl111	Cl	0.505142	-0.380281	0.504687
Cl112	Cl	1.005142	0.119719	1.004687
H113	H	0.482276	-0.236384	0.481906
H114	H	0.982276	0.263616	0.981906
