data_functionalizedCrystal
_audit_creation_method	'MofGen! by Chris Wilmer'
_symmetry_space_group_name_H-M	'P1'
_symmetry_Int_Tables_number	1
_symmetry_cell_setting	triclinic
loop_
_symmetry_equiv_pos_as_xyz
  x,y,z
_cell_length_a	18.101398
_cell_length_b	19.120786
_cell_length_c	18.101389
_cell_angle_alpha	92.460644
_cell_angle_beta	90.024327
_cell_angle_gamma	92.460164
loop_
_atom_site_label
_atom_site_type_symbol
_atom_site_fract_x
_atom_site_fract_y
_atom_site_fract_z
Zn1	Zn	1.119565	-0.279790	0.406239
Zn2	Zn	1.452899	0.053544	0.739573
Zn3	Zn	1.786232	0.386877	1.072906
Zn4	Zn	1.114191	-0.397230	0.277109
Zn5	Zn	1.447524	-0.063897	0.610443
Zn6	Zn	1.780857	0.269436	0.943776
Zn7	Zn	0.995724	-0.279782	0.282401
Zn8	Zn	1.329058	0.053551	0.615734
Zn9	Zn	1.662391	0.386884	0.949068
Zn10	Zn	0.990406	-0.397200	0.400899
Zn11	Zn	1.323739	-0.063867	0.734233
Zn12	Zn	1.657073	0.269466	1.067566
O13	O	1.054972	-0.338501	0.341662
O14	O	1.388305	-0.005167	0.674996
O15	O	1.721638	0.328166	1.008329
O16	O	1.222484	-0.295384	0.389130
O17	O	1.555818	0.037949	0.722464
O18	O	1.889151	0.371283	1.055797
O19	O	1.098453	-0.381660	0.174178
O20	O	1.431786	-0.048327	0.507511
O21	O	1.765119	0.285006	0.840845
O22	O	1.016627	-0.181494	0.303278
O23	O	1.349961	0.151839	0.636611
O24	O	1.683294	0.485173	0.969944
O25	O	1.218536	-0.381667	0.294259
O26	O	1.551869	-0.048334	0.627593
O27	O	1.885203	0.284999	0.960926
O28	O	1.107612	-0.181499	0.394261
O29	O	1.440946	0.151834	0.727595
O30	O	1.774279	0.485167	1.060928
O31	O	1.011416	-0.295372	0.178066
O32	O	1.344749	0.037962	0.511399
O33	O	1.678083	0.371295	0.844732
O34	O	0.891387	-0.295342	0.298100
O35	O	1.224720	0.037991	0.631433
O36	O	1.558053	0.371324	0.964766
O37	O	1.007563	-0.381616	0.505241
O38	O	1.340896	-0.048283	0.838574
O39	O	1.674229	0.285051	1.171908
O40	O	0.887479	-0.381609	0.385160
O41	O	1.220813	-0.048276	0.718493
O42	O	1.554146	0.285058	1.051827
O43	O	1.102455	-0.295355	0.509164
O44	O	1.435789	0.037978	0.842498
O45	O	1.769122	0.371312	1.175831
O46	O	1.093295	-0.495516	0.289081
O47	O	1.426629	-0.162182	0.622414
O48	O	1.759962	0.171151	0.955748
O49	O	1.002351	-0.495494	0.380029
O50	O	1.335685	-0.162160	0.713362
O51	O	1.669018	0.171173	1.046696
C52	C	0.862562	-0.338472	0.341625
C53	C	1.195896	-0.005139	0.674958
C54	C	1.529229	0.328194	1.008292
C55	C	0.780248	-0.338477	0.341626
C56	C	1.113581	-0.005144	0.674959
C57	C	1.446915	0.328190	1.008292
C58	C	0.481155	-0.338521	0.341686
C59	C	0.814488	-0.005187	0.675019
C60	C	1.147822	0.328146	1.008353
C61	C	0.514926	-0.283973	0.287201
C62	C	0.848260	0.049360	0.620535
C63	C	1.181593	0.382694	0.953868
C64	C	0.600538	-0.284119	0.286952
C65	C	0.933871	0.049214	0.620285
C66	C	1.267204	0.382547	0.953619
C67	C	0.629539	-0.338498	0.341656
C68	C	0.962872	-0.005165	0.674989
C69	C	1.296205	0.328168	1.008323
C70	C	0.595100	-0.412484	0.317000
C71	C	0.928434	-0.079151	0.650333
C72	C	1.261767	0.254183	0.983667
C73	C	0.509469	-0.412181	0.316618
C74	C	0.842802	-0.078848	0.649951
C75	C	1.176135	0.254486	0.983284
C76	C	0.513613	-0.319726	0.420932
C77	C	0.846946	0.013607	0.754265
C78	C	1.180280	0.346940	1.087598
C79	C	0.599338	-0.318078	0.420578
C80	C	0.932671	0.015255	0.753911
C81	C	1.266005	0.348588	1.087245
C82	C	0.713398	-0.338490	0.341640
C83	C	1.046732	-0.005157	0.674974
C84	C	1.380065	0.328176	1.008307
C85	C	0.397295	-0.338534	0.341700
C86	C	0.730628	-0.005200	0.675033
C87	C	1.063962	0.328133	1.008366
C88	C	1.046683	-0.520990	0.333418
C89	C	1.380016	-0.187657	0.666751
C90	C	1.713350	0.145677	1.000084
C91	C	1.043205	-0.599060	0.329915
C92	C	1.376538	-0.265726	0.663249
C93	C	1.709872	0.067607	0.996582
C94	C	1.088907	-0.635679	0.375679
C95	C	1.422240	-0.302346	0.709012
C96	C	1.755574	0.030987	1.042345
C97	C	1.085636	-0.709034	0.372389
C98	C	1.418969	-0.375701	0.705722
C99	C	1.752302	-0.042368	1.039056
C100	C	1.036666	-0.745768	0.323332
C101	C	1.370000	-0.412435	0.656665
C102	C	1.703333	-0.079101	0.989998
C103	C	0.990959	-0.709143	0.277567
C104	C	1.324293	-0.375810	0.610900
C105	C	1.657626	-0.042476	0.944233
C106	C	0.994227	-0.635790	0.280860
C107	C	1.327560	-0.302456	0.614194
C108	C	1.660894	0.030877	0.947527
C109	C	1.024428	-0.967251	0.311018
C110	C	1.357761	-0.633917	0.644352
C111	C	1.691095	-0.300584	0.977685
C112	C	1.021165	-1.040609	0.307726
C113	C	1.354499	-0.707276	0.641060
C114	C	1.687832	-0.373943	0.974393
C115	C	1.115841	-1.040495	0.402550
C116	C	1.449174	-0.707162	0.735883
C117	C	1.782508	-0.373829	1.069217
C118	C	1.119108	-0.967141	0.405836
C119	C	1.452441	-0.633807	0.739170
C120	C	1.785774	-0.300474	1.072503
C121	C	1.073398	-0.930522	0.360074
C122	C	1.406732	-0.597189	0.693407
C123	C	1.740065	-0.263855	1.026741
C124	C	1.033323	-0.820748	0.319966
C125	C	1.366656	-0.487415	0.653300
C126	C	1.699990	-0.154082	0.986633
C127	C	1.076738	-0.855543	0.363443
C128	C	1.410071	-0.522210	0.696777
C129	C	1.743405	-0.188876	1.030110
C130	C	1.248132	-0.338530	0.341700
C131	C	1.581465	-0.005196	0.675034
C132	C	1.914799	0.328137	1.008367
C133	C	1.330446	-0.338542	0.341716
C134	C	1.663779	-0.005209	0.675050
C135	C	1.997112	0.328124	1.008383
C136	C	1.055015	-0.338483	0.534825
C137	C	1.388349	-0.005150	0.868158
C138	C	1.721682	0.328184	1.201492
C139	C	1.055034	-0.338475	0.617140
C140	C	1.388367	-0.005142	0.950473
C141	C	1.721700	0.328191	1.283806
C142	C	1.063313	-0.155299	0.349956
C143	C	1.396646	0.178035	0.683289
C144	C	1.729979	0.511368	1.016622
C145	C	1.066867	-0.077229	0.353490
C146	C	1.400200	0.256104	0.686823
C147	C	1.733534	0.589438	1.020156
C148	C	1.054973	-0.338468	0.149253
C149	C	1.388306	-0.005134	0.482587
C150	C	1.721640	0.328199	0.815920
C151	C	1.055107	-0.338277	0.066948
C152	C	1.388440	-0.004944	0.400282
C153	C	1.721774	0.328389	0.733615
C154	C	1.055083	-0.338344	0.916237
C155	C	1.388416	-0.005010	1.249570
C156	C	1.721749	0.328323	1.582903
C157	C	0.995189	-0.392444	0.882451
C158	C	1.328523	-0.059111	1.215784
C159	C	1.661856	0.274222	1.549117
C160	C	0.995333	-0.392695	0.796821
C161	C	1.328667	-0.059362	1.130154
C162	C	1.662000	0.273971	1.463488
C163	C	1.055058	-0.338409	0.767851
C164	C	1.388391	-0.005076	1.101184
C165	C	1.721724	0.328258	1.434518
C166	C	1.132181	-0.358507	0.798052
C167	C	1.465515	-0.025174	1.131385
C168	C	1.798848	0.308160	1.464718
C169	C	1.131845	-0.358862	0.883681
C170	C	1.465179	-0.025529	1.217014
C171	C	1.798512	0.307805	1.550347
C172	C	1.038537	-0.264025	0.888008
C173	C	1.371870	0.069308	1.221341
C174	C	1.705203	0.402642	1.554674
C175	C	1.036781	-0.264454	0.802337
C176	C	1.370115	0.068879	1.135671
C177	C	1.703448	0.402212	1.469004
C178	C	1.055049	-0.338445	0.683990
C179	C	1.388382	-0.005111	1.017323
C180	C	1.721715	0.328222	1.350657
C181	C	1.055097	-0.338310	1.000098
C182	C	1.388431	-0.004976	1.333431
C183	C	1.721764	0.328357	1.666764
H184	H	0.619090	-0.354914	0.463618
H185	H	0.952423	-0.021581	0.796951
H186	H	1.285757	0.311753	1.130285
H187	H	1.077487	-0.222006	0.782865
H188	H	1.410821	0.111327	1.116198
H189	H	1.744154	0.444661	1.449531
O190	O	0.482009	-0.433288	0.239748
O191	O	0.815342	-0.099955	0.573081
O192	O	1.148675	0.233378	0.906415
H193	H	0.450302	-0.390306	0.217738
H194	H	0.783635	-0.056973	0.551071
H195	H	1.116969	0.276360	0.884405
O196	O	1.134929	-0.748529	0.421751
O197	O	1.468262	-0.415196	0.755084
O198	O	1.801595	-0.081863	1.088417
H199	H	1.171132	-0.781943	0.387144
H200	H	1.504466	-0.448609	0.720477
H201	H	1.837799	-0.115276	1.053811
O202	O	1.171949	-0.927520	0.458724
O203	O	1.505282	-0.594186	0.792057
O204	O	1.838615	-0.260853	1.125391
H205	H	1.203185	-0.965308	0.489989
H206	H	1.536518	-0.631975	0.823322
H207	H	1.869852	-0.298641	1.156656
O208	O	0.488199	-0.249504	0.449773
O209	O	0.821532	0.083830	0.783106
O210	O	1.154866	0.417163	1.116440
H211	H	0.511827	-0.237457	0.505699
H212	H	0.845160	0.095877	0.839033
H213	H	1.178494	0.429210	1.172366
O214	O	0.622504	-0.433970	0.240936
O215	O	0.955838	-0.100637	0.574270
O216	O	1.289171	0.232696	0.907603
H217	H	0.597775	-0.486366	0.224116
H218	H	0.931109	-0.153033	0.557449
H219	H	1.264442	0.180300	0.890782
H220	H	1.005728	-0.447195	0.901511
H221	H	1.339061	-0.113862	1.234844
H222	H	1.672395	0.219471	1.568177
O223	O	1.096367	-0.210626	0.917270
O224	O	1.429700	0.122707	1.250603
O225	O	1.763033	0.456041	1.583937
H226	H	1.136703	-0.236845	0.951754
H227	H	1.470036	0.096488	1.285087
H228	H	1.803369	0.429822	1.618421
O229	O	1.192698	-0.307966	0.773370
O230	O	1.526031	0.025367	1.106704
O231	O	1.859364	0.358701	1.440037
H232	H	1.168389	-0.267892	0.739233
H233	H	1.501722	0.065442	1.072566
H234	H	1.835056	0.398775	1.405899
O235	O	0.938150	-0.748758	0.224643
O236	O	1.271483	-0.415424	0.557976
O237	O	1.604816	-0.082091	0.891310
H238	H	0.943563	-0.805918	0.230031
H239	H	1.276897	-0.472584	0.563364
H240	H	1.610230	-0.139251	0.896697
O241	O	0.919441	-0.376025	0.769716
O242	O	1.252774	-0.042692	1.103050
O243	O	1.586108	0.290641	1.436383
H244	H	0.896837	-0.420353	0.733764
H245	H	1.230170	-0.087020	1.067097
H246	H	1.563504	0.246313	1.400431
H247	H	0.993454	-0.850665	0.280022
H248	H	1.326787	-0.517332	0.613355
H249	H	1.660121	-0.183998	0.946689
O250	O	0.919051	-0.375957	0.910448
O251	O	1.252385	-0.042624	1.243782
O252	O	1.585718	0.290710	1.577115
H253	H	0.923081	-0.329031	0.948748
H254	H	1.256414	0.004303	1.282082
H255	H	1.589747	0.337636	1.615415
H256	H	0.613592	-0.454215	0.355296
H257	H	0.946925	-0.120881	0.688629
H258	H	1.280259	0.212452	1.021963
H259	H	0.980042	-0.249298	0.782688
H260	H	1.313375	0.084035	1.116021
H261	H	1.646708	0.417368	1.449355
O262	O	0.479513	-0.467831	0.366654
O263	O	0.812846	-0.134498	0.699987
O264	O	1.146179	0.198836	1.033320
H265	H	0.526196	-0.494845	0.391010
H266	H	0.859529	-0.161512	0.724343
H267	H	1.192863	0.171821	1.057677
H268	H	0.983451	-0.245715	0.910418
H269	H	1.316784	0.087618	1.243751
H270	H	1.650118	0.420951	1.577085
O271	O	1.151703	-0.429708	0.766455
O272	O	1.485037	-0.096375	1.099788
O273	O	1.818370	0.236958	1.433122
H274	H	1.106602	-0.450896	0.729246
H275	H	1.439935	-0.117562	1.062579
H276	H	1.773269	0.215771	1.395913
H277	H	1.005987	-0.447783	0.773858
H278	H	1.339321	-0.114449	1.107191
H279	H	1.672654	0.218884	1.440525
O280	O	1.150927	-0.430828	0.906916
O281	O	1.484261	-0.097494	1.240249
O282	O	1.817594	0.235839	1.573582
H283	H	1.206578	-0.443243	0.885674
H284	H	1.539911	-0.109910	1.219007
H285	H	1.873244	0.223423	1.552340
O286	O	0.631680	-0.211443	0.307905
O287	O	0.965013	0.121890	0.641238
O288	O	1.298346	0.455224	0.974572
H289	H	0.585586	-0.175875	0.318307
H290	H	0.918920	0.157458	0.651640
H291	H	1.252253	0.490792	0.984973
H292	H	0.496825	-0.228942	0.302899
H293	H	0.830159	0.104392	0.636232
H294	H	1.163492	0.437725	0.969566
O295	O	0.485663	-0.300258	0.209964
O296	O	0.818996	0.033075	0.543297
O297	O	1.152330	0.366408	0.876630
H298	H	0.424532	-0.297575	0.210024
H299	H	0.757865	0.035758	0.543358
H300	H	1.091199	0.369092	0.876691
H301	H	0.622125	-0.263633	0.439109
H302	H	0.955459	0.069700	0.772443
H303	H	1.288792	0.403033	1.105776
H304	H	0.981285	-1.070516	0.267777
H305	H	1.314618	-0.737183	0.601111
H306	H	1.647951	-0.403849	0.934444
O307	O	0.626905	-0.300543	0.209256
O308	O	0.960238	0.032791	0.542590
O309	O	1.293572	0.366124	0.875923
H310	H	0.578486	-0.308423	0.171717
H311	H	0.911819	0.024910	0.505050
H312	H	1.245153	0.358243	0.838384
H313	H	1.116606	-0.825632	0.403389
H314	H	1.449940	-0.492299	0.736722
H315	H	1.783273	-0.158966	1.070055
O316	O	0.484417	-0.372344	0.474769
O317	O	0.817750	-0.039011	0.808102
O318	O	1.151084	0.294322	1.141435
H319	H	0.446971	-0.411694	0.445276
H320	H	0.780304	-0.078361	0.778610
H321	H	1.113637	0.254973	1.111943
H322	H	1.153054	-1.070318	0.439808
H323	H	1.486388	-0.736985	0.773141
H324	H	1.819721	-0.403651	1.106475
O325	O	0.975145	-0.927758	0.261648
O326	O	1.308478	-0.594425	0.594981
O327	O	1.641811	-0.261092	0.928315
H328	H	0.940556	-0.965628	0.226974
H329	H	1.273889	-0.632294	0.560307
H330	H	1.607222	-0.298961	0.893640
O331	O	1.141731	-0.596060	0.428584
O332	O	1.475064	-0.262727	0.761917
O333	O	1.808398	0.070607	1.095251
H334	H	1.172958	-0.633851	0.459855
H335	H	1.506291	-0.300517	0.793189
H336	H	1.839624	0.032816	1.126522
H337	H	1.177804	-0.321168	0.906119
H338	H	1.511137	0.012165	1.239452
H339	H	1.844471	0.345498	1.572785
H340	H	0.957011	-0.605975	0.243596
H341	H	1.290344	-0.272641	0.576929
H342	H	1.623678	0.060692	0.910263
