data_functionalizedCrystal
_audit_creation_method	'MofGen! by Chris Wilmer'
_symmetry_space_group_name_H-M	'P1'
_symmetry_Int_Tables_number	1
_symmetry_cell_setting	triclinic
loop_
_symmetry_equiv_pos_as_xyz
  x,y,z
_cell_length_a	25.639242
_cell_length_b	29.839131
_cell_length_c	25.639233
_cell_angle_alpha	89.972761
_cell_angle_beta	89.977834
_cell_angle_gamma	90.030754
loop_
_atom_site_label
_atom_site_type_symbol
_atom_site_fract_x
_atom_site_fract_y
_atom_site_fract_z
Zn1	Zn	0.799238	-0.178962	-0.295711
Zn2	Zn	1.132571	0.154372	0.037622
Zn3	Zn	1.465904	0.487705	0.370955
Zn4	Zn	0.799166	-0.254076	-0.208263
Zn5	Zn	1.132500	0.079257	0.125071
Zn6	Zn	1.465833	0.412591	0.458404
Zn7	Zn	0.711814	-0.178955	-0.208275
Zn8	Zn	1.045147	0.154378	0.125058
Zn9	Zn	1.378481	0.487712	0.458391
Zn10	Zn	0.711764	-0.254059	-0.295653
Zn11	Zn	1.045098	0.079274	0.037681
Zn12	Zn	1.378431	0.412607	0.371014
O13	O	0.755496	-0.216513	-0.251976
O14	O	1.088829	0.116820	0.081358
O15	O	1.422162	0.450154	0.414691
O16	O	0.872393	-0.188935	-0.284130
O17	O	1.205727	0.144398	0.049203
O18	O	1.539060	0.477731	0.382536
O19	O	0.787570	-0.244115	-0.135099
O20	O	1.120903	0.089218	0.198234
O21	O	1.454236	0.422551	0.531567
O22	O	0.723461	-0.116089	-0.219904
O23	O	1.056795	0.217245	0.113429
O24	O	1.390128	0.550578	0.446763
O25	O	0.872341	-0.244122	-0.219882
O26	O	1.205674	0.089212	0.113451
O27	O	1.539008	0.422545	0.446784
O28	O	0.787691	-0.116094	-0.284143
O29	O	1.121025	0.217240	0.049191
O30	O	1.454358	0.550573	0.382524
O31	O	0.723392	-0.188924	-0.135109
O32	O	1.056726	0.144409	0.198225
O33	O	1.390059	0.477742	0.531558
O34	O	0.638642	-0.188908	-0.219847
O35	O	0.971975	0.144425	0.113486
O36	O	1.305309	0.477759	0.446820
O37	O	0.723377	-0.244093	-0.368826
O38	O	1.056710	0.089240	-0.035492
O39	O	1.390044	0.422573	0.297841
O40	O	0.638606	-0.244087	-0.284043
O41	O	0.971939	0.089246	0.049291
O42	O	1.305272	0.422580	0.382624
O43	O	0.787643	-0.188919	-0.368869
O44	O	1.120976	0.144414	-0.035535
O45	O	1.454310	0.477747	0.297798
O46	O	0.787522	-0.316941	-0.219825
O47	O	1.120855	0.016392	0.113508
O48	O	1.454188	0.349726	0.446841
O49	O	0.723308	-0.316929	-0.284030
O50	O	1.056641	0.016405	0.049303
O51	O	1.389974	0.349738	0.382636
C52	C	0.619653	-0.216495	-0.251940
C53	C	0.952986	0.116838	0.081393
C54	C	1.286320	0.450171	0.414727
C55	C	0.561539	-0.216499	-0.251937
C56	C	0.894872	0.116835	0.081396
C57	C	1.228206	0.450168	0.414729
C58	C	0.755416	-0.333236	-0.251931
C59	C	1.088749	0.000098	0.081402
C60	C	1.422082	0.333431	0.414735
C61	C	0.755430	-0.383170	-0.251930
C62	C	1.088763	-0.049837	0.081403
C63	C	1.422096	0.283497	0.414737
C64	C	0.201166	-0.245293	-0.285371
C65	C	0.534499	0.088041	0.047963
C66	C	0.867832	0.421374	0.381296
C67	C	0.146561	-0.245295	-0.285379
C68	C	0.479895	0.088038	0.047955
C69	C	0.813228	0.421371	0.381288
O70	O	0.118316	-0.269755	-0.313775
O71	O	0.451649	0.063578	0.019558
O72	O	0.784983	0.396911	0.352892
N73	N	0.119256	-0.216525	-0.252010
N74	N	0.452590	0.116808	0.081324
N75	N	0.785923	0.450141	0.414657
C76	C	0.146559	-0.187748	-0.218634
C77	C	0.479892	0.145586	0.114699
C78	C	0.813225	0.478919	0.448033
O79	O	0.118320	-0.163276	-0.190252
O80	O	0.451653	0.170057	0.143081
O81	O	0.784986	0.503390	0.476415
C82	C	0.201162	-0.187743	-0.218629
C83	C	0.534495	0.145590	0.114705
C84	C	0.867829	0.478924	0.448038
C85	C	0.228464	-0.216518	-0.251996
C86	C	0.561797	0.116815	0.081337
C87	C	0.895131	0.450149	0.414670
C88	C	0.228468	-0.274065	-0.318736
C89	C	0.561801	0.059268	0.014598
C90	C	0.895135	0.392602	0.347931
C91	C	0.283069	-0.274063	-0.318727
C92	C	0.616402	0.059270	0.014607
C93	C	0.949735	0.392604	0.347940
C94	C	0.310367	-0.245288	-0.285352
C95	C	0.643700	0.088045	0.047981
C96	C	0.977034	0.421379	0.381314
C97	C	0.283065	-0.216516	-0.251987
C98	C	0.616398	0.116818	0.081346
C99	C	0.949731	0.450151	0.414680
C100	C	0.228463	-0.158963	-0.185256
C101	C	0.561796	0.174370	0.148077
C102	C	0.895130	0.507704	0.481411
C103	C	0.283070	-0.158961	-0.185254
C104	C	0.616403	0.174373	0.148080
C105	C	0.949737	0.507706	0.481413
C106	C	0.310372	-0.187736	-0.218621
C107	C	0.643706	0.145598	0.114712
C108	C	0.977039	0.478931	0.448045
C109	C	0.364964	-0.187739	-0.218604
C110	C	0.698297	0.145595	0.114730
C111	C	1.031630	0.478928	0.448063
N112	N	0.392269	-0.216509	-0.251973
N113	N	0.725602	0.116825	0.081360
N114	N	1.058935	0.450158	0.414694
C115	C	0.364970	-0.245283	-0.285347
C116	C	0.698304	0.088050	0.047986
C117	C	1.031637	0.421383	0.381319
C118	C	0.031888	-0.187759	-0.218648
C119	C	0.365221	0.145574	0.114685
C120	C	0.698555	0.478908	0.448019
C121	C	-0.022714	-0.187766	-0.218650
C122	C	0.310619	0.145568	0.114683
C123	C	0.643952	0.478901	0.448016
C124	C	-0.022708	-0.245313	-0.285396
C125	C	0.310626	0.088020	0.047937
C126	C	0.643959	0.421354	0.381271
C127	C	0.031896	-0.245308	-0.285391
C128	C	0.365229	0.088025	0.047943
C129	C	0.698562	0.421358	0.381276
C130	C	0.059193	-0.216529	-0.252017
C131	C	0.392526	0.116804	0.081316
C132	C	0.725860	0.450138	0.414650
C133	C	0.479635	-0.245277	-0.285325
C134	C	0.812969	0.088057	0.048008
C135	C	1.146302	0.421390	0.381341
C136	C	0.534241	-0.245273	-0.285312
C137	C	0.867574	0.088060	0.048022
C138	C	1.200907	0.421393	0.381355
C139	C	0.534229	-0.187724	-0.218568
C140	C	0.867563	0.145609	0.114765
C141	C	1.200896	0.478942	0.448099
C142	C	0.479629	-0.187729	-0.218580
C143	C	0.812962	0.145604	0.114754
C144	C	1.146295	0.478937	0.448087
C145	C	0.452333	-0.216507	-0.251962
C146	C	0.785666	0.116826	0.081371
C147	C	1.119000	0.450160	0.414704
O148	O	0.393244	-0.163290	-0.190224
O149	O	0.726577	0.170043	0.143110
O150	O	1.059910	0.503377	0.476443
O151	O	0.393216	-0.269746	-0.313729
O152	O	0.726549	0.063587	0.019604
O153	O	1.059883	0.396920	0.352937
C154	C	0.788933	-0.692781	-0.285472
C155	C	1.122266	-0.359448	0.047861
C156	C	1.455599	-0.026114	0.381194
C157	C	0.788989	-0.880454	-0.285504
C158	C	1.122323	-0.547121	0.047830
C159	C	1.455656	-0.213787	0.381163
O160	O	0.817397	-0.904691	-0.313990
O161	O	1.150730	-0.571358	0.019343
O162	O	1.484064	-0.238025	0.352677
N163	N	0.755584	-0.903955	-0.252034
N164	N	1.088918	-0.570622	0.081300
N165	N	1.422251	-0.237288	0.414633
C166	C	0.722160	-0.880535	-0.218556
C167	C	1.055494	-0.547202	0.114778
C168	C	1.388827	-0.213868	0.448111
O169	O	0.693745	-0.904830	-0.190092
O170	O	1.027078	-0.571497	0.143242
O171	O	1.360411	-0.238164	0.476575
C172	C	0.722101	-0.692863	-0.218527
C173	C	1.055435	-0.359529	0.114806
C174	C	1.388768	-0.026196	0.448139
C175	C	0.755512	-0.669364	-0.251996
C176	C	1.088846	-0.336031	0.081338
C177	C	1.422179	-0.002698	0.414671
C178	C	0.822341	-0.669282	-0.318939
C179	C	1.155674	-0.335949	0.014395
C180	C	1.489007	-0.002616	0.347728
C181	C	0.822328	-0.622367	-0.318928
C182	C	1.155661	-0.289034	0.014405
C183	C	1.488995	0.044300	0.347738
C184	C	0.788908	-0.598950	-0.285452
C185	C	1.122241	-0.265617	0.047881
C186	C	1.455574	0.067717	0.381215
C187	C	0.755500	-0.622449	-0.251986
C188	C	1.088833	-0.289115	0.081348
C189	C	1.422166	0.044218	0.414681
C190	C	0.688675	-0.669444	-0.185052
C191	C	1.022008	-0.336110	0.148281
C192	C	1.355342	-0.002777	0.481614
C193	C	0.688662	-0.622522	-0.185049
C194	C	1.021995	-0.289189	0.148284
C195	C	1.355329	0.044144	0.481618
C196	C	0.722073	-0.599024	-0.218518
C197	C	1.055407	-0.265691	0.114816
C198	C	1.388740	0.067643	0.448149
C199	C	0.722067	-0.552116	-0.218499
C200	C	1.055400	-0.218783	0.114834
C201	C	1.388734	0.114550	0.448168
N202	N	0.755472	-0.528615	-0.251969
N203	N	1.088805	-0.195282	0.081364
N204	N	1.422139	0.138051	0.414698
C205	C	0.788892	-0.552032	-0.285446
C206	C	1.122226	-0.218699	0.047888
C207	C	1.455559	0.114634	0.381221
C208	C	0.722194	-0.979066	-0.218572
C209	C	1.055528	-0.645732	0.114761
C210	C	1.388861	-0.312399	0.448095
C211	C	0.722210	-1.025983	-0.218578
C212	C	1.055543	-0.692650	0.114755
C213	C	1.388876	-0.359317	0.448088
C214	C	0.789038	-1.025899	-0.285527
C215	C	1.122372	-0.692566	0.047806
C216	C	1.455705	-0.359233	0.381139
C217	C	0.789025	-0.978981	-0.285518
C218	C	1.122359	-0.645647	0.047815
C219	C	1.455692	-0.312314	0.381149
C220	C	0.755599	-0.955565	-0.252042
C221	C	1.088933	-0.622231	0.081291
C222	C	1.422266	-0.288898	0.414624
C223	C	0.788864	-0.453506	-0.285421
C224	C	1.122197	-0.120173	0.047912
C225	C	1.455531	0.213160	0.381245
C226	C	0.788850	-0.406587	-0.285407
C227	C	1.122183	-0.073254	0.047927
C228	C	1.455517	0.260080	0.381260
C229	C	0.722020	-0.406675	-0.218460
C230	C	1.055353	-0.073342	0.114874
C231	C	1.388686	0.259992	0.448207
C232	C	0.722035	-0.453591	-0.218472
C233	C	1.055369	-0.120257	0.114861
C234	C	1.388702	0.213076	0.448194
C235	C	0.755459	-0.477005	-0.251957
C236	C	1.088792	-0.143672	0.081376
C237	C	1.422126	0.189662	0.414709
O238	O	0.693670	-0.527850	-0.190032
O239	O	1.027003	-0.194517	0.143301
O240	O	1.360337	0.138816	0.476635
O241	O	0.817296	-0.527729	-0.313913
O242	O	1.150629	-0.194396	0.019420
O243	O	1.483962	0.138938	0.352753
C244	C	0.788945	-0.739696	-0.285483
C245	C	1.122279	-0.406363	0.047851
C246	C	1.455612	-0.073030	0.381184
C247	C	0.755537	-0.763195	-0.252016
C248	C	1.088871	-0.429862	0.081317
C249	C	1.422204	-0.096528	0.414650
C250	C	0.722117	-0.739778	-0.218540
C251	C	1.055450	-0.406445	0.114794
C252	C	1.388784	-0.073112	0.448127
C253	C	0.755553	-0.810113	-0.252023
C254	C	1.088886	-0.476780	0.081311
C255	C	1.422219	-0.143446	0.414644
C256	C	0.788973	-0.833530	-0.285499
C257	C	1.122306	-0.500196	0.047834
C258	C	1.455640	-0.166863	0.381168
C259	C	0.822378	-0.810029	-0.318969
C260	C	1.155711	-0.476695	0.014364
C261	C	1.489045	-0.143362	0.347697
C262	C	0.822366	-0.763113	-0.318959
C263	C	1.155699	-0.429780	0.014374
C264	C	1.489032	-0.096447	0.347708
C265	C	0.688712	-0.763279	-0.185070
C266	C	1.022045	-0.429946	0.148264
C267	C	1.355378	-0.096613	0.481597
C268	C	0.688727	-0.810195	-0.185082
C269	C	1.022061	-0.476861	0.148251
C270	C	1.355394	-0.143528	0.481585
C271	C	0.722148	-0.833612	-0.218559
C272	C	1.055481	-0.500278	0.114775
C273	C	1.388815	-0.166945	0.448108
C274	C	0.891869	-0.216531	-0.252011
C275	C	1.225202	0.116802	0.081322
C276	C	1.558535	0.450136	0.414655
C277	C	0.949983	-0.216539	-0.252027
C278	C	1.283316	0.116794	0.081307
C279	C	1.616649	0.450128	0.414640
C280	C	0.755512	-0.216505	-0.388349
C281	C	1.088846	0.116828	-0.055015
C282	C	1.422179	0.450162	0.278318
C283	C	0.755520	-0.216502	-0.446463
C284	C	1.088853	0.116832	-0.113129
C285	C	1.422186	0.450165	0.220204
C286	C	0.755590	-0.099335	-0.252031
C287	C	1.088923	0.233999	0.081302
C288	C	1.422257	0.567332	0.414635
C289	C	0.755630	-0.049400	-0.252055
C290	C	1.088963	0.283933	0.081278
C291	C	1.422297	0.617266	0.414612
C292	C	0.789025	-0.187687	-0.806854
C293	C	1.122359	0.145646	-0.473521
C294	C	1.455692	0.478979	-0.140187
C295	C	0.789032	-0.187675	-0.861458
C296	C	1.122365	0.145658	-0.528125
C297	C	1.455699	0.478992	-0.194792
O298	O	0.817478	-0.163229	-0.889719
O299	O	1.150811	0.170105	-0.556386
O300	O	1.484144	0.503438	-0.223052
N301	N	0.755577	-0.216396	-0.888745
N302	N	1.088911	0.116937	-0.555412
N303	N	1.422244	0.450270	-0.222079
C304	C	0.722110	-0.245129	-0.861425
C305	C	1.055443	0.088204	-0.528092
C306	C	1.388777	0.421538	-0.194759
O307	O	0.693655	-0.269558	-0.889649
O308	O	1.026988	0.063776	-0.556316
O309	O	1.360321	0.397109	-0.222982
C310	C	0.722101	-0.245139	-0.806822
C311	C	1.055435	0.088194	-0.473489
C312	C	1.388768	0.421528	-0.140155
C313	C	0.755562	-0.216419	-0.779538
C314	C	1.088895	0.116915	-0.446204
C315	C	1.422229	0.450248	-0.112871
C316	C	0.822483	-0.158969	-0.779570
C317	C	1.155816	0.174364	-0.446236
C318	C	1.489150	0.507698	-0.112903
C319	C	0.822477	-0.158982	-0.724969
C320	C	1.155810	0.174351	-0.391636
C321	C	1.489144	0.507685	-0.058303
C322	C	0.789014	-0.187714	-0.697653
C323	C	1.122347	0.145620	-0.364320
C324	C	1.455680	0.478953	-0.030986
C325	C	0.755556	-0.216432	-0.724937
C326	C	1.088890	0.116902	-0.391604
C327	C	1.422223	0.450235	-0.058270
C328	C	0.688632	-0.273869	-0.779503
C329	C	1.021965	0.059464	-0.446169
C330	C	1.355299	0.392798	-0.112836
C331	C	0.688626	-0.273876	-0.724896
C332	C	1.021959	0.059457	-0.391562
C333	C	1.355293	0.392791	-0.058229
C334	C	0.722087	-0.245156	-0.697611
C335	C	1.055420	0.088177	-0.364278
C336	C	1.388753	0.421511	-0.030945
C337	C	0.722087	-0.245176	-0.643020
C338	C	1.055420	0.088157	-0.309687
C339	C	1.388754	0.421490	0.023646
N340	N	0.755542	-0.216455	-0.615733
N341	N	1.088875	0.116879	-0.282400
N342	N	1.422208	0.450212	0.050933
C343	C	0.789005	-0.187723	-0.643050
C344	C	1.122338	0.145610	-0.309716
C345	C	1.455672	0.478943	0.023617
C346	C	0.722130	-0.245106	-0.976096
C347	C	1.055464	0.088228	-0.642763
C348	C	1.388797	0.421561	-0.309429
C349	C	0.722141	-0.245099	-1.030698
C350	C	1.055475	0.088235	-0.697365
C351	C	1.388808	0.421568	-0.364032
C352	C	0.789063	-0.187644	-1.030728
C353	C	1.122396	0.145690	-0.697394
C354	C	1.455729	0.479023	-0.364061
C355	C	0.789054	-0.187653	-0.976124
C356	C	1.122387	0.145680	-0.642791
C357	C	1.455720	0.479013	-0.309458
C358	C	0.755585	-0.216384	-0.948809
C359	C	1.088918	0.116949	-0.615476
C360	C	1.422252	0.450282	-0.282142
C361	C	0.788990	-0.187753	-0.528384
C362	C	1.122324	0.145580	-0.195051
C363	C	1.455657	0.478913	0.138282
C364	C	0.788983	-0.187770	-0.473779
C365	C	1.122316	0.145563	-0.140446
C366	C	1.455650	0.478896	0.192888
C367	C	0.722060	-0.245223	-0.473754
C368	C	1.055393	0.088110	-0.140421
C369	C	1.388727	0.421443	0.192912
C370	C	0.722069	-0.245208	-0.528355
C371	C	1.055402	0.088125	-0.195022
C372	C	1.388736	0.421458	0.138312
C373	C	0.755536	-0.216470	-0.555669
C374	C	1.088869	0.116864	-0.222335
C375	C	1.422203	0.450197	0.110998
O376	O	0.693654	-0.269609	-0.614725
O377	O	1.026988	0.063725	-0.281392
O378	O	1.360321	0.397058	0.051942
O379	O	0.817451	-0.163295	-0.614819
O380	O	1.150784	0.170039	-0.281486
O381	O	1.484118	0.503372	0.051848
C382	C	0.755509	-0.216488	-0.116133
C383	C	1.088842	0.116845	0.217200
C384	C	1.422176	0.450178	0.550534
C385	C	0.755603	-0.216365	-0.058019
C386	C	1.088936	0.116968	0.275314
C387	C	1.422270	0.450301	0.608647
H388	H	0.556468	-0.268707	-0.312484
H389	H	0.889801	0.064626	0.020849
H390	H	1.223134	0.397960	0.354183
H391	H	-0.044944	-0.268742	-0.312573
H392	H	0.288389	0.064592	0.020760
H393	H	0.621723	0.397925	0.354094
H394	H	0.816251	-1.044973	-0.312785
H395	H	1.149584	-0.711640	0.020549
H396	H	1.482918	-0.378307	0.353882
H397	H	0.816059	-0.387456	-0.312661
H398	H	1.149392	-0.054122	0.020673
H399	H	1.482726	0.279211	0.354006
O400	O	0.689572	-0.383854	-0.185992
O401	O	1.022906	-0.050520	0.147341
O402	O	1.356239	0.282813	0.480674
C403	C	0.696737	-0.337405	-0.193157
C404	C	1.030070	-0.004072	0.140176
C405	C	1.363404	0.329262	0.473509
H406	H	0.713836	-0.330969	-0.233523
H407	H	1.047169	0.002364	0.099810
H408	H	1.380503	0.335698	0.433144
H409	H	0.724595	-0.324087	-0.162171
H410	H	1.057929	0.009246	0.171162
H411	H	1.391262	0.342579	0.504496
C412	C	0.622832	-0.321256	-0.138736
C413	C	0.956166	0.012077	0.194597
C414	C	1.289499	0.345410	0.527931
C415	C	0.643830	-0.313351	-0.188316
C416	C	0.977163	0.019982	0.145018
C417	C	1.310496	0.353316	0.478351
H418	H	0.590198	-0.306418	-0.135747
H419	H	0.923531	0.026916	0.197586
H420	H	1.256864	0.360249	0.530919
H421	H	0.618006	-0.352550	-0.133907
H422	H	0.951340	-0.019216	0.199426
H423	H	1.284673	0.314117	0.532760
H424	H	0.646053	-0.310158	-0.112920
H425	H	0.979386	0.023175	0.220414
H426	H	1.312719	0.356509	0.553747
H427	H	0.620613	-0.324454	-0.214131
H428	H	0.953946	0.008879	0.119203
H429	H	1.287279	0.342213	0.452536
H430	H	0.648651	-0.282059	-0.193149
H431	H	0.981984	0.051274	0.140184
H432	H	1.315317	0.384608	0.473518
O433	O	0.821379	-0.476178	-0.317967
O434	O	1.154712	-0.142844	0.015367
O435	O	1.488045	0.190489	0.348700
C436	C	0.850848	-0.445368	-0.347510
C437	C	1.184181	-0.112035	-0.014176
C438	C	1.517514	0.221298	0.319157
H439	H	0.852662	-0.411937	-0.326083
H440	H	1.185995	-0.078604	0.007250
H441	H	1.519328	0.254729	0.340583
H442	H	0.831669	-0.440365	-0.387195
H443	H	1.165003	-0.107032	-0.053862
H444	H	1.498336	0.226302	0.279472
C445	C	0.904267	-0.504694	-0.381433
C446	C	1.237600	-0.171360	-0.048100
C447	C	1.570934	0.161973	0.285234
C448	C	0.906499	-0.463634	-0.355114
C449	C	1.239832	-0.130301	-0.021781
C450	C	1.573165	0.203033	0.311552
H451	H	0.938595	-0.515961	-0.386126
H452	H	1.271928	-0.182628	-0.052793
H453	H	1.605261	0.150706	0.280540
H454	H	0.884412	-0.525451	-0.361531
H455	H	1.217745	-0.192117	-0.028198
H456	H	1.551079	0.141216	0.305136
H457	H	0.888283	-0.500519	-0.414501
H458	H	1.221616	-0.167185	-0.081168
H459	H	1.554949	0.166148	0.252166
H460	H	0.922477	-0.467811	-0.322045
H461	H	1.255810	-0.134477	0.011289
H462	H	1.589143	0.198856	0.344622
H463	H	0.926358	-0.442878	-0.375011
H464	H	1.259691	-0.109545	-0.041678
H465	H	1.593025	0.223789	0.291656
H466	H	0.849592	-0.829103	-0.346225
H467	H	1.182925	-0.495770	-0.012892
H468	H	1.516259	-0.162436	0.320441
O469	O	0.453206	-0.273273	-0.317770
O470	O	0.786539	0.060061	0.015563
O471	O	1.119873	0.393394	0.348897
C472	C	0.489022	-0.298656	-0.347223
C473	C	0.822355	0.034678	-0.013890
C474	C	1.155688	0.368011	0.319443
H475	H	0.527930	-0.300179	-0.325793
H476	H	0.861263	0.033155	0.007541
H477	H	1.194596	0.366488	0.340874
H478	H	0.494863	-0.282253	-0.386968
H479	H	0.828196	0.051080	-0.053634
H480	H	1.161530	0.384413	0.279699
C481	C	0.419908	-0.344611	-0.380978
C482	C	0.753242	-0.011278	-0.047645
C483	C	1.086575	0.322055	0.285688
C484	C	0.467694	-0.346485	-0.354655
C485	C	0.801028	-0.013152	-0.021322
C486	C	1.134361	0.320182	0.312012
H487	H	0.406752	-0.374114	-0.385565
H488	H	0.740086	-0.040781	-0.052232
H489	H	1.073419	0.292552	0.281102
H490	H	0.395778	-0.327510	-0.361137
H491	H	0.729111	0.005824	-0.027803
H492	H	1.062445	0.339157	0.305530
H493	H	0.424783	-0.330941	-0.414096
H494	H	0.758116	0.002392	-0.080763
H495	H	1.091449	0.335726	0.252571
H496	H	0.462818	-0.360150	-0.321536
H497	H	0.796152	-0.026817	0.011798
H498	H	1.129485	0.306516	0.345131
H499	H	0.491823	-0.363590	-0.374491
H500	H	0.825157	-0.030257	-0.041158
H501	H	1.158490	0.303076	0.292176
H502	H	0.661521	-0.829323	-0.157823
H503	H	0.994854	-0.495990	0.175510
H504	H	1.328188	-0.162657	0.508844
H505	H	0.849733	-0.135570	-0.801805
H506	H	1.183066	0.197763	-0.468472
H507	H	1.516400	0.531097	-0.135138
H508	H	0.661496	-0.744217	-0.157809
H509	H	0.994829	-0.410884	0.175524
H510	H	1.328163	-0.077550	0.508857
O511	O	0.560731	-0.159824	-0.186074
O512	O	0.894064	0.173510	0.147259
O513	O	1.227398	0.506843	0.480592
C514	C	0.547351	-0.169565	-0.133942
C515	C	0.880684	0.163768	0.199391
C516	C	1.214018	0.497101	0.532725
H517	H	0.532313	-0.205451	-0.131219
H518	H	0.865647	0.127883	0.202114
H519	H	1.198980	0.461216	0.535448
H520	H	0.515668	-0.145459	-0.120331
H521	H	0.849002	0.187874	0.213002
H522	H	1.182335	0.521208	0.546335
C523	C	0.614317	-0.120221	-0.102405
C524	C	0.947650	0.213113	0.230928
C525	C	1.280983	0.546446	0.564262
C526	C	0.595851	-0.164297	-0.099060
C527	C	0.929185	0.169036	0.234274
C528	C	1.262518	0.502370	0.567607
H529	H	0.644233	-0.116969	-0.080887
H530	H	0.977566	0.216364	0.252446
H531	H	1.310899	0.549698	0.585780
H532	H	0.623330	-0.113656	-0.137527
H533	H	0.956663	0.219677	0.195806
H534	H	1.289996	0.553011	0.529139
H535	H	0.587910	-0.100137	-0.091063
H536	H	0.921243	0.233196	0.242270
H537	H	1.254576	0.566529	0.575603
H538	H	0.622255	-0.184379	-0.110407
H539	H	0.955589	0.148954	0.222926
H540	H	1.288922	0.482288	0.556259
H541	H	0.586844	-0.170865	-0.063938
H542	H	0.920177	0.162468	0.269395
H543	H	1.253510	0.495802	0.602728
H544	H	0.206247	-0.297497	-0.345916
H545	H	0.539581	0.035836	-0.012583
H546	H	0.872914	0.369170	0.320751
O547	O	0.656176	-0.301854	-0.698383
O548	O	0.989509	0.031479	-0.365050
O549	O	1.322842	0.364813	-0.031716
C550	C	0.667563	-0.346626	-0.711731
C551	C	1.000896	-0.013293	-0.378398
C552	C	1.334230	0.320041	-0.045064
H553	H	0.709331	-0.348892	-0.726756
H554	H	1.042664	-0.015559	-0.393423
H555	H	1.375998	0.317775	-0.060089
H556	H	0.639525	-0.358359	-0.743414
H557	H	0.972858	-0.025026	-0.410081
H558	H	1.306191	0.308307	-0.076747
C559	C	0.610157	-0.373838	-0.644764
C560	C	0.943490	-0.040505	-0.311430
C561	C	1.276823	0.292829	0.021903
C562	C	0.661458	-0.376622	-0.663213
C563	C	0.994792	-0.043289	-0.329880
C564	C	1.328125	0.290045	0.003453
H565	H	0.606389	-0.392342	-0.614837
H566	H	0.939722	-0.059009	-0.281504
H567	H	1.273055	0.274325	0.051830
H568	H	0.602483	-0.343675	-0.635772
H569	H	0.935816	-0.010341	-0.302439
H570	H	1.269150	0.322992	0.030895
H571	H	0.586797	-0.383615	-0.671171
H572	H	0.920130	-0.050282	-0.337837
H573	H	1.253464	0.283052	-0.004504
H574	H	0.684816	-0.366840	-0.636809
H575	H	1.018149	-0.033506	-0.303476
H576	H	1.351483	0.299827	0.029858
H577	H	0.669136	-0.406785	-0.672200
H578	H	1.002469	-0.073451	-0.338866
H579	H	1.335803	0.259882	-0.005533
H580	H	0.694875	-0.268504	-0.953859
H581	H	1.028209	0.064829	-0.620526
H582	H	1.361542	0.398162	-0.287192
H583	H	0.457398	-0.164299	-0.191408
H584	H	0.790731	0.169034	0.141925
H585	H	1.124065	0.502367	0.475259
H586	H	0.816300	-0.164266	-0.953913
H587	H	1.149633	0.169067	-0.620580
H588	H	1.482966	0.502401	-0.287246
H589	H	0.816309	-0.164248	-1.052978
H590	H	1.149642	0.169086	-0.719645
H591	H	1.482976	0.502419	-0.386312
H592	H	-0.044939	-0.164338	-0.191474
H593	H	0.288394	0.168995	0.141860
H594	H	0.621727	0.502328	0.475193
H595	H	0.305293	-0.297494	-0.345899
H596	H	0.638627	0.035840	-0.012566
H597	H	0.971960	0.369173	0.320768
H598	H	0.849723	-0.135594	-0.702759
H599	H	1.183057	0.197739	-0.369426
H600	H	1.516390	0.531072	-0.036093
H601	H	0.661441	-0.603459	-0.157790
H602	H	0.994774	-0.270126	0.175544
H603	H	1.328108	0.063207	0.508877
O604	O	0.656203	-0.301820	-0.806017
O605	O	0.989537	0.031514	-0.472684
O606	O	1.322870	0.364847	-0.139351
C607	C	0.685945	-0.330833	-0.837608
C608	C	1.019278	0.002500	-0.504275
C609	C	1.352612	0.335834	-0.170942
H610	H	0.727123	-0.333612	-0.821171
H611	H	1.060456	-0.000279	-0.487837
H612	H	1.393790	0.333055	-0.154504
H613	H	0.687753	-0.316944	-0.879000
H614	H	1.021087	0.016389	-0.545667
H615	H	1.354420	0.349722	-0.212334
C616	C	0.609789	-0.374119	-0.858596
C617	C	0.943123	-0.040786	-0.525263
C618	C	1.276456	0.292547	-0.191930
C619	C	0.660364	-0.377536	-0.838405
C620	C	0.993697	-0.044202	-0.505071
C621	C	1.327031	0.289131	-0.171738
H622	H	0.594009	-0.402927	-0.859090
H623	H	0.927343	-0.069594	-0.525757
H624	H	1.260676	0.263739	-0.192423
H625	H	0.589751	-0.354572	-0.837315
H626	H	0.923085	-0.021238	-0.503981
H627	H	1.256418	0.312095	-0.170648
H628	H	0.611303	-0.362544	-0.893088
H629	H	0.944637	-0.029210	-0.559755
H630	H	1.277970	0.304123	-0.226421
H631	H	0.658849	-0.389106	-0.803912
H632	H	0.992182	-0.055772	-0.470578
H633	H	1.325515	0.277561	-0.137245
H634	H	0.680401	-0.397087	-0.859681
H635	H	1.013735	-0.063753	-0.526347
H636	H	1.347068	0.269580	-0.193014
O637	O	0.689534	-0.476350	-0.185942
O638	O	1.022867	-0.143017	0.147391
O639	O	1.356201	0.190316	0.480724
C640	C	0.660046	-0.445619	-0.156382
C641	C	0.993379	-0.112285	0.176951
C642	C	1.326712	0.221048	0.510285
H643	H	0.658216	-0.412162	-0.177787
H644	H	0.991550	-0.078829	0.155547
H645	H	1.324883	0.254505	0.488880
H646	H	0.679217	-0.440642	-0.116692
H647	H	1.012551	-0.107309	0.216642
H648	H	1.345884	0.226025	0.549975
C649	C	0.606654	-0.505058	-0.122504
C650	C	0.939987	-0.171725	0.210830
C651	C	1.273321	0.161609	0.544163
C652	C	0.604403	-0.463967	-0.148795
C653	C	0.937737	-0.130634	0.184538
C654	C	1.271070	0.202700	0.517871
H655	H	0.572332	-0.516377	-0.117821
H656	H	0.905665	-0.183043	0.215512
H657	H	1.238999	0.150290	0.548845
H658	H	0.626522	-0.525763	-0.142417
H659	H	0.959855	-0.192430	0.190916
H660	H	1.293189	0.140903	0.524249
H661	H	0.622633	-0.500905	-0.089431
H662	H	0.955966	-0.167572	0.243902
H663	H	1.289299	0.165761	0.577235
H664	H	0.588431	-0.468121	-0.181869
H665	H	0.921764	-0.134788	0.151464
H666	H	1.255098	0.198545	0.484797
H667	H	0.584531	-0.443263	-0.128887
H668	H	0.917865	-0.109930	0.204446
H669	H	1.251198	0.223404	0.537780
H670	H	0.694828	-0.268599	-0.550571
H671	H	1.028161	0.064734	-0.217238
H672	H	1.361494	0.398068	0.116096
H673	H	0.694817	-0.268617	-0.451504
H674	H	1.028150	0.064716	-0.118170
H675	H	1.361483	0.398049	0.215163
H676	H	0.054121	-0.268739	-0.312562
H677	H	0.387455	0.064594	0.020771
H678	H	0.720788	0.397928	0.354104
O679	O	0.058322	-0.159792	-0.186171
O680	O	0.391655	0.173542	0.147162
O681	O	0.724988	0.506875	0.480496
C682	C	0.022508	-0.134395	-0.156732
C683	C	0.355841	0.198938	0.176602
C684	C	0.689174	0.532271	0.509935
H685	H	-0.016425	-0.152800	-0.154891
H686	H	0.316909	0.180533	0.178443
H687	H	0.650242	0.513866	0.511776
H688	H	0.016727	-0.100299	-0.175954
H689	H	0.350060	0.233034	0.157380
H690	H	0.683394	0.566367	0.490713
C691	C	0.091603	-0.105246	-0.103356
C692	C	0.424936	0.228088	0.229978
C693	C	0.758270	0.561421	0.563311
C694	C	0.043787	-0.127852	-0.101091
C695	C	0.377120	0.205481	0.232243
C696	C	0.710454	0.538814	0.565576
H697	H	0.104730	-0.101207	-0.069034
H698	H	0.438063	0.232126	0.264299
H699	H	0.771396	0.565459	0.597632
H700	H	0.115732	-0.122354	-0.123190
H701	H	0.449066	0.210979	0.210143
H702	H	0.782399	0.544313	0.543476
H703	H	0.086779	-0.076835	-0.119376
H704	H	0.420113	0.256499	0.213957
H705	H	0.753446	0.589832	0.547290
H706	H	0.048613	-0.156265	-0.085076
H707	H	0.381946	0.177068	0.248257
H708	H	0.715279	0.510402	0.581590
H709	H	0.019659	-0.110749	-0.081252
H710	H	0.352992	0.222585	0.252081
H711	H	0.686326	0.555918	0.585415
O712	O	0.821504	-0.159827	-0.447357
O713	O	1.154837	0.173507	-0.114023
O714	O	1.488171	0.506840	0.219310
C715	C	0.851047	-0.134473	-0.483180
C716	C	1.184381	0.198861	-0.149847
C717	C	1.517714	0.532194	0.183487
H718	H	0.829635	-0.132907	-0.522097
H719	H	1.162969	0.200426	-0.188763
H720	H	1.496302	0.533759	0.144570
H721	H	0.890744	-0.150928	-0.488996
H722	H	1.224077	0.182405	-0.155662
H723	H	1.557410	0.515739	0.177671
C724	C	0.884918	-0.088587	-0.414088
C725	C	1.218251	0.244746	-0.080755
C726	C	1.551585	0.578080	0.252579
C727	C	0.858617	-0.086661	-0.461885
C728	C	1.191951	0.246673	-0.128552
C729	C	1.525284	0.580006	0.204782
H730	H	0.889590	-0.059095	-0.400952
H731	H	1.222923	0.274239	-0.067619
H732	H	1.556257	0.607572	0.265715
H733	H	0.865016	-0.105669	-0.389953
H734	H	1.198349	0.227664	-0.056619
H735	H	1.531682	0.560998	0.276714
H736	H	0.917996	-0.102302	-0.418941
H737	H	1.251329	0.231032	-0.085607
H738	H	1.584662	0.564365	0.247726
H739	H	0.825538	-0.072951	-0.457031
H740	H	1.158872	0.260382	-0.123697
H741	H	1.492205	0.593715	0.209636
H742	H	0.878514	-0.069575	-0.486019
H743	H	1.211848	0.263758	-0.152686
H744	H	1.545181	0.597092	0.180647
H745	H	0.206243	-0.135532	-0.158083
H746	H	0.539576	0.197801	0.175250
H747	H	0.872910	0.531134	0.508584
H748	H	0.849533	-0.603237	-0.346183
H749	H	1.182866	-0.269904	-0.012850
H750	H	1.516199	0.063430	0.320484
H751	H	0.305293	-0.135522	-0.158079
H752	H	0.638626	0.197812	0.175254
H753	H	0.971959	0.531145	0.508587
O754	O	0.821527	-0.159901	-0.554970
O755	O	1.154860	0.173432	-0.221636
O756	O	1.488193	0.506766	0.111697
C757	C	0.855290	-0.185475	-0.586546
C758	C	1.188623	0.147858	-0.253213
C759	C	1.521957	0.481192	0.080120
H760	H	0.836822	-0.219515	-0.594720
H761	H	1.170155	0.113819	-0.261387
H762	H	1.503489	0.447152	0.071947
H763	H	0.894027	-0.190425	-0.565507
H764	H	1.227360	0.142909	-0.232174
H765	H	1.560693	0.476242	0.101159
C766	C	0.887474	-0.118934	-0.628379
C767	C	1.220807	0.214400	-0.295046
C768	C	1.554140	0.547733	0.038288
C769	C	0.864789	-0.160740	-0.638422
C770	C	1.198122	0.172593	-0.305088
C771	C	1.531456	0.505926	0.028245
H772	H	0.893336	-0.103676	-0.660378
H773	H	1.226669	0.229658	-0.327044
H774	H	1.560002	0.562991	0.006289
H775	H	0.864728	-0.101703	-0.607104
H776	H	1.198062	0.231630	-0.273771
H777	H	1.531395	0.564963	0.059563
H778	H	0.919752	-0.123064	-0.610845
H779	H	1.253085	0.210269	-0.277512
H780	H	1.586418	0.543602	0.055821
H781	H	0.832509	-0.156609	-0.655949
H782	H	1.165842	0.176724	-0.322616
H783	H	1.499176	0.510058	0.010718
H784	H	0.887529	-0.177969	-0.659701
H785	H	1.220863	0.155364	-0.326368
H786	H	1.554196	0.488697	0.006966
H787	H	0.849555	-0.688343	-0.346202
H788	H	1.182889	-0.355010	-0.012869
H789	H	1.516222	-0.021677	0.320464
H790	H	0.816231	-0.959851	-0.312771
H791	H	1.149564	-0.626517	0.020562
H792	H	1.482898	-0.293184	0.353895
O793	O	0.656167	-0.692193	-0.152526
O794	O	0.989500	-0.358860	0.180807
O795	O	1.322834	-0.025527	0.514141
C796	C	0.626678	-0.661455	-0.122976
C797	C	0.960011	-0.328121	0.210358
C798	C	1.293344	0.005212	0.543691
H799	H	0.624853	-0.628002	-0.144388
H800	H	0.958186	-0.294668	0.188945
H801	H	1.291519	0.038665	0.522278
H802	H	0.645845	-0.656472	-0.083285
H803	H	0.979179	-0.323139	0.250049
H804	H	1.312512	0.010194	0.583382
C805	C	0.573278	-0.720886	-0.089089
C806	C	0.906612	-0.387552	0.244244
C807	C	1.239945	-0.054219	0.577577
C808	C	0.571033	-0.679799	-0.115391
C809	C	0.904367	-0.346466	0.217942
C810	C	1.237700	-0.013132	0.551276
H811	H	0.538955	-0.732202	-0.084408
H812	H	0.872288	-0.398868	0.248925
H813	H	1.205622	-0.065535	0.582258
H814	H	0.593147	-0.741595	-0.108996
H815	H	0.926480	-0.408262	0.224337
H816	H	1.259814	-0.074929	0.557670
H817	H	0.589254	-0.716728	-0.056016
H818	H	0.922587	-0.383395	0.277317
H819	H	1.255920	-0.050061	0.610650
H820	H	0.555064	-0.683958	-0.148466
H821	H	0.888398	-0.350625	0.184868
H822	H	1.221731	-0.017292	0.518201
H823	H	0.551161	-0.659091	-0.095489
H824	H	0.884494	-0.325757	0.237844
H825	H	1.217827	0.007576	0.571177
H826	H	0.695009	-1.045112	-0.191319
H827	H	1.028342	-0.711779	0.142014
H828	H	1.361675	-0.378445	0.475347
H829	H	0.694900	-0.268490	-1.052908
H830	H	1.028233	0.064843	-0.719575
H831	H	1.361567	0.398176	-0.386242
O832	O	0.689709	-0.956392	-0.185998
O833	O	1.023043	-0.623059	0.147335
O834	O	1.356376	-0.289725	0.480668
C835	C	0.660225	-0.987201	-0.156470
C836	C	0.993558	-0.653868	0.176863
C837	C	1.326892	-0.320534	0.510197
H838	H	0.681657	-1.020630	-0.154696
H839	H	1.014990	-0.687297	0.178638
H840	H	1.348323	-0.353963	0.511971
H841	H	0.620503	-0.992210	-0.175571
H842	H	0.953836	-0.658876	0.157762
H843	H	1.287170	-0.325543	0.491095
C844	C	0.626402	-0.927874	-0.102988
C845	C	0.959736	-0.594540	0.230345
C846	C	1.293069	-0.261207	0.563678
C847	C	0.652727	-0.968931	-0.100806
C848	C	0.986061	-0.635597	0.232528
C849	C	1.319394	-0.302264	0.565861
H850	H	0.621775	-0.916603	-0.068653
H851	H	0.955108	-0.583270	0.264681
H852	H	1.288442	-0.249937	0.598014
H853	H	0.646265	-0.907117	-0.122883
H854	H	0.979598	-0.573783	0.210450
H855	H	1.312932	-0.240450	0.543783
H856	H	0.593304	-0.932053	-0.118908
H857	H	0.926637	-0.598720	0.214425
H858	H	1.259970	-0.265387	0.547758
H859	H	0.685828	-0.964750	-0.084892
H860	H	1.019161	-0.631416	0.248441
H861	H	1.352494	-0.298083	0.581775
H862	H	0.632870	-0.989687	-0.080907
H863	H	0.966204	-0.656353	0.252427
H864	H	1.299537	-0.323020	0.585760
O865	O	0.854835	-0.740360	-0.351523
O866	O	1.188169	-0.407026	-0.018189
O867	O	1.521502	-0.073693	0.315144
C868	C	0.884341	-0.771097	-0.381059
C869	C	1.217674	-0.437763	-0.047726
C870	C	1.551007	-0.104430	0.285608
H871	H	0.862929	-0.804553	-0.382846
H872	H	1.196263	-0.471220	-0.049513
H873	H	1.529596	-0.137886	0.283821
H874	H	0.924064	-0.776071	-0.361957
H875	H	1.257398	-0.442738	-0.028623
H876	H	1.590731	-0.109405	0.304710
C877	C	0.918131	-0.711666	-0.434518
C878	C	1.251464	-0.378333	-0.101185
C879	C	1.584798	-0.045000	0.232148
C880	C	0.891831	-0.752757	-0.436717
C881	C	1.225164	-0.419424	-0.103384
C882	C	1.558498	-0.086090	0.229950
H883	H	0.922754	-0.700353	-0.468850
H884	H	1.256087	-0.367020	-0.135517
H885	H	1.589420	-0.033687	0.197816
H886	H	0.898254	-0.690958	-0.414618
H887	H	1.231588	-0.357624	-0.081285
H888	H	1.564921	-0.024291	0.252048
H889	H	0.951231	-0.715817	-0.418597
H890	H	1.284564	-0.382484	-0.085264
H891	H	1.617898	-0.049151	0.248069
H892	H	0.858729	-0.748605	-0.452632
H893	H	1.192063	-0.415271	-0.119298
H894	H	1.525396	-0.081938	0.214035
H895	H	0.911702	-0.773465	-0.456621
H896	H	1.245036	-0.440131	-0.123288
H897	H	1.578369	-0.106798	0.210046
