data_functionalizedCrystal
_audit_creation_method	'MofGen! by Chris Wilmer'
_symmetry_space_group_name_H-M	'P1'
_symmetry_Int_Tables_number	1
_symmetry_cell_setting	triclinic
loop_
_symmetry_equiv_pos_as_xyz
  x,y,z
_cell_length_a	14.971486
_cell_length_b	10.654550
_cell_length_c	13.448316
_cell_angle_alpha	89.994587
_cell_angle_beta	89.998199
_cell_angle_gamma	84.049516
loop_
_atom_site_label
_atom_site_type_symbol
_atom_site_fract_x
_atom_site_fract_y
_atom_site_fract_z
O1	O	1.187838	0.163659	-0.082575
O2	O	1.687838	0.663659	0.417425
O3	O	0.927544	0.183258	-0.082602
O4	O	1.427544	0.683258	0.417398
O5	O	1.063676	-0.009345	-0.082584
O6	O	1.563676	0.490655	0.417416
O7	O	1.051707	0.356262	-0.082593
O8	O	1.551707	0.856262	0.417407
O9	O	1.063659	-0.009357	0.082800
O10	O	1.563659	0.490643	0.582800
O11	O	0.927527	0.183246	0.082782
O12	O	1.427527	0.683246	0.582782
O13	O	1.187821	0.163647	0.082809
O14	O	1.687821	0.663647	0.582809
Cu15	Cu	1.057672	0.173445	0.097896
Cu16	Cu	1.557672	0.673445	0.597896
Cu17	Cu	1.057693	0.173460	-0.097689
Cu18	Cu	1.557693	0.673460	0.402311
O19	O	1.051689	0.356250	0.082791
O20	O	1.551689	0.856250	0.582791
C21	C	0.894206	0.182375	0.000087
C22	C	1.394206	0.682375	0.500087
C23	C	0.794895	0.179749	0.000077
C24	C	1.294895	0.679749	0.500077
C25	C	0.738285	0.292898	0.000075
C26	C	1.238285	0.792898	0.500075
C27	C	0.644972	0.290422	0.000090
C28	C	1.144972	0.790422	0.500090
C29	C	0.608271	0.174797	0.000099
C30	C	1.108271	0.674797	0.500099
C31	C	0.664888	0.061639	0.000104
C32	C	1.164888	0.561639	0.500104
C33	C	0.758199	0.064116	0.000096
C34	C	1.258199	0.564116	0.500096
C35	C	0.470397	0.056485	0.000117
C36	C	0.970397	0.556485	0.500117
C37	C	0.377080	0.054007	0.000123
C38	C	0.877080	0.554007	0.500123
C39	C	0.357171	0.282791	0.000112
C40	C	0.857171	0.782791	0.500112
C41	C	0.450482	0.285268	0.000104
C42	C	0.950482	0.785268	0.500104
C43	C	0.507092	0.172110	0.000106
C44	C	1.007092	0.672110	0.500106
C45	C	1.062788	-0.056139	0.000107
C46	C	1.562788	0.443861	0.500107
C47	C	1.060159	-0.195555	0.000103
C48	C	1.560159	0.304445	0.500103
C49	C	1.140311	-0.275900	0.000114
C50	C	1.640311	0.224100	0.500114
C51	C	1.137835	-0.406894	0.000107
C52	C	1.637835	0.093106	0.500107
C53	C	0.975048	-0.377185	0.000081
C54	C	1.475048	0.122815	0.500081
C55	C	0.977525	-0.246193	0.000082
C56	C	1.477525	0.253807	0.500082
C57	C	1.222945	-0.225262	0.000136
C58	C	1.722945	0.274738	0.500136
C59	C	1.303104	-0.305609	0.000148
C60	C	1.803104	0.194391	0.500148
C61	C	1.300628	-0.436603	0.000141
C62	C	1.800628	0.063397	0.500141
C63	C	1.217993	-0.487250	0.000121
C64	C	1.717993	0.012750	0.500121
C65	C	1.221159	0.164530	0.000118
C66	C	1.721159	0.664530	0.500118
C67	C	1.320470	0.167156	0.000122
C68	C	1.820470	0.667156	0.500122
C69	C	1.052577	0.403044	0.000098
C70	C	1.552577	0.903044	0.500098
C71	C	1.055206	0.542460	0.000096
C72	C	1.555206	1.042460	0.500096
N73	N	1.057664	0.173435	0.235461
N74	N	1.557664	0.673435	0.735461
N75	N	1.057708	0.173460	-0.235253
N76	N	1.557708	0.673460	0.264747
C77	C	1.117962	0.088185	0.287509
C78	C	1.617962	0.588185	0.787509
C79	C	1.117968	0.088184	0.391612
C80	C	1.617968	0.588184	0.891612
C81	C	1.057679	0.173440	0.443665
C82	C	1.557679	0.673440	0.943665
C83	C	0.997375	0.258693	0.391610
C84	C	1.497375	0.758693	0.891610
C85	C	0.997365	0.258687	0.287509
C86	C	1.497365	0.758687	0.787509
C87	C	0.997400	0.258702	0.608590
C88	C	1.497400	0.758702	1.108590
C89	C	0.997410	0.258710	0.712698
C90	C	1.497410	0.758710	1.212698
C91	C	1.118002	0.088199	0.712694
C92	C	1.618002	0.588199	1.212694
C93	C	1.117993	0.088193	0.608592
C94	C	1.617993	0.588193	1.108592
C95	C	1.057689	0.173448	0.556544
C96	C	1.557689	0.673448	1.056544
H97	H	0.804290	-0.028022	0.000096
H98	H	1.304290	0.471978	0.500096
F99	F	0.489540	0.408329	0.000084
F100	F	0.989540	0.908329	0.500084
F101	F	1.385938	-0.522110	0.000144
F102	F	1.885938	-0.022110	0.500144
H103	H	1.224970	-0.118601	0.000145
H104	H	1.724970	0.381399	0.500145
F105	F	1.182163	-0.002537	0.553193
F106	F	1.682163	0.497463	1.053193
H107	H	0.598884	0.382560	0.000088
H108	H	1.098884	0.882560	0.500088
H109	H	1.167103	0.018781	0.755077
H110	H	1.667103	0.518781	1.255077
F111	F	0.933185	0.349418	0.232116
F112	F	1.433185	0.849418	0.732116
H113	H	0.907771	-0.418433	0.000067
H114	H	1.407771	0.081567	0.500067
F115	F	0.530645	-0.063952	0.000123
F116	F	1.030645	0.436048	0.500123
H117	H	1.370382	-0.264362	0.000139
H118	H	1.870382	0.235638	0.500139
F119	F	0.625825	-0.061419	0.000120
F120	F	1.125825	0.438581	0.500120
F121	F	0.296921	0.403223	0.000111
F122	F	0.796921	0.903223	0.500111
H123	H	1.215983	-0.593916	0.000105
H124	H	1.715983	-0.093916	0.500105
H125	H	0.912258	-0.180773	0.000074
H126	H	1.412258	0.319227	0.500074
H127	H	1.167060	0.018766	0.245134
H128	H	1.667060	0.518766	0.745134
F129	F	0.933214	0.349438	0.553201
F130	F	1.433214	0.849438	1.053201
H131	H	1.167067	0.018767	0.433989
H132	H	1.667067	0.518767	0.933989
H133	H	0.347201	-0.040145	0.000132
H134	H	0.847201	0.459855	0.500132
F135	F	0.933205	0.349424	0.447009
F136	F	1.433205	0.849424	0.947009
F137	F	0.777337	0.415964	0.000059
F138	F	1.277337	0.915964	0.500059
F139	F	0.933240	0.349449	0.768090
F140	F	1.433240	0.849449	1.268090
