data_functionalizedCrystal
_audit_creation_method	'MofGen! by Chris Wilmer'
_symmetry_space_group_name_H-M	'P1'
_symmetry_Int_Tables_number	1
_symmetry_cell_setting	triclinic
loop_
_symmetry_equiv_pos_as_xyz
  x,y,z
_cell_length_a	10.489763
_cell_length_b	8.965430
_cell_length_c	10.489741
_cell_angle_alpha	89.999293
_cell_angle_beta	95.456233
_cell_angle_gamma	89.998051
loop_
_atom_site_label
_atom_site_type_symbol
_atom_site_fract_x
_atom_site_fract_y
_atom_site_fract_z
O1	O	-1.694037	0.123974	0.180095
O2	O	-1.322845	0.123991	0.196958
O3	O	-1.516887	0.123973	0.002929
O4	O	-1.499994	0.123991	0.374123
O5	O	-1.516871	-0.124106	0.002942
O6	O	-1.322828	-0.124088	0.196971
O7	O	-1.694020	-0.124105	0.180108
Cu8	Cu	-1.508423	-0.146748	0.188540
Cu9	Cu	-1.508442	0.146634	0.188525
O10	O	-1.499978	-0.124087	0.374136
C11	C	-1.275305	-0.000047	0.195684
C12	C	-1.133677	-0.000040	0.191856
C13	C	-1.065538	-0.000062	0.068386
C14	C	-0.973420	0.122253	0.126695
C15	C	-0.973438	-0.122334	0.126738
C16	C	-1.043425	0.122375	0.250217
C17	C	-1.043452	-0.122321	0.250242
C18	C	-0.951362	0.000023	0.308641
N19	N	-1.508419	-0.353097	0.188550
C20	C	-1.418652	-0.450395	0.278252
C21	C	-1.534148	-0.549813	0.304072
C22	C	-1.392972	-0.549807	0.162741
C23	C	-1.623973	-0.450326	0.214428
C24	C	-1.482720	-0.450312	0.073047
C25	C	-1.598299	-0.549685	0.098819
C26	C	-0.741562	-0.000069	0.181361
C27	C	-0.883198	-0.000077	0.185129
C28	C	-1.515603	-0.000066	-0.044596
C29	C	-1.511786	-0.000063	-0.186226
N30	N	-1.508457	0.352983	0.188505
C31	C	-1.388322	-0.000046	-0.254376
C32	C	-1.446637	-0.122365	-0.346487
C33	C	-1.446683	0.122222	-0.346475
C34	C	-1.570152	-0.122482	-0.276472
C35	C	-1.570180	0.122214	-0.276450
C36	C	-1.628584	-0.000134	-0.368534
C37	C	-1.501262	-0.000046	0.421662
C38	C	-1.505079	-0.000039	0.563291
H39	H	-0.942453	-0.225743	0.074477
C40	C	-1.048859	0.389995	0.256431
C41	C	-1.085036	0.262142	0.320673
H42	H	-1.074544	0.476279	0.299931
H43	H	-1.088981	0.389638	0.171354
H44	H	-0.958511	0.390787	0.254461
H45	H	-1.175386	0.261345	0.322634
H46	H	-1.044918	0.262501	0.405773
C47	C	-1.784619	0.127943	-0.510987
C48	C	-1.765756	-0.000190	-0.435212
H49	H	-1.869309	0.127914	-0.552132
H50	H	-1.725051	0.128787	-0.573749
H51	H	-1.772308	0.214027	-0.458461
H52	H	-1.778057	-0.086275	-0.487740
H53	H	-1.825342	-0.001047	-0.372443
H54	H	-0.901938	0.000094	0.410240
H55	H	-1.394434	0.225642	-0.377448
H56	H	-1.074491	-0.225731	0.302447
C57	C	-1.374307	-0.261127	-0.521665
C58	C	-1.376113	-0.261957	-0.388365
H59	H	-1.330768	-0.347306	-0.547512
H60	H	-1.331269	-0.174276	-0.546780
H61	H	-1.459663	-0.261261	-0.561105
H62	H	-1.290756	-0.261812	-0.348925
H63	H	-1.419147	-0.348831	-0.363237
C64	C	-1.575826	0.389785	-0.269480
C65	C	-1.640650	0.261812	-0.234524
H66	H	-1.619322	0.475974	-0.243585
H67	H	-1.573239	0.391287	-0.359736
H68	H	-1.490959	0.388894	-0.228805
H69	H	-1.725515	0.262698	-0.275207
H70	H	-1.643251	0.260311	-0.144251
H71	H	-1.115227	0.000087	-0.033106
C72	C	-1.275080	-0.694696	0.021343
C73	C	-1.261156	-0.608800	0.133286
H74	H	-1.193701	-0.731118	0.003173
H75	H	-1.310443	-0.634884	-0.047948
H76	H	-1.330526	-0.776357	0.032896
H77	H	-1.205718	-0.527132	0.121729
H78	H	-1.225776	-0.668615	0.202592
H79	H	-1.342811	-0.406799	0.354181
H80	H	-1.286812	-0.000165	-0.204733
C81	C	-0.798253	0.261034	0.054366
C82	C	-0.931552	0.261855	0.056182
H83	H	-0.772414	0.347224	0.010839
H84	H	-0.773137	0.174193	0.011313
H85	H	-0.758807	0.261155	0.139721
H86	H	-0.970998	0.261724	-0.029173
H87	H	-0.956681	0.348719	0.099233
C88	C	-1.643484	-0.261026	-0.101671
C89	C	-1.640597	-0.262248	-0.234848
H90	H	-1.686964	-0.347318	-0.075975
H91	H	-1.687057	-0.174289	-0.077147
H92	H	-1.558384	-0.260669	-0.061574
H93	H	-1.725698	-0.262594	-0.274946
H94	H	-1.597026	-0.349009	-0.259385
C95	C	-1.461329	-0.696997	0.487950
C96	C	-1.563523	-0.608832	0.435903
H97	H	-1.479463	-0.733435	0.569335
H98	H	-1.385402	-0.638718	0.497345
H99	H	-1.449832	-0.778647	0.432475
H100	H	-1.575014	-0.527175	0.491374
H101	H	-1.639472	-0.667113	0.426514
H102	H	-1.721642	-0.406812	0.236355
H103	H	-1.674311	-0.593007	0.022937
H104	H	-1.460922	-0.406572	-0.024582
