data_functionalizedCrystal
_audit_creation_method	'MofGen! by Chris Wilmer'
_symmetry_space_group_name_H-M	'P1'
_symmetry_Int_Tables_number	1
_symmetry_cell_setting	triclinic
loop_
_symmetry_equiv_pos_as_xyz
  x,y,z
_cell_length_a	12.970454
_cell_length_b	18.426585
_cell_length_c	12.970454
_cell_angle_alpha	89.999509
_cell_angle_beta	59.999776
_cell_angle_gamma	60.001354
loop_
_atom_site_label
_atom_site_type_symbol
_atom_site_fract_x
_atom_site_fract_y
_atom_site_fract_z
Zr1	Zr	1.128562	0.699112	-0.135330
O2	O	1.343645	0.583236	-0.299951
O3	O	0.913474	0.734634	-0.084864
O4	O	1.128564	0.734635	-0.299955
O5	O	1.128556	0.583234	0.084806
O6	O	1.128571	0.854061	-0.299960
O7	O	1.128556	0.583235	-0.084860
O8	O	0.743815	0.854059	0.084799
O9	O	1.513313	0.583236	-0.299952
O10	O	1.001950	0.838909	-0.063346
O11	O	1.001946	0.749783	0.063278
O12	O	1.255186	0.749784	-0.189964
O13	O	1.255181	0.660657	-0.063340
Zr14	Zr	1.128575	0.889581	0.135261
Zr15	Zr	1.128574	0.889582	-0.135337
Zr16	Zr	1.128564	0.699110	0.135268
Zr17	Zr	1.399162	0.699112	-0.135332
Zr18	Zr	0.857975	0.889581	0.135263
O19	O	1.343664	0.854059	0.084796
O20	O	1.343662	0.854061	-0.299961
O21	O	1.343647	0.583234	0.084805
O22	O	0.913492	1.005456	0.299882
O23	O	0.913490	1.005458	-0.084874
O24	O	0.913476	0.734632	0.299892
O25	O	1.128581	1.005458	-0.084875
O26	O	1.128574	0.854058	0.299886
O27	O	1.128567	0.734632	0.299891
O28	O	1.128582	1.005457	0.084791
O29	O	1.513322	0.734635	-0.299957
O30	O	0.743816	0.854058	0.299888
O31	O	0.743825	1.005456	0.299883
O32	O	0.743824	1.005457	0.084793
O33	O	1.513314	0.583235	-0.084862
O34	O	1.513323	0.734634	-0.084868
O35	O	1.001952	0.838908	0.189895
O36	O	1.001956	0.928035	0.063271
O37	O	1.255192	0.838910	-0.063347
O38	O	1.255187	0.749783	0.063277
C39	C	0.790089	0.794346	-0.000033
C40	C	0.675213	0.794346	-0.000032
C41	C	1.128554	0.556097	-0.000026
C42	C	1.128550	0.475237	-0.000023
C43	C	1.128593	0.179122	-0.000045
C44	C	1.128587	0.261508	-0.000042
C45	C	1.128572	0.327177	-0.000035
C46	C	1.128565	0.409568	-0.000030
C47	C	1.467048	0.794346	-0.000036
C48	C	1.581925	0.794346	-0.000037
C49	C	1.128567	0.794348	-0.338512
C50	C	1.128566	0.794348	-0.453388
C51	C	1.128583	1.032596	-0.000043
C52	C	1.128588	1.113455	-0.000046
C53	C	1.128571	0.794344	0.338443
C54	C	1.128571	0.794344	0.453319
C55	C	0.790104	1.032596	-0.000041
C56	C	0.675232	1.113455	-0.000044
C57	C	0.790091	0.794344	0.338445
C58	C	0.675215	0.794344	0.453322
C59	C	0.790106	1.032594	0.338436
C60	C	0.675234	1.113453	0.453310
C61	C	1.467032	0.556098	-0.338505
C62	C	1.581903	0.475239	-0.453379
C63	C	1.467034	0.556097	-0.000028
C64	C	1.581906	0.475237	-0.000025
C65	C	1.467046	0.794348	-0.338514
C66	C	1.581922	0.794348	-0.453390
C67	C	0.621284	1.104905	-0.066149
C68	C	0.513364	1.180874	-0.066176
C69	C	0.459388	1.265392	-0.000090
C70	C	0.513347	1.273941	0.066017
C71	C	0.621271	1.197973	0.066036
C72	C	0.621292	1.197957	0.441160
C73	C	0.513373	1.273940	0.549086
C74	C	0.459391	1.265417	0.669160
C75	C	0.513344	1.180905	0.681308
C76	C	0.621269	1.104924	0.573384
C77	C	1.635859	0.390736	-0.441229
C78	C	1.743811	0.314753	-0.549155
C79	C	1.797798	0.323275	-0.669229
C80	C	1.743838	0.407787	-0.681377
C81	C	1.635895	0.483769	-0.573452
C82	C	1.635865	0.483787	0.066069
C83	C	1.743814	0.407818	0.066066
C84	C	1.797795	0.323300	-0.000023
C85	C	1.743831	0.314751	-0.066125
C86	C	1.635891	0.390720	-0.066130
H87	H	0.469444	1.173897	-0.120008
O88	O	1.583743	0.565802	-0.585439
C89	C	1.698937	0.575535	-0.652007
H90	H	1.806906	0.507138	-0.711540
H91	H	1.682696	0.615467	-0.716207
H92	H	1.700358	0.611870	-0.582105
O93	O	0.354358	1.339157	0.000037
C94	C	0.229521	1.338987	0.052553
H95	H	0.229653	1.296031	0.115802
H96	H	0.127489	1.409856	0.110828
H97	H	0.230471	1.310938	-0.026502
O98	O	0.461128	1.356043	0.537322
C99	C	0.487507	1.402778	0.595792
H100	H	0.582087	1.353479	0.600794
H101	H	0.516139	1.444760	0.538518
H102	H	0.385629	1.447885	0.695342
O103	O	0.673958	1.022763	-0.130446
C104	C	0.825194	0.976042	-0.223224
H105	H	0.870971	1.005050	-0.195434
H106	H	0.881115	0.902924	-0.231230
H107	H	0.845790	0.982369	-0.318030
H108	H	1.591908	0.383779	-0.343468
O109	O	1.796397	0.232668	-0.130512
C110	C	1.858806	0.222912	-0.259534
H111	H	1.891211	0.271017	-0.282962
H112	H	1.959595	0.151842	-0.319302
H113	H	1.776081	0.237987	-0.280668
H114	H	0.469383	1.342766	0.119821
H115	H	0.665182	1.204947	0.119874
H116	H	0.371513	1.327293	0.757029
O117	O	0.673499	1.206406	0.324622
C118	C	0.602649	1.297292	0.337068
H119	H	0.558305	1.337808	0.433328
H120	H	0.683549	1.307885	0.259567
H121	H	0.508807	1.319674	0.328370
O122	O	0.461107	1.172475	0.797858
C123	C	0.531826	1.081598	0.785460
H124	H	0.641234	1.041061	0.689149
H125	H	0.550408	1.071026	0.862884
H126	H	0.461022	1.059222	0.794321
H127	H	0.665174	1.036120	0.583294
O128	O	1.583472	0.565928	0.130087
C129	C	1.609875	0.612652	0.045226
H130	H	1.623292	0.583646	-0.041760
H131	H	1.514010	0.685770	0.093177
H132	H	1.713670	0.606325	0.015641
H133	H	1.787727	0.245946	-0.539239
O134	O	1.796006	0.416292	0.130402
C135	C	1.725218	0.507182	0.188717
H136	H	1.615822	0.547681	0.201788
H137	H	1.706601	0.517778	0.284736
H138	H	1.795986	0.529582	0.126785
H139	H	1.885692	0.261399	-0.757098
H140	H	1.591960	0.383746	-0.119948
O141	O	1.902596	0.249600	0.000169
C142	C	1.938658	0.275281	0.072660
H143	H	1.843985	0.345412	0.142536
H144	H	1.961077	0.227292	0.126478
H145	H	2.040072	0.273906	0.007586
H146	H	1.787809	0.414716	-0.779155
