data_functionalizedCrystal
_audit_creation_method	'MofGen! by Chris Wilmer'
_symmetry_space_group_name_H-M	'P1'
_symmetry_Int_Tables_number	1
_symmetry_cell_setting	triclinic
loop_
_symmetry_equiv_pos_as_xyz
  x,y,z
_cell_length_a	23.532361
_cell_length_b	23.532407
_cell_length_c	14.421503
_cell_angle_alpha	89.999621
_cell_angle_beta	89.996704
_cell_angle_gamma	82.839173
loop_
_atom_site_label
_atom_site_type_symbol
_atom_site_fract_x
_atom_site_fract_y
_atom_site_fract_z
O1	O	0.755280	0.069001	-0.077028
O2	O	1.255280	0.569001	0.422972
O3	O	0.589413	0.079032	-0.077052
O4	O	1.089413	0.579032	0.422948
O5	O	0.677348	-0.008916	-0.077022
O6	O	1.177348	0.491084	0.422978
O7	O	0.667345	0.156949	-0.077057
O8	O	1.167345	0.656949	0.422943
O9	O	0.677334	-0.008903	0.077201
O10	O	1.177334	0.491097	0.577201
O11	O	0.589399	0.079045	0.077172
O12	O	1.089399	0.579045	0.577172
O13	O	0.755266	0.069014	0.077195
O14	O	1.255266	0.569014	0.577195
Cu15	Cu	0.672331	0.074030	0.091265
Cu16	Cu	1.172331	0.574030	0.591265
Cu17	Cu	0.672348	0.074015	-0.091122
Cu18	Cu	1.172348	0.574015	0.408878
O19	O	0.667330	0.156962	0.077166
O20	O	1.167330	0.656962	0.577166
C21	C	0.568189	0.078787	0.000057
C22	C	1.068189	0.578787	0.500057
C23	C	0.504971	0.078032	0.000049
C24	C	1.004971	0.578032	0.500049
C25	C	0.231735	0.074721	-0.084012
C26	C	0.731735	0.574721	0.415988
C27	C	0.291135	0.075436	-0.084014
C28	C	0.791135	0.575436	0.415986
O29	O	0.321867	0.075780	-0.155509
O30	O	0.821867	0.575780	0.344491
N31	N	0.320832	0.075804	0.000053
N32	N	0.820832	0.575804	0.500053
C33	C	0.291128	0.075452	0.084129
C34	C	0.791128	0.575452	0.584129
O35	O	0.321843	0.075830	0.155634
O36	O	0.821843	0.575830	0.655634
C37	C	0.231730	0.074733	0.084130
C38	C	0.731730	0.574733	0.584130
C39	C	0.202035	0.074370	0.000057
C40	C	0.702035	0.574370	0.500057
C41	C	0.202040	0.074358	-0.168078
C42	C	0.702040	0.574358	0.331922
C43	C	0.142644	0.073644	-0.168075
C44	C	0.642644	0.573644	0.331925
C45	C	0.112943	0.073293	-0.084006
C46	C	0.612943	0.573293	0.415994
C47	C	0.142639	0.073657	0.000060
C48	C	0.642639	0.573657	0.500060
C49	C	0.202027	0.074376	0.168204
C50	C	0.702027	0.574376	0.668204
C51	C	0.142625	0.073657	0.168199
C52	C	0.642625	0.573657	0.668199
C53	C	0.112930	0.073294	0.084126
C54	C	0.612930	0.573294	0.584126
C55	C	0.053543	0.072592	0.084132
C56	C	0.553543	0.572592	0.584132
N57	N	0.023845	0.072224	0.000064
N58	N	0.523845	0.572224	0.500064
C59	C	0.053545	0.072574	-0.084005
C60	C	0.553545	0.572574	0.415995
C61	C	0.415868	0.076961	0.084119
C62	C	0.915868	0.576961	0.584119
C63	C	0.475265	0.077684	0.084119
C64	C	0.975265	0.577684	0.584119
C65	C	0.475267	0.077667	-0.084025
C66	C	0.975267	0.577667	0.415975
C67	C	0.415869	0.076948	-0.084023
C68	C	0.915869	0.576948	0.415977
C69	C	0.386171	0.076593	0.000052
C70	C	0.886171	0.576593	0.500052
C71	C	-0.071190	0.071076	-0.083993
C72	C	0.428810	0.571076	0.416007
C73	C	-0.130592	0.070364	-0.083982
C74	C	0.369408	0.570364	0.416018
C75	C	-0.130589	0.070378	0.084160
C76	C	0.369411	0.570378	0.584160
C77	C	-0.071193	0.071093	0.084151
C78	C	0.428807	0.571093	0.584151
C79	C	-0.041495	0.071440	0.000067
C80	C	0.458505	0.571440	0.500067
O81	O	0.022773	0.072245	0.155589
O82	O	0.522773	0.572245	0.655589
O83	O	0.022824	0.072188	-0.155498
O84	O	0.522824	0.572188	0.344502
C85	C	0.677086	-0.030126	0.000092
C86	C	1.177086	0.469874	0.500092
C87	C	0.676320	-0.093343	0.000099
C88	C	1.176320	0.406657	0.500099
C89	C	0.723555	-0.492454	0.000055
C90	C	1.223555	0.007546	0.500055
C91	C	0.722844	-0.551854	0.000048
C92	C	1.222844	-0.051854	0.500048
O93	O	0.766630	-0.588606	0.000020
O94	O	1.266630	-0.088606	0.500020
N95	N	0.670566	-0.574471	0.000041
N96	N	1.170566	-0.074471	0.500041
C97	C	0.618997	-0.537685	0.000032
C98	C	1.118997	-0.037685	0.500032
O99	O	0.574465	-0.562377	0.000025
O100	O	1.074465	-0.062377	0.500025
C101	C	0.619709	-0.478286	0.000032
C102	C	1.119709	0.021714	0.500032
C103	C	0.671990	-0.455672	0.000049
C104	C	1.171990	0.044328	0.500049
C105	C	0.775832	-0.469839	0.000070
C106	C	1.275832	0.030161	0.500070
C107	C	0.776543	-0.410443	0.000079
C108	C	1.276543	0.089557	0.500079
C109	C	0.724977	-0.373662	0.000073
C110	C	1.224977	0.126338	0.500073
C111	C	0.672701	-0.396276	0.000057
C112	C	1.172701	0.103724	0.500057
C113	C	0.568140	-0.441501	0.000017
C114	C	1.068140	0.058499	0.500017
C115	C	0.568857	-0.382099	0.000017
C116	C	1.068857	0.117901	0.500017
C117	C	0.621137	-0.359485	0.000033
C118	C	1.121137	0.140515	0.500033
C119	C	0.621847	-0.300099	0.000060
C120	C	1.121847	0.199901	0.500060
N121	N	0.674124	-0.277481	0.000067
N122	N	1.174124	0.222519	0.500067
C123	C	0.725690	-0.314263	0.000073
C124	C	1.225690	0.185737	0.500073
C125	C	0.617505	-0.662427	0.000029
C126	C	1.117505	-0.162427	0.500029
C127	C	0.616793	-0.721825	0.000035
C128	C	1.116793	-0.221825	0.500035
C129	C	0.720640	-0.735990	0.000049
C130	C	1.220640	-0.235990	0.500049
C131	C	0.721352	-0.676591	0.000050
C132	C	1.221352	-0.176591	0.500050
C133	C	0.669783	-0.639810	0.000036
C134	C	1.169783	-0.139810	0.500036
C135	C	0.727179	-0.189526	0.000093
C136	C	1.227179	0.310474	0.500093
C137	C	0.727886	-0.130124	0.000105
C138	C	1.227886	0.369876	0.500105
C139	C	0.624039	-0.115965	0.000086
C140	C	1.124039	0.384035	0.500086
C141	C	0.623332	-0.175361	0.000078
C142	C	1.123332	0.324639	0.500078
C143	C	0.674907	-0.212141	0.000078
C144	C	1.174907	0.287859	0.500078
O145	O	0.578083	-0.263312	0.000084
O146	O	1.078083	0.236688	0.500084
O147	O	0.770214	-0.289562	0.000068
O148	O	1.270214	0.210438	0.500068
C149	C	0.776489	0.069258	0.000084
C150	C	1.276489	0.569258	0.500084
C151	C	0.839708	0.070014	0.000087
C152	C	1.339708	0.570014	0.500087
C153	C	0.667592	0.178171	0.000050
C154	C	1.167592	0.678171	0.500050
C155	C	0.668358	0.241388	0.000037
C156	C	1.168358	0.741388	0.500037
N157	N	0.672323	0.074041	0.219547
N158	N	1.172323	0.574041	0.719547
N159	N	0.672360	0.074000	-0.219403
N160	N	1.172360	0.574000	0.280597
C161	C	0.631654	0.114690	0.469187
C162	C	1.131654	0.614690	0.969187
C163	C	0.683055	0.125444	0.530994
C164	C	1.183055	0.625444	1.030994
C165	C	0.672337	0.074027	0.408708
C166	C	1.172337	0.574027	0.908708
C167	C	0.620950	0.063286	0.530995
C168	C	1.120950	0.563286	1.030995
C169	C	0.672346	0.074015	0.591430
C170	C	1.172346	0.574015	1.091430
C171	C	0.723763	0.084807	0.469155
C172	C	1.223763	0.584807	0.969155
C173	C	0.661624	0.022627	0.469150
C174	C	1.161624	0.522627	0.969150
C175	C	0.713062	0.033359	0.530929
C176	C	1.213062	0.533359	1.030929
C177	C	0.672331	0.074036	0.303447
C178	C	1.172331	0.574036	0.803447
C179	C	0.672357	0.074007	0.696688
C180	C	1.172357	0.574007	1.196688
H181	H	0.118471	0.073346	-0.236536
H182	H	0.618471	0.573346	0.263464
C183	C	0.788431	-0.041285	0.492278
C184	C	1.288431	0.458715	0.992278
C185	C	0.759559	-0.013071	0.567306
C186	C	1.259559	0.486929	1.067306
H187	H	0.817139	-0.069944	0.514739
H188	H	1.317139	0.430056	1.014739
H189	H	0.761989	-0.058591	0.455201
H190	H	1.261989	0.441409	0.955201
H191	H	0.805754	-0.014454	0.456020
H192	H	1.305754	0.485546	0.956020
H193	H	0.742232	-0.039901	0.603560
H194	H	1.242232	0.460099	1.103560
H195	H	0.786005	0.004235	0.604398
H196	H	1.286005	0.504235	1.104398
C197	C	0.525914	0.043971	0.492810
C198	C	1.025914	0.543971	0.992810
C199	C	0.562281	0.051019	0.567662
C200	C	1.062281	0.551019	1.067662
H201	H	0.489696	0.036397	0.515446
H202	H	0.989696	0.536397	1.015446
H203	H	0.521202	0.077943	0.456590
H204	H	1.021202	0.577943	0.956590
H205	H	0.542179	0.012785	0.455639
H206	H	1.042179	0.512785	0.955639
H207	H	0.546018	0.082209	0.604829
H208	H	1.046018	0.582209	1.104829
H209	H	0.566992	0.017043	0.603897
H210	H	1.066992	0.517043	1.103897
C211	C	0.599862	-0.028909	0.377646
C212	C	1.099862	0.471091	0.877646
C213	C	0.649360	-0.036026	0.432437
C214	C	1.149360	0.463974	0.932437
H215	H	0.592289	-0.065118	0.354975
H216	H	1.092289	0.434882	0.854975
H217	H	0.568375	-0.012346	0.413895
H218	H	1.068375	0.487654	0.913895
H219	H	0.605357	-0.004441	0.326898
H220	H	1.105357	0.495559	0.826898
H221	H	0.643863	-0.060490	0.483188
H222	H	1.143863	0.439510	0.983188
H223	H	0.680854	-0.052597	0.396186
H224	H	1.180854	0.447403	0.896186
C225	C	0.695682	0.183309	0.664763
C226	C	1.195682	0.683309	1.164763
C227	C	0.695296	0.184114	0.567679
C228	C	1.195296	0.684114	1.067679
H229	H	0.703239	0.219530	0.687408
H230	H	1.203239	0.719530	1.187408
H231	H	0.659456	0.175404	0.686836
H232	H	1.159456	0.675404	1.186836
H233	H	0.724620	0.154452	0.685886
H234	H	1.224620	0.654452	1.185886
H235	H	0.666355	0.212968	0.546556
H236	H	1.166355	0.712968	1.046556
H237	H	0.731527	0.192027	0.545598
H238	H	1.231527	0.692027	1.045598
C239	C	0.535760	-0.085593	-0.079218
C240	C	1.035760	0.414407	0.420782
C241	C	0.567360	-0.075527	0.000073
C242	C	1.067360	0.424473	0.500073
H243	H	0.500768	-0.060629	-0.079228
H244	H	1.000768	0.439371	0.420772
H245	H	0.557222	-0.078771	-0.132981
H246	H	1.057222	0.421229	0.367019
H247	H	0.527853	-0.124205	-0.079211
H248	H	1.027853	0.375795	0.420789
H249	H	0.575271	-0.036916	0.000062
H250	H	1.075271	0.463084	0.500062
H251	H	0.545893	-0.082345	0.053849
H252	H	1.045893	0.417655	0.553849
C253	C	-0.124613	0.070417	-0.250189
C254	C	0.375387	0.570417	0.249811
C255	C	-0.163232	0.069963	-0.176402
C256	C	0.336768	0.569963	0.323598
H257	H	-0.144763	0.070165	-0.307242
H258	H	0.355237	0.570165	0.192758
H259	H	-0.105980	0.103910	-0.246700
H260	H	0.394020	0.603910	0.253300
H261	H	-0.096911	0.037478	-0.246674
H262	H	0.403089	0.537478	0.253326
H263	H	-0.190931	0.102904	-0.179913
H264	H	0.309069	0.602904	0.320087
H265	H	-0.181874	0.036466	-0.179893
H266	H	0.318126	0.536466	0.320107
H267	H	0.226195	0.074670	0.236666
H268	H	0.726195	0.574670	0.736666
H269	H	0.226216	0.074642	-0.236541
H270	H	0.726216	0.574642	0.263459
C271	C	0.002281	0.022908	-0.181565
C272	C	0.502281	0.522908	0.318435
C273	C	-0.038554	0.071461	-0.176419
C274	C	0.461446	0.571461	0.323581
H275	H	0.022425	0.023148	-0.238628
H276	H	0.522425	0.523148	0.261372
H277	H	0.028472	0.023230	-0.131513
H278	H	0.528472	0.523230	0.368487
H279	H	-0.016363	-0.010583	-0.178057
H280	H	0.483637	0.489417	0.321943
H281	H	-0.019910	0.104953	-0.179920
H282	H	0.480090	0.604953	0.320080
H283	H	-0.064749	0.071144	-0.226485
H284	H	0.435251	0.571144	0.273515
C285	C	0.421852	0.077006	-0.250221
C286	C	0.921852	0.577006	0.249779
C287	C	0.383232	0.076545	-0.176438
C288	C	0.883232	0.576545	0.323562
H289	H	0.401704	0.076753	-0.307276
H290	H	0.901704	0.576753	0.192724
H291	H	0.440481	0.110501	-0.246728
H292	H	0.940481	0.610501	0.253272
H293	H	0.449557	0.044069	-0.246707
H294	H	0.949557	0.544069	0.253293
H295	H	0.355529	0.109484	-0.179949
H296	H	0.855529	0.609484	0.320051
H297	H	0.364594	0.043046	-0.179933
H298	H	0.864594	0.543046	0.320067
H299	H	0.391690	0.076679	0.152587
H300	H	0.891690	0.576679	0.652587
H301	H	-0.154782	0.070095	0.152607
H302	H	0.345218	0.570095	0.652607
C303	C	0.148594	0.073741	0.334403
C304	C	0.648594	0.573741	0.834403
C305	C	0.109981	0.073269	0.260619
C306	C	0.609981	0.573269	0.760619
H307	H	0.128440	0.073506	0.391457
H308	H	0.628440	0.573506	0.891457
H309	H	0.176293	0.040805	0.330909
H310	H	0.676293	0.540805	0.830909
H311	H	0.167230	0.107237	0.330889
H312	H	0.667230	0.607237	0.830889
H313	H	0.091349	0.039771	0.264129
H314	H	0.591349	0.539771	0.764129
H315	H	0.082272	0.106208	0.264115
H316	H	0.582272	0.606208	0.764115
H317	H	0.575509	-0.632483	0.000026
H318	H	1.075509	-0.132483	0.500026
H319	H	0.499460	0.077952	-0.152478
H320	H	0.999460	0.577952	0.347522
C321	C	0.520921	-0.526253	-0.000016
C322	C	1.020921	-0.026253	0.499984
C323	C	0.510671	-0.466348	-0.000012
C324	C	1.010671	0.033652	0.499988
H325	H	0.485439	-0.541590	-0.000031
H326	H	0.985439	-0.041590	0.499969
H327	H	0.542144	-0.538895	-0.053785
H328	H	1.042144	-0.038895	0.446215
H329	H	0.542125	-0.538899	0.053778
H330	H	1.042125	-0.038899	0.553778
H331	H	0.489470	-0.453702	-0.053809
H332	H	0.989470	0.046298	0.446191
H333	H	0.489438	-0.453700	0.053763
H334	H	0.989438	0.046300	0.553763
C335	C	0.469281	0.077627	0.250318
C336	C	0.969281	0.577627	0.750318
C337	C	0.507901	0.078087	0.176534
C338	C	1.007901	0.578087	0.676534
H339	H	0.489430	0.077870	0.307372
H340	H	0.989430	0.577870	0.807372
H341	H	0.441583	0.110562	0.246811
H342	H	0.941583	0.610562	0.746811
H343	H	0.450646	0.044131	0.246817
H344	H	0.950646	0.544131	0.746817
H345	H	0.526534	0.111586	0.180032
H346	H	1.026534	0.611586	0.680032
H347	H	0.535610	0.045148	0.180043
H348	H	1.035610	0.545148	0.680043
H349	H	-0.047015	0.071399	0.152610
H350	H	0.452985	0.571399	0.652610
C351	C	0.830465	-0.150101	0.000111
C352	C	1.330465	0.349899	0.500111
C353	C	0.785357	-0.105269	0.000115
C354	C	1.285357	0.394731	0.500115
H355	H	0.865944	-0.134756	0.000110
H356	H	1.365944	0.365244	0.500110
H357	H	0.828023	-0.172975	0.053886
H358	H	1.328023	0.327025	0.553886
H359	H	0.828025	-0.172973	-0.053676
H360	H	1.328025	0.327027	0.446324
H361	H	0.787795	-0.082399	0.053907
H362	H	1.287795	0.417601	0.553907
H363	H	0.787800	-0.082386	-0.053666
H364	H	1.287800	0.417614	0.446334
H365	H	0.767233	0.093939	0.442105
H366	H	1.267233	0.593939	0.942105
C367	C	0.786651	-0.264531	-0.079188
C368	C	1.286651	0.235469	0.420812
C369	C	0.783871	-0.229948	0.000096
C370	C	1.283871	0.270052	0.500096
H371	H	0.821651	-0.289483	-0.079182
H372	H	1.321651	0.210517	0.420818
H373	H	0.755424	-0.286506	-0.079191
H374	H	1.255424	0.213494	0.420809
H375	H	0.784773	-0.241057	-0.132960
H376	H	1.284773	0.258943	0.367040
H377	H	0.785745	-0.253423	0.053870
H378	H	1.285745	0.246577	0.553870
H379	H	0.815107	-0.207972	0.000109
H380	H	1.315107	0.292028	0.500109
C381	C	0.879116	-0.430429	0.000083
C382	C	1.379116	0.069571	0.500083
C383	C	0.834012	-0.385591	0.000084
C384	C	1.334012	0.114409	0.500084
H385	H	0.914597	-0.415088	0.000078
H386	H	1.414597	0.084912	0.500078
H387	H	0.876672	-0.453299	0.053860
H388	H	1.376672	0.046701	0.553860
H389	H	0.876673	-0.453302	-0.053703
H390	H	1.376673	0.046698	0.446297
H391	H	0.836453	-0.362721	0.053873
H392	H	1.336453	0.137279	0.553873
H393	H	0.836458	-0.362711	-0.053699
H394	H	1.336458	0.137289	0.446301
H395	H	0.817825	-0.499782	0.000072
H396	H	1.317825	0.000218	0.500072
H397	H	0.763923	-0.658183	0.000062
H398	H	1.263923	-0.158183	0.500062
H399	H	0.762627	-0.765949	0.000051
H400	H	1.262627	-0.265949	0.500051
H401	H	0.574220	-0.740232	0.000038
H402	H	1.074220	-0.240232	0.500038
H403	H	0.526862	-0.352154	0.000004
H404	H	1.026862	0.147846	0.500004
H405	H	0.580761	-0.193774	0.000091
H406	H	1.080761	0.306226	0.500091
H407	H	0.597285	0.149104	0.442077
H408	H	1.097285	0.649104	0.942077
