data_functionalizedCrystal
_audit_creation_method	'MofGen! by Chris Wilmer'
_symmetry_space_group_name_H-M	'P1'
_symmetry_Int_Tables_number	1
_symmetry_cell_setting	triclinic
loop_
_symmetry_equiv_pos_as_xyz
  x,y,z
_cell_length_a	14.519710
_cell_length_b	16.992695
_cell_length_c	15.455313
_cell_angle_alpha	87.152573
_cell_angle_beta	87.314736
_cell_angle_gamma	92.825816
loop_
_atom_site_label
_atom_site_type_symbol
_atom_site_fract_x
_atom_site_fract_y
_atom_site_fract_z
O1	O	1.235033	-0.099371	-0.072113
O2	O	1.735033	0.400629	0.427887
O3	O	0.967425	-0.111477	-0.072119
O4	O	1.467425	0.388523	0.427881
O5	O	1.100156	0.008720	-0.072109
O6	O	1.600156	0.508720	0.427891
O7	O	1.102302	-0.219568	-0.072123
O8	O	1.602302	0.280432	0.427877
O9	O	1.092564	0.001875	0.072153
O10	O	1.592564	0.501875	0.572153
O11	O	0.959833	-0.118322	0.072143
O12	O	1.459833	0.381678	0.572143
O13	O	1.227441	-0.106216	0.072149
O14	O	1.727441	0.393784	0.572149
Cu15	Cu	1.092944	-0.112894	0.085318
Cu16	Cu	1.592944	0.387106	0.585318
Cu17	Cu	1.101922	-0.104799	-0.085288
Cu18	Cu	1.601922	0.395201	0.414712
O19	O	1.094710	-0.226413	0.072139
O20	O	1.594710	0.273587	0.572139
C21	C	0.929229	-0.114335	0.000011
C22	C	1.429229	0.385665	0.500011
C23	C	0.826726	-0.112644	0.000009
C24	C	1.326726	0.387356	0.500009
C25	C	1.265637	-0.103358	0.000017
C26	C	1.765637	0.396642	0.500017
C27	C	1.368140	-0.105048	0.000013
C28	C	1.868140	0.394952	0.500013
C29	C	1.093600	0.034514	0.000022
C30	C	1.593600	0.534514	0.500022
C31	C	1.085364	0.121570	0.000021
C32	C	1.585364	0.621570	0.500021
C33	C	1.743483	-0.111272	0.000013
C34	C	2.243483	0.388728	0.500013
C35	C	1.639051	-0.109544	0.000012
C36	C	2.139051	0.390456	0.500012
C37	C	1.555815	-0.108160	0.000012
C38	C	2.055815	0.391840	0.500012
C39	C	1.451376	-0.106432	0.000014
C40	C	1.951376	0.393568	0.500014
C41	C	1.101266	-0.252207	0.000006
C42	C	1.601266	0.247793	0.500006
C43	C	1.109502	-0.339262	0.000001
C44	C	1.609502	0.160738	0.500001
N45	N	1.086635	-0.118587	0.205313
N46	N	1.586635	0.381413	0.705313
C47	C	1.164824	0.171698	0.000024
C48	C	1.664824	0.671698	0.500024
C49	C	1.157081	0.253496	0.000016
C50	C	1.657081	0.753496	0.500016
C51	C	1.069877	0.285163	0.000011
C52	C	1.569877	0.785163	0.500011
C53	C	0.990412	0.235028	0.000006
C54	C	1.490412	0.735028	0.500006
C55	C	0.998156	0.153232	0.000008
C56	C	1.498156	0.653232	0.500008
C57	C	1.037781	0.528807	-0.000002
C58	C	1.537781	1.028807	0.499998
C59	C	1.030042	0.610609	-0.000001
C60	C	1.530042	1.110609	0.499999
C61	C	1.196713	0.629072	0.000007
C62	C	1.696713	1.129072	0.500007
C63	C	1.204449	0.547273	0.000015
C64	C	1.704449	1.047273	0.500015
C65	C	1.124984	0.497145	0.000005
C66	C	1.624984	0.997145	0.500005
N67	N	1.061960	0.368774	0.000005
N68	N	1.561960	0.868774	0.500005
N69	N	1.132902	0.413537	0.000004
N70	N	1.632902	0.913537	0.500004
N71	N	1.108238	-0.099100	-0.205283
N72	N	1.608238	0.400900	0.294717
C73	C	1.143046	-0.067542	0.250711
C74	C	1.643046	0.432458	0.750711
C75	C	1.138284	-0.071855	0.341519
C76	C	1.638284	0.428145	0.841519
C77	C	1.077116	-0.127217	0.386927
C78	C	1.577116	0.372783	0.886927
C79	C	1.020699	-0.178264	0.341522
C80	C	1.520699	0.321736	0.841522
C81	C	1.025456	-0.173947	0.250716
C82	C	1.525456	0.326053	0.750716
C83	C	1.056578	-0.145830	0.658507
C84	C	1.556578	0.354170	1.158507
C85	C	1.051827	-0.150144	0.749319
C86	C	1.551827	0.349856	1.249319
C87	C	1.169412	-0.043734	0.749310
C88	C	1.669412	0.456266	1.249310
C89	C	1.174168	-0.039425	0.658502
C90	C	1.674168	0.460575	1.158502
C91	C	1.117748	-0.090469	0.613105
C92	C	1.617748	0.409531	1.113105
N93	N	1.072249	-0.131628	0.479746
N94	N	1.572249	0.368372	0.979746
N95	N	1.122610	-0.086054	0.520287
N96	N	1.622610	0.413946	1.020287
H97	H	1.235835	0.145922	0.000033
H98	H	1.735835	0.645922	0.500033
H99	H	0.979519	-0.215512	0.213754
H100	H	1.479519	0.284488	0.713754
H101	H	1.184218	-0.030290	0.378482
H102	H	1.684218	0.469710	0.878482
C103	C	0.950365	0.473677	-0.000017
C104	C	1.450365	0.973677	0.499983
N105	N	0.884520	0.432150	-0.000032
N106	N	1.384520	0.932150	0.499968
H107	H	1.192860	-0.022464	0.213747
H108	H	1.692860	0.477536	0.713747
H109	H	0.933451	0.112417	0.000005
H110	H	1.433451	0.612417	0.500005
C111	C	0.994640	-0.202082	0.608582
C112	C	1.494640	0.297918	1.108582
N113	N	0.948031	-0.244491	0.570976
N114	N	1.448031	0.255509	1.070976
H115	H	0.919408	0.260818	-0.000004
H116	H	1.419408	0.760818	0.499996
H117	H	0.970889	-0.223338	0.378498
H118	H	1.470889	0.276662	0.878498
H119	H	1.215346	-0.002175	0.786280
H120	H	1.715346	0.497825	1.286280
C121	C	1.300380	0.512446	0.000021
C122	C	1.800380	1.012446	0.500021
N123	N	1.372636	0.486214	0.000029
N124	N	1.872636	0.986214	0.500029
C125	C	1.244493	0.308634	0.000033
C126	C	1.744493	0.808634	0.500033
N127	N	1.310336	0.350164	0.000050
N128	N	1.810336	0.850164	0.500050
H129	H	1.261409	0.669894	0.000013
H130	H	1.761409	1.169894	0.500013
H131	H	1.002013	-0.195230	0.786285
H132	H	1.502013	0.304770	1.286285
H133	H	0.959026	0.636388	0.000009
H134	H	1.459026	1.136388	0.500009
C135	C	1.241453	0.021481	0.608560
C136	C	1.741453	0.521481	1.108560
N137	N	1.292134	0.067357	0.570944
N138	N	1.792134	0.567357	1.070944
