data_functionalizedCrystal
_audit_creation_method	'MofGen! by Chris Wilmer'
_symmetry_space_group_name_H-M	'P1'
_symmetry_Int_Tables_number	1
_symmetry_cell_setting	triclinic
loop_
_symmetry_equiv_pos_as_xyz
  x,y,z
_cell_length_a	15.944551
_cell_length_b	15.944564
_cell_length_c	9.130307
_cell_angle_alpha	90.005872
_cell_angle_beta	90.003731
_cell_angle_gamma	96.498664
loop_
_atom_site_label
_atom_site_type_symbol
_atom_site_fract_x
_atom_site_fract_y
_atom_site_fract_z
O1	O	1.114525	-0.108332	-0.121651
O2	O	0.869975	-0.121688	-0.121688
O3	O	0.998923	0.007264	-0.121654
O4	O	0.985577	-0.237284	-0.121684
O5	O	0.998921	0.007269	0.121945
O6	O	0.869974	-0.121683	0.121911
O7	O	1.114523	-0.108327	0.121948
Cu8	Cu	0.992248	-0.115005	0.144172
Cu9	Cu	0.992250	-0.115010	-0.143912
O10	O	0.985576	-0.237279	0.121915
C11	C	0.838681	-0.121131	0.000107
C12	C	0.745434	-0.119469	0.000094
C13	C	0.530574	-0.035565	0.000132
C14	C	0.469557	-0.074529	-0.119979
C15	C	0.574708	-0.116462	0.000111
C16	C	0.469577	-0.074544	0.120190
C17	C	0.409796	-0.113551	0.000135
C18	C	0.514919	-0.155448	-0.120100
C19	C	0.514946	-0.155451	0.120178
C20	C	0.453946	-0.194475	0.000036
C21	C	0.669711	-0.118136	0.000097
C22	C	0.314794	-0.111883	0.000139
C23	C	0.998366	0.038560	0.000146
C24	C	0.996699	0.131806	0.000147
C25	C	0.912785	0.346661	0.000116
C26	C	0.951744	0.407681	0.120231
C27	C	0.993684	0.302531	0.000137
C28	C	0.951765	0.407659	-0.119938
C29	C	0.990766	0.467442	0.000120
C30	C	1.032665	0.362322	0.120351
C31	C	1.032675	0.362294	-0.119926
C32	C	1.071692	0.423296	0.000218
C33	C	0.995363	0.207529	0.000147
C34	C	0.989093	0.562443	0.000120
C35	C	1.145818	-0.108884	0.000150
C36	C	1.239064	-0.110546	0.000154
N37	N	0.992252	-0.115008	-0.346534
C38	C	0.986121	0.731423	0.000114
C39	C	0.987753	0.638173	0.000108
C40	C	1.106659	-0.001032	-0.346495
C41	C	1.163859	0.055962	-0.423142
C42	C	1.163859	0.055971	-0.576475
C43	C	1.106654	-0.001021	-0.653165
C44	C	1.049453	-0.058015	-0.576518
C45	C	1.049458	-0.058017	-0.423181
C46	C	0.935052	-0.171994	-0.576558
C47	C	0.935047	-0.172001	-0.423224
C48	C	0.877847	-0.228987	-0.653248
C49	C	0.820641	-0.285978	-0.576601
C50	C	0.820643	-0.285985	-0.423258
C51	C	0.877847	-0.228995	-0.346577
N52	N	0.992252	-0.115000	0.346795
H53	H	0.449488	-0.040311	0.221732
O54	O	0.910927	0.431761	-0.240975
C55	C	0.910609	0.520151	-0.240006
H56	H	0.918939	0.544538	-0.122936
H57	H	0.848015	0.536841	-0.285510
H58	H	0.964615	0.550546	-0.310787
H59	H	0.563904	0.031573	-0.000008
O60	O	0.765047	-0.341417	-0.650868
C61	C	0.714540	-0.391705	-0.550344
H62	H	0.748961	-0.392742	-0.441033
H63	H	0.701613	-0.458767	-0.594667
H64	H	0.652205	-0.364273	-0.534046
H65	H	0.845638	0.313354	0.000225
H66	H	0.534909	-0.189641	-0.221756
H67	H	1.066863	0.342162	-0.221469
O68	O	0.910791	0.431621	0.241256
C69	C	0.827049	0.392201	0.240839
H70	H	0.807557	0.373953	0.123955
H71	H	0.783224	0.437651	0.286204
H72	H	0.822651	0.333126	0.312020
O73	O	1.073394	0.338335	0.241589
C74	C	1.074458	0.250039	0.240146
H75	H	1.020540	0.219841	0.168955
H76	H	1.066516	0.224591	0.356597
H77	H	1.137176	0.234284	0.193722
O78	O	1.219301	0.111380	-0.651088
C79	C	1.174404	0.163335	-0.739722
H80	H	1.108639	0.130025	-0.762707
H81	H	1.209471	0.176560	-0.847543
H82	H	1.168798	0.225433	-0.680594
O83	O	0.445613	-0.033581	-0.241003
C84	C	0.485029	0.050162	-0.240589
H85	H	0.503278	0.069658	-0.123706
H86	H	0.439576	0.093984	-0.285949
H87	H	0.544103	0.054562	-0.311774
O88	O	0.414422	-0.274663	-0.000305
C89	C	0.437553	-0.316996	-0.127092
H90	H	0.459454	-0.268776	-0.215197
H91	H	0.380865	-0.360340	-0.169015
H92	H	0.491044	-0.356105	-0.099589
O93	O	0.765042	-0.341234	-0.348645
C94	C	0.713297	-0.296120	-0.259973
H95	H	0.746855	-0.230459	-0.236976
H96	H	0.699950	-0.331159	-0.152160
H97	H	0.651245	-0.290260	-0.319075
H98	H	1.210437	0.102363	-0.360687
H99	H	1.138898	0.456454	0.000297
H100	H	0.535078	-0.189637	0.221720
H101	H	0.877852	-0.228980	-0.778100
H102	H	1.106658	-0.001027	-0.221643
H103	H	1.106664	-0.001017	-0.778017
H104	H	0.877850	-0.228992	-0.221725
