data_functionalizedCrystal
_audit_creation_method	'MofGen! by Chris Wilmer'
_symmetry_space_group_name_H-M	'P1'
_symmetry_Int_Tables_number	1
_symmetry_cell_setting	triclinic
loop_
_symmetry_equiv_pos_as_xyz
  x,y,z
_cell_length_a	21.395364
_cell_length_b	19.121063
_cell_length_c	21.395355
_cell_angle_alpha	87.579260
_cell_angle_beta	90.024552
_cell_angle_gamma	92.483930
loop_
_atom_site_label
_atom_site_type_symbol
_atom_site_fract_x
_atom_site_fract_y
_atom_site_fract_z
Zn1	Zn	0.947240	-0.279421	0.364885
Zn2	Zn	1.447240	0.220579	0.864885
Zn3	Zn	0.942679	-0.396856	0.264572
Zn4	Zn	1.442679	0.103144	0.764572
Zn5	Zn	0.842454	-0.279451	0.260123
Zn6	Zn	1.342454	0.220549	0.760123
Zn7	Zn	0.837960	-0.396868	0.369313
Zn8	Zn	1.337960	0.103132	0.869313
O9	O	0.892583	-0.338149	0.314723
O10	O	1.392583	0.161851	0.814723
O11	O	1.034313	-0.294981	0.351587
O12	O	1.534313	0.205019	0.851587
O13	O	0.929356	-0.381290	0.176304
O14	O	1.429356	0.118710	0.676304
O15	O	0.860143	-0.181161	0.270304
O16	O	1.360143	0.318839	0.770304
O17	O	1.030963	-0.381260	0.277888
O18	O	1.530963	0.118740	0.777888
O19	O	0.937129	-0.181138	0.347273
O20	O	1.437129	0.318862	0.847273
O21	O	0.855721	-0.295033	0.173035
O22	O	1.355721	0.204967	0.673035
O23	O	0.754179	-0.295045	0.274598
O24	O	1.254179	0.204955	0.774598
O25	O	0.852485	-0.381281	0.456403
O26	O	1.352485	0.118719	0.956403
O27	O	0.750878	-0.381311	0.354820
O28	O	1.250878	0.118689	0.854820
O29	O	0.932772	-0.294993	0.453150
O30	O	1.432772	0.205007	0.953150
O31	O	0.924999	-0.495144	0.282182
O32	O	1.424999	0.004856	0.782182
O33	O	0.848062	-0.495153	0.359134
O34	O	1.348062	0.004847	0.859134
C35	C	0.729794	-0.338183	0.314707
C36	C	1.229794	0.161817	0.814707
C37	C	0.660152	-0.338215	0.314715
C38	C	1.160152	0.161785	0.814715
C39	C	0.629203	-0.293363	0.353155
C40	C	1.129203	0.206637	0.853155
C41	C	0.563768	-0.293344	0.353157
C42	C	1.063768	0.206656	0.853157
C43	C	0.529284	-0.338190	0.314726
C44	C	1.029284	0.161810	0.814726
C45	C	0.560241	-0.383045	0.276278
C46	C	1.060241	0.116955	0.776278
C47	C	0.625675	-0.383058	0.276273
C48	C	1.125675	0.116942	0.776273
C49	C	0.423156	-0.401442	0.312093
C50	C	0.923156	0.098558	0.812093
C51	C	0.357724	-0.401431	0.312103
C52	C	0.857724	0.098569	0.812103
C53	C	0.327465	-0.338151	0.314738
C54	C	0.827465	0.161849	0.814738
C55	C	0.362647	-0.274881	0.317377
C56	C	0.862647	0.225119	0.817377
C57	C	0.428081	-0.274894	0.317372
C58	C	0.928081	0.225106	0.817372
C59	C	0.458332	-0.338181	0.314727
C60	C	0.958332	0.161819	0.814727
C61	C	0.225565	-0.293275	0.353182
C62	C	0.725565	0.206725	0.853182
C63	C	0.160129	-0.293255	0.353179
C64	C	0.660129	0.206745	0.853179
C65	C	0.156603	-0.382963	0.276304
C66	C	0.656603	0.117037	0.776304
C67	C	0.222038	-0.382976	0.276303
C68	C	0.722038	0.117024	0.776303
C69	C	0.256515	-0.338134	0.314746
C70	C	0.756515	0.161866	0.814746
C71	C	0.885565	-0.520633	0.321635
C72	C	1.385565	-0.020633	0.821635
C73	C	0.882620	-0.598701	0.324613
C74	C	1.382620	-0.098701	0.824613
C75	C	0.921324	-0.635349	0.285980
C76	C	1.421324	-0.135349	0.785980
C77	C	0.918558	-0.708702	0.288784
C78	C	1.418558	-0.208702	0.788784
C79	C	0.877084	-0.745405	0.330218
C80	C	1.377084	-0.245405	0.830218
C81	C	0.838379	-0.708752	0.368856
C82	C	1.338379	-0.208752	0.868856
C83	C	0.841148	-0.635400	0.366054
C84	C	1.341148	-0.135400	0.866054
C85	C	0.866719	-0.966880	0.340683
C86	C	1.366719	-0.466880	0.840683
C87	C	0.863951	-1.040237	0.343480
C88	C	1.363951	-0.540237	0.843480
C89	C	0.944132	-1.040182	0.263409
C90	C	1.444132	-0.540182	0.763409
C91	C	0.946895	-0.966829	0.260609
C92	C	1.446895	-0.466829	0.760609
C93	C	0.908192	-0.930182	0.299248
C94	C	1.408192	-0.430182	0.799248
C95	C	0.874255	-0.820383	0.333084
C96	C	1.374255	-0.320383	0.833084
C97	C	0.911025	-0.855205	0.296385
C98	C	1.411025	-0.355205	0.796385
C99	C	1.056008	-0.338115	0.314740
C100	C	1.556008	0.161885	0.814740
C101	C	1.125650	-0.338101	0.314747
C102	C	1.625650	0.161899	0.814747
C103	C	0.892636	-0.338135	0.478146
C104	C	1.392636	0.161865	0.978146
C105	C	0.892658	-0.338129	0.547787
C106	C	1.392658	0.161871	1.047787
C107	C	0.899646	-0.154952	0.307798
C108	C	1.399646	0.345048	0.807798
C109	C	0.902655	-0.076885	0.304847
C110	C	1.402655	0.423115	0.804847
C111	C	0.892569	-0.338113	0.151934
C112	C	1.392569	0.161887	0.651934
C113	C	0.892675	-0.337921	0.082286
C114	C	1.392675	0.162079	0.582286
C115	C	0.934462	-0.293197	0.578807
C116	C	1.434462	0.206803	1.078807
C117	C	0.934462	-0.293166	0.644241
C118	C	1.434462	0.206834	1.144241
C119	C	0.892665	-0.338081	0.678654
C120	C	1.392665	0.161919	1.178654
C121	C	0.850853	-0.383016	0.647626
C122	C	1.350853	0.116984	1.147626
C123	C	0.850850	-0.383040	0.582193
C124	C	1.350850	0.116960	1.082193
C125	C	0.885285	-0.401324	0.784724
C126	C	1.385285	0.098676	1.284724
C127	C	0.885293	-0.401301	0.850156
C128	C	1.385293	0.098699	1.350156
C129	C	0.892672	-0.338007	0.880472
C130	C	1.392672	0.161993	1.380472
C131	C	0.900056	-0.274733	0.845347
C132	C	1.400056	0.225267	1.345347
C133	C	0.900052	-0.274757	0.779914
C134	C	1.400052	0.225243	1.279914
C135	C	0.892664	-0.338060	0.749605
C136	C	1.392664	0.161940	1.249605
C137	C	0.934478	-0.293038	0.982443
C138	C	1.434478	0.206962	1.482443
C139	C	0.934474	-0.293006	1.047878
C140	C	1.434474	0.206994	1.547878
C141	C	0.850868	-0.382863	1.051262
C142	C	1.350868	0.117137	1.551262
C143	C	0.850869	-0.382888	0.985827
C144	C	1.350869	0.117112	1.485827
C145	C	0.892677	-0.337976	0.951422
C146	C	1.392677	0.162024	1.451422
H147	H	0.134932	-0.256727	0.384481
H148	H	0.634932	0.243273	0.884481
F149	F	0.819800	-1.079297	0.387576
F150	F	1.319800	-0.579297	0.887576
F151	F	0.907911	-0.207366	0.877606
F152	F	1.407911	0.292634	1.377606
F153	F	0.530823	-0.245603	0.394071
F154	F	1.030823	0.254397	0.894071
H155	H	0.835204	-0.937048	0.372144
H156	H	1.335204	-0.437048	0.872144
F157	F	0.330450	-0.207529	0.320182
F158	F	0.830450	0.292471	0.820182
H159	H	0.955094	-0.605470	0.252237
H160	H	1.455094	-0.105470	0.752237
H161	H	0.968505	-0.256625	0.550798
H162	H	1.468505	0.243375	1.050798
H163	H	0.968515	-0.256413	1.073134
H164	H	1.468515	0.243587	1.573134
H165	H	0.456724	-0.223377	0.319519
H166	H	0.956724	0.276623	0.819519
F167	F	0.978971	-0.245237	0.945824
F168	F	1.478971	0.254763	1.445824
H169	H	0.253638	-0.256757	0.384480
H170	H	0.753638	0.243243	0.884480
F171	F	0.794242	-0.747816	0.412957
F172	F	1.294242	-0.247816	0.912957
H173	H	0.816829	-0.419426	1.079279
H174	H	1.316829	0.080574	1.579279
H175	H	0.816831	-0.419481	0.960571
H176	H	1.316831	0.080519	1.460571
F177	F	0.959755	-0.747702	0.247667
F178	F	1.459755	-0.247702	0.747667
F179	F	0.254977	-0.430712	0.235388
F180	F	0.754977	0.069288	0.735388
H181	H	0.816819	-0.419584	0.675648
H182	H	1.316819	0.080416	1.175648
H183	H	0.329083	-0.452949	0.309957
H184	H	0.829083	0.047051	0.809957
H185	H	0.816805	-0.419629	0.556936
H186	H	1.316805	0.080371	1.056936
H187	H	0.840485	-0.850275	0.366819
H188	H	1.340485	-0.350275	0.866819
F189	F	0.877440	-0.468642	0.887532
F190	F	1.377440	0.031358	1.387532
H191	H	0.944796	-0.825319	0.262651
H192	H	1.444796	-0.325319	0.762651
H193	H	0.809632	-0.605562	0.397514
H194	H	1.309632	-0.105562	0.897514
H195	H	0.879110	-0.452852	0.760046
H196	H	1.379110	0.047148	1.260046
F197	F	0.991045	-0.927772	0.216515
F198	F	1.491045	-0.427772	0.716515
H199	H	0.128527	-0.419477	0.245013
H200	H	0.628527	0.080523	0.745013
H201	H	0.447787	-0.452975	0.309947
H202	H	0.947787	0.047025	0.809947
H203	H	0.657270	-0.256848	0.384458
H204	H	1.157270	0.243152	0.884458
H205	H	0.532160	-0.419558	0.244987
H206	H	1.032160	0.080442	0.744987
F207	F	0.978948	-0.245330	0.677262
F208	F	1.478948	0.254670	1.177262
H209	H	0.975643	-1.070027	0.231952
H210	H	1.475643	-0.570027	0.731952
H211	H	0.650873	-0.419583	0.244970
H212	H	1.150873	0.080417	0.744970
F213	F	0.907908	-0.207419	0.742535
F214	F	1.407908	0.292581	1.242535
