data_functionalizedCrystal
_audit_creation_method	'MofGen! by Chris Wilmer'
_symmetry_space_group_name_H-M	'P1'
_symmetry_Int_Tables_number	1
_symmetry_cell_setting	triclinic
loop_
_symmetry_equiv_pos_as_xyz
  x,y,z
_cell_length_a	19.077399
_cell_length_b	29.839131
_cell_length_c	19.076919
_cell_angle_alpha	87.739939
_cell_angle_beta	85.520477
_cell_angle_gamma	92.335155
loop_
_atom_site_label
_atom_site_type_symbol
_atom_site_fract_x
_atom_site_fract_y
_atom_site_fract_z
Zn1	Zn	1.061631	-0.160755	0.355347
Zn2	Zn	1.394964	0.172579	0.688681
Zn3	Zn	1.728297	0.505912	1.022014
Zn4	Zn	1.066265	-0.232740	0.237446
Zn5	Zn	1.399599	0.100593	0.570780
Zn6	Zn	1.732932	0.433927	0.904113
Zn7	Zn	0.948486	-0.160767	0.242202
Zn8	Zn	1.281819	0.172566	0.575535
Zn9	Zn	1.615152	0.505900	0.908869
Zn10	Zn	0.943692	-0.239002	0.360013
Zn11	Zn	1.277025	0.094331	0.693346
Zn12	Zn	1.610359	0.427665	1.026680
O13	O	1.005018	-0.198316	0.298752
O14	O	1.338352	0.135017	0.632086
O15	O	1.671685	0.468351	0.965419
O16	O	1.160895	-0.167678	0.335765
O17	O	1.494228	0.165655	0.669098
O18	O	1.827561	0.498989	1.002432
O19	O	1.054587	-0.220577	0.139431
O20	O	1.387921	0.112756	0.472764
O21	O	1.721254	0.446089	0.806098
O22	O	0.963561	-0.097897	0.257248
O23	O	1.296895	0.235436	0.590582
O24	O	1.630228	0.568769	0.923915
O25	O	1.164300	-0.220565	0.249144
O26	O	1.497633	0.112768	0.582477
O27	O	1.830966	0.446101	0.915810
O28	O	1.046688	-0.097888	0.340376
O29	O	1.380022	0.235445	0.673709
O30	O	1.713355	0.568778	1.007043
O31	O	0.968055	-0.167699	0.142925
O32	O	1.301388	0.165635	0.476258
O33	O	1.634722	0.498968	0.809591
O34	O	0.849201	-0.173771	0.261773
O35	O	1.182534	0.159563	0.595106
O36	O	1.515867	0.492896	0.928439
O37	O	0.955391	-0.231238	0.458041
O38	O	1.288725	0.102095	0.791374
O39	O	1.622058	0.435429	1.124707
O40	O	0.845679	-0.231250	0.348328
O41	O	1.179012	0.102084	0.681661
O42	O	1.512346	0.435417	1.014995
O43	O	1.042040	-0.173750	0.454613
O44	O	1.375374	0.159583	0.787946
O45	O	1.708707	0.492917	1.121279
O46	O	1.049939	-0.296439	0.253668
O47	O	1.383272	0.036895	0.587001
O48	O	1.716606	0.370228	0.920334
O49	O	0.959885	-0.301039	0.343717
O50	O	1.293218	0.032294	0.677050
O51	O	1.626552	0.365627	1.010384
C52	C	0.821861	-0.203191	0.306073
C53	C	1.155195	0.130142	0.639406
C54	C	1.488528	0.463475	0.972740
C55	C	0.743505	-0.205288	0.309222
C56	C	1.076838	0.128045	0.642555
C57	C	1.410172	0.461378	0.975888
C58	C	0.708503	-0.176306	0.265710
C59	C	1.041837	0.157027	0.599043
C60	C	1.375170	0.490361	0.932377
C61	C	0.634879	-0.178280	0.268668
C62	C	0.968213	0.155053	0.602002
C63	C	1.301546	0.488387	0.935335
C64	C	0.596258	-0.209235	0.315142
C65	C	0.929592	0.124098	0.648475
C66	C	1.262925	0.457432	0.981809
C67	C	0.631265	-0.238220	0.358655
C68	C	0.964599	0.095113	0.691989
C69	C	1.297932	0.428446	1.025322
C70	C	0.704888	-0.236248	0.355693
C71	C	1.038221	0.097085	0.689026
C72	C	1.371555	0.430419	1.022360
C73	C	0.375876	-0.218349	0.328823
C74	C	0.709209	0.114984	0.662156
C75	C	1.042543	0.448317	0.995489
C76	C	0.302248	-0.220319	0.331783
C77	C	0.635582	0.113015	0.665117
C78	C	0.968915	0.446348	0.998450
C79	C	0.305867	-0.160379	0.241795
C80	C	0.639201	0.172955	0.575128
C81	C	0.972534	0.506288	0.908461
C82	C	0.379491	-0.158407	0.238840
C83	C	0.712824	0.174926	0.572173
C84	C	1.046158	0.508260	0.905506
C85	C	0.414492	-0.187394	0.282350
C86	C	0.747825	0.145939	0.615684
C87	C	1.081158	0.479272	0.949017
N88	N	0.521003	-0.211253	0.318168
N89	N	0.854336	0.122081	0.651502
N90	N	1.187670	0.455414	0.984835
N91	N	0.489746	-0.185378	0.279320
N92	N	0.823079	0.147955	0.612653
N93	N	1.156413	0.481288	0.945986
C94	C	1.004913	-0.315040	0.298697
C95	C	1.338247	0.018294	0.632030
C96	C	1.671580	0.351627	0.965364
C97	C	1.004932	-0.364974	0.298695
C98	C	1.338265	-0.031640	0.632028
C99	C	1.671599	0.301693	0.965361
C100	C	1.048290	-0.674579	0.342101
C101	C	1.381624	-0.341245	0.675435
C102	C	1.714957	-0.007912	1.008768
C103	C	1.048365	-0.862251	0.342141
C104	C	1.381699	-0.528917	0.675474
C105	C	1.715032	-0.195584	1.008807
O106	O	1.085127	-0.886485	0.379007
O107	O	1.418460	-0.553151	0.712340
O108	O	1.751793	-0.219818	1.045674
N109	N	1.005135	-0.885757	0.298826
N110	N	1.338468	-0.552424	0.632159
N111	N	1.671802	-0.219090	0.965492
C112	C	0.961880	-0.862342	0.255501
C113	C	1.295213	-0.529009	0.588834
C114	C	1.628546	-0.195675	0.922168
O115	O	0.925106	-0.886642	0.218665
O116	O	1.258439	-0.553309	0.551999
O117	O	1.591773	-0.219975	0.885332
C118	C	0.961802	-0.674671	0.255466
C119	C	1.295135	-0.341338	0.588799
C120	C	1.628468	-0.008004	0.922133
C121	C	1.005040	-0.651167	0.298779
C122	C	1.338373	-0.317834	0.632112
C123	C	1.671707	0.015499	0.965445
C124	C	1.091525	-0.651075	0.385411
C125	C	1.424858	-0.317742	0.718744
C126	C	1.758191	0.015592	1.052078
C127	C	1.091508	-0.604159	0.385398
C128	C	1.424842	-0.270826	0.718731
C129	C	1.758175	0.062507	1.052065
C130	C	1.048258	-0.580748	0.342075
C131	C	1.381591	-0.247415	0.675409
C132	C	1.714924	0.085919	1.008742
C133	C	1.005024	-0.604252	0.298766
C134	C	1.338357	-0.270919	0.632099
C135	C	1.671690	0.062415	0.965432
C136	C	0.918543	-0.651257	0.212146
C137	C	1.251876	-0.317924	0.545479
C138	C	1.585210	0.015409	0.878812
C139	C	0.918526	-0.604337	0.212142
C140	C	1.251859	-0.271003	0.545475
C141	C	1.585193	0.062330	0.878809
C142	C	0.961764	-0.580833	0.255455
C143	C	1.295098	-0.247500	0.588788
C144	C	1.628431	0.085834	0.922121
C145	C	0.961757	-0.533925	0.255430
C146	C	1.295090	-0.200592	0.588763
C147	C	1.628423	0.132742	0.922096
N148	N	1.004987	-0.510419	0.298745
N149	N	1.338320	-0.177086	0.632078
N150	N	1.671654	0.156248	0.965411
C151	C	1.048237	-0.533830	0.342068
C152	C	1.381571	-0.200497	0.675401
C153	C	1.714904	0.132836	1.008734
C154	C	0.961925	-0.960872	0.255522
C155	C	1.295258	-0.627539	0.588855
C156	C	1.628591	-0.294205	0.922188
C157	C	0.961945	-1.007790	0.255529
C158	C	1.295278	-0.674456	0.588863
C159	C	1.628612	-0.341123	0.922196
C160	C	1.048430	-1.007695	0.342170
C161	C	1.381763	-0.674362	0.675503
C162	C	1.715096	-0.341028	1.008837
C163	C	1.048413	-0.960777	0.342158
C164	C	1.381746	-0.627443	0.675491
C165	C	1.715079	-0.294110	1.008825
C166	C	1.005155	-0.937366	0.298837
C167	C	1.338488	-0.604033	0.632170
C168	C	1.671822	-0.270699	0.965503
C169	C	1.048200	-0.435305	0.342036
C170	C	1.381534	-0.101971	0.675370
C171	C	1.714867	0.231362	1.008703
C172	C	1.048182	-0.388385	0.342017
C173	C	1.381516	-0.055052	0.675351
C174	C	1.714849	0.278281	1.008684
C175	C	0.961695	-0.388484	0.255380
C176	C	1.295029	-0.055151	0.588713
C177	C	1.628362	0.278183	0.922046
C178	C	0.961716	-0.435399	0.255396
C179	C	1.295049	-0.102066	0.588729
C180	C	1.628382	0.231267	0.922062
C181	C	1.004970	-0.458809	0.298730
C182	C	1.338304	-0.125475	0.632063
C183	C	1.671637	0.207858	0.965396
O184	O	0.925009	-0.509662	0.218589
O185	O	1.258342	-0.176329	0.551922
O186	O	1.591676	0.157004	0.885255
O187	O	1.084994	-0.509523	0.378909
O188	O	1.418327	-0.176190	0.712243
O189	O	1.751661	0.157144	1.045576
C190	C	1.048307	-0.721494	0.342114
C191	C	1.381640	-0.388161	0.675448
C192	C	1.714973	-0.054827	1.008781
C193	C	1.005073	-0.744998	0.298805
C194	C	1.338406	-0.411665	0.632138
C195	C	1.671739	-0.078331	0.965471
C196	C	0.961822	-0.721586	0.255482
C197	C	1.295155	-0.388253	0.588815
C198	C	1.628489	-0.054920	0.922149
C199	C	1.005093	-0.791915	0.298813
C200	C	1.338426	-0.458582	0.632146
C201	C	1.671760	-0.125249	0.965479
C202	C	1.048343	-0.815327	0.342135
C203	C	1.381677	-0.481994	0.675469
C204	C	1.715010	-0.148660	1.008802
C205	C	1.091574	-0.791821	0.385450
C206	C	1.424907	-0.458488	0.718784
C207	C	1.758240	-0.125154	1.052117
C208	C	1.091557	-0.744906	0.385437
C209	C	1.424891	-0.411572	0.718771
C210	C	1.758224	-0.078239	1.052104
C211	C	0.918592	-0.745092	0.212167
C212	C	1.251925	-0.411759	0.545500
C213	C	1.585259	-0.078426	0.878834
C214	C	0.918612	-0.792008	0.212183
C215	C	1.251946	-0.458674	0.545516
C216	C	1.585279	-0.125341	0.878850
C217	C	0.961863	-0.815419	0.255506
C218	C	1.295196	-0.482086	0.588839
C219	C	1.628529	-0.148753	0.922172
C220	C	1.188891	-0.193422	0.291403
C221	C	1.522224	0.139912	0.624737
C222	C	1.855558	0.473245	0.958070
C223	C	1.267246	-0.191336	0.288272
C224	C	1.600580	0.141997	0.621605
C225	C	1.933913	0.475330	0.954938
C226	C	0.997664	-0.203191	0.482620
C227	C	1.330997	0.130142	0.815953
C228	C	1.664331	0.463476	1.149286
C229	C	0.994530	-0.205268	0.560973
C230	C	1.327863	0.128065	0.894307
C231	C	1.661197	0.461398	1.227640
C232	C	1.005143	-0.081136	0.298822
C233	C	1.338476	0.252197	0.632156
C234	C	1.671809	0.585531	0.965489
C235	C	1.005195	-0.031201	0.298852
C236	C	1.338529	0.302132	0.632185
C237	C	1.671862	0.635466	0.965519
C238	C	1.012385	-0.193426	0.115598
C239	C	1.345718	0.139907	0.448932
C240	C	1.679052	0.473240	0.782265
C241	C	1.015655	-0.191219	0.037240
C242	C	1.348989	0.142115	0.370573
C243	C	1.682322	0.475448	0.703907
C244	C	1.038169	-0.176315	0.596000
C245	C	1.371502	0.157018	0.929334
C246	C	1.704836	0.490352	1.262667
C247	C	1.035216	-0.178265	0.669622
C248	C	1.368549	0.155068	1.002955
C249	C	1.701882	0.488401	1.336289
C250	C	0.988626	-0.209172	0.708215
C251	C	1.321960	0.124161	1.041548
C252	C	1.655293	0.457495	1.374882
C253	C	0.944983	-0.238127	0.673183
C254	C	1.278316	0.095206	1.006516
C255	C	1.611649	0.428540	1.339850
C256	C	0.947933	-0.236174	0.599563
C257	C	1.281266	0.097160	0.932896
C258	C	1.614600	0.430493	1.266229
C259	C	0.974962	-0.218220	0.928588
C260	C	1.308295	0.115113	1.261921
C261	C	1.641629	0.448446	1.595254
C262	C	0.972017	-0.220172	1.002213
C263	C	1.305350	0.113161	1.335546
C264	C	1.638683	0.446494	1.668879
C265	C	1.062249	-0.160310	0.998647
C266	C	1.395582	0.173023	1.331980
C267	C	1.728916	0.506357	1.665313
C268	C	1.065198	-0.158362	0.925025
C269	C	1.398531	0.174972	1.258358
C270	C	1.731865	0.508305	1.591692
C271	C	1.021552	-0.187315	0.890000
C272	C	1.354885	0.146019	1.223333
C273	C	1.688218	0.479352	1.556666
N274	N	0.985608	-0.211167	0.783468
N275	N	1.318941	0.122166	1.116802
N276	N	1.652275	0.455499	1.450135
N277	N	1.024567	-0.185317	0.814748
N278	N	1.357900	0.148017	1.148081
N279	N	1.691234	0.481350	1.481414
H280	H	0.599815	-0.263427	0.396492
H281	H	0.933148	0.069907	0.729825
H282	H	1.266481	0.403240	1.063159
O283	O	0.915092	-0.460758	0.208677
O284	O	1.248425	-0.127425	0.542010
O285	O	1.581759	0.205909	0.875343
H286	H	0.859269	-0.453576	0.222932
H287	H	1.192602	-0.120243	0.556266
H288	H	1.525935	0.213091	0.889599
O289	O	0.742646	-0.267505	0.402627
O290	O	1.075979	0.065829	0.735960
O291	O	1.409312	0.399162	1.069293
H292	H	0.703423	-0.289358	0.435446
H293	H	1.036756	0.043976	0.768780
H294	H	1.370090	0.377309	1.102113
O295	O	0.268113	-0.129118	0.194866
O296	O	0.601446	0.204215	0.528199
O297	O	0.934779	0.537548	0.861533
H298	H	0.307337	-0.107261	0.162056
H299	H	0.640671	0.226073	0.495390
H300	H	0.974004	0.559406	0.828723
H301	H	0.270805	-0.245526	0.369632
H302	H	0.604138	0.087808	0.702966
H303	H	0.937471	0.421141	1.036299
H304	H	0.926698	-0.941814	0.220242
H305	H	1.260031	-0.608481	0.553576
H306	H	1.593365	-0.275148	0.886909
H307	H	0.404365	-0.241953	0.364252
H308	H	0.737698	0.091381	0.697586
H309	H	1.071031	0.424714	1.030919
H310	H	0.739943	-0.151096	0.227871
H311	H	1.073276	0.182238	0.561205
H312	H	1.406610	0.515571	0.894538
H313	H	0.606384	-0.154682	0.233232
H314	H	0.939718	0.178651	0.566566
H315	H	1.273051	0.511985	0.899899
O316	O	0.927892	-0.249439	0.890797
O317	O	1.261225	0.083894	1.224130
O318	O	1.594559	0.417227	1.557463
H319	H	0.893399	-0.229383	0.858710
H320	H	1.226732	0.103951	1.192044
H321	H	1.560066	0.437284	1.525377
H322	H	0.934076	-0.245341	1.033634
H323	H	1.267409	0.087992	1.366967
H324	H	1.600743	0.421325	1.700300
H325	H	1.076109	-0.151149	0.564583
H326	H	1.409442	0.182185	0.897916
H327	H	1.742776	0.515518	1.231249
O328	O	0.915315	-1.033133	0.208803
O329	O	1.248648	-0.699800	0.542136
O330	O	1.581981	-0.366467	0.875470
H331	H	0.948337	-1.052707	0.171698
H332	H	1.281670	-0.719373	0.505031
H333	H	1.615004	-0.386040	0.838364
H334	H	1.097782	-0.136737	1.027173
H335	H	1.431116	0.196596	1.360506
H336	H	1.764449	0.529929	1.693839
H337	H	0.883334	-0.670386	0.176876
H338	H	1.216667	-0.337053	0.510209
H339	H	1.550001	-0.003720	0.843542
O340	O	0.894727	-0.271461	0.714803
O341	O	1.228060	0.061873	1.048137
O342	O	1.561393	0.395206	1.381470
H343	H	0.900009	-0.267957	0.771881
H344	H	1.233343	0.065376	1.105214
H345	H	1.566676	0.398709	1.438548
O346	O	1.115448	-0.125024	0.883405
O347	O	1.448782	0.208309	1.216738
O348	O	1.782115	0.541642	1.550071
H349	H	1.110173	-0.128534	0.826327
H350	H	1.443506	0.204799	1.159660
H351	H	1.776840	0.538133	1.492994
O352	O	0.421148	-0.125033	0.188694
O353	O	0.754481	0.208300	0.522027
O354	O	1.087815	0.541634	0.855360
H355	H	0.384440	-0.105217	0.158923
H356	H	0.717773	0.228116	0.492256
H357	H	1.051107	0.561450	0.825589
H358	H	0.912390	-0.259747	0.571045
H359	H	1.245724	0.073587	0.904378
H360	H	1.579057	0.406920	1.237712
H361	H	1.083395	-0.369250	0.377287
H362	H	1.416728	-0.035916	0.710621
H363	H	1.750061	0.297417	1.043954
H364	H	1.083417	-0.454359	0.377328
H365	H	1.416751	-0.121026	0.710661
H366	H	1.750084	0.212307	1.043995
H367	H	1.083647	-1.026765	0.377444
H368	H	1.416980	-0.693431	0.710778
H369	H	1.750314	-0.360098	1.044111
H370	H	1.126714	-0.585025	0.420669
H371	H	1.460048	-0.251692	0.754002
H372	H	1.793381	0.081641	1.087336
O373	O	1.138180	-0.676322	0.432139
O374	O	1.471513	-0.342989	0.765472
O375	O	1.804846	-0.009656	1.098805
H376	H	1.168238	-0.652089	0.462245
H377	H	1.501572	-0.318756	0.795578
H378	H	1.834905	0.014578	1.128911
H379	H	1.083620	-0.941642	0.377427
H380	H	1.416954	-0.608309	0.710761
H381	H	1.750287	-0.274976	1.044094
H382	H	0.883298	-0.585278	0.176865
H383	H	1.216631	-0.251945	0.510199
H384	H	1.549965	0.081388	0.843532
O385	O	0.915045	-0.363229	0.208655
O386	O	1.248379	-0.029896	0.541989
O387	O	1.581712	0.303437	0.875322
H388	H	0.922296	-0.326657	0.215934
H389	H	1.255629	0.006676	0.549267
H390	H	1.588963	0.340010	0.882600
O391	O	1.138202	-0.719560	0.432148
O392	O	1.471536	-0.386227	0.765481
O393	O	1.804869	-0.052894	1.098815
H394	H	1.123860	-0.730342	0.487952
H395	H	1.457194	-0.397009	0.821285
H396	H	1.790527	-0.063675	1.154618
O397	O	1.138218	-0.817076	0.432186
O398	O	1.471551	-0.483743	0.765519
O399	O	1.804884	-0.150409	1.098852
H400	H	1.130954	-0.853649	0.424918
H401	H	1.464287	-0.520315	0.758251
H402	H	1.797621	-0.186982	1.091584
O403	O	0.871973	-0.817357	0.165466
O404	O	1.205306	-0.484024	0.498799
O405	O	1.538639	-0.150691	0.832132
H406	H	0.841892	-0.793191	0.135347
H407	H	1.175226	-0.459858	0.468680
H408	H	1.508559	-0.126524	0.802013
H409	H	0.883371	-0.726034	0.176889
H410	H	1.216704	-0.392701	0.510223
H411	H	1.550038	-0.059368	0.843556
H412	H	1.070753	-0.154689	0.698138
H413	H	1.404086	0.178644	1.031471
H414	H	1.737419	0.511977	1.364804
