data_functionalizedCrystal
_audit_creation_method	'MofGen! by Chris Wilmer'
_symmetry_space_group_name_H-M	'P1'
_symmetry_Int_Tables_number	1
_symmetry_cell_setting	triclinic
loop_
_symmetry_equiv_pos_as_xyz
  x,y,z
_cell_length_a	12.594517
_cell_length_b	25.639240
_cell_length_c	12.594509
_cell_angle_alpha	90.034648
_cell_angle_beta	89.988228
_cell_angle_gamma	89.960950
loop_
_atom_site_label
_atom_site_type_symbol
_atom_site_fract_x
_atom_site_fract_y
_atom_site_fract_z
Zn1	Zn	1.627069	0.208200	-0.601521
Zn2	Zn	1.626875	0.295640	-0.423518
Zn3	Zn	1.449072	0.208214	-0.423581
Zn4	Zn	1.448971	0.295600	-0.601479
O5	O	1.537997	0.251914	-0.512525
O6	O	1.775989	0.219810	-0.577900
O7	O	1.603250	0.284066	-0.274580
O8	O	1.472808	0.135047	-0.447229
O9	O	1.775847	0.284052	-0.447122
O10	O	1.603581	0.135037	-0.577961
O11	O	1.472619	0.219834	-0.274627
O12	O	1.300113	0.219796	-0.447188
O13	O	1.472635	0.283984	-0.750430
O14	O	1.300039	0.283998	-0.577889
O15	O	1.603483	0.219772	-0.750462
O16	O	1.603152	0.368800	-0.447081
O17	O	1.472447	0.368771	-0.577828
C18	C	1.261456	0.251894	-0.512541
C19	C	1.143151	0.251898	-0.512573
C20	C	1.073888	0.286886	-0.583524
C21	C	1.003125	0.239216	-0.609715
C22	C	1.003114	0.299608	-0.486358
C23	C	1.073946	0.204202	-0.538816
C24	C	1.073941	0.264627	-0.415413
C25	C	1.003211	0.216924	-0.441567
C26	C	1.537796	0.387757	-0.512466
C27	C	1.537808	0.445871	-0.512476
C28	C	1.606145	0.806236	-0.444520
C29	C	1.606177	0.860841	-0.444530
O30	O	1.664138	0.889080	-0.386718
N31	N	1.538083	0.888153	-0.512548
C32	C	1.469959	0.860858	-0.580569
O33	O	1.412043	0.889104	-0.638425
C34	C	1.469933	0.806255	-0.580563
C35	C	1.538024	0.778945	-0.512533
C36	C	1.674231	0.778927	-0.376496
C37	C	1.674197	0.724326	-0.376485
C38	C	1.606076	0.697035	-0.444497
C39	C	1.537990	0.724345	-0.512521
C40	C	1.401815	0.778961	-0.648588
C41	C	1.401795	0.724354	-0.648577
C42	C	1.469886	0.697045	-0.580546
C43	C	1.469835	0.642453	-0.580522
N44	N	1.537929	0.615141	-0.512504
C45	C	1.606050	0.642432	-0.444492
C46	C	1.470021	0.975529	-0.580576
C47	C	1.470041	1.030131	-0.580578
C48	C	1.606261	1.030110	-0.444540
C49	C	1.606235	0.975506	-0.444535
C50	C	1.538115	0.948216	-0.512558
C51	C	1.605972	0.527767	-0.444472
C52	C	1.605929	0.473162	-0.444464
C53	C	1.469713	0.473188	-0.580505
C54	C	1.469752	0.527788	-0.580509
C55	C	1.537890	0.555077	-0.512490
O56	O	1.411907	0.614180	-0.638308
O57	O	1.663966	0.614180	-0.386655
C58	C	1.815618	0.251934	-0.512509
C59	C	1.933923	0.251943	-0.512502
C60	C	1.538070	0.251872	-0.790146
C61	C	1.538101	0.251854	-0.908451
C62	C	1.538187	1.115541	-0.512588
C63	C	1.538167	1.057427	-0.512568
C64	C	1.466977	0.286735	-1.048451
C65	C	1.441000	0.239054	-0.977667
C66	C	1.564030	0.299530	-0.977663
C67	C	1.512134	0.204082	-1.048453
C68	C	1.635209	0.264590	-1.048456
C69	C	1.609269	0.216876	-0.977704
C70	C	1.537986	0.251918	-0.235984
C71	C	1.538161	0.251789	-0.117679
H72	H	0.971996	0.339937	-0.464217
C73	C	1.556475	0.113021	-1.053703
C74	C	1.482427	0.149600	-1.090249
H75	H	1.538134	0.079388	-1.079516
H76	H	1.556293	0.112710	-0.978291
H77	H	1.625214	0.122152	-1.078536
H78	H	1.413688	0.140470	-1.065410
H79	H	1.482598	0.149908	-1.165677
H80	H	1.661732	1.052340	-0.389164
C81	C	1.337366	0.179014	-0.874522
C82	C	1.330177	0.224467	-0.935683
H83	H	1.268945	0.170010	-0.848612
H84	H	1.383914	0.184835	-0.816390
H85	H	1.364098	0.151368	-0.917093
H86	H	1.303452	0.252115	-0.893109
H87	H	1.283612	0.218649	-0.993823
C88	C	1.791835	0.189928	-0.973341
C89	C	1.690498	0.176976	-0.936020
H90	H	1.841976	0.165292	-0.947609
H91	H	1.810387	0.223781	-0.948967
H92	H	1.791870	0.189487	-1.048762
H93	H	1.690461	0.177420	-0.860599
H94	H	1.671942	0.143114	-0.960389
C95	C	1.749392	0.914044	-0.429839
C96	C	1.681086	0.945489	-0.369761
H97	H	1.795600	0.895513	-0.383673
H98	H	1.790084	0.935313	-0.476237
H99	H	1.708812	0.889973	-0.470338
H100	H	1.721666	0.969563	-0.329267
H101	H	1.640390	0.924218	-0.323344
H102	H	1.661376	0.450928	-0.389062
H103	H	0.972373	0.187320	-0.381537
C104	C	1.772968	0.329195	-1.054809
C105	C	1.746002	0.279193	-1.090478
H106	H	1.841364	0.338214	-1.080760
H107	H	1.773597	0.329636	-0.979401
H108	H	1.722237	0.353645	-1.080091
H109	H	1.796728	0.254741	-1.065189
H110	H	1.745381	0.278747	-1.165902
H111	H	1.585936	0.339878	-0.946570
H112	H	0.972019	0.228465	-0.691852
C113	C	1.080050	0.313314	-0.766280
C114	C	1.115800	0.326751	-0.664620
H115	H	1.105934	0.337922	-0.816345
H116	H	1.004641	0.313388	-0.767258
H117	H	1.105348	0.279522	-0.784188
H118	H	1.090495	0.360542	-0.646709
H119	H	1.191224	0.326683	-0.663639
C120	C	1.620912	0.589218	-0.301331
C121	C	1.680874	0.557764	-0.369721
H122	H	1.667155	0.607740	-0.255191
H123	H	1.574561	0.567956	-0.260570
H124	H	1.580368	0.613296	-0.341853
H125	H	1.721413	0.533683	-0.329199
H126	H	1.727244	0.579028	-0.410486
H127	H	1.104929	0.163861	-0.561052
H128	H	1.406759	0.316223	-1.079516
C129	C	1.078671	0.328740	-0.276473
C130	C	1.115981	0.279157	-0.304567
H131	H	1.104633	0.337714	-0.208044
H132	H	1.003263	0.328533	-0.275445
H133	H	1.102829	0.353600	-0.326869
H134	H	1.091815	0.254297	-0.254174
H135	H	1.191404	0.279361	-0.305586
H136	H	1.729645	0.702094	-0.321092
C137	C	1.335395	1.024654	-0.715043
C138	C	1.395187	1.060146	-0.655352
H139	H	1.289191	1.043184	-0.761214
H140	H	1.294699	1.003395	-0.668630
H141	H	1.381750	1.003319	-0.755780
H142	H	1.348833	1.081479	-0.614609
H143	H	1.435887	1.081414	-0.701771
C144	C	1.455096	0.914090	-0.723747
C145	C	1.395127	0.945534	-0.655345
H146	H	1.408859	0.895578	-0.769909
H147	H	1.495631	0.890008	-0.683242
H148	H	1.501458	0.935362	-0.764493
H149	H	1.348770	0.924262	-0.614593
H150	H	1.354574	0.969619	-0.695854
H151	H	1.729709	0.801141	-0.321112
H152	H	1.346326	0.702137	-0.703973
C153	C	1.267194	0.773474	-0.783071
C154	C	1.326973	0.808970	-0.723377
H155	H	1.220993	0.792001	-0.829251
H156	H	1.226494	0.752215	-0.736661
H157	H	1.313557	0.752139	-0.823799
H158	H	1.280610	0.830303	-0.682643
H159	H	1.367676	0.830238	-0.769793
H160	H	1.414310	0.550025	-0.635909
H161	H	1.414247	0.450959	-0.635877
