data_functionalizedCrystal
_audit_creation_method	'MofGen! by Chris Wilmer'
_symmetry_space_group_name_H-M	'P1'
_symmetry_Int_Tables_number	1
_symmetry_cell_setting	triclinic
loop_
_symmetry_equiv_pos_as_xyz
  x,y,z
_cell_length_a	25.639242
_cell_length_b	25.639239
_cell_length_c	25.639234
_cell_angle_alpha	89.975095
_cell_angle_beta	89.970648
_cell_angle_gamma	90.034213
loop_
_atom_site_label
_atom_site_type_symbol
_atom_site_fract_x
_atom_site_fract_y
_atom_site_fract_z
Zn1	Zn	0.799262	-0.208245	-0.295742
Zn2	Zn	1.132595	0.125088	0.037591
Zn3	Zn	1.465929	0.458422	0.370924
Zn4	Zn	0.799175	-0.295673	-0.208307
Zn5	Zn	1.132508	0.037660	0.125027
Zn6	Zn	1.465841	0.370994	0.458360
Zn7	Zn	0.711827	-0.208247	-0.208306
Zn8	Zn	1.045161	0.125087	0.125027
Zn9	Zn	1.378494	0.458420	0.458360
Zn10	Zn	0.711784	-0.295644	-0.295696
Zn11	Zn	1.045117	0.037689	0.037637
Zn12	Zn	1.378450	0.371022	0.370970
O13	O	0.755512	-0.251952	-0.252013
O14	O	1.088845	0.081381	0.081320
O15	O	1.422179	0.414714	0.414654
O16	O	0.872416	-0.219854	-0.284163
O17	O	1.205749	0.113480	0.049170
O18	O	1.539082	0.446813	0.382504
O19	O	0.787570	-0.284089	-0.135141
O20	O	1.120903	0.049245	0.198192
O21	O	1.454236	0.382578	0.531525
O22	O	0.723481	-0.135081	-0.219924
O23	O	1.056814	0.198252	0.113409
O24	O	1.390148	0.531585	0.446743
O25	O	0.872351	-0.284087	-0.219924
O26	O	1.205685	0.049246	0.113409
O27	O	1.539018	0.382580	0.446742
O28	O	0.787719	-0.135080	-0.284163
O29	O	1.121052	0.198253	0.049171
O30	O	1.454385	0.531587	0.382504
O31	O	0.723396	-0.219857	-0.135141
O32	O	1.056729	0.113477	0.198192
O33	O	1.390063	0.446810	0.531526
O34	O	0.638656	-0.219829	-0.219880
O35	O	0.971990	0.113504	0.113454
O36	O	1.305323	0.446838	0.446787
O37	O	0.723406	-0.284038	-0.368868
O38	O	1.056739	0.049295	-0.035534
O39	O	1.390073	0.382629	0.297799
O40	O	0.638624	-0.284040	-0.284085
O41	O	0.971958	0.049294	0.049249
O42	O	1.305291	0.382627	0.382582
O43	O	0.787676	-0.219826	-0.368901
O44	O	1.121010	0.113507	-0.035568
O45	O	1.454343	0.446841	0.297765
O46	O	0.787527	-0.368835	-0.219880
O47	O	1.120860	-0.035501	0.113453
O48	O	1.454194	0.297832	0.446787
O49	O	0.723321	-0.368813	-0.284085
O50	O	1.056655	-0.035480	0.049248
O51	O	1.389988	0.297853	0.382582
C52	C	0.755424	-0.387795	-0.251989
C53	C	1.088757	-0.054462	0.081344
C54	C	1.422091	0.278872	0.414678
C55	C	0.755434	-0.445909	-0.251996
C56	C	1.088768	-0.112576	0.081337
C57	C	1.422101	0.220758	0.414670
C58	C	0.619669	-0.251932	-0.251977
C59	C	0.953003	0.081402	0.081356
C60	C	1.286336	0.414735	0.414689
C61	C	0.561555	-0.251935	-0.251975
C62	C	0.894889	0.081398	0.081359
C63	C	1.228222	0.414731	0.414692
C64	C	0.789031	-0.806270	-0.218638
C65	C	1.122365	-0.472937	0.114695
C66	C	1.455698	-0.139604	0.448028
C67	C	0.789051	-0.860875	-0.218645
C68	C	1.122385	-0.527541	0.114688
C69	C	1.455718	-0.194208	0.448021
O70	O	0.817526	-0.889110	-0.190257
O71	O	1.150859	-0.555777	0.143076
O72	O	1.484192	-0.222443	0.476410
N73	N	0.755604	-0.888191	-0.252048
N74	N	1.088937	-0.554858	0.081286
N75	N	1.422271	-0.221525	0.414619
C76	C	0.722138	-0.860901	-0.285449
C77	C	1.055471	-0.527568	0.047885
C78	C	1.388804	-0.194234	0.381218
O79	O	0.693690	-0.889150	-0.313861
O80	O	1.027023	-0.555816	0.019472
O81	O	1.360357	-0.222483	0.352806
C82	C	0.722120	-0.806298	-0.285444
C83	C	1.055454	-0.472964	0.047889
C84	C	1.388787	-0.139631	0.381223
C85	C	0.755566	-0.778984	-0.252036
C86	C	1.088900	-0.445650	0.081298
C87	C	1.422233	-0.112317	0.414631
C88	C	0.822475	-0.778957	-0.185233
C89	C	1.155808	-0.445623	0.148100
C90	C	1.489142	-0.112290	0.481433
C91	C	0.822454	-0.724356	-0.185226
C92	C	1.155787	-0.391023	0.148108
C93	C	1.489121	-0.057689	0.481441
C94	C	0.788989	-0.697069	-0.218623
C95	C	1.122322	-0.363736	0.114710
C96	C	1.455656	-0.030403	0.448043
C97	C	0.755545	-0.724383	-0.252028
C98	C	1.088879	-0.391050	0.081305
C99	C	1.422212	-0.057717	0.414638
C100	C	0.688657	-0.779008	-0.318847
C101	C	1.021990	-0.445675	0.014486
C102	C	1.355324	-0.112341	0.347819
C103	C	0.688643	-0.724401	-0.318840
C104	C	1.021976	-0.391068	0.014493
C105	C	1.355310	-0.057734	0.347827
C106	C	0.722089	-0.697087	-0.285432
C107	C	1.055422	-0.363754	0.047901
C108	C	1.388756	-0.030421	0.381235
C109	C	0.722059	-0.642496	-0.285418
C110	C	1.055393	-0.309163	0.047915
C111	C	1.388726	0.024171	0.381248
N112	N	0.755507	-0.615179	-0.252016
N113	N	1.088840	-0.281846	0.081317
N114	N	1.422174	0.051487	0.414651
C115	C	0.788972	-0.642466	-0.218619
C116	C	1.122305	-0.309133	0.114715
C117	C	1.455638	0.024201	0.448048
C118	C	0.722177	-0.975571	-0.285457
C119	C	1.055510	-0.642238	0.047877
C120	C	1.388844	-0.308905	0.381210
C121	C	0.722191	-1.030174	-0.285459
C122	C	1.055524	-0.696840	0.047874
C123	C	1.388858	-0.363507	0.381207
C124	C	0.789106	-1.030144	-0.218656
C125	C	1.122439	-0.696811	0.114677
C126	C	1.455773	-0.363477	0.448010
C127	C	0.789089	-0.975541	-0.218652
C128	C	1.122422	-0.642207	0.114682
C129	C	1.455755	-0.308874	0.448015
C130	C	0.755625	-0.948255	-0.252055
C131	C	1.088958	-0.614921	0.081279
C132	C	1.422291	-0.281588	0.414612
C133	C	0.788925	-0.527801	-0.218605
C134	C	1.122258	-0.194468	0.114728
C135	C	1.455591	0.138866	0.448062
C136	C	0.788899	-0.473196	-0.218599
C137	C	1.122232	-0.139862	0.114735
C138	C	1.455566	0.193471	0.448068
C139	C	0.721987	-0.473230	-0.285403
C140	C	1.055320	-0.139897	0.047930
C141	C	1.388653	0.193436	0.381263
C142	C	0.722010	-0.527831	-0.285408
C143	C	1.055343	-0.194498	0.047926
C144	C	1.388677	0.138836	0.381259
C145	C	0.755483	-0.555115	-0.252007
C146	C	1.088817	-0.221782	0.081327
C147	C	1.422150	0.111552	0.414660
O148	O	0.693601	-0.614226	-0.313794
O149	O	1.026935	-0.280893	0.019540
O150	O	1.360268	0.052441	0.352873
O151	O	0.817419	-0.614210	-0.190216
O152	O	1.150753	-0.280877	0.143117
O153	O	1.484086	0.052456	0.476451
C154	C	0.201184	-0.285443	-0.285413
C155	C	0.534518	0.047891	0.047920
C156	C	0.867851	0.381224	0.381254
C157	C	0.146580	-0.285446	-0.285421
C158	C	0.479913	0.047887	0.047912
C159	C	0.813247	0.381221	0.381246
O160	O	0.118337	-0.313909	-0.313821
O161	O	0.451670	0.019424	0.019512
O162	O	0.785003	0.352757	0.352845
N163	N	0.119273	-0.251967	-0.252047
N164	N	0.452606	0.081367	0.081286
N165	N	0.785940	0.414700	0.414620
C166	C	0.146573	-0.218478	-0.218666
C167	C	0.479906	0.114855	0.114667
C168	C	0.813240	0.448188	0.448000
O169	O	0.118332	-0.190002	-0.190280
O170	O	0.451665	0.143332	0.143053
O171	O	0.784999	0.476665	0.476387
C172	C	0.201176	-0.218473	-0.218661
C173	C	0.534510	0.114860	0.114672
C174	C	0.867843	0.448194	0.448006
C175	C	0.228481	-0.251958	-0.252034
C176	C	0.561814	0.081375	0.081300
C177	C	0.895147	0.414709	0.414633
C178	C	0.228489	-0.318925	-0.318783
C179	C	0.561822	0.014409	0.014550
C180	C	0.895155	0.347742	0.347884
C181	C	0.283089	-0.318922	-0.318774
C182	C	0.616423	0.014411	0.014559
C183	C	0.949756	0.347745	0.347893
C184	C	0.310385	-0.285437	-0.285395
C185	C	0.643719	0.047896	0.047939
C186	C	0.977052	0.381229	0.381272
C187	C	0.283081	-0.251955	-0.252024
C188	C	0.616414	0.081378	0.081309
C189	C	0.949748	0.414711	0.414642
C190	C	0.228475	-0.184982	-0.185283
C191	C	0.561809	0.148351	0.148050
C192	C	0.895142	0.481684	0.481383
C193	C	0.283082	-0.184980	-0.185281
C194	C	0.616416	0.148354	0.148052
C195	C	0.949749	0.481687	0.481385
C196	C	0.310387	-0.218465	-0.218654
C197	C	0.643720	0.114869	0.114680
C198	C	0.977053	0.448202	0.448013
C199	C	0.364978	-0.218468	-0.218636
C200	C	0.698311	0.114865	0.114697
C201	C	1.031644	0.448198	0.448031
N202	N	0.392285	-0.251947	-0.252010
N203	N	0.725618	0.081386	0.081323
N204	N	1.058952	0.414719	0.414656
C205	C	0.364989	-0.285432	-0.285389
C206	C	0.698322	0.047901	0.047944
C207	C	1.031655	0.381235	0.381277
C208	C	0.031902	-0.218492	-0.218680
C209	C	0.365236	0.114842	0.114653
C210	C	0.698569	0.448175	0.447986
C211	C	-0.022700	-0.218499	-0.218683
C212	C	0.310633	0.114834	0.114651
C213	C	0.643967	0.448167	0.447984
C214	C	-0.022689	-0.285466	-0.285438
C215	C	0.310644	0.047867	0.047895
C216	C	0.643978	0.381200	0.381228
C217	C	0.031914	-0.285461	-0.285433
C218	C	0.365248	0.047872	0.047900
C219	C	0.698581	0.381206	0.381234
C220	C	0.059209	-0.251971	-0.252054
C221	C	0.392543	0.081362	0.081279
C222	C	0.725876	0.414696	0.414612
C223	C	0.479654	-0.285424	-0.285368
C224	C	0.812987	0.047909	0.047966
C225	C	1.146321	0.381242	0.381299
C226	C	0.534259	-0.285420	-0.285354
C227	C	0.867593	0.047913	0.047979
C228	C	1.200926	0.381247	0.381313
C229	C	0.534243	-0.218451	-0.218601
C230	C	0.867577	0.114882	0.114733
C231	C	1.200910	0.448215	0.448066
C232	C	0.479643	-0.218457	-0.218612
C233	C	0.812976	0.114876	0.114721
C234	C	1.146310	0.448209	0.448055
C235	C	0.452349	-0.251945	-0.252000
C236	C	0.785683	0.081388	0.081334
C237	C	1.119016	0.414721	0.414667
O238	O	0.393256	-0.190018	-0.190252
O239	O	0.726589	0.143316	0.143082
O240	O	1.059923	0.476649	0.476415
O241	O	0.393236	-0.313899	-0.313776
O242	O	0.726570	0.019434	0.019558
O243	O	1.059903	0.352768	0.352891
C244	C	0.891885	-0.251973	-0.252049
C245	C	1.225218	0.081360	0.081285
C246	C	1.558552	0.414693	0.414618
C247	C	0.949999	-0.251982	-0.252064
C248	C	1.283332	0.081351	0.081269
C249	C	1.616666	0.414684	0.414603
C250	C	0.755546	-0.251928	-0.388386
C251	C	1.088879	0.081405	-0.055053
C252	C	1.422213	0.414738	0.278281
C253	C	0.755560	-0.251918	-0.446500
C254	C	1.088894	0.081415	-0.113167
C255	C	1.422227	0.414748	0.220167
C256	C	0.755614	-0.115579	-0.252048
C257	C	1.088948	0.217754	0.081285
C258	C	1.422281	0.551087	0.414618
C259	C	0.755658	-0.057465	-0.252064
C260	C	1.088992	0.275868	0.081270
C261	C	1.422325	0.609201	0.414603
C262	C	0.722160	-0.218411	-0.806869
C263	C	1.055493	0.114923	-0.473535
C264	C	1.388827	0.448256	-0.140202
C265	C	0.722163	-0.218401	-0.861473
C266	C	1.055496	0.114932	-0.528140
C267	C	1.388829	0.448266	-0.194806
O268	O	0.693738	-0.189969	-0.889714
O269	O	1.027071	0.143364	-0.556381
O270	O	1.360405	0.476698	-0.223048
N271	N	0.755578	-0.251836	-0.888783
N272	N	1.088911	0.081497	-0.555449
N273	N	1.422244	0.414830	-0.222116
C274	C	0.788988	-0.285287	-0.861485
C275	C	1.122322	0.048046	-0.528152
C276	C	1.455655	0.381380	-0.194819
O277	O	0.817411	-0.313726	-0.889728
O278	O	1.150744	0.019608	-0.556395
O279	O	1.484077	0.352941	-0.223062
C280	C	0.788983	-0.285299	-0.806882
C281	C	1.122316	0.048035	-0.473549
C282	C	1.455649	0.381368	-0.140215
C283	C	0.755569	-0.251857	-0.779575
C284	C	1.088902	0.081476	-0.446242
C285	C	1.422236	0.414809	-0.112908
C286	C	0.688749	-0.184972	-0.779562
C287	C	1.022082	0.148361	-0.446228
C288	C	1.355415	0.481694	-0.112895
C289	C	0.688747	-0.184981	-0.724961
C290	C	1.022080	0.148352	-0.391628
C291	C	1.355413	0.481685	-0.058294
C292	C	0.722156	-0.218428	-0.697668
C293	C	1.055489	0.114905	-0.364334
C294	C	1.388823	0.448238	-0.031001
C295	C	0.755567	-0.251866	-0.724974
C296	C	1.088900	0.081467	-0.391641
C297	C	1.422234	0.414800	-0.058308
C298	C	0.822390	-0.318752	-0.779585
C299	C	1.155724	0.014582	-0.446252
C300	C	1.489057	0.347915	-0.112919
C301	C	0.822381	-0.318761	-0.724978
C302	C	1.155715	0.014573	-0.391645
C303	C	1.489048	0.347906	-0.058312
C304	C	0.788968	-0.285319	-0.697672
C305	C	1.122301	0.048014	-0.364338
C306	C	1.455634	0.381347	-0.031005
C307	C	0.788974	-0.285322	-0.643080
C308	C	1.122308	0.048011	-0.309747
C309	C	1.455641	0.381344	0.023586
N310	N	0.755559	-0.251887	-0.615771
N311	N	1.088893	0.081446	-0.282437
N312	N	1.422226	0.414780	0.050896
C313	C	0.722150	-0.218440	-0.643064
C314	C	1.055483	0.114893	-0.309731
C315	C	1.388817	0.448227	0.023602
C316	C	0.788998	-0.285260	-0.976156
C317	C	1.122331	0.048073	-0.642823
C318	C	1.455664	0.381406	-0.309489
C319	C	0.789006	-0.285246	-1.030758
C320	C	1.122340	0.048087	-0.697425
C321	C	1.455673	0.381420	-0.364092
C322	C	0.722180	-0.218361	-1.030742
C323	C	1.055513	0.114972	-0.697409
C324	C	1.388847	0.448306	-0.364076
C325	C	0.722174	-0.218373	-0.976139
C326	C	1.055507	0.114960	-0.642806
C327	C	1.388841	0.448294	-0.309472
C328	C	0.755583	-0.251825	-0.948846
C329	C	1.088916	0.081508	-0.615513
C330	C	1.422249	0.414841	-0.282180
C331	C	0.722149	-0.218461	-0.528399
C332	C	1.055482	0.114872	-0.195066
C333	C	1.388815	0.448206	0.138268
C334	C	0.722151	-0.218471	-0.473794
C335	C	1.055485	0.114862	-0.140460
C336	C	1.388818	0.448195	0.192873
C337	C	0.788976	-0.285358	-0.473814
C338	C	1.122309	0.047975	-0.140481
C339	C	1.455642	0.381308	0.192852
C340	C	0.788975	-0.285346	-0.528415
C341	C	1.122309	0.047987	-0.195082
C342	C	1.455642	0.381320	0.138252
C343	C	0.755558	-0.251896	-0.555706
C344	C	1.088891	0.081437	-0.222373
C345	C	1.422224	0.414771	0.110961
O346	O	0.817383	-0.313741	-0.614804
O347	O	1.150716	0.019592	-0.281471
O348	O	1.484050	0.352925	0.051862
O349	O	0.693728	-0.190011	-0.614814
O350	O	1.027061	0.143322	-0.281481
O351	O	1.360395	0.476656	0.051852
C352	C	0.755508	-0.251938	-0.116170
C353	C	1.088842	0.081395	0.217163
C354	C	1.422175	0.414728	0.550496
C355	C	0.755595	-0.251801	-0.058057
C356	C	1.088928	0.081532	0.275277
C357	C	1.422262	0.414865	0.608610
H358	H	0.816135	-0.450958	-0.191392
H359	H	1.149468	-0.117625	0.141941
H360	H	1.482801	0.215708	0.475275
H361	H	0.305316	-0.346188	-0.345950
H362	H	0.638649	-0.012855	-0.012617
H363	H	0.971982	0.320479	0.320716
O364	O	0.450202	-0.321544	-0.321362
O365	O	0.783536	0.011789	0.011972
O366	O	1.116869	0.345122	0.345305
H367	H	0.425297	-0.348100	-0.297898
H368	H	0.758630	-0.014766	0.035435
H369	H	1.091964	0.318567	0.368769
O370	O	0.858423	-0.354838	-0.695544
O371	O	1.191756	-0.021504	-0.362210
O372	O	1.525089	0.311829	-0.028877
H373	H	0.849428	-0.395869	-0.706013
H374	H	1.182762	-0.062536	-0.372680
H375	H	1.516095	0.270798	-0.039346
H376	H	0.816178	-0.312589	-0.451582
H377	H	1.149511	0.020745	-0.118249
H378	H	1.482845	0.354078	0.215085
O379	O	0.685936	-0.557296	-0.321438
O380	O	1.019270	-0.223963	0.011895
O381	O	1.352603	0.109370	0.345229
H382	H	0.662665	-0.529146	-0.344661
H383	H	0.995998	-0.195813	-0.011328
H384	H	1.329331	0.137521	0.322005
O385	O	0.685895	-0.443795	-0.321427
O386	O	1.019229	-0.110462	0.011906
O387	O	1.352562	0.222871	0.345240
H388	H	0.691508	-0.401238	-0.315811
H389	H	1.024841	-0.067905	0.017523
H390	H	1.358175	0.265428	0.350856
H391	H	0.661540	-0.157736	-0.801778
H392	H	0.994874	0.175598	-0.468445
H393	H	1.328207	0.508931	-0.135112
O394	O	0.563706	-0.321532	-0.321359
O395	O	0.897039	0.011801	0.011975
O396	O	1.230373	0.345135	0.345308
H397	H	0.606262	-0.315908	-0.315746
H398	H	0.939595	0.017425	0.017587
H399	H	1.272928	0.350758	0.350920
O400	O	0.061343	-0.182374	-0.182672
O401	O	0.394676	0.150959	0.150661
O402	O	0.728010	0.484292	0.483995
H403	H	0.086194	-0.205739	-0.156030
H404	H	0.419527	0.127595	0.177303
H405	H	0.752860	0.460928	0.510637
O406	O	0.825205	-1.059586	-0.182641
O407	O	1.158538	-0.726253	0.150692
O408	O	1.491872	-0.392919	0.484026
H409	H	0.816260	-1.049147	-0.141592
H410	H	1.149593	-0.715814	0.191741
H411	H	1.482927	-0.382481	0.525074
H412	H	0.849599	-0.345983	-0.801809
H413	H	1.182932	-0.012650	-0.468476
H414	H	1.516265	0.320683	-0.135143
O415	O	0.825022	-0.557225	-0.182577
O416	O	1.158356	-0.223892	0.150757
O417	O	1.491689	0.109441	0.484090
H418	H	0.848267	-0.529052	-0.159346
H419	H	1.181601	-0.195718	0.173988
H420	H	1.514934	0.137615	0.507321
H421	H	0.694966	-0.191142	-0.953909
H422	H	1.028299	0.142192	-0.620576
H423	H	1.361633	0.475525	-0.287243
O424	O	0.686144	-0.182287	-1.060189
O425	O	1.019477	0.151046	-0.726856
O426	O	1.352811	0.484380	-0.393522
H427	H	0.662908	-0.159032	-1.032031
H428	H	0.996242	0.174301	-0.698697
H429	H	1.329575	0.507634	-0.365364
O430	O	0.312519	-0.148856	-0.149277
O431	O	0.645852	0.184477	0.184056
O432	O	0.979186	0.517811	0.517389
H433	H	0.355076	-0.154473	-0.154878
H434	H	0.688409	0.178860	0.178455
H435	H	1.021743	0.512194	0.511789
H436	H	0.054142	-0.312727	-0.312609
H437	H	0.387475	0.020607	0.020725
H438	H	0.720808	0.353940	0.354058
O439	O	0.858535	-0.694898	-0.149201
O440	O	1.191869	-0.361565	0.184133
O441	O	1.525202	-0.028232	0.517466
H442	H	0.881811	-0.723053	-0.125987
H443	H	1.215144	-0.389720	0.207347
H444	H	1.548477	-0.056387	0.540680
O445	O	0.858568	-0.808383	-0.149205
O446	O	1.191902	-0.475050	0.184128
O447	O	1.525235	-0.141717	0.517461
H448	H	0.881814	-0.780208	-0.125977
H449	H	1.215147	-0.446875	0.207356
H450	H	1.548481	-0.113542	0.540690
H451	H	0.694922	-0.953358	-0.312656
H452	H	1.028255	-0.620025	0.020677
H453	H	1.361589	-0.286691	0.354011
O454	O	0.686114	-1.059632	-0.321488
O455	O	1.019447	-0.726299	0.011845
O456	O	1.352781	-0.392966	0.345178
H457	H	0.662845	-1.031479	-0.344711
H458	H	0.996178	-0.698146	-0.011377
H459	H	1.329512	-0.364812	0.321956
O460	O	0.450188	-0.182344	-0.182618
O461	O	0.783521	0.150989	0.150716
O462	O	1.116854	0.484323	0.484049
H463	H	0.478344	-0.159058	-0.159407
H464	H	0.811678	0.174275	0.173926
H465	H	1.145011	0.507608	0.507259
H466	H	0.816221	-0.312472	-1.052987
H467	H	1.149554	0.020862	-0.719654
H468	H	1.482888	0.354195	-0.386320
O469	O	0.199037	-0.148863	-0.149288
O470	O	0.532371	0.184471	0.184045
O471	O	0.865704	0.517804	0.517379
H472	H	0.156480	-0.154487	-0.154891
H473	H	0.489814	0.178846	0.178443
H474	H	0.823147	0.512180	0.511776
O475	O	0.825167	-0.946081	-0.182625
O476	O	1.158501	-0.612748	0.150708
O477	O	1.491834	-0.279414	0.484042
H478	H	0.848441	-0.974234	-0.159407
H479	H	1.181774	-0.640901	0.173926
H480	H	1.515107	-0.307567	0.507260
H481	H	0.661393	-0.702188	-0.346042
H482	H	0.994726	-0.368854	-0.012709
H483	H	1.328060	-0.035521	0.320624
O484	O	0.652586	-0.808461	-0.354884
O485	O	0.985920	-0.475127	-0.021551
O486	O	1.319253	-0.141794	0.311783
H487	H	0.629322	-0.780304	-0.378108
H488	H	0.962656	-0.446971	-0.044775
H489	H	1.295989	-0.113638	0.288559
O490	O	0.199052	-0.355103	-0.354727
O491	O	0.532385	-0.021770	-0.021394
O492	O	0.865718	0.311563	0.311939
H493	H	0.227220	-0.378404	-0.377903
H494	H	0.560553	-0.045071	-0.044570
H495	H	0.893887	0.288262	0.288764
O496	O	-0.052134	-0.321579	-0.321448
O497	O	0.281199	0.011755	0.011885
O498	O	0.614532	0.345088	0.345219
H499	H	-0.094690	-0.315949	-0.315847
H500	H	0.238644	0.017384	0.017487
H501	H	0.571977	0.350717	0.350820
O502	O	-0.052148	-0.182387	-0.182686
O503	O	0.281185	0.150947	0.150648
O504	O	0.614518	0.484280	0.483981
H505	H	-0.023989	-0.159101	-0.159478
H506	H	0.309345	0.174232	0.173855
H507	H	0.642678	0.507565	0.507188
H508	H	0.556478	-0.191191	-0.191422
H509	H	0.889811	0.142143	0.141911
H510	H	1.223145	0.475476	0.475244
H511	H	0.694942	-0.191237	-0.451563
H512	H	1.028275	0.142096	-0.118229
H513	H	1.361609	0.475430	0.215104
H514	H	0.694937	-0.191222	-0.550613
H515	H	1.028271	0.142111	-0.217280
H516	H	1.361604	0.475445	0.116054
O517	O	0.825046	-0.321333	-0.946723
O518	O	1.158380	0.012000	-0.613390
O519	O	1.491713	0.345333	-0.280057
H520	H	0.816057	-0.362365	-0.957196
H521	H	1.149391	-0.029032	-0.623863
H522	H	1.482724	0.304302	-0.290529
O523	O	0.652710	-0.148910	-0.695511
O524	O	0.986044	0.184423	-0.362178
O525	O	1.319377	0.517756	-0.028844
H526	H	0.629481	-0.125655	-0.723671
H527	H	0.962815	0.207678	-0.390338
H528	H	1.296148	0.541011	-0.057004
H529	H	0.816189	-0.312571	-0.550650
H530	H	1.149522	0.020762	-0.217316
H531	H	1.482856	0.354096	0.116017
