data_functionalizedCrystal
_audit_creation_method	'MofGen! by Chris Wilmer'
_symmetry_space_group_name_H-M	'P1'
_symmetry_Int_Tables_number	1
_symmetry_cell_setting	triclinic
loop_
_symmetry_equiv_pos_as_xyz
  x,y,z
_cell_length_a	14.908742
_cell_length_b	14.908520
_cell_length_c	14.908694
_cell_angle_alpha	96.744522
_cell_angle_beta	90.175515
_cell_angle_gamma	89.837416
loop_
_atom_site_label
_atom_site_type_symbol
_atom_site_fract_x
_atom_site_fract_y
_atom_site_fract_z
Zn1	Zn	1.378674	-0.465031	-0.457178
Zn2	Zn	1.362214	-0.606780	-0.315447
Zn3	Zn	1.220585	-0.447716	-0.314479
Zn4	Zn	1.220547	-0.607729	-0.474505
O5	O	1.295505	-0.531814	-0.390402
O6	O	1.501939	-0.490683	-0.431530
O7	O	1.336554	-0.578036	-0.189032
O8	O	1.248461	-0.323724	-0.325752
O9	O	1.489846	-0.594826	-0.327401
O10	O	1.364608	-0.336446	-0.430592
O11	O	1.232500	-0.461172	-0.188321
O12	O	1.095131	-0.462093	-0.342554
O13	O	1.248396	-0.596443	-0.598493
O14	O	1.095103	-0.579653	-0.460124
O15	O	1.364571	-0.491604	-0.585763
O16	O	1.336517	-0.733194	-0.344202
O17	O	1.232435	-0.733891	-0.461062
C18	C	1.062590	-0.519098	-0.403114
C19	C	0.962948	-0.513681	-0.408575
C20	C	1.282711	-0.766290	-0.404635
C21	C	1.277321	-0.866606	-0.410750
C22	C	1.375697	-1.054336	-0.300642
C23	C	1.370635	-1.148592	-0.306384
C24	C	1.262142	-1.149377	-0.427981
C25	C	1.267204	-1.055121	-0.422239
C26	C	1.323982	-1.007603	-0.358566
C27	C	1.329038	-0.913345	-0.352820
C28	C	1.220550	-0.914132	-0.474420
C29	C	1.215489	-1.008388	-0.480163
C30	C	0.828798	-0.451932	-0.470576
C31	C	0.922421	-0.457014	-0.465449
C32	C	0.909844	-0.565271	-0.356827
C33	C	0.816220	-0.560189	-0.361954
C34	C	0.775701	-0.503516	-0.418830
C35	C	0.682076	-0.498430	-0.423951
C36	C	0.669500	-0.606691	-0.315334
C37	C	0.763123	-0.611773	-0.310207
C38	C	1.529330	-0.544580	-0.377641
C39	C	1.628972	-0.550020	-0.372203
C40	C	1.308315	-0.546061	-0.625788
C41	C	1.313774	-0.552132	-0.726095
C42	C	1.308375	-0.296424	-0.376132
C43	C	1.313859	-0.196116	-0.370050
C44	C	1.215659	-0.441852	-0.913846
C45	C	1.220786	-0.447553	-1.008093
C46	C	1.329147	-0.569240	-1.008840
C47	C	1.324021	-0.563538	-0.914593
C48	C	1.267276	-0.499841	-0.867099
C49	C	1.262155	-0.494136	-0.772849
C50	C	1.370512	-0.615827	-0.773598
C51	C	1.375638	-0.621528	-0.867845
C52	C	1.282800	-0.517560	-0.155926
C53	C	1.277529	-0.511244	-0.055594
H54	H	1.375267	-0.874657	-0.300972
H55	H	0.942851	-0.611414	-0.310524
H56	H	0.796127	-0.657917	-0.263903
C57	C	1.250557	-0.365643	-0.660182
C58	C	1.199781	-0.424123	-0.720643
H59	H	1.212045	-0.322418	-0.627960
H60	H	1.280555	-0.399361	-0.618852
H61	H	1.293497	-0.335480	-0.692735
H62	H	1.156845	-0.454292	-0.688089
H63	H	1.169768	-0.390402	-0.761978
H64	H	1.421921	-1.015646	-0.248791
H65	H	0.626258	-0.648697	-0.273200
C66	C	1.159552	-1.153225	-0.542954
C67	C	1.153076	-1.060624	-0.550145
H68	H	1.121014	-1.185468	-0.586154
H69	H	1.219661	-1.172694	-0.553873
H70	H	1.142358	-1.164312	-0.483959
H71	H	1.170277	-1.049535	-0.609138
H72	H	1.092954	-1.041148	-0.539232
H73	H	1.178438	-0.876071	-0.521584
C74	C	1.501304	-0.647052	-0.968018
C75	C	1.438012	-0.691539	-0.920055
H76	H	1.539815	-0.690275	-1.000243
H77	H	1.471293	-0.613342	-1.009345
H78	H	1.535738	-0.607378	-0.926987
H79	H	1.403573	-0.731208	-0.961086
H80	H	1.468025	-0.725264	-0.878723
C81	C	1.410772	-0.661125	-0.629456
C82	C	1.427251	-0.679577	-0.722211
H83	H	1.445797	-0.700484	-0.597735
H84	H	1.426366	-0.600277	-0.609625
H85	H	1.348975	-0.670114	-0.618105
H86	H	1.489047	-0.670581	-0.733564
H87	H	1.411663	-0.740439	-0.742049
H88	H	1.412749	-1.186638	-0.259217
C89	C	1.109063	-0.322142	-0.922570
C90	C	1.153287	-0.371840	-0.861634
H91	H	1.070552	-0.278925	-0.890337
H92	H	1.152007	-0.291975	-0.955101
H93	H	1.074626	-0.361824	-0.963590
H94	H	1.187730	-0.332159	-0.820618
H95	H	1.110338	-0.402009	-0.829088
H96	H	0.795807	-0.405778	-0.516878
C97	C	0.925446	-0.349494	-0.573328
C98	C	0.980787	-0.400308	-0.522328
H99	H	0.961480	-0.314482	-0.608440
H100	H	0.888672	-0.388972	-0.612171
H101	H	0.888663	-0.310555	-0.533957
H102	H	1.017565	-0.439252	-0.561699
H103	H	1.017576	-0.360825	-0.483481
C104	C	0.703916	-0.391946	-0.530815
C105	C	0.637534	-0.436143	-0.486473
H106	H	0.676417	-0.353498	-0.569421
H107	H	0.740165	-0.356967	-0.487457
H108	H	0.740174	-0.435401	-0.565654
H109	H	0.601279	-0.392688	-0.451629
H110	H	0.601269	-0.471124	-0.529838
H111	H	1.375333	-0.621110	-1.047527
C112	C	1.106642	-0.434852	-1.119890
C113	C	1.164044	-0.383809	-1.059476
H114	H	1.071606	-0.395497	-1.151606
H115	H	1.141170	-0.473588	-1.161664
H116	H	1.068211	-0.470077	-1.087366
H117	H	1.202480	-0.348589	-1.092000
H118	H	1.129513	-0.345058	-1.017697
H119	H	1.215923	-1.188082	-0.479825
