data_functionalizedCrystal
_audit_creation_method	'MofGen! by Chris Wilmer'
_symmetry_space_group_name_H-M	'P1'
_symmetry_Int_Tables_number	1
_symmetry_cell_setting	triclinic
loop_
_symmetry_equiv_pos_as_xyz
  x,y,z
_cell_length_a	21.606444
_cell_length_b	14.560438
_cell_length_c	14.560438
_cell_angle_alpha	60.005846
_cell_angle_beta	89.999644
_cell_angle_gamma	60.000017
loop_
_atom_site_label
_atom_site_type_symbol
_atom_site_fract_x
_atom_site_fract_y
_atom_site_fract_z
Zr1	Zr	0.596263	1.005191	-0.120364
O2	O	0.497445	1.196776	-0.266986
O3	O	0.626552	0.813606	-0.075436
O4	O	0.626560	1.005191	-0.267011
O5	O	0.497436	1.005190	0.075729
O6	O	0.728412	1.005191	-0.267009
O7	O	0.497438	1.005191	-0.075411
O8	O	0.728398	0.662480	0.075684
O9	O	0.497449	1.347901	-0.266964
O10	O	0.715486	0.892407	-0.056250
O11	O	0.639473	0.892407	0.056542
O12	O	0.639482	1.117974	-0.169012
O13	O	0.563470	1.117974	-0.056220
Zr14	Zr	0.758702	1.005190	0.120690
Zr15	Zr	0.758705	1.005190	-0.120360
Zr16	Zr	0.596260	1.005190	0.120686
Zr17	Zr	0.596269	1.246218	-0.120329
Zr18	Zr	0.758695	0.764162	0.120655
O19	O	0.728413	1.196775	0.075762
O20	O	0.728417	1.196776	-0.266981
O21	O	0.497441	1.196775	0.075757
O22	O	0.857519	0.813605	0.267312
O23	O	0.857524	0.813605	-0.075431
O24	O	0.626548	0.813605	0.267306
O25	O	0.857529	1.005190	-0.075403
O26	O	0.728405	1.005190	0.267337
O27	O	0.626553	1.005190	0.267334
O28	O	0.857527	1.005190	0.075737
O29	O	0.626569	1.347901	-0.266961
O30	O	0.728396	0.662479	0.267287
O31	O	0.857515	0.662479	0.267290
O32	O	0.857518	0.662480	0.075687
O33	O	0.497447	1.347901	-0.075361
O34	O	0.626567	1.347901	-0.075358
O35	O	0.715483	0.892407	0.169338
O36	O	0.791495	0.892407	0.056546
O37	O	0.715492	1.117974	-0.056217
O38	O	0.639479	1.117974	0.056576
C39	C	0.677474	0.703702	0.000119
C40	C	0.677472	0.601379	0.000104
C41	C	0.621366	0.636506	-0.083119
C42	C	0.621378	0.540317	-0.083062
C43	C	0.733604	0.373875	0.083449
C44	C	0.733595	0.470063	0.083387
C45	C	0.556571	0.732599	-0.179250
C46	C	0.556583	0.636410	-0.179194
C47	C	0.474292	1.005191	0.000158
C48	C	0.405331	1.005191	0.000157
C49	C	0.372934	1.005195	-0.083110
C50	C	0.308140	1.005188	-0.083106
C51	C	0.275741	1.005187	0.000161
C52	C	0.308144	1.005179	0.083437
C53	C	0.372940	1.005176	0.083436
C54	C	0.046831	1.005189	0.083441
C55	C	-0.017971	1.005195	0.083433
C56	C	-0.017970	1.005200	-0.083102
C57	C	0.046826	1.005198	-0.083102
C58	C	0.079226	1.005183	0.000176
C59	C	0.149484	1.005188	0.000172
C60	C	0.205482	1.005192	0.000162
C61	C	0.880673	1.005190	0.000168
C62	C	0.949634	1.005190	0.000169
C63	C	0.677487	1.005191	-0.301354
C64	C	0.677488	1.005191	-0.403687
C65	C	0.677491	1.306679	0.000207
C66	C	0.677493	1.409002	0.000222
C67	C	0.733595	1.005197	-0.451769
C68	C	0.733592	1.005191	-0.547918
C69	C	0.621366	1.005180	-0.547896
C70	C	0.621374	1.005176	-0.451744
C71	C	0.798386	1.005208	-0.451786
C72	C	0.798383	1.005203	-0.547935
C73	C	0.677478	1.005190	0.301680
C74	C	0.677477	1.005190	0.404012
C75	C	0.880665	0.703701	0.000123
C76	C	0.949623	0.601379	0.000110
C77	C	0.677470	0.703701	0.301636
C78	C	0.677466	0.601378	0.403953
C79	C	0.880661	0.703701	0.301641
C80	C	0.949617	0.601378	0.403959
C81	C	0.474304	1.306680	-0.301315
C82	C	0.405347	1.409003	-0.403634
C83	C	0.474300	1.306679	0.000202
C84	C	0.405342	1.409002	0.000216
C85	C	0.677495	1.306680	-0.301310
C86	C	0.677499	1.409003	-0.403627
C87	C	0.942330	0.553327	-0.058785
C88	C	1.007118	0.457197	-0.058820
C89	C	1.079197	0.409114	0.000047
C90	C	1.086488	0.457176	0.058943
C91	C	1.021701	0.553310	0.058971
C92	C	1.021685	0.553326	0.393133
C93	C	1.086483	0.457196	0.489263
C94	C	1.079213	0.409113	0.596219
C95	C	1.007138	0.457175	0.607043
C96	C	0.942341	0.553309	0.510914
C97	C	0.333280	1.457067	-0.392807
C98	C	0.268482	1.553226	-0.488937
C99	C	0.275752	1.601314	-0.595893
C100	C	0.347827	1.553247	-0.606717
C101	C	0.412624	1.457095	-0.510588
C102	C	0.412635	1.457064	0.059100
C103	C	0.347847	1.553220	0.059109
C104	C	0.275768	1.601306	0.000239
C105	C	0.268477	1.553241	-0.058653
C106	C	0.333263	1.457093	-0.058667
C107	C	0.717141	0.553302	0.510900
C108	C	0.717132	0.457164	0.607034
C109	C	0.637770	0.457183	0.489260
C110	C	0.637776	0.553326	0.393129
C111	C	0.762963	0.553286	0.578897
C112	C	0.762953	0.457148	0.675031
H113	H	0.779287	0.441452	0.151145
H114	H	0.281764	1.005170	0.151240
C115	C	-0.128249	1.116234	0.124549
C116	C	-0.053582	1.005188	0.174971
H117	H	-0.150231	1.116233	0.181059
H118	H	-0.156813	1.116235	0.074963
H119	H	-0.128338	1.191547	0.083444
H120	H	-0.053493	0.929875	0.216069
H121	H	-0.025011	1.005176	0.224577
H122	H	0.471303	1.417963	-0.519416
H123	H	0.471319	1.417919	0.107047
H124	H	1.001166	0.418078	-0.106780
C125	C	0.783451	0.152520	0.157479
C126	C	0.795289	0.229533	0.174997
H127	H	0.821531	0.063410	0.214004
H128	H	0.785784	0.170928	0.085623
H129	H	0.735013	0.170980	0.160948
H130	H	0.843725	0.211079	0.171520
H131	H	0.792963	0.211116	0.246871
C132	C	0.571122	0.538230	-0.277132
C133	C	0.571874	0.636342	-0.282395
H134	H	0.580570	0.538179	-0.340836
H135	H	0.522983	0.553495	-0.276507
H136	H	0.609314	0.456472	-0.210488
H137	H	0.533678	0.718101	-0.349035
H138	H	0.620020	0.621085	-0.283031
H139	H	0.353799	1.592339	0.107070
C140	C	0.892442	0.464446	0.661065
C141	C	0.842152	0.504526	0.567103
H142	H	0.941328	0.434352	0.653777
H143	H	0.895131	0.396271	0.727165
H144	H	0.874978	0.535546	0.665965
H145	H	0.859613	0.433425	0.562208
H146	H	0.839465	0.572708	0.500986
H147	H	0.327315	1.417964	-0.106615
C148	C	1.158391	0.466863	0.363166
C149	C	1.165702	0.404368	0.477347
H150	H	1.207297	0.434243	0.355811
H151	H	1.131471	0.557620	0.328125
H152	H	1.131458	0.451090	0.328132
H153	H	1.192630	0.420149	0.512380
H154	H	1.192634	0.313590	0.512402
H155	H	0.223021	1.679596	0.000260
H156	H	0.575680	1.005167	-0.587034
C157	C	-0.117290	1.005187	-0.157053
C158	C	-0.053579	1.005196	-0.174636
H159	H	-0.139269	1.005179	-0.213559
H160	H	-0.153286	1.080506	-0.160499
H161	H	-0.102519	0.929854	-0.085181
H162	H	-0.068350	1.080534	-0.246505
H163	H	-0.017576	0.929869	-0.171201
C164	C	0.139733	1.739011	-0.669450
C165	C	0.204521	1.706995	-0.701553
H166	H	0.095758	1.804245	-0.734678
H167	H	0.139747	1.770519	-0.625956
H168	H	0.139751	1.663980	-0.625957
H169	H	0.204506	1.782024	-0.745039
H170	H	0.204507	1.675491	-0.745066
C171	C	0.408384	1.116235	-0.235244
C172	C	0.408543	1.005196	-0.174643
H173	H	0.430364	1.116233	-0.291756
H174	H	0.436954	1.116226	-0.185658
H175	H	0.357723	1.191553	-0.269434
H176	H	0.459205	0.929878	-0.140446
H177	H	0.379974	1.005193	-0.224237
C178	C	0.436586	0.756015	-0.161179
C179	C	0.481896	0.650976	-0.167948
H180	H	0.390484	0.764993	-0.154224
H181	H	0.425865	0.833237	-0.227311
H182	H	0.462679	0.741036	-0.097398
H183	H	0.455805	0.665959	-0.231734
H184	H	0.492615	0.573736	-0.101809
H185	H	0.605460	0.592479	0.306050
C186	C	0.857282	0.809165	-0.265130
C187	C	0.873083	0.883173	-0.355556
H188	H	0.903395	0.733829	-0.205722
H189	H	0.831197	0.784073	-0.288830
H190	H	0.826547	0.859397	-0.239500
H191	H	0.903813	0.832943	-0.381191
H192	H	0.899180	0.908262	-0.331854
C193	C	1.150441	0.192870	0.765982
C194	C	1.150440	0.303440	0.701885
H195	H	1.194413	0.127637	0.831216
H196	H	1.150438	0.161364	0.722481
H197	H	1.106476	0.214620	0.787734
H198	H	1.194402	0.281692	0.680126
H199	H	1.150450	0.334950	0.745394
H200	H	1.001229	0.418011	0.694139
C201	C	0.957644	0.700634	0.111345
C202	C	1.029724	0.606103	0.123734
H203	H	0.962603	0.733223	0.151327
H204	H	0.930725	0.663128	0.140406
H205	H	0.930726	0.769672	0.033897
H206	H	1.056641	0.537060	0.201182
H207	H	1.056655	0.643607	0.094678
C208	C	0.133926	1.700626	-0.110882
C209	C	0.189243	1.606096	-0.123350
H210	H	0.085010	1.733246	-0.150813
H211	H	0.139618	1.769632	-0.139957
H212	H	0.139630	1.663099	-0.033418
H213	H	0.183543	1.643625	-0.200813
H214	H	0.183549	1.537078	-0.094280
C215	C	0.248329	1.466763	-0.286070
C216	C	0.325274	1.404240	-0.275249
H217	H	0.243383	1.434165	-0.213495
H218	H	0.224703	1.450997	-0.326012
H219	H	0.224719	1.557529	-0.326027
H220	H	0.348883	1.313474	-0.235299
H221	H	0.348910	1.419995	-0.235290
C222	C	0.593697	0.894123	-0.288091
C223	C	0.559702	1.005164	-0.398884
H224	H	0.555620	0.894116	-0.255462
H225	H	0.627111	0.894138	-0.245717
H226	H	0.621407	0.818807	-0.287960
H227	H	0.531997	1.080481	-0.399015
H228	H	0.526276	1.005161	-0.441269
C229	C	0.994917	0.739898	0.216680
C230	C	1.029729	0.606101	0.275599
H231	H	0.999897	0.772454	0.144127
H232	H	1.018529	0.755669	0.256633
H233	H	0.942710	0.782310	0.209306
H234	H	1.081938	0.563687	0.282980
H235	H	1.006119	0.590319	0.235636
C236	C	0.283712	1.700636	-0.806365
C237	C	0.355811	1.606103	-0.724289
H238	H	0.288642	1.733256	-0.878950
H239	H	0.256808	1.769641	-0.797912
H240	H	0.256796	1.663111	-0.797906
H241	H	0.382726	1.643630	-0.732743
H242	H	0.382726	1.537085	-0.732746
C243	C	0.773071	1.213790	-0.587412
C244	C	0.783111	1.131104	-0.474454
H245	H	0.763644	1.291509	-0.601401
H246	H	0.731216	1.234021	-0.634230
H247	H	0.817551	1.171922	-0.603203
H248	H	0.738629	1.172969	-0.458665
H249	H	0.824970	1.110875	-0.427621
C250	C	0.314638	1.005227	-0.247739
C251	C	0.272524	1.005209	-0.174645
H252	H	0.292646	1.005249	-0.304257
H253	H	0.365288	0.929904	-0.206629
H254	H	0.314531	1.080556	-0.281917
H255	H	0.272635	0.929875	-0.140460
H256	H	0.221861	1.080539	-0.215760
C257	C	0.483214	0.894137	0.235571
C258	C	0.408546	1.005179	0.174967
H259	H	0.505192	0.894135	0.292086
H260	H	0.511780	0.894144	0.185987
H261	H	0.483306	0.818822	0.269756
H262	H	0.408455	1.080495	0.140774
H263	H	0.379973	1.005183	0.224558
C264	C	0.602511	0.309827	0.584329
C265	C	0.594143	0.404363	0.477368
H266	H	0.575579	0.277218	0.576982
H267	H	0.582922	0.347336	0.624276
H268	H	0.654710	0.240803	0.624263
H269	H	0.541944	0.473392	0.437437
H270	H	0.613729	0.366855	0.437405
H271	H	0.849916	0.911939	-0.531136
C272	C	0.707677	0.652340	0.675082
C273	C	0.728556	0.674800	0.578919
H274	H	0.686430	0.727362	0.675087
H275	H	0.751143	0.580595	0.740301
H276	H	0.671287	0.633853	0.675062
H277	H	0.764951	0.693278	0.578943
H278	H	0.685084	0.746567	0.513683
C279	C	0.863199	0.308383	0.852330
C280	C	0.844845	0.335620	0.745485
H281	H	0.913754	0.233363	0.895819
H282	H	0.829492	0.293170	0.888553
H283	H	0.858809	0.380141	0.845076
H284	H	0.849228	0.263865	0.752738
H285	H	0.878561	0.350825	0.709253
H286	H	0.792795	1.095603	-0.619225
H287	H	0.883645	0.592475	-0.106735
H288	H	0.073204	1.005180	0.151247
H289	H	1.131944	0.330834	0.000016
H290	H	0.562150	0.795574	-0.261381
H291	H	0.732726	0.493276	0.725958
H292	H	0.505038	0.792273	-0.162455
H293	H	1.145184	0.418012	0.106870
H294	H	0.073201	1.005205	-0.150909
H295	H	0.883663	0.592421	0.519744
H296	H	0.209801	1.592346	-0.480102
