data_functionalizedCrystal
_audit_creation_method	'MofGen! by Chris Wilmer'
_symmetry_space_group_name_H-M	'P1'
_symmetry_Int_Tables_number	1
_symmetry_cell_setting	triclinic
loop_
_symmetry_equiv_pos_as_xyz
  x,y,z
_cell_length_a	12.759401
_cell_length_b	12.759399
_cell_length_c	12.759393
_cell_angle_alpha	90.028641
_cell_angle_beta	89.982620
_cell_angle_gamma	89.984234
loop_
_atom_site_label
_atom_site_type_symbol
_atom_site_fract_x
_atom_site_fract_y
_atom_site_fract_z
Zn1	Zn	1.606237	0.418198	-0.594004
Zn2	Zn	1.606132	0.593917	-0.418334
Zn3	Zn	1.430543	0.418253	-0.418344
Zn4	Zn	1.430525	0.593836	-0.593975
O5	O	1.518359	0.506051	-0.506164
O6	O	1.753244	0.441518	-0.570709
O7	O	1.582803	0.570672	-0.271314
O8	O	1.453900	0.271225	-0.441661
O9	O	1.753167	0.570618	-0.441645
O10	O	1.582982	0.271184	-0.570719
O11	O	1.453798	0.441613	-0.271321
O12	O	1.283519	0.441534	-0.441634
O13	O	1.453870	0.570480	-0.741000
O14	O	1.283506	0.570533	-0.570669
O15	O	1.582965	0.441439	-0.741021
O16	O	1.582786	0.740927	-0.441617
O17	O	1.453768	0.740868	-0.570660
C18	C	1.245392	0.506032	-0.506150
C19	C	1.128615	0.506049	-0.506169
C20	C	1.518293	0.779018	-0.506157
C21	C	1.518360	0.895795	-0.506189
C22	C	1.518427	0.505944	-0.780198
C23	C	1.518457	0.505898	-0.896974
C24	C	1.073774	0.573326	-0.573247
C25	C	0.964050	0.573340	-0.573258
C26	C	0.964018	0.438795	-0.439105
C27	C	1.073740	0.438777	-0.439099
C28	C	1.128649	0.640598	-0.640316
C29	C	1.073808	0.707882	-0.707399
C30	C	0.964084	0.707895	-0.707410
C31	C	0.909201	0.640625	-0.640339
C32	C	1.792393	0.506071	-0.506179
C33	C	1.909169	0.506080	-0.506186
C34	C	1.585613	0.950653	-0.439074
C35	C	1.585676	1.060377	-0.439112
C36	C	1.451223	1.060375	-0.573385
C37	C	1.451167	0.950653	-0.573351
C38	C	1.663235	0.950655	-0.361550
C39	C	1.663298	1.060379	-0.361588
C40	C	1.518451	1.232018	-0.506208
C41	C	1.518480	1.115241	-0.506262
C42	C	1.451312	0.438685	-0.951846
C43	C	1.451344	0.438653	-1.061570
C44	C	1.585674	0.573052	-1.061541
C45	C	1.585636	0.573088	-0.951819
C46	C	1.373761	0.361087	-0.951864
C47	C	1.373793	0.361056	-1.061588
C48	C	1.518352	0.506082	-0.233197
C49	C	1.518526	0.505831	-0.116421
H50	H	1.217992	0.640597	-0.640312
C51	C	1.134069	0.364771	-0.365307
N52	N	1.179509	0.309027	-0.309726
H53	H	1.396414	0.905988	-0.628011
H54	H	0.919324	0.384027	-0.384498
H55	H	1.641562	1.090242	-0.280209
C56	C	1.403302	0.251124	-1.101842
N57	N	1.425532	0.168328	-1.132160
C58	C	1.413152	0.256685	-0.905899
N59	N	1.442821	0.178049	-0.871277
C60	C	1.269366	0.400393	-1.107563
N61	N	1.190713	0.430020	-1.142193
H62	H	1.396518	1.105054	-0.628066
H63	H	1.118501	0.762645	-0.762012
H64	H	1.744579	0.920797	-0.383399
C65	C	0.903761	0.781911	-0.781197
N66	N	0.858329	0.837670	-0.836770
H67	H	0.819856	0.640632	-0.640363
C68	C	1.623869	0.904789	-0.257093
N69	N	1.594207	0.870243	-0.178420
H70	H	1.740601	1.094324	-0.390802
H71	H	1.640296	0.627835	-0.907147
H72	H	1.640369	0.627755	-1.106209
H73	H	1.292371	0.382876	-0.922088
