data_functionalizedCrystal
_audit_creation_method	'MofGen! by Chris Wilmer'
_symmetry_space_group_name_H-M	'P1'
_symmetry_Int_Tables_number	1
_symmetry_cell_setting	triclinic
loop_
_symmetry_equiv_pos_as_xyz
  x,y,z
_cell_length_a	16.120484
_cell_length_b	12.759395
_cell_length_c	12.759387
_cell_angle_alpha	90.018815
_cell_angle_beta	92.862335
_cell_angle_gamma	87.073025
loop_
_atom_site_label
_atom_site_type_symbol
_atom_site_fract_x
_atom_site_fract_y
_atom_site_fract_z
Zn1	Zn	-0.331818	-1.584970	-0.615166
Zn2	Zn	0.168182	-1.084970	-0.115166
Zn3	Zn	-0.471257	-1.575922	-0.448379
Zn4	Zn	0.028743	-1.075922	0.051621
Zn5	Zn	-0.331867	-1.409270	-0.439506
Zn6	Zn	0.168133	-0.909270	0.060494
Zn7	Zn	-0.471195	-1.400321	-0.624014
Zn8	Zn	0.028805	-0.900321	-0.124014
O9	O	-0.401534	-1.492621	-0.531766
O10	O	0.098466	-0.992621	-0.031766
O11	O	-0.350321	-1.730790	-0.593052
O12	O	0.149679	-1.230790	-0.093052
O13	O	-0.452813	-1.553774	-0.300184
O14	O	0.047187	-1.053774	0.199816
O15	O	-0.215195	-1.440108	-0.455391
O16	O	0.284805	-0.940108	0.044609
O17	O	-0.452766	-1.724143	-0.470514
O18	O	0.047234	-1.224143	0.029486
O19	O	-0.215159	-1.569194	-0.584448
O20	O	0.284841	-1.069194	-0.084448
O21	O	-0.350403	-1.431335	-0.293665
O22	O	0.149597	-0.931335	0.206335
O23	O	-0.350343	-1.261062	-0.463971
O24	O	0.149657	-0.761062	0.036029
O25	O	-0.452660	-1.424856	-0.769858
O26	O	0.047340	-0.924856	-0.269858
O27	O	-0.452707	-1.254487	-0.599528
O28	O	0.047293	-0.754487	-0.099528
O29	O	-0.350261	-1.560517	-0.763358
O30	O	0.149739	-1.060517	-0.263358
O31	O	-0.587914	-1.545097	-0.479093
O32	O	-0.087914	-1.045097	0.020907
O33	O	-0.587869	-1.416083	-0.608132
O34	O	-0.087869	-0.916083	-0.108132
C35	C	-0.401524	-1.219654	-0.531747
C36	C	0.098476	-0.719654	-0.031747
C37	C	-0.401540	-1.102876	-0.531766
C38	C	0.098460	-0.602876	-0.031766
C39	C	-0.618142	-1.478666	-0.545558
C40	C	-0.118142	-0.978666	-0.045558
C41	C	-0.710807	-1.472792	-0.551494
C42	C	-0.210807	-0.972792	-0.051494
C43	C	-0.401448	-1.492697	-0.805794
C44	C	0.098552	-0.992697	-0.305794
C45	C	-0.401412	-1.492730	-0.922569
C46	C	0.098588	-0.992730	-0.422569
C47	C	-0.880468	-1.462074	-0.562352
C48	C	-0.380468	-0.962074	-0.062352
C49	C	-0.921760	-1.523355	-0.501197
C50	C	-0.421760	-1.023355	-0.001197
C51	C	-1.016165	-1.517392	-0.507239
C52	C	-0.516165	-1.017392	-0.007239
C53	C	-0.786054	-1.468036	-0.556312
C54	C	-0.286054	-0.968036	-0.056312
C55	C	-0.184081	-1.506659	-0.517943
C56	C	0.315919	-1.006659	-0.017943
C57	C	-0.091416	-1.512641	-0.512052
C58	C	0.408584	-1.012641	-0.012052
C59	C	-0.401545	-1.766653	-0.531786
C60	C	0.098455	-1.266653	-0.031786
C61	C	-0.401550	-1.883430	-0.531794
C62	C	0.098450	-1.383430	-0.031794
C63	C	-0.508304	-1.096057	-0.672715
C64	C	-0.008304	-0.596057	-0.172715
C65	C	-0.561693	-1.037787	-0.743193
C66	C	-0.061693	-0.537787	-0.243193
C67	C	-0.561703	-0.928065	-0.743207
C68	C	-0.061703	-0.428065	-0.243207
C69	C	-0.508317	-0.876611	-0.672737
C70	C	-0.008317	-0.376611	-0.172737
C71	C	-0.454928	-0.934881	-0.602258
C72	C	0.045072	-0.434881	-0.102258
C73	C	-0.454926	-1.044606	-0.602250
C74	C	0.045074	-0.544606	-0.102250
C75	C	-0.348161	-0.941700	-0.461316
C76	C	0.151839	-0.441700	0.038684
C77	C	-0.348154	-1.051422	-0.461296
C78	C	0.151846	-0.551422	0.038704
C79	C	-0.294775	-0.890247	-0.390846
C80	C	0.205225	-0.390247	0.109154
C81	C	-0.241389	-0.948517	-0.320361
C82	C	0.258611	-0.448517	0.179639
C83	C	-0.241382	-1.058246	-0.320349
C84	C	0.258618	-0.558246	0.179651
C85	C	-0.294765	-1.109693	-0.390817
C86	C	0.205235	-0.609693	0.109183
C87	C	-0.294765	-1.365244	-0.915799
C88	C	0.205235	-0.865244	-0.415799
C89	C	-0.241425	-1.301521	-0.967274
C90	C	0.258575	-0.801521	-0.467274
C91	C	-0.241395	-1.301554	-1.076994
C92	C	0.258605	-0.801554	-0.576994
C93	C	-0.294712	-1.365315	-1.135242
C94	C	0.205288	-0.865315	-0.635242
C95	C	-0.348052	-1.429038	-1.083767
C96	C	0.151948	-0.929038	-0.583767
C97	C	-0.348075	-1.429000	-0.974044
C98	C	0.151925	-0.929000	-0.474044
C99	C	-0.454702	-1.556517	-1.090537
C100	C	0.045298	-1.056517	-0.590537
C101	C	-0.454729	-1.556491	-0.980817
C102	C	0.045271	-1.056491	-0.480817
C103	C	-0.508019	-1.620278	-1.148784
C104	C	-0.008019	-1.120278	-0.648784
C105	C	-0.561356	-1.684008	-1.097309
C106	C	-0.061356	-1.184008	-0.597309
C107	C	-0.561383	-1.683973	-0.987583
C108	C	-0.061383	-1.183973	-0.487583
C109	C	-0.508069	-1.620214	-0.929342
C110	C	-0.008069	-1.120214	-0.429342
C111	C	-0.401560	-1.492609	-0.258800
C112	C	0.098440	-0.992609	0.241200
C113	C	-0.401362	-1.492794	-0.142011
C114	C	0.098638	-0.992794	0.357989
H115	H	-0.886211	-1.580298	-0.444303
H116	H	-0.386211	-1.080298	0.055697
F117	F	-0.184673	-1.233680	-0.905275
F118	F	0.315327	-0.733680	-0.405275
H119	H	-0.916015	-1.405135	-0.619241
H120	H	-0.416015	-0.905135	-0.119241
H121	H	-0.508323	-0.787269	-0.672763
H122	H	-0.008323	-0.287269	-0.172763
H123	H	-0.508308	-1.185398	-0.672704
H124	H	-0.008308	-0.685398	-0.172704
F125	F	-0.507993	-1.620302	-1.265559
F126	F	-0.007993	-1.120302	-0.765559
F127	F	-0.294690	-1.365331	-1.252016
F128	F	0.205310	-0.865331	-0.752016
H129	H	-0.605158	-1.079693	-0.800570
H130	H	-0.105158	-0.579693	-0.300570
H131	H	-0.605173	-0.880621	-0.800601
H132	H	-0.105173	-0.380621	-0.300601
F133	F	-0.294782	-0.773470	-0.390867
F134	F	0.205218	-0.273470	0.109133
F135	F	-0.184573	-0.893751	-0.245377
F136	F	0.315427	-0.393751	0.254623
H137	H	-0.294767	-1.199034	-0.390812
H138	H	0.205233	-0.699034	0.109188
F139	F	-0.184553	-1.120254	-0.245340
F140	F	0.315447	-0.620254	0.254660
H141	H	-0.294778	-1.365219	-0.826459
H142	H	0.205222	-0.865219	-0.326459
H143	H	-0.197962	-1.249664	-1.118904
H144	H	0.302038	-0.749664	-0.618904
F145	F	-0.618099	-1.751852	-1.159306
F146	F	-0.118099	-1.251852	-0.659306
H147	H	-0.604817	-1.735867	-0.945678
H148	H	-0.104817	-1.235867	-0.445678
H149	H	-0.508083	-1.620183	-0.840001
H150	H	-0.008083	-1.120183	-0.340001
