data_functionalizedCrystal
_audit_creation_method	'MofGen! by Chris Wilmer'
_symmetry_space_group_name_H-M	'P1'
_symmetry_Int_Tables_number	1
_symmetry_cell_setting	triclinic
loop_
_symmetry_equiv_pos_as_xyz
  x,y,z
_cell_length_a	11.026623
_cell_length_b	10.065875
_cell_length_c	11.026607
_cell_angle_alpha	79.268236
_cell_angle_beta	71.413640
_cell_angle_gamma	79.302201
loop_
_atom_site_label
_atom_site_type_symbol
_atom_site_fract_x
_atom_site_fract_y
_atom_site_fract_z
O1	O	-1.741288	0.113493	0.518976
O2	O	-1.374708	0.113495	0.458210
O3	O	-1.527615	0.113489	0.305304
O4	O	-1.588380	0.113499	0.671883
O5	O	-1.498490	-0.113498	0.334611
O6	O	-1.345583	-0.113493	0.487517
O7	O	-1.712163	-0.113494	0.548283
Zn8	Zn	-1.524249	-0.149533	0.522553
Zn9	Zn	-1.562622	0.149533	0.483940
O10	O	-1.559255	-0.113489	0.701190
C11	C	-1.312486	0.000001	0.461653
C12	C	-1.170472	0.000002	0.428236
N13	N	-1.498069	-0.353637	0.548907
C14	C	-1.116823	0.000005	0.520504
C15	C	-0.970044	0.000006	0.485968
C16	C	-1.553503	-0.421418	0.493100
C17	C	-1.533367	-0.578585	0.513394
C18	C	-0.774385	0.000002	0.544838
C19	C	-0.916400	0.000009	0.578250
C20	C	-1.501843	-0.000003	0.272297
C21	C	-1.468427	0.000002	0.130282
N22	N	-1.588809	0.353638	0.457579
C23	C	-1.560697	0.000004	0.076633
C24	C	-1.526162	0.000009	-0.070146
C25	C	-1.585028	0.000007	0.734196
C26	C	-1.618445	0.000011	0.876209
H27	H	-1.179555	0.000000	0.625068
O28	O	-1.685468	-0.000175	0.151350
C29	C	-1.731373	-0.117748	0.140227
H30	H	-1.671592	-0.156946	0.045483
H31	H	-1.836894	-0.091304	0.141685
H32	H	-1.722756	-0.200066	0.224516
O33	O	-1.423772	-0.423054	0.623997
C34	C	-1.476832	-0.388260	0.750200
H35	H	-1.539136	-0.284467	0.747342
H36	H	-1.395544	-0.383534	0.791649
H37	H	-1.538718	-0.468641	0.813661
O38	O	-1.343751	0.000189	0.055296
C39	C	-1.334017	0.117770	-0.037646
H40	H	-1.432311	0.156964	-0.053730
H41	H	-1.260921	0.091336	-0.132425
H42	H	-1.300947	0.200086	-0.001942
H43	H	-1.470990	-0.636903	0.576196
O44	O	-0.991301	0.000271	0.702955
C45	C	-1.084189	0.117820	0.712575
H46	H	-1.048668	0.199970	0.628523
H47	H	-1.099878	0.157303	0.807592
H48	H	-1.179131	0.091243	0.709388
H49	H	-0.907319	0.000038	0.381393
H50	H	-1.723028	0.000113	-0.061076
O51	O	-1.095620	0.000243	0.303476
C52	C	-1.032885	0.117784	0.263495
H53	H	-1.089491	0.199951	0.326314
H54	H	-1.027307	0.157244	0.158275
H55	H	-0.931132	0.091204	0.273565
O56	O	-1.627781	-0.351670	0.418114
C57	C	-1.552738	-0.269016	0.314079
H58	H	-1.466934	-0.247799	0.340503
H59	H	-1.614290	-0.168453	0.292583
H60	H	-1.516308	-0.323955	0.225028
O61	O	-1.662865	-0.576791	0.382300
C62	C	-1.587537	-0.494381	0.278270
H63	H	-1.501952	-0.472997	0.304958
H64	H	-1.648971	-0.393886	0.256329
H65	H	-1.550778	-0.549618	0.189402
H66	H	-1.421593	0.000018	-0.132877
