data_functionalizedCrystal
_audit_creation_method	'MofGen! by Chris Wilmer'
_symmetry_space_group_name_H-M	'P1'
_symmetry_Int_Tables_number	1
_symmetry_cell_setting	triclinic
loop_
_symmetry_equiv_pos_as_xyz
  x,y,z
_cell_length_a	10.065875
_cell_length_b	10.967904
_cell_length_c	11.026607
_cell_angle_alpha	96.378289
_cell_angle_beta	79.268236
_cell_angle_gamma	110.771101
loop_
_atom_site_label
_atom_site_type_symbol
_atom_site_fract_x
_atom_site_fract_y
_atom_site_fract_z
O1	O	-0.527535	-1.760377	-0.088110
O2	O	-0.440372	-1.389779	-0.118051
O3	O	-0.476724	-1.544363	0.072691
O4	O	-0.491183	-1.605794	-0.278852
O5	O	-0.242812	-1.514919	0.036178
O6	O	-0.206459	-1.360335	-0.154564
O7	O	-0.293622	-1.730933	-0.124624
Zn8	Zn	-0.212902	-1.540959	-0.145391
Zn9	Zn	-0.521092	-1.579753	-0.097283
O10	O	-0.257270	-1.576350	-0.315366
C11	C	-0.312083	-1.326875	-0.136891
C12	C	-0.278316	-1.183304	-0.138613
N13	N	-0.002572	-1.514493	-0.178223
C14	C	-0.384435	-1.134548	-0.120465
C15	C	-0.349538	-0.986161	-0.122245
N16	N	-0.731424	-1.606227	-0.064442
C17	C	0.052027	-1.570535	-0.108699
C18	C	0.213982	-1.550177	-0.133976
C19	C	-0.357104	-1.518308	0.099321
C20	C	-0.349164	-1.484525	0.233067
C21	C	-0.421910	-0.793838	-0.105792
C22	C	-0.455672	-0.937411	-0.104095
C23	C	-0.376893	-1.602404	-0.341995
C24	C	-0.384843	-1.636188	-0.475739
C25	C	-0.371105	-1.577807	0.309547
C26	C	-0.362898	-1.542893	0.447781
H27	H	-0.501123	-1.202663	-0.103618
C28	C	-0.045420	-1.654417	-0.004221
C29	C	0.001722	-1.601085	0.108030
C30	C	-0.088036	-1.678319	0.204295
H31	H	-0.042406	-1.740496	-0.018228
H32	H	-0.141306	-1.656885	-0.001044
H33	H	0.097583	-1.598631	0.104852
H34	H	-0.001297	-1.515015	0.122076
H35	H	-0.183922	-1.680787	0.207472
H36	H	-0.085015	-1.764394	0.190276
H37	H	-0.056070	-1.642138	0.280469
C38	C	0.171352	-1.690049	0.040165
C39	C	0.218784	-1.636524	0.152268
C40	C	0.129327	-1.713669	0.248704
H41	H	0.174435	-1.776107	0.026195
H42	H	0.075405	-1.692609	0.043520
H43	H	0.314707	-1.633979	0.148913
H44	H	0.215695	-1.550475	0.166278
H45	H	0.033380	-1.716228	0.252059
H46	H	0.132417	-1.799723	0.234722
H47	H	0.161489	-1.677357	0.324778
C48	C	-0.418081	-1.777238	0.475382
C49	C	-0.436765	-1.856531	0.572737
C50	C	-0.467403	-1.986472	0.527760
H51	H	-0.340586	-1.784209	0.414377
H52	H	-0.503711	-1.804633	0.439852
H53	H	-0.351146	-1.829145	0.608247
H54	H	-0.514265	-1.849600	0.633750
H55	H	-0.553033	-2.013866	0.492231
H56	H	-0.389903	-1.993429	0.466754
H57	H	-0.480097	-2.040289	0.593809
H58	H	0.070582	-1.451436	-0.256454
C59	C	-0.329696	-1.401998	0.497138
C60	C	-0.328111	-1.395373	0.624425
C61	C	-0.297513	-1.265603	0.669933
H62	H	-0.401409	-1.370449	0.482165
H63	H	-0.238281	-1.350012	0.456646
H64	H	-0.419514	-1.447340	0.664905
H65	H	-0.256398	-1.426895	0.639432
H66	H	-0.206097	-1.213617	0.629441
H67	H	-0.369230	-1.234066	0.654952
H68	H	-0.296420	-1.261090	0.756299
C69	C	-0.316301	-1.343583	0.282179
C70	C	-0.422287	-1.297621	0.259797
C71	C	-0.392072	-1.167794	0.305032
H72	H	-0.224982	-1.291477	0.241668
H73	H	-0.315255	-1.338806	0.368573
H74	H	-0.423317	-1.302388	0.173419
H75	H	-0.513616	-1.349691	0.300308
H76	H	-0.391027	-1.163017	0.391426
H77	H	-0.300751	-1.115700	0.264517
H78	H	-0.463984	-1.136596	0.289862
H79	H	0.287132	-1.487117	-0.212212
C80	C	-0.193842	-0.895574	-0.144801
C81	C	-0.102703	-0.969314	-0.161227
C82	C	0.040729	-0.885912	-0.182024
H83	H	-0.174488	-0.835679	-0.075768
H84	H	-0.177716	-0.848886	-0.216821
H85	H	-0.118821	-1.015980	-0.089215
H86	H	-0.122010	-1.029206	-0.230263
H87	H	0.056854	-0.839225	-0.254044
H88	H	0.060067	-0.826021	-0.112987
H89	H	0.102583	-0.935933	-0.193183
C90	C	-0.611184	-1.028423	-0.081581
C91	C	-0.614886	-1.157505	-0.084252
C92	C	-0.758114	-1.241378	-0.063502
H93	H	-0.660110	-1.019718	-0.144157
H94	H	-0.656902	-1.006473	-0.003099
H95	H	-0.569189	-1.179448	-0.162723
H96	H	-0.565990	-1.166251	-0.021677
H97	H	-0.803832	-1.219428	0.014981
H98	H	-0.807028	-1.232661	-0.126080
H99	H	-0.760645	-1.328968	-0.065299
H100	H	-0.395959	-1.683515	0.272685
H101	H	-0.161628	-1.115190	-0.155474
