data_functionalizedCrystal
_audit_creation_method	'MofGen! by Chris Wilmer'
_symmetry_space_group_name_H-M	'P1'
_symmetry_Int_Tables_number	1
_symmetry_cell_setting	triclinic
loop_
_symmetry_equiv_pos_as_xyz
  x,y,z
_cell_length_a	16.974800
_cell_length_b	15.944545
_cell_length_c	16.053802
_cell_angle_alpha	92.563576
_cell_angle_beta	91.074188
_cell_angle_gamma	83.443106
loop_
_atom_site_label
_atom_site_type_symbol
_atom_site_fract_x
_atom_site_fract_y
_atom_site_fract_z
O1	O	1.049081	0.107072	0.001478
O2	O	1.382414	0.440406	0.334811
O3	O	1.715747	0.773739	0.668144
O4	O	0.819620	0.119931	-0.014035
O5	O	1.152953	0.453264	0.319299
O6	O	1.486286	0.786597	0.652632
O7	O	0.940618	-0.008760	-0.005845
O8	O	1.273952	0.324574	0.327489
O9	O	1.607285	0.657907	0.660822
O10	O	0.928082	0.235763	-0.006712
O11	O	1.261415	0.569096	0.326621
O12	O	1.594749	0.902429	0.659954
O13	O	0.933958	-0.001705	0.132563
O14	O	1.267292	0.331628	0.465897
O15	O	1.600625	0.664961	0.799230
O16	O	0.812960	0.126985	0.124374
O17	O	1.146293	0.460318	0.457707
O18	O	1.479626	0.793652	0.791040
O19	O	1.042421	0.114127	0.139886
O20	O	1.375754	0.447460	0.473219
O21	O	1.709087	0.780793	0.806552
Zn22	Zn	0.926633	0.121676	0.154105
Zn23	Zn	1.259966	0.455009	0.487438
Zn24	Zn	1.593299	0.788342	0.820772
Zn25	Zn	0.935408	0.112382	-0.028254
Zn26	Zn	1.268741	0.445715	0.305080
Zn27	Zn	1.602074	0.779048	0.638413
O28	O	0.921422	0.242817	0.131696
O29	O	1.254755	0.576150	0.465029
O30	O	1.588089	0.909484	0.798363
C31	C	0.786927	0.122840	0.053185
C32	C	1.120260	0.456173	0.386518
C33	C	1.453593	0.789506	0.719851
C34	C	0.699434	0.120987	0.047270
C35	C	1.032767	0.454321	0.380604
C36	C	1.366101	0.787654	0.713937
C37	C	0.654704	0.123960	0.119940
C38	C	0.988037	0.457294	0.453273
C39	C	1.321371	0.790627	0.786607
C40	C	0.572497	0.122207	0.114385
C41	C	0.905830	0.455540	0.447718
C42	C	1.239163	0.788874	0.781052
C43	C	0.535020	0.117486	0.036160
C44	C	0.868354	0.450819	0.369493
C45	C	1.201687	0.784153	0.702827
C46	C	0.579757	0.114510	-0.036515
C47	C	0.913090	0.447844	0.296818
C48	C	1.246423	0.781177	0.630152
C49	C	0.661963	0.116258	-0.030960
C50	C	0.995296	0.449591	0.302374
C51	C	1.328630	0.782925	0.635707
C52	C	0.289550	0.111841	0.011454
C53	C	0.622883	0.445175	0.344788
C54	C	0.956216	0.778508	0.678121
C55	C	0.207337	0.110096	0.005904
C56	C	0.540670	0.443430	0.339237
C57	C	0.874004	0.776763	0.672571
C58	C	0.200083	0.117792	0.156805
C59	C	0.533416	0.451125	0.490138
C60	C	0.866750	0.784458	0.823472
C61	C	0.282290	0.119544	0.162354
C62	C	0.615624	0.452877	0.495687
C63	C	0.948957	0.786211	0.829020
C64	C	0.327020	0.116564	0.089679
C65	C	0.660353	0.449897	0.423012
C66	C	0.993687	0.783230	0.756345
N67	N	0.450991	0.115696	0.030480
N68	N	0.784324	0.449030	0.363813
N69	N	1.117658	0.782363	0.697147
N70	N	0.411049	0.118347	0.095359
N71	N	0.744382	0.451681	0.428693
N72	N	1.077715	0.785014	0.762026
C73	C	0.936769	-0.036528	0.063325
C74	C	1.270102	0.296806	0.396658
C75	C	1.603435	0.630139	0.729992
C76	C	0.935211	-0.129777	0.063222
C77	C	1.268544	0.203556	0.396555
C78	C	1.601878	0.536890	0.729889
C79	C	0.855556	-0.400584	0.057820
C80	C	1.188889	-0.067250	0.391154
C81	C	1.522223	0.266083	0.724487
C82	C	0.897243	-0.353393	-0.007826
C83	C	1.230577	-0.020059	0.325507
C84	C	1.563910	0.313274	0.658840
C85	C	0.929657	-0.465434	0.062823
C86	C	1.262990	-0.132101	0.396156
C87	C	1.596323	0.201232	0.729489
C88	C	0.890697	-0.346465	0.128634
C89	C	1.224030	-0.013132	0.461968
C90	C	1.557364	0.320202	0.795301
C91	C	0.932381	-0.300514	0.063020
C92	C	1.265715	0.032819	0.396353
C93	C	1.599048	0.366153	0.729687
C94	C	0.971327	-0.419475	-0.002882
C95	C	1.304660	-0.086141	0.330452
C96	C	1.637994	0.247192	0.663785
C97	C	0.964767	-0.412547	0.133640
C98	C	1.298100	-0.079214	0.466973
C99	C	1.631433	0.254119	0.800307
C100	C	1.006509	-0.365390	0.067980
C101	C	1.339843	-0.032057	0.401314
C102	C	1.673176	0.301277	0.734647
C103	C	0.928085	-0.560440	0.062708
C104	C	1.261418	-0.227107	0.396042
C105	C	1.594752	0.106226	0.729375
C106	C	0.933959	-0.205511	0.063129
C107	C	1.267293	0.127822	0.396462
C108	C	1.600626	0.461155	0.729796
C109	C	1.075114	0.111218	0.072665
C110	C	1.408447	0.444551	0.405998
C111	C	1.741781	0.777884	0.739331
C112	C	1.162607	0.113070	0.078574
C113	C	1.495940	0.446403	0.411907
C114	C	1.829274	0.779736	0.745240
C115	C	0.925272	0.270585	0.062524
C116	C	1.258605	0.603918	0.395858
C117	C	1.591938	0.937251	0.729191
C118	C	0.926830	0.363834	0.062622
C119	C	1.260163	0.697167	0.395955
C120	C	1.593497	1.030501	0.729289
N121	N	0.920650	0.128018	0.278560
N122	N	1.253983	0.461352	0.611894
N123	N	1.587316	0.794685	0.945227
N124	N	0.941397	0.106032	-0.152709
N125	N	1.274730	0.439366	0.180625
N126	N	1.608064	0.772699	0.513958
C127	C	0.972154	0.073280	0.325740
C128	C	1.305487	0.406613	0.659074
C129	C	1.638820	0.739947	0.992407
C130	C	0.967976	0.077725	0.412864
C131	C	1.301309	0.411058	0.746198
C132	C	1.634643	0.744391	1.079531
C133	C	0.912297	0.136912	0.452807
C134	C	1.245631	0.470246	0.786140
C135	C	1.578964	0.803579	1.119474
C136	C	0.860788	0.191653	0.405620
C137	C	1.194121	0.524986	0.738954
C138	C	1.527455	0.858320	1.072287
C139	C	0.864963	0.187204	0.318498
C140	C	1.198296	0.520537	0.651831
C141	C	1.531629	0.853870	0.985164
C142	C	0.894062	0.156324	0.712982
C143	C	1.227395	0.489657	1.046316
C144	C	1.560729	0.822990	1.379649
C145	C	0.889893	0.160771	0.800111
C146	C	1.223226	0.494104	1.133445
C147	C	1.556560	0.827437	1.466778
C148	C	0.997080	0.046841	0.807349
C149	C	1.330414	0.380174	1.140682
C150	C	1.663747	0.713507	1.474016
C151	C	1.001253	0.042400	0.720225
C152	C	1.334587	0.375733	1.053558
C153	C	1.667920	0.709067	1.386891
C154	C	0.949741	0.097138	0.673046
C155	C	1.283074	0.430471	1.006379
C156	C	1.616408	0.763804	1.339712
N157	N	0.908027	0.141459	0.541862
N158	N	1.241361	0.474792	0.875195
N159	N	1.574694	0.808125	1.208528
N160	N	0.954008	0.092587	0.583992
N161	N	1.287341	0.425920	0.917326
N162	N	1.620675	0.759253	1.250659
H163	H	0.536083	0.124614	0.173561
H164	H	0.869416	0.457947	0.506894
H165	H	1.202749	0.791281	0.840227
Cl166	Cl	1.071251	-0.032007	0.670011
Cl167	Cl	1.404584	0.301326	1.003344
Cl168	Cl	1.737917	0.634660	1.336678
H169	H	0.163655	0.120217	0.215973
H170	H	0.496989	0.453550	0.549306
H171	H	0.830322	0.786883	0.882639
Cl172	Cl	1.061832	-0.021971	0.866663
Cl173	Cl	1.395165	0.311362	1.199996
Cl174	Cl	1.728498	0.644695	1.533330
Cl175	Cl	0.790787	0.266058	0.455832
Cl176	Cl	1.124120	0.599391	0.789165
Cl177	Cl	1.457454	0.932724	1.122498
Cl178	Cl	0.757036	-0.424975	0.051059
Cl179	Cl	1.090370	-0.091641	0.384393
Cl180	Cl	1.423703	0.241692	0.717726
Cl181	Cl	0.718196	0.112516	-0.122320
Cl182	Cl	1.051529	0.445849	0.211014
Cl183	Cl	1.384863	0.779183	0.544347
H184	H	0.868725	-0.327467	-0.067637
H185	H	1.202058	0.005866	0.265697
H186	H	1.535392	0.339200	0.599030
H187	H	0.176826	0.106255	-0.057800
H188	H	0.510160	0.439588	0.275534
H189	H	0.843493	0.772921	0.608867
H190	H	1.070377	-0.349762	0.072259
H191	H	1.403710	-0.016429	0.405592
H192	H	1.737043	0.316904	0.738926
Cl193	Cl	0.345770	0.108096	-0.079910
Cl194	Cl	0.679104	0.441430	0.253424
Cl195	Cl	1.012437	0.774763	0.586757
Cl196	Cl	0.532647	0.108545	-0.134856
Cl197	Cl	0.865980	0.441878	0.198477
Cl198	Cl	1.199314	0.775211	0.531811
H199	H	1.005378	-0.451157	-0.058525
H200	H	1.338711	-0.117823	0.274808
H201	H	1.672044	0.215510	0.608141
H202	H	0.852120	0.200895	0.674576
H203	H	1.185454	0.534228	1.007909
H204	H	1.518787	0.867562	1.341243
H205	H	0.993257	-0.438488	0.193450
H206	H	1.326591	-0.105155	0.526784
H207	H	1.659924	0.228178	0.860117
Cl208	Cl	0.838077	-0.297388	0.214439
Cl209	Cl	1.171410	0.035946	0.547772
Cl210	Cl	1.504743	0.369279	0.881105
Cl211	Cl	0.800209	0.256018	0.259186
Cl212	Cl	1.133542	0.589352	0.592520
Cl213	Cl	1.466875	0.922685	0.925853
Cl214	Cl	1.032724	0.008909	0.472178
Cl215	Cl	1.366057	0.342242	0.805511
Cl216	Cl	1.699391	0.675576	1.138844
Cl217	Cl	0.701808	0.129901	0.218285
Cl218	Cl	1.035141	0.463234	0.551619
Cl219	Cl	1.368475	0.796567	0.884952
H220	H	1.017496	0.025087	0.293225
H221	H	1.350830	0.358420	0.626559
H222	H	1.684163	0.691753	0.959892
H223	H	0.844550	0.208972	0.832628
H224	H	1.177884	0.542305	1.165961
H225	H	1.511217	0.875639	1.499295
H226	H	0.312798	0.123384	0.226053
H227	H	0.646132	0.456717	0.559386
H228	H	0.979465	0.790051	0.892720
