data_functionalizedCrystal
_audit_creation_method	'MofGen! by Chris Wilmer'
_symmetry_space_group_name_H-M	'P1'
_symmetry_Int_Tables_number	1
_symmetry_cell_setting	triclinic
loop_
_symmetry_equiv_pos_as_xyz
  x,y,z
_cell_length_a	19.805407
_cell_length_b	12.759400
_cell_length_c	19.805399
_cell_angle_alpha	90.022119
_cell_angle_beta	90.019573
_cell_angle_gamma	90.013166
loop_
_atom_site_label
_atom_site_type_symbol
_atom_site_fract_x
_atom_site_fract_y
_atom_site_fract_z
Zn1	Zn	1.034798	-0.418291	0.382745
Zn2	Zn	1.034739	-0.593984	0.269568
Zn3	Zn	0.921613	-0.418320	0.269570
Zn4	Zn	0.921602	-0.593928	0.382715
O5	O	0.978188	-0.506131	0.326149
O6	O	1.129507	-0.441608	0.367744
O7	O	1.019712	-0.570717	0.174852
O8	O	0.936656	-0.271295	0.284597
O9	O	1.129463	-0.570689	0.284593
O10	O	1.019813	-0.271273	0.367746
O11	O	0.936599	-0.441657	0.174853
O12	O	0.826895	-0.441603	0.284567
O13	O	0.936638	-0.570594	0.477435
O14	O	0.826887	-0.570622	0.367694
O15	O	1.019803	-0.441554	0.477458
O16	O	1.019702	-0.740998	0.284563
O17	O	0.936581	-0.740957	0.367692
C18	C	0.802332	-0.506110	0.326128
C19	C	0.727100	-0.506127	0.326134
C20	C	0.691770	-0.573408	0.369348
C21	C	0.621081	-0.573410	0.369358
C22	C	0.585724	-0.506135	0.326149
C23	C	0.621060	-0.438847	0.282933
C24	C	0.691747	-0.438840	0.282928
C25	C	0.335986	-0.438870	0.282956
C26	C	0.265294	-0.438884	0.282963
C27	C	0.265321	-0.573440	0.369386
C28	C	0.336008	-0.573433	0.369380
C29	C	0.371337	-0.506141	0.326167
C30	C	0.447985	-0.506139	0.326158
C31	C	0.509077	-0.506142	0.326154
C32	C	0.978152	-0.779098	0.326139
C33	C	0.978199	-0.895875	0.326157
C34	C	1.021477	-0.950646	0.369488
C35	C	1.021509	-1.060370	0.369505
C36	C	0.934982	-1.060542	0.282853
C37	C	0.934948	-0.950820	0.282840
C38	C	1.064729	-0.895701	0.412805
C39	C	1.108011	-0.950472	0.456139
C40	C	1.108042	-1.060196	0.456156
C41	C	1.064792	-1.115149	0.412838
C42	C	1.154731	-0.506152	0.326172
C43	C	1.229963	-0.506160	0.326181
C44	C	0.978226	-0.506064	0.502692
C45	C	0.978242	-0.506036	0.577924
C46	C	0.978242	-0.232097	0.326175
C47	C	0.978265	-0.115321	0.326186
C48	C	0.978189	-0.506121	0.150293
C49	C	0.978304	-0.505853	0.075062
C50	C	1.021547	-0.438842	0.613281
C51	C	1.021554	-0.438811	0.683970
C52	C	0.978259	-0.505981	0.719300
C53	C	0.934949	-0.573179	0.683938
C54	C	0.934940	-0.573203	0.613251
C55	C	0.934988	-0.573081	0.969011
C56	C	0.935002	-0.573054	1.039704
C57	C	1.021602	-0.438689	1.039730
C58	C	1.021592	-0.438713	0.969043
C59	C	0.978280	-0.505906	0.933687
C60	C	0.978272	-0.505937	0.857039
C61	C	0.978270	-0.505957	0.795947
H62	H	0.236509	-0.384094	0.247778
H63	H	0.364743	-0.384085	0.247764
O64	O	0.892887	-0.638436	0.934777
C65	C	0.806937	-0.771626	0.942217
C66	C	0.854602	-0.697690	0.981074
H67	H	0.775961	-0.819536	0.979631
H68	H	0.837945	-0.826657	0.909132
H69	H	0.771582	-0.723357	0.909113
H70	H	0.889966	-0.745874	1.014215
H71	H	0.823551	-0.642655	1.014117
H72	H	1.064709	-0.806358	0.412795
O73	O	0.892897	-0.638380	0.578798
C74	C	0.854527	-0.698010	0.469887
C75	C	0.902168	-0.624130	0.508818
H76	H	0.862016	-0.686531	0.413301
H77	H	0.799941	-0.679546	0.483726
H78	H	0.866390	-0.782712	0.483818
H79	H	0.890366	-0.539403	0.494908
H80	H	0.956740	-0.642685	0.494976
O81	O	0.892878	-1.113873	0.240845
C82	C	0.777778	-1.147560	0.207856
C83	C	0.825382	-1.087119	0.255485
H84	H	0.723198	-1.125935	0.219667
H85	H	0.785179	-1.235402	0.215310
H86	H	0.789725	-1.126032	0.153292
H87	H	0.813464	-1.108558	0.310068
H88	H	0.817972	-0.999291	0.247973
O89	O	0.586612	-0.373588	0.240985
C90	C	0.477705	-0.313909	0.202724
C91	C	0.516631	-0.387886	0.250254
H92	H	0.421119	-0.325427	0.210211
H93	H	0.491527	-0.332240	0.148109
H94	H	0.491660	-0.229230	0.214699
H95	H	0.502697	-0.472590	0.238339
H96	H	0.502806	-0.369465	0.304854
H97	H	0.720552	-0.628195	0.404532
O98	O	0.230969	-0.638649	0.411443
C99	C	0.151171	-0.652979	0.502792
C100	C	0.190042	-0.579012	0.455220
H101	H	0.118061	-0.604794	0.538189
H102	H	0.188552	-0.701047	0.533721
H103	H	0.118085	-0.707873	0.471646
H104	H	0.223128	-0.524055	0.486314
H105	H	0.152624	-0.531019	0.424289
O106	O	1.063589	-0.373391	0.718236
C107	C	1.096463	-0.194668	0.739901
C108	C	1.048824	-0.268647	0.701045
H109	H	1.084532	-0.109967	0.726027
H110	H	1.151044	-0.213050	0.725997
H111	H	1.089048	-0.206228	0.796489
H112	H	1.056178	-0.257129	0.644447
H113	H	0.994260	-0.250247	0.715005
H114	H	0.592318	-0.628198	0.404547
O115	O	0.726040	-0.373602	0.240850
C116	C	0.747599	-0.322329	0.125772
C117	C	0.708732	-0.396297	0.173347
H118	H	0.733609	-0.340638	0.071187
H119	H	0.804201	-0.333885	0.133133
H120	H	0.733725	-0.237644	0.137785
H121	H	0.722550	-0.481011	0.161364
H122	H	0.652139	-0.384650	0.165978
O123	O	0.892955	-0.638393	0.718360
C124	C	0.854559	-0.697863	0.827243
C125	C	0.902163	-0.623969	0.788347
H126	H	0.861977	-0.686212	0.883834
H127	H	0.866425	-0.782609	0.813388
H128	H	0.799991	-0.679420	0.813296
H129	H	0.956747	-0.642318	0.802274
H130	H	0.890239	-0.539245	0.802205
O131	O	0.370248	-0.638817	0.411417
C132	C	0.362812	-0.772322	0.497116
C133	C	0.323953	-0.698315	0.449552
H134	H	0.325399	-0.820461	0.527950
H135	H	0.395907	-0.724203	0.532602
H136	H	0.395906	-0.827146	0.465968
H137	H	0.290822	-0.643476	0.480646
H138	H	0.290900	-0.746499	0.414065
O139	O	0.892909	-0.638157	1.074100
C140	C	0.801518	-0.652238	1.153870
C141	C	0.849150	-0.578394	1.114969
H142	H	0.766117	-0.603948	1.186911
H143	H	0.832553	-0.707150	1.187007
H144	H	0.770590	-0.700292	1.116448
H145	H	0.880089	-0.530272	1.152343
H146	H	0.818077	-0.523552	1.081822
O147	O	1.149946	-0.897141	0.498316
C148	C	1.182748	-0.863473	0.613474
C149	C	1.135205	-0.923914	0.565784
H150	H	1.170856	-0.885113	0.668031
H151	H	1.175289	-0.775631	0.606078
H152	H	1.237335	-0.884986	0.601608
H153	H	1.080600	-0.902489	0.577621
H154	H	1.142722	-1.011741	0.573189
O155	O	1.063670	-0.373364	0.934829
C156	C	1.149593	-0.240123	0.942318
C157	C	1.101966	-0.314064	0.981148
H158	H	1.180578	-0.192175	0.979750
H159	H	1.118555	-0.185127	0.909243
H160	H	1.184941	-0.288390	0.909206
H161	H	1.066608	-0.265882	1.014296
H162	H	1.133046	-0.369063	1.014180
H163	H	1.143279	-1.104788	0.491446
H164	H	1.064813	-1.204493	0.412863
H165	H	0.899706	-0.906225	0.247556
H166	H	1.056805	-0.384147	0.584520
O167	O	1.063606	-0.373439	1.074181
C168	C	1.102033	-0.313882	1.183089
C169	C	1.054418	-0.387807	1.144161
H170	H	1.094631	-0.325489	1.239675
H171	H	1.090162	-0.229147	1.169244
H172	H	1.156597	-0.332335	1.169160
H173	H	0.999838	-0.369449	1.158070
H174	H	1.066347	-0.472520	1.158010
