data_functionalizedCrystal
_audit_creation_method	'MofGen! by Chris Wilmer'
_symmetry_space_group_name_H-M	'P1'
_symmetry_Int_Tables_number	1
_symmetry_cell_setting	triclinic
loop_
_symmetry_equiv_pos_as_xyz
  x,y,z
_cell_length_a	16.625548
_cell_length_b	12.594516
_cell_length_c	16.625539
_cell_angle_alpha	89.976673
_cell_angle_beta	89.979432
_cell_angle_gamma	90.017121
loop_
_atom_site_label
_atom_site_type_symbol
_atom_site_fract_x
_atom_site_fract_y
_atom_site_fract_z
Zn1	Zn	1.232716	-0.423710	-0.455937
Zn2	Zn	1.732716	0.076290	0.044063
Zn3	Zn	1.232635	-0.601711	-0.321116
Zn4	Zn	1.732635	-0.101711	0.178884
Zn5	Zn	1.097878	-0.423750	-0.321118
Zn6	Zn	1.597878	0.076250	0.178882
Zn7	Zn	1.097864	-0.601650	-0.455906
Zn8	Zn	1.597864	-0.101650	0.044094
O9	O	1.165273	-0.512705	-0.388519
O10	O	1.665273	-0.012705	0.111481
O11	O	1.345538	-0.447331	-0.438065
O12	O	1.845538	0.052669	0.061935
O13	O	1.214731	-0.578147	-0.208284
O14	O	1.714731	-0.078147	0.291716
O15	O	1.115805	-0.274799	-0.339016
O16	O	1.615805	0.225201	0.160984
O17	O	1.345478	-0.578108	-0.339013
O18	O	1.845478	-0.078108	0.160987
O19	O	1.214870	-0.274769	-0.438067
O20	O	1.714870	0.225231	0.061933
O21	O	1.115726	-0.447400	-0.208285
O22	O	1.615726	0.052600	0.291715
O23	O	0.985044	-0.447341	-0.338985
O24	O	1.485044	0.052659	0.161015
O25	O	1.115780	-0.578003	-0.568743
O26	O	1.615780	-0.078003	-0.068743
O27	O	0.985033	-0.578043	-0.438014
O28	O	1.485033	-0.078043	0.061986
O29	O	1.214856	-0.447271	-0.568766
O30	O	1.714856	0.052729	-0.068766
O31	O	1.214717	-0.750649	-0.338983
O32	O	1.714717	-0.250649	0.161017
O33	O	1.115701	-0.750604	-0.438012
O34	O	1.615701	-0.250604	0.061988
C35	C	0.955782	-0.512690	-0.388497
C36	C	1.455782	-0.012690	0.111503
C37	C	0.866161	-0.512709	-0.388506
C38	C	1.366161	-0.012709	0.111494
C39	C	0.537986	-0.512716	-0.388541
C40	C	1.037986	-0.012716	0.111459
C41	C	0.629294	-0.512711	-0.388529
C42	C	1.129294	-0.012711	0.111471
C43	C	0.702071	-0.512713	-0.388523
C44	C	1.202071	-0.012713	0.111477
C45	C	0.793385	-0.512707	-0.388512
C46	C	1.293385	-0.012707	0.111488
C47	C	1.165220	-0.789246	-0.388511
C48	C	1.665220	-0.289246	0.111489
C49	C	1.165272	-0.907552	-0.388535
C50	C	1.665272	-0.407552	0.111465
C51	C	1.111412	-0.976819	-0.442359
C52	C	1.611412	-0.476819	0.057641
C53	C	1.091767	-1.047680	-0.368785
C54	C	1.591767	-0.547680	0.131215
C55	C	1.184990	-1.047490	-0.462122
C56	C	1.684990	-0.547490	0.037878
C57	C	1.145588	-0.976855	-0.314921
C58	C	1.645588	-0.476855	0.185079
C59	C	1.238845	-0.976658	-0.408308
C60	C	1.738845	-0.476658	0.091692
C61	C	1.219228	-1.047487	-0.334683
C62	C	1.719228	-0.547487	0.165317
C63	C	1.375582	-0.512721	-0.388542
C64	C	1.875582	-0.012721	0.111458
C65	C	1.465203	-0.512728	-0.388552
C66	C	1.965203	-0.012728	0.111448
C67	C	1.165326	-0.512626	-0.598828
C68	C	1.665326	-0.012626	-0.098828
C69	C	1.165348	-0.512592	-0.688449
C70	C	1.665348	-0.012592	-0.188449
C71	C	1.165348	-0.235085	-0.388545
C72	C	1.665348	0.264915	0.111455
C73	C	1.165380	-0.116779	-0.388556
C74	C	1.665380	0.383221	0.111444
C75	C	1.165385	-0.512473	-1.016625
C76	C	1.665385	-0.012473	-0.516625
C77	C	1.165373	-0.512510	-0.925317
C78	C	1.665373	-0.012510	-0.425317
C79	C	1.165367	-0.512534	-0.852540
C80	C	1.665367	-0.012534	-0.352540
C81	C	1.165354	-0.512568	-0.761226
C82	C	1.665354	-0.012568	-0.261226
C83	C	1.165267	-0.512708	-0.179028
C84	C	1.665267	-0.012708	0.320972
C85	C	1.165401	-0.512442	-0.089408
C86	C	1.665401	-0.012442	0.410592
H87	H	1.065783	-0.945789	-0.487811
H88	H	1.565783	-0.445789	0.012189
C89	C	1.279917	-1.088554	-0.273809
C90	C	1.779917	-0.588554	0.226191
C91	C	1.258956	-1.052593	-0.196934
C92	C	1.758956	-0.552593	0.303066
C93	C	1.314834	-1.090416	-0.140834
C94	C	1.814834	-0.590416	0.359166
H95	H	1.332017	-1.063185	-0.287295
H96	H	1.832017	-0.563185	0.212705
H97	H	1.279927	-1.163984	-0.274407
H98	H	1.779927	-0.663984	0.225593
H99	H	1.258954	-0.977179	-0.196338
H100	H	1.758954	-0.477179	0.303662
H101	H	1.206865	-1.077959	-0.183423
H102	H	1.706865	-0.577959	0.316577
H103	H	1.314844	-1.165846	-0.141431
H104	H	1.814844	-0.665846	0.358569
H105	H	1.366931	-1.065045	-0.154327
H106	H	1.866931	-0.565045	0.345673
H107	H	1.300616	-1.066031	-0.088666
H108	H	1.800616	-0.566031	0.411334
H109	H	1.201624	-1.078517	-0.524346
H110	H	1.701624	-0.578517	-0.024346
C111	C	1.008811	-1.089223	-0.346642
C112	C	1.508811	-0.589223	0.153358
C113	C	0.952606	-1.053447	-0.403182
C114	C	1.452606	-0.553447	0.096818
C115	C	0.876180	-1.091701	-0.382822
C116	C	1.376180	-0.591701	0.117178
H117	H	0.994362	-1.064022	-0.294770
H118	H	1.494362	-0.564022	0.205230
H119	H	1.009540	-1.164650	-0.346364
H120	H	1.509540	-0.664650	0.153636
H121	H	0.951874	-0.978036	-0.403452
H122	H	1.451874	-0.478036	0.096548
H123	H	0.967029	-1.078645	-0.455059
H124	H	1.467029	-0.578645	0.044941
H125	H	0.876910	-1.167128	-0.382544
H126	H	1.376910	-0.667128	0.117456
H127	H	0.861739	-1.066498	-0.330949
H128	H	1.361739	-0.566498	0.169051
H129	H	0.838037	-1.067441	-0.421185
H130	H	1.338037	-0.567441	0.078815
C131	C	1.123282	-0.935456	-0.231996
C132	C	1.623282	-0.435456	0.268004
C133	C	1.123432	-0.824294	-0.232967
C134	C	1.623432	-0.324294	0.267033
C135	C	1.102875	-0.786119	-0.156596
C136	C	1.602875	-0.286119	0.343404
H137	H	1.161308	-0.960104	-0.193669
H138	H	1.661308	-0.460104	0.306331
H139	H	1.071199	-0.960307	-0.217863
H140	H	1.571199	-0.460307	0.282137
H141	H	1.175508	-0.799454	-0.247089
H142	H	1.675508	-0.299454	0.252911
H143	H	1.085406	-0.799618	-0.271277
H144	H	1.585406	-0.299618	0.228723
H145	H	1.050791	-0.810970	-0.142464
H146	H	1.550791	-0.310970	0.357536
H147	H	1.140902	-0.810775	-0.118276
H148	H	1.640902	-0.310775	0.381724
H149	H	1.102966	-0.710693	-0.157247
H150	H	1.602966	-0.210693	0.342753
C151	C	1.321693	-0.935080	-0.430795
C152	C	1.821693	-0.435080	0.069205
C153	C	1.341972	-0.970782	-0.507923
C154	C	1.841972	-0.470782	-0.007923
C155	C	1.418280	-0.932489	-0.528678
C156	C	1.918280	-0.432489	-0.028678
H157	H	1.360209	-0.960303	-0.393180
H158	H	1.860209	-0.460303	0.106820
H159	H	1.321180	-0.859654	-0.430185
H160	H	1.821180	-0.359654	0.069815
H161	H	1.342491	-1.046193	-0.508527
H162	H	1.842491	-0.546193	-0.008527
H163	H	1.303477	-0.945562	-0.545555
H164	H	1.803477	-0.445562	-0.045555
H165	H	1.417767	-0.857062	-0.528068
H166	H	1.917767	-0.357062	-0.028068
H167	H	1.456789	-0.957714	-0.491058
H168	H	1.956789	-0.457714	0.008942
H169	H	1.432046	-0.956699	-0.581013
H170	H	1.932046	-0.456699	-0.081013
