data_functionalizedCrystal
_audit_creation_method	'MofGen! by Chris Wilmer'
_symmetry_space_group_name_H-M	'P1'
_symmetry_Int_Tables_number	1
_symmetry_cell_setting	triclinic
loop_
_symmetry_equiv_pos_as_xyz
  x,y,z
_cell_length_a	12.759401
_cell_length_b	13.032721
_cell_length_c	12.759393
_cell_angle_alpha	97.149226
_cell_angle_beta	89.979062
_cell_angle_gamma	97.205831
loop_
_atom_site_label
_atom_site_type_symbol
_atom_site_fract_x
_atom_site_fract_y
_atom_site_fract_z
Zn1	Zn	1.553113	-0.415945	-0.647098
Zn2	Zn	1.530669	-0.590725	-0.493722
Zn3	Zn	1.377404	-0.416001	-0.471441
Zn4	Zn	1.355078	-0.590652	-0.669350
O5	O	1.454066	-0.503331	-0.570403
O6	O	1.697156	-0.439137	-0.626765
O7	O	1.510289	-0.567601	-0.343752
O8	O	1.419449	-0.269756	-0.476105
O9	O	1.680666	-0.567547	-0.514080
O10	O	1.548541	-0.269715	-0.605160
O11	O	1.397686	-0.439232	-0.327382
O12	O	1.227423	-0.439161	-0.497681
O13	O	1.381397	-0.567423	-0.813412
O14	O	1.211019	-0.567477	-0.643084
O15	O	1.526892	-0.439067	-0.797064
O16	O	1.488640	-0.736953	-0.535656
O17	O	1.359634	-0.736899	-0.664689
C18	C	1.181100	-0.503318	-0.570380
C19	C	1.064321	-0.503338	-0.570399
C20	C	1.000932	-0.570253	-0.646017
C21	C	0.891208	-0.570257	-0.646038
C22	C	0.908271	-0.436427	-0.494813
C23	C	1.017994	-0.436419	-0.494797
C24	C	1.419307	-0.774844	-0.605028
C25	C	1.404533	-0.890999	-0.619876
C26	C	1.461832	-0.942776	-0.562700
C27	C	1.446564	-1.062828	-0.578045
C28	C	1.728097	-0.503344	-0.570426
C29	C	1.844873	-0.503350	-0.570436
C30	C	1.454157	-0.503230	-0.844423
C31	C	1.454196	-0.503188	-0.961194
C32	C	1.488989	-0.230757	-0.535665
C33	C	1.503872	-0.114602	-0.520862
C34	C	1.529962	-0.436342	-1.007544
C35	C	1.529986	-0.436297	-1.117263
C36	C	1.378473	-0.569952	-1.134273
C37	C	1.378446	-0.569991	-1.024556
C38	C	1.454045	-0.503355	-0.297438
C39	C	1.454247	-0.503104	-0.180630
H40	H	0.870537	-0.381946	-0.433260
C41	C	1.295106	-0.643532	-0.973568
H42	H	1.250006	-0.683324	-1.027017
H43	H	1.254441	-0.603572	-0.925662
H44	H	1.329462	-0.689084	-0.936580
H45	H	1.038649	-0.624740	-0.707579
C46	C	0.821485	-0.643862	-0.729221
H47	H	0.864794	-0.683715	-0.774237
H48	H	0.783819	-0.603942	-0.769981
H49	H	0.772836	-0.689354	-0.694761
H50	H	1.344178	-0.935548	-0.680190
H51	H	1.069608	-0.381922	-0.433219
H52	H	1.591680	-0.381863	-1.154995
C53	C	1.543376	-0.882604	-0.481226
H54	H	1.542936	-0.809809	-0.481597
H55	H	1.611715	-0.900368	-0.498917
H56	H	1.525769	-0.900504	-0.412889
C57	C	1.365018	-1.122996	-0.659526
H58	H	1.365449	-1.195791	-0.659146
H59	H	1.382615	-1.105093	-0.727858
H60	H	1.296674	-1.105235	-0.641824
H61	H	1.564240	-1.070058	-0.460551
H62	H	1.591640	-0.381943	-0.955958
C63	C	1.295164	-0.643439	-1.203974
H64	H	1.306037	-0.633851	-1.275957
H65	H	1.226527	-0.628151	-1.184035
H66	H	1.301546	-0.713664	-1.194940
