data_functionalizedCrystal
_audit_creation_method	'MofGen! by Chris Wilmer'
_symmetry_space_group_name_H-M	'P1'
_symmetry_Int_Tables_number	1
_symmetry_cell_setting	triclinic
loop_
_symmetry_equiv_pos_as_xyz
  x,y,z
_cell_length_a	12.784905
_cell_length_b	16.992695
_cell_length_c	15.455313
_cell_angle_alpha	92.847427
_cell_angle_beta	92.399933
_cell_angle_gamma	98.112229
loop_
_atom_site_label
_atom_site_type_symbol
_atom_site_fract_x
_atom_site_fract_y
_atom_site_fract_z
O1	O	1.415072	-0.001158	0.072136
O2	O	1.108453	-0.034544	0.072137
O3	O	1.260533	0.096207	0.072130
O4	O	1.262993	-0.131910	0.072143
O5	O	1.251834	0.088758	-0.072132
O6	O	1.099754	-0.041993	-0.072125
O7	O	1.406373	-0.008607	-0.072126
Cu8	Cu	1.252270	-0.025980	-0.085298
Cu9	Cu	1.262557	-0.017171	0.085309
O10	O	1.254294	-0.139359	-0.072118
C11	C	1.064689	-0.040440	0.000006
C12	C	0.947244	-0.046901	0.000006
C13	C	0.739680	0.084727	0.000014
C14	C	0.629330	0.078660	0.000014
C15	C	0.616194	-0.065099	0.000013
C16	C	0.726543	-0.059033	0.000013
C17	C	0.788283	0.015883	0.000012
C18	C	0.898634	0.021948	0.000006
C19	C	0.885496	-0.121810	0.000011
C20	C	0.775146	-0.127877	0.000011
C21	C	1.253021	0.121480	-0.000001
C22	C	1.243585	0.207881	-0.000001
C23	C	1.450138	-0.002711	0.000007
C24	C	1.567583	0.003750	0.000012
C25	C	1.261806	-0.164631	0.000014
C26	C	1.271242	-0.251032	0.000020
N27	N	1.245042	-0.032175	-0.205293
C28	C	1.334629	0.264328	-0.000002
C29	C	1.325757	0.345510	0.000006
C30	C	1.225841	0.370243	0.000009
C31	C	1.134791	0.313788	0.000013
C32	C	1.143664	0.232608	0.000011
C33	C	1.189065	0.611334	0.000021
C34	C	1.180199	0.692521	0.000021
C35	C	1.371166	0.724237	0.000015
C36	C	1.380030	0.643054	0.000008
C37	C	1.288980	0.586607	0.000017
N38	N	1.216770	0.453223	0.000015
N39	N	1.298053	0.503628	0.000017
C40	C	1.309676	0.023356	-0.250690
C41	C	1.304220	0.018664	-0.341498
C42	C	1.234134	-0.041562	-0.386906
C43	C	1.169493	-0.097095	-0.341503
C44	C	1.174944	-0.092400	-0.250697
C45	C	1.210603	-0.061808	-0.658487
C46	C	1.205159	-0.066500	-0.749299
C47	C	1.339885	0.049261	-0.749288
C48	C	1.345335	0.053948	-0.658480
C49	C	1.280689	-0.001583	-0.613084
N50	N	1.228558	-0.046360	-0.479726
N51	N	1.286261	0.003219	-0.520266
N52	N	1.269793	-0.010970	0.205304
H53	H	0.565907	-0.126091	0.000025
Br54	Br	0.982422	0.123617	-0.000001
H55	H	0.589763	0.134720	0.000017
H56	H	1.122311	-0.137618	-0.213735
Br57	Br	1.494726	0.800847	0.000004
H58	H	0.724863	-0.188871	0.000015
Br59	Br	1.427612	0.124622	-0.810899
Br60	Br	1.470235	0.230771	-0.000019
H61	H	0.925079	-0.177869	0.000005
H62	H	1.112422	-0.146131	-0.378480
Br63	Br	1.449322	0.422116	0.000005
Br64	Br	0.823473	0.186393	-0.000003
H65	H	1.053437	0.333932	0.000021
H66	H	1.461392	0.622924	0.000005
Br67	Br	1.065497	0.534737	0.000038
H68	H	1.356850	0.063882	-0.378460
H69	H	1.098830	0.712652	0.000009
H70	H	1.069527	0.186648	0.000012
Br71	Br	1.404805	0.105091	-0.189073
Br72	Br	1.440456	0.135681	-0.596852
H73	H	1.148084	-0.115547	-0.786267
Br74	Br	1.122875	-0.137170	-0.596883
