data_functionalizedCrystal
_audit_creation_method	'MofGen! by Chris Wilmer'
_symmetry_space_group_name_H-M	'P1'
_symmetry_Int_Tables_number	1
_symmetry_cell_setting	triclinic
loop_
_symmetry_equiv_pos_as_xyz
  x,y,z
_cell_length_a	9.130307
_cell_length_b	11.026607
_cell_length_c	11.026607
_cell_angle_alpha	108.586017
_cell_angle_beta	89.996706
_cell_angle_gamma	89.999977
loop_
_atom_site_label
_atom_site_type_symbol
_atom_site_fract_x
_atom_site_fract_y
_atom_site_fract_z
O1	O	0.121796	-1.726727	-0.533623
O2	O	0.121798	-1.360147	-0.472859
O3	O	0.121792	-1.513055	-0.319951
O4	O	0.121802	-1.573818	-0.686531
O5	O	-0.121807	-1.513050	-0.319943
O6	O	-0.121801	-1.360142	-0.472851
O7	O	-0.121803	-1.726722	-0.533615
Cu8	Cu	-0.144045	-1.543432	-0.503232
Cu9	Cu	0.144040	-1.543437	-0.503242
O10	O	-0.121797	-1.573814	-0.686523
C11	C	-0.000001	-1.312485	-0.461645
C12	C	-0.000000	-1.170471	-0.428228
N13	N	-0.346667	-1.543437	-0.503227
N14	N	0.346662	-1.543440	-0.503239
C15	C	0.346647	-1.679249	-0.368233
C16	C	0.423306	-1.747148	-0.300720
C17	C	0.576639	-1.747144	-0.300706
C18	C	0.653317	-1.679238	-0.368215
C19	C	0.576658	-1.611339	-0.435728
C20	C	0.423321	-1.611347	-0.435732
C21	C	0.576674	-1.475538	-0.570740
C22	C	0.423340	-1.475533	-0.570748
C23	C	0.653352	-1.407632	-0.638249
C24	C	0.576693	-1.339724	-0.705756
C25	C	0.423350	-1.339730	-0.705767
C26	C	0.346681	-1.407634	-0.638261
C27	C	-0.000006	-1.501843	-0.272287
C28	C	-0.000000	-1.468426	-0.130273
C29	C	-0.000001	-1.774384	-0.544828
C30	C	0.000008	-1.916398	-0.578245
C31	C	0.000003	-1.116821	-0.520498
C32	C	0.000004	-0.970043	-0.485962
C33	C	0.000004	-1.585026	-0.734187
C34	C	0.000008	-1.618443	-0.876200
C35	C	0.000001	-1.560695	-0.076624
C36	C	0.000007	-1.526160	0.070155
H37	H	0.221795	-1.679246	-0.368225
H38	H	-0.000002	-1.179555	-0.625061
H39	H	0.000010	-1.363863	-0.067540
H40	H	0.778169	-1.679252	-0.368212
F41	F	-0.000009	-0.888056	-0.349281
F42	F	-0.000006	-0.998382	-0.714928
F43	F	0.000021	-1.389478	0.152141
F44	F	-0.000014	-1.088480	-0.291554
F45	F	0.816543	-1.407635	-0.638241
F46	F	0.183490	-1.407640	-0.638260
H47	H	0.639055	-1.802439	-0.245737
F48	F	0.341693	-1.819421	-0.228880
F49	F	0.000014	-1.755125	0.041816
F50	F	0.658304	-1.267470	-0.777605
H51	H	-0.000009	-1.665258	-0.139357
H52	H	0.360942	-1.284444	-0.760750
