data_functionalizedCrystal
_audit_creation_method	'MofGen! by Chris Wilmer'
_symmetry_space_group_name_H-M	'P1'
_symmetry_Int_Tables_number	1
_symmetry_cell_setting	triclinic
loop_
_symmetry_equiv_pos_as_xyz
  x,y,z
_cell_length_a	16.956984
_cell_length_b	13.101018
_cell_length_c	16.974813
_cell_angle_alpha	90.291839
_cell_angle_beta	79.731954
_cell_angle_gamma	93.111044
loop_
_atom_site_label
_atom_site_type_symbol
_atom_site_fract_x
_atom_site_fract_y
_atom_site_fract_z
O1	O	1.062520	0.087540	0.027988
O2	O	0.830450	0.089833	0.055626
O3	O	0.952466	0.079144	-0.073199
O4	O	0.940505	0.098228	0.156813
O5	O	0.943701	-0.090518	-0.063948
O6	O	0.821686	-0.079830	0.064877
O7	O	1.053756	-0.082123	0.037239
Zn8	Zn	0.936329	-0.107914	0.052527
Zn9	Zn	0.947877	0.115624	0.040338
O10	O	0.931740	-0.071435	0.166064
C11	C	0.796365	0.005119	0.061667
C12	C	0.707857	0.005468	0.065874
C13	C	0.675549	-0.000371	-0.004476
C14	C	0.592387	-0.000035	-0.000518
C15	C	0.541534	0.006132	0.073791
C16	C	0.573847	0.011974	0.144146
C17	C	0.657008	0.011646	0.140187
C18	C	0.291824	0.007765	0.093387
C19	C	0.208657	0.008090	0.097341
C20	C	0.227203	-0.003918	-0.047324
C21	C	0.310365	-0.004252	-0.051276
C22	C	0.342671	0.001596	0.019078
N23	N	0.456528	0.006472	0.077838
N24	N	0.427676	0.001263	0.015030
N25	N	0.928454	-0.260473	0.060845
C26	C	0.966469	-0.523714	0.020694
C27	C	0.917746	-0.468571	0.072162
C28	C	0.923706	-0.352775	0.065863
C29	C	0.960510	-0.639521	0.026991
C30	C	1.087842	0.002593	0.031198
C31	C	1.176349	0.002251	0.026991
C32	C	0.947466	-0.008115	-0.097867
C33	C	0.945615	-0.015351	-0.185153
N34	N	0.955758	0.268182	0.032014
C35	C	0.949525	0.073732	-0.231198
C36	C	0.947781	0.066931	-0.313211
C37	C	0.942133	-0.028955	-0.349178
C38	C	0.938220	-0.118045	-0.303126
C39	C	0.939959	-0.111242	-0.221114
C40	C	0.936417	-0.059218	-0.593918
C41	C	0.934681	-0.066014	-0.675937
C42	C	0.944241	0.118963	-0.686016
C43	C	0.945984	0.125757	-0.604002
C44	C	0.942066	0.036667	-0.557957
N45	N	0.940353	-0.035910	-0.433009
N46	N	0.943841	0.043623	-0.474126
C47	C	0.936741	0.015827	0.190732
C48	C	0.938591	0.023070	0.278018
H49	H	0.532436	0.017002	0.204650
O50	O	0.951692	0.153383	-0.358057
C51	C	1.019958	0.153850	-0.419188
H52	H	1.038532	0.072152	-0.431548
H53	H	1.005253	0.188445	-0.475987
H54	H	1.071290	0.201330	-0.399464
H55	H	1.012654	-0.483962	-0.028095
H56	H	0.954129	0.151813	-0.201921
O57	O	0.688261	0.017276	0.208605
C58	C	0.625547	0.022815	0.275041
H59	H	0.567325	-0.010834	0.258411
H60	H	0.640549	-0.022336	0.327172
H61	H	0.618056	0.106092	0.293261
O62	O	0.951433	0.218983	-0.569185
C63	C	0.954530	0.296154	-0.627417
H64	H	0.926677	0.264601	-0.679501
H65	H	0.919710	0.363428	-0.599731
H66	H	1.019707	0.322838	-0.650107
O67	O	0.195849	-0.009769	-0.115676
C68	C	0.217288	-0.101355	-0.155869
H69	H	0.231549	-0.159355	-0.111288
H70	H	0.165281	-0.133351	-0.184471
H71	H	0.272368	-0.085419	-0.204347
H72	H	0.318118	0.012533	0.150674
O73	O	0.159141	0.014032	0.169466
C74	C	0.078815	0.013086	0.157868
H75	H	0.073771	-0.024151	0.097998
H76	H	0.038743	-0.032216	0.208251
H77	H	0.058976	0.094857	0.157978
O78	O	0.932484	-0.145730	-0.549144
C79	C	0.864241	-0.146230	-0.487984
H80	H	0.818214	-0.095018	-0.506178
H81	H	0.836889	-0.227584	-0.478110
H82	H	0.882434	-0.116495	-0.430208
H83	H	0.936763	-0.183783	-0.183622
H84	H	0.871559	-0.508328	0.120955
H85	H	0.947428	0.191495	-0.723515
O86	O	0.929153	-0.159244	-0.710742
C87	C	0.926087	-0.236419	-0.652520
H88	H	0.903511	-0.204054	-0.590635
H89	H	0.883576	-0.302440	-0.665181
H90	H	0.988692	-0.265171	-0.654663
O91	O	0.932696	-0.211270	-0.337929
C92	C	0.929637	-0.288439	-0.279702
H93	H	0.907061	-0.256070	-0.217819
H94	H	0.887129	-0.354466	-0.292358
H95	H	0.992245	-0.317183	-0.281845
O96	O	0.724922	-0.006181	-0.076689
C97	C	0.714763	0.078107	-0.124520
H98	H	0.689651	0.143122	-0.084457
H99	H	0.775181	0.104666	-0.161542
H100	H	0.671245	0.054691	-0.166240
O101	O	0.560978	-0.005525	-0.068846
C102	C	0.517957	0.082167	-0.075673
H103	H	0.540930	0.146889	-0.039167
H104	H	0.526744	0.106356	-0.141210
H105	H	0.451412	0.064168	-0.052162
H106	H	0.351764	-0.009278	-0.111786
