data_functionalizedCrystal
_audit_creation_method	'MofGen! by Chris Wilmer'
_symmetry_space_group_name_H-M	'P1'
_symmetry_Int_Tables_number	1
_symmetry_cell_setting	triclinic
loop_
_symmetry_equiv_pos_as_xyz
  x,y,z
_cell_length_a	19.288864
_cell_length_b	10.540539
_cell_length_c	17.766277
_cell_angle_alpha	89.995823
_cell_angle_beta	89.976791
_cell_angle_gamma	83.830869
loop_
_atom_site_label
_atom_site_type_symbol
_atom_site_fract_x
_atom_site_fract_y
_atom_site_fract_z
O1	O	0.922410	0.158345	-0.062832
O2	O	0.720292	0.179706	-0.062781
O3	O	0.825962	-0.015784	-0.062807
O4	O	0.816739	0.353835	-0.062806
O5	O	0.825943	-0.015794	0.062382
O6	O	0.720273	0.179696	0.062408
O7	O	0.922391	0.158335	0.062356
Cu8	Cu	0.821330	0.169015	0.073813
Cu9	Cu	0.821352	0.169026	-0.074237
O10	O	0.816721	0.353825	0.062382
C11	C	0.694401	0.179013	-0.000180
C12	C	0.617284	0.176950	-0.000160
C13	C	0.573353	0.291654	-0.000172
C14	C	0.500893	0.289716	-0.000180
C15	C	0.472367	0.173067	-0.000192
C16	C	0.516308	0.058347	-0.000176
C17	C	0.588766	0.060289	-0.000160
C18	C	0.363500	0.081371	-0.044076
C19	C	0.291042	0.079434	-0.044097
C20	C	0.248881	0.167074	-0.000237
C21	C	0.279185	0.256671	0.043633
C22	C	0.351644	0.258613	0.043649
C23	C	0.393799	0.170949	-0.000208
C24	C	0.126381	0.279684	-0.000257
C25	C	0.053919	0.277741	-0.000261
C26	C	0.069336	0.046369	-0.000264
C27	C	0.141795	0.048315	-0.000253
C28	C	0.170313	0.164976	-0.000253
C29	C	0.825261	-0.063076	-0.000214
C30	C	0.823192	-0.203978	-0.000217
C31	C	0.743903	-0.385638	-0.000478
C32	C	0.746000	-0.239067	-0.000197
C33	C	0.860329	-0.266470	0.071262
C34	C	0.857694	-0.412955	0.071323
C35	C	0.859286	-0.413497	-0.071040
C36	C	0.859997	-0.266531	-0.071986
C37	C	0.948281	0.159027	-0.000246
C38	C	1.025399	0.161091	-0.000271
C39	C	0.817422	0.401117	-0.000212
C40	C	0.819491	0.542019	-0.000214
N41	N	0.821320	0.169006	0.177943
N42	N	0.821368	0.169025	-0.178368
C43	C	0.868126	0.082485	0.217318
C44	C	0.868130	0.082479	0.296120
C45	C	0.821334	0.169016	0.335544
C46	C	0.774519	0.255543	0.296159
C47	C	0.774512	0.255538	0.217359
C48	C	0.812807	0.284670	0.460383
C49	C	0.812819	0.284676	0.539182
C50	C	0.821353	0.169031	0.578590
C51	C	0.829889	0.053373	0.539189
C52	C	0.829882	0.053368	0.460389
C53	C	0.821337	0.169030	0.420989
C54	C	0.868166	0.082497	0.703411
C55	C	0.868165	0.082489	0.782214
C56	C	0.774558	0.255564	0.782252
C57	C	0.774555	0.255560	0.703450
C58	C	0.821363	0.169028	0.664034
H59	H	0.624535	-0.033120	-0.000151
H60	H	0.906238	0.012023	0.185229
H61	H	0.906278	0.012027	0.814274
O62	O	0.729019	0.339716	0.179222
C63	C	0.687701	0.416072	0.230911
H64	H	0.716185	0.417376	0.287070
H65	H	0.677603	0.517491	0.208143
H66	H	0.635904	0.375095	0.239319
H67	H	0.716778	-0.195808	-0.051435
H68	H	0.736416	0.326000	0.328261
H69	H	0.177565	-0.045090	-0.000247
H70	H	0.713418	-0.413555	-0.051736
O71	O	0.601169	0.404864	-0.000216
C72	C	0.674544	0.381987	-0.000189
H73	H	0.691076	0.282823	-0.023870
H74	H	0.697175	0.456589	-0.036547
H75	H	0.694714	0.388053	0.059870
H76	H	0.244859	0.328035	0.079348
H77	H	0.836830	-0.040804	0.428312
O78	O	0.707550	-0.420765	0.060290
C79	C	0.639898	-0.355119	0.059312
H80	H	0.625774	-0.323923	-0.000687
H81	H	0.600942	-0.420822	0.080656
H82	H	0.638270	-0.267532	0.097177
O83	O	0.261724	-0.007718	-0.086727
C84	C	0.314470	-0.084648	-0.125439
H85	H	0.366093	-0.083104	-0.094412
H86	H	0.300304	-0.186791	-0.128272
H87	H	0.319667	-0.046259	-0.184937
O88	O	0.404519	-0.003591	-0.086731
C89	C	0.442093	0.062888	-0.139023
H90	H	0.446237	0.163671	-0.117491
H91	H	0.496609	0.010866	-0.146407
H92	H	0.413818	0.067883	-0.195456
O93	O	0.927941	-0.241254	0.074558
C94	C	0.938924	-0.174248	0.141435
H95	H	0.897818	-0.193896	0.184788
H96	H	0.993019	-0.207097	0.164528
H97	H	0.934819	-0.067573	0.129070
H98	H	0.906246	0.012021	0.328185
H99	H	0.736453	0.326019	0.814350
H100	H	0.906278	0.012033	0.671318
O101	O	0.824966	-0.446107	0.135054
C102	C	0.822132	-0.579205	0.135927
H103	H	0.865226	-0.627467	0.098544
H104	H	0.829603	-0.616177	0.195998
H105	H	0.769276	-0.601599	0.113947
O106	O	0.710881	-0.188249	0.060997
C107	C	0.712662	-0.054878	0.061504
H108	H	0.722077	-0.020438	0.001913
H109	H	0.660772	-0.006556	0.083175
H110	H	0.756575	-0.029792	0.099832
H111	H	0.046111	-0.048609	-0.000320
H112	H	0.465117	0.383125	-0.000187
H113	H	0.913209	-0.462161	0.074552
H114	H	0.736444	0.326019	0.671388
O115	O	0.804402	0.397050	0.577415
C116	C	0.739696	0.464355	0.558174
H117	H	0.703094	0.394544	0.536542
H118	H	0.715850	0.515798	0.610004
H119	H	0.747821	0.537148	0.512420
H120	H	0.376314	0.331562	0.079372
O121	O	0.829634	-0.215079	0.134816
C122	C	0.863595	-0.272278	0.198488
H123	H	0.918732	-0.313217	0.182454
H124	H	0.866107	-0.197636	0.244559
H125	H	0.833410	-0.352230	0.219940
O126	O	0.153973	0.393113	-0.000216
C127	C	0.099656	0.493943	-0.000239
H128	H	0.050253	0.458643	0.023453
H129	H	0.115184	0.575407	0.036112
H130	H	0.089610	0.529314	-0.060298
O131	O	0.011173	0.389090	-0.000374
C132	C	-0.031155	0.394897	-0.065227
H133	H	-0.035309	0.294164	-0.086838
H134	H	-0.085376	0.442497	-0.050658
H135	H	-0.007007	0.452724	-0.110627
O136	O	0.488716	-0.055077	-0.000157
C137	C	0.543033	-0.155907	-0.000165
H138	H	0.592410	-0.120612	0.023551
H139	H	0.527465	-0.237379	0.036173
H140	H	0.553145	-0.191263	-0.060223
O141	O	0.829390	-0.450510	-0.135605
C142	C	0.772026	-0.517306	-0.117734
H143	H	0.752175	-0.488775	-0.059036
H144	H	0.728640	-0.492840	-0.160550
H145	H	0.788877	-0.624314	-0.119166
O146	O	0.804644	0.397053	0.422137
C147	C	0.858967	0.470456	0.441372
H148	H	0.905554	0.404909	0.463020
H149	H	0.875078	0.523920	0.389536
H150	H	0.840197	0.541892	0.487112
O151	O	0.925831	-0.471169	-0.071735
C152	C	0.961022	-0.430615	-0.135485
H153	H	0.934468	-0.334642	-0.155396
H154	H	1.017545	-0.420392	-0.120188
H155	H	0.959511	-0.504016	-0.182419
O156	O	0.827566	-0.216800	-0.134999
C157	C	0.771812	-0.125890	-0.114324
H158	H	0.781489	-0.088316	-0.055512
H159	H	0.767749	-0.043433	-0.156171
H160	H	0.721117	-0.172409	-0.114572
O161	O	0.927134	-0.239066	-0.077026
C162	C	0.942358	-0.162264	-0.015499
H163	H	0.905075	-0.176727	0.032792
H164	H	0.998303	-0.190254	0.003692
H165	H	0.936009	-0.057711	-0.033229
O166	O	0.838055	-0.058954	0.577488
C167	C	0.779061	-0.068920	0.623113
H168	H	0.732616	-0.005420	0.599391
H169	H	0.766633	-0.172230	0.624012
H170	H	0.790227	-0.037170	0.682829
