data_functionalizedCrystal
_audit_creation_method	'MofGen! by Chris Wilmer'
_symmetry_space_group_name_H-M	'P1'
_symmetry_Int_Tables_number	1
_symmetry_cell_setting	triclinic
loop_
_symmetry_equiv_pos_as_xyz
  x,y,z
_cell_length_a	16.120530
_cell_length_b	19.120786
_cell_length_c	16.120297
_cell_angle_alpha	89.693695
_cell_angle_beta	89.871860
_cell_angle_gamma	89.436752
loop_
_atom_site_label
_atom_site_type_symbol
_atom_site_fract_x
_atom_site_fract_y
_atom_site_fract_z
Zn1	Zn	1.230439	-0.354318	0.515736
Zn2	Zn	1.730439	0.145682	1.015736
Zn3	Zn	1.232048	-0.465652	0.370762
Zn4	Zn	1.732048	0.034348	0.870762
Zn5	Zn	1.098996	-0.342500	0.370282
Zn6	Zn	1.598996	0.157500	0.870282
Zn7	Zn	1.086035	-0.465008	0.502765
Zn8	Zn	1.586035	0.034992	1.002765
O9	O	1.161880	-0.406870	0.439886
O10	O	1.661880	0.093130	0.939886
O11	O	1.346768	-0.374302	0.502134
O12	O	1.846768	0.125698	1.002134
O13	O	1.220496	-0.444639	0.254581
O14	O	1.720496	0.055361	0.754581
O15	O	1.121184	-0.246204	0.394804
O16	O	1.621184	0.253796	0.894804
O17	O	1.347950	-0.456099	0.395622
O18	O	1.847950	0.043901	0.895622
O19	O	1.217754	-0.254887	0.501668
O20	O	1.717754	0.245113	1.001668
O21	O	1.122744	-0.354160	0.254229
O22	O	1.622744	0.145840	0.754229
O23	O	0.981161	-0.353536	0.382227
O24	O	1.481161	0.146464	0.882227
O25	O	1.099093	-0.455001	0.620603
O26	O	1.599093	0.044999	1.120603
O27	O	0.971638	-0.443542	0.479562
O28	O	1.471638	0.056458	0.979562
O29	O	1.205186	-0.373678	0.630132
O30	O	1.705186	0.126322	1.130132
O31	O	1.207928	-0.563430	0.383045
O32	O	1.707928	-0.063430	0.883045
O33	O	1.100653	-0.562957	0.480027
O34	O	1.600653	-0.062957	0.980027
C35	C	0.946292	-0.397187	0.429435
C36	C	1.446292	0.102813	0.929435
C37	C	0.854061	-0.393062	0.424983
C38	C	1.354061	0.106938	0.924983
C39	C	1.153080	-0.588570	0.430200
C40	C	1.653080	-0.088570	0.930200
C41	C	1.149390	-0.666307	0.426087
C42	C	1.649390	-0.166307	0.926087
C43	C	0.685193	-0.385516	0.416863
C44	C	1.185193	0.114484	0.916863
C45	C	0.639400	-0.428278	0.462967
C46	C	1.139400	0.071722	0.962967
C47	C	0.545437	-0.424079	0.458449
C48	C	1.045437	0.075921	0.958449
C49	C	0.779166	-0.389714	0.421380
C50	C	1.279166	0.110286	0.921380
C51	C	1.197893	-0.707288	0.479835
C52	C	1.697893	-0.207288	0.979835
C53	C	1.194422	-0.780330	0.475973
C54	C	1.694422	-0.280330	0.975973
C55	C	1.142452	-0.812390	0.418357
C56	C	1.642452	-0.312390	0.918357
C57	C	1.093943	-0.771403	0.364607
C58	C	1.593943	-0.271403	0.864607
C59	C	1.097410	-0.698363	0.368475
C60	C	1.597410	-0.198363	0.868475
C61	C	1.129467	-1.032702	0.403899
C62	C	1.629467	-0.532702	0.903899
C63	C	1.126006	-1.105748	0.400034
C64	C	1.626006	-0.605748	0.900034
C65	C	1.226484	-1.114670	0.511400
C66	C	1.726484	-0.614670	1.011400
C67	C	1.229950	-1.041628	0.515259
C68	C	1.729950	-0.541628	1.015259
C69	C	1.181438	-1.000648	0.461512
C70	C	1.681438	-0.500648	0.961512
C71	C	1.138905	-0.887050	0.414406
C72	C	1.638905	-0.387050	0.914406
C73	C	1.184981	-0.925989	0.465468
C74	C	1.684981	-0.425989	0.965468
C75	C	1.378309	-0.416591	0.450378
C76	C	1.878309	0.083409	0.950378
C77	C	1.470538	-0.420733	0.454849
C78	C	1.970538	0.079267	0.954849
C79	C	1.150514	-0.415586	0.656317
C80	C	1.650514	0.084414	1.156317
C81	C	1.145671	-0.419300	0.748547
C82	C	1.645671	0.080700	1.248547
C83	C	1.170735	-0.224461	0.449629
C84	C	1.670735	0.275539	0.949629
C85	C	1.174509	-0.146729	0.453781
C86	C	1.674509	0.353271	0.953781
C87	C	1.173251	-0.398139	0.224302
C88	C	1.673251	0.101861	0.724302
C89	C	1.178264	-0.394235	0.132091
C90	C	1.678264	0.105765	0.632091
C91	C	1.136799	-0.426065	0.917412
C92	C	1.636799	0.073935	1.417412
C93	C	1.187134	-0.387472	0.963231
C94	C	1.687134	0.112528	1.463231
C95	C	1.182197	-0.391236	1.057193
C96	C	1.682197	0.108764	1.557193
C97	C	1.141734	-0.422302	0.823441
C98	C	1.641734	0.077698	1.323441
H99	H	0.653831	-0.345756	0.374001
H100	H	1.153831	0.154244	0.874001
N101	N	1.241026	-0.891408	0.527610
N102	N	1.741026	-0.391408	1.027610
H103	H	1.282710	-0.861453	0.497386
H104	H	1.782710	-0.361453	0.997386
H105	H	1.271177	-0.928489	0.561062
H106	H	1.771177	-0.428489	1.061062
H107	H	1.240217	-0.681191	0.526748
H108	H	1.740217	-0.181191	1.026748
H109	H	1.089968	-0.999342	0.360134
H110	H	1.589968	-0.499342	0.860134
N111	N	1.246723	-0.824552	0.533934
N112	N	1.746723	-0.324552	1.033934
H113	H	1.209497	-0.854897	0.569108
H114	H	1.709497	-0.354897	1.069108
H115	H	1.280178	-0.793132	0.570976
H116	H	1.780178	-0.293132	1.070976
N117	N	1.286001	-1.007051	0.577404
N118	N	1.786001	-0.507051	1.077404
H119	H	1.316200	-1.044096	0.610870
H120	H	1.816200	-0.544096	1.110870
H121	H	1.251611	-0.976789	0.615739
H122	H	1.751611	-0.476789	1.115739
N123	N	1.074810	-0.473581	0.958908
N124	N	1.574810	0.026419	1.458908
H125	H	1.016824	-0.459469	0.941572
H126	H	1.516824	0.040531	1.441572
H127	H	1.080096	-0.469554	1.021112
H128	H	1.580096	0.030446	1.521112
N129	N	0.680940	-0.480959	0.519734
N130	N	1.180940	0.019041	1.019734
H131	H	0.637285	-0.508916	0.549870
H132	H	1.137285	-0.008916	1.049870
H133	H	0.716275	-0.455674	0.561403
H134	H	1.216275	0.044326	1.061403
H135	H	1.265979	-1.148044	0.555159
H136	H	1.765979	-0.648044	1.055159
H137	H	1.083681	-1.131848	0.353116
H138	H	1.583681	-0.631848	0.853116
N139	N	1.037890	-0.805978	0.302462
N140	N	1.537890	-0.305978	0.802462
H141	H	1.043057	-0.858467	0.308163
H142	H	1.543057	-0.358467	0.808163
H143	H	1.054576	-0.791409	0.244518
H144	H	1.554576	-0.291409	0.744518
N145	N	1.249134	-0.339970	0.921716
N146	N	1.749134	0.160030	1.421716
H147	H	1.307116	-0.354091	0.939054
H148	H	1.807116	0.145909	1.439054
H149	H	1.237835	-0.290028	0.938791
H150	H	1.737835	0.209972	1.438791
N151	N	1.045093	-0.654158	0.310507
N152	N	1.545093	-0.154158	0.810507
H153	H	1.011645	-0.685549	0.273420
H154	H	1.511645	-0.185549	0.773420
H155	H	1.082353	-0.623809	0.275378
H156	H	1.582353	-0.123809	0.775378
N157	N	1.082864	-0.921629	0.352254
N158	N	1.582864	-0.421629	0.852254
H159	H	1.041175	-0.951586	0.382469
H160	H	1.541175	-0.451586	0.882469
H161	H	1.117269	-0.951849	0.313887
H162	H	1.617269	-0.451849	0.813887
