data_functionalizedCrystal
_audit_creation_method	'MofGen! by Chris Wilmer'
_symmetry_space_group_name_H-M	'P1'
_symmetry_Int_Tables_number	1
_symmetry_cell_setting	triclinic
loop_
_symmetry_equiv_pos_as_xyz
  x,y,z
_cell_length_a	18.101398
_cell_length_b	18.050588
_cell_length_c	18.101389
_cell_angle_alpha	90.016963
_cell_angle_beta	90.009745
_cell_angle_gamma	90.025118
loop_
_atom_site_label
_atom_site_type_symbol
_atom_site_fract_x
_atom_site_fract_y
_atom_site_fract_z
Zn1	Zn	1.132129	-0.295825	0.418558
Zn2	Zn	1.132028	-0.420000	0.294720
Zn3	Zn	1.008288	-0.295818	0.294751
Zn4	Zn	1.008242	-0.419968	0.418540
O5	O	1.070172	-0.357903	0.356642
O6	O	1.235748	-0.312313	0.402125
O7	O	1.115591	-0.403537	0.191091
O8	O	1.024777	-0.191895	0.311195
O9	O	1.235674	-0.403544	0.311142
O10	O	1.115762	-0.191900	0.402155
O11	O	1.024679	-0.312301	0.191114
O12	O	0.904649	-0.312271	0.311177
O13	O	1.024699	-0.403491	0.522175
O14	O	0.904615	-0.403484	0.402124
O15	O	1.115718	-0.312283	0.522189
O16	O	1.115546	-0.523920	0.311124
O17	O	1.024601	-0.523897	0.402094
C18	C	0.877761	-0.357874	0.356652
C19	C	0.795447	-0.357879	0.356674
C20	C	0.496356	-0.357923	0.356643
C21	C	0.527685	-0.415589	0.413583
C22	C	0.613303	-0.415408	0.413817
C23	C	0.644739	-0.357902	0.356659
C24	C	0.613682	-0.279684	0.377985
C25	C	0.528037	-0.280030	0.378389
C26	C	0.527904	-0.377786	0.278241
C27	C	0.613554	-0.379502	0.278660
C28	C	0.728598	-0.357885	0.356666
C29	C	0.412497	-0.357934	0.356638
C30	C	1.070078	-0.550855	0.356620
C31	C	1.070105	-0.633401	0.356635
C32	C	1.020727	-0.882241	0.406105
C33	C	1.088255	-0.832779	0.424267
C34	C	1.070259	-0.930521	0.356676
C35	C	1.002659	-0.832902	0.338529
C36	C	1.070180	-0.784536	0.356658
C37	C	1.137823	-0.882146	0.374874
C38	C	1.052182	-0.882273	0.289104
C39	C	1.119756	-0.832834	0.307240
C40	C	1.070304	-1.014620	0.356689
C41	C	1.070143	-0.700440	0.356645
C42	C	1.263333	-0.357933	0.356632
C43	C	1.345648	-0.357946	0.356628
C44	C	1.070214	-0.357884	0.549804
C45	C	1.070233	-0.357876	0.632118
C46	C	1.070286	-0.164197	0.356681
C47	C	1.070335	-0.081652	0.356697
C48	C	1.070172	-0.357868	0.164232
C49	C	1.070297	-0.357667	0.081918
C50	C	1.070276	-0.357737	0.931209
C51	C	1.012812	-0.414940	0.899876
C52	C	1.012967	-0.415205	0.814257
C53	C	1.070254	-0.357806	0.782827
C54	C	1.148280	-0.379056	0.813913
C55	C	1.147960	-0.379431	0.899558
C56	C	1.050392	-0.279157	0.899637
C57	C	1.048656	-0.279611	0.813986
C58	C	1.070246	-0.357844	0.698967
C59	C	1.070289	-0.357701	1.015069
H60	H	0.978925	-0.903932	0.447945
N61	N	0.639637	-0.488176	0.397051
N62	N	0.594762	-0.539450	0.385097
H63	H	0.613356	-0.590847	0.373260
H64	H	1.036901	-0.904029	0.231984
H65	H	1.161658	-0.811278	0.265432
N66	N	1.209524	-0.909163	0.394192
N67	N	1.244459	-0.949184	0.349981
H68	H	1.295098	-0.968266	0.363625
H69	H	0.945524	-0.811266	0.323188
H70	H	0.955108	-0.401907	0.793239
H71	H	1.192226	-0.339576	0.920286
H72	H	0.954778	-0.401778	0.920476
N73	N	1.097332	-0.223311	0.787141
N74	N	1.148967	-0.239976	0.744420
H75	H	1.183350	-0.200216	0.725460
H76	H	1.103516	-0.811040	0.481404
H77	H	0.633805	-0.402267	0.471908
H78	H	1.025809	-0.472830	0.921399
H79	H	1.026094	-0.473451	0.793773
H80	H	0.507071	-0.473782	0.400366
N81	N	1.169112	-0.451493	0.924617
N82	N	1.184005	-0.501158	0.878854
H83	H	1.198945	-0.552053	0.896548
N84	N	1.169787	-0.450350	0.787004
N85	N	1.127786	-0.485632	0.744942
H86	H	1.142972	-0.535985	0.725937
H87	H	1.192245	-0.338701	0.793555
H88	H	0.506174	-0.402615	0.471338
H89	H	0.994485	-0.259798	0.921236
H90	H	1.092247	-0.236538	0.919901
N91	N	0.976622	-0.259515	0.788497
N92	N	0.941280	-0.302581	0.747533
H93	H	0.890405	-0.288391	0.729527
H94	H	0.507314	-0.235526	0.338819
N95	N	0.503001	-0.258891	0.450292
N96	N	0.548781	-0.243987	0.499826
H97	H	0.531104	-0.229057	0.550610
H98	H	0.635146	-0.262531	0.434677
H99	H	0.506292	-0.433846	0.258861
H100	H	0.633860	-0.437059	0.262576
N101	N	0.639218	-0.224386	0.327510
N102	N	0.624125	-0.229526	0.260316
H103	H	0.642161	-0.190498	0.224639
N104	N	0.640406	-0.330636	0.222585
N105	N	0.683150	-0.278860	0.239270
H106	H	0.702116	-0.244343	0.199669
H107	H	0.507644	-0.335782	0.235816
