data_functionalizedCrystal
_audit_creation_method	'MofGen! by Chris Wilmer'
_symmetry_space_group_name_H-M	'P1'
_symmetry_Int_Tables_number	1
_symmetry_cell_setting	triclinic
loop_
_symmetry_equiv_pos_as_xyz
  x,y,z
_cell_length_a	19.121063
_cell_length_b	13.033293
_cell_length_c	13.032268
_cell_angle_alpha	89.079182
_cell_angle_beta	99.247498
_cell_angle_gamma	99.921715
loop_
_atom_site_label
_atom_site_type_symbol
_atom_site_fract_x
_atom_site_fract_y
_atom_site_fract_z
Zn1	Zn	-0.220865	1.482860	-0.793484
Zn2	Zn	0.279135	1.982860	-0.293484
Zn3	Zn	-0.322885	1.497396	-0.627054
Zn4	Zn	0.177115	1.997396	-0.127054
Zn5	Zn	-0.217116	1.332985	-0.599456
Zn6	Zn	0.282884	1.832985	-0.099456
Zn7	Zn	-0.352479	1.301556	-0.778702
Zn8	Zn	0.147521	1.801556	-0.278702
O9	O	-0.278336	1.403699	-0.699674
O10	O	0.221664	1.903699	-0.199674
O11	O	-0.223582	1.629471	-0.789143
O12	O	0.276418	2.129471	-0.289143
O13	O	-0.294900	1.494823	-0.478727
O14	O	0.205100	1.994823	0.021273
O15	O	-0.118269	1.359936	-0.619830
O16	O	0.381731	1.859936	-0.119830
O17	O	-0.298535	1.640150	-0.666868
O18	O	0.201465	2.140150	-0.166868
O19	O	-0.121023	1.470048	-0.762382
O20	O	0.378977	1.970048	-0.262382
O21	O	-0.217193	1.374031	-0.458450
O22	O	0.282807	1.874031	0.041550
O23	O	-0.245889	1.184133	-0.605497
O24	O	0.254111	1.684133	-0.105497
O25	O	-0.348974	1.306370	-0.925330
O26	O	0.151026	1.806370	-0.425330
O27	O	-0.345339	1.161042	-0.737189
O28	O	0.154661	1.661042	-0.237189
O29	O	-0.252278	1.439573	-0.936190
O30	O	0.247722	1.939573	-0.436190
O31	O	-0.426155	1.464347	-0.652535
O32	O	0.073845	1.964347	-0.152535
O33	O	-0.447898	1.320465	-0.763950
O34	O	0.052102	1.820465	-0.263950
C35	C	-0.298419	1.135073	-0.666745
C36	C	0.201581	1.635073	-0.166745
C37	C	-0.307030	1.020149	-0.652683
C38	C	0.192970	1.520149	-0.152683
C39	C	-0.273860	0.963610	-0.707014
C40	C	0.226140	1.463610	-0.207014
C41	C	-0.282759	0.844830	-0.692482
C42	C	0.217241	1.344830	-0.192482
C43	C	-0.462786	1.390598	-0.709659
C44	C	0.037214	1.890598	-0.209659
C45	C	-0.541690	1.385083	-0.713977
C46	C	-0.041690	1.885083	-0.213977
C47	C	-0.567418	1.457449	-0.658059
C48	C	-0.067418	1.957449	-0.158059
C49	C	-0.641558	1.452267	-0.662126
C50	C	-0.141558	1.952267	-0.162126
C51	C	-0.689969	1.374716	-0.722107
C52	C	-0.189969	1.874716	-0.222107
C53	C	-0.664237	1.302347	-0.778032
C54	C	-0.164237	1.802347	-0.278032
C55	C	-0.590099	1.307533	-0.773970
C56	C	-0.090099	1.807533	-0.273970
C57	C	-0.914388	1.355310	-0.737278
C58	C	-0.414388	1.855310	-0.237278
C59	C	-0.988531	1.350127	-0.741334
C60	C	-0.488531	1.850127	-0.241334
C61	C	-0.965846	1.500049	-0.625429
C62	C	-0.465846	2.000049	-0.125429
C63	C	-0.891707	1.505225	-0.621367
C64	C	-0.391707	2.005225	-0.121367
C65	C	-0.865982	1.432860	-0.677296
C66	C	-0.365982	1.932860	-0.177296
C67	C	-0.765752	1.369416	-0.726264
C68	C	-0.265752	1.869416	-0.226264
C69	C	-0.790200	1.438165	-0.673145
C70	C	-0.290200	1.938165	-0.173145
C71	C	-0.093167	1.416876	-0.689676
C72	C	0.406833	1.916876	-0.189676
C73	C	-0.014258	1.422492	-0.685415
C74	C	0.485742	1.922492	-0.185415
C75	C	-0.304345	1.367844	-0.969319
C76	C	0.195655	1.867844	-0.469319
C77	C	-0.315429	1.352565	-1.084226
C78	C	0.184571	1.852565	-0.584226
C79	C	-0.258176	1.673374	-0.732733
C80	C	0.241824	2.173374	-0.232733
C81	C	-0.249584	1.788294	-0.746820
C82	C	0.250416	2.288294	-0.246820
C83	C	-0.272527	1.411659	-1.140828
C84	C	0.227473	1.911659	-0.640828
C85	C	-0.283982	1.395869	-1.259590
C86	C	0.216018	1.895869	-0.759590
C87	C	-0.252372	1.439478	-0.431083
C88	C	0.247628	1.939478	0.068917
C89	C	-0.241074	1.454971	-0.316190
C90	C	0.258926	1.954971	0.183810
H91	H	-0.214591	0.827820	-0.804092
H92	H	0.285409	1.327820	-0.304092
O93	O	-0.329101	0.792479	-0.616604
O94	O	0.170899	1.292479	-0.116604
H95	H	-0.352040	0.851964	-0.579009
H96	H	0.147960	1.351964	-0.079009
O97	O	-0.227515	1.015967	-0.782880
O98	O	0.272485	1.515967	-0.282880
H99	H	-0.171618	1.001590	-0.759745
H100	H	0.328382	1.501590	-0.259745
H101	H	-0.360635	1.290276	-1.123688
H102	H	0.139365	1.790276	-0.623688
H103	H	-0.569153	1.248607	-0.819506
H104	H	-0.069153	1.748607	-0.319506
O105	O	-1.040741	1.266468	-0.806031
O106	O	-0.540741	1.766468	-0.306031
H107	H	-1.074015	1.217687	-0.755119
H108	H	-0.574015	1.717687	-0.255119
H109	H	-0.342014	0.980618	-0.595407
H110	H	0.157986	1.480618	-0.095407
H111	H	-0.195857	1.517254	-1.276731
H112	H	0.304143	2.017254	-0.776731
H113	H	-0.227315	1.473938	-1.101364
H114	H	0.272685	1.973938	-0.601364
O115	O	-0.886656	1.277230	-0.797574
O116	O	-0.386656	1.777230	-0.297574
H117	H	-0.907366	1.283088	-0.881668
H118	H	-0.407366	1.783088	-0.381668
H119	H	-0.528005	1.520596	-0.609211
H120	H	-0.028005	2.020596	-0.109211
H121	H	-0.662501	1.511194	-0.616591
H122	H	-0.162501	2.011194	-0.116591
H123	H	-0.329190	1.333575	-1.299048
H124	H	0.170810	1.833575	-0.799048
H125	H	-0.852291	1.568374	-0.572526
H126	H	-0.352291	2.068374	-0.072526
H127	H	-0.750781	1.501311	-0.624312
H128	H	-0.250781	2.001311	-0.124312
H129	H	-0.986800	1.558966	-0.579896
H130	H	-0.486800	2.058966	-0.079896
H131	H	-0.703660	1.239206	-0.826875
H132	H	-0.203660	1.739206	-0.326875
O133	O	-0.817973	1.285758	-0.790933
O134	O	-0.317973	1.785758	-0.290933
H135	H	-0.853335	1.322626	-0.851077
H136	H	-0.353335	1.822626	-0.351077
