data_functionalizedCrystal
_audit_creation_method	'MofGen! by Chris Wilmer'
_symmetry_space_group_name_H-M	'P1'
_symmetry_Int_Tables_number	1
_symmetry_cell_setting	triclinic
loop_
_symmetry_equiv_pos_as_xyz
  x,y,z
_cell_length_a	16.625548
_cell_length_b	21.295417
_cell_length_c	21.295411
_cell_angle_alpha	90.028718
_cell_angle_beta	90.016407
_cell_angle_gamma	90.031575
loop_
_atom_site_label
_atom_site_type_symbol
_atom_site_fract_x
_atom_site_fract_y
_atom_site_fract_z
Zn1	Zn	1.232602	-0.250619	0.355911
Zn2	Zn	1.232496	-0.355884	0.250636
Zn3	Zn	1.097774	-0.250634	0.250656
Zn4	Zn	1.097716	-0.355856	0.355868
O5	O	1.165147	-0.303248	0.303268
O6	O	1.345421	-0.264588	0.341956
O7	O	1.214605	-0.341940	0.162549
O8	O	1.115728	-0.162543	0.264644
O9	O	1.345343	-0.341925	0.264611
O10	O	1.214786	-0.162532	0.341975
O11	O	1.115625	-0.264614	0.162564
O12	O	0.984934	-0.264587	0.264603
O13	O	1.115629	-0.341878	0.443963
O14	O	0.984891	-0.341893	0.341902
O15	O	1.214729	-0.264561	0.443994
O16	O	1.214549	-0.443970	0.264569
O17	O	1.115526	-0.443949	0.341883
C18	C	0.955656	-0.303239	0.303250
C19	C	0.866035	-0.303251	0.303257
C20	C	0.537859	-0.303255	0.303284
C21	C	0.629168	-0.303252	0.303275
C22	C	0.701944	-0.303253	0.303270
C23	C	0.793259	-0.303250	0.303262
C24	C	1.165041	-0.466800	0.303233
C25	C	1.165070	-0.536768	0.303239
C26	C	1.216677	-0.569624	0.263023
C27	C	1.216715	-0.635367	0.263037
C28	C	1.165131	-0.668251	0.303261
C29	C	1.113520	-0.635386	0.343484
C30	C	1.113490	-0.569645	0.343473
N31	N	1.094596	-0.771518	0.308054
N32	N	1.094627	-0.833969	0.308060
C33	C	1.165221	-0.866325	0.303297
N34	N	1.235785	-0.833871	0.298514
N35	N	1.235753	-0.771414	0.298504
C36	C	1.165159	-0.739536	0.303277
C37	C	1.216874	-0.970467	0.263094
C38	C	1.216913	-1.036211	0.263113
C39	C	1.113711	-1.036229	0.343556
C40	C	1.113679	-0.970487	0.343541
C41	C	1.165260	-0.937610	0.303307
C42	C	1.375456	-0.303258	0.303286
C43	C	1.465077	-0.303262	0.303293
C44	C	1.165184	-0.303215	0.467458
C45	C	1.165200	-0.303201	0.537426
C46	C	1.165275	-0.139058	0.303316
C47	C	1.165330	-0.069090	0.303337
C48	C	1.165156	-0.303236	0.139716
C49	C	1.165297	-0.303073	0.069748
C50	C	1.216829	-0.343334	1.036877
C51	C	1.216814	-0.343354	0.971135
C52	C	1.165276	-0.303102	0.938266
C53	C	1.113734	-0.262839	0.971145
C54	C	1.113745	-0.262825	1.036886
N55	N	1.159117	-0.248023	0.835061
N56	N	1.159112	-0.248039	0.772609
C57	C	1.165241	-0.303145	0.740191
N58	N	1.171390	-0.358236	0.772584
N59	N	1.171400	-0.358220	0.835041
C60	C	1.165259	-0.303114	0.866980
C61	C	1.216760	-0.343431	0.636034
C62	C	1.216740	-0.343452	0.570291
C63	C	1.113664	-0.262931	0.570302
C64	C	1.113680	-0.262916	0.636044
C65	C	1.165232	-0.303164	0.668907
H66	H	1.258678	-0.542858	0.230263
O67	O	1.063716	-1.068232	0.382663
C68	C	1.052842	-1.142372	0.467687
C69	C	1.109550	-1.106176	0.423424
H70	H	1.089877	-1.173049	0.500662
H71	H	1.010731	-1.173245	0.438799
H72	H	1.015931	-1.107580	0.496398
H73	H	1.146513	-1.140924	0.394704
H74	H	1.151608	-1.075294	0.452348
O75	O	1.063464	-0.938664	0.382621
C76	C	0.961138	-0.945622	0.462434
C77	C	1.017954	-0.981739	0.418194
H78	H	0.924340	-0.980432	0.491215
H79	H	0.918933	-0.914911	0.433525
H80	H	0.998126	-0.914776	0.495344
H81	H	0.981031	-1.012618	0.385275
H82	H	1.060160	-1.012409	0.447142
H83	H	1.071720	-0.230129	0.662808
O84	O	1.267089	-1.068227	0.224158
C85	C	1.312998	-1.169495	0.188620
C86	C	1.256101	-1.133315	0.232745
H87	H	1.304122	-1.222126	0.195538
H88	H	1.377984	-1.156520	0.199788
H89	H	1.298969	-1.156619	0.137831
H90	H	1.270057	-1.146173	0.283549
H91	H	1.191132	-1.146294	0.221523
H92	H	1.258805	-0.376109	1.063630
O93	O	1.266939	-0.382500	0.667894
C94	C	1.404075	-0.413033	0.688048
C95	C	1.347339	-0.368758	0.651919
H96	H	1.469091	-0.401930	0.675156
H97	H	1.389939	-0.463805	0.675097
H98	H	1.395191	-0.406114	0.740678
H99	H	1.356191	-0.375622	0.599280
H100	H	1.361489	-0.318002	0.664922
H101	H	1.258790	-0.376132	0.944366
H102	H	1.071770	-0.230067	0.944379
H103	H	1.071522	-0.662165	0.376236
O104	O	1.266870	-0.667195	0.223908
C105	C	1.369248	-0.660244	0.144135
C106	C	1.312476	-0.624123	0.188406
H107	H	1.406147	-0.625436	0.115430
H108	H	1.332300	-0.691052	0.111160
H109	H	1.411366	-0.690993	0.173077
H110	H	1.270347	-0.593341	0.159514
H111	H	1.349474	-0.593355	0.221383
O112	O	1.063662	-0.223652	1.068723
C113	C	0.961388	-0.143818	1.061796
C114	C	1.018078	-0.188140	1.025662
H115	H	0.924507	-0.115105	1.026998
H116	H	0.998399	-0.110853	1.092569
H117	H	0.919250	-0.172722	1.092581
H118	H	1.060228	-0.159287	0.994843
H119	H	0.981017	-0.221107	0.994929
O120	O	1.266762	-0.382651	0.538428
C121	C	1.305805	-0.489732	0.518264
C122	C	1.249116	-0.445411	0.554398
H123	H	1.291547	-0.540484	0.531153
H124	H	1.370843	-0.478721	0.531212
H125	H	1.296956	-0.482801	0.465634
H126	H	1.257893	-0.452317	0.607036
H127	H	1.184099	-0.456433	0.541398
H128	H	1.071464	-0.542893	0.376223
H129	H	1.258876	-0.943698	0.230335
O130	O	1.063482	-0.223898	0.538410
C131	C	0.926348	-0.193319	0.518319
C132	C	0.983091	-0.237572	0.554468
H133	H	0.861341	-0.204350	0.531299
H134	H	0.935119	-0.200247	0.465678
H135	H	0.940589	-0.142561	0.531254
H136	H	0.968886	-0.288346	0.541587
H137	H	0.974310	-0.230590	0.607101
