data_functionalizedCrystal
_audit_creation_method	'MofGen! by Chris Wilmer'
_symmetry_space_group_name_H-M	'P1'
_symmetry_Int_Tables_number	1
_symmetry_cell_setting	triclinic
loop_
_symmetry_equiv_pos_as_xyz
  x,y,z
_cell_length_a	16.120484
_cell_length_b	16.120530
_cell_length_c	16.120297
_cell_angle_alpha	90.128140
_cell_angle_beta	84.385569
_cell_angle_gamma	89.832673
loop_
_atom_site_label
_atom_site_type_symbol
_atom_site_fract_x
_atom_site_fract_y
_atom_site_fract_z
Zn1	Zn	-0.422264	-1.224987	0.554813
Zn2	Zn	-0.554948	-1.224883	0.422118
Zn3	Zn	-0.408180	-1.093726	0.408056
Zn4	Zn	-0.554181	-1.078880	0.554051
O5	O	-0.484893	-1.155619	0.484760
O6	O	-0.446081	-1.341009	0.543415
O7	O	-0.529906	-1.213654	0.303620
O8	O	-0.293418	-1.117395	0.421958
O9	O	-0.543563	-1.340932	0.445925
O10	O	-0.303765	-1.213832	0.529780
O11	O	-0.422076	-1.117294	0.293289
O12	O	-0.421332	-0.975721	0.421218
O13	O	-0.542255	-1.092092	0.670785
O14	O	-0.528598	-0.964814	0.528480
O15	O	-0.445336	-1.199436	0.671345
O16	O	-0.671477	-1.199258	0.445185
O17	O	-0.670913	-1.091990	0.542116
C18	C	-0.701438	-1.144023	0.495113
C19	C	-0.794083	-1.139137	0.499574
C20	C	-0.473354	-0.940181	0.473241
C21	C	-0.468438	-0.848013	0.468334
C22	C	-0.495281	-1.144119	0.702152
C23	C	-0.499708	-1.139219	0.794791
C24	C	-0.963706	-1.130220	0.507736
C25	C	-1.005249	-1.181166	0.461804
C26	C	-1.099633	-1.176204	0.466346
C27	C	-0.869313	-1.135180	0.503196
C28	C	-0.267505	-1.167282	0.474385
C29	C	-0.174867	-1.172251	0.469964
C30	C	-0.496479	-1.371899	0.496324
C31	C	-0.501416	-1.464064	0.501252
C32	C	-0.459445	-0.679262	0.459381
C33	C	-0.510407	-0.632810	0.510202
C34	C	-0.505403	-0.538911	0.505220
C35	C	-0.464448	-0.773169	0.464361
C36	C	-0.474489	-1.167125	0.268213
C37	C	-0.469836	-1.172198	0.175571
C38	C	-0.507770	-1.130243	0.964403
C39	C	-0.461776	-1.181172	1.005965
C40	C	-0.466262	-1.176177	1.100342
C41	C	-0.503285	-1.135236	0.870017
H42	H	-0.969931	-1.228508	0.419069
C43	C	-0.574435	-0.674348	0.574028
C44	C	-0.579420	-0.769615	0.578979
C45	C	-0.643449	-0.811156	0.642798
C46	C	-0.702493	-0.757431	0.701667
C47	C	-0.697510	-0.662158	0.696718
C48	C	-0.633481	-0.620617	0.632898
H49	H	-0.535711	-0.809391	0.535399
H50	H	-0.647138	-0.881684	0.646461
H51	H	-0.749891	-0.788182	0.748910
H52	H	-0.741220	-0.622382	0.740297
H53	H	-0.629792	-0.550089	0.629235
H54	H	-0.412060	-0.648511	0.412135
H55	H	-0.419031	-1.228524	0.970668
C56	C	-0.565519	-1.066280	1.012080
C57	C	-0.569981	-1.061321	1.107824
C58	C	-0.627732	-0.997362	1.155513
C59	C	-0.681022	-0.938362	1.107459
C60	C	-0.676562	-0.943320	1.011710
C61	C	-0.618811	-1.007278	0.964021
H62	H	-0.530531	-1.104998	1.143401
H63	H	-0.631033	-0.993693	1.226393
H64	H	-0.723773	-0.891016	1.142762
H65	H	-0.716012	-0.899643	0.976133
H66	H	-0.615509	-1.010948	0.893141
H67	H	-0.999022	-1.082881	0.550467
