data_functionalizedCrystal
_audit_creation_method	'MofGen! by Chris Wilmer'
_symmetry_space_group_name_H-M	'P1'
_symmetry_Int_Tables_number	1
_symmetry_cell_setting	triclinic
loop_
_symmetry_equiv_pos_as_xyz
  x,y,z
_cell_length_a	15.995292
_cell_length_b	15.995350
_cell_length_c	9.130313
_cell_angle_alpha	89.997713
_cell_angle_beta	89.995303
_cell_angle_gamma	83.480495
loop_
_atom_site_label
_atom_site_type_symbol
_atom_site_fract_x
_atom_site_fract_y
_atom_site_fract_z
O1	O	1.111015	0.107695	-0.121832
O2	O	0.867233	0.121073	-0.121825
O3	O	0.995788	-0.007505	-0.121827
O4	O	0.982460	0.236273	-0.121829
O5	O	0.995779	-0.007509	0.121772
O6	O	0.867224	0.121069	0.121774
O7	O	1.111006	0.107691	0.121767
Cu8	Cu	0.989114	0.114380	0.144013
Cu9	Cu	0.989125	0.114384	-0.144071
O10	O	0.982451	0.236269	0.121769
C11	C	0.995232	-0.038702	-0.000030
C12	C	0.993580	-0.131652	-0.000039
C13	C	0.836033	0.120527	-0.000025
C14	C	0.743080	0.118894	-0.000022
C15	C	0.405341	0.112893	-0.000039
C16	C	0.428654	0.205697	-0.000584
C17	C	0.525329	0.207461	-0.000028
C18	C	0.572897	0.115871	-0.000032
C19	C	0.543790	0.069471	0.139071
C20	C	0.447000	0.068354	0.139181
C21	C	0.447154	0.066463	-0.137836
C22	C	0.543647	0.069902	-0.139669
C23	C	0.667593	0.117549	-0.000023
C24	C	0.310646	0.111212	-0.000038
C25	C	0.987648	-0.469398	-0.000034
C26	C	0.896094	-0.421945	-0.000577
C27	C	0.897746	-0.325255	-0.000028
C28	C	0.990591	-0.301838	-0.000037
C29	C	1.035744	-0.342927	0.139066
C30	C	1.033444	-0.439562	0.139183
C31	C	1.035345	-0.439917	-0.137835
C32	C	1.035323	-0.342971	-0.139673
C33	C	0.992259	-0.207141	-0.000034
C34	C	0.985983	-0.564095	-0.000027
C35	C	1.142206	0.108237	-0.000036
C36	C	1.235159	0.109870	-0.000048
C37	C	0.983006	0.267466	-0.000031
C38	C	0.984658	0.360416	-0.000032
N39	N	0.989113	0.114376	0.346636
N40	N	0.989132	0.114381	-0.346693
C41	C	1.046056	0.057466	0.423287
C42	C	1.046064	0.057466	0.576623
C43	C	0.932183	0.171294	0.576645
C44	C	0.932172	0.171290	0.423311
H45	H	0.544359	0.243795	-0.099746
H46	H	1.004375	-0.314541	0.242588
H47	H	0.885824	0.217633	0.639089
H48	H	1.092420	0.011122	0.360861
C49	C	0.428248	-0.025820	-0.139114
N50	N	0.414002	-0.095324	-0.140066
C51	C	0.869565	0.233937	0.338990
N52	N	0.822424	0.281134	0.275479
H53	H	0.400661	0.241470	-0.100341
C54	C	0.389452	0.253753	0.133430
N55	N	0.359924	0.289946	0.234372
H56	H	0.563846	0.101690	0.242593
C57	C	0.849466	-0.287600	0.134918
N58	N	0.813102	-0.259238	0.236568
H59	H	0.432449	0.000309	0.145498
H60	H	1.100661	-0.471825	0.145488
C61	C	0.846655	-0.446977	-0.135329
N62	N	0.809416	-0.465839	-0.236826
H63	H	0.862252	-0.296824	-0.099743
H64	H	0.418831	0.095472	-0.243268
H65	H	1.002311	-0.315714	-0.242578
C66	C	0.550192	0.256832	0.134925
N67	N	0.568918	0.294017	0.236582
H68	H	0.420179	0.100485	0.243165
C69	C	0.586870	-0.021570	0.146095
N70	N	0.619330	-0.090138	0.151395
H71	H	0.562220	0.103686	-0.242576
H72	H	0.576617	0.003051	-0.148073
C73	C	0.846880	-0.448381	0.133467
N74	N	0.809819	-0.468285	0.234443
H75	H	1.000511	-0.457859	0.243170
C76	C	1.108700	-0.005147	0.660932
N77	N	1.155876	-0.052313	0.724433
H78	H	1.103954	-0.328816	0.144233
C79	C	0.994908	-0.467650	-0.280270
N80	N	0.964441	-0.488537	-0.387545
C81	C	1.126796	-0.322244	-0.151024
N82	N	1.195698	-0.306636	-0.159560
C83	C	1.126536	-0.482848	-0.139113
N84	N	1.195217	-0.515189	-0.140067
