data_functionalizedCrystal
_audit_creation_method	'MofGen! by Chris Wilmer'
_symmetry_space_group_name_H-M	'P1'
_symmetry_Int_Tables_number	1
_symmetry_cell_setting	triclinic
loop_
_symmetry_equiv_pos_as_xyz
  x,y,z
_cell_length_a	19.805407
_cell_length_b	21.295417
_cell_length_c	19.805398
_cell_angle_alpha	89.970820
_cell_angle_beta	89.984135
_cell_angle_gamma	90.030507
loop_
_atom_site_label
_atom_site_type_symbol
_atom_site_fract_x
_atom_site_fract_y
_atom_site_fract_z
Zn1	Zn	1.034692	-0.250634	-0.382704
Zn2	Zn	1.034606	-0.355900	-0.269510
Zn3	Zn	0.921514	-0.250648	-0.269529
Zn4	Zn	0.921462	-0.355869	-0.382656
O5	O	0.978068	-0.303263	-0.326100
O6	O	1.129397	-0.264605	-0.367701
O7	O	1.019590	-0.341957	-0.174796
O8	O	0.936585	-0.162557	-0.284570
O9	O	1.129334	-0.341943	-0.284537
O10	O	1.019736	-0.162547	-0.367719
O11	O	0.936501	-0.264629	-0.174810
O12	O	0.826790	-0.264599	-0.284523
O13	O	0.936496	-0.341891	-0.477379
O14	O	0.826752	-0.341905	-0.367638
O15	O	1.019686	-0.264575	-0.477415
O16	O	1.019539	-0.443985	-0.284491
O17	O	0.936413	-0.443963	-0.367619
C18	C	0.802212	-0.303251	-0.326078
C19	C	0.726980	-0.303261	-0.326085
C20	C	0.691634	-0.343574	-0.369292
C21	C	0.620945	-0.343576	-0.369302
C22	C	0.585605	-0.303266	-0.326100
C23	C	0.620956	-0.262948	-0.282890
C24	C	0.691643	-0.262944	-0.282885
C25	C	0.335883	-0.262962	-0.282913
C26	C	0.265190	-0.262970	-0.282920
C27	C	0.265185	-0.343593	-0.369330
C28	C	0.335872	-0.343589	-0.369324
C29	C	0.371217	-0.303269	-0.326117
C30	C	0.447866	-0.303268	-0.326109
C31	C	0.508957	-0.303270	-0.326105
C32	C	0.977979	-0.466815	-0.326062
C33	C	0.978003	-0.536783	-0.326069
C34	C	1.021326	-0.569640	-0.282828
C35	C	1.021357	-0.635383	-0.282844
C36	C	0.978055	-0.668265	-0.326092
C37	C	0.934729	-0.635400	-0.369341
C38	C	0.934704	-0.569659	-0.369330
N39	N	0.918844	-0.771531	-0.331245
N40	N	0.918870	-0.833983	-0.331252
C41	C	0.978131	-0.866340	-0.326131
N42	N	1.037365	-0.833886	-0.320989
N43	N	1.037338	-0.771429	-0.320979
C44	C	0.978078	-0.739551	-0.326110
C45	C	1.021491	-0.970483	-0.282905
C46	C	1.021524	-1.036226	-0.282925
C47	C	0.934890	-1.036243	-0.369419
C48	C	0.934863	-0.970500	-0.369402
C49	C	0.978163	-0.937624	-0.326142
C50	C	1.154611	-0.303276	-0.326122
C51	C	1.229843	-0.303281	-0.326132
C52	C	0.978095	-0.303228	-0.502643
C53	C	0.978106	-0.303213	-0.577875
C54	C	0.978176	-0.139073	-0.326152
C55	C	0.978221	-0.069105	-0.326175
C56	C	1.021504	-0.262843	-1.039685
C57	C	1.021494	-0.262863	-0.968997
C58	C	0.978175	-0.303126	-0.933637
C59	C	0.934870	-0.343377	-0.968968
C60	C	0.934884	-0.343360	-1.039656
C61	C	0.934811	-0.343445	-0.683895
C62	C	0.934798	-0.343457	-0.613203
C63	C	1.021420	-0.262948	-0.613236
C64	C	1.021435	-0.262931	-0.683923
C65	C	0.978132	-0.303184	-0.719249
C66	C	0.978145	-0.303163	-0.795898
C67	C	0.978159	-0.303143	-0.856989
C68	C	0.978081	-0.303252	-0.150244
C69	C	0.978201	-0.303090	-0.075012
H70	H	0.720421	-0.230113	-0.247704
H71	H	0.236399	-0.376421	-0.404513
O72	O	1.063452	-0.223715	-0.934617
C73	C	1.024914	-0.183058	-0.893764
H74	H	0.973617	-0.205280	-0.883152
H75	H	1.017485	-0.136415	-0.921038
C76	C	1.125151	-0.144343	-0.839667
C77	C	1.062149	-0.171639	-0.826627
H78	H	1.148120	-0.137296	-0.798255
H79	H	1.151116	-0.171733	-0.867192
H80	H	1.118952	-0.105477	-0.862397
H81	H	1.068350	-0.210508	-0.803906
H82	H	1.036187	-0.144255	-0.799097
O83	O	1.063397	-0.223816	-0.578846
C84	C	1.024877	-0.183156	-0.537979
H85	H	0.973570	-0.205361	-0.527375
H86	H	1.017470	-0.136502	-0.565236
C87	C	1.125132	-0.144498	-0.483867
C88	C	1.062117	-0.171772	-0.470838
H89	H	1.148104	-0.137473	-0.442452
H90	H	1.151084	-0.171890	-0.511402
H91	H	1.118950	-0.105622	-0.506583
H92	H	1.068300	-0.210651	-0.448130
H93	H	1.036167	-0.144387	-0.443298
O94	O	0.892882	-0.382434	-1.074079
C95	C	0.902172	-0.373777	-1.144051
H96	H	0.954422	-0.353160	-1.153714
H97	H	0.862049	-0.340249	-1.164119
C98	C	0.831766	-0.462783	-1.168455
C99	C	0.895942	-0.437466	-1.180324
H100	H	0.827920	-0.502069	-1.190831
H101	H	0.825504	-0.468615	-1.121314
H102	H	0.798338	-0.434838	-1.185179
H103	H	0.929369	-0.465408	-1.163593
H104	H	0.902209	-0.431641	-1.227464
H105	H	1.056775	-0.230052	-1.068471
H106	H	0.364652	-0.230136	-0.247726
H107	H	0.236418	-0.230141	-0.247740
O108	O	0.586584	-0.382651	-0.411344
C109	C	0.545718	-0.346876	-0.455132
H110	H	0.567043	-0.297301	-0.459414
H111	H	0.492137	-0.344686	-0.434219
C112	C	0.518459	-0.438615	-0.520171
C113	C	0.544654	-0.377727	-0.525435
H114	H	0.517799	-0.457646	-0.563537
H115	H	0.545988	-0.462718	-0.490669
H116	H	0.473810	-0.436782	-0.502741
H117	H	0.589304	-0.379561	-0.542857
H118	H	0.517132	-0.353625	-0.554941
O119	O	0.892702	-0.382637	-0.578957
C120	C	0.854475	-0.418154	-0.625293
H121	H	0.882204	-0.420321	-0.675685
H122	H	0.803081	-0.395107	-0.632811
C123	C	0.810630	-0.482496	-0.535790
C124	C	0.844690	-0.485162	-0.597681
H125	H	0.804591	-0.523829	-0.518757
H126	H	0.836382	-0.458566	-0.504572
H127	H	0.767805	-0.463288	-0.542063
H128	H	0.887518	-0.504363	-0.591405
H129	H	0.818945	-0.509096	-0.628898
O130	O	0.586523	-0.223847	-0.240949
C131	C	0.516553	-0.232482	-0.250230
H132	H	0.506881	-0.281092	-0.272296
H133	H	0.496527	-0.195192	-0.286354
C134	C	0.492119	-0.166920	-0.154659
C135	C	0.480239	-0.226625	-0.181756
H136	H	0.469717	-0.163304	-0.112422
H137	H	0.539259	-0.161100	-0.148407
H138	H	0.475430	-0.135852	-0.184769
H139	H	0.496935	-0.257692	-0.151650
H140	H	0.433100	-0.232451	-0.188001
H141	H	0.364643	-0.376416	-0.404501
O142	O	1.063616	-0.938640	-0.240865
C143	C	1.101854	-0.981742	-0.202693
H144	H	1.104202	-1.028583	-0.230430
H145	H	1.077103	-0.988792	-0.151267
C146	C	1.171000	-0.898495	-0.158928
C147	C	1.173890	-0.956025	-0.192998
H148	H	1.215435	-0.882631	-0.152944
H149	H	1.145238	-0.869455	-0.184642
H150	H	1.150371	-0.904377	-0.116076
H151	H	1.194510	-0.950140	-0.235851
H152	H	1.199658	-0.985063	-0.167290
O153	O	1.063423	-0.537635	-0.240906
C154	C	1.107111	-0.499560	-0.279476
H155	H	1.083203	-0.489700	-0.330747
H156	H	1.157275	-0.524851	-0.286963
C157	C	1.148731	-0.449235	-0.179266
C158	C	1.119364	-0.437120	-0.242236
H159	H	1.156293	-0.410720	-0.156294
H160	H	1.119300	-0.474888	-0.153280
H161	H	1.190532	-0.470312	-0.185514
H162	H	1.077561	-0.416051	-0.235987
H163	H	1.148789	-0.411462	-0.268220
O164	O	0.892846	-0.382618	-0.718228
C165	C	0.931369	-0.423262	-0.759110
H166	H	0.984673	-0.427143	-0.737813
H167	H	0.933716	-0.403801	-0.812694
C168	C	0.832805	-0.483940	-0.786309
C169	C	0.898273	-0.488711	-0.760149
H170	H	0.812389	-0.524311	-0.786953
H171	H	0.806851	-0.456556	-0.758769
H172	H	0.834770	-0.467720	-0.830961
H173	H	0.896306	-0.504923	-0.715496
H174	H	0.924226	-0.516099	-0.787682
H175	H	0.899635	-1.063015	-0.404636
H176	H	1.056806	-1.062978	-0.247714
H177	H	1.056638	-0.662140	-0.247632
O178	O	0.892758	-0.667408	-0.411386
C179	C	0.931281	-0.705366	-0.455154
H180	H	0.982594	-0.715187	-0.431330
H181	H	0.938676	-0.679994	-0.505316
C182	C	0.831032	-0.755775	-0.496644
C183	C	0.894054	-0.767841	-0.467381
H184	H	0.808068	-0.794311	-0.504190
H185	H	0.805078	-0.730200	-0.467159
H186	H	0.837204	-0.734630	-0.538443
H187	H	0.887881	-0.788979	-0.425580
H188	H	0.920006	-0.793421	-0.496860
H189	H	0.899602	-0.376162	-0.940172
O190	O	0.892708	-0.938676	-0.411422
C191	C	0.854505	-0.981794	-0.449610
H192	H	0.852200	-1.028677	-0.421894
H193	H	0.879258	-0.988731	-0.501042
C194	C	0.785282	-0.898609	-0.493331
C195	C	0.782446	-0.956190	-0.459287
H196	H	0.740833	-0.882815	-0.499303
H197	H	0.811021	-0.869559	-0.467604
H198	H	0.805912	-0.904397	-0.536186
H199	H	0.761824	-0.950399	-0.416429
H200	H	0.756701	-0.985238	-0.485006
H201	H	0.720403	-0.376401	-0.404470
H202	H	1.056707	-0.230142	-0.712710
H203	H	0.899425	-0.542906	-0.404542
