data_functionalizedCrystal
_audit_creation_method	'MofGen! by Chris Wilmer'
_symmetry_space_group_name_H-M	'P1'
_symmetry_Int_Tables_number	1
_symmetry_cell_setting	triclinic
loop_
_symmetry_equiv_pos_as_xyz
  x,y,z
_cell_length_a	12.759401
_cell_length_b	16.959453
_cell_length_c	12.759393
_cell_angle_alpha	90.035042
_cell_angle_beta	90.018496
_cell_angle_gamma	90.020149
loop_
_atom_site_label
_atom_site_type_symbol
_atom_site_fract_x
_atom_site_fract_y
_atom_site_fract_z
Zn1	Zn	1.606217	-0.314632	0.593956
Zn2	Zn	1.606095	-0.446833	0.418265
Zn3	Zn	1.430519	-0.314673	0.418295
Zn4	Zn	1.430491	-0.446772	0.593907
O5	O	1.518330	-0.380727	0.506106
O6	O	1.753222	-0.332177	0.570658
O7	O	1.582765	-0.429345	0.271248
O8	O	1.453888	-0.204057	0.441630
O9	O	1.753132	-0.429304	0.441579
O10	O	1.582973	-0.204026	0.570687
O11	O	1.453770	-0.332247	0.271270
O12	O	1.283494	-0.332188	0.441583
O13	O	1.453841	-0.429201	0.740935
O14	O	1.283474	-0.429241	0.570604
O15	O	1.582946	-0.332118	0.740971
O16	O	1.582738	-0.557436	0.441532
O17	O	1.453723	-0.557391	0.570575
C18	C	1.245363	-0.380713	0.506092
C19	C	1.128586	-0.380726	0.506110
C20	C	1.073741	-0.431342	0.573181
C21	C	0.964017	-0.431352	0.573192
C22	C	0.963993	-0.330127	0.439054
C23	C	1.073715	-0.330114	0.439049
C24	C	1.073754	-0.489786	0.650621
C25	C	0.964030	-0.489796	0.650632
C26	C	1.518243	-0.586094	0.506067
C27	C	1.518301	-0.673950	0.506086
C28	C	1.585631	-1.045352	0.573433
C29	C	1.451323	-1.045500	0.438935
C30	C	1.451284	-0.962954	0.438911
C31	C	1.518419	-0.921603	0.506150
C32	C	1.585592	-0.962798	0.573413
C33	C	1.384105	-0.921753	0.371657
C34	C	1.384063	-0.839202	0.371631
C35	C	1.451203	-0.797850	0.438865
C36	C	1.518379	-0.839050	0.506130
C37	C	1.585514	-0.797699	0.573369
C38	C	1.652696	-0.838897	0.640629
C39	C	1.652732	-0.921445	0.640647
C40	C	1.451167	-0.715301	0.438847
C41	C	1.585475	-0.715145	0.573349
C42	C	1.792364	-0.380743	0.506121
C43	C	1.909140	-0.380749	0.506127
C44	C	1.518404	-0.380648	0.780139
C45	C	1.518435	-0.380614	0.896916
C46	C	1.518447	-0.174559	0.506168
C47	C	1.518497	-0.086703	0.506194
C48	C	1.518318	-0.380750	0.233139
C49	C	1.518490	-0.380561	0.116362
C50	C	1.585669	-0.330058	0.951799
C51	C	1.585694	-0.330029	1.061523
C52	C	1.451248	-0.431120	1.061472
C53	C	1.451219	-0.431144	0.951750
C54	C	1.663294	-0.271696	0.951829
C55	C	1.663319	-0.271668	1.061553
H56	H	1.118366	-0.288892	0.384441
Cl57	Cl	0.895005	-0.266504	0.354754
Cl58	Cl	0.911535	-0.456060	0.770056
Cl59	Cl	0.918008	-0.584278	0.616728
H60	H	1.640148	-0.681482	0.628100
Cl61	Cl	1.119788	-0.464582	0.776304
H62	H	1.707428	-0.954996	0.695408
H63	H	1.396466	-0.472308	0.907069
H64	H	1.707353	-0.805219	0.695381
Cl65	Cl	1.670088	-1.097141	0.657981
H66	H	1.641533	-0.210482	0.922078
Cl67	Cl	1.782591	-0.305573	0.899268
Cl68	Cl	1.126267	-0.579546	0.605502
Cl69	Cl	1.366916	-1.097485	0.354426
H70	H	1.634213	-0.213504	1.095605
Cl71	Cl	1.788945	-0.296970	1.107535
Cl72	Cl	1.299604	-0.787418	0.287079
Cl73	Cl	1.299693	-0.973741	0.287154
Cl74	Cl	1.366752	-0.494639	1.130414
H75	H	1.396463	-0.681762	0.384090
