data_functionalizedCrystal
_audit_creation_method	'MofGen! by Chris Wilmer'
_symmetry_space_group_name_H-M	'P1'
_symmetry_Int_Tables_number	1
_symmetry_cell_setting	triclinic
loop_
_symmetry_equiv_pos_as_xyz
  x,y,z
_cell_length_a	18.050589
_cell_length_b	18.050590
_cell_length_c	19.805399
_cell_angle_alpha	90.000100
_cell_angle_beta	89.977706
_cell_angle_gamma	89.984959
loop_
_atom_site_label
_atom_site_type_symbol
_atom_site_fract_x
_atom_site_fract_y
_atom_site_fract_z
Zn1	Zn	-0.295938	-1.135320	-0.382393
Zn2	Zn	-0.420130	-1.135222	-0.269215
Zn3	Zn	-0.295930	-1.011131	-0.269256
Zn4	Zn	-0.420062	-1.011087	-0.382400
O5	O	-0.358015	-1.073190	-0.325816
O6	O	-0.312444	-1.239231	-0.367359
O7	O	-0.403680	-1.118739	-0.174504
O8	O	-0.192006	-1.027664	-0.284278
O9	O	-0.403688	-1.239160	-0.284208
O10	O	-0.192012	-1.118905	-0.367399
O11	O	-0.312430	-1.027569	-0.174534
O12	O	-0.312364	-0.907200	-0.284285
O13	O	-0.403572	-1.027589	-0.477116
O14	O	-0.403564	-0.907168	-0.367412
O15	O	-0.312378	-1.118862	-0.477110
O16	O	-0.524046	-1.118696	-0.284215
O17	O	-0.523996	-1.027495	-0.367372
C18	C	-0.357956	-0.880238	-0.325854
C19	C	-0.357949	-0.797692	-0.325886
C20	C	-0.407677	-0.598245	-0.370992
C21	C	-0.339959	-0.548853	-0.387646
C22	C	-0.357984	-0.646562	-0.325860
C23	C	-0.425736	-0.548872	-0.309212
C24	C	-0.358025	-0.500577	-0.325836
C25	C	-0.290230	-0.598257	-0.342546
C26	C	-0.376052	-0.598280	-0.264084
C27	C	-0.308287	-0.548910	-0.280714
C28	C	-0.357962	-0.730660	-0.325875
C29	C	-0.358039	-0.416480	-0.325820
C30	C	-0.550967	-1.073100	-0.325805
C31	C	-0.633513	-1.073130	-0.325823
C32	C	-0.832963	-1.023583	-0.371027
C33	C	-0.882398	-1.005481	-0.309270
C34	C	-0.784643	-1.073203	-0.325831
C35	C	-0.882290	-1.091342	-0.387596
C36	C	-0.930628	-1.073272	-0.325845
C37	C	-0.832991	-1.055065	-0.264041
C38	C	-0.832879	-1.140957	-0.342409
C39	C	-0.882291	-1.122881	-0.280609
C40	C	-0.700545	-1.073161	-0.325824
C41	C	-1.014725	-1.073314	-0.325845
C42	C	-0.164309	-1.073300	-0.325842
C43	C	-0.081764	-1.073347	-0.325853
C44	C	-0.357968	-1.073232	-0.502359
C45	C	-0.357948	-1.073249	-0.577591
C46	C	-0.358064	-0.266895	-0.325790
C47	C	-0.358059	-0.349441	-0.325808
C48	C	-0.310462	-1.120776	-0.612933
C49	C	-0.310440	-1.120784	-0.683622
C50	C	-0.357910	-1.073268	-0.718966
C51	C	-0.405398	-1.025735	-0.683619
C52	C	-0.405416	-1.025725	-0.612932
C53	C	-0.405329	-1.025777	-0.968692
C54	C	-0.405310	-1.025793	-1.039385
C55	C	-0.310354	-1.120837	-1.039382
C56	C	-0.310371	-1.120826	-0.968695
C57	C	-0.357857	-1.073291	-0.933354
C58	C	-0.357878	-1.073283	-0.856705
C59	C	-0.357892	-1.073280	-0.795614
C60	C	-0.358008	-1.073191	-0.149960
C61	C	-0.357819	-1.073317	-0.074728
H62	H	-0.811304	-0.981560	-0.409194
C63	C	-0.803994	-1.217337	-0.361173
C64	C	-0.863855	-1.264762	-0.373467
C65	C	-0.837274	-1.335126	-0.390771
H66	H	-0.775063	-1.236450	-0.325103
H67	H	-0.774296	-1.213784	-0.400654
H68	H	-0.893541	-1.268318	-0.333990
H69	H	-0.892792	-1.245672	-0.409540
H70	H	-0.807576	-1.331573	-0.430252
H71	H	-0.808343	-1.354232	-0.354698
H72	H	-0.877885	-1.367311	-0.399120
C73	C	-0.258796	-1.172275	-0.574599
C74	C	-0.185308	-1.156132	-0.591796
C75	C	-0.137690	-1.203550	-0.556493
H76	H	-0.269577	-1.222196	-0.586148
H77	H	-0.265555	-1.165459	-0.527431
H78	H	-0.178553	-1.162954	-0.638954
H79	H	-0.174504	-1.106220	-0.580246
H80	H	-0.144448	-1.196734	-0.509325
H81	H	-0.148477	-1.253468	-0.568044
H82	H	-0.087823	-1.192599	-0.568151
C83	C	-0.258900	-1.172374	-0.930199
C84	C	-0.269087	-1.162199	-0.860730
C85	C	-0.221683	-1.209672	-0.825248
H86	H	-0.208969	-1.161570	-0.941717
H87	H	-0.269775	-1.222289	-0.941730
H88	H	-0.258206	-1.112296	-0.849204
H89	H	-0.319007	-1.173009	-0.849192
H90	H	-0.232558	-1.259587	-0.836778
H91	H	-0.171755	-1.198864	-0.836771
H92	H	-0.228593	-1.202780	-0.778110
H93	H	-0.266232	-0.527384	-0.242537
H94	H	-0.904166	-0.948216	-0.295261
C95	C	-0.911101	-1.178762	-0.229548
C96	C	-0.954812	-1.142277	-0.181516
C97	C	-0.981374	-1.193728	-0.134473
H98	H	-0.870508	-1.202111	-0.207675
H99	H	-0.940077	-1.215061	-0.252094
H100	H	-0.925837	-1.105992	-0.158973
H101	H	-0.995417	-1.118932	-0.203370
H102	H	-1.010350	-1.230027	-0.157019
H103	H	-0.940776	-1.217074	-0.112605
H104	H	-1.011040	-1.168982	-0.101881
C105	C	-0.911064	-1.111665	-0.457294
C106	C	-0.886054	-1.059505	-0.504394
C107	C	-0.912534	-1.078201	-0.568609
H108	H	-0.963684	-1.111974	-0.456792
H109	H	-0.893358	-1.159420	-0.469412
H110	H	-0.903763	-1.011762	-0.492280
H111	H	-0.833437	-1.059187	-0.504918
H112	H	-0.894828	-1.125957	-0.580727
H113	H	-0.965153	-1.078511	-0.568100
H114	H	-0.895563	-1.042818	-0.600575
C115	C	-0.396587	-0.627216	-0.194480
C116	C	-0.467022	-0.601123	-0.176792
C117	C	-0.485975	-0.627774	-0.112682
H118	H	-0.361336	-0.610373	-0.162365
H119	H	-0.396929	-0.679843	-0.195110
H120	H	-0.466675	-0.548507	-0.176157
H121	H	-0.502289	-0.617964	-0.208890
H122	H	-0.486317	-0.680401	-0.113312
H123	H	-0.450720	-0.610929	-0.080573
H124	H	-0.533770	-0.610079	-0.100675
C125	C	-0.319479	-0.520002	-0.457296
C126	C	-0.249059	-0.546113	-0.475013
C127	C	-0.230179	-0.519562	-0.539175
H128	H	-0.319136	-0.467383	-0.456755
H129	H	-0.354781	-0.536912	-0.489348
H130	H	-0.213766	-0.529199	-0.442970
H131	H	-0.249384	-0.598729	-0.475569
H132	H	-0.265481	-0.536472	-0.571227
H133	H	-0.229840	-0.466943	-0.538627
H134	H	-0.182401	-0.537279	-0.551206
C135	C	-0.213893	-0.627199	-0.361413
C136	C	-0.214776	-0.704760	-0.361250
C137	C	-0.144473	-0.731448	-0.378638
H138	H	-0.178517	-0.609991	-0.329574
H139	H	-0.200985	-0.609905	-0.405169
H140	H	-0.227674	-0.722046	-0.317500
H141	H	-0.250136	-0.721987	-0.393090
H142	H	-0.131565	-0.714154	-0.422394
H143	H	-0.109103	-0.714235	-0.346797
H144	H	-0.145064	-0.784075	-0.378536
H145	H	-0.449630	-0.619910	-0.409199
C146	C	-0.258816	-1.172360	-1.077876
C147	C	-0.268940	-1.162187	-1.147346
C148	C	-0.221473	-1.209629	-1.182825
H149	H	-0.269657	-1.222280	-1.066366
H150	H	-0.208902	-1.161511	-1.066336
H151	H	-0.318843	-1.173041	-1.158882
H152	H	-0.258093	-1.112276	-1.158876
H153	H	-0.171558	-1.198780	-1.171285
H154	H	-0.232318	-1.259546	-1.171310
H155	H	-0.228330	-1.202728	-1.229964
C156	C	-0.804097	-1.034529	-0.194436
C157	C	-0.726536	-1.034683	-0.195253
C158	C	-0.699892	-1.015757	-0.131151
H159	H	-0.821302	-1.069550	-0.162253
H160	H	-0.821424	-0.986554	-0.182587
H161	H	-0.709216	-1.082651	-0.207094
H162	H	-0.709311	-0.999662	-0.227423
H163	H	-0.717219	-0.967782	-0.119301
H164	H	-0.717102	-1.050780	-0.098972
H165	H	-0.647264	-1.015853	-0.131698
C166	C	-0.456876	-0.974116	-1.077639
C167	C	-0.498451	-0.932469	-1.031560
C168	C	-0.545951	-0.884853	-1.066775
H169	H	-0.489303	-1.002426	-1.105207
H170	H	-0.428461	-0.941744	-1.105209
H171	H	-0.526863	-0.964837	-1.004001
H172	H	-0.466042	-0.904143	-1.003990
H173	H	-0.517537	-0.852480	-1.094345
H174	H	-0.578374	-0.913169	-1.094342
H175	H	-0.574160	-0.856585	-1.035516
H176	H	-0.271773	-1.159487	-0.712394
H177	H	-0.444006	-0.987083	-0.939926
C178	C	-0.456908	-0.974225	-0.722113
C179	C	-0.446746	-0.984420	-0.791583
C180	C	-0.494193	-0.936988	-0.827063
H181	H	-0.446073	-0.924301	-0.710619
H182	H	-0.506829	-0.985069	-0.710558
H183	H	-0.396836	-0.973570	-0.803134
H184	H	-0.457586	-1.034334	-0.803097
H185	H	-0.544114	-0.947833	-0.815507
H186	H	-0.483353	-0.887067	-0.815563
H187	H	-0.487309	-0.943904	-0.874202
C188	C	-0.457104	-0.974226	-0.574588
C189	C	-0.530583	-0.990377	-0.591756
C190	C	-0.578220	-0.942959	-0.556439
H191	H	-0.446323	-0.924306	-0.586146
H192	H	-0.450363	-0.981035	-0.527422
H193	H	-0.537321	-0.983562	-0.638911
H194	H	-0.541388	-1.040289	-0.580196
H195	H	-0.571480	-0.949768	-0.509273
H196	H	-0.567432	-0.893042	-0.568000
H197	H	-0.628081	-0.953916	-0.568077
C198	C	-0.502174	-0.520042	-0.290543
C199	C	-0.553948	-0.545052	-0.337968
C200	C	-0.624371	-0.518516	-0.320795
H201	H	-0.501623	-0.467422	-0.290279
H202	H	-0.515382	-0.537709	-0.246986
H203	H	-0.540743	-0.527381	-0.381514
H204	H	-0.554521	-0.597669	-0.338239
H205	H	-0.637579	-0.536184	-0.277238
H206	H	-0.623813	-0.465897	-0.320532
H207	H	-0.659509	-0.535487	-0.352967
