data_functionalizedCrystal
_audit_creation_method	'MofGen! by Chris Wilmer'
_symmetry_space_group_name_H-M	'P1'
_symmetry_Int_Tables_number	1
_symmetry_cell_setting	triclinic
loop_
_symmetry_equiv_pos_as_xyz
  x,y,z
_cell_length_a	14.971486
_cell_length_b	13.330367
_cell_length_c	14.971486
_cell_angle_alpha	89.995151
_cell_angle_beta	96.385871
_cell_angle_gamma	90.002597
loop_
_atom_site_label
_atom_site_type_symbol
_atom_site_fract_x
_atom_site_fract_y
_atom_site_fract_z
O1	O	1.186949	0.083309	-0.116562
O2	O	0.926549	0.083336	-0.130521
O3	O	1.063728	0.083314	0.006659
O4	O	1.049769	0.083330	-0.253742
O5	O	1.063708	-0.083533	0.006662
O6	O	0.926529	-0.083511	-0.130518
O7	O	1.186929	-0.083539	-0.116559
Cu8	Cu	1.056727	-0.098759	-0.123538
Cu9	Cu	1.056750	0.098557	-0.123542
O10	O	1.049749	-0.083517	-0.253738
C11	C	0.893214	-0.000084	-0.129895
C12	C	0.793917	-0.000074	-0.128024
N13	N	1.056717	-0.237541	-0.123535
C14	C	0.736691	-0.000070	-0.208614
C15	C	0.643392	-0.000085	-0.206850
C16	C	0.607320	-0.000097	-0.124497
C17	C	0.664552	-0.000103	-0.043902
C18	C	0.757850	-0.000095	-0.045666
C19	C	0.470090	-0.000117	-0.040231
C20	C	0.376786	-0.000123	-0.038466
C21	C	0.355632	-0.000107	-0.201415
C22	C	0.448930	-0.000099	-0.203179
C23	C	0.506156	-0.000104	-0.122584
C24	C	0.996005	-0.710154	-0.184261
C25	C	1.117520	-0.710141	-0.062816
C26	C	1.117510	-0.605123	-0.062813
C27	C	1.056747	-0.552615	-0.123536
C28	C	0.995995	-0.605126	-0.184262
C29	C	1.178268	-0.552604	-0.002094
C30	C	1.178261	-0.447579	-0.002090
C31	C	1.117493	-0.395070	-0.062809
C32	C	1.056737	-0.447587	-0.123537
C33	C	0.995974	-0.395080	-0.184260
C34	C	0.935213	-0.447595	-0.244984
C35	C	0.935227	-0.552617	-0.244981
C36	C	1.117480	-0.290048	-0.062812
C37	C	0.995964	-0.290052	-0.184261
C38	C	1.220263	-0.000116	-0.117185
C39	C	1.319561	-0.000120	-0.119056
C40	C	1.063094	-0.000109	0.039985
C41	C	1.061223	-0.000108	0.139282
N42	N	1.056768	0.237338	-0.123538
C43	C	1.050384	-0.000092	-0.287065
C44	C	1.052254	-0.000086	-0.386362
C45	C	1.141812	-0.000117	0.196507
C46	C	1.140049	-0.000107	0.289807
C47	C	1.057696	-0.000094	0.325879
C48	C	0.977101	-0.000082	0.268646
C49	C	0.978865	-0.000085	0.175349
C50	C	0.973430	-0.000078	0.463109
C51	C	0.971665	-0.000077	0.556413
C52	C	1.134614	-0.000099	0.577567
C53	C	1.136378	-0.000103	0.484269
C54	C	1.055782	-0.000092	0.427043
H55	H	0.766054	-0.000060	-0.275675
H56	H	0.635175	-0.000127	0.023152
Cl57	Cl	0.858834	-0.381574	-0.321325
Cl58	Cl	1.245348	-0.000143	0.151169
Cl59	Cl	0.868134	-0.000062	0.601760
H60	H	0.907800	-0.000067	0.416517
H61	H	1.200238	-0.000105	0.624165
H62	H	0.804443	-0.000098	0.019958
Cl63	Cl	1.239909	-0.000113	0.438922
Cl64	Cl	0.873570	-0.000054	0.313995
H65	H	1.205673	-0.000116	0.336396
Cl66	Cl	0.919567	-0.224050	-0.260599
Cl67	Cl	1.254658	-0.618611	0.074235
H68	H	0.885758	-0.595381	-0.294422
Cl69	Cl	0.877548	-0.000070	0.103407
Cl70	Cl	1.193911	-0.776148	0.013513
H71	H	0.596802	-0.000081	-0.272474
Cl72	Cl	1.254640	-0.381567	0.074249
H73	H	0.946532	-0.752915	-0.233699
H74	H	0.478296	-0.000081	-0.270239
Cl75	Cl	0.283691	-0.000104	-0.302736
H76	H	0.516682	-0.000123	0.025399
Cl77	Cl	0.331439	-0.000171	0.065065
Cl78	Cl	1.193864	-0.224036	0.013516
