data_functionalizedCrystal
_audit_creation_method	'MofGen! by Chris Wilmer'
_symmetry_space_group_name_H-M	'P1'
_symmetry_Int_Tables_number	1
_symmetry_cell_setting	triclinic
loop_
_symmetry_equiv_pos_as_xyz
  x,y,z
_cell_length_a	15.698487
_cell_length_b	20.016444
_cell_length_c	20.016444
_cell_angle_alpha	90.003000
_cell_angle_beta	60.003646
_cell_angle_gamma	59.998798
loop_
_atom_site_label
_atom_site_type_symbol
_atom_site_fract_x
_atom_site_fract_y
_atom_site_fract_z
Zr1	Zr	0.932353	0.643610	-0.087623
O2	O	1.110064	0.536932	-0.194297
O3	O	0.754643	0.676312	-0.054924
O4	O	0.932345	0.676312	-0.194293
O5	O	0.932369	0.536933	0.055013
O6	O	0.932338	0.786257	-0.194288
O7	O	0.932362	0.536933	-0.054927
O8	O	0.614461	0.786258	0.055019
O9	O	1.250245	0.536932	-0.194295
O10	O	0.827733	0.772310	-0.040971
O11	O	0.827743	0.690260	0.041072
O12	O	1.036964	0.690259	-0.123018
O13	O	1.036974	0.608208	-0.040975
Zr14	Zr	0.932353	0.818960	0.087727
Zr15	Zr	0.932343	0.818960	-0.087614
Zr16	Zr	0.932364	0.643610	0.087719
Zr17	Zr	1.155926	0.643610	-0.087619
Zr18	Zr	0.708780	0.818960	0.087723
O19	O	1.110064	0.786258	0.055028
O20	O	1.110049	0.786257	-0.194285
O21	O	1.110079	0.536933	0.055016
O22	O	0.754643	0.925638	0.194401
O23	O	0.754627	0.925637	-0.054911
O24	O	0.754658	0.676313	0.194389
O25	O	0.932338	0.925637	-0.054908
O26	O	0.932362	0.786258	0.194398
O27	O	0.932369	0.676313	0.194392
O28	O	0.932345	0.925637	0.055032
O29	O	1.250237	0.676311	-0.194288
O30	O	0.614470	0.786259	0.194392
O31	O	0.614461	0.925638	0.194399
O32	O	0.614453	0.925638	0.055026
O33	O	1.250254	0.536932	-0.054921
O34	O	1.250245	0.676312	-0.054915
O35	O	0.827743	0.772311	0.123123
O36	O	0.827733	0.854361	0.041080
O37	O	1.036964	0.772310	-0.040967
O38	O	1.036974	0.690260	0.041076
C39	C	0.652698	0.731285	0.000047
C40	C	0.557785	0.731285	0.000046
C41	C	0.932367	0.731286	0.219378
C42	C	0.932371	0.731286	0.293815
C43	C	0.932340	0.950621	0.000063
C44	C	0.932335	1.025061	0.000066
C45	C	0.384002	0.731283	0.000060
C46	C	0.480707	0.731283	0.000054
C47	C	1.212009	0.731285	0.000057
C48	C	1.306922	0.731285	0.000059
C49	C	0.932367	0.511949	0.000042
C50	C	0.932371	0.437509	0.000038
C51	C	0.823133	1.239148	0.042881
C52	C	0.823138	1.309089	0.042875
C53	C	1.041582	1.223414	-0.042782
C54	C	1.041576	1.153475	-0.042780
C55	C	0.932348	1.161345	0.000056
C56	C	0.932359	1.301225	0.000048
C57	C	0.932365	1.377058	0.000041
C58	C	0.932341	1.085507	0.000062
C59	C	0.932340	0.731284	-0.219273
C60	C	0.932335	0.731284	-0.293710
C61	C	1.041574	0.688453	0.422254
C62	C	1.041569	0.688451	0.492199
C63	C	0.823124	0.774118	0.577849
C64	C	0.823131	0.774115	0.507904
C65	C	0.932359	0.731285	0.430107
C66	C	0.932348	0.731285	0.569997
C67	C	0.932341	0.731283	0.645835
C68	C	0.932366	0.731286	0.354264
C69	C	0.652684	0.950621	0.000058
C70	C	0.557767	1.025062	0.000060
C71	C	0.652711	0.731286	0.219373
C72	C	0.557803	0.731286	0.293808
C73	C	0.652698	0.950622	0.219383
C74	C	0.557785	1.025063	0.293822
C75	C	1.212009	0.511948	-0.219279
C76	C	1.306922	0.437507	-0.293718
C77	C	1.212022	0.511949	0.000047
C78	C	1.306940	0.437508	0.000045
C79	C	1.211996	0.731284	-0.219268
C80	C	1.306904	0.731283	-0.293703
C81	C	0.513193	1.017190	-0.042776
C82	C	0.424021	1.087128	-0.042791
C83	C	0.379418	1.164937	0.000036
C84	C	0.424001	1.172808	0.042873
C85	C	0.513178	1.102870	0.042883
C86	C	0.513233	0.774116	0.371601
C87	C	0.424069	0.774114	0.441547
C88	C	0.379471	0.731285	0.433699
C89	C	0.424050	0.688450	0.355898
C90	C	0.513218	0.688448	0.285954
C91	C	0.513208	1.102858	0.285954
C92	C	0.424040	1.172810	0.355891
C93	C	0.379444	1.164965	0.433695
C94	C	0.424030	1.087161	0.441561
C95	C	0.513203	1.017211	0.371625
C96	C	1.351510	0.359712	-0.285850
C97	C	1.440705	0.289760	-0.355786
C98	C	1.485305	0.297605	-0.433590
C99	C	1.440714	0.375408	-0.441457
C100	C	1.351526	0.445359	-0.371521
C101	C	1.351523	0.445380	0.042873
C102	C	1.440720	0.375442	0.042869
C103	C	1.485326	0.297633	0.000039
C104	C	1.440739	0.289762	-0.042795
C105	C	1.351549	0.359700	-0.042794
C106	C	1.351474	0.774120	-0.285829
C107	C	1.440638	0.774136	-0.355763
C108	C	1.485237	0.731310	-0.433569
C109	C	1.440658	0.688471	-0.441442
C110	C	1.351489	0.688461	-0.371509
H111	H	0.734192	1.245560	0.077759
H112	H	0.387672	1.236169	0.077741
C113	C	1.489744	0.384110	0.089997
C114	C	1.477495	0.347806	0.159471
C115	C	1.526514	0.356476	0.206600
C116	C	1.587783	0.401452	0.184254
C117	C	1.600035	0.437759	0.114776
C118	C	1.551015	0.429089	0.067647
H119	H	1.432138	0.314510	0.176016
H120	H	1.517444	0.329599	0.258032
H121	H	1.624070	0.407870	0.219141
H122	H	1.645392	0.471055	0.098231
H123	H	1.560085	0.455966	0.016215
H124	H	1.557949	0.240692	0.000046
C125	C	1.302477	0.530933	-0.380184
C126	C	1.351541	0.539552	-0.465770
C127	C	1.302501	0.625124	-0.474441
C128	C	1.204396	0.702077	-0.397525
C129	C	1.155327	0.693461	-0.311933
C130	C	1.204367	0.607888	-0.303262
H131	H	1.424169	0.482584	-0.522713
H132	H	1.338826	0.631502	-0.537802
H133	H	1.168094	0.765423	-0.403943
H134	H	1.082699	0.750429	-0.254990
H135	H	1.168042	0.601510	-0.239901
C136	C	1.302476	0.530964	0.089985
C137	C	1.351544	0.539606	0.137083
C138	C	1.302511	0.625188	0.184192
C139	C	1.204408	0.702128	0.184203
C140	C	1.155334	0.693489	0.137103
C141	C	1.204368	0.607907	0.089994
H142	H	1.424171	0.482648	0.137077
H143	H	1.338839	0.631582	0.219059
H144	H	1.168111	0.765481	0.219076
H145	H	1.082708	0.750447	0.137109
H146	H	1.168040	0.601513	0.055127
C147	C	1.583332	0.731320	-0.510491
C148	C	1.632357	0.778438	-0.501820
C149	C	1.730455	0.778448	-0.578738
C150	C	1.779527	0.731341	-0.664328
C151	C	1.730502	0.684219	-0.673003
C152	C	1.632404	0.684209	-0.596084
H153	H	1.596031	0.813312	-0.438458
H154	H	1.766746	0.813331	-0.572315
H155	H	1.852145	0.731349	-0.721267
H156	H	1.766828	0.649345	-0.736364
H157	H	1.596113	0.649326	-0.602507
C158	C	1.489798	0.204168	-0.089893
C159	C	1.587888	0.127247	-0.089875
C160	C	1.636940	0.041652	-0.136965
C161	C	1.587903	0.032977	-0.184074
C162	C	1.489808	0.109901	-0.184095
C163	C	1.440755	0.195496	-0.137004
H164	H	1.624193	0.133666	-0.055001
H165	H	1.709557	-0.015292	-0.136950
H166	H	1.624214	-0.030386	-0.218933
H167	H	1.453502	0.103482	-0.218969
H168	H	1.368139	0.252440	-0.137019
H169	H	1.477039	0.381786	-0.504813
C170	C	0.281379	0.731296	0.510644
C171	C	0.232355	0.778417	0.596212
C172	C	0.134260	0.778434	0.673161
C173	C	0.085189	0.731330	0.664541
C174	C	0.134213	0.684206	0.578969
C175	C	0.232308	0.684189	0.502021
H176	H	0.268680	0.813289	0.602597
H177	H	0.097970	0.813318	0.736506
H178	H	0.012573	0.731342	0.721502
H179	H	0.097888	0.649334	0.572585
H180	H	0.268598	0.649304	0.438675
C181	C	0.374953	1.078545	0.527151
C182	C	0.460749	1.033605	0.552900
C183	C	0.411659	1.024993	0.638493
C184	C	0.276772	1.061321	0.698338
C185	C	0.190968	1.106264	0.672591
C186	C	0.240058	1.114876	0.586997
H187	H	0.560608	1.006710	0.508598
H188	H	0.475178	0.991723	0.657552
H189	H	0.240433	1.054946	0.761699
H190	H	0.091109	1.133158	0.716892
H191	H	0.176539	1.148145	0.567938
H192	H	1.315210	0.653575	-0.377932
H193	H	1.130512	1.217017	-0.077656
H194	H	1.315201	0.353309	-0.222504
C195	C	1.302418	0.821241	-0.200248
C196	C	1.351449	0.868367	-0.191604
C197	C	1.302392	0.915497	-0.106025
C198	C	1.204305	0.915501	-0.029090
C199	C	1.155270	0.868373	-0.037731
C200	C	1.204326	0.821244	-0.123310
H201	H	1.424063	0.868365	-0.248558
H202	H	1.338692	0.950384	-0.099628
H203	H	1.167991	0.950389	0.034261
H204	H	1.082655	0.868375	0.019223
H205	H	1.168026	0.786357	-0.129707
C206	C	0.281313	1.241865	0.000028
C207	C	0.232283	1.233196	-0.047089
C208	C	0.134174	1.310120	-0.047097
C209	C	0.085097	1.395712	0.000011
C210	C	0.134127	1.404385	0.047132
C211	C	0.232235	1.327461	0.047140
H212	H	0.268613	1.169832	-0.081964
H213	H	0.097879	1.303699	-0.081979
H214	H	0.012471	1.452656	0.000005
H215	H	0.097797	1.467749	0.082007
H216	H	0.268531	1.333882	0.082021
H217	H	1.476925	0.809019	-0.349337
H218	H	0.549535	0.808993	0.378006
C219	C	1.583406	0.220654	-0.510516
C220	C	1.632383	0.135083	-0.501852
C221	C	1.730480	0.058130	-0.578774
C222	C	1.779600	0.066748	-0.664361
C223	C	1.730623	0.152322	-0.673029
C224	C	1.632526	0.229276	-0.596106
H225	H	1.596022	0.128701	-0.438492
H226	H	1.766735	-0.005218	-0.572357
H227	H	1.852217	0.009782	-0.721304
H228	H	1.766984	0.158705	-0.736388
H229	H	1.596271	0.292624	-0.602523
H230	H	0.734204	1.372437	0.077747
H231	H	0.387784	0.808998	0.504889
H232	H	0.387747	1.236154	0.349471
H233	H	0.549486	0.953870	0.378043
H234	H	1.130517	1.090120	-0.077657
H235	H	0.549504	1.109261	0.222608
C236	C	1.489732	0.204184	-0.347120
C237	C	1.551005	0.178481	-0.302143
C238	C	1.600026	0.092908	-0.293474
C239	C	1.587776	0.033038	-0.329781
C240	C	1.526501	0.058740	-0.374760
C241	C	1.477479	0.144313	-0.383430
H242	H	1.560076	0.222801	-0.275264
H243	H	1.645386	0.073882	-0.260177
H244	H	1.624064	-0.030308	-0.323364
H245	H	1.517430	0.014419	-0.401640
H246	H	1.432119	0.163338	-0.416726
H247	H	1.130515	0.653576	0.358911
H248	H	0.549458	1.109291	0.077770
H249	H	1.315252	0.353279	-0.077668
H250	H	1.130503	0.653571	0.485797
C251	C	0.374973	0.641348	0.347277
C252	C	0.313634	0.663722	0.302346
C253	C	0.264546	0.616626	0.293728
C254	C	0.276799	0.547155	0.330042
C255	C	0.338142	0.524778	0.374976
C256	C	0.387229	0.571874	0.383594
H257	H	0.304561	0.715151	0.275462
H258	H	0.219136	0.633192	0.260465
H259	H	0.240462	0.512292	0.323663
H260	H	0.347214	0.473348	0.401860
H261	H	0.432639	0.555308	0.416857
C262	C	0.562250	0.931606	-0.089896
C263	C	0.513213	0.922964	-0.137019
C264	C	0.562270	0.837382	-0.184146
C265	C	0.660363	0.760442	-0.184149
C266	C	0.709406	0.769081	-0.137024
C267	C	0.660349	0.854662	-0.089897
H268	H	0.440594	0.979922	-0.137018
H269	H	0.525965	0.830988	-0.219031
H270	H	0.696678	0.697089	-0.219036
H271	H	0.782025	0.712122	-0.137026
H272	H	0.696654	0.861057	-0.055012
H273	H	0.734194	0.808991	0.641198
C274	C	0.562230	0.641339	0.200382
C275	C	0.513158	0.594236	0.191760
C276	C	0.562166	0.547123	0.106190
C277	C	0.660245	0.547113	0.029243
C278	C	0.709321	0.594217	0.037862
C279	C	0.660314	0.641330	0.123432
H280	H	0.440550	0.594243	0.248723
H281	H	0.525836	0.512253	0.099810
H282	H	0.696523	0.512237	-0.034101
H283	H	0.781930	0.594211	-0.019101
H284	H	0.696644	0.676200	0.129813
C285	C	0.281346	1.241915	0.510621
C286	C	0.232312	1.327487	0.501956
C287	C	0.134211	1.404440	0.578879
C288	C	0.085143	1.395822	0.664465
C289	C	0.134176	1.310248	0.673133
C290	C	0.232278	1.233294	0.596211
H291	H	0.268635	1.333869	0.438597
H292	H	0.097913	1.467788	0.572462
H293	H	0.012522	1.452788	0.721408
H294	H	0.097853	1.303865	0.736493
H295	H	0.268576	1.169946	0.602628
H296	H	0.734189	0.808994	0.514305
H297	H	0.387732	1.080704	-0.077674
H298	H	1.476984	0.653603	-0.504801
