data_functionalizedCrystal
_audit_creation_method	'MofGen! by Chris Wilmer'
_symmetry_space_group_name_H-M	'P1'
_symmetry_Int_Tables_number	1
_symmetry_cell_setting	triclinic
loop_
_symmetry_equiv_pos_as_xyz
  x,y,z
_cell_length_a	13.262402
_cell_length_b	13.262508
_cell_length_c	14.586319
_cell_angle_alpha	105.914532
_cell_angle_beta	105.914826
_cell_angle_gamma	80.095424
loop_
_atom_site_label
_atom_site_type_symbol
_atom_site_fract_x
_atom_site_fract_y
_atom_site_fract_z
O1	O	1.393263	0.141409	0.306466
O2	O	1.087751	0.156773	0.234109
O3	O	1.248195	-0.003664	0.234118
O4	O	1.232819	0.301846	0.306457
O5	O	1.248184	-0.003666	0.386595
O6	O	1.087740	0.156770	0.386586
O7	O	1.393252	0.141407	0.458943
Cu8	Cu	1.240495	0.149088	0.436687
Cu9	Cu	1.240508	0.149091	0.256365
O10	O	1.232808	0.301843	0.458935
C11	C	1.048639	0.155909	0.300380
C12	C	0.932112	0.153326	0.270677
C13	C	0.877372	0.152113	0.173604
C14	C	0.767888	0.149697	0.145700
C15	C	0.713134	0.148485	0.214864
C16	C	0.767874	0.149691	0.311938
C17	C	0.877368	0.152116	0.339846
C18	C	0.713129	0.148488	0.381107
C19	C	0.767869	0.149694	0.478180
C20	C	0.877352	0.152118	0.506084
C21	C	0.932107	0.153330	0.436919
C22	C	0.603635	0.146063	0.353198
C23	C	0.603631	0.146066	0.519440
C24	C	0.713115	0.148483	0.547344
C25	C	1.247329	-0.042772	0.300389
C26	C	1.244751	-0.159298	0.270686
C27	C	1.237454	-0.487785	0.519429
C28	C	1.239868	-0.378302	0.547336
C29	C	1.241089	-0.323546	0.478176
C30	C	1.239895	-0.378284	0.381104
C31	C	1.237473	-0.487777	0.353193
C32	C	1.241108	-0.323537	0.311940
C33	C	1.239914	-0.378275	0.214868
C34	C	1.237493	-0.487757	0.186962
C35	C	1.236272	-0.542513	0.256122
C36	C	1.243530	-0.214044	0.339851
C37	C	1.243549	-0.214035	0.173615
C38	C	1.241135	-0.323519	0.145709
C39	C	1.432365	0.142270	0.392670
C40	C	1.548891	0.144853	0.422367
C41	C	1.233675	0.340951	0.392661
C42	C	1.236253	0.457478	0.422358
N43	N	1.240493	0.149086	0.563518
N44	N	1.240518	0.149086	0.129534
C45	C	1.311562	0.078068	0.798540
C46	C	1.311565	0.078066	0.894521
C47	C	1.169442	0.220106	0.894504
C48	C	1.169435	0.220103	0.798522
C49	C	1.240501	0.149085	0.750544
C50	C	1.240511	0.149086	0.942508
C51	C	1.240514	0.149084	1.046575
C52	C	1.240497	0.149086	0.646470
H53	H	0.757700	0.149466	0.626383
Br54	Br	0.564546	0.145205	0.176993
Br55	Br	0.951638	0.153781	0.637832
H56	H	1.369426	0.020240	0.759478
H57	H	1.111584	0.277929	0.933578
H58	H	0.723327	0.148715	0.066663
H59	H	1.369427	0.020236	0.933596
H60	H	1.243053	-0.234399	0.500903
Br61	Br	0.529329	0.144433	0.613315
H62	H	1.240851	-0.333744	0.626373
H63	H	0.559076	0.145083	0.274160
Br64	Br	0.951684	0.153766	0.079751
Br65	Br	1.080700	0.156605	0.474785
H66	H	1.244493	-0.169486	0.418885
Br67	Br	1.235770	-0.562097	0.613272
H68	H	1.111564	0.277934	0.759440
Br69	Br	1.232998	-0.691105	0.218253
H70	H	1.240162	-0.368102	0.066671
Br71	Br	1.235852	-0.562040	0.055218
H72	H	1.244536	-0.169452	0.117297
