data_functionalizedCrystal
_audit_creation_method	'MofGen! by Chris Wilmer'
_symmetry_space_group_name_H-M	'P1'
_symmetry_Int_Tables_number	1
_symmetry_cell_setting	triclinic
loop_
_symmetry_equiv_pos_as_xyz
  x,y,z
_cell_length_a	19.188930
_cell_length_b	15.944551
_cell_length_c	14.421503
_cell_angle_alpha	89.996660
_cell_angle_beta	90.021481
_cell_angle_gamma	83.321759
loop_
_atom_site_label
_atom_site_type_symbol
_atom_site_fract_x
_atom_site_fract_y
_atom_site_fract_z
O1	O	-0.926420	-0.104854	-0.077412
O2	O	-0.723145	-0.118971	-0.077348
O3	O	-0.830334	0.010383	-0.077374
O4	O	-0.819232	-0.234208	-0.077387
O5	O	-0.830316	0.010364	0.076850
O6	O	-0.723128	-0.118990	0.076875
O7	O	-0.926402	-0.104874	0.076812
Cu8	Cu	-0.824763	-0.111934	0.090925
Cu9	Cu	-0.824784	-0.111911	-0.091462
O10	O	-0.819214	-0.234228	0.076837
C11	C	-0.829864	0.041666	-0.000261
C12	C	-0.828482	0.134906	-0.000261
C13	C	-0.697124	-0.118524	-0.000229
C14	C	-0.619616	-0.117151	-0.000204
C15	C	-0.952423	-0.105321	-0.000310
C16	C	-1.029932	-0.106693	-0.000341
C17	C	-0.574889	-0.193052	-0.000223
C18	C	-0.502061	-0.191763	-0.000233
C19	C	-0.473965	-0.114568	-0.000243
C20	C	-0.518703	-0.038658	-0.000219
C21	C	-0.591528	-0.039949	-0.000200
N22	N	-0.365839	-0.055556	-0.052766
N23	N	-0.296657	-0.054335	-0.052787
C24	C	-0.254547	-0.110673	-0.000300
N25	N	-0.284230	-0.168291	0.052197
N26	N	-0.353418	-0.169515	0.052213
C27	C	-0.394999	-0.113160	-0.000263
C28	C	-0.130851	-0.185181	-0.000328
C29	C	-0.058023	-0.183888	-0.000332
C30	C	-0.074666	-0.030781	-0.000328
C31	C	-0.147492	-0.032076	-0.000314
C32	C	-0.175580	-0.109278	-0.000319
C33	C	-0.819684	-0.265510	-0.000277
C34	C	-0.821066	-0.358751	-0.000284
N35	N	-0.824754	-0.111949	0.219206
C36	C	-0.758739	0.349502	-0.000252
C37	C	-0.791117	0.410631	0.075780
C38	C	-0.825983	0.305623	-0.000267
C39	C	-0.791150	0.410634	-0.076272
C40	C	-0.823563	0.470527	-0.000277
C41	C	-0.858379	0.365524	0.075827
C42	C	-0.858403	0.365520	-0.076293
C43	C	-0.890829	0.426631	-0.000243
C44	C	-0.827374	0.210626	-0.000260
C45	C	-0.822176	0.565522	-0.000277
N46	N	-0.824800	-0.111889	-0.219743
C47	C	-0.775181	-0.171736	0.468872
C48	C	-0.838271	-0.187807	0.530653
C49	C	-0.824771	-0.111929	0.408368
C50	C	-0.761697	-0.095877	0.530680
C51	C	-0.824781	-0.111912	0.591089
C52	C	-0.887892	-0.128038	0.468789
C53	C	-0.811277	-0.036076	0.468810
C54	C	-0.874413	-0.052114	0.530564
C55	C	-0.824764	-0.111941	0.303107
C56	C	-0.824796	-0.111899	0.696348
H57	H	-0.597753	-0.255916	-0.000228
C58	C	-0.683340	0.304216	-0.000132
C59	C	-0.657977	0.244883	-0.080581
C60	C	-0.582580	0.199597	-0.080456
C61	C	-0.532546	0.213643	0.000118
C62	C	-0.557908	0.272979	0.080574
C63	C	-0.633305	0.318266	0.080449
H64	H	-0.695015	0.234483	-0.140232
H65	H	-0.563805	0.155672	-0.140015
H66	H	-0.476733	0.180119	0.000211
H67	H	-0.520870	0.283379	0.140225
H68	H	-0.652080	0.362190	0.140008
C69	C	-0.752727	0.437639	-0.163107
C70	C	-0.675420	0.403140	-0.179766
C71	C	-0.636992	0.430141	-0.266595
C72	C	-0.675871	0.491641	-0.336766
C73	C	-0.753182	0.526143	-0.320110
C74	C	-0.791611	0.499142	-0.233280
H75	H	-0.646636	0.357611	-0.127819
H76	H	-0.579760	0.404599	-0.278925
H77	H	-0.647424	0.511629	-0.401042
H78	H	-0.781967	0.571672	-0.372056
H79	H	-0.848842	0.524684	-0.220951
H80	H	-0.886788	0.345632	0.140176
C81	C	-0.043768	0.054134	-0.000339
C82	C	-0.060679	0.117120	-0.080419
C83	C	-0.029777	0.202037	-0.080427
C84	C	0.018036	0.223969	-0.000356
C85	C	0.034950	0.160982	0.079729
C86	C	0.004048	0.076064	0.079738
H87	H	-0.096076	0.100886	-0.139698
H88	H	-0.042298	0.248664	-0.139712
H89	H	0.040912	0.286830	-0.000362
H90	H	0.070347	0.177215	0.139008
H91	H	0.016569	0.029437	0.139023
C92	C	-0.196698	0.051417	-0.000309
C93	C	-0.165798	0.136332	-0.000321
C94	C	-0.215004	0.219829	-0.000314
C95	C	-0.295110	0.218412	-0.000294
C96	C	-0.326014	0.133495	-0.000282
C97	C	-0.276808	0.049997	-0.000289
H98	H	-0.106496	0.137384	-0.000336
H99	H	-0.192127	0.282691	-0.000323
H100	H	-0.331535	0.280222	-0.000289
H101	H	-0.385316	0.132443	-0.000267
H102	H	-0.299685	-0.012864	-0.000280
C103	C	-0.161757	-0.270097	-0.000322
C104	C	-0.144854	-0.333082	0.079760
C105	C	-0.175759	-0.417997	0.079766
C106	C	-0.223569	-0.439927	-0.000311
C107	C	-0.240474	-0.376941	-0.080399
C108	C	-0.209569	-0.292026	-0.080405
H109	H	-0.109460	-0.316849	0.139043
H110	H	-0.163244	-0.464624	0.139053
H111	H	-0.246447	-0.502787	-0.000307
H112	H	-0.275868	-0.393174	-0.139682
H113	H	-0.222084	-0.245399	-0.139692
C114	C	-0.008817	-0.267384	-0.000352
C115	C	0.043570	-0.287566	0.079720
C116	C	0.092777	-0.371063	0.079700
C117	C	0.089599	-0.434376	-0.000393
C118	C	0.037210	-0.414195	-0.080471
C119	C	-0.011998	-0.330699	-0.080451
H120	H	0.045925	-0.240696	0.139015
H121	H	0.131559	-0.386002	0.138980
H122	H	0.126025	-0.496185	-0.000408
H123	H	0.034855	-0.461065	-0.139766
H124	H	-0.050779	-0.315760	-0.139730
H125	H	-0.849694	-0.251947	0.557818
H126	H	-0.762668	0.430625	0.140076
C127	C	-0.689632	-0.077537	0.567397
C128	C	-0.660886	0.005636	0.541620
C129	C	-0.588819	0.023968	0.578330
C130	C	-0.545498	-0.040872	0.640816
C131	C	-0.574243	-0.124050	0.666596
C132	C	-0.646311	-0.142383	0.629887
H133	H	-0.692955	0.053640	0.495361
H134	H	-0.567539	0.085543	0.559245
H135	H	-0.492149	-0.027301	0.667991
H136	H	-0.542174	-0.172054	0.712855
H137	H	-0.667590	-0.203957	0.648971
H138	H	-0.799834	0.028044	0.441624
C139	C	-0.931130	0.016223	0.566940
C140	C	-0.941293	0.029385	0.672068
C141	C	-0.998013	0.097717	0.708448
C142	C	-1.044570	0.152887	0.639699
C143	C	-1.034408	0.139728	0.534564
C144	C	-0.977689	0.071396	0.498185
H145	H	-0.906828	-0.011458	0.722966
H146	H	-1.005535	0.107458	0.786276
H147	H	-1.086557	0.203471	0.666629
H148	H	-1.068874	0.180570	0.483667
H149	H	-0.970167	0.061654	0.420357
C150	C	-0.966296	0.471714	-0.000213
C151	C	-0.991300	0.532084	0.079500
C152	C	-1.066766	0.577167	0.079536
C153	C	-1.117226	0.561881	-0.000141
C154	C	-1.092222	0.501508	-0.079859
C155	C	-1.016757	0.456425	-0.079895
H156	H	-0.953946	0.543402	0.138486
H157	H	-1.085275	0.621858	0.138549
H158	H	-1.173090	0.595254	-0.000114
H159	H	-1.129577	0.490190	-0.138846
H160	H	-0.998248	0.411734	-0.138908
C161	C	-0.896802	0.338469	-0.163154
C162	C	-0.868586	0.355952	-0.260353
C163	C	-0.906979	0.328898	-0.347222
C164	C	-0.973588	0.284361	-0.336893
C165	C	-1.001808	0.266877	-0.239691
C166	C	-0.963415	0.293931	-0.152821
H167	H	-0.819274	0.388923	-0.268002
H168	H	-0.886088	0.341842	-0.419178
H169	H	-1.002009	0.264335	-0.401199
H170	H	-1.051120	0.233906	-0.232041
H171	H	-0.984306	0.280987	-0.080865
H172	H	-0.733287	-0.222352	0.441784
H173	H	-0.941248	-0.141684	0.441717
C174	C	-0.452849	-0.275258	-0.000265
C175	C	-0.483744	-0.360175	-0.000273
C176	C	-0.434534	-0.443670	-0.000308
C177	C	-0.354429	-0.442247	-0.000336
C178	C	-0.323530	-0.357326	-0.000328
C179	C	-0.372740	-0.273832	-0.000292
H180	H	-0.543046	-0.361231	-0.000252
H181	H	-0.457408	-0.506533	-0.000314
H182	H	-0.318001	-0.504055	-0.000362
H183	H	-0.264228	-0.356270	-0.000348
H184	H	-0.349866	-0.210968	-0.000286
H185	H	-0.495822	0.024194	-0.000240
C186	C	-0.640733	0.043547	-0.000187
C187	C	-0.637553	0.106870	0.079896
C188	C	-0.686760	0.190367	0.079906
C189	C	-0.739147	0.210541	-0.000167
C190	C	-0.742329	0.147216	-0.080256
C191	C	-0.693123	0.063719	-0.080266
H192	H	-0.598771	0.091937	0.139177
H193	H	-0.684404	0.237244	0.139194
H194	H	-0.775573	0.272350	-0.000160
H195	H	-0.781111	0.162149	-0.139537
H196	H	-0.695479	0.016843	-0.139554
