data_functionalizedCrystal
_audit_creation_method	'MofGen! by Chris Wilmer'
_symmetry_space_group_name_H-M	'P1'
_symmetry_Int_Tables_number	1
_symmetry_cell_setting	triclinic
loop_
_symmetry_equiv_pos_as_xyz
  x,y,z
_cell_length_a	12.837932
_cell_length_b	11.892095
_cell_length_c	14.971486
_cell_angle_alpha	86.106350
_cell_angle_beta	89.221916
_cell_angle_gamma	94.311455
loop_
_atom_site_label
_atom_site_type_symbol
_atom_site_fract_x
_atom_site_fract_y
_atom_site_fract_z
O1	O	1.382365	0.094007	0.227405
O2	O	1.080545	0.094009	0.215916
O3	O	1.239544	0.094000	0.092143
O4	O	1.223366	0.094016	0.351178
O5	O	1.226287	-0.094007	0.102445
O6	O	1.067288	-0.093998	0.226218
O7	O	1.369108	-0.093999	0.237708
Zn8	Zn	1.216093	-0.123849	0.233599
Zn9	Zn	1.233560	0.123858	0.220025
O10	O	1.210109	-0.093991	0.361480
C11	C	1.035291	0.000006	0.217186
C12	C	0.920200	0.000006	0.205611
C13	C	0.770236	-0.000002	0.108868
C14	C	0.878376	-0.000001	0.119738
C15	C	0.853875	0.000009	0.280621
C16	C	0.745735	0.000007	0.269751
C17	C	0.703920	0.000004	0.183872
C18	C	0.595779	0.000011	0.173002
C19	C	0.571279	0.000012	0.333885
C20	C	0.679419	0.000013	0.344754
N21	N	1.204180	-0.292902	0.242862
C22	C	1.328377	-0.529557	0.146242
C23	C	1.320058	-0.647898	0.152724
C24	C	1.179217	-0.647929	0.262305
C25	C	1.187537	-0.529587	0.255822
C26	C	1.262120	-0.470406	0.197790
C27	C	1.270444	-0.352062	0.191312
C28	C	1.129599	-0.352094	0.300888
C29	C	1.121280	-0.470436	0.307370
C30	C	1.414362	0.000006	0.236437
C31	C	1.529454	0.000013	0.248012
C32	C	1.232192	-0.000003	0.063908
C33	C	1.230024	-0.000002	-0.035571
N34	N	1.245481	0.292912	0.210755
C35	C	1.323432	-0.000003	-0.084921
C36	C	1.321389	0.000008	-0.178393
C37	C	1.225937	0.000013	-0.222514
C38	C	1.132522	0.000017	-0.173158
C39	C	1.134566	0.000014	-0.079688
C40	C	1.128267	0.000021	-0.367980
C41	C	1.126222	0.000023	-0.461456
C42	C	1.315090	0.000015	-0.466685
C43	C	1.317134	0.000012	-0.373215
C44	C	1.223719	0.000015	-0.323865
C45	C	1.217461	0.000015	0.389715
C46	C	1.219630	0.000021	0.489194
H47	H	0.561736	0.000012	0.103075
H48	H	1.401159	-0.000014	-0.049004
O49	O	1.048694	-0.527881	0.363634
C50	C	0.948086	-0.498965	0.338731
H51	H	0.949776	-0.466430	0.265286
H52	H	0.890598	-0.576804	0.348823
H53	H	0.922528	-0.430283	0.381947
H54	H	0.736191	0.000006	0.038942
O55	O	0.942825	-0.000201	0.046918
C56	C	0.999267	-0.097554	0.053735
H57	H	0.954931	-0.165611	0.099835
H58	H	1.009025	-0.130240	-0.015496
H59	H	1.079485	-0.075536	0.082377
O60	O	1.342781	-0.294646	0.134795
C61	C	1.323765	-0.323630	0.046399
H62	H	1.238467	-0.356164	0.040659
H63	H	1.341108	-0.245826	-0.001761
H64	H	1.376341	-0.392334	0.028820
O65	O	0.719933	0.000170	0.428209
C66	C	0.692946	0.097561	0.469141
H67	H	0.620202	0.130022	0.436597
H68	H	0.676497	0.075672	0.543558
H69	H	0.760316	0.165741	0.460367
O70	O	0.894678	0.000032	0.363972
C71	C	1.004341	-0.000019	0.357479
H72	H	1.032151	0.035595	0.287889
H73	H	1.041479	0.054535	0.410007
H74	H	1.028072	-0.090225	0.369292
O75	O	1.400854	-0.472236	0.089803
C76	C	1.457575	-0.549823	0.045716
H77	H	1.409142	-0.634193	0.045679
H78	H	1.475713	-0.515627	-0.026241
H79	H	1.533736	-0.562389	0.082056
H80	H	0.517272	0.000017	0.394958
O81	O	1.384274	-0.705411	0.102555
C82	C	1.323871	-0.773902	0.046377
H83	H	1.244618	-0.738258	0.035908
H84	H	1.365984	-0.775238	-0.021029
H85	H	1.312167	-0.863590	0.078822
O86	O	1.412218	-0.000051	-0.226192
C87	C	1.496905	-0.000038	-0.167208
H88	H	1.468163	-0.035631	-0.097864
H89	H	1.558505	-0.054628	-0.193056
H90	H	1.532527	0.090154	-0.163007
H91	H	1.118486	-0.696130	0.309547
H92	H	1.075651	-0.303920	0.342865
O93	O	1.409948	0.000053	-0.330498
C94	C	1.491959	0.000024	-0.394094
H95	H	1.465336	0.035622	-0.461906
H96	H	1.562443	0.054602	-0.371900
H97	H	1.514415	-0.090174	-0.399901
O98	O	1.405744	0.000076	-0.514757
C99	C	1.383475	0.000062	-0.606717
H100	H	1.304549	0.035657	-0.619181
H101	H	1.446857	0.054651	-0.646895
H102	H	1.381013	-0.090131	-0.628435
H103	H	1.048495	0.000008	-0.497375
H104	H	1.052198	0.000027	-0.327802
O105	O	1.039874	0.000173	-0.216124
C106	C	1.039898	0.097557	-0.275350
H107	H	1.123871	0.130019	-0.293402
H108	H	0.996951	0.075658	-0.338772
H109	H	0.998892	0.165741	-0.241771
O110	O	1.043730	-0.000035	-0.031880
C111	C	0.959044	-0.000001	-0.090864
H112	H	0.982757	-0.035599	-0.156311
H113	H	0.889737	-0.054578	-0.059037
H114	H	0.936157	0.090197	-0.104941
