data_functionalizedCrystal
_audit_creation_method	'MofGen! by Chris Wilmer'
_symmetry_space_group_name_H-M	'P1'
_symmetry_Int_Tables_number	1
_symmetry_cell_setting	triclinic
loop_
_symmetry_equiv_pos_as_xyz
  x,y,z
_cell_length_a	12.594509
_cell_length_b	17.638785
_cell_length_c	17.640280
_cell_angle_alpha	114.313988
_cell_angle_beta	78.771122
_cell_angle_gamma	101.214999
loop_
_atom_site_label
_atom_site_type_symbol
_atom_site_fract_x
_atom_site_fract_y
_atom_site_fract_z
Zn1	Zn	-0.803698	-1.326467	-0.583253
Zn2	Zn	-0.595788	-1.354258	-0.721069
Zn3	Zn	-0.595853	-1.188638	-0.555377
Zn4	Zn	-0.743880	-1.216481	-0.693115
O5	O	-0.684805	-1.271461	-0.638203
O6	O	-0.801125	-1.445495	-0.624899
O7	O	-0.446836	-1.332266	-0.699123
O8	O	-0.648485	-1.183638	-0.443754
O9	O	-0.648375	-1.465913	-0.726153
O10	O	-0.801188	-1.284900	-0.464234
O11	O	-0.446884	-1.210586	-0.577389
O12	O	-0.590482	-1.076990	-0.550283
O13	O	-0.900776	-1.231093	-0.678509
O14	O	-0.699237	-1.097446	-0.651479
O15	O	-0.944724	-1.311899	-0.597793
O16	O	-0.590372	-1.359265	-0.832682
O17	O	-0.699175	-1.258041	-0.812144
C18	C	-0.638376	-1.057311	-0.594823
C19	C	-0.618535	-0.965701	-0.576285
C20	C	-0.835764	-0.717858	-0.779186
C21	C	-0.817095	-0.631774	-0.761759
C22	C	-0.704095	-0.610407	-0.656220
C23	C	-0.722750	-0.696490	-0.673641
C24	C	-0.788587	-0.750209	-0.735124
C25	C	-0.675573	-0.728842	-0.629579
C26	C	-0.694232	-0.814917	-0.646996
C27	C	-0.760068	-0.868641	-0.708474
C28	C	-0.807246	-0.836285	-0.752541
C29	C	-0.609743	-0.675121	-0.568092
C30	C	-0.562566	-0.707472	-0.524031
C31	C	-0.581218	-0.793550	-0.541451
C32	C	-0.647054	-0.847274	-0.602930
C33	C	-0.534040	-0.825907	-0.497385
C34	C	-0.552699	-0.911982	-0.514801
C35	C	-0.665713	-0.933350	-0.620346
C36	C	-0.962454	-1.271502	-0.638142
C37	C	-1.080771	-1.271519	-0.638116
C38	C	-1.126131	-1.227580	-0.681990
C39	C	-1.208848	-1.306860	-0.717356
C40	C	-1.208877	-1.192287	-0.602712
C41	C	-1.161929	-1.350846	-0.673530
C42	C	-1.161949	-1.236216	-0.558841
C43	C	-1.244650	-1.315542	-0.594189
C44	C	-0.408260	-1.271456	-0.638214
C45	C	-0.290028	-1.271551	-0.638041
C46	C	-0.638304	-1.314712	-0.852319
C47	C	-0.618462	-1.333291	-0.943934
C48	C	-0.731415	-0.486446	-0.681747
C49	C	-0.751276	-0.578056	-0.700287
C50	C	-0.835999	-1.130660	-1.191870
C51	C	-0.817322	-1.148119	-1.277956
C52	C	-0.704177	-1.253589	-1.299290
C53	C	-0.722850	-1.236141	-1.213205
C54	C	-0.788761	-1.174676	-1.159501
C55	C	-0.675611	-1.280157	-1.180835
C56	C	-0.694278	-1.262708	-1.094757
C57	C	-0.760183	-1.201243	-1.041047
C58	C	-0.807427	-1.157226	-1.073422
C59	C	-0.609695	-1.341619	-1.234540
C60	C	-0.562456	-1.385634	-1.202170
C61	C	-0.581129	-1.368189	-1.116091
C62	C	-0.647034	-1.306725	-1.062382
C63	C	-0.533884	-1.412206	-1.083716
C64	C	-0.552551	-1.394757	-0.997637
C65	C	-0.665700	-1.289275	-0.976303
C66	C	-0.731516	-1.228063	-0.423257
C67	C	-0.751421	-1.209570	-0.331659
H68	H	-0.889369	-0.761600	-0.829256
O69	O	-1.137010	-1.200636	-0.478874
C70	C	-1.171182	-1.205843	-0.341754
C71	C	-1.199552	-1.246222	-0.432285
H72	H	-1.221715	-1.242692	-0.304066
H73	H	-1.190066	-1.138253	-0.311618
H74	H	-1.080689	-1.206723	-0.342576
H75	H	-1.290038	-1.245403	-0.431539
H76	H	-1.180590	-1.313791	-0.462385
O77	O	-1.233930	-1.112329	-0.566883
C78	C	-1.237025	-0.984136	-0.443353
C79	C	-1.208636	-1.074679	-0.483811
H80	H	-1.216565	-0.953664	-0.376190
H81	H	-1.327832	-0.984910	-0.443037
H82	H	-1.187622	-0.946784	-0.480912
H83	H	-1.257966	-1.112084	-0.446286
H84	H	-1.117811	-1.073843	-0.484140
H85	H	-0.514083	-1.430598	-0.971283
H86	H	-0.719381	-1.239230	-0.932576
O87	O	-0.498623	-0.655399	-0.464259
C88	C	-0.388432	-0.643301	-0.361455
C89	C	-0.460850	-0.702361	-0.429109
H90	H	-0.357854	-0.681248	-0.333029
H91	H	-0.437966	-0.594325	-0.310201
H92	H	-0.315797	-0.610606	-0.391095
H93	H	-0.533495	-0.735114	-0.399544
H94	H	-0.411239	-0.751285	-0.480354
H95	H	-0.855809	-1.112281	-1.304309
O96	O	-0.900041	-1.071006	-1.139584
C97	C	-0.978886	-0.997349	-0.997509
C98	C	-0.906364	-1.064937	-1.056630
H99	H	-0.984003	-0.992409	-0.930426
H100	H	-1.064236	-1.015198	-1.017246
H101	H	-0.942042	-0.934356	-1.001084
H102	H	-0.943111	-1.127955	-1.053084
H103	H	-0.821022	-1.047017	-1.036875
H104	H	-0.514291	-0.938322	-0.478916
H105	H	-0.855522	-0.605438	-0.797641
H106	H	-0.775372	-1.187031	-0.970955
O107	O	-0.871360	-0.888422	-0.812173
C108	C	-1.049302	-0.922910	-0.857717
C109	C	-0.976825	-0.863815	-0.790119
H110	H	-1.134580	-0.903026	-0.839920
H111	H	-1.054626	-0.989994	-0.862589
H112	H	-1.012323	-0.919425	-0.920727
H113	H	-1.013748	-0.867227	-0.727074
H114	H	-0.971502	-0.796757	-0.785321
H115	H	-0.719317	-0.977092	-0.670416
O116	O	-0.640206	-1.313283	-1.351581
C117	C	-0.561209	-1.386852	-1.493632
C118	C	-0.633708	-1.319246	-1.434514
H119	H	-0.555913	-1.391683	-1.560694
H120	H	-0.598041	-1.449900	-1.490182
H121	H	-0.475929	-1.368981	-1.473770
H122	H	-0.719002	-1.337038	-1.454336
H123	H	-0.596788	-1.256217	-1.437972
O124	O	-1.233814	-1.342619	-0.797323
C125	C	-1.237029	-1.466142	-0.925515
C126	C	-1.208683	-1.425749	-0.834976
H127	H	-1.216744	-1.533364	-0.955978
H128	H	-1.187588	-1.428660	-0.962934
H129	H	-1.327824	-1.466318	-0.924637
H130	H	-1.117910	-1.425566	-0.835775
H131	H	-1.258199	-1.463243	-0.797595
H132	H	-0.480211	-1.462245	-1.127453
H133	H	-0.775265	-0.938728	-0.722650
H134	H	-0.594502	-1.355826	-1.304631
O135	O	-0.640007	-0.558318	-0.596558
C136	C	-0.462020	-0.523778	-0.551078
C137	C	-0.534489	-0.582839	-0.618695
H138	H	-0.376687	-0.543570	-0.568961
H139	H	-0.498859	-0.527291	-0.488057
H140	H	-0.456850	-0.456701	-0.546185
H141	H	-0.539687	-0.649941	-0.623664
H142	H	-0.497621	-0.579253	-0.681682
O143	O	-1.065023	-1.183426	-0.726473
C144	C	-1.019346	-1.170778	-0.860275
C145	C	-1.088595	-1.220864	-0.809999
H146	H	-1.038395	-1.201017	-0.927810
H147	H	-0.929030	-1.170690	-0.859465
H148	H	-1.039401	-1.103502	-0.830744
H149	H	-1.068635	-1.288162	-0.839493
H150	H	-1.178891	-1.220883	-0.810807
H151	H	-0.861108	-1.107181	-1.029695
O152	O	-1.136816	-1.430787	-0.709323
C153	C	-0.996440	-1.520457	-0.749473
C154	C	-1.024730	-1.429886	-0.708934
H155	H	-0.905824	-1.519759	-0.749156
H156	H	-1.016040	-1.550654	-0.816867
H157	H	-1.046544	-1.558017	-0.712351
H158	H	-0.974643	-1.392257	-0.745988
H159	H	-1.005158	-1.399754	-0.641534
O160	O	-0.498485	-1.445329	-1.254461
C161	C	-0.419488	-1.518898	-1.396513
C162	C	-0.491987	-1.451291	-1.337394
H163	H	-0.414192	-1.523728	-1.463574
H164	H	-0.456319	-1.581945	-1.393062
H165	H	-0.334208	-1.501027	-1.376650
H166	H	-0.577281	-1.469083	-1.357216
H167	H	-0.455067	-1.388262	-1.340853
H168	H	-0.480445	-0.782155	-0.447320
H169	H	-0.594560	-0.605032	-0.553909
H170	H	-1.295726	-1.352768	-0.557066
