data_functionalizedCrystal
_audit_creation_method	'MofGen! by Chris Wilmer'
_symmetry_space_group_name_H-M	'P1'
_symmetry_Int_Tables_number	1
_symmetry_cell_setting	triclinic
loop_
_symmetry_equiv_pos_as_xyz
  x,y,z
_cell_length_a	19.288864
_cell_length_b	15.995292
_cell_length_c	14.472311
_cell_angle_alpha	89.994868
_cell_angle_beta	89.981079
_cell_angle_gamma	83.302432
loop_
_atom_site_label
_atom_site_type_symbol
_atom_site_fract_x
_atom_site_fract_y
_atom_site_fract_z
O1	O	0.921602	0.104457	-0.077131
O2	O	0.719375	0.118548	-0.077067
O3	O	0.826037	-0.010409	-0.077102
O4	O	0.814939	0.233415	-0.077096
O5	O	0.826028	-0.010422	0.076580
O6	O	0.719365	0.118536	0.076615
O7	O	0.921592	0.104445	0.076551
Cu8	Cu	0.820478	0.111489	0.090615
Cu9	Cu	0.820489	0.111504	-0.091131
O10	O	0.814930	0.233402	0.076586
C11	C	0.693493	0.118089	-0.000218
C12	C	0.616386	0.116728	-0.000194
C13	C	0.825581	-0.041609	-0.000263
C14	C	0.824227	-0.134557	-0.000270
C15	C	0.571873	0.192394	-0.000206
C16	C	0.499423	0.191115	-0.000216
C17	C	0.471489	0.114166	-0.000233
C18	C	0.516011	0.038490	-0.000215
C19	C	0.588460	0.039771	-0.000195
C20	C	0.363083	0.053680	-0.054107
C21	C	0.290636	0.052402	-0.054132
C22	C	0.248034	0.110212	-0.000289
C23	C	0.277886	0.169314	0.053568
C24	C	0.350335	0.170595	0.053588
C25	C	0.392931	0.112769	-0.000253
C26	C	0.124961	0.184497	-0.000311
C27	C	0.052510	0.183216	-0.000316
C28	C	0.069101	0.030588	-0.000323
C29	C	0.141550	0.031872	-0.000309
C30	C	0.169476	0.108829	-0.000308
C31	C	0.819248	-0.472277	-0.000260
C32	C	0.896234	-0.449255	0.000059
C33	C	0.897698	-0.352585	-0.000291
C34	C	0.821719	-0.304730	-0.000264
C35	C	0.783235	-0.333679	-0.088009
C36	C	0.782308	-0.430466	-0.088079
C37	C	0.780725	-0.430331	0.086687
C38	C	0.783578	-0.333850	0.087842
C39	C	0.823111	-0.210039	-0.000270
C40	C	0.817854	-0.566967	-0.000260
C41	C	0.947474	0.104905	-0.000300
C42	C	1.024581	0.106266	-0.000330
C43	C	0.815386	0.264602	-0.000255
C44	C	0.816740	0.357550	-0.000254
N45	N	0.820475	0.111478	0.218446
C46	C	0.820483	0.111488	0.406947
C47	C	0.877569	0.042509	0.446129
C48	C	0.877776	0.042691	0.553217
C49	C	0.820490	0.111497	0.592538
C50	C	0.836004	0.198914	0.553640
C51	C	0.836410	0.198504	0.446519
C52	C	0.747711	0.093839	0.446460
C53	C	0.748204	0.091857	0.553589
C54	C	0.820493	0.111508	0.697426
C55	C	0.820481	0.111484	0.302058
N56	N	0.820498	0.111508	0.781038
H57	H	0.594605	0.255058	-0.000207
C58	C	0.704173	-0.448956	0.087522
N59	N	0.646518	-0.462994	0.088147
H60	H	0.811600	-0.315395	0.152756
H61	H	0.927837	-0.333678	0.062606
C62	C	0.450449	0.274357	-0.000241
N63	N	0.413565	0.337055	-0.000264
H64	H	0.046358	-0.032066	-0.000394
C65	C	0.383171	0.235598	0.112839
N66	N	0.407903	0.284556	0.157472
C67	C	0.865346	-0.045088	0.588750
N68	N	0.855982	-0.111207	0.615508
H69	H	0.888460	0.214838	0.580446
H70	H	0.703757	0.138841	0.580353
C71	C	0.231029	0.232909	0.112804
N72	N	0.195733	0.280806	0.157419
H73	H	0.796282	0.251256	0.420598
H74	H	0.925904	-0.477369	0.062984
C75	C	0.936106	-0.488596	-0.084500
N76	N	0.966136	-0.518229	-0.148191
H77	H	0.147699	0.247160	-0.000296
H78	H	0.624703	-0.021848	-0.000186
C79	C	0.003545	0.266459	-0.000316
N80	N	-0.033337	0.329160	-0.000314
C81	C	0.781313	0.269938	0.588050
N82	N	0.740119	0.323433	0.613970
C83	C	0.707704	-0.290336	-0.092399
N84	N	0.650815	-0.257687	-0.095704
C85	C	0.938663	-0.327864	-0.085442
N86	N	0.969518	-0.309246	-0.149582
C87	C	0.257806	-0.012616	-0.113369
N88	N	0.233080	-0.061592	-0.157984
H89	H	0.804965	-0.458517	0.153199
H90	H	0.177794	-0.029744	-0.000304
H91	H	0.397765	0.006602	-0.097958
C92	C	0.950126	0.057547	0.409755
N93	N	1.004776	0.068881	0.382364
C94	C	0.485283	-0.046155	-0.000234
N95	N	0.462138	-0.109912	-0.000245
C96	C	0.818335	-0.466826	-0.176708
N97	N	0.845476	-0.494209	-0.243463
C98	C	0.727469	0.009553	0.409987
N99	N	0.712230	-0.053935	0.382515
C100	C	0.708655	-0.289031	0.095028
N101	N	0.652219	-0.255275	0.100433
H102	H	0.931786	0.053976	0.578821
H103	H	0.809967	-0.313714	-0.153328
H104	H	0.868540	-0.022685	0.420361
C105	C	0.908097	0.219494	0.412731
N106	N	0.962094	0.235301	0.387287
C107	C	0.706054	-0.449837	-0.093451
N108	N	0.648620	-0.464424	-0.097506
H109	H	0.736424	0.027550	0.579013
H110	H	0.705233	0.144142	0.421122
