data_functionalizedCrystal
_audit_creation_method	'MofGen! by Chris Wilmer'
_symmetry_space_group_name_H-M	'P1'
_symmetry_Int_Tables_number	1
_symmetry_cell_setting	triclinic
loop_
_symmetry_equiv_pos_as_xyz
  x,y,z
_cell_length_a	10.654550
_cell_length_b	12.996460
_cell_length_c	10.654550
_cell_angle_alpha	89.999886
_cell_angle_beta	95.515069
_cell_angle_gamma	90.003002
loop_
_atom_site_label
_atom_site_type_symbol
_atom_site_fract_x
_atom_site_fract_y
_atom_site_fract_z
O1	O	1.667845	0.085490	-0.176391
O2	O	1.302367	0.085509	-0.193197
O3	O	1.493509	0.085492	-0.002054
O4	O	1.476703	0.085506	-0.367533
O5	O	1.493484	-0.085642	-0.002065
O6	O	1.302342	-0.085625	-0.193208
O7	O	1.667820	-0.085644	-0.176401
Cu8	Cu	1.485079	-0.101260	-0.184806
Cu9	Cu	1.485108	0.101125	-0.184793
O10	O	1.476678	-0.085628	-0.367544
C11	C	1.255556	-0.000056	-0.191968
C12	C	1.116113	-0.000049	-0.188276
N13	N	1.485068	-0.243608	-0.184814
C14	C	1.036628	-0.000048	-0.300818
C15	C	0.905607	-0.000066	-0.297341
C16	C	0.933570	-0.000082	-0.068772
C17	C	1.064588	-0.000071	-0.072250
C18	C	1.485073	-0.336714	-0.184817
C19	C	1.485085	-0.453519	-0.184809
C20	C	1.485100	-0.546617	-0.184795
C21	C	1.485114	-0.663430	-0.184788
C22	C	1.714631	-0.000077	-0.177630
C23	C	1.854074	-0.000078	-0.181322
C24	C	1.492263	-0.000074	0.044738
C25	C	1.488571	-0.000072	0.184181
N26	N	1.485130	0.243472	-0.184774
C27	C	1.477925	-0.000059	-0.414336
C28	C	1.481616	-0.000054	-0.553779
C29	C	1.601112	-0.000078	0.263667
C30	C	1.597636	-0.000065	0.394688
C31	C	1.369066	-0.000046	0.366725
C32	C	1.372544	-0.000051	0.235706
H33	H	0.840894	-0.000067	-0.388984
N34	N	0.877979	-0.000094	0.056358
H35	H	0.906891	0.063344	0.105722
H36	H	0.906904	-0.063577	0.105611
N37	N	1.150331	-0.000085	0.049140
H38	H	1.097812	-0.000095	0.123170
H39	H	1.205304	0.063358	0.052685
N40	N	1.726249	-0.000092	0.208090
H41	H	1.732776	-0.063537	0.154363
H42	H	1.796939	-0.000054	0.278401
H43	H	1.689279	-0.000067	0.459401
H44	H	1.274601	-0.000030	0.408693
H45	H	1.078574	-0.000037	-0.395294
H46	H	1.280893	-0.000044	0.170985
