data_functionalizedCrystal
_audit_creation_method	'MofGen! by Chris Wilmer'
_symmetry_space_group_name_H-M	'P1'
_symmetry_Int_Tables_number	1
_symmetry_cell_setting	triclinic
loop_
_symmetry_equiv_pos_as_xyz
  x,y,z
_cell_length_a	18.050591
_cell_length_b	19.121063
_cell_length_c	19.121175
_cell_angle_alpha	94.951770
_cell_angle_beta	87.536935
_cell_angle_gamma	92.465257
loop_
_atom_site_label
_atom_site_type_symbol
_atom_site_fract_x
_atom_site_fract_y
_atom_site_fract_z
Zn1	Zn	1.140383	-0.297186	-0.409891
Zn2	Zn	1.130131	-0.409834	-0.297240
Zn3	Zn	1.011119	-0.292179	-0.292230
Zn4	Zn	1.011069	-0.414804	-0.414849
O5	O	1.073176	-0.353501	-0.353553
O6	O	1.242948	-0.312144	-0.394970
O7	O	1.110074	-0.390051	-0.198113
O8	O	1.032578	-0.194381	-0.303666
O9	O	1.235415	-0.394906	-0.312205
O10	O	1.127548	-0.198060	-0.390112
O11	O	1.022637	-0.303611	-0.194433
O12	O	0.907188	-0.308430	-0.308474
O13	O	1.032493	-0.403378	-0.512653
O14	O	0.907151	-0.398522	-0.398562
O15	O	1.127499	-0.316964	-0.509011
O16	O	1.110025	-0.508955	-0.317013
O17	O	1.022551	-0.512607	-0.403420
C18	C	0.880223	-0.353473	-0.353513
C19	C	0.797677	-0.353479	-0.353513
C20	C	0.598232	-0.304437	-0.304629
C21	C	0.545293	-0.367876	-0.290047
C22	C	0.646547	-0.353501	-0.353546
C23	C	0.552403	-0.290085	-0.368127
C24	C	0.500562	-0.353518	-0.353576
C25	C	0.594692	-0.416973	-0.338931
C26	C	0.601810	-0.339140	-0.417039
C27	C	0.548893	-0.402624	-0.402484
C28	C	0.730645	-0.353491	-0.353526
C29	C	0.416466	-0.353535	-0.353595
C30	C	1.065191	-0.536312	-0.361313
C31	C	1.061844	-0.614521	-0.364657
C32	C	1.105853	-0.649340	-0.321278
C33	C	1.102710	-0.722826	-0.324426
C34	C	1.055554	-0.761490	-0.370952
C35	C	1.011543	-0.726666	-0.414336
C36	C	1.014690	-0.653182	-0.411190
C37	C	1.043773	-0.983461	-0.382702
C38	C	1.040628	-1.056950	-0.385843
C39	C	1.131796	-1.053105	-0.295934
C40	C	1.134936	-0.979619	-0.292789
C41	C	1.090929	-0.944801	-0.336176
C42	C	1.052338	-0.836604	-0.374170
C43	C	1.094149	-0.869689	-0.332961
C44	C	1.266882	-0.353529	-0.353593
C45	C	1.349428	-0.353542	-0.353610
C46	C	1.081134	-0.361284	-0.537076
C47	C	1.084525	-0.364600	-0.615283
C48	C	1.081212	-0.169976	-0.345777
C49	C	1.084637	-0.091769	-0.342463
C50	C	1.040597	-0.321155	-0.650108
C51	C	1.043781	-0.324277	-0.723591
C52	C	1.090897	-0.370842	-0.762249
C53	C	1.134827	-0.414292	-0.727419
C54	C	1.131639	-0.411173	-0.653937
C55	C	1.102796	-0.382514	-0.984214
C56	C	1.105982	-0.385628	-1.057701
C57	C	1.014935	-0.295614	-1.053868
C58	C	1.011754	-0.292496	-0.980385
C59	C	1.055681	-0.335949	-0.945562
C60	C	1.094154	-0.374033	-0.837361
C61	C	1.052420	-0.332761	-0.870451
C62	C	1.065293	-0.345697	-0.170741
C63	C	1.062054	-0.342183	-0.092526
H64	H	0.520585	-0.380035	-0.236364
N65	N	0.528964	-0.222793	-0.383583
N66	N	0.576069	-0.174597	-0.394089
H67	H	0.559518	-0.127070	-0.404999
N68	N	1.147670	-0.758376	-0.280106
N69	N	1.140336	-0.747445	-0.214826
H70	H	1.172094	-0.772550	-0.183523
H71	H	1.014056	-0.294850	-0.838973
N72	N	0.998817	-0.947912	-0.427023
N73	N	0.956716	-0.982445	-0.468558
H74	H	0.924962	-0.957337	-0.499862
N75	N	0.970073	-0.251234	-1.089451
N76	N	0.972924	-0.254021	-1.155060
H77	H	0.941238	-0.222678	-1.180191
N78	N	0.632848	-0.323856	-0.484354
N79	N	0.701655	-0.321923	-0.495242
H80	H	0.723579	-0.311121	-0.542783
H81	H	0.527365	-0.444169	-0.443866
H82	H	1.132515	-0.411947	-0.868844
N83	N	0.992479	-0.273588	-0.610610
N84	N	1.018795	-0.227016	-0.567713
H85	H	0.984811	-0.193422	-0.539818
H86	H	1.173335	-0.948140	-0.254905
H87	H	1.002237	-1.088429	-0.423742
N88	N	0.625398	-0.252439	-0.252679
N89	N	0.606487	-0.256114	-0.189404
H90	H	0.625673	-0.219393	-0.152713
H91	H	0.978855	-0.624833	-0.446515
N92	N	0.998899	-0.279897	-0.759153
N93	N	0.956835	-0.238323	-0.724629
H94	H	0.925134	-0.206979	-0.749743
H95	H	0.613293	-0.470624	-0.326551
H96	H	0.973150	-0.758152	-0.452221
H97	H	1.144250	-0.617864	-0.283389
H98	H	1.144353	-0.423548	-1.089175
H99	H	0.973385	-0.254579	-0.948915
N100	N	1.004152	-0.876089	-0.421685
N101	N	0.964851	-0.844996	-0.460409
H102	H	0.930819	-0.872883	-0.493967
N103	N	1.142313	-0.830208	-0.285428
N104	N	1.181602	-0.861301	-0.246691
H105	H	1.215616	-0.833413	-0.213117
N106	N	1.176741	-1.088682	-0.251622
N107	N	1.173926	-1.154292	-0.254434
H108	H	1.205670	-1.179419	-0.223138
N109	N	1.147669	-0.426905	-0.948660
N110	N	1.189734	-0.468475	-0.983187
H111	H	1.221428	-0.499829	-0.958076
H112	H	1.173186	-0.452210	-0.758900
H113	H	1.167416	-0.446546	-0.625584
