data_functionalizedCrystal
_audit_creation_method	'MofGen! by Chris Wilmer'
_symmetry_space_group_name_H-M	'P1'
_symmetry_Int_Tables_number	1
_symmetry_cell_setting	triclinic
loop_
_symmetry_equiv_pos_as_xyz
  x,y,z
_cell_length_a	15.995350
_cell_length_b	10.654550
_cell_length_c	9.730223
_cell_angle_alpha	90.006075
_cell_angle_beta	90.000637
_cell_angle_gamma	83.988653
loop_
_atom_site_label
_atom_site_type_symbol
_atom_site_fract_x
_atom_site_fract_y
_atom_site_fract_z
O1	O	-1.111925	-0.161876	-0.114173
O2	O	-0.611925	0.338124	0.385827
O3	O	-0.868266	-0.181865	-0.114201
O4	O	-0.368266	0.318135	0.385799
O5	O	-0.995698	0.010942	-0.114178
O6	O	-0.495698	0.510942	0.385822
O7	O	-0.984493	-0.354683	-0.114196
O8	O	-0.484493	0.145317	0.385804
O9	O	-0.995687	0.010954	0.114402
O10	O	-0.495687	0.510954	0.614402
O11	O	-0.868256	-0.181853	0.114379
O12	O	-0.368256	0.318147	0.614379
O13	O	-1.111915	-0.161864	0.114407
O14	O	-0.611915	0.338136	0.614407
Zn15	Zn	-0.990084	-0.171857	0.150685
Zn16	Zn	-0.490084	0.328143	0.650685
Zn17	Zn	-0.990097	-0.171872	-0.150479
Zn18	Zn	-0.490097	0.328128	0.349521
O19	O	-0.984483	-0.354671	0.114384
O20	O	-0.484483	0.145329	0.614384
C21	C	-0.837061	-0.181033	0.000085
C22	C	-0.337061	0.318967	0.500085
C23	C	-0.744096	-0.178555	0.000075
C24	C	-0.244096	0.321445	0.500075
C25	C	-0.994870	0.057735	0.000111
C26	C	-0.494870	0.557735	0.500111
C27	C	-0.992409	0.197146	0.000109
C28	C	-0.492409	0.697146	0.500109
C29	C	-1.143119	-0.162696	0.000118
C30	C	-0.643119	0.337304	0.500118
C31	C	-1.236084	-0.165174	0.000119
C32	C	-0.736084	0.334826	0.500119
C33	C	-0.406297	-0.169658	0.000104
C34	C	0.093703	0.330342	0.500104
C35	C	-0.452934	-0.032344	0.000621
C36	C	0.047066	0.467656	0.500621
C37	C	-0.549639	-0.034822	0.000096
C38	C	-0.049639	0.465178	0.500096
C39	C	-0.573883	-0.174071	0.000090
C40	C	-0.073883	0.325929	0.500090
C41	C	-0.533195	-0.241806	-0.130438
C42	C	-0.033195	0.258194	0.369562
C43	C	-0.436540	-0.238356	-0.130538
C44	C	0.063460	0.261644	0.369462
C45	C	-0.436206	-0.241180	0.129400
C46	C	0.063794	0.258820	0.629400
C47	C	-0.533151	-0.241147	0.131116
C48	C	-0.033151	0.258853	0.631116
C49	C	-0.668595	-0.176573	0.000078
C50	C	-0.168595	0.323427	0.500078
C51	C	-0.311585	-0.167161	0.000107
C52	C	0.188415	0.332839	0.500107
C53	C	-0.985311	-0.401464	0.000091
C54	C	-0.485311	0.098536	0.500091
C55	C	-0.987772	-0.540875	0.000085
C56	C	-0.487772	-0.040875	0.500085
N57	N	-0.990081	-0.171846	0.356221
N58	N	-0.490081	0.328154	0.856221
C59	C	-1.067438	0.277612	0.000117
C60	C	-0.567438	0.777612	0.500117
C61	C	-1.065121	0.408602	0.000100
C62	C	-0.565121	0.908602	0.500100
C63	C	-0.912737	0.378649	0.000072
C64	C	-0.412737	0.878649	0.500072
C65	C	-0.915055	0.247661	0.000080
C66	C	-0.415055	0.747661	0.500080
N67	N	-0.990107	-0.171873	-0.356015
N68	N	-0.490107	0.328127	0.143985
C69	C	-0.938881	-0.095655	0.572082
C70	C	-0.438881	0.404345	1.072082
C71	C	-0.938870	-0.095638	0.428199
C72	C	-0.438870	0.404362	0.928199
C73	C	-1.041312	-0.248067	0.428134
C74	C	-0.541312	0.251933	0.928134
C75	C	-1.041327	-0.248077	0.572014
C76	C	-0.541327	0.251923	1.072014
H77	H	-0.577754	0.018420	0.093664
H78	H	-0.077754	0.518420	0.593664
F79	F	-0.830416	0.432421	0.000041
F80	F	-0.330416	0.932421	0.500041
H81	H	-1.130424	0.236488	0.000138
H82	H	-0.630424	0.736488	0.500138
F83	F	-0.884345	-0.014521	0.351681
F84	F	-0.384345	0.485479	0.851681
H85	H	-0.434089	0.022548	0.094228
H86	H	0.065911	0.522548	0.594228
F87	F	-1.095819	-0.329167	0.351526
F88	F	-0.595819	0.170833	0.851526
H89	H	-0.433027	0.022286	-0.092465
H90	H	0.066973	0.522286	0.407535
H91	H	-1.126218	0.474113	0.000104
H92	H	-0.626218	0.974113	0.500104
H93	H	-0.853953	0.182141	0.000069
H94	H	-0.353953	0.682141	0.500069
F95	F	-0.412238	-0.173806	-0.258066
F96	F	0.087762	0.326194	0.241934
H97	H	-0.897174	-0.033604	0.630676
H98	H	-0.397174	0.466396	1.130676
H99	H	-0.577189	0.018770	-0.093630
H100	H	-0.077189	0.518770	0.406370
F101	F	-0.395152	-0.370124	-0.138287
F102	F	0.104848	0.129876	0.361713
H103	H	-0.547915	-0.344109	-0.135296
H104	H	-0.047915	0.155891	0.364704
H105	H	-0.561301	-0.194770	-0.227576
H106	H	-0.061301	0.305230	0.272424
H107	H	-0.415405	-0.196284	0.228337
H108	H	0.084595	0.303716	0.728337
F109	F	-0.568391	-0.176417	0.257332
F110	F	-0.068391	0.323583	0.757332
H111	H	-0.549105	-0.342692	0.138996
H112	H	-0.049105	0.157308	0.638996
F113	F	-0.395461	-0.373508	0.130550
F114	F	0.104539	0.126492	0.630550
H115	H	-1.083046	-0.310144	0.630559
H116	H	-0.583046	0.189856	1.130559
