data_functionalizedCrystal
_audit_creation_method	'MofGen! by Chris Wilmer'
_symmetry_space_group_name_H-M	'P1'
_symmetry_Int_Tables_number	1
_symmetry_cell_setting	triclinic
loop_
_symmetry_equiv_pos_as_xyz
  x,y,z
_cell_length_a	21.295420
_cell_length_b	21.295417
_cell_length_c	12.827885
_cell_angle_alpha	90.038100
_cell_angle_beta	90.021408
_cell_angle_gamma	90.028757
loop_
_atom_site_label
_atom_site_type_symbol
_atom_site_fract_x
_atom_site_fract_y
_atom_site_fract_z
Zn1	Zn	0.962335	-0.250608	0.590848
Zn2	Zn	0.962243	-0.355890	0.416083
Zn3	Zn	0.857064	-0.250636	0.416115
Zn4	Zn	0.857028	-0.355840	0.590776
O5	O	0.909668	-0.303244	0.503455
O6	O	1.050412	-0.264583	0.567681
O7	O	0.948268	-0.341960	0.269851
O8	O	0.871082	-0.162543	0.439337
O9	O	1.050345	-0.341934	0.439282
O10	O	0.948424	-0.162522	0.567713
O11	O	0.870993	-0.264630	0.269875
O12	O	0.768970	-0.264582	0.439268
O13	O	0.871020	-0.341848	0.737022
O14	O	0.768943	-0.341875	0.567591
O15	O	0.948389	-0.264535	0.737074
O16	O	0.948233	-0.443973	0.439213
O17	O	0.870931	-0.443936	0.567559
C18	C	0.746116	-0.303226	0.503425
C19	C	0.676148	-0.303234	0.503437
C20	C	0.176692	-0.343564	0.570208
C21	C	0.242435	-0.343564	0.570197
C22	C	0.275308	-0.303258	0.503488
C23	C	0.242434	-0.262959	0.436766
C24	C	0.176693	-0.262965	0.436772
N25	N	0.378549	-0.248142	0.495632
N26	N	0.441001	-0.248138	0.495633
C27	C	0.473383	-0.303240	0.503466
N28	N	0.440955	-0.358346	0.511319
N29	N	0.378497	-0.358349	0.511324
C30	C	0.346594	-0.303248	0.503474
C31	C	0.577535	-0.343539	0.570167
C32	C	0.643279	-0.343541	0.570148
C33	C	0.643277	-0.262930	0.436723
C34	C	0.577534	-0.262934	0.436736
C35	C	0.544667	-0.303238	0.503463
C36	C	0.909585	-0.466795	0.503398
C37	C	0.909607	-0.536763	0.503408
C38	C	0.949894	-0.569628	0.436646
C39	C	0.949924	-0.635371	0.436670
C40	C	0.909655	-0.668246	0.503444
C41	C	0.869366	-0.635373	0.570218
C42	C	0.869342	-0.569632	0.570200
N43	N	0.854588	-0.771509	0.511400
N44	N	0.854612	-0.833961	0.511411
C45	C	0.909726	-0.866320	0.503504
N46	N	0.964815	-0.833869	0.495564
N47	N	0.964790	-0.771412	0.495548
C48	C	0.909677	-0.739531	0.503471
C49	C	0.950048	-0.970471	0.436764
C50	C	0.950078	-1.036214	0.436795
C51	C	0.869515	-1.036216	0.570338
C52	C	0.869490	-0.970473	0.570313
C53	C	0.909755	-0.937605	0.503520
C54	C	1.073858	-0.303261	0.503486
C55	C	1.143826	-0.303269	0.503499
C56	C	0.909710	-0.303183	0.776026
C57	C	0.909729	-0.303157	0.892179
C58	C	0.909768	-0.139053	0.503536
C59	C	0.909810	-0.069085	0.503571
C60	C	0.909661	-0.303258	0.231946
C61	C	0.909765	-0.303107	0.115793
C62	C	0.948017	-0.264893	0.943990
C63	C	0.948037	-0.264865	1.064040
H64	H	0.149936	-0.376385	0.624539
O65	O	0.989041	-0.537630	0.371919
C66	C	1.029677	-0.499551	0.431469
H67	H	1.007446	-0.489683	0.510628
H68	H	1.038110	-0.453335	0.388905
H69	H	1.076332	-0.524842	0.443027
O70	O	0.144860	-0.223757	0.371939
C71	C	0.187969	-0.188194	0.313031
H72	H	0.234845	-0.186040	0.355832
H73	H	0.168993	-0.138590	0.302035
H74	H	0.194927	-0.211191	0.233595
H75	H	0.550774	-0.230119	0.382417
H76	H	0.982732	-0.662134	0.382305
O77	O	0.870743	-0.342224	1.062536
C78	C	0.906585	-0.382875	0.999409
H79	H	0.954310	-0.360672	0.983189
H80	H	0.880972	-0.391284	0.922602
H81	H	0.913456	-0.429539	1.041389
O82	O	0.870578	-0.342238	0.945119
C83	C	0.834986	-0.377834	0.873637
H84	H	0.832766	-0.352111	0.795816
H85	H	0.785407	-0.384521	0.905242
H86	H	0.858001	-0.425654	0.862050
O87	O	0.830144	-0.537801	0.635086
C88	C	0.794621	-0.580911	0.694054
H89	H	0.792472	-0.627798	0.651265
H90	H	0.745013	-0.561954	0.705121
H91	H	0.817650	-0.587840	0.773457
H92	H	0.980820	-0.232107	1.108596
O93	O	0.830336	-0.667374	0.635133
C94	C	0.866167	-0.705327	0.702707
H95	H	0.913887	-0.715153	0.665924
H96	H	0.840538	-0.751571	0.716684
H97	H	0.873050	-0.679947	0.780155
O98	O	0.675105	-0.223755	0.371823
C99	C	0.631994	-0.188174	0.312967
H100	H	0.585119	-0.213958	0.309276
H101	H	0.650969	-0.181400	0.230650
H102	H	0.625033	-0.140392	0.351381
H103	H	0.269200	-0.376378	0.624523
H104	H	0.982837	-0.943708	0.382381
O105	O	0.274435	-0.223893	0.371915
C106	C	0.312420	-0.259684	0.304297
H107	H	0.322256	-0.307413	0.341013
H108	H	0.358657	-0.234031	0.290368
H109	H	0.287063	-0.266551	0.226834
H110	H	0.550773	-0.376358	0.624499
O111	O	0.989236	-1.068044	0.371841
C112	C	1.024778	-1.024933	0.312907
H113	H	0.998976	-0.978095	0.309237
H114	H	1.031523	-1.043965	0.230587
H115	H	1.072573	-1.017878	0.351239
O116	O	0.675178	-0.382620	0.635103
C117	C	0.659136	-0.368939	0.739296
H118	H	0.641090	-0.318653	0.744716
H119	H	0.702381	-0.374393	0.790904
H120	H	0.620967	-0.402706	0.766520
O121	O	0.830420	-1.068240	0.635109
C122	C	0.839093	-1.133313	0.620835
H123	H	0.859737	-1.142316	0.540221
H124	H	0.791949	-1.158337	0.627865
H125	H	0.872605	-1.151905	0.682875
O126	O	0.830289	-0.938642	0.635188
C127	C	0.794763	-0.981753	0.694150
H128	H	0.792616	-1.028640	0.651358
H129	H	0.745154	-0.962796	0.705211
H130	H	0.817789	-0.988683	0.773556
O131	O	0.987023	-0.225804	0.890771
C132	C	0.951165	-0.185180	0.827667
H133	H	0.903433	-0.207386	0.811407
H134	H	0.976756	-0.176809	0.750878
H135	H	0.944310	-0.138495	0.869686
