data_functionalizedCrystal
_audit_creation_method	'MofGen! by Chris Wilmer'
_symmetry_space_group_name_H-M	'P1'
_symmetry_Int_Tables_number	1
_symmetry_cell_setting	triclinic
loop_
_symmetry_equiv_pos_as_xyz
  x,y,z
_cell_length_a	14.044191
_cell_length_b	12.503552
_cell_length_c	14.044190
_cell_angle_alpha	93.836179
_cell_angle_beta	86.808223
_cell_angle_gamma	93.842477
loop_
_atom_site_label
_atom_site_type_symbol
_atom_site_fract_x
_atom_site_fract_y
_atom_site_fract_z
O1	O	1.282222	0.089291	-0.225150
O2	O	1.782222	0.589291	0.274850
O3	O	1.005550	0.089303	-0.216836
O4	O	1.505550	0.589303	0.283164
O5	O	1.139728	0.089276	-0.082658
O6	O	1.639728	0.589276	0.417342
O7	O	1.148043	0.089318	-0.359328
O8	O	1.648043	0.589318	0.140672
O9	O	1.129625	-0.089364	-0.092758
O10	O	1.629625	0.410636	0.407242
O11	O	0.995447	-0.089337	-0.226936
O12	O	1.495447	0.410663	0.273064
O13	O	1.272119	-0.089350	-0.235249
O14	O	1.772119	0.410650	0.264751
Cu15	Cu	1.132860	-0.105655	-0.232015
Cu16	Cu	1.632860	0.394345	0.267985
Cu17	Cu	1.144808	0.105608	-0.220071
Cu18	Cu	1.644808	0.605608	0.279929
O19	O	1.137940	-0.089323	-0.369428
O20	O	1.637940	0.410677	0.130572
C21	C	0.964876	-0.000016	-0.218249
C22	C	1.464876	0.499984	0.281751
C23	C	0.858733	-0.000012	-0.207402
C24	C	1.358733	0.499988	0.292598
C25	C	0.613276	-0.000014	-0.264503
C26	C	1.113276	0.499986	0.235497
C27	C	0.664399	-0.000023	-0.187587
C28	C	1.164399	0.499977	0.312413
C29	C	0.772536	-0.000017	-0.198615
C30	C	1.272536	0.499983	0.301385
C31	C	0.505129	-0.000020	-0.253476
C32	C	1.005129	0.499980	0.246524
N33	N	1.124464	-0.254246	-0.240416
N34	N	1.624464	0.245754	0.259584
C35	C	1.165558	-0.526687	-0.199302
C36	C	1.665558	-0.026687	0.300698
C37	C	1.112120	-0.473352	-0.252774
C38	C	1.612120	0.026648	0.247226
C39	C	1.118990	-0.351430	-0.245896
C40	C	1.618990	0.148570	0.254104
C41	C	1.158689	-0.648621	-0.206179
C42	C	1.658689	-0.148621	0.293821
C43	C	1.312792	-0.000029	-0.233836
C44	C	1.812792	0.499971	0.266164
C45	C	1.418936	-0.000026	-0.244683
C46	C	1.918936	0.499974	0.255317
C47	C	1.131040	-0.000047	-0.052086
C48	C	1.631040	0.499953	0.447914
C49	C	1.120192	-0.000056	0.054057
C50	C	1.620192	0.499944	0.554057
N51	N	1.153212	0.254199	-0.211663
N52	N	1.653212	0.754199	0.288337
C53	C	1.146629	0.000003	-0.400000
C54	C	1.646629	0.500003	0.100000
C55	C	1.157477	0.000019	-0.506142
C56	C	1.657477	0.500019	-0.006142
C57	C	1.177295	-0.000017	0.299516
C58	C	1.677295	0.499983	0.799516
C59	C	1.100378	-0.000021	0.248393
C60	C	1.600378	0.499979	0.748393
C61	C	1.111405	-0.000040	0.140254
C62	C	1.611405	0.499960	0.640254
C63	C	1.166269	0.000003	0.407664
C64	C	1.666269	0.500003	0.907664
H65	H	0.650720	0.000001	-0.338629
H66	H	1.150720	0.500001	0.161371
C67	C	1.277437	-0.000048	0.248930
C68	C	1.777437	0.499952	0.748930
N69	N	1.352863	-0.000080	0.210816
N70	N	1.852863	0.499920	0.710816
C71	C	1.043354	-0.535366	-0.321608
C72	C	1.543354	-0.035366	0.178392
N73	N	0.991566	-0.582079	-0.373457
N74	N	1.491566	-0.082079	0.126543
C75	C	1.234322	-0.464674	-0.130475
C76	C	1.734322	0.035326	0.369525
N77	N	1.286112	-0.417954	-0.078633
N78	N	1.786112	0.082046	0.421367
H79	H	1.026246	-0.000011	0.285838
H80	H	1.526246	0.499989	0.785838
H81	H	0.626957	0.000041	-0.113450
H82	H	1.126957	0.500041	0.386550
