data_functionalizedCrystal
_audit_creation_method	'MofGen! by Chris Wilmer'
_symmetry_space_group_name_H-M	'P1'
_symmetry_Int_Tables_number	1
_symmetry_cell_setting	triclinic
loop_
_symmetry_equiv_pos_as_xyz
  x,y,z
_cell_length_a	12.837943
_cell_length_b	11.892095
_cell_length_c	10.723024
_cell_angle_alpha	93.927454
_cell_angle_beta	90.351595
_cell_angle_gamma	94.310562
loop_
_atom_site_label
_atom_site_type_symbol
_atom_site_fract_x
_atom_site_fract_y
_atom_site_fract_z
O1	O	1.384338	0.093978	-0.317471
O2	O	1.884338	0.593978	0.182529
O3	O	1.082419	0.093985	-0.301433
O4	O	1.582419	0.593985	0.198567
O5	O	1.240342	0.093977	-0.128633
O6	O	1.740342	0.593977	0.371367
O7	O	1.226414	0.093986	-0.490272
O8	O	1.726414	0.593986	0.009728
O9	O	1.227175	-0.094030	-0.143016
O10	O	1.727175	0.405970	0.356984
O11	O	1.069251	-0.094022	-0.315816
O12	O	1.569251	0.405978	0.184184
O13	O	1.371170	-0.094029	-0.331854
O14	O	1.871170	0.405971	0.168146
Zn15	Zn	1.218120	-0.123876	-0.326119
Zn16	Zn	1.718120	0.376124	0.173881
Zn17	Zn	1.235469	0.123831	-0.307168
Zn18	Zn	1.735469	0.623831	0.192832
O19	O	1.213247	-0.094021	-0.504655
O20	O	1.713247	0.405979	-0.004655
C21	C	1.037176	-0.000018	-0.303206
C22	C	1.537176	0.499982	0.196794
C23	C	0.921984	-0.000015	-0.287048
C24	C	1.421984	0.499985	0.212952
N25	N	1.206287	-0.292929	-0.339052
N26	N	1.706287	0.207071	0.160948
C27	C	0.682406	-0.000027	-0.481305
C28	C	1.182406	0.499973	0.018695
C29	C	0.574172	-0.000025	-0.466128
C30	C	1.074172	0.499975	0.033872
C31	C	0.597280	-0.000018	-0.241519
C32	C	1.097280	0.499982	0.258481
C33	C	0.705514	-0.000020	-0.256696
C34	C	1.205514	0.499980	0.243304
C35	C	0.748073	-0.000023	-0.376592
C36	C	1.248073	0.499977	0.123408
C37	C	0.856309	-0.000016	-0.391767
C38	C	1.356309	0.499984	0.108233
C39	C	0.879414	-0.000017	-0.167160
C40	C	1.379414	0.499983	0.332840
C41	C	0.771181	-0.000016	-0.151984
C42	C	1.271181	0.499984	0.348016
C43	C	1.329645	-0.529583	-0.204159
C44	C	1.829645	-0.029583	0.295841
C45	C	1.321382	-0.647925	-0.213209
C46	C	1.821382	-0.147925	0.286791
C47	C	1.181493	-0.647956	-0.366196
C48	C	1.681493	-0.147956	0.133804
C49	C	1.189757	-0.529614	-0.357145
C50	C	1.689757	-0.029614	0.142855
C51	C	1.263836	-0.470432	-0.276126
C52	C	1.763836	0.029568	0.223874
C53	C	1.272103	-0.352089	-0.267083
C54	C	1.772103	0.147911	0.232917
C55	C	1.132211	-0.352122	-0.420062
C56	C	1.632211	0.147878	0.079938
C57	C	1.123947	-0.470463	-0.429112
C58	C	1.623947	0.029537	0.070888
C59	C	1.416413	-0.000024	-0.330081
C60	C	1.916413	0.499976	0.169919
C61	C	1.531605	-0.000019	-0.346239
C62	C	2.031605	0.499981	0.153761
C63	C	1.232745	-0.000025	-0.089214
C64	C	1.732745	0.499975	0.410786
C65	C	1.229712	-0.000021	0.049670
C66	C	1.729712	0.499979	0.549670
N67	N	1.247309	0.292885	-0.294226
N68	N	1.747309	0.792885	0.205774
C69	C	1.220844	-0.000017	-0.544073
C70	C	1.720844	0.499983	-0.044073
C71	C	1.223877	-0.000013	-0.682956
C72	C	1.723877	0.499987	-0.182956
C73	C	1.318078	-0.000022	0.115055
C74	C	1.818078	0.499978	0.615055
C75	C	1.314946	-0.000017	0.258599
C76	C	1.814946	0.499983	0.758599
H77	H	0.717058	-0.000027	-0.578929
H78	H	1.217058	0.499973	-0.078929
H79	H	0.932893	-0.000006	-0.081895
H80	H	1.432893	0.499994	0.418105
H81	H	1.396050	-0.000030	0.064764
H82	H	1.896050	0.499970	0.564764
H83	H	1.390594	-0.000023	0.314815
H84	H	1.890594	0.499977	0.814815
H85	H	1.151741	-0.000012	0.099961
H86	H	1.651741	0.499988	0.599961
H87	H	1.389970	-0.481396	-0.138199
H88	H	1.889970	0.018604	0.361801
H89	H	1.148224	-0.000021	0.260835
H90	H	1.648224	0.499979	0.760835
O91	O	0.897829	0.000032	-0.508137
O92	O	1.397829	0.500032	-0.008137
C93	C	1.007439	0.000007	-0.499086
C94	C	1.507439	0.500007	0.000914
H95	H	1.034645	0.035605	-0.401925
H96	H	1.534645	0.535605	0.098075
H97	H	1.045014	0.054588	-0.572406
H98	H	1.545014	0.554588	-0.072406
H99	H	1.031292	-0.090189	-0.515611
H100	H	1.531292	0.409811	-0.015611
O101	O	0.510232	-0.000072	-0.567715
O102	O	1.010232	0.499928	-0.067715
C103	C	0.405576	-0.000039	-0.528613
C104	C	0.905576	0.499961	-0.028613
H105	H	0.398229	-0.035632	-0.432748
H106	H	0.898229	0.464368	0.067252
H107	H	0.353240	-0.054620	-0.598742
H108	H	0.853240	0.445380	-0.098742
H109	H	0.380633	0.090159	-0.522733
H110	H	0.880633	0.590159	-0.022733
H111	H	1.078627	-0.303948	-0.478666
H112	H	1.578627	0.196052	0.021334
H113	H	0.736513	-0.000027	-0.054368
H114	H	1.236513	0.499973	0.445632
H115	H	0.562603	-0.000110	-0.143912
H116	H	1.062603	0.499890	0.356088
H117	H	1.332425	-0.303903	-0.201116
H118	H	1.832425	0.196097	0.298884
H119	H	1.374969	-0.696082	-0.154605
H120	H	1.874969	-0.196082	0.345395
H121	H	1.121173	-0.696157	-0.432151
H122	H	1.621173	-0.196157	0.067849
H123	H	1.063631	-0.518663	-0.495074
H124	H	1.563631	-0.018663	0.004926
