data_functionalizedCrystal
_audit_creation_method	'MofGen! by Chris Wilmer'
_symmetry_space_group_name_H-M	'P1'
_symmetry_Int_Tables_number	1
_symmetry_cell_setting	triclinic
loop_
_symmetry_equiv_pos_as_xyz
  x,y,z
_cell_length_a	14.853569
_cell_length_b	14.853567
_cell_length_c	13.930277
_cell_angle_alpha	89.993450
_cell_angle_beta	89.994756
_cell_angle_gamma	83.635248
loop_
_atom_site_label
_atom_site_type_symbol
_atom_site_fract_x
_atom_site_fract_y
_atom_site_fract_z
O1	O	1.196368	0.117710	-0.079791
O2	O	0.933908	0.131730	-0.079803
O3	O	1.072149	-0.006510	-0.079786
O4	O	1.058127	0.255950	-0.079809
O5	O	1.072129	-0.006513	0.079876
O6	O	0.933889	0.131727	0.079858
O7	O	1.196348	0.117707	0.079871
Zn8	Zn	1.065116	0.124717	0.105214
Zn9	Zn	1.065141	0.124721	-0.105147
O10	O	1.058108	0.255947	0.079853
C11	C	0.900310	0.131093	0.000026
C12	C	0.800226	0.129189	0.000022
C13	C	1.058753	0.289537	0.000019
C14	C	1.060657	0.389621	0.000010
C15	C	1.071504	-0.040100	0.000046
C16	C	1.069600	-0.140183	0.000048
C17	C	0.763850	0.046178	0.000026
C18	C	0.742560	0.210410	0.000022
C19	C	0.648526	0.208624	0.000023
C20	C	0.612150	0.125613	0.000027
C21	C	0.669807	0.044389	0.000030
C22	C	0.590862	0.289847	0.000030
C23	C	0.496821	0.288064	0.000033
C24	C	0.460443	0.205052	0.000030
C25	C	0.518107	0.123824	0.000031
C26	C	0.481730	0.040813	0.000035
C27	C	0.539393	-0.040415	0.000030
C28	C	0.633429	-0.038623	0.000027
C29	C	0.366407	0.203259	0.000033
C30	C	0.387688	0.039024	0.000039
C31	C	1.229947	0.118344	0.000039
C32	C	1.330030	0.120249	0.000037
N33	N	1.065105	0.124713	0.248780
C34	C	1.150822	0.802155	0.000049
C35	C	0.986590	0.823435	0.000041
C36	C	0.984800	0.729401	0.000032
C37	C	1.066022	0.671740	0.000033
C38	C	1.149035	0.708112	0.000043
C39	C	0.901788	0.693022	0.000031
C40	C	0.899995	0.598983	0.000023
C41	C	0.981218	0.541320	0.000017
C42	C	1.064234	0.577697	0.000026
C43	C	1.145457	0.520036	0.000027
C44	C	1.228474	0.556412	0.000030
C45	C	1.230258	0.650449	0.000037
C46	C	0.979434	0.447282	0.000009
C47	C	1.143669	0.425993	0.000021
N48	N	1.065159	0.124717	-0.248713
C49	C	1.003926	0.185909	0.701042
C50	C	1.126381	0.063525	0.701027
C51	C	1.126370	0.063522	0.600531
C52	C	1.065137	0.124715	0.550286
C53	C	1.003915	0.185910	0.600537
C54	C	1.187598	0.002334	0.550273
C55	C	1.187590	0.002330	0.449771
C56	C	1.126352	0.063518	0.399524
C57	C	1.065126	0.124716	0.449781
C58	C	1.003893	0.185908	0.399536
C59	C	0.942663	0.247101	0.449791
C60	C	0.942677	0.247099	0.550290
C61	C	1.126338	0.063521	0.299025
C62	C	1.003883	0.185909	0.299031
H63	H	0.358078	-0.028574	0.000037
C64	C	1.179115	-0.092450	0.731982
C65	C	1.193678	-0.003740	0.756257
H66	H	1.220664	-0.133979	0.766080
H67	H	1.118943	-0.102334	0.748465
H68	H	1.187877	-0.101200	0.664935
H69	H	1.184908	0.005013	0.823303
H70	H	1.253864	0.006148	0.739780
C71	C	0.820037	0.266437	0.663349
C72	C	0.875385	0.314361	0.605537
H73	H	0.778501	0.307964	0.697464
H74	H	0.787556	0.228862	0.624158
H75	H	0.856521	0.229993	0.707645
H76	H	0.838902	0.350800	0.561236
H77	H	0.907869	0.351952	0.644733
H78	H	0.509763	-0.108003	0.000027
H79	H	0.954070	0.235730	0.741962
C80	C	0.893341	0.941547	-0.082032
C81	C	0.897313	0.886814	0.000040
H82	H	0.838220	0.980673	-0.082035
H83	H	0.943030	0.976664	-0.082015
H84	H	0.896064	0.904420	-0.137707
H85	H	0.894597	0.923941	0.055715
H86	H	0.847611	0.851694	0.000032
H87	H	0.620487	0.357430	0.000033
H88	H	1.218413	0.831777	0.000047
H89	H	0.449880	0.354205	0.000036
C90	C	1.306190	0.414404	0.000029
C91	C	1.232954	0.362614	0.000023
H92	H	1.361309	0.375276	0.000036
H93	H	1.303477	0.451528	-0.055646
H94	H	1.303459	0.451523	0.055710
H95	H	1.235682	0.325501	-0.055662
H96	H	1.235669	0.325475	0.055703
H97	H	0.319463	0.269395	0.000046
C98	C	1.305918	0.785152	0.000070
C99	C	1.321504	0.690436	0.000053
H100	H	1.362249	0.809838	0.000089
H101	H	1.272487	0.804940	-0.055607
H102	H	1.272457	0.804911	0.055749
H103	H	1.354959	0.670675	-0.055630
H104	H	1.354949	0.670639	0.055735
C105	C	0.753380	0.350951	-0.082054
C106	C	0.782545	0.301652	0.000022
H107	H	0.778065	0.407284	-0.082049
H108	H	0.773172	0.317508	-0.137720
H109	H	0.689122	0.361507	-0.082045
H110	H	0.846803	0.291090	0.000010
H111	H	0.762758	0.335102	0.055702
H112	H	1.237456	-0.047483	0.591185
C113	C	0.751547	-0.131876	-0.082040
C114	C	0.696816	-0.127901	0.000031
H115	H	0.790685	-0.186989	-0.082030
H116	H	0.714426	-0.129167	-0.137709
H117	H	0.786659	-0.082174	-0.082032
H118	H	0.661699	-0.177600	0.000019
H119	H	0.733941	-0.130618	0.055714
C120	C	0.882159	0.353886	-0.082072
C121	C	0.888194	0.407292	0.000008
H122	H	0.825830	0.329195	-0.082069
H123	H	0.886267	0.390142	-0.137735
H124	H	0.930282	0.306092	-0.082068
H125	H	0.840075	0.455090	-0.000000
H126	H	0.884077	0.371035	0.055685
H127	H	1.237446	-0.047498	0.408859
C128	C	0.737834	0.629474	0.000007
C129	C	0.808746	0.559003	0.000008
H130	H	0.681502	0.604789	-0.000010
H131	H	0.741937	0.665694	0.055688
H132	H	0.741964	0.665723	-0.055668
H133	H	0.804619	0.522757	0.055688
H134	H	0.804640	0.522767	-0.055678
H135	H	0.892810	0.296929	0.408870
H136	H	1.294605	0.509452	0.000036
C137	C	0.951127	0.341888	0.268085
C138	C	0.936574	0.253177	0.243804
H139	H	0.909577	0.383414	0.233985
H140	H	0.942366	0.350635	0.335123
H141	H	1.011305	0.351780	0.251598
H142	H	0.876398	0.243282	0.260298
H143	H	0.945328	0.244426	0.176751
C144	C	1.247385	-0.057444	0.309110
C145	C	1.193634	-0.003737	0.243785
H146	H	1.288928	-0.098972	0.275006
H147	H	1.279859	-0.019853	0.348291
H148	H	1.209819	-0.089942	0.348326
H149	H	1.231200	0.028767	0.204574
H150	H	1.161158	-0.041332	0.204588
H151	H	0.810802	-0.019956	0.000018
H152	H	0.835662	0.739976	0.000034
