data_functionalizedCrystal
_audit_creation_method	'MofGen! by Chris Wilmer'
_symmetry_space_group_name_H-M	'P1'
_symmetry_Int_Tables_number	1
_symmetry_cell_setting	triclinic
loop_
_symmetry_equiv_pos_as_xyz
  x,y,z
_cell_length_a	12.759401
_cell_length_b	12.594516
_cell_length_c	12.594509
_cell_angle_alpha	89.975348
_cell_angle_beta	89.981759
_cell_angle_gamma	90.016479
loop_
_atom_site_label
_atom_site_type_symbol
_atom_site_fract_x
_atom_site_fract_y
_atom_site_fract_z
Zn1	Zn	1.606242	-0.423714	-0.601779
Zn2	Zn	2.106242	0.076286	-0.101779
Zn3	Zn	1.606133	-0.601720	-0.423807
Zn4	Zn	2.106133	-0.101720	0.076193
Zn5	Zn	1.430545	-0.423757	-0.423818
Zn6	Zn	1.930545	0.076243	0.076182
Zn7	Zn	1.430528	-0.601652	-0.601747
Zn8	Zn	1.930528	-0.101652	-0.101747
O9	O	1.518362	-0.512711	-0.512788
O10	O	2.018362	-0.012711	-0.012788
O11	O	1.753248	-0.447337	-0.578179
O12	O	2.253248	0.052663	-0.078179
O13	O	1.582802	-0.578158	-0.274863
O14	O	2.082802	-0.078158	0.225137
O15	O	1.453904	-0.274805	-0.447443
O16	O	1.953904	0.225195	0.052557
O17	O	1.753168	-0.578117	-0.447424
O18	O	2.253168	-0.078117	0.052576
O19	O	1.582987	-0.274774	-0.578190
O20	O	2.082987	0.225226	-0.078190
O21	O	1.453798	-0.447410	-0.274871
O22	O	1.953798	0.052590	0.225129
O23	O	1.283521	-0.447345	-0.447413
O24	O	1.783521	0.052655	0.052587
O25	O	1.453875	-0.578003	-0.750697
O26	O	1.953875	-0.078003	-0.250697
O27	O	1.283509	-0.578044	-0.578136
O28	O	1.783509	-0.078044	-0.078136
O29	O	1.582971	-0.447272	-0.750721
O30	O	2.082971	0.052728	-0.250721
O31	O	1.582786	-0.750657	-0.447393
O32	O	2.082786	-0.250657	0.052607
O33	O	1.453770	-0.750607	-0.578125
O34	O	1.953770	-0.250607	-0.078125
C35	C	1.245394	-0.512692	-0.512773
C36	C	1.745394	-0.012692	-0.012773
C37	C	1.128618	-0.512710	-0.512792
C38	C	1.628618	-0.012710	-0.012792
C39	C	1.073798	-0.444736	-0.580981
C40	C	1.573798	0.055264	-0.080981
C41	C	0.964074	-0.444747	-0.580988
C42	C	1.464074	0.055253	-0.080988
C43	C	0.963999	-0.580715	-0.444613
C44	C	1.463999	-0.080715	0.055387
C45	C	1.073721	-0.580698	-0.444602
C46	C	1.573721	-0.080698	0.055398
C47	C	1.518293	-0.789252	-0.512778
C48	C	2.018293	-0.289252	-0.012778
C49	C	1.518360	-0.907557	-0.512809
C50	C	2.018360	-0.407557	-0.012809
C51	C	1.448181	-0.976822	-0.583864
C52	C	1.948181	-0.476822	-0.083864
C53	C	1.422582	-1.047685	-0.486742
C54	C	1.922582	-0.547685	0.013258
C55	C	1.544054	-1.047493	-0.609947
C56	C	2.044054	-0.547493	-0.109947
C57	C	1.492710	-0.976862	-0.415636
C58	C	1.992710	-0.476862	0.084364
C59	C	1.614227	-0.976664	-0.538906
C60	C	2.114227	-0.476664	-0.038906
C61	C	1.588664	-1.047495	-0.441717
C62	C	2.088664	-0.547495	0.058283
C63	C	1.792395	-0.512730	-0.512804
C64	C	2.292395	-0.012730	-0.012804
C65	C	1.909172	-0.512738	-0.512810
C66	C	2.409172	-0.012738	-0.012810
C67	C	1.518434	-0.512625	-0.790409
C68	C	2.018434	-0.012625	-0.290409
C69	C	1.518464	-0.512589	-0.908714
C70	C	2.018464	-0.012589	-0.408714
C71	C	1.518460	-0.235090	-0.512822
C72	C	2.018460	0.264910	-0.012822
C73	C	1.518501	-0.116784	-0.512836
C74	C	2.018501	0.383216	-0.012836
C75	C	1.448293	-0.583604	-1.048719
C76	C	1.948293	-0.083604	-0.548719
C77	C	1.422606	-0.486539	-0.977915
C78	C	1.922606	0.013461	-0.477915
C79	C	1.544103	-0.609643	-0.977947
C80	C	2.044103	-0.109643	-0.477947
C81	C	1.492788	-0.415339	-1.048697
C82	C	1.992788	0.084661	-0.548697
C83	C	1.614330	-0.538509	-1.048734
C84	C	2.114330	-0.038509	-0.548734
C85	C	1.588679	-0.441377	-0.977963
C86	C	2.088679	0.058623	-0.477963
C87	C	1.518351	-0.512719	-0.236247
C88	C	2.018351	-0.012719	0.263753
C89	C	1.518524	-0.512456	-0.117942
C90	C	2.018524	-0.012456	0.382058
H91	H	0.919445	-0.389394	-0.636513
H92	H	1.419445	0.110606	-0.136513
Br93	Br	1.687632	-0.341080	-0.926506
Br94	Br	2.187632	0.158920	-0.426506
Br95	Br	1.148127	-0.672940	-0.352037
Br96	Br	1.648127	-0.172940	0.147963
H97	H	1.470941	-0.945964	-0.333475
H98	H	1.970941	-0.445964	0.166525
H99	H	1.388727	-0.945790	-0.643866
H100	H	1.888727	-0.445790	-0.143866
H101	H	1.388881	-0.643639	-1.079787
H102	H	1.888881	-0.143639	-0.579787
Br103	Br	0.889490	-0.672981	-0.352076
Br104	Br	1.389490	-0.172981	0.147924
H105	H	1.341575	-1.078904	-0.464692
H106	H	1.841575	-0.578904	0.035308
Br107	Br	1.687688	-1.098891	-0.341476
Br108	Br	2.187688	-0.598891	0.158524
H109	H	1.695215	-0.945448	-0.561003
H110	H	2.195215	-0.445448	-0.061003
H111	H	1.565729	-1.078519	-0.692085
H112	H	2.065729	-0.578519	-0.192085
Br113	Br	1.287525	-0.449887	-0.926070
Br114	Br	1.787525	0.050113	-0.426070
Br115	Br	1.456531	-0.278400	-1.100270
Br116	Br	1.956531	0.221600	-0.600270
Br117	Br	1.148298	-0.352465	-0.673521
Br118	Br	1.648298	0.147535	-0.173521
H119	H	1.695353	-0.560524	-1.079865
H120	H	2.195353	-0.060524	-0.579865
H121	H	1.565765	-0.691779	-0.946870
H122	H	2.065765	-0.191779	-0.446870
