data_functionalizedCrystal
_audit_creation_method	'MofGen! by Chris Wilmer'
_symmetry_space_group_name_H-M	'P1'
_symmetry_Int_Tables_number	1
_symmetry_cell_setting	triclinic
loop_
_symmetry_equiv_pos_as_xyz
  x,y,z
_cell_length_a	11.792241
_cell_length_b	17.699097
_cell_length_c	16.176319
_cell_angle_alpha	89.988988
_cell_angle_beta	89.993071
_cell_angle_gamma	83.740923
loop_
_atom_site_label
_atom_site_type_symbol
_atom_site_fract_x
_atom_site_fract_y
_atom_site_fract_z
O1	O	0.143599	1.004838	-0.068816
O2	O	0.643599	1.504838	0.431184
O3	O	0.162256	0.784560	-0.068802
O4	O	0.662256	1.284560	0.431198
O5	O	-0.012307	0.900045	-0.068803
O6	O	0.487693	1.400045	0.431197
O7	O	0.318162	0.889354	-0.068814
O8	O	0.818162	1.389354	0.431186
O9	O	-0.012318	0.900029	0.068690
O10	O	0.487682	1.400029	0.568690
O11	O	0.162245	0.784544	0.068691
O12	O	0.662245	1.284544	0.568691
O13	O	0.143588	1.004822	0.068678
O14	O	0.643588	1.504822	0.568678
Cu15	Cu	0.152915	0.894682	0.081239
Cu16	Cu	0.652915	1.394682	0.581239
Cu17	Cu	0.152928	0.894700	-0.081363
Cu18	Cu	0.652928	1.394700	0.418637
O19	O	0.318150	0.889337	0.068679
O20	O	0.818150	1.389337	0.568679
C21	C	0.161579	0.756352	-0.000054
C22	C	0.661579	1.256352	0.499946
C23	C	0.159566	0.672324	-0.000049
C24	C	0.659566	1.172324	0.499951
C25	C	0.147232	0.156548	-0.075029
C26	C	0.647232	0.656548	0.424971
C27	C	0.149116	0.235502	-0.075025
C28	C	0.649116	0.735502	0.424975
C29	C	0.150053	0.274965	-0.000074
C30	C	0.650053	0.774965	0.499926
C31	C	0.149096	0.235470	0.074878
C32	C	0.649096	0.735470	0.574878
C33	C	0.147204	0.156518	0.074873
C34	C	0.647204	0.656518	0.574873
C35	C	0.156724	0.553874	0.074899
C36	C	0.656724	1.053874	0.574899
C37	C	0.158620	0.632832	0.074898
C38	C	0.658620	1.132832	0.574898
C39	C	0.158636	0.632859	-0.074999
C40	C	0.658636	1.132859	0.425001
C41	C	0.156744	0.553907	-0.075004
C42	C	0.656744	1.053907	0.424996
C43	C	0.155781	0.514420	-0.000052
C44	C	0.655781	1.014420	0.499948
C45	C	0.153736	0.428809	-0.000058
C46	C	0.653736	0.928809	0.499942
C47	C	0.152106	0.360573	-0.000068
C48	C	0.652106	0.860573	0.499932
C49	C	-0.054595	0.899365	-0.000057
C50	C	0.445405	1.399365	0.499943
C51	C	-0.180585	0.897355	-0.000058
C52	C	0.319415	1.397355	0.499942
C53	C	-0.411253	0.893659	-0.000071
C54	C	0.088747	1.393659	0.499929
C55	C	-0.282893	0.895712	-0.000064
C56	C	0.217107	1.395712	0.499936
C57	C	0.360439	0.890017	-0.000069
C58	C	0.860439	1.390017	0.499931
C59	C	0.486429	0.892027	-0.000074
C60	C	0.986429	1.392027	0.499926
C61	C	0.144264	1.033030	-0.000073
C62	C	0.644264	1.533030	0.499927
C63	C	0.146278	1.117058	-0.000083
C64	C	0.646278	1.617058	0.499917
N65	N	0.152905	0.894674	0.195604
N66	N	0.652905	1.394674	0.695604
N67	N	0.152929	0.894714	-0.195728
N68	N	0.652929	1.394714	0.304272
C69	C	0.075640	0.945826	0.238867
C70	C	0.575640	1.445826	0.738867
C71	C	0.075639	0.945830	0.325414
C72	C	0.575639	1.445830	0.825414
C73	C	0.152909	0.894684	0.368696
C74	C	0.652909	1.394684	0.868696
C75	C	0.230178	0.843527	0.325427
C76	C	0.730178	1.343527	0.825427
C77	C	0.230173	0.843520	0.238881
C78	C	0.730173	1.343520	0.738881
C79	C	0.230199	0.843553	0.674455
C80	C	0.730199	1.343553	1.174455
C81	C	0.230201	0.843565	0.761006
C82	C	0.730201	1.343565	1.261006
C83	C	0.075666	0.945863	0.760988
C84	C	0.575666	1.445863	1.260988
C85	C	0.075660	0.945856	0.674443
C86	C	0.575660	1.445856	1.174443
C87	C	0.152925	0.894696	0.631181
C88	C	0.652925	1.394696	1.131181
C89	C	0.152923	0.894691	0.537336
C90	C	0.652923	1.394691	1.037336
C91	C	0.152917	0.894692	0.462539
C92	C	0.652917	1.394692	0.962539
H93	H	0.146476	0.124423	-0.136063
H94	H	0.646476	0.624423	0.363937
N95	N	0.150165	0.278091	-0.155861
N96	N	0.650165	0.778091	0.344139
H97	H	0.151503	0.334095	-0.144488
H98	H	0.651503	0.834095	0.355512
H99	H	0.079513	0.270143	-0.188597
H100	H	0.579513	0.770143	0.311403
N101	N	0.313538	0.788390	0.807687
N102	N	0.813538	1.288390	1.307687
H103	H	0.270216	0.754716	0.843612
H104	H	0.770216	1.254716	1.343612
H105	H	0.363727	0.817568	0.843531
H106	H	0.863727	1.317568	1.343531
H107	H	0.012724	0.987481	0.360639
H108	H	0.512724	1.487481	0.860639
N109	N	0.313524	0.788372	0.627800
N110	N	0.813524	1.288372	1.127800
H111	H	0.362473	0.755975	0.668354
H112	H	0.862473	1.255975	1.168354
H113	H	0.363650	0.817539	0.591871
H114	H	0.863650	1.317539	1.091871
H115	H	0.149852	0.267607	0.135904
H116	H	0.649852	0.767607	0.635904
H117	H	0.146438	0.124365	0.135901
H118	H	0.646438	0.624365	0.635901
N119	N	0.313511	0.788361	0.372111
N120	N	0.813511	1.288361	0.872111
H121	H	0.363716	0.817488	0.408002
H122	H	0.863716	1.317488	0.908002
H123	H	0.362380	0.755965	0.331520
H124	H	0.862380	1.255965	0.831520
N125	N	0.155688	0.511287	0.155734
N126	N	0.655688	1.011287	0.655734
H127	H	0.155770	0.548331	0.203213
H128	H	0.655770	1.048331	0.703213
H129	H	0.225640	0.473047	0.159248
H130	H	0.725640	0.973047	0.659248
N131	N	-0.007675	1.001022	0.627760
N132	N	0.492325	1.501022	1.127760
H133	H	-0.056625	1.033427	0.668301
H134	H	0.443375	1.533427	1.168301
H135	H	-0.057799	0.971840	0.591867
H136	H	0.442201	1.471840	1.091867
N137	N	0.313502	0.788345	0.192214
N138	N	0.813502	1.288345	0.692214
H139	H	0.362454	0.755946	0.232763
H140	H	0.862454	1.255946	0.732763
H141	H	0.363625	0.817516	0.156287
H142	H	0.863625	1.317516	0.656287
H143	H	0.012723	0.987477	0.203633
H144	H	0.512723	1.487477	0.703633
N145	N	0.155734	0.511344	-0.155843
N146	N	0.655734	1.011344	0.344157
H147	H	0.156621	0.548342	-0.203322
H148	H	0.656621	1.048342	0.296678
H149	H	0.084617	0.484436	-0.159103
H150	H	0.584617	0.984436	0.340897
H151	H	0.159383	0.664960	0.135936
H152	H	0.659383	1.164960	0.635936
N153	N	0.159670	0.675450	-0.155842
N154	N	0.659670	1.175450	0.344158
H155	H	0.161006	0.731454	-0.144471
H156	H	0.661006	1.231454	0.355529
H157	H	0.089014	0.667499	-0.188572
H158	H	0.589014	1.167499	0.311428
N159	N	-0.007675	1.001043	0.807649
N160	N	0.492325	1.501043	1.307649
H161	H	0.004046	0.993289	0.869043
H162	H	0.504046	1.493289	1.369043
H163	H	-0.088177	0.991976	0.792532
H164	H	0.411823	1.491976	1.292532
