data_functionalizedCrystal
_audit_creation_method	'MofGen! by Chris Wilmer'
_symmetry_space_group_name_H-M	'P1'
_symmetry_Int_Tables_number	1
_symmetry_cell_setting	triclinic
loop_
_symmetry_equiv_pos_as_xyz
  x,y,z
_cell_length_a	27.732048
_cell_length_b	27.732048
_cell_length_c	26.809956
_cell_angle_alpha	89.999364
_cell_angle_beta	89.996742
_cell_angle_gamma	82.642655
loop_
_atom_site_label
_atom_site_type_symbol
_atom_site_fract_x
_atom_site_fract_y
_atom_site_fract_z
O1	O	0.640931	0.057510	-0.041421
O2	O	0.500138	0.066256	-0.041436
O3	O	0.574907	-0.008514	-0.041419
O4	O	0.566162	0.132280	-0.041439
O5	O	0.574893	-0.008502	0.041541
O6	O	0.500123	0.066267	0.041523
O7	O	0.640917	0.057522	0.041539
Zn8	Zn	0.570518	0.061896	0.054702
Zn9	Zn	0.570536	0.061881	-0.054600
O10	O	0.566147	0.132291	0.041521
C11	C	0.482124	0.066078	0.000041
C12	C	0.428469	0.065525	0.000036
C13	C	0.089654	0.106229	0.000051
C14	C	-0.112006	0.104178	0.000056
O15	O	-0.143262	0.141398	0.000073
N16	N	-0.131130	0.059843	0.000062
C17	C	-0.099835	0.016017	0.000069
O18	O	-0.120728	-0.021740	0.000079
C19	C	0.101824	0.018068	0.000068
C20	C	0.120944	0.062407	0.000057
C21	C	0.108775	0.150563	0.000042
C22	C	0.159187	0.151076	0.000038
C23	C	0.190477	0.107253	0.000044
C24	C	0.171356	0.062919	0.000054
C25	C	0.133117	-0.025757	0.000079
C26	C	0.183535	-0.025240	0.000080
C27	C	0.202655	0.019098	0.000069
C28	C	0.253059	0.019609	0.000056
N29	N	0.272183	0.063944	0.000050
C30	C	0.240892	0.107766	0.000044
C31	C	-0.205709	0.014943	0.000069
C32	C	-0.256124	0.014430	0.000068
C33	C	-0.268291	0.102591	0.000056
C34	C	-0.217876	0.103104	0.000053
C35	C	-0.186585	0.059278	0.000063
C36	C	0.346761	0.108839	0.000036
C37	C	0.397178	0.109347	0.000030
C38	C	0.409341	0.021186	0.000044
C39	C	0.358929	0.020678	0.000048
C40	C	0.327639	0.064508	0.000045
O41	O	0.284343	-0.017592	0.000045
O42	O	0.261794	0.145518	0.000045
C43	C	0.039242	0.105716	0.000055
C44	C	0.020120	0.061382	0.000065
C45	C	0.051411	0.017560	0.000071
C46	C	-0.030294	0.060869	0.000065
C47	C	-0.061585	0.104691	0.000059
C48	C	-0.042461	0.149026	0.000053
C49	C	0.007951	0.149539	0.000049
C50	C	0.032287	-0.026775	0.000077
C51	C	-0.018125	-0.027284	0.000080
C52	C	-0.049416	0.016538	0.000074
C53	C	0.574716	-0.026515	0.000062
C54	C	0.574164	-0.080170	0.000066
C55	C	0.614867	-0.418985	0.000045
C56	C	0.612816	-0.620645	0.000038
O57	O	0.650037	-0.651900	0.000021
N58	N	0.568481	-0.639768	0.000034
C59	C	0.524656	-0.608474	0.000028
O60	O	0.486899	-0.629367	0.000019
C61	C	0.526707	-0.406815	0.000031
C62	C	0.571045	-0.387694	0.000041
C63	C	0.659202	-0.399864	0.000054
C64	C	0.659714	-0.349452	0.000059
C65	C	0.615892	-0.318161	0.000054
C66	C	0.571557	-0.337282	0.000045
C67	C	0.482882	-0.375521	0.000022
C68	C	0.483399	-0.325104	0.000021
C69	C	0.527737	-0.305983	0.000031
C70	C	0.528247	-0.255580	0.000045
N71	N	0.572583	-0.236456	0.000050
C72	C	0.616405	-0.267747	0.000054
C73	C	0.523582	-0.714348	0.000027
C74	C	0.523069	-0.764762	0.000027
C75	C	0.611230	-0.776930	0.000036
C76	C	0.611742	-0.726514	0.000040
C77	C	0.567917	-0.695224	0.000031
C78	C	0.617477	-0.161878	0.000064
C79	C	0.617986	-0.111461	0.000071
C80	C	0.529825	-0.099298	0.000059
C81	C	0.529316	-0.149710	0.000055
C82	C	0.573147	-0.180999	0.000056
O83	O	0.491047	-0.224296	0.000057
O84	O	0.654156	-0.246844	0.000053
C85	C	0.614355	-0.469397	0.000041
C86	C	0.570021	-0.488518	0.000032
C87	C	0.526198	-0.457228	0.000027
C88	C	0.569508	-0.538933	0.000032
C89	C	0.613330	-0.570223	0.000036
C90	C	0.657665	-0.551100	0.000041
C91	C	0.658177	-0.500688	0.000045
C92	C	0.481863	-0.476351	0.000023
C93	C	0.481355	-0.526764	0.000019
C94	C	0.525177	-0.558054	0.000023
C95	C	0.658931	0.057699	0.000060
C96	C	0.712586	0.058252	0.000062
C97	C	0.566338	0.150292	0.000039
C98	C	0.566891	0.203947	0.000031
N99	N	0.570509	0.061906	0.129298
N100	N	0.570549	0.061867	-0.129196
C101	C	0.603640	0.028781	0.473932
C102	C	0.603652	0.028774	0.682810
O103	O	0.631801	0.000613	0.709820
N104	N	0.570539	0.061870	0.708925
C105	C	0.537419	0.094969	0.682818
O106	O	0.509252	0.123116	0.709824
C107	C	0.537406	0.094974	0.473941
C108	C	0.570524	0.061878	0.447829
C109	C	0.636755	-0.004312	0.447819
C110	C	0.636754	-0.004308	0.395603
C111	C	0.603637	0.028789	0.369500
C112	C	0.570522	0.061882	0.395612
C113	C	0.504284	0.128070	0.447835
C114	C	0.504283	0.128067	0.395613
C115	C	0.537401	0.094972	0.369500
C116	C	0.537405	0.094983	0.317293
N117	N	0.570517	0.061887	0.291177
C118	C	0.603633	0.028790	0.317281
C119	C	0.537429	0.094965	0.792481
C120	C	0.537433	0.094964	0.844700
C121	C	0.603665	0.028768	0.844689
C122	C	0.603663	0.028772	0.792469
C123	C	0.570542	0.061868	0.766366
C124	C	0.603628	0.028801	0.207623
C125	C	0.603625	0.028809	0.155402
C126	C	0.537392	0.095003	0.155418
C127	C	0.537396	0.094997	0.207635
C128	C	0.570516	0.061892	0.233735
O129	O	0.509266	0.123126	0.290250
O130	O	0.631789	0.000640	0.290266
C131	C	0.603642	0.028777	0.526149
C132	C	0.570527	0.061870	0.552261
C133	C	0.537410	0.094968	0.526158
C134	C	0.570531	0.061870	0.604480
C135	C	0.603647	0.028773	0.630584
C136	C	0.636759	-0.004324	0.604468
C137	C	0.636758	-0.004320	0.552252
C138	C	0.504298	0.128064	0.552273
C139	C	0.504303	0.128058	0.604489
C140	C	0.537419	0.094961	0.630593
H141	H	0.434827	-0.014492	0.000047
C142	C	0.673186	-0.040728	0.523532
C143	C	0.654578	-0.077569	0.487636
C144	C	0.691007	-0.113981	0.458919
C145	C	0.746043	-0.113551	0.466099
C146	C	0.764654	-0.076708	0.501997
C147	C	0.728225	-0.040297	0.530713
H148	H	0.613835	-0.077889	0.482319
H149	H	0.677230	-0.141254	0.432345
H150	H	0.773010	-0.140504	0.444842
H151	H	0.805397	-0.076388	0.507313
H152	H	0.742001	-0.013023	0.557287
H153	H	0.510457	0.121917	0.771232
H154	H	0.630630	0.001822	0.771211
H155	H	-0.033688	-0.063392	0.000085
C156	C	0.066702	-0.074984	0.000079
C157	C	0.064785	-0.111418	0.043159
C158	C	0.099197	-0.159630	0.043158
C159	C	0.135526	-0.171409	0.000076
C160	C	0.137445	-0.134975	-0.043008
C161	C	0.103033	-0.086762	-0.043006
H162	H	0.037891	-0.102699	0.075054
H163	H	0.097777	-0.186601	0.075051
H164	H	0.161001	-0.207099	0.000075
H165	H	0.164339	-0.143693	-0.074902
H166	H	0.104453	-0.059791	-0.074899
C167	C	-0.171294	-0.033270	0.000074
C168	C	-0.173216	-0.069703	0.043154
C169	C	-0.138805	-0.117916	0.043156
C170	C	-0.102471	-0.129696	0.000078
C171	C	-0.100548	-0.093262	-0.043005
C172	C	-0.134960	-0.045049	-0.043007
H173	H	-0.200114	-0.060983	0.075046
H174	H	-0.140228	-0.144886	0.075049
H175	H	-0.076998	-0.165386	0.000080
H176	H	-0.073651	-0.101981	-0.074897
H177	H	-0.133536	-0.018078	-0.074900
H178	H	0.663722	-0.031266	0.469068
C179	C	0.480543	-0.170743	0.000042
C180	C	0.468077	-0.203717	-0.043048
C181	C	0.419303	-0.224744	-0.043069
C182	C	0.382994	-0.212795	0.000000
C183	C	0.395459	-0.179819	0.043094
C184	C	0.444234	-0.158793	0.043115
H185	H	0.494956	-0.212563	-0.074934
H186	H	0.410075	-0.249155	-0.074970
H187	H	0.346888	-0.228360	-0.000016
H188	H	0.368581	-0.170973	0.074979
H189	H	0.453461	-0.134381	0.075016
H190	H	0.343360	-0.015426	0.000049
H191	H	0.694889	-0.425336	0.000056
C192	C	0.660514	-0.705484	0.000046
C193	C	0.673002	-0.672503	-0.043032
C194	C	0.721776	-0.651476	-0.043028
C195	C	0.758063	-0.663431	0.000055
C196	C	0.745577	-0.696414	0.043136
C197	C	0.696802	-0.717441	0.043132
H198	H	0.646139	-0.663652	-0.074927
H199	H	0.731019	-0.627060	-0.074919
H200	H	0.794169	-0.647865	0.000058
H201	H	0.772440	-0.705265	0.075031
H202	H	0.687559	-0.741857	0.075024
C203	C	0.640091	-0.007641	0.873409
C204	C	0.640088	-0.007639	0.930848
C205	C	0.676509	-0.044050	0.959571
C206	C	0.712933	-0.080462	0.930856
C207	C	0.712937	-0.080466	0.873414
C208	C	0.676517	-0.044055	0.844691
H209	H	0.613123	0.019317	0.952108
H210	H	0.676505	-0.044047	1.002094
H211	H	0.739894	-0.107415	0.952119
H212	H	0.739902	-0.107422	0.852154
H213	H	0.676520	-0.044058	0.802168
H214	H	0.486964	-0.780325	0.000028
C215	C	0.217954	-0.073450	0.000089
C216	C	0.216038	-0.109877	0.043175
C217	C	0.250456	-0.158086	0.043183
C218	C	0.286790	-0.169867	0.000105
C219	C	0.288707	-0.133439	-0.042984
C220	C	0.254289	-0.085230	-0.042992
H221	H	0.189141	-0.101157	0.075066
H222	H	0.249037	-0.185053	0.075080
H223	H	0.312268	-0.205555	0.000111
H224	H	0.315604	-0.142159	-0.074875
H225	H	0.255708	-0.058263	-0.074889
H226	H	0.494146	-0.073812	0.000057
C227	C	0.665690	-0.196291	0.000070
C228	C	0.702113	-0.194374	0.043157
C229	C	0.750325	-0.228788	0.043166
C230	C	0.762114	-0.265118	0.000089
C231	C	0.725690	-0.267035	-0.043002
C232	C	0.677478	-0.232622	-0.043011
H233	H	0.693387	-0.167480	0.075049
H234	H	0.777288	-0.227368	0.075065
H235	H	0.797803	-0.290592	0.000095
H236	H	0.734416	-0.293930	-0.074894
H237	H	0.650515	-0.234042	-0.074910
H238	H	0.663720	-0.031258	0.374345
C239	C	0.028978	0.198312	0.000043
C240	C	0.017017	0.234609	0.043118
C241	C	0.038040	0.283386	0.043113
C242	C	0.071023	0.295866	0.000032
C243	C	0.082986	0.259568	-0.043046
C244	C	0.061963	0.210791	-0.043041
H245	H	-0.007400	0.225372	0.075011
H246	H	0.029184	0.310256	0.075002
H247	H	0.086585	0.331973	0.000028
H248	H	0.107404	0.268805	-0.074940
H249	H	0.070819	0.183921	-0.074931
C250	C	0.640055	-0.007599	0.126678
C251	C	0.639657	-0.062641	0.133856
C252	C	0.676085	-0.099048	0.105134
C253	C	0.712911	-0.080415	0.069235
C254	C	0.713311	-0.025370	0.062055
C255	C	0.676883	0.011037	0.090777
H256	H	0.612395	-0.076437	0.160432
H257	H	0.675789	-0.139796	0.110449
H258	H	0.739877	-0.107366	0.047973
H259	H	0.740573	-0.011574	0.035479
H260	H	0.677179	0.051785	0.085462
C261	C	0.475369	-0.679933	0.000024
C262	C	0.438937	-0.681851	-0.043054
C263	C	0.390723	-0.647440	-0.043053
C264	C	0.378943	-0.611110	0.000026
C265	C	0.415376	-0.609191	0.043108
C266	C	0.463589	-0.643602	0.043107
H267	H	0.447657	-0.708746	-0.074947
H268	H	0.363753	-0.648861	-0.074946
H269	H	0.343252	-0.585637	0.000027
H270	H	0.406656	-0.582296	0.075001
H271	H	0.490559	-0.642181	0.074999
C272	C	0.467870	0.164466	0.633211
C273	C	0.486470	0.201307	0.669111
C274	C	0.450035	0.237710	0.697831
C275	C	0.395000	0.237272	0.690649
C276	C	0.376397	0.200428	0.654747
C277	C	0.412832	0.164026	0.626028
H278	H	0.527213	0.201633	0.674429
H279	H	0.463807	0.264984	0.724408
H280	H	0.368029	0.264219	0.711909
H281	H	0.335655	0.200102	0.649429
H282	H	0.399061	0.136752	0.599450
C283	C	0.706951	-0.479660	0.000051
C284	C	0.743239	-0.491620	0.043131
C285	C	0.792016	-0.470597	0.043135
C286	C	0.804504	-0.437614	0.000059
C287	C	0.768214	-0.425652	-0.043025
C288	C	0.719438	-0.446675	-0.043029
H289	H	0.733996	-0.516037	0.075022
H290	H	0.818880	-0.479452	0.075029
H291	H	0.840611	-0.422051	0.000061
H292	H	0.777457	-0.401235	-0.074916
H293	H	0.692574	-0.437820	-0.074922
H294	H	0.695819	-0.333889	0.000065
H295	H	0.117558	-0.061861	0.000088
C296	C	0.180218	0.199847	0.000039
C297	C	0.213207	0.212330	-0.043035
C298	C	0.234236	0.261104	-0.043028
C299	C	0.222276	0.297394	0.000053
C300	C	0.189286	0.284911	0.043131
C301	C	0.168257	0.236138	0.043124
H302	H	0.222062	0.185465	-0.074930
H303	H	0.258658	0.270344	-0.074918
H304	H	0.237843	0.333499	0.000058
H305	H	0.180431	0.311776	0.075025
H306	H	0.143835	0.226898	0.075013
H307	H	0.510471	0.121919	0.865958
H308	H	0.630597	0.001843	0.228868
C309	C	0.433654	-0.441937	0.000023
C310	C	0.397221	-0.443850	-0.043056
C311	C	0.349009	-0.409438	-0.043051
C312	C	0.337229	-0.373112	0.000032
C313	C	0.373663	-0.371198	0.043114
C314	C	0.421876	-0.405610	0.043109
H315	H	0.405941	-0.470742	-0.074951
H316	H	0.322038	-0.410856	-0.074943
H317	H	0.301539	-0.347639	0.000035
H318	H	0.364944	-0.344306	0.075010
H319	H	0.448846	-0.404192	0.075002
C320	C	0.467851	0.164472	0.476552
C321	C	0.412816	0.164030	0.469371
C322	C	0.376380	0.200434	0.498087
C323	C	0.394978	0.237279	0.533985
C324	C	0.450015	0.237723	0.541168
C325	C	0.486452	0.201319	0.512451
H326	H	0.399047	0.136754	0.442795
H327	H	0.335638	0.200105	0.492770
H328	H	0.368006	0.264227	0.555243
H329	H	0.463785	0.264999	0.567743
H330	H	0.527194	0.201648	0.517769
H331	H	0.477310	0.155018	0.374362
H332	H	0.510433	0.121951	0.228896
H333	H	0.510430	0.121952	0.134157
H334	H	0.693347	-0.576585	0.000047
H335	H	-0.067947	0.184708	0.000046
C336	C	0.673187	-0.040732	0.633189
C337	C	0.654573	-0.077569	0.669088
C338	C	0.690996	-0.113977	0.697811
C339	C	0.746034	-0.113549	0.690634
C340	C	0.764651	-0.076710	0.654733
C341	C	0.728228	-0.040302	0.626010
H342	H	0.613828	-0.077887	0.674402
H343	H	0.677214	-0.141247	0.724388
H344	H	0.772997	-0.140500	0.711897
H345	H	0.805396	-0.076392	0.649419
H346	H	0.742009	-0.013032	0.599434
H347	H	0.477330	0.155015	0.531024
H348	H	0.412743	0.145454	0.000021
H349	H	0.445246	-0.542327	0.000015
H350	H	0.654093	-0.095896	0.000080
H351	H	0.321291	0.144530	0.000035
H352	H	0.083302	0.186251	0.000038
H353	H	0.646911	-0.802415	0.000040
H354	H	-0.293777	0.138273	0.000051
C355	C	-0.196845	0.151875	0.000046
C356	C	-0.208805	0.188175	0.043119
C357	C	-0.187778	0.236949	0.043114
C358	C	-0.154790	0.249424	0.000035
C359	C	-0.142828	0.213123	-0.043042
C360	C	-0.163856	0.164349	-0.043036
H361	H	-0.233226	0.178941	0.075012
H362	H	-0.196633	0.263821	0.075002
H363	H	-0.139224	0.285529	0.000030
H364	H	-0.118407	0.222357	-0.074934
H365	H	-0.155000	0.137477	-0.074924
H366	H	-0.271687	-0.021674	0.000069
H367	H	0.446777	-0.391080	0.000011
H368	H	0.447710	-0.299629	0.000014
