data_functionalizedCrystal
_audit_creation_method	'MofGen! by Chris Wilmer'
_symmetry_space_group_name_H-M	'P1'
_symmetry_Int_Tables_number	1
_symmetry_cell_setting	triclinic
loop_
_symmetry_equiv_pos_as_xyz
  x,y,z
_cell_length_a	18.101395
_cell_length_b	13.897449
_cell_length_c	13.897441
_cell_angle_alpha	90.026069
_cell_angle_beta	89.969302
_cell_angle_gamma	89.968968
loop_
_atom_site_label
_atom_site_type_symbol
_atom_site_fract_x
_atom_site_fract_y
_atom_site_fract_z
Zn1	Zn	-0.294807	-1.474613	-0.545518
Zn2	Zn	-0.418663	-1.474469	-0.384219
Zn3	Zn	-0.294840	-1.313302	-0.384221
Zn4	Zn	-0.418611	-1.313246	-0.545456
O5	O	-0.356730	-1.393907	-0.464854
O6	O	-0.311245	-1.609575	-0.524146
O7	O	-0.402273	-1.453053	-0.249237
O8	O	-0.191203	-1.334784	-0.405644
O9	O	-0.402241	-1.609470	-0.405640
O10	O	-0.191179	-1.453298	-0.524148
O11	O	-0.311300	-1.334644	-0.249239
O12	O	-0.311250	-1.178313	-0.405585
O13	O	-0.402153	-1.334688	-0.680446
O14	O	-0.402185	-1.178272	-0.524044
O15	O	-0.311195	-1.453244	-0.680491
O16	O	-0.522289	-1.452999	-0.405581
O17	O	-0.522251	-1.334549	-0.524041
C18	C	-0.356716	-1.143293	-0.464808
C19	C	-0.356728	-1.036079	-0.464812
C20	C	-0.356729	-0.949009	-0.464824
C21	C	-0.356733	-0.839777	-0.464848
C22	C	-0.549141	-1.393778	-0.464825
C23	C	-0.631455	-1.393811	-0.464845
C24	C	-0.930546	-1.394023	-0.464897
C25	C	-0.899228	-1.319670	-0.539615
C26	C	-0.813610	-1.319317	-0.539381
C27	C	-0.782163	-1.393918	-0.464872
C28	C	-0.813319	-1.366392	-0.363211
C29	C	-0.898965	-1.365913	-0.363658
C30	C	-0.898889	-1.496064	-0.490947
C31	C	-0.813237	-1.495464	-0.493176
C32	C	-0.698304	-1.393860	-0.464852
C33	C	-1.014405	-1.394078	-0.464911
C34	C	-0.163568	-1.394063	-0.464903
C35	C	-0.081254	-1.394130	-0.464924
C36	C	-0.356665	-1.393976	-0.716447
C37	C	-0.356637	-1.394005	-0.823661
C38	C	-0.356742	-0.645500	-0.464888
C39	C	-0.356740	-0.752714	-0.464873
C40	C	-0.356587	-1.394031	-1.019956
C41	C	-0.356617	-1.394014	-0.910723
C42	C	-0.356742	-1.393895	-0.214239
C43	C	-0.356561	-1.394053	-0.107026
H44	H	-0.792542	-1.336539	-0.614761
H45	H	-0.919772	-1.336722	-0.615239
H46	H	-0.920815	-1.244495	-0.522576
H47	H	-0.791936	-1.292590	-0.340750
Cl48	Cl	-0.781794	-1.527517	-0.608688
Cl49	Cl	-0.780178	-1.585524	-0.415287
H50	H	-0.919141	-1.551460	-0.436527
H51	H	-0.919008	-1.291321	-0.341593
H52	H	-0.793187	-1.243682	-0.522125
H53	H	-0.920433	-1.521159	-0.563815
H54	H	-0.919685	-1.417719	-0.306089
H55	H	-0.792952	-1.418843	-0.306023
