data_functionalizedCrystal
_audit_creation_method	'MofGen! by Chris Wilmer'
_symmetry_space_group_name_H-M	'P1'
_symmetry_Int_Tables_number	1
_symmetry_cell_setting	triclinic
loop_
_symmetry_equiv_pos_as_xyz
  x,y,z
_cell_length_a	19.077105
_cell_length_b	17.640280
_cell_length_c	17.640968
_cell_angle_alpha	65.682561
_cell_angle_beta	76.072762
_cell_angle_gamma	76.093206
loop_
_atom_site_label
_atom_site_type_symbol
_atom_site_fract_x
_atom_site_fract_y
_atom_site_fract_z
Zn1	Zn	1.206422	-0.279225	-0.444938
Zn2	Zn	1.539756	0.054109	-0.111605
Zn3	Zn	1.873089	0.387442	0.221728
Zn4	Zn	1.206364	-0.444891	-0.279297
Zn5	Zn	1.539697	-0.111558	0.054036
Zn6	Zn	1.873030	0.221775	0.387369
Zn7	Zn	1.067051	-0.301870	-0.301913
Zn8	Zn	1.400385	0.031463	0.031420
Zn9	Zn	1.733718	0.364796	0.364754
Zn10	Zn	1.107160	-0.413257	-0.413357
Zn11	Zn	1.440493	-0.079924	-0.080023
Zn12	Zn	1.773826	0.253409	0.253310
O13	O	1.146749	-0.359811	-0.359876
O14	O	1.480083	-0.026478	-0.026543
O15	O	1.813416	0.306856	0.306790
O16	O	1.306259	-0.304962	-0.426718
O17	O	1.639592	0.028371	-0.093385
O18	O	1.972926	0.361704	0.239949
O19	O	1.171074	-0.448635	-0.166337
O20	O	1.504407	-0.115302	0.166997
O21	O	1.837741	0.218031	0.500330
O22	O	1.068778	-0.182918	-0.343568
O23	O	1.402112	0.150415	-0.010234
O24	O	1.735445	0.483748	0.323099
O25	O	1.306216	-0.426677	-0.305022
O26	O	1.639549	-0.093344	0.028311
O27	O	1.972883	0.239990	0.361644
O28	O	1.171173	-0.166281	-0.448647
O29	O	1.504507	0.167052	-0.115314
O30	O	1.837840	0.500386	0.218019
O31	O	1.068722	-0.343558	-0.182952
O32	O	1.402055	-0.010225	0.150381
O33	O	1.735388	0.323108	0.483714
O34	O	0.972527	-0.312884	-0.312944
O35	O	1.305861	0.020449	0.020389
O36	O	1.639194	0.353782	0.353723
O37	O	1.137137	-0.372761	-0.533507
O38	O	1.470470	-0.039428	-0.200173
O39	O	1.803803	0.293905	0.133160
O40	O	1.001995	-0.394720	-0.394821
O41	O	1.335328	-0.061386	-0.061488
O42	O	1.668661	0.271947	0.271846
O43	O	1.210065	-0.274288	-0.556710
O44	O	1.543398	0.059045	-0.223376
O45	O	1.876731	0.392378	0.109957
O46	O	1.209965	-0.556643	-0.274399
O47	O	1.543298	-0.223309	0.058935
O48	O	1.876632	0.110024	0.392268
O49	O	1.137080	-0.533401	-0.372891
O50	O	1.470414	-0.200068	-0.039558
O51	O	1.803747	0.133265	0.293775
C52	C	0.961373	-0.352827	-0.352910
C53	C	1.294706	-0.019494	-0.019577
C54	C	1.628039	0.313840	0.313757
C55	C	0.882073	-0.349856	-0.349946
C56	C	1.215407	-0.016522	-0.016612
C57	C	1.548740	0.316811	0.316721
C58	C	0.860178	-0.391163	-0.391083
C59	C	1.193512	-0.057830	-0.057750
C60	C	1.526845	0.275504	0.275584
C61	C	0.785667	-0.388359	-0.388304
C62	C	1.119001	-0.055026	-0.054970
C63	C	1.452334	0.278307	0.278363
C64	C	0.733053	-0.344253	-0.344381
C65	C	1.066386	-0.010919	-0.011048
C66	C	1.399719	0.322414	0.322285
C67	C	0.754952	-0.302940	-0.303243
C68	C	1.088285	0.030393	0.030090
C69	C	1.421618	0.363727	0.363424
C70	C	0.829461	-0.305739	-0.306028
C71	C	1.162795	0.027594	0.027305
C72	C	1.496128	0.360928	0.360639
C73	C	0.508564	-0.331297	-0.331497
C74	C	0.841897	0.002037	0.001836
C75	C	1.175230	0.335370	0.335170
C76	C	0.434050	-0.328503	-0.328713
C77	C	0.767383	0.004831	0.004620
C78	C	1.100717	0.338164	0.337953
C79	C	0.464771	-0.413921	-0.413775
C80	C	0.798104	-0.080588	-0.080442
C81	C	1.131438	0.252745	0.252891
C82	C	0.539281	-0.416721	-0.416552
C83	C	0.872614	-0.083387	-0.083219
C84	C	1.205947	0.249946	0.250115
C85	C	0.561173	-0.375404	-0.375417
C86	C	0.894507	-0.042071	-0.042084
C87	C	1.227840	0.291262	0.291249
N88	N	0.656890	-0.341388	-0.341537
N89	N	0.990223	-0.008055	-0.008204
N90	N	1.323557	0.325279	0.325129
N91	N	0.637335	-0.378265	-0.378267
N92	N	0.970668	-0.044931	-0.044934
N93	N	1.304001	0.288402	0.288400
C94	C	1.177891	-0.575083	-0.317783
C95	C	1.511224	-0.241750	0.015551
C96	C	1.844557	0.091584	0.348884
C97	C	1.191282	-0.667175	-0.299805
C98	C	1.524616	-0.333841	0.033528
C99	C	1.857949	-0.000508	0.366862
C100	C	1.045351	-0.909740	-0.496763
C101	C	1.378684	-0.576406	-0.163429
C102	C	1.712017	-0.243073	0.169904
C103	C	1.057932	-0.996279	-0.479844
C104	C	1.391265	-0.662945	-0.146510
C105	C	1.724598	-0.329612	0.186823
C106	C	1.133899	-1.020396	-0.377393
C107	C	1.467232	-0.687062	-0.044059
C108	C	1.800566	-0.353729	0.289274
C109	C	1.121327	-0.933856	-0.394306
C110	C	1.454660	-0.600523	-0.060973
C111	C	1.787994	-0.267190	0.272361
C112	C	1.077052	-0.878535	-0.453991
C113	C	1.410385	-0.545201	-0.120658
C114	C	1.743718	-0.211868	0.212675
C115	C	1.153028	-0.902652	-0.351534
C116	C	1.486361	-0.569318	-0.018201
C117	C	1.819695	-0.235985	0.315132
C118	C	1.140454	-0.816120	-0.368444
C119	C	1.473787	-0.482787	-0.035110
C120	C	1.807121	-0.149454	0.298223
C121	C	1.096179	-0.760794	-0.428124
C122	C	1.429512	-0.427460	-0.094791
C123	C	1.762845	-0.094127	0.238542
C124	C	1.064477	-0.792003	-0.470900
C125	C	1.397811	-0.458670	-0.137567
C126	C	1.731144	-0.125337	0.195766
C127	C	1.197299	-0.957975	-0.291845
C128	C	1.530632	-0.624642	0.041488
C129	C	1.863966	-0.291309	0.374822
C130	C	1.229000	-0.926771	-0.249074
C131	C	1.562333	-0.593437	0.084260
C132	C	1.895667	-0.260104	0.417593
C133	C	1.216430	-0.840237	-0.265987
C134	C	1.549764	-0.506904	0.067347
C135	C	1.883097	-0.173570	0.400680
C136	C	1.172155	-0.784911	-0.325667
C137	C	1.505489	-0.451577	0.007666
C138	C	1.838822	-0.118244	0.340999
C139	C	1.248132	-0.809027	-0.223211
C140	C	1.581465	-0.475694	0.110123
C141	C	1.914798	-0.142361	0.443456
C142	C	1.235558	-0.722496	-0.240120
C143	C	1.568891	-0.389163	0.093214
C144	C	1.902224	-0.055830	0.426547
C145	C	1.159581	-0.698379	-0.342577
C146	C	1.492914	-0.365046	-0.009243
C147	C	1.826248	-0.031713	0.324090
C148	C	1.332850	-0.366822	-0.366870
C149	C	1.666183	-0.033489	-0.033537
C150	C	1.999517	0.299844	0.299796
C151	C	1.412155	-0.369810	-0.369851
C152	C	1.745488	-0.036477	-0.036517
C153	C	2.078822	0.296857	0.296816
C154	C	1.178081	-0.317470	-0.576016
C155	C	1.511415	0.015863	-0.242683
C156	C	1.844748	0.349197	0.090650
C157	C	1.191433	-0.299427	-0.668122
C158	C	1.524766	0.033906	-0.334789
C159	C	1.858100	0.367240	-0.001456
C160	C	1.115508	-0.143695	-0.402153
C161	C	1.448842	0.189638	-0.068820
C162	C	1.782175	0.522972	0.264514
C163	C	1.102195	-0.051599	-0.420169
C164	C	1.435529	0.281734	-0.086836
C165	C	1.768862	0.615067	0.246498
C166	C	1.045526	-0.496442	-0.910644
C167	C	1.378859	-0.163109	-0.577311
C168	C	1.712192	0.170225	-0.243977
C169	C	1.058085	-0.479478	-0.997194
C170	C	1.391418	-0.146144	-0.663861
C171	C	1.724752	0.187189	-0.330527
C172	C	1.134018	-0.376946	-1.021343
C173	C	1.467352	-0.043613	-0.688010
C174	C	1.800685	0.289720	-0.354676
C175	C	1.121462	-0.393899	-0.934794
C176	C	1.454796	-0.060566	-0.601460
C177	C	1.788129	0.272768	-0.268127
C178	C	1.077216	-0.453648	-0.879450
C179	C	1.410549	-0.120315	-0.546117
C180	C	1.743883	0.213018	-0.212784
C181	C	1.153153	-0.351106	-0.903600
C182	C	1.486486	-0.017772	-0.570266
C183	C	1.819819	0.315561	-0.236933
C184	C	1.140601	-0.368060	-0.817057
C185	C	1.473934	-0.034727	-0.483724
C186	C	1.807267	0.298606	-0.150391
C187	C	1.096358	-0.427809	-0.761709
C188	C	1.429691	-0.094475	-0.428375
C189	C	1.763025	0.238858	-0.095042
C190	C	1.064664	-0.470603	-0.792908
C191	C	1.397997	-0.137270	-0.459575
C192	C	1.731330	0.196064	-0.126241
C193	C	1.197403	-0.291361	-0.958944
C194	C	1.530736	0.041972	-0.625610
C195	C	1.864070	0.375306	-0.292277
C196	C	1.229093	-0.248567	-0.927750
C197	C	1.562427	0.084766	-0.594417
C198	C	1.895760	0.418099	-0.261083
C199	C	1.216537	-0.265517	-0.841207
C200	C	1.549871	0.067816	-0.507874
C201	C	1.883204	0.401149	-0.174540
C202	C	1.172295	-0.325266	-0.785858
C203	C	1.505628	0.008068	-0.452525
C204	C	1.838961	0.341401	-0.119192
C205	C	1.248232	-0.222723	-0.810008
C206	C	1.581565	0.110610	-0.476675
C207	C	1.914898	0.443944	-0.143341
C208	C	1.235679	-0.239678	-0.723465
C209	C	1.569013	0.093656	-0.390132
C210	C	1.902346	0.426989	-0.056799
C211	C	1.159743	-0.342220	-0.699316
C212	C	1.493076	-0.008887	-0.365983
C213	C	1.826409	0.324446	-0.032649
C214	C	1.115572	-0.401929	-0.144590
C215	C	1.448905	-0.068595	0.188743
C216	C	1.782238	0.264738	0.522076
C217	C	1.102324	-0.419743	-0.052536
C218	C	1.435658	-0.086410	0.280798
C219	C	1.768991	0.246923	0.614131
H220	H	0.767845	-0.421997	-0.421801
H221	H	1.101179	-0.088664	-0.088468
H222	H	1.434512	0.244669	0.244866
H223	H	0.582117	-0.452639	-0.452316
H224	H	0.915450	-0.119306	-0.118982
H225	H	1.248783	0.214027	0.214351
H226	H	1.261371	-0.697090	-0.205290
H227	H	1.594705	-0.363757	0.128044
H228	H	1.928038	-0.030424	0.461377
H229	H	1.086142	-0.441615	-0.691240
H230	H	1.419475	-0.108282	-0.357907
H231	H	1.752809	0.225051	-0.024574
H232	H	1.032124	-1.021679	-0.514688
H233	H	1.365457	-0.688345	-0.181355
H234	H	1.698790	-0.355012	0.151978
H235	H	1.207623	-0.277560	-1.029411
H236	H	1.540957	0.055773	-0.696078
H237	H	1.874290	0.389106	-0.362744
H238	H	1.265121	-0.199922	-0.972822
H239	H	1.598454	0.133412	-0.639488
H240	H	1.931788	0.466745	-0.306155
H241	H	0.847286	-0.272097	-0.272535
H242	H	1.180619	0.061236	0.060799
H243	H	1.513952	0.394570	0.394132
H244	H	1.009476	-0.545075	-0.865583
H245	H	1.342809	-0.211742	-0.532250
H246	H	1.676142	0.121591	-0.198916
F247	F	1.276121	-0.985656	-0.185555
F248	F	1.609454	-0.652322	0.147778
F249	F	1.942787	-0.318989	0.481111
F250	F	1.017565	-0.534189	-0.734003
F251	F	1.350898	-0.200855	-0.400670
F252	F	1.684231	0.132478	-0.067337
H253	H	0.446937	-0.447557	-0.447266
H254	H	0.780271	-0.114224	-0.113933
H255	H	1.113604	0.219109	0.219401
F256	F	0.378053	-0.281562	-0.281957
F257	F	0.711386	0.051771	0.051376
F258	F	1.044719	0.385105	0.384710
F259	F	1.181019	-1.079281	-0.313874
F260	F	1.514353	-0.745947	0.019459
F261	F	1.847686	-0.412614	0.352792
H262	H	1.207537	-1.028434	-0.278082
H263	H	1.540871	-0.695100	0.055251
H264	H	1.874204	-0.361767	0.388585
F265	F	0.916170	-0.438113	-0.437826
F266	F	1.249503	-0.104780	-0.104493
F267	F	1.582836	0.228554	0.228840
H268	H	1.284175	-0.854084	-0.174609
H269	H	1.617508	-0.520750	0.158724
H270	H	1.950841	-0.187417	0.492058
F271	F	1.181109	-0.313362	-1.080251
F272	F	1.514443	0.019972	-0.746917
F273	F	1.847776	0.353305	-0.413584
H274	H	0.712106	-0.267023	-0.267485
H275	H	1.045440	0.066310	0.065848
H276	H	1.378773	0.399644	0.399182
F277	F	1.112644	-0.405806	-0.640411
F278	F	1.445977	-0.072473	-0.307078
F279	F	1.779310	0.260861	0.026255
H280	H	1.085936	-0.690336	-0.441885
H281	H	1.419269	-0.357003	-0.108551
H282	H	1.752603	-0.023669	0.224782
F283	F	1.017361	-0.733120	-0.534432
F284	F	1.350695	-0.399786	-0.201099
F285	F	1.684028	-0.066453	0.132235
H286	H	0.526379	-0.297661	-0.297995
H287	H	0.859712	0.035672	0.035339
H288	H	1.193045	0.369005	0.368672
F289	F	1.024350	-0.525027	-1.030389
F290	F	1.357684	-0.191694	-0.697055
F291	F	1.691017	0.141639	-0.363722
H292	H	1.123534	-0.653332	-0.391185
H293	H	1.456867	-0.319999	-0.057852
H294	H	1.790200	0.013334	0.275482
F295	F	1.269410	-0.194134	-0.690264
F296	F	1.602743	0.139199	-0.356931
F297	F	1.936077	0.472532	-0.023598
F298	F	0.998234	-0.850856	-0.560294
F299	F	1.331568	-0.517522	-0.226961
F300	F	1.664901	-0.184189	0.106372
F301	F	1.295328	-0.159144	-0.868916
F302	F	1.628661	0.174189	-0.535583
F303	F	1.961995	0.507523	-0.202250
