data_functionalizedCrystal
_audit_creation_method	'MofGen! by Chris Wilmer'
_symmetry_space_group_name_H-M	'P1'
_symmetry_Int_Tables_number	1
_symmetry_cell_setting	triclinic
loop_
_symmetry_equiv_pos_as_xyz
  x,y,z
_cell_length_a	27.440280
_cell_length_b	27.440279
_cell_length_c	14.809374
_cell_angle_alpha	65.414184
_cell_angle_beta	98.947344
_cell_angle_gamma	60.007051
loop_
_atom_site_label
_atom_site_type_symbol
_atom_site_fract_x
_atom_site_fract_y
_atom_site_fract_z
Zr1	Zr	0.459617	0.533234	-0.119773
O2	O	0.369578	0.634884	-0.265685
O3	O	0.487193	0.431591	-0.075072
O4	O	0.471214	0.533233	-0.265734
O5	O	0.398191	0.533240	0.075407
O6	O	0.551415	0.533225	-0.265740
O7	O	0.385557	0.533242	-0.075023
O8	O	0.579998	0.351406	0.075320
O9	O	0.369608	0.715060	-0.265653
O10	O	0.558838	0.473390	-0.055977
O11	O	0.508414	0.473395	0.056292
O12	O	0.489601	0.593066	-0.168188
O13	O	0.439176	0.593071	-0.055919
Zr14	Zr	0.607679	0.533220	0.120138
Zr15	Zr	0.587529	0.533222	-0.119782
Zr16	Zr	0.479767	0.533232	0.120147
Zr17	Zr	0.459664	0.661106	-0.119720
Zr18	Zr	0.607632	0.405349	0.120085
O19	O	0.580104	0.634863	0.075437
O20	O	0.551453	0.634866	-0.265698
O21	O	0.398229	0.634881	0.075449
O22	O	0.697718	0.431571	0.266050
O23	O	0.669067	0.431573	-0.075084
O24	O	0.515843	0.431588	0.266063
O25	O	0.669105	0.533214	-0.075043
O26	O	0.596082	0.533221	0.266099
O27	O	0.515881	0.533229	0.266104
O28	O	0.681739	0.533213	0.075388
O29	O	0.471281	0.715050	-0.265659
O30	O	0.596015	0.351405	0.266024
O31	O	0.697688	0.351395	0.266017
O32	O	0.681672	0.351396	0.075313
O33	O	0.385625	0.715058	-0.074949
O34	O	0.487298	0.715048	-0.074956
O35	O	0.577696	0.473389	0.168553
O36	O	0.628121	0.473384	0.056284
O37	O	0.558883	0.593059	-0.055927
O38	O	0.508458	0.593064	0.056341
C39	C	0.533589	0.373280	0.000117
C40	C	0.533569	0.318995	0.000095
C41	C	0.507320	0.084239	0.058793
C42	C	0.507307	0.135269	0.058778
O43	O	0.484935	0.161648	0.108640
N44	N	0.533619	0.160792	0.000160
C45	C	0.559951	0.135277	-0.058437
O46	O	0.582330	0.161671	-0.108296
C47	C	0.559967	0.084244	-0.058415
C48	C	0.533648	0.058729	0.000197
C49	C	0.481003	0.058724	0.117401
C50	C	0.481015	0.007698	0.117414
C51	C	0.507344	-0.017812	0.058818
C52	C	0.533660	0.007703	0.000210
C53	C	0.586303	0.058726	-0.117005
C54	C	0.586318	0.007689	-0.116977
C55	C	0.559999	-0.017825	-0.058365
C56	C	0.560001	-0.068833	-0.058373
N57	N	0.533689	-0.094355	0.000245
C58	C	0.507361	-0.068845	0.058840
C59	C	0.559915	0.242448	-0.058477
C60	C	0.559894	0.293483	-0.058506
C61	C	0.507251	0.293471	0.058710
C62	C	0.507268	0.242439	0.058732
C63	C	0.533603	0.216925	0.000141
C64	C	0.507387	-0.176002	0.058862
C65	C	0.507399	-0.227031	0.058866
C66	C	0.560045	-0.227017	-0.058346
C67	C	0.560030	-0.175991	-0.058355
C68	C	0.533701	-0.150486	0.000257
O69	O	0.582363	-0.095246	-0.108205
O70	O	0.484992	-0.095252	0.108703
C71	C	0.373649	0.533243	0.000193
C72	C	0.319347	0.533248	0.000197
C73	C	-0.024312	0.533213	-0.082693
C74	C	-0.075330	0.533208	-0.082693
O75	O	-0.107622	0.533182	-0.153151
N76	N	-0.093888	0.533208	0.000179
C77	C	-0.061420	0.533207	0.083064
O78	O	-0.081889	0.533206	0.153553
C79	C	-0.010400	0.533207	0.083068
C80	C	0.008150	0.533213	0.000184
C81	C	-0.005760	0.533218	-0.165569
C82	C	0.045253	0.533224	-0.165570
C83	C	0.077716	0.533225	-0.082693
C84	C	0.059164	0.533219	0.000183
C85	C	0.022069	0.533200	0.165956
C86	C	0.073092	0.533200	0.165954
C87	C	0.091642	0.533206	0.083070
C88	C	0.142640	0.533226	0.083060
N89	N	0.161197	0.533225	0.000187
C90	C	0.128735	0.533225	-0.082689
C91	C	-0.168565	0.533206	0.083049
C92	C	-0.219587	0.533211	0.083041
C93	C	-0.233492	0.533210	-0.082715
C94	C	-0.182472	0.533210	-0.082710
C95	C	-0.150007	0.533205	0.000177
C96	C	0.235868	0.533238	-0.082684
C97	C	0.286885	0.533248	-0.082679
C98	C	0.300788	0.533244	0.083079
C99	C	0.249774	0.533239	0.083072
C100	C	0.217315	0.533234	0.000185
O101	O	0.174963	0.533248	0.153484
O102	O	0.149217	0.533216	-0.153158
C103	C	0.693647	0.533212	0.000172
C104	C	0.747949	0.533206	0.000168
C105	C	0.508444	0.533230	-0.299920
C106	C	0.499889	0.533230	-0.401772
C107	C	0.533707	0.693175	0.000248
C108	C	0.533728	0.747459	0.000270
C109	C	0.538066	0.533227	-0.447184
C110	C	0.529225	0.533228	-0.552453
C111	C	0.558853	0.533225	0.300285
C112	C	0.567407	0.533224	0.402137
C113	C	0.693587	0.373264	0.000106
C114	C	0.747869	0.318974	0.000080
C115	C	0.558793	0.373277	0.300219
C116	C	0.567327	0.318992	0.402049
C117	C	0.718792	0.373262	0.300209
C118	C	0.781628	0.318971	0.402035
C119	C	0.348504	0.693193	-0.299844
C120	C	0.285668	0.747483	-0.401670
C121	C	0.373709	0.693190	0.000259
C122	C	0.319427	0.747480	0.000285
C123	C	0.508503	0.693177	-0.299855
C124	C	0.499969	0.747462	-0.401684
C125	C	0.737195	0.293483	-0.058541
C126	C	0.788192	0.242479	-0.058588
C127	C	0.849863	0.216964	-0.000007
C128	C	0.860536	0.242460	0.058616
C129	C	0.809539	0.293467	0.058656
C130	C	0.607500	0.293495	0.508479
C131	C	0.615518	0.242496	0.604168
C132	C	0.583365	0.216990	0.593425
C133	C	0.543187	0.242491	0.486985
C134	C	0.535167	0.293494	0.391298
C135	C	0.837463	0.293473	0.391250
C136	C	0.896508	0.242468	0.486917
C137	C	0.899717	0.216959	0.593368
C138	C	0.843876	0.242462	0.604150
C139	C	0.784832	0.293469	0.508484
C140	C	0.229833	0.772988	-0.390885
C141	C	0.170788	0.824008	-0.486553
C142	C	0.167579	0.849520	-0.593003
C143	C	0.223420	0.824014	-0.603786
C144	C	0.282464	0.772998	-0.508119
C145	C	0.330100	0.772977	0.058896
C146	C	0.279101	0.823995	0.058916
C147	C	0.217430	0.849512	0.000332
C148	C	0.206757	0.824013	-0.058287
C149	C	0.257755	0.772999	-0.058313
C150	C	0.532131	0.772952	-0.390906
C151	C	0.524125	0.823952	-0.486577
C152	C	0.483953	0.849465	-0.593025
C153	C	0.451790	0.823971	-0.603801
C154	C	0.459800	0.772968	-0.508131
H155	H	0.485946	-0.155241	0.106587
H156	H	0.232434	0.752219	-0.304216
H157	H	0.581317	0.314261	-0.106248
C158	C	0.065526	0.533108	-0.255380
C159	C	0.128528	0.474153	-0.204930
C160	C	0.147226	0.474021	-0.287626
H161	H	0.038952	0.533067	-0.304767
H162	H	0.062058	0.573049	-0.296301
H163	H	0.131992	0.434222	-0.164027
H164	H	0.155117	0.474181	-0.155550
H165	H	0.143758	0.513962	-0.328547
H166	H	0.120648	0.473982	-0.337009
H167	H	0.189976	0.434024	-0.253407
C168	C	0.588502	0.214870	-0.122225
C169	C	0.611523	0.248163	-0.173583
C170	C	0.637854	0.222785	-0.232327
H171	H	0.622346	0.166723	-0.071763
H172	H	0.556896	0.223232	-0.177717
H173	H	0.643126	0.239795	-0.118098
H174	H	0.577691	0.296309	-0.224062
H175	H	0.606248	0.231147	-0.287818
H176	H	0.671695	0.174639	-0.181857
H177	H	0.653471	0.245375	-0.267188
H178	H	0.739372	0.314223	0.517281
C179	C	-0.239722	0.533319	0.172991
C180	C	-0.257215	0.592272	0.167722
C181	C	-0.275754	0.592387	0.250582
H182	H	-0.274772	0.533352	0.161228
H183	H	-0.205373	0.493377	0.244544
H184	H	-0.291560	0.632204	0.096186
H185	H	-0.222174	0.592252	0.179498
H186	H	-0.241405	0.552444	0.322135
H187	H	-0.310803	0.592417	0.238812
H188	H	-0.287620	0.632382	0.247026
H189	H	-0.167372	0.533215	-0.150201
H190	H	0.633685	0.314257	0.517247
C191	C	0.670197	0.321318	-0.122250
C192	C	0.632246	0.392296	-0.203837
C193	C	0.570524	0.417962	-0.262546
H194	H	0.671060	0.298908	-0.157269
H195	H	0.653203	0.313000	-0.071708
H196	H	0.649236	0.400608	-0.254371
H197	H	0.631365	0.414724	-0.168848
H198	H	0.553530	0.409644	-0.212004
H199	H	0.571393	0.395547	-0.297558
H200	H	0.544765	0.466124	-0.317902
C201	C	0.110238	0.851576	-0.474596
C202	C	0.125693	0.818291	-0.360893
C203	C	0.069934	0.843659	-0.349834
H204	H	0.086079	0.899725	-0.509363
H205	H	0.086095	0.843201	-0.509444
H206	H	0.149826	0.826671	-0.326061
H207	H	0.149845	0.770143	-0.326103
H208	H	0.045790	0.835284	-0.384681
H209	H	0.045778	0.891808	-0.384606
H210	H	0.080412	0.821075	-0.272687
H211	H	0.648236	0.221738	0.690827
C212	C	0.001949	0.533294	0.255923
C213	C	-0.015537	0.592240	0.250671
C214	C	-0.034063	0.592343	0.333548
H215	H	-0.033102	0.533327	0.244168
H216	H	0.036302	0.493347	0.327468
H217	H	-0.049887	0.632177	0.179143
H218	H	0.019505	0.592220	0.262439
H219	H	0.000291	0.552396	0.405094
H220	H	-0.069112	0.592374	0.321786
H221	H	-0.045923	0.632334	0.330003
H222	H	0.564843	0.752187	-0.304239
H223	H	0.834862	0.314235	0.304581
H224	H	0.119497	0.891061	-0.670892
H225	H	0.477436	0.890995	-0.670916
H226	H	0.220800	0.844792	-0.690469
C227	C	0.477002	0.533125	-0.604532
C228	C	0.503955	0.474173	-0.604220
C229	C	0.455867	0.474059	-0.652199
H230	H	0.454167	0.533092	-0.562464
H231	H	0.448938	0.573068	-0.679375
H232	H	0.532008	0.434240	-0.529390
H233	H	0.526785	0.474194	-0.646294
H234	H	0.427803	0.514003	-0.727042
H235	H	0.433035	0.474028	-0.610126
H236	H	0.474147	0.434065	-0.652003
H237	H	0.607765	-0.013083	-0.164688
H238	H	0.502456	0.314246	0.304642
H239	H	0.485964	-0.247801	0.106594
C240	C	0.424976	0.745186	-0.519756
C241	C	0.469126	0.674211	-0.468298
C242	C	0.437062	0.648603	-0.478996
H243	H	0.398347	0.753493	-0.484843
H244	H	0.399913	0.767647	-0.596842
H245	H	0.494178	0.651757	-0.391227
H246	H	0.495757	0.665885	-0.503199
H247	H	0.411999	0.671064	-0.556082
H248	H	0.410434	0.656915	-0.444084
H249	H	0.467013	0.600445	-0.444094
C250	C	0.307157	0.533141	-0.172500
C251	C	0.370161	0.474192	-0.122057
C252	C	0.388859	0.474073	-0.204758
H253	H	0.280586	0.533101	-0.221896
H254	H	0.303684	0.573086	-0.213412
H255	H	0.373629	0.434258	-0.081164
H256	H	0.396747	0.474220	-0.072670
H257	H	0.385386	0.514018	-0.245670
H258	H	0.362284	0.474035	-0.254149
H259	H	0.431611	0.434080	-0.170544
H260	H	0.550316	0.844705	-0.477780
C261	C	0.776573	0.214724	-0.122060
C262	C	0.748921	0.185428	-0.079163
C263	C	0.738214	0.159846	-0.137593
H264	H	0.748882	0.251292	-0.199152
H265	H	0.815765	0.180662	-0.113682
H266	H	0.709735	0.219486	-0.087551
H267	H	0.776603	0.148851	-0.002078
H268	H	0.777406	0.125784	-0.129215
H269	H	0.710525	0.196418	-0.214682
H270	H	0.719457	0.139960	-0.108489
H271	H	-0.142136	0.533207	0.150545
C272	C	0.957058	0.214844	0.474961
C273	C	0.941603	0.248085	0.361258
C274	C	0.997362	0.222651	0.350199
H275	H	0.981240	0.223197	0.509753
H276	H	0.981179	0.166686	0.509784
H277	H	0.917492	0.296232	0.326450
H278	H	0.917429	0.239736	0.326443
H279	H	1.021483	0.174493	0.385021
H280	H	1.021540	0.231005	0.384995
H281	H	0.986884	0.245197	0.273052
H282	H	0.327925	0.752232	-0.516914
H283	H	0.891382	0.175430	-0.000047
C284	C	0.619793	0.533027	-0.545458
C285	C	0.618221	0.532941	-0.451348
C286	C	0.666522	0.532666	-0.402957
H287	H	0.659731	0.493002	-0.523577
H288	H	0.613679	0.572935	-0.598352
H289	H	0.624340	0.493036	-0.398464
H290	H	0.578294	0.572962	-0.473198
H291	H	0.660407	0.572575	-0.455852
H292	H	0.706457	0.492641	-0.381084
H293	H	0.665458	0.532614	-0.339105
H294	H	0.175910	0.891051	0.000362
C295	C	-0.268798	0.533166	-0.172562
C296	C	-0.317435	0.533142	-0.154796
C297	C	-0.349966	0.533092	-0.237525
H298	H	-0.286480	0.573117	-0.244150
H299	H	-0.240189	0.493184	-0.169129
H300	H	-0.346039	0.573120	-0.158239
H301	H	-0.299770	0.493194	-0.083224
H302	H	-0.321357	0.493110	-0.234092
H303	H	-0.367645	0.573044	-0.309107
H304	H	-0.382966	0.533069	-0.225476
C305	C	0.408174	0.851793	-0.719476
C306	C	0.408033	0.901929	-0.800940
C307	C	0.367852	0.927586	-0.907514
H308	H	0.422827	0.815251	-0.728068
H309	H	0.366351	0.871742	-0.727925
H310	H	0.449847	0.881979	-0.792495
H311	H	0.393374	0.938483	-0.792385
H312	H	0.326029	0.947535	-0.915962
H313	H	0.382509	0.891039	-0.916094
H314	H	0.367746	0.961610	-0.962799
C315	C	0.588661	-0.148396	-0.122015
C316	C	0.611732	-0.181672	-0.173308
C317	C	0.638126	-0.156286	-0.231938
H318	H	0.557096	-0.100247	-0.177537
H319	H	0.622490	-0.156765	-0.071460
H320	H	0.577907	-0.173297	-0.223859
H321	H	0.643304	-0.229820	-0.117811
H322	H	0.671955	-0.164656	-0.181383
H323	H	0.606557	-0.108138	-0.287454
H324	H	0.653788	-0.178864	-0.266738
H325	H	0.846498	0.221685	0.690835
C326	C	0.452405	-0.019907	0.181111
C327	C	0.429346	0.013366	0.232413
C328	C	0.402976	-0.012036	0.291090
H329	H	0.418574	-0.011556	0.130616
H330	H	0.483997	-0.068064	0.236629
H331	H	0.397757	0.061511	0.176902
H332	H	0.463165	0.005017	0.282925
H333	H	0.434568	-0.060192	0.346607
H334	H	0.369147	-0.003683	0.240587
H335	H	0.387333	0.010532	0.325913
C336	C	0.927547	0.214637	0.122203
C337	C	0.969918	0.164497	0.109640
C338	C	1.031655	0.138839	0.168219
H339	H	0.929707	0.251178	0.093355
H340	H	0.938528	0.194690	0.199321
H341	H	0.958940	0.184444	0.032538
H342	H	0.967777	0.127944	0.138494
H343	H	1.042636	0.118893	0.245337
H344	H	1.033809	0.175385	0.139366
H345	H	1.060412	0.104813	0.159712
C346	C	0.591955	0.161712	0.697282
C347	C	0.533223	0.186528	0.697060
C348	C	0.541117	0.135628	0.792726
H349	H	0.608640	0.121882	0.697383
H350	H	0.620460	0.150188	0.762232
H351	H	0.504727	0.198042	0.632127
H352	H	0.516528	0.226351	0.696976
H353	H	0.569622	0.124104	0.857676
H354	H	0.557803	0.095801	0.792818
H355	H	0.501270	0.152461	0.792594
C356	C	0.963886	0.161550	0.697094
C357	C	1.012094	0.144670	0.664851
C358	C	1.071216	0.093623	0.760368
H359	H	0.967630	0.178193	0.740472
H360	H	0.967551	0.121721	0.740375
H361	H	1.008431	0.184492	0.621589
H362	H	1.008371	0.128016	0.621487
H363	H	1.074880	0.053794	0.803649
H364	H	1.074953	0.110272	0.803739
H365	H	1.103931	0.082159	0.738505
H366	H	0.380312	0.752205	0.106610
H367	H	0.099525	0.533193	0.233454
H368	H	0.517010	0.221717	0.478254
C369	C	0.290622	0.851649	0.122675
C370	C	0.269991	0.839262	0.204293
C371	C	0.280589	0.864730	0.263043
H372	H	0.334638	0.829167	0.157670
H373	H	0.267776	0.899818	0.072162
H374	H	0.292838	0.791102	0.254799
H375	H	0.225976	0.861745	0.169328
H376	H	0.257743	0.912900	0.212530
H377	H	0.324606	0.842246	0.298031
H378	H	0.266588	0.856335	0.318421
C379	C	0.447669	0.533127	-0.453855
C380	C	0.474621	0.474176	-0.453542
C381	C	0.426534	0.474062	-0.501522
H382	H	0.424834	0.533094	-0.411786
H383	H	0.419605	0.573071	-0.528697
H384	H	0.502674	0.434243	-0.378712
H385	H	0.497452	0.474196	-0.495616
H386	H	0.398470	0.514005	-0.576365
H387	H	0.403702	0.474031	-0.459448
H388	H	0.444814	0.434068	-0.501326
H389	H	0.459564	0.079487	0.165122
H390	H	0.818240	0.314216	0.106399
C391	C	0.139800	0.851643	-0.121672
C392	C	0.114980	0.839222	-0.046852
C393	C	0.053303	0.864655	-0.105191
H394	H	0.113885	0.899807	-0.177101
H395	H	0.140716	0.829144	-0.156556
H396	H	0.114059	0.861723	-0.011985
H397	H	0.140876	0.791063	0.008579
H398	H	0.054219	0.842155	-0.140075
H399	H	0.027394	0.912818	-0.160618
H400	H	0.036457	0.856225	-0.054433
C401	C	0.478731	0.214768	0.122547
C402	C	0.455701	0.248014	0.173899
C403	C	0.429432	0.222523	0.232738
H404	H	0.444901	0.223072	0.072144
H405	H	0.510373	0.166617	0.178049
H406	H	0.424062	0.296154	0.118404
H407	H	0.489519	0.239712	0.224320
H408	H	0.461074	0.174371	0.288239
H409	H	0.395605	0.230829	0.182327
H410	H	0.413808	0.245071	0.267595
C411	C	0.614942	0.086303	-0.180657
C412	C	0.638018	0.053013	-0.231929
C413	C	0.664415	0.078390	-0.290564
H414	H	0.583379	0.134450	-0.236191
H415	H	0.648770	0.077938	-0.130108
H416	H	0.604194	0.061382	-0.282474
H417	H	0.669589	0.004866	-0.176420
H418	H	0.698243	0.070026	-0.240015
H419	H	0.632848	0.126537	-0.346092
H420	H	0.680080	0.055802	-0.325350
C421	C	0.246139	0.745239	-0.121771
C422	C	0.218476	0.715956	-0.078882
C423	C	0.207768	0.690372	-0.137304
H424	H	0.218454	0.781804	-0.198866
H425	H	0.285331	0.711169	-0.113380
H426	H	0.179289	0.750023	-0.087283
H427	H	0.246151	0.679383	-0.001794
H428	H	0.246960	0.656302	-0.128913
H429	H	0.180084	0.726940	-0.214396
H430	H	0.189003	0.670495	-0.108206
H431	H	0.234664	0.533244	0.150555
H432	H	0.485814	0.314251	0.106423
H433	H	0.581479	-0.247793	-0.106057
H434	H	0.209446	0.533233	-0.150177
H435	H	-0.032186	0.533215	-0.233058
C436	C	0.335931	0.533399	0.172934
C437	C	0.293606	0.592370	0.167627
C438	C	0.325962	0.592541	0.250370
H439	H	0.353564	0.493483	0.244533
H440	H	0.368954	0.533442	0.161047
H441	H	0.260595	0.592320	0.179522
H442	H	0.275972	0.632295	0.096046
H443	H	0.358984	0.592584	0.238483
H444	H	0.343593	0.552623	0.321963
H445	H	0.297251	0.632555	0.246773
H446	H	0.577297	0.533219	-0.408127
