data_functionalizedCrystal
_audit_creation_method	'MofGen! by Chris Wilmer'
_symmetry_space_group_name_H-M	'P1'
_symmetry_Int_Tables_number	1
_symmetry_cell_setting	triclinic
loop_
_symmetry_equiv_pos_as_xyz
  x,y,z
_cell_length_a	13.897441
_cell_length_b	13.897449
_cell_length_c	13.897448
_cell_angle_alpha	90.018972
_cell_angle_beta	90.030599
_cell_angle_gamma	90.020733
loop_
_atom_site_label
_atom_site_type_symbol
_atom_site_fract_x
_atom_site_fract_y
_atom_site_fract_z
Zn1	Zn	-0.545381	-1.474703	0.383951
Zn2	Zn	-0.212048	-1.141369	0.717285
Zn3	Zn	0.121285	-0.808036	1.050618
Zn4	Zn	-0.384083	-1.474597	0.545273
Zn5	Zn	-0.050749	-1.141263	0.878606
Zn6	Zn	0.282584	-0.807930	1.211940
Zn7	Zn	-0.384100	-1.313392	0.383997
Zn8	Zn	-0.050766	-0.980058	0.717330
Zn9	Zn	0.282567	-0.646725	1.050664
Zn10	Zn	-0.545335	-1.313373	0.545210
Zn11	Zn	-0.212002	-0.980040	0.878543
Zn12	Zn	0.121331	-0.646707	1.211876
O13	O	-0.464725	-1.394016	0.464608
O14	O	-0.131391	-1.060683	0.797941
O15	O	0.201942	-0.727349	1.131274
O16	O	-0.523997	-1.609670	0.405358
O17	O	-0.190663	-1.276337	0.738692
O18	O	0.142670	-0.943003	1.072025
O19	O	-0.249103	-1.453176	0.523925
O20	O	0.084230	-1.119842	0.857258
O21	O	0.417564	-0.786509	1.190592
O22	O	-0.405520	-1.334842	0.249009
O23	O	-0.072187	-1.001509	0.582343
O24	O	0.261146	-0.668175	0.915676
O25	O	-0.405491	-1.609592	0.523881
O26	O	-0.072158	-1.276259	0.857214
O27	O	0.261175	-0.942926	1.190547
O28	O	-0.524013	-1.453356	0.248976
O29	O	-0.190680	-1.120023	0.582309
O30	O	0.142653	-0.786690	0.915642
O31	O	-0.249116	-1.334739	0.405436
O32	O	0.084218	-1.001406	0.738770
O33	O	0.417551	-0.668073	1.072103
O34	O	-0.405476	-1.178408	0.405375
O35	O	-0.072142	-0.845074	0.738708
O36	O	0.261191	-0.511741	1.072042
O37	O	-0.680323	-1.334811	0.523773
O38	O	-0.346990	-1.001477	0.857106
O39	O	-0.013656	-0.668144	1.190439
O40	O	-0.523935	-1.178394	0.523817
O41	O	-0.190601	-0.845061	0.857150
O42	O	0.142732	-0.511728	1.190484
O43	O	-0.680357	-1.453339	0.405297
O44	O	-0.347023	-1.120005	0.738630
O45	O	-0.013690	-0.786672	1.071963
O46	O	-0.405447	-1.453158	0.680246
O47	O	-0.072113	-1.119825	1.013579
O48	O	0.261220	-0.786491	1.346913
O49	O	-0.523918	-1.334708	0.680200
O50	O	-0.190585	-1.001375	1.013533
O51	O	0.142748	-0.668041	1.346866
C52	C	-0.464703	-1.143402	0.464595
C53	C	-0.131369	-0.810068	0.797928
C54	C	0.201964	-0.476735	1.131261
C55	C	-0.464716	-1.036188	0.464613
C56	C	-0.131383	-0.702855	0.797946
C57	C	0.201951	-0.369521	1.131279
C58	C	-0.464697	-1.393946	0.715222
C59	C	-0.131363	-1.060612	1.048555
C60	C	0.201970	-0.727279	1.381889
C61	C	-0.464717	-1.394004	0.822436
C62	C	-0.131384	-1.060671	1.155769
C63	C	0.201950	-0.727337	1.489103
C64	C	-0.716318	-1.394085	0.464522
C65	C	-0.382984	-1.060751	0.797856
C66	C	-0.049651	-0.727418	1.131189
C67	C	-0.823532	-1.394114	0.464486
C68	C	-0.490198	-1.060780	0.797819
C69	C	-0.156865	-0.727447	1.131153
C70	C	-1.019827	-1.394140	0.464421
C71	C	-0.686494	-1.060807	0.797754
C72	C	-0.353160	-0.727473	1.131088
C73	C	-0.910594	-1.394122	0.464460
C74	C	-0.577261	-1.060789	0.797793
C75	C	-0.243928	-0.727456	1.131126
C76	C	-0.214110	-1.394003	0.464623
C77	C	0.119223	-1.060670	0.797956
C78	C	0.452556	-0.727337	1.131290
C79	C	-0.106897	-1.394161	0.464388
C80	C	0.226436	-1.060828	0.797721
C81	C	0.559770	-0.727494	1.131054
C82	C	-0.464747	-1.645609	0.464621
C83	C	-0.131414	-1.312276	0.797955
C84	C	0.201919	-0.978942	1.131288
C85	C	-0.464757	-1.752823	0.464627
C86	C	-0.131424	-1.419490	0.797960
C87	C	0.201910	-1.086156	1.131294
C88	C	-0.464741	-0.839893	0.464616
C89	C	-0.131408	-0.506559	0.797949
C90	C	0.201925	-0.173226	1.131283
C91	C	-0.464725	-0.949125	0.464611
C92	C	-0.131391	-0.615792	0.797944
C93	C	0.201942	-0.282459	1.131278
C94	C	-0.464774	-1.394113	0.213015
C95	C	-0.131440	-1.060780	0.546348
C96	C	0.201893	-0.727446	0.879681
C97	C	-0.464795	-1.394154	0.105801
C98	C	-0.131461	-1.060821	0.439134
C99	C	0.201872	-0.727488	0.772467
C100	C	-0.464778	-1.394105	1.018731
C101	C	-0.131444	-1.060772	1.352064
C102	C	0.201889	-0.727438	1.685398
C103	C	-0.464747	-1.394046	0.909499
C104	C	-0.131413	-1.060713	1.242832
C105	C	0.201920	-0.727379	1.576165
