data_functionalizedCrystal
_audit_creation_method	'MofGen! by Chris Wilmer'
_symmetry_space_group_name_H-M	'P1'
_symmetry_Int_Tables_number	1
_symmetry_cell_setting	triclinic
loop_
_symmetry_equiv_pos_as_xyz
  x,y,z
_cell_length_a	23.532361
_cell_length_b	22.010155
_cell_length_c	10.654550
_cell_angle_alpha	89.996780
_cell_angle_beta	96.342715
_cell_angle_gamma	90.011417
loop_
_atom_site_label
_atom_site_type_symbol
_atom_site_fract_x
_atom_site_fract_y
_atom_site_fract_z
O1	O	0.756277	0.050463	-0.152157
O2	O	0.590554	0.050477	-0.174274
O3	O	0.677226	0.050467	0.019646
O4	O	0.669606	0.050473	-0.346077
O5	O	0.677200	-0.050583	0.019646
O6	O	0.590528	-0.050573	-0.174274
O7	O	0.756251	-0.050588	-0.152157
Cu8	Cu	0.673387	-0.059807	-0.163216
Cu9	Cu	0.673418	0.059697	-0.163216
O10	O	0.669579	-0.050578	-0.346077
C11	C	0.569321	-0.000046	-0.173721
C12	C	0.506092	-0.000041	-0.172055
N13	N	0.673369	-0.143860	-0.163215
C14	C	0.232815	0.055038	-0.164771
C15	C	0.292225	0.055040	-0.166348
O16	O	0.322968	0.101884	-0.167120
N17	N	0.321921	-0.000043	-0.167144
C18	C	0.292206	-0.055131	-0.166351
O19	O	0.322920	-0.101983	-0.167172
C20	C	0.232797	-0.055132	-0.164766
C21	C	0.203103	-0.000045	-0.163982
C22	C	0.203121	0.110120	-0.163987
C23	C	0.143715	0.110118	-0.162413
C24	C	0.114003	0.055035	-0.161624
C25	C	0.143697	-0.000047	-0.162408
C26	C	0.203083	-0.110219	-0.163964
C27	C	0.143670	-0.110215	-0.162377
C28	C	0.113976	-0.055129	-0.161594
C29	C	0.054579	-0.055133	-0.160045
N30	N	0.024882	-0.000050	-0.159249
C31	C	0.054594	0.055034	-0.160038
C32	C	0.416967	-0.055125	-0.169678
C33	C	0.476374	-0.055125	-0.171273
C34	C	0.476390	0.055046	-0.171267
C35	C	0.416981	0.055045	-0.169681
C36	C	0.387271	-0.000042	-0.168882
C37	C	-0.070163	0.055026	-0.156734
C38	C	-0.129574	0.055019	-0.155165
C39	C	-0.129584	-0.055151	-0.155164
C40	C	-0.070178	-0.055145	-0.156740
C41	C	-0.040469	-0.000051	-0.157520
O42	O	0.023798	-0.101953	-0.159267
O43	O	0.023874	0.101878	-0.159200
C44	C	0.708258	-0.563641	-0.238966
C45	C	0.708265	-0.627249	-0.238963
O46	O	0.737908	-0.660142	-0.303361
N47	N	0.673429	-0.659067	-0.163201
C48	C	0.638589	-0.627274	-0.087428
O49	O	0.608960	-0.660178	-0.022986
C50	C	0.638586	-0.563667	-0.087426
C51	C	0.673419	-0.531853	-0.163202
C52	C	0.743089	-0.531826	-0.314735
C53	C	0.743082	-0.468223	-0.314739
C54	C	0.708243	-0.436435	-0.238975
C55	C	0.673412	-0.468249	-0.163206
C56	C	0.603749	-0.531876	-0.011647
C57	C	0.603749	-0.468265	-0.011650
C58	C	0.638583	-0.436450	-0.087426
C59	C	0.638565	-0.372858	-0.087447
N60	N	0.673401	-0.341040	-0.163208
C61	C	0.708240	-0.372828	-0.238972
C62	C	0.638600	-0.760852	-0.087438
C63	C	0.638599	-0.824457	-0.087447
C64	C	0.708276	-0.824427	-0.238980
C65	C	0.708273	-0.760821	-0.238977
C66	C	0.673435	-0.729034	-0.163200
C67	C	0.708221	-0.239257	-0.238977
C68	C	0.708208	-0.175648	-0.238979
C69	C	0.638534	-0.175683	-0.087442
C70	C	0.638544	-0.239286	-0.087444
C71	C	0.673392	-0.271072	-0.163216
O72	O	0.608939	-0.339924	-0.023078
O73	O	0.737870	-0.339916	-0.303391
C74	C	0.777484	-0.000063	-0.152711
C75	C	0.840714	-0.000064	-0.154376
C76	C	0.676654	-0.000057	0.066426
C77	C	0.674979	-0.000055	0.205815
N78	N	0.673441	0.143749	-0.163206
C79	C	0.670152	-0.000052	-0.392857
C80	C	0.671826	-0.000050	-0.532247
C81	C	0.726010	-0.000061	0.286937
C82	C	0.724434	-0.000057	0.417907
C83	C	0.620791	-0.000042	0.386622
C84	C	0.622368	-0.000042	0.255654
C85	C	0.785848	-0.000072	0.305000
C86	C	0.784271	-0.000067	0.435970
H87	H	-0.153749	0.099879	-0.154531
H88	H	0.804891	-0.043705	0.269984
C89	C	-0.009356	-0.119063	-0.266479
C90	C	-0.037538	-0.115697	-0.157615
H91	H	0.010788	-0.156448	-0.267012
H92	H	0.016844	-0.086263	-0.267158
H93	H	-0.036591	-0.116769	-0.339099
H94	H	-0.010303	-0.117986	-0.084995
H95	H	-0.063741	-0.148506	-0.156924
H96	H	0.227250	-0.155076	-0.164598
C97	C	0.860830	-0.039847	0.580298
C98	C	0.814680	-0.057161	0.493337
H99	H	0.879600	-0.075094	0.615708
H100	H	0.847243	-0.016349	0.645541
H101	H	0.886950	-0.016364	0.538612
H102	H	0.788557	-0.080640	0.535025
H103	H	0.828266	-0.080669	0.428084
H104	H	0.802367	0.043562	0.482193
C105	C	0.561924	-0.310845	-0.080463
C106	C	0.600250	-0.274257	-0.004157
H107	H	0.538284	-0.332427	-0.029035
H108	H	0.582675	-0.338882	-0.125563
H109	H	0.538815	-0.286035	-0.138528
H110	H	0.623362	-0.299068	0.053902
H111	H	0.579498	-0.246217	0.040964
H112	H	-0.045980	0.099888	-0.157371
H113	H	0.580814	-0.000029	0.189608
H114	H	0.610168	-0.149789	-0.025760
C115	C	0.518504	-0.000022	0.342542
C116	C	0.562962	-0.000029	0.441408
H117	H	0.482802	-0.000010	0.376365
H118	H	0.521262	-0.035261	0.292120
H119	H	0.521291	0.035216	0.292102
H120	H	0.560178	-0.035270	0.491842
H121	H	0.560203	0.035213	0.491850
C122	C	0.527128	-0.603419	-0.004638
C123	C	0.565463	-0.566836	0.071658
H124	H	0.503490	-0.624999	0.046799
H125	H	0.547873	-0.631459	-0.049746
H126	H	0.504018	-0.578607	-0.062695
H127	H	0.588576	-0.591649	0.129709
H128	H	0.544717	-0.538793	0.116787
C129	C	0.569719	-0.767280	0.062329
C130	C	0.600294	-0.725914	-0.004155
H131	H	0.546069	-0.745712	0.113737
H132	H	0.595727	-0.792080	0.114088
H133	H	0.546619	-0.792095	0.004246
H134	H	0.623397	-0.701101	0.053929
H135	H	0.574283	-0.701103	-0.055918
C136	C	0.197152	0.219014	-0.163844
C137	C	0.235773	0.170675	-0.164865
H138	H	0.217307	0.256400	-0.164402
H139	H	0.178043	0.216720	-0.089988
H140	H	0.169919	0.216709	-0.236466
H141	H	0.263004	0.172978	-0.092238
H142	H	0.254891	0.172971	-0.238729
C143	C	0.070944	0.174052	-0.268590
C144	C	0.111083	0.170673	-0.161537
H145	H	0.050806	0.211441	-0.268047
H146	H	0.044741	0.141257	-0.267887
H147	H	0.090067	0.171761	-0.342439
H148	H	0.091959	0.172960	-0.087688
H149	H	0.137290	0.203477	-0.162229
H150	H	0.392780	-0.099987	-0.169044
C151	C	0.777087	-0.232821	-0.388775
C152	C	0.746522	-0.274189	-0.322274
H153	H	0.800727	-0.254388	-0.440207
H154	H	0.800191	-0.208009	-0.330712
H155	H	0.751069	-0.208018	-0.440524
H156	H	0.772540	-0.298989	-0.270518
H157	H	0.723416	-0.299011	-0.380344
H158	H	0.809263	0.042213	0.276392
C159	C	0.819698	-0.396669	-0.321712
C160	C	0.781372	-0.433253	-0.398027
H161	H	0.843335	-0.375080	-0.373135
H162	H	0.842805	-0.421477	-0.263661
H163	H	0.798944	-0.368632	-0.276599
H164	H	0.802127	-0.461293	-0.443133
H165	H	0.758263	-0.408442	-0.456101
H166	H	0.392808	0.099902	-0.169044
H167	H	0.500545	-0.099982	-0.171931
C168	C	0.567473	0.103958	-0.173668
C169	C	0.509058	0.115597	-0.172121
H170	H	0.587641	0.141338	-0.174189
H171	H	0.573142	0.081333	-0.247165
H172	H	0.581252	0.081319	-0.100686
H173	H	0.495277	0.138232	-0.245108
H174	H	0.503385	0.138232	-0.098617
C175	C	0.149628	-0.219116	-0.162531
C176	C	0.111013	-0.170771	-0.161506
H177	H	0.129466	-0.256499	-0.162004
H178	H	0.176854	-0.216822	-0.089911
H179	H	0.168745	-0.216817	-0.236390
H180	H	0.091899	-0.173067	-0.087643
H181	H	0.083777	-0.173065	-0.234133
C182	C	-0.220665	-0.104059	-0.152734
C183	C	-0.162251	-0.115697	-0.154292
H184	H	-0.240832	-0.141439	-0.152181
H185	H	-0.234449	-0.081431	-0.225713
H186	H	-0.226331	-0.081422	-0.079235
H187	H	-0.156585	-0.138331	-0.227796
H188	H	-0.148463	-0.138335	-0.081305
H189	H	0.736637	-0.734922	-0.300681
C190	C	0.811950	-0.525391	-0.464528
C191	C	0.781385	-0.566761	-0.398033
H192	H	0.835589	-0.546957	-0.515967
H193	H	0.835057	-0.500583	-0.406461
H194	H	0.785933	-0.500584	-0.516269
H195	H	0.807403	-0.591565	-0.346285
H196	H	0.758277	-0.591580	-0.456107
C197	C	0.777153	-0.818025	-0.388768
C198	C	0.746576	-0.859377	-0.322258
H199	H	0.800793	-0.839604	-0.440182
H200	H	0.800258	-0.793211	-0.330711
H201	H	0.751143	-0.793222	-0.440535
H202	H	0.772586	-0.884177	-0.270483
H203	H	0.723468	-0.884201	-0.380322
C204	C	0.534879	-0.474688	0.138142
C205	C	0.565450	-0.433325	0.071642
H206	H	0.511233	-0.453117	0.189553
H207	H	0.560889	-0.499487	0.189898
H208	H	0.511776	-0.499505	0.080067
H209	H	0.588557	-0.408511	0.129717
H210	H	0.539438	-0.408516	0.019881
H211	H	0.736574	-0.149747	-0.300691
H212	H	0.610228	-0.850355	-0.025757
