data_functionalizedCrystal
_audit_creation_method	'MofGen! by Chris Wilmer'
_symmetry_space_group_name_H-M	'P1'
_symmetry_Int_Tables_number	1
_symmetry_cell_setting	triclinic
loop_
_symmetry_equiv_pos_as_xyz
  x,y,z
_cell_length_a	6.817900
_cell_length_b	11.102288
_cell_length_c	16.418042
_cell_angle_alpha	93.889468
_cell_angle_beta	103.389568
_cell_angle_gamma	108.605689
loop_
_atom_site_label
_atom_site_type_symbol
_atom_site_fract_x
_atom_site_fract_y
_atom_site_fract_z
V1	V	-4.051821	-0.176872	-0.261154
O2	O	-4.011990	0.007436	-0.256182
O3	O	-4.029007	-0.349685	-0.259368
O4	O	-4.002561	-0.174618	-0.375052
O5	O	-4.038619	-0.168843	-0.139697
V6	V	-4.532245	-0.154772	-0.246627
O7	O	-4.319877	-0.225351	-0.293020
O8	O	-4.714386	-0.106292	-0.214760
O9	O	-4.331853	0.018042	-0.248413
O10	O	-4.689473	-0.339080	-0.251598
O11	O	-4.662844	-0.162801	-0.368083
O12	O	-4.358299	-0.157026	-0.132728
C13	C	-3.880259	-0.391799	-0.255248
C14	C	-3.942887	-0.533079	-0.254547
C15	C	-4.155362	-0.605942	-0.258396
C16	C	-4.214199	-0.738691	-0.257744
C17	C	-3.848063	-0.725700	-0.249390
C18	C	-3.789232	-0.592955	-0.250048
C19	C	-3.846524	-0.168481	-0.402814
C20	C	-3.887701	-0.167782	-0.495926
C21	C	-4.165424	-0.172509	-0.714412
C22	C	-4.204093	-0.171841	-0.801899
C23	C	-3.837997	-0.159128	-0.793357
C24	C	-3.799326	-0.159787	-0.705870
C25	C	-3.963050	-0.166484	-0.666400
C26	C	-4.040390	-0.165157	-0.841375
C27	C	-4.082316	-0.164432	-0.936232
C28	C	-3.921121	-0.167207	-0.571536
C29	C	-4.143943	0.060149	-0.252530
C30	C	-4.060554	0.201427	-0.253237
C31	C	-4.177678	-0.163166	-0.104962
C32	C	-4.115739	-0.163860	-0.011849
H33	H	-4.387212	-0.798012	-0.260880
N34	N	-4.342005	-0.179711	-0.671846
H35	H	-4.295049	-0.101085	-0.627603
H36	H	-4.373133	-0.259497	-0.643925
N37	N	-3.682331	-0.790276	-0.244515
H38	H	-3.751832	-0.885424	-0.244673
H39	H	-3.563134	-0.751673	-0.190635
N40	N	-3.560055	-0.514357	-0.245906
H41	H	-3.471639	-0.572428	-0.242952
H42	H	-3.498667	-0.446444	-0.193835
N43	N	-4.422360	-0.178324	-0.853682
H44	H	-4.520198	-0.182662	-0.815400
H45	H	-4.485454	-0.257505	-0.898309
N46	N	-3.661415	-0.151915	-0.835923
H47	H	-3.630233	-0.072179	-0.863897
H48	H	-3.708484	-0.230600	-0.880125
H49	H	-4.280480	-0.557195	-0.262059
N50	N	-3.581032	-0.153275	-0.654077
H51	H	-3.483185	-0.148940	-0.692355
H52	H	-3.596072	-0.232453	-0.625725
