data_functionalizedCrystal
_audit_creation_method	'MofGen! by Chris Wilmer'
_symmetry_space_group_name_H-M	'P1'
_symmetry_Int_Tables_number	1
_symmetry_cell_setting	triclinic
loop_
_symmetry_equiv_pos_as_xyz
  x,y,z
_cell_length_a	11.026607
_cell_length_b	10.654550
_cell_length_c	10.065875
_cell_angle_alpha	98.875770
_cell_angle_beta	79.302338
_cell_angle_gamma	96.535460
loop_
_atom_site_label
_atom_site_type_symbol
_atom_site_fract_x
_atom_site_fract_y
_atom_site_fract_z
O1	O	1.632231	0.512406	-0.113491
O2	O	1.278420	0.452411	-0.113493
O3	O	1.463459	0.301436	-0.113487
O4	O	1.447191	0.663381	-0.113497
O5	O	1.428176	0.330372	0.113500
O6	O	1.243137	0.481347	0.113494
O7	O	1.596947	0.541343	0.113496
Zn8	Zn	1.414440	0.515940	0.149534
Zn9	Zn	1.460927	0.477814	-0.149531
O10	O	1.411908	0.692318	0.113490
C11	C	1.215474	0.455811	0.000000
C12	C	1.080483	0.422816	-0.000001
C13	C	1.444623	0.268847	0.000005
C14	C	1.441050	0.128627	0.000000
C15	C	1.007444	0.513919	-0.000004
C16	C	0.867923	0.479820	-0.000005
C17	C	1.549998	0.072791	0.000005
C18	C	1.546634	-0.058961	-0.000005
C19	C	1.325363	-0.079031	-0.000018
C20	C	1.328730	0.052718	-0.000018
C21	C	1.662318	0.148700	0.000023
C22	C	1.771275	0.092866	0.000030
C23	C	1.767911	-0.038887	0.000020
C24	C	1.655590	-0.114805	0.000004
C25	C	1.659894	0.537943	-0.000000
C26	C	1.794886	0.570936	-0.000008
C27	C	1.430744	0.724907	-0.000005
C28	C	1.434319	0.865125	-0.000009
N29	N	1.382723	0.541960	0.353639
N30	N	1.492654	0.451786	-0.353636
C31	C	1.449884	0.486858	0.421420
C32	C	1.425483	0.506896	0.578586
H33	H	0.827174	0.376568	-0.000037
C34	C	1.666434	0.454483	0.377193
C35	C	1.551920	0.403154	0.342738
H36	H	1.729431	0.402803	0.328636
H37	H	1.684163	0.538458	0.353817
H38	H	1.663374	0.456979	0.472494
H39	H	1.554977	0.400666	0.247437
H40	H	1.534187	0.319157	0.366104
H41	H	1.652862	-0.222088	-0.000018
H42	H	1.349909	0.568905	0.636905
H43	H	0.835639	0.674186	-0.000002
H44	H	1.039727	0.319571	-0.000033
H45	H	1.568219	0.389766	0.588046
C46	C	1.709240	0.357755	0.116730
C47	C	1.666027	0.293525	0.000034
H48	H	1.711536	0.447163	0.116732
H49	H	1.655303	0.334329	0.195861
H50	H	1.790199	0.335348	0.116722
H51	H	1.585065	0.315925	0.000047
H52	H	1.719966	0.316961	-0.079118
H53	H	1.307154	0.603965	0.411963
H54	H	1.048204	0.617161	0.000001
H55	H	1.862728	0.154682	0.000008
H56	H	1.233917	-0.140853	-0.000029
H57	H	1.240015	0.098180	-0.000020
C58	C	1.986961	-0.005808	0.000044
C59	C	1.887672	-0.100263	0.000025
H60	H	2.060896	-0.043698	0.000060
H61	H	1.995982	0.035073	-0.079106
H62	H	1.971350	0.055251	0.079206
H63	H	1.903279	-0.161317	-0.079143
H64	H	1.878652	-0.141164	0.079183
