data_functionalizedCrystal
_audit_creation_method	'MofGen! by Chris Wilmer'
_symmetry_space_group_name_H-M	'P1'
_symmetry_Int_Tables_number	1
_symmetry_cell_setting	triclinic
loop_
_symmetry_equiv_pos_as_xyz
  x,y,z
_cell_length_a	19.188940
_cell_length_b	19.188930
_cell_length_c	9.798715
_cell_angle_alpha	90.017327
_cell_angle_beta	90.003817
_cell_angle_gamma	83.146747
loop_
_atom_site_label
_atom_site_type_symbol
_atom_site_fract_x
_atom_site_fract_y
_atom_site_fract_z
O1	O	0.087166	0.926147	0.113931
O2	O	0.587166	1.426147	0.613931
O3	O	0.098900	0.722836	0.113838
O4	O	0.598900	1.222836	0.613838
O5	O	-0.008622	0.830355	0.113877
O6	O	0.491378	1.330355	0.613877
O7	O	0.194688	0.818628	0.113892
O8	O	0.694688	1.318628	0.613892
O9	O	-0.008623	0.830348	-0.113106
O10	O	0.491377	1.330348	0.386894
O11	O	0.098899	0.722829	-0.113145
O12	O	0.598899	1.222829	0.386855
O13	O	0.087165	0.926140	-0.113051
O14	O	0.587165	1.426140	0.386949
Zn15	Zn	0.093032	0.824483	-0.149136
Zn16	Zn	0.593032	1.324483	0.350864
Zn17	Zn	0.093033	0.824493	0.149923
Zn18	Zn	0.593033	1.324493	0.649923
O19	O	0.194687	0.818620	-0.113090
O20	O	0.694687	1.318620	0.386910
C21	C	0.098520	0.696821	0.000334
C22	C	0.598520	1.196821	0.500334
C23	C	0.097379	0.619317	0.000299
C24	C	0.597379	1.119317	0.500299
C25	C	-0.034633	0.829970	0.000386
C26	C	0.465367	1.329970	0.500386
C27	C	-0.112138	0.828827	0.000386
C28	C	0.387862	1.328827	0.500386
C29	C	-0.665397	0.820688	-0.123314
C30	C	-0.165397	1.320688	0.376686
C31	C	-0.592573	0.821755	-0.123321
C32	C	-0.092573	1.321755	0.376679
C33	C	-0.556153	0.822296	0.000406
C34	C	-0.056153	1.322296	0.500406
C35	C	-0.592561	0.821752	0.124149
C36	C	-0.092561	1.321752	0.624149
C37	C	-0.665383	0.820678	0.124152
C38	C	-0.165383	1.320678	0.624152
N39	N	-0.447129	0.863715	0.092517
N40	N	0.052871	1.363715	0.592517
N41	N	-0.377951	0.864737	0.092505
N42	N	0.122049	1.364737	0.592505
C43	C	-0.336744	0.825530	0.000403
C44	C	0.163256	1.325530	0.500403
N45	N	-0.367329	0.785271	-0.091709
N46	N	0.132671	1.285271	0.408291
N47	N	-0.436513	0.784253	-0.091701
N48	N	0.063487	1.284253	0.408299
C49	C	-0.477189	0.823460	0.000416
C50	C	0.022811	1.323460	0.500416
C51	C	-0.221379	0.827225	-0.123340
C52	C	0.278621	1.327225	0.376660
C53	C	-0.148553	0.828288	-0.123342
C54	C	0.351447	1.328288	0.376658
C55	C	-0.148543	0.828291	0.124131
C56	C	0.351457	1.328291	0.624131
C57	C	-0.221367	0.827222	0.124129
C58	C	0.278633	1.327222	0.624129
C59	C	-0.257781	0.826692	0.000390
C60	C	0.242219	1.326692	0.500390
C61	C	0.160470	0.574395	0.000325
C62	C	0.660470	1.074395	0.500325
C63	C	0.159398	0.501571	0.000340
C64	C	0.659398	1.001571	0.500340
C65	C	0.095232	0.473672	0.000356
C66	C	0.595232	0.973672	0.500356
C67	C	0.032133	0.518604	0.000322
C68	C	0.532133	1.018604	0.500322
C69	C	0.033207	0.591426	0.000293
C70	C	0.533207	1.091426	0.500293
N71	N	0.046186	0.365693	0.077659
N72	N	0.546186	0.865693	0.577659
N73	N	0.045170	0.296514	0.077689
N74	N	0.545170	0.796514	0.577689
C75	C	0.091994	0.254264	0.000439
C76	C	0.591994	0.754264	0.500439
N77	N	0.139882	0.283803	-0.076825
N78	N	0.639882	0.783803	0.423175
N79	N	0.140900	0.352988	-0.076849
N80	N	0.640900	0.852988	0.423151
C81	C	0.094061	0.394710	0.000386
C82	C	0.594061	0.894710	0.500386
C83	C	0.153927	0.130377	0.000480
C84	C	0.653927	0.630377	0.500480
C85	C	0.152853	0.057553	0.000486
C86	C	0.652853	0.557553	0.500486
C87	C	0.025586	0.074587	0.000482
C88	C	0.525586	0.574587	0.500482
C89	C	0.026662	0.147410	0.000462
C90	C	0.526662	0.647410	0.500462
C91	C	0.090835	0.175301	0.000467
C92	C	0.590835	0.675301	0.500467
C93	C	0.220699	0.819005	0.000404
C94	C	0.720699	1.319005	0.500404
C95	C	0.298203	0.820148	0.000413
C96	C	0.798203	1.320148	0.500413
C97	C	0.087546	0.952154	0.000455
C98	C	0.587546	1.452154	0.500455
C99	C	0.088686	1.029659	0.000500
C100	C	0.588686	1.529659	0.500500
N101	N	0.093031	0.824481	-0.353236
N102	N	0.593031	1.324481	0.146764
C103	C	0.047787	0.869737	-0.578151
C104	C	0.547787	1.369737	-0.078151
C105	C	0.047788	0.869728	-0.420988
C106	C	0.547788	1.369728	0.079012
N107	N	0.093029	0.824500	0.354022
N108	N	0.593029	1.324500	0.854022
H109	H	-0.695041	0.820256	-0.224072
H110	H	-0.195041	1.320256	0.275928
H111	H	-0.562929	0.822182	-0.224077
H112	H	-0.062929	1.322182	0.275923
H113	H	-0.251005	0.826787	0.224881
H114	H	0.248995	1.326787	0.724881
H115	H	-0.118917	0.828726	-0.224099
H116	H	0.381083	1.328726	0.275901
F117	F	-0.109784	0.828844	0.255811
F118	F	0.390216	1.328844	0.755811
F119	F	0.228768	0.604074	0.000326
F120	F	0.728768	1.104074	0.500326
H121	H	0.204231	0.020977	0.000499
H122	H	0.704231	0.520977	0.500499
H123	H	0.009056	0.908477	-0.636431
H124	H	0.509056	1.408477	-0.136431
H125	H	-0.026659	0.051873	0.000580
H126	H	0.473341	0.551873	0.500580
H127	H	0.009053	0.908455	-0.362661
H128	H	0.509053	1.408455	0.137339
F129	F	-0.260136	0.826658	-0.255032
F130	F	0.239864	1.326658	0.244968
H131	H	-0.562903	0.822189	0.224888
H132	H	-0.062903	1.322189	0.724888
F133	F	0.143658	0.773852	-0.429462
F134	F	0.643658	1.273852	0.070538
H135	H	-0.695019	0.820237	0.224908
H136	H	-0.195019	1.320237	0.724908
F137	F	0.143661	0.773870	-0.569804
F138	F	0.643661	1.273870	-0.069804
F139	F	0.226550	0.453753	0.000364
F140	F	0.726550	0.953753	0.500364
H141	H	-0.024713	0.183987	0.000448
H142	H	0.475287	0.683987	0.500448
H143	H	-0.020111	0.495884	0.000354
H144	H	0.479889	0.995884	0.500354
H145	H	-0.018171	0.628002	0.000273
H146	H	0.481829	1.128002	0.500273
F147	F	0.222224	0.160063	0.000475
F148	F	0.722224	0.660063	0.500475
