data_functionalizedCrystal
_audit_creation_method	'MofGen! by Chris Wilmer'
_symmetry_space_group_name_H-M	'P1'
_symmetry_Int_Tables_number	1
_symmetry_cell_setting	triclinic
loop_
_symmetry_equiv_pos_as_xyz
  x,y,z
_cell_length_a	12.645330
_cell_length_b	16.625548
_cell_length_c	16.625539
_cell_angle_alpha	90.022345
_cell_angle_beta	89.975749
_cell_angle_gamma	89.982449
loop_
_atom_site_label
_atom_site_type_symbol
_atom_site_fract_x
_atom_site_fract_y
_atom_site_fract_z
Zn1	Zn	-0.422041	-1.232707	-0.455970
Zn2	Zn	0.077959	-0.732707	0.044030
Zn3	Zn	-0.599327	-1.232622	-0.321147
Zn4	Zn	-0.099327	-0.732622	0.178853
Zn5	Zn	-0.422078	-1.097869	-0.321147
Zn6	Zn	0.077922	-0.597869	0.178853
Zn7	Zn	-0.599263	-1.097851	-0.455933
Zn8	Zn	-0.099263	-0.597851	0.044067
O9	O	-0.510677	-1.165262	-0.388549
O10	O	-0.010677	-0.665262	0.111451
O11	O	-0.445570	-1.345528	-0.438102
O12	O	0.054430	-0.845528	0.061898
O13	O	-0.575857	-1.214718	-0.208315
O14	O	-0.075857	-0.714718	0.291685
O15	O	-0.273726	-1.115799	-0.339047
O16	O	0.226274	-0.615799	0.160953
O17	O	-0.575822	-1.345465	-0.339048
O18	O	-0.075822	-0.845465	0.160952
O19	O	-0.273699	-1.214864	-0.438101
O20	O	0.226301	-0.714864	0.061899
O21	O	-0.445633	-1.115716	-0.208314
O22	O	0.054367	-0.615716	0.291686
O23	O	-0.445570	-0.985034	-0.339010
O24	O	0.054430	-0.485034	0.160990
O25	O	-0.575712	-1.115768	-0.568770
O26	O	-0.075712	-0.615768	-0.068770
O27	O	-0.575747	-0.985021	-0.438037
O28	O	-0.075747	-0.485021	0.061963
O29	O	-0.445508	-1.214846	-0.568798
O30	O	0.054492	-0.714846	-0.068798
O31	O	-0.747666	-1.214701	-0.339011
O32	O	-0.247666	-0.714701	0.160989
O33	O	-0.747619	-1.115685	-0.438038
O34	O	-0.247619	-0.615685	0.061962
C35	C	-0.510656	-0.955771	-0.388520
C36	C	-0.010656	-0.455771	0.111480
C37	C	-0.510673	-0.866150	-0.388527
C38	C	-0.010673	-0.366150	0.111473
C39	C	-0.510671	-0.537975	-0.388551
C40	C	-0.010671	-0.037975	0.111449
C41	C	-0.510669	-0.629283	-0.388542
C42	C	-0.010669	-0.129283	0.111458
C43	C	-0.510673	-0.702059	-0.388538
C44	C	-0.010673	-0.202059	0.111462
C45	C	-0.510669	-0.793374	-0.388530
C46	C	-0.010669	-0.293374	0.111470
C47	C	-0.786107	-1.165203	-0.388538
C48	C	-0.286107	-0.665203	0.111462
C49	C	-0.903937	-1.165252	-0.388560
C50	C	-0.403937	-0.665252	0.111440
C51	C	-1.071515	-1.103218	-0.451050
C52	C	-0.571515	-0.603218	0.048950
C53	C	-0.948956	-1.102901	-0.450849
C54	C	-0.448956	-0.602901	0.049151
C55	C	-0.948530	-1.142250	-0.303584
C56	C	-0.448530	-0.642250	0.196416
C57	C	-1.071128	-1.141872	-0.303963
C58	C	-0.571128	-0.641872	0.196037
C59	C	-1.071027	-1.250667	-0.410357
C60	C	-0.571027	-0.750667	0.089643
C61	C	-0.948420	-1.250144	-0.412215
C62	C	-0.448420	-0.750144	0.087785
C63	C	-0.234172	-1.165343	-0.388578
C64	C	0.265828	-0.665343	0.111422
C65	C	-0.116342	-1.165378	-0.388590
C66	C	0.383658	-0.665378	0.111410
C67	C	-0.510598	-1.165315	-0.598858
C68	C	-0.010598	-0.665315	-0.098858
C69	C	-0.510565	-1.165337	-0.688479
C70	C	-0.010565	-0.665337	-0.188479
C71	C	-0.510692	-0.375571	-0.388571
C72	C	-0.010692	0.124429	0.111429
C73	C	-0.510681	-0.465192	-0.388560
C74	C	-0.010681	0.034808	0.111440
C75	C	-0.510446	-1.165374	-1.016655
C76	C	-0.010446	-0.665374	-0.516655
C77	C	-0.510483	-1.165362	-0.925347
C78	C	-0.010483	-0.665362	-0.425347
C79	C	-0.510506	-1.165356	-0.852570
C80	C	-0.010506	-0.665356	-0.352570
C81	C	-0.510541	-1.165343	-0.761256
C82	C	-0.010541	-0.665343	-0.261256
C83	C	-0.510680	-1.165256	-0.179058
C84	C	-0.010680	-0.665256	0.320942
C85	C	-0.510415	-1.165390	-0.089438
C86	C	-0.010415	-0.665390	0.410562
H87	H	-0.918803	-1.117292	-0.513858
H88	H	-0.418803	-0.617292	-0.013858
H89	H	-0.917769	-1.298894	-0.370036
H90	H	-0.417769	-0.798894	0.129964
H91	H	-1.100015	-1.296977	-0.364866
H92	H	-0.600015	-0.796977	0.135134
H93	H	-1.102416	-1.040384	-0.436813
H94	H	-0.602416	-0.540384	0.063187
Cl95	Cl	-1.116930	-1.125226	-0.548653
Cl96	Cl	-0.616930	-0.625226	-0.048653
Cl97	Cl	-0.903514	-1.209931	-0.229767
Cl98	Cl	-0.403514	-0.709931	0.270233
H99	H	-0.919721	-1.039671	-0.436428
H100	H	-0.419721	-0.539671	0.063572
Cl101	Cl	-1.115430	-1.045613	-0.275496
Cl102	Cl	-0.615430	-0.545613	0.224504
Cl103	Cl	-0.901278	-1.046992	-0.274600
Cl104	Cl	-0.401278	-0.546992	0.225400
H105	H	-1.100785	-1.185181	-0.255839
H106	H	-0.600785	-0.685181	0.244161
H107	H	-1.101872	-1.271650	-0.471269
H108	H	-0.601872	-0.771650	0.028731
H109	H	-0.919271	-1.267490	-0.474753
H110	H	-0.419271	-0.767490	0.025247
