data_functionalizedCrystal
_audit_creation_method	'MofGen! by Chris Wilmer'
_symmetry_space_group_name_H-M	'P1'
_symmetry_Int_Tables_number	1
_symmetry_cell_setting	triclinic
loop_
_symmetry_equiv_pos_as_xyz
  x,y,z
_cell_length_a	14.853567
_cell_length_b	8.559649
_cell_length_c	13.330367
_cell_angle_alpha	89.988747
_cell_angle_beta	89.994272
_cell_angle_gamma	76.706797
loop_
_atom_site_label
_atom_site_type_symbol
_atom_site_fract_x
_atom_site_fract_y
_atom_site_fract_z
O1	O	-0.030584	2.120027	0.083409
O2	O	0.015968	1.654926	0.083411
O3	O	-0.139407	1.899900	0.083413
O4	O	0.124791	1.875053	0.083407
O5	O	-0.139401	1.899946	-0.083434
O6	O	0.015974	1.654972	-0.083436
O7	O	-0.030578	2.120072	-0.083438
Cu8	Cu	-0.007302	1.887526	-0.098672
Cu9	Cu	-0.007308	1.887472	0.098644
O10	O	0.124797	1.875099	-0.083440
C11	C	0.019499	1.595427	-0.000012
C12	C	0.030000	1.418070	-0.000011
C13	C	-0.172914	1.898797	-0.000008
C14	C	-0.272761	1.895423	0.000001
C15	C	-0.674120	1.735642	-0.000017
C16	C	-0.715756	2.026677	-0.000019
C17	C	-0.621945	2.029849	-0.000013
C18	C	-0.554216	1.885915	-0.000011
C19	C	-0.580298	1.738810	-0.000014
C20	C	-0.595854	2.176952	-0.000019
C21	C	-0.502038	2.180130	-0.000014
C22	C	-0.434307	2.036195	-0.000005
C23	C	-0.460394	1.889083	-0.000008
C24	C	-0.392665	1.745150	-0.000006
C25	C	-0.418751	1.598037	-0.000001
C26	C	-0.512567	1.594875	-0.000005
C27	C	-0.340490	2.039357	-0.000001
C28	C	-0.298844	1.748318	-0.000003
C29	C	0.158304	1.876202	-0.000017
C30	C	0.258151	1.879575	-0.000019
C31	C	-0.034109	2.179572	-0.000013
C32	C	-0.044610	2.356928	-0.000008
N33	N	-0.007320	1.887435	0.237426
N34	N	-0.007298	1.887576	-0.237453
C35	C	0.061391	1.778878	0.710048
C36	C	-0.075991	1.996243	0.710018
C37	C	-0.075996	1.996219	0.604999
C38	C	-0.007307	1.887521	0.552500
C39	C	0.061387	1.778847	0.605020
C40	C	-0.144694	2.104880	0.552472
C41	C	-0.144702	2.104859	0.447447
C42	C	-0.076008	1.996167	0.394946
C43	C	-0.007311	1.887490	0.447472
C44	C	0.061378	1.778792	0.394973
C45	C	0.130079	1.670122	0.447498
C46	C	0.130080	1.670156	0.552519
C47	C	-0.076009	1.996133	0.289925
C48	C	0.061374	1.778761	0.289945
H49	H	-0.116520	1.440266	-0.000001
F50	F	0.124000	1.309137	-0.000004
F51	F	-0.346659	1.444858	-0.000007
F52	F	-0.149126	2.111771	0.234031
H53	H	0.117329	1.690404	0.752816
F54	F	-0.226767	1.595120	0.000007
F55	F	-0.540338	1.438321	0.000003
F56	F	-0.787839	2.179851	-0.000035
F57	F	-0.701882	1.579081	-0.000004
H58	H	-0.131920	2.084734	0.752766
H59	H	-0.651005	2.294134	-0.000030
F60	F	-0.474283	2.336698	-0.000007
F61	F	-0.217281	2.221569	0.608346
H62	H	-0.200641	2.193344	0.404689
H63	H	-0.319255	2.159134	-0.000011
F64	F	0.203176	1.554432	0.391613
F65	F	0.203190	1.554506	0.608422
F66	F	0.134488	1.663075	0.234080
