data_functionalizedCrystal
_audit_creation_method	'MofGen! by Chris Wilmer'
_symmetry_space_group_name_H-M	'P1'
_symmetry_Int_Tables_number	1
_symmetry_cell_setting	triclinic
loop_
_symmetry_equiv_pos_as_xyz
  x,y,z
_cell_length_a	14.971491
_cell_length_b	12.996460
_cell_length_c	14.971486
_cell_angle_alpha	90.006353
_cell_angle_beta	83.615182
_cell_angle_gamma	90.007431
loop_
_atom_site_label
_atom_site_type_symbol
_atom_site_fract_x
_atom_site_fract_y
_atom_site_fract_z
O1	O	1.186943	0.085611	0.116586
O2	O	0.926544	0.085604	0.130540
O3	O	1.063723	0.085601	-0.006637
O4	O	1.049764	0.085615	0.253763
O5	O	1.063708	-0.085533	-0.006644
O6	O	0.926529	-0.085530	0.130533
O7	O	1.186929	-0.085522	0.116579
Cu8	Cu	1.056728	-0.101152	0.123555
Cu9	Cu	1.056745	0.101234	0.123564
O10	O	1.049750	-0.085519	0.253756
C11	C	0.893212	0.000036	0.129912
C12	C	0.793915	0.000033	0.128039
C13	C	0.366217	0.093341	0.119963
C14	C	0.459517	0.093338	0.121720
C15	C	0.506155	0.000049	0.122600
C16	C	0.459489	-0.093242	0.121714
C17	C	0.366192	-0.093237	0.119951
C18	C	0.653951	-0.093246	0.125391
C19	C	0.747255	-0.093251	0.127156
C20	C	0.747277	0.093329	0.127160
C21	C	0.653979	0.093334	0.125397
C22	C	0.607319	0.000043	0.124513
N23	N	1.056722	-0.243499	0.123548
C24	C	1.056743	-0.663313	0.123565
C25	C	1.056735	-0.546508	0.123563
C26	C	1.056733	-0.453410	0.123557
C27	C	1.056724	-0.336597	0.123554
C28	C	1.220261	0.000048	0.117207
C29	C	1.319557	0.000058	0.119080
C30	C	1.063091	0.000034	-0.039965
C31	C	1.061221	0.000035	-0.139262
N32	N	1.056757	0.243581	0.123564
C33	C	1.141810	0.000036	-0.196486
C34	C	1.140046	0.000047	-0.289786
C35	C	1.057693	0.000048	-0.325859
C36	C	0.977098	0.000050	-0.268628
C37	C	0.978862	0.000047	-0.175331
C38	C	0.973427	0.000053	-0.463091
C39	C	0.971663	0.000054	-0.556395
C40	C	1.134611	0.000053	-0.577546
C41	C	1.136375	0.000050	-0.484248
C42	C	1.055780	0.000050	-0.427023
C43	C	1.050381	0.000050	0.287084
C44	C	1.052252	0.000056	0.386381
H45	H	0.497470	-0.169199	0.122425
Cl46	Cl	1.235932	0.000059	-0.649485
Cl47	Cl	0.868132	0.000055	-0.601744
Cl48	Cl	0.307534	-0.210513	0.118832
Cl49	Cl	1.241363	0.000046	-0.361721
H50	H	0.497504	0.169298	0.122433
H51	H	0.907797	0.000055	-0.416500
H52	H	1.208871	0.000029	-0.167123
Cl53	Cl	0.595296	-0.210528	0.124269
Cl54	Cl	0.805933	0.210610	0.128282
Cl55	Cl	1.239907	0.000054	-0.438899
H56	H	0.785225	-0.169215	0.127877
Cl57	Cl	0.873568	0.000064	-0.313978
Cl58	Cl	0.877546	0.000048	-0.103391
H59	H	0.328250	0.169308	0.119253
H60	H	0.616008	0.169298	0.124686
