data_functionalizedCrystal
_audit_creation_method	'MofGen! by Chris Wilmer'
_symmetry_space_group_name_H-M	'P1'
_symmetry_Int_Tables_number	1
_symmetry_cell_setting	triclinic
loop_
_symmetry_equiv_pos_as_xyz
  x,y,z
_cell_length_a	12.759394
_cell_length_b	14.908558
_cell_length_c	14.908308
_cell_angle_alpha	89.824401
_cell_angle_beta	86.731597
_cell_angle_gamma	86.710147
loop_
_atom_site_label
_atom_site_type_symbol
_atom_site_fract_x
_atom_site_fract_y
_atom_site_fract_z
Zn1	Zn	-0.548307	1.345343	0.587581
Zn2	Zn	-0.714487	1.353937	0.437224
Zn3	Zn	-0.528125	1.203657	0.428579
Zn4	Zn	-0.713236	1.194965	0.578877
O5	O	-0.626039	1.274476	0.508065
O6	O	-0.579321	1.472310	0.574896
O7	O	-0.681843	1.341237	0.310252
O8	O	-0.383785	1.222493	0.449696
O9	O	-0.701413	1.478624	0.464429
O10	O	-0.398613	1.326589	0.566513
O11	O	-0.544923	1.230826	0.303901
O12	O	-0.543710	1.076677	0.441256
O13	O	-0.699281	1.207679	0.705856
O14	O	-0.679710	1.070291	0.551679
O15	O	-0.578108	1.318161	0.712251
O16	O	-0.861338	1.332808	0.455990
O17	O	-0.860419	1.216012	0.560062
C18	C	-0.609385	1.040858	0.494586
C19	C	-0.602287	0.940914	0.488841
C20	C	-0.521383	0.803341	0.423346
C21	C	-0.528046	0.897248	0.428741
C22	C	-0.669868	0.890668	0.543552
C23	C	-0.663204	0.796762	0.538158
C24	C	-0.588960	0.753102	0.478052
C25	C	-0.582303	0.659194	0.472653
C26	C	-0.724118	0.652616	0.587469
C27	C	-0.730782	0.746522	0.592863
C28	C	-0.899001	1.274423	0.508040
C29	C	-1.015783	1.274481	0.508065
C30	C	-1.016699	1.396182	0.399786
C31	C	-1.072020	1.457056	0.345658
C32	C	-1.181746	1.457107	0.345686
C33	C	-1.236155	1.396280	0.399848
C34	C	-1.180834	1.335407	0.453976
C35	C	-1.071105	1.335360	0.453941
C36	C	-1.179919	1.213711	0.562258
C37	C	-1.070192	1.213654	0.562227
C38	C	-1.234328	1.152884	0.616421
C39	C	-1.179007	1.092004	0.670545
C40	C	-1.069273	1.091955	0.670515
C41	C	-1.014871	1.152780	0.616355
C42	C	-0.352014	1.274552	0.508111
C43	C	-0.235240	1.274584	0.508131
C44	C	-0.640806	1.260992	0.742591
C45	C	-0.647099	1.255246	0.842532
C46	C	-0.642758	1.509005	0.521598
C47	C	-0.649883	1.608948	0.527365
C48	C	-0.611257	1.287959	0.274455
C49	C	-0.604680	1.293879	0.174525
C50	C	-0.532723	1.359491	1.036991
C51	C	-0.538632	1.354095	1.130895
C52	C	-0.664821	1.239053	1.124244
C53	C	-0.658912	1.244449	1.030340
C54	C	-0.592861	1.304671	0.986718
C55	C	-0.586958	1.310071	0.892813
C56	C	-0.713141	1.195026	0.886163
C57	C	-0.719050	1.189630	0.980066
H58	H	-0.791226	0.782083	0.641802
O59	O	-1.232017	1.032958	0.723071
C60	C	-1.340729	1.046080	0.711513
H61	H	-1.353457	1.079576	0.643851
H62	H	-1.378552	1.090872	0.767652
C63	C	-1.375562	0.913516	0.797557
C64	C	-1.391194	0.954650	0.714450
H65	H	-1.406693	0.857119	0.799372
H66	H	-1.302321	0.904677	0.805347
H67	H	-1.407081	0.950852	0.844330
H68	H	-1.359664	0.917319	0.667679
H69	H	-1.464432	0.963480	0.706652
H70	H	-0.473014	0.938149	0.384197
H71	H	-1.226789	1.506680	0.301615
O72	O	-0.480370	1.407385	1.179834
C73	C	-0.547736	1.462342	1.237478
H74	H	-0.625983	1.429806	1.249706
H75	H	-0.561744	1.531055	1.205131
C76	C	-0.400600	1.513468	1.312606
C77	C	-0.496701	1.473502	1.327630
H78	H	-0.369118	1.520356	1.368214
H79	H	-0.355213	1.476445	1.273768
H80	H	-0.412286	1.570724	1.285647
H81	H	-0.485011	1.416243	1.354577
H82	H	-0.542084	1.510516	1.366474
H83	H	-0.533178	1.359108	0.857297
O84	O	-0.741842	0.933187	0.601985
C85	C	-0.689638	0.984159	0.663279
H86	H	-0.608966	1.000027	0.632490
H87	H	-0.679852	0.944156	0.727854
C88	C	-0.853889	1.052949	0.722408
C89	C	-0.754810	1.072446	0.684590
H90	H	-0.894091	1.107407	0.735558
H91	H	-0.889061	1.018607	0.681116
H92	H	-0.845719	1.019612	0.776216
H93	H	-0.762979	1.105772	0.630778
H94	H	-0.719640	1.106796	0.725874
O95	O	-0.728941	1.180622	1.166770
C96	C	-0.721223	1.187592	1.260430
H97	H	-0.692582	1.256261	1.277263
H98	H	-0.663132	1.132750	1.283996
C99	C	-0.865132	1.092189	1.287495
C100	C	-0.829963	1.176533	1.308169
H101	H	-0.932206	1.085363	1.316944
H102	H	-0.870330	1.087490	1.224395
H103	H	-0.816714	1.046497	1.307134
H104	H	-0.878374	1.222223	1.288521
H105	H	-0.824776	1.181239	1.371268
O106	O	-0.468482	1.418011	0.994752
C107	C	-0.416694	1.465262	1.059264
H108	H	-0.414640	1.424588	1.124079
H109	H	-0.460665	1.532967	1.073183
C110	C	-0.306021	1.530317	0.943769
C111	C	-0.303490	1.480358	1.023374
H112	H	-0.236193	1.539633	0.921630
H113	H	-0.340914	1.498486	0.900305
H114	H	-0.342669	1.586732	0.955379
H115	H	-0.266855	1.423940	1.011760
H116	H	-0.268588	1.512180	1.066835
H117	H	-0.772824	1.140597	1.015597
H118	H	-1.024237	1.042388	0.714596
O119	O	-0.789657	0.603675	0.640578
C120	C	-0.767880	0.511429	0.622912
H121	H	-0.683990	0.500284	0.592848
H122	H	-0.825199	0.487527	0.573404
C123	C	-0.883021	0.471695	0.748029
C124	C	-0.779982	0.458006	0.711111
H125	H	-0.890490	0.438739	0.802432
H126	H	-0.897696	0.533843	0.759929
H127	H	-0.930775	0.451777	0.706764
H128	H	-0.732232	0.477934	0.752371
H129	H	-0.765299	0.395860	0.699219
H130	H	-0.460932	0.767793	0.374404
H131	H	-0.521849	0.623648	0.423712
H132	H	-0.925525	1.152740	0.616319
H133	H	-1.027711	1.506583	0.301561
H134	H	-0.927352	1.396136	0.399746
H135	H	-0.762113	1.150390	0.845220
H136	H	-1.325502	1.396335	0.399874
H137	H	-1.323674	1.152933	0.616444
