data_functionalizedCrystal
_audit_creation_method	'MofGen! by Chris Wilmer'
_symmetry_space_group_name_H-M	'P1'
_symmetry_Int_Tables_number	1
_symmetry_cell_setting	triclinic
loop_
_symmetry_equiv_pos_as_xyz
  x,y,z
_cell_length_a	10.489716
_cell_length_b	10.654550
_cell_length_c	9.730223
_cell_angle_alpha	89.998521
_cell_angle_beta	89.997085
_cell_angle_gamma	84.507032
loop_
_atom_site_label
_atom_site_type_symbol
_atom_site_fract_x
_atom_site_fract_y
_atom_site_fract_z
O1	O	1.693984	0.177045	-0.114269
O2	O	1.322776	0.193709	-0.114273
O3	O	1.516915	0.002641	-0.114272
O4	O	1.499846	0.368113	-0.114270
O5	O	1.516902	0.002636	0.114308
O6	O	1.322764	0.193704	0.114307
O7	O	1.693972	0.177040	0.114311
Zn8	Zn	1.508366	0.185371	0.150601
Zn9	Zn	1.508382	0.185378	-0.150563
O10	O	1.499833	0.368108	0.114310
C11	C	1.515655	-0.044160	0.000015
C12	C	1.511906	-0.183605	0.000005
C13	C	1.275239	0.192455	0.000016
C14	C	1.133609	0.188709	0.000014
C15	C	1.506614	-0.380144	-0.124583
C16	C	1.510150	-0.249123	-0.124592
C17	C	1.510138	-0.249116	0.124619
C18	C	1.506611	-0.380137	0.124625
C19	C	1.035879	0.305878	0.000011
C20	C	0.958557	0.243961	0.112719
C21	C	0.958576	0.243938	-0.112643
C22	C	1.058153	0.126841	0.112815
C23	C	1.058177	0.126835	-0.112648
C24	C	0.980904	0.064832	0.000087
C25	C	1.741509	0.178294	0.000019
C26	C	1.883139	0.182040	0.000011
C27	C	1.501093	0.414909	0.000020
C28	C	1.504842	0.554354	0.000020
N29	N	1.508364	0.185366	0.356137
N30	N	1.508394	0.185374	-0.356100
C31	C	1.594358	0.100797	0.428064
C32	C	1.594371	0.100797	0.571947
C33	C	1.422391	0.269947	0.571964
C34	C	1.422373	0.269939	0.428084
H35	H	1.511595	-0.195797	-0.226057
C36	C	1.504926	-0.451368	0.259871
C37	C	1.612460	-0.539723	0.267178
C38	C	1.610956	-0.605357	0.391743
H39	H	1.429374	-0.493674	0.265162
H40	H	1.506537	-0.393645	0.334128
H41	H	1.610838	-0.597439	0.192941
H42	H	1.688029	-0.497451	0.261910
H43	H	1.612567	-0.547633	0.466000
H44	H	1.535400	-0.647655	0.397023
H45	H	1.683922	-0.665305	0.396723
C46	C	0.900706	0.309767	0.239930
C47	C	0.953145	0.249453	0.357669
C48	C	0.899893	0.310055	0.474871
H49	H	0.810568	0.306220	0.239613
H50	H	0.919173	0.395340	0.239893
H51	H	0.934668	0.163902	0.357706
H52	H	1.043278	0.252997	0.358031
H53	H	0.918359	0.395628	0.474835
H54	H	0.809756	0.306504	0.474541
H55	H	0.935473	0.269148	0.554771
H56	H	0.956523	-0.037162	0.000151
H57	H	1.352381	0.338806	0.630557
C58	C	1.512072	-0.178217	0.260042
C59	C	1.509787	-0.263632	0.369167
C60	C	1.511568	-0.198369	0.493942
H61	H	1.439202	-0.118202	0.265391
H62	H	1.587721	-0.136035	0.265318
H63	H	1.434146	-0.305793	0.363894
H64	H	1.582652	-0.323649	0.363863
H65	H	1.587217	-0.156187	0.499217
H66	H	1.438696	-0.138356	0.499277
H67	H	1.510029	-0.256314	0.567998
H68	H	1.664375	0.031930	0.369488
H69	H	1.060499	0.407797	0.000117
C70	C	1.687883	0.008926	0.649790
C71	C	1.763201	-0.065115	0.555980
C72	C	1.849371	-0.149754	0.627638
H73	H	1.641697	-0.043914	0.705934
H74	H	1.741451	0.054586	0.705875
H75	H	1.709639	-0.110772	0.499918
H76	H	1.809414	-0.012309	0.499833
H77	H	1.902939	-0.104094	0.683723
H78	H	1.803175	-0.202586	0.683780
H79	H	1.900492	-0.199993	0.564000
H80	H	1.101487	0.077405	0.208194
C81	C	1.116149	0.061161	-0.239867
C82	C	1.065493	0.122966	-0.357556
C83	C	1.118883	0.062526	-0.474785
H84	H	1.096423	-0.024007	-0.240874
H85	H	1.206461	0.063428	-0.238560
H86	H	0.975201	0.120686	-0.358864
H87	H	1.085216	0.208131	-0.356595
H88	H	1.209196	0.064793	-0.473478
H89	H	1.099154	-0.022640	-0.475778
H90	H	1.084530	0.104459	-0.554650
H91	H	1.505173	-0.433478	-0.226045
H92	H	0.915073	0.293426	-0.207915
C93	C	1.328947	0.361904	0.350229
C94	C	1.253674	0.436001	0.444029
C95	C	1.167610	0.520736	0.372360
H96	H	1.275329	0.316356	0.294113
H97	H	1.375253	0.414689	0.294115
H98	H	1.207372	0.383223	0.500120
H99	H	1.307257	0.481577	0.500148
H100	H	1.213915	0.573520	0.316245
H101	H	1.114001	0.475177	0.316246
H102	H	1.116535	0.571028	0.435991
