data_functionalizedCrystal
_audit_creation_method	'MofGen! by Chris Wilmer'
_symmetry_space_group_name_H-M	'P1'
_symmetry_Int_Tables_number	1
_symmetry_cell_setting	triclinic
loop_
_symmetry_equiv_pos_as_xyz
  x,y,z
_cell_length_a	12.837943
_cell_length_b	11.792241
_cell_length_c	11.892095
_cell_angle_alpha	93.915739
_cell_angle_beta	85.689438
_cell_angle_gamma	89.511178
loop_
_atom_site_label
_atom_site_type_symbol
_atom_site_fract_x
_atom_site_fract_y
_atom_site_fract_z
O1	O	1.383703	0.288690	-0.093984
O2	O	1.081816	0.274106	-0.093991
O3	O	1.240085	0.116971	-0.093980
O4	O	1.225434	0.445825	-0.093996
O5	O	1.226889	0.130050	0.094027
O6	O	1.068620	0.287185	0.094016
O7	O	1.370507	0.301770	0.094022
Zn8	Zn	1.217468	0.296554	0.123869
Zn9	Zn	1.234855	0.279322	-0.123838
O10	O	1.212238	0.458904	0.094011
C11	C	1.036570	0.275719	0.000012
C12	C	0.921410	0.261025	0.000009
C13	C	0.681444	0.437671	0.000017
C14	C	0.573241	0.423870	0.000015
C15	C	0.596797	0.219624	0.000013
C16	C	0.705001	0.233425	0.000015
C17	C	0.747320	0.342452	0.000015
C18	C	0.855526	0.356251	0.000008
C19	C	0.879080	0.152006	0.000014
C20	C	0.770877	0.138205	0.000013
C21	C	1.232566	0.081126	0.000023
C22	C	1.229812	-0.045167	0.000022
C23	C	1.224748	-0.276394	0.000003
C24	C	1.227561	-0.147723	0.000014
C25	C	1.415753	0.300157	0.000017
C26	C	1.530913	0.314850	0.000012
C27	C	1.219756	0.494749	0.000005
C28	C	1.222512	0.621042	-0.000001
N29	N	1.205610	0.308315	0.292922
N30	N	1.246721	0.267553	-0.292891
C31	C	1.329237	0.185651	0.529579
C32	C	1.320956	0.193880	0.647920
C33	C	1.180761	0.332997	0.647948
C34	C	1.189043	0.324768	0.529607
C35	C	1.263284	0.251093	0.470427
C36	C	1.271570	0.242870	0.352083
C37	C	1.131371	0.381980	0.352113
C38	C	1.123090	0.390210	0.470454
H39	H	1.332023	0.182884	0.303899
H40	H	0.736404	0.049439	0.000026
C41	C	0.875532	0.527878	-0.096630
C42	C	0.902043	0.476093	0.000011
H43	H	0.904242	0.601868	-0.096620
H44	H	0.902711	0.483630	-0.162182
H45	H	0.801659	0.533273	-0.096617
H46	H	0.975915	0.470690	-0.000007
H47	H	0.874868	0.520352	0.065580
H48	H	0.562315	0.130865	0.000107
H49	H	0.715901	0.526445	0.000015
H50	H	1.120309	0.392973	0.696148
C51	C	1.119052	0.524848	0.219042
C52	C	1.058872	0.453929	0.287093
H53	H	1.074297	0.569264	0.178898
H54	H	1.159218	0.573591	0.265205
H55	H	1.164442	0.479783	0.166858
H56	H	1.013487	0.498995	0.339282
H57	H	1.018688	0.405181	0.240926
H58	H	1.062641	0.450192	0.518653
C59	C	1.333281	0.051023	0.780997
C60	C	1.393453	0.121945	0.712943
H61	H	1.378041	0.006606	0.821134
H62	H	1.287895	0.096078	0.833177
H63	H	1.293110	0.002271	0.734829
H64	H	1.433618	0.170702	0.759112
H65	H	1.438856	0.076885	0.660757
H66	H	1.389694	0.125670	0.481393
C67	C	0.526632	0.586985	-0.096640
C68	C	0.500827	0.528536	0.000009
H69	H	0.481921	0.651599	-0.096644
H70	H	0.597121	0.610803	-0.096628
H71	H	0.518336	0.538192	-0.162194
H72	H	0.509130	0.577326	0.065563
H73	H	0.430320	0.504719	0.000008
C74	C	1.055407	0.082463	0.000008
C75	C	0.951495	0.047331	0.000010
H76	H	1.100110	0.017841	0.000008
H77	H	1.072891	0.122122	-0.065549
H78	H	1.063693	0.131238	0.065576
H79	H	0.943207	-0.001438	-0.065563
H80	H	0.934005	0.007653	0.065573
