data_functionalizedCrystal
_audit_creation_method	'MofGen! by Chris Wilmer'
_symmetry_space_group_name_H-M	'P1'
_symmetry_Int_Tables_number	1
_symmetry_cell_setting	triclinic
loop_
_symmetry_equiv_pos_as_xyz
  x,y,z
_cell_length_a	25.639239
_cell_length_b	16.120490
_cell_length_c	16.120297
_cell_angle_alpha	90.129683
_cell_angle_beta	92.868703
_cell_angle_gamma	87.130891
loop_
_atom_site_label
_atom_site_type_symbol
_atom_site_fract_x
_atom_site_fract_y
_atom_site_fract_z
Zn1	Zn	-0.264925	1.247336	-0.534506
Zn2	Zn	0.068408	1.580670	-0.201172
Zn3	Zn	0.401741	1.914003	0.132161
Zn4	Zn	-0.348157	1.254252	-0.395439
Zn5	Zn	-0.014824	1.587586	-0.062106
Zn6	Zn	0.318510	1.920919	0.271228
Zn7	Zn	-0.256086	1.115330	-0.388428
Zn8	Zn	0.077248	1.448663	-0.055095
Zn9	Zn	0.410581	1.781996	0.278239
Zn10	Zn	-0.347671	1.108208	-0.527412
Zn11	Zn	-0.014337	1.441542	-0.194078
Zn12	Zn	0.318996	1.774875	0.139255
O13	O	-0.304210	1.181282	-0.461446
O14	O	0.029124	1.514615	-0.128113
O15	O	0.362457	1.847948	0.205221
O16	O	-0.279869	1.364619	-0.521961
O17	O	0.053464	1.697952	-0.188628
O18	O	0.386798	2.031286	0.144705
O19	O	-0.332448	1.241699	-0.278144
O20	O	0.000885	1.575032	0.055190
O21	O	0.334219	1.908365	0.388523
O22	O	-0.184097	1.132927	-0.407840
O23	O	0.149236	1.466260	-0.074507
O24	O	0.482570	1.799593	0.258827
O25	O	-0.341019	1.369700	-0.419789
O26	O	-0.007686	1.703034	-0.086456
O27	O	0.325648	2.036367	0.246877
O28	O	-0.190591	1.229911	-0.515163
O29	O	0.142742	1.563245	-0.181830
O30	O	0.476075	1.896578	0.151504
O31	O	-0.264804	1.139633	-0.272993
O32	O	0.068530	1.472966	0.060341
O33	O	0.401863	1.806300	0.393674
O34	O	-0.264332	0.998020	-0.400961
O35	O	0.069002	1.331353	-0.067628
O36	O	0.402335	1.664686	0.265705
O37	O	-0.340190	1.120789	-0.644718
O38	O	-0.006857	1.454123	-0.311385
O39	O	0.326477	1.787456	0.021949
O40	O	-0.331619	0.992788	-0.503072
O41	O	0.001715	1.326121	-0.169739
O42	O	0.335048	1.659454	0.163594
O43	O	-0.279397	1.223006	-0.649930
O44	O	0.053936	1.556339	-0.316597
O45	O	0.387269	1.889673	0.016737
O46	O	-0.421254	1.234793	-0.412911
O47	O	-0.087921	1.568127	-0.079577
O48	O	0.245413	1.901460	0.253756
O49	O	-0.420897	1.127495	-0.509871
O50	O	-0.087563	1.460829	-0.176537
O51	O	0.245770	1.794162	0.156796
C52	C	-0.296964	0.965232	-0.450487
C53	C	0.036370	1.298565	-0.117153
C54	C	0.369703	1.631898	0.216180
C55	C	-0.293877	0.872803	-0.445818
C56	C	0.039456	1.206137	-0.112485
C57	C	0.372790	1.539470	0.220849
C58	C	-0.320217	0.659830	-0.485665
C59	C	0.013117	0.993164	-0.152332
C60	C	0.346450	1.326497	0.181002
C61	C	-0.288246	0.703581	-0.437293
C62	C	0.045087	1.036914	-0.103960
C63	C	0.378420	1.370248	0.229374
C64	C	-0.291380	0.797745	-0.442038
C65	C	0.041953	1.131078	-0.108704
C66	C	0.375286	1.464412	0.224629
C67	C	-0.317084	0.565658	-0.480921
C68	C	0.016250	0.898991	-0.147588
C69	C	0.349583	1.232324	0.185746
C70	C	-0.440046	1.181144	-0.461401
C71	C	-0.106713	1.514477	-0.128068
C72	C	0.226620	1.847810	0.205266
C73	C	-0.498161	1.181159	-0.461413
C74	C	-0.164828	1.514493	-0.128080
C75	C	0.168505	1.847826	0.205253
C76	C	-0.858710	1.237286	-0.411057
C77	C	-0.525377	1.570619	-0.077723
C78	C	-0.192044	1.903953	0.255610
C79	C	-0.913316	1.237318	-0.411069
C80	C	-0.579983	1.570651	-0.077736
C81	C	-0.246649	1.903984	0.255597
O82	O	-0.941705	1.284895	-0.368205
O83	O	-0.608371	1.618229	-0.034872
O84	O	-0.275038	1.951562	0.298461
N85	N	-0.940455	1.181425	-0.461509
N86	N	-0.607122	1.514758	-0.128175
N87	N	-0.273789	1.848092	0.205158
C88	C	-0.912986	1.125503	-0.511945
C89	C	-0.579653	1.458836	-0.178611
C90	C	-0.246320	1.792170	0.154722
O91	O	-0.941085	1.077965	-0.554849
O92	O	-0.607751	1.411299	-0.221515
O93	O	-0.274418	1.744632	0.111818
C94	C	-0.858382	1.125476	-0.511936
C95	C	-0.525049	1.458809	-0.178602
C96	C	-0.191715	1.792143	0.154731
C97	C	-0.831245	1.181366	-0.461487
C98	C	-0.497912	1.514700	-0.128154
C99	C	-0.164578	1.848033	0.205180
C100	C	-0.831573	1.293173	-0.360613
C101	C	-0.498240	1.626506	-0.027279
C102	C	-0.164907	1.959839	0.306054
C103	C	-0.776971	1.293140	-0.360599
C104	C	-0.443638	1.626473	-0.027266
C105	C	-0.110305	1.959806	0.306068
C106	C	-0.749506	1.237220	-0.411029
C107	C	-0.416173	1.570553	-0.077696
C108	C	-0.082840	1.903887	0.255637
C109	C	-0.776643	1.181333	-0.461473
C110	C	-0.443310	1.514667	-0.128140
C111	C	-0.109976	1.848000	0.205193
C112	C	-0.830914	1.069558	-0.562375
C113	C	-0.497581	1.402892	-0.229042
C114	C	-0.164248	1.736225	0.104291
C115	C	-0.776306	1.069536	-0.562363
C116	C	-0.442973	1.402870	-0.229029
C117	C	-0.109640	1.736203	0.104304
C118	C	-0.749169	1.125427	-0.511914
C119	C	-0.415836	1.458760	-0.178580
C120	C	-0.082503	1.792094	0.154753
C121	C	-0.694576	1.125381	-0.511890
C122	C	-0.361243	1.458714	-0.178556
C123	C	-0.027909	1.792048	0.154777
N124	N	-0.667437	1.181274	-0.461451
N125	N	-0.334103	1.514607	-0.128117
N126	N	-0.000770	1.847940	0.205216
C127	C	-0.694902	1.237193	-0.411020
C128	C	-0.361568	1.570526	-0.077687
C129	C	-0.028235	1.903860	0.255646
C130	C	-1.027660	1.125565	-0.511960
C131	C	-0.694326	1.458898	-0.178627
C132	C	-0.360993	1.792232	0.154706
C133	C	-1.082263	1.125587	-0.511966
C134	C	-0.748929	1.458921	-0.178632
C135	C	-0.415596	1.792254	0.154701
C136	C	-1.082589	1.237403	-0.411091
C137	C	-0.749255	1.570737	-0.077758
C138	C	-0.415922	1.904070	0.255575
C139	C	-1.027984	1.237376	-0.411083
C140	C	-0.694651	1.570710	-0.077749
C141	C	-0.361317	1.904043	0.255584
C142	C	-1.000520	1.181457	-0.461521
C143	C	-0.667187	1.514791	-0.128188
C144	C	-0.333854	1.848124	0.205145
C145	C	-0.580234	1.237119	-0.410995
C146	C	-0.246900	1.570453	-0.077661
C147	C	0.086433	1.903786	0.255672
C148	C	-0.525627	1.237079	-0.410983
C149	C	-0.192293	1.570412	-0.077650
C150	C	0.141040	1.903746	0.255684
C151	C	-0.525306	1.125266	-0.511860
C152	C	-0.191972	1.458600	-0.178527
C153	C	0.141361	1.791933	0.154807
C154	C	-0.579908	1.125303	-0.511869
C155	C	-0.246574	1.458637	-0.178536
C156	C	0.086759	1.791970	0.154798
C157	C	-0.607370	1.181237	-0.461434
C158	C	-0.274037	1.514570	-0.128101
C159	C	0.059296	1.847903	0.205233
O160	O	-0.666153	1.077830	-0.554734
O161	O	-0.332820	1.411163	-0.221401
O162	O	0.000514	1.744496	0.111932
O163	O	-0.666797	1.284730	-0.368132
O164	O	-0.333464	1.618063	-0.034798
O165	O	-0.000131	1.951397	0.298535
C166	C	-0.167844	1.181442	-0.461511
C167	C	0.165490	1.514775	-0.128177
C168	C	0.498823	1.848109	0.205156
C169	C	-0.109733	1.181510	-0.461538
C170	C	0.223601	1.514844	-0.128205
C171	C	0.556934	1.848177	0.205128
C172	C	-0.310725	1.170332	-0.678340
C173	C	0.022608	1.503665	-0.345006
C174	C	0.355941	1.836998	-0.011673
C175	C	-0.313502	1.165666	-0.770767
C176	C	0.019831	1.498999	-0.437434
C177	C	0.353165	1.832332	-0.104100
C178	C	-0.311484	1.398176	-0.472449
C179	C	0.021849	1.731509	-0.139115
C180	C	0.355182	2.064842	0.194218
C181	C	-0.314584	1.490603	-0.477137
C182	C	0.018749	1.823936	-0.143804
C183	C	0.352082	2.157269	0.189529
C184	C	-0.318559	1.157116	-0.939991
C185	C	0.014774	1.490449	-0.606658
C186	C	0.348108	1.823782	-0.273325
C187	C	-0.289709	1.205612	-0.983761
C188	C	0.043624	1.538945	-0.650428
C189	C	0.376957	1.872278	-0.317094
C190	C	-0.292523	1.200854	-1.077923
C191	C	0.040810	1.534188	-0.744590
C192	C	0.374144	1.867521	-0.411257
C193	C	-0.315746	1.161872	-0.845820
C194	C	0.017587	1.495205	-0.512487
C195	C	0.350921	1.828538	-0.179154
C196	C	-0.297683	1.192237	-0.245399
C197	C	0.035650	1.525570	0.087935
C198	C	0.368983	1.858904	0.421268
C199	C	-0.294765	1.197064	-0.152980
C200	C	0.038569	1.530398	0.180353
C201	C	0.371902	1.863731	0.513687
H202	H	-0.258522	0.670317	-0.392317
H203	H	0.074811	1.003651	-0.058984
H204	H	0.408145	1.336984	0.274350
F205	F	-0.359070	0.703306	-0.544441
F206	F	-0.025737	1.036639	-0.211108
F207	F	0.307596	1.369972	0.122226
H208	H	-0.602587	1.282667	-0.369928
H209	H	-0.269254	1.616001	-0.036594
H210	H	0.064079	1.949334	0.296739
F211	F	-0.353603	1.098184	-0.983443
F212	F	-0.020270	1.431517	-0.650110
F213	F	0.313063	1.764851	-0.316776
F214	F	-0.254673	1.264564	-0.940310
F215	F	0.078660	1.597898	-0.606976
F216	F	0.411993	1.931231	-0.273643
H217	H	-1.104352	1.080068	-0.553038
H218	H	-0.771019	1.413401	-0.219704
H219	H	-0.437686	1.746735	0.113629
H220	H	-0.754880	1.338653	-0.319522
H221	H	-0.421546	1.671986	0.013811
H222	H	-0.088213	2.005319	0.347145
F223	F	-0.496748	1.296568	-0.357286
F224	F	-0.163415	1.629901	-0.023953
F225	F	0.169918	1.963234	0.309381
H226	H	-0.853000	1.024042	-0.603452
H227	H	-0.519666	1.357376	-0.270119
H228	H	-0.186333	1.690709	0.063215
F229	F	-0.860796	1.352696	-0.306935
F230	F	-0.527462	1.686030	0.026399
F231	F	-0.194129	2.019363	0.359732
F232	F	-0.747080	1.010020	-0.616050
F233	F	-0.413747	1.343353	-0.282716
F234	F	-0.080414	1.676686	0.050617
F235	F	-0.999108	1.296862	-0.357389
F236	F	-0.665775	1.630196	-0.024056
F237	F	-0.332441	1.963529	0.309277
F238	F	-0.998435	1.066039	-0.565642
F239	F	-0.665101	1.399372	-0.232309
F240	F	-0.331768	1.732706	0.101025
F241	F	-1.111828	1.296917	-0.357417
F242	F	-0.778495	1.630251	-0.024084
F243	F	-0.445162	1.963584	0.309249
F244	F	-0.608789	1.065804	-0.565546
F245	F	-0.275455	1.399138	-0.232212
F246	F	0.057878	1.732471	0.101121
H247	H	-0.502935	1.079735	-0.552917
H248	H	-0.169602	1.413068	-0.219584
H249	H	0.163732	1.746401	0.113749
