data_functionalizedCrystal
_audit_creation_method	'MofGen! by Chris Wilmer'
_symmetry_space_group_name_H-M	'P1'
_symmetry_Int_Tables_number	1
_symmetry_cell_setting	triclinic
loop_
_symmetry_equiv_pos_as_xyz
  x,y,z
_cell_length_a	10.685980
_cell_length_b	12.759394
_cell_length_c	10.686551
_cell_angle_alpha	94.404940
_cell_angle_beta	98.408259
_cell_angle_gamma	94.380693
loop_
_atom_site_label
_atom_site_type_symbol
_atom_site_fract_x
_atom_site_fract_y
_atom_site_fract_z
Zn1	Zn	1.995794	-0.235485	0.866709
Zn2	Zn	1.979376	-0.425814	0.654450
Zn3	Zn	1.767222	-0.264726	0.638174
Zn4	Zn	1.783500	-0.425712	0.850361
O5	O	1.881473	-0.337934	0.752424
O6	O	2.171249	-0.248537	0.852206
O7	O	1.937550	-0.416726	0.474659
O8	O	1.797601	-0.113820	0.668521
O9	O	2.159187	-0.388372	0.696260
O10	O	1.965532	-0.092337	0.836424
O11	O	1.781681	-0.298375	0.462702
O12	O	1.591748	-0.298276	0.652668
O13	O	1.825344	-0.388198	1.030161
O14	O	1.603707	-0.416552	0.808560
O15	O	1.981316	-0.248438	1.042172
O16	O	1.953334	-0.572827	0.680408
O17	O	1.809424	-0.572752	0.824342
C18	C	1.551669	-0.360576	0.727075
C19	C	1.410580	-0.370286	0.716260
C20	C	1.881401	-0.610908	0.752397
C21	C	1.881489	-0.727676	0.752437
C22	C	2.056244	-0.705147	0.927388
C23	C	2.143661	-0.748740	1.014876
C24	C	2.143739	-0.858455	1.014909
C25	C	2.056387	-0.924580	0.927447
C26	C	1.968969	-0.880987	0.839959
C27	C	1.968903	-0.771269	0.839933
C28	C	1.794211	-0.903516	0.665017
C29	C	1.794137	-0.793802	0.664976
C30	C	1.706858	-0.969641	0.577555
C31	C	1.619444	-0.926048	0.490060
C32	C	1.619371	-0.816327	0.490029
C33	C	1.706719	-0.750209	0.577488
C34	C	2.212564	-0.315204	0.777872
C35	C	2.353656	-0.305518	0.788717
C36	C	1.906977	-0.315045	1.083512
C37	C	1.917846	-0.305291	1.224603
C38	C	1.881582	-0.063890	0.752481
C39	C	1.881628	0.052891	0.752505
C40	C	1.856141	-0.360653	0.422629
C41	C	1.845518	-0.370095	0.281558
H42	H	1.351371	-0.433169	0.645943
H43	H	2.056448	-1.013914	0.927492
Cl44	Cl	1.737077	-0.467282	1.190197
Cl45	Cl	1.707116	-1.107569	0.577437
H46	H	1.412858	-0.242633	0.859022
Cl47	Cl	2.026305	-0.208109	1.315969
Cl48	Cl	2.056137	-0.567219	0.927368
H49	H	2.214910	-0.893947	1.086161
Cl50	Cl	1.509632	-1.009180	0.380131
Cl51	Cl	2.253459	-0.665608	1.124832
Cl52	Cl	1.509462	-0.761535	0.380043
H53	H	1.706673	-0.660872	0.577467
