data_functionalizedCrystal
_audit_creation_method	'MofGen! by Chris Wilmer'
_symmetry_space_group_name_H-M	'P1'
_symmetry_Int_Tables_number	1
_symmetry_cell_setting	triclinic
loop_
_symmetry_equiv_pos_as_xyz
  x,y,z
_cell_length_a	12.759401
_cell_length_b	14.908178
_cell_length_c	14.908308
_cell_angle_alpha	89.778379
_cell_angle_beta	93.281135
_cell_angle_gamma	93.314343
loop_
_atom_site_label
_atom_site_type_symbol
_atom_site_fract_x
_atom_site_fract_y
_atom_site_fract_z
Zn1	Zn	1.547398	-0.387309	-0.487651
Zn2	Zn	1.548458	-0.529018	-0.328612
Zn3	Zn	1.382394	-0.378669	-0.337317
Zn4	Zn	1.362163	-0.537635	-0.478931
O5	O	1.460104	-0.458158	-0.408128
O6	O	1.694559	-0.406116	-0.466561
O7	O	1.535340	-0.501852	-0.203942
O8	O	1.412305	-0.253981	-0.364551
O9	O	1.695338	-0.510230	-0.349715
O10	O	1.533533	-0.260329	-0.475001
O11	O	1.413333	-0.391391	-0.210337
O12	O	1.232691	-0.399747	-0.356096
O13	O	1.377825	-0.524916	-0.605912
O14	O	1.217827	-0.516539	-0.460139
O15	O	1.513916	-0.414472	-0.612319
O16	O	1.515723	-0.655995	-0.341260
O17	O	1.378853	-0.662326	-0.451699
C18	C	1.187138	-0.458141	-0.408116
C19	C	1.070359	-0.458157	-0.408131
C20	C	0.898054	-0.519067	-0.462217
C21	C	1.007779	-0.519056	-0.462208
C22	C	1.023209	-0.397270	-0.354053
C23	C	0.913486	-0.397286	-0.354058
C24	C	1.148737	-0.626969	-0.488013
C25	C	1.195883	-0.687846	-0.542100
C26	C	1.153187	-0.706828	-0.629006
C27	C	1.063345	-0.664922	-0.661844
C28	C	1.016204	-0.604039	-0.607763
C29	C	1.058899	-0.585073	-0.520843
C30	C	0.772526	-0.289372	-0.328262
C31	C	0.725383	-0.228484	-0.274185
C32	C	0.768078	-0.209492	-0.187277
C33	C	0.857924	-0.251383	-0.154443
C34	C	0.905067	-0.312271	-0.208520
C35	C	0.862364	-0.331264	-0.295427
C36	C	1.445235	-0.691789	-0.394608
C37	C	1.438968	-0.791740	-0.388854
C38	C	1.553315	-0.986024	-0.493178
C39	C	1.547430	-1.079936	-0.487774
C40	C	1.421308	-1.073479	-0.372650
C41	C	1.427193	-0.979566	-0.378053
C42	C	1.493200	-0.935842	-0.438318
C43	C	1.499090	-0.841928	-0.443716
C44	C	1.372963	-0.835473	-0.328597
C45	C	1.367078	-0.929385	-0.323194
C46	C	1.734135	-0.458175	-0.408140
C47	C	1.850911	-0.458183	-0.408145
C48	C	1.443495	-0.471619	-0.642653
C49	C	1.436418	-0.477355	-0.742594
C50	C	1.475058	-0.223615	-0.421720
C51	C	1.481430	-0.123667	-0.427512
C52	C	1.564829	-0.373108	-0.937067
C53	C	1.558182	-0.378494	-1.030970
C54	C	1.416474	-0.493510	-1.024306
C55	C	1.423121	-0.488124	-0.930402
C56	C	1.497301	-0.427921	-0.886786
C57	C	1.503952	-0.422540	-0.792881
C58	C	1.362240	-0.537550	-0.786218
C59	C	1.355594	-0.542937	-0.880122
C60	C	1.476712	-0.444684	-0.174519
C61	C	1.484009	-0.438695	-0.074593
H62	H	1.074171	-0.347689	-0.310019
H63	H	1.356080	-0.542524	-1.059834
H64	H	1.324016	-0.794604	-0.283924
O65	O	0.722443	-0.150335	-0.134643
C66	C	0.779380	-0.142581	-0.050885
H67	H	0.863191	-0.162963	-0.058317
H68	H	0.781194	-0.070040	-0.026665
H69	H	0.739798	-0.188467	0.000055
H70	H	1.191581	-0.756396	-0.673044
O71	O	1.021945	-0.683207	-0.746323
C72	C	1.022397	-0.603370	-0.797342
H73	H	1.084769	-0.552812	-0.766885
H74	H	1.040901	-0.618747	-0.869403
H75	H	0.941888	-0.573994	-0.796996
O76	O	1.283036	-0.728654	-0.510100
C77	C	1.259520	-0.778723	-0.432638
H78	H	1.171227	-0.795806	-0.433369
H79	H	1.303020	-0.843425	-0.431711
H80	H	1.285296	-0.737427	-0.370197
O81	O	1.563059	-0.799354	-0.502306
C82	C	1.502470	-0.748401	-0.563467
H83	H	1.426013	-0.732582	-0.532492
H84	H	1.548535	-0.683018	-0.579356
H85	H	1.483868	-0.788400	-0.628009
O86	O	1.605770	-1.128593	-0.541195
C87	C	1.577788	-1.110785	-0.632112
H88	H	1.541543	-1.042732	-0.637864
H89	H	1.650914	-1.109818	-0.672684
H90	H	1.518282	-1.165402	-0.659308
H91	H	0.978226	-0.346378	-0.181780
H92	H	1.564355	-0.373521	-0.757370
O93	O	0.899420	-0.233102	-0.069992
C94	C	0.898933	-0.312926	-0.018950
H95	H	0.896883	-0.373208	-0.065960
H96	H	0.972936	-0.312443	0.027712
H97	H	0.826591	-0.317675	0.022670
H98	H	0.652231	-0.194369	-0.300929
O99	O	1.190061	-0.608629	-0.403523
C100	C	1.114446	-0.632071	-0.340841
H101	H	1.054490	-0.684442	-0.371676
H102	H	1.154965	-0.660984	-0.277940
H103	H	1.072738	-0.569744	-0.322222
O104	O	0.730942	-0.307691	-0.412681
C105	C	0.641526	-0.257669	-0.430060
H106	H	0.646468	-0.196429	-0.384132
H107	H	0.638123	-0.234748	-0.503157
H108	H	0.567684	-0.301381	-0.416947
H109	H	1.625235	-0.324093	-0.901554
O110	O	1.283592	-0.601535	-0.922389
C111	C	1.302491	-0.689842	-0.894272
H112	H	1.347586	-0.687795	-0.825985
H113	H	1.224329	-0.729983	-0.888723
H114	H	1.350839	-0.723157	-0.945371
O115	O	1.357130	-1.116071	-0.314234
C116	C	1.282179	-1.173341	-0.362251
H117	H	1.313456	-1.191253	-0.429620
H118	H	1.266600	-1.237311	-0.321823
H119	H	1.205876	-1.137771	-0.374138
O120	O	1.623891	-0.325214	-1.079676
C121	C	1.690766	-0.270909	-1.021039
H122	H	1.696795	-0.303901	-0.951968
H123	H	1.772235	-0.262873	-1.048727
H124	H	1.657348	-0.202042	-1.015007
H125	H	1.307257	-0.582186	-0.745270
H126	H	0.847108	-0.568653	-0.506257
H127	H	0.943059	-0.569918	-0.634501
H128	H	1.607069	-0.950423	-0.542241
H129	H	1.313334	-0.964998	-0.274130
