data_functionalizedCrystal
_audit_creation_method	'MofGen! by Chris Wilmer'
_symmetry_space_group_name_H-M	'P1'
_symmetry_Int_Tables_number	1
_symmetry_cell_setting	triclinic
loop_
_symmetry_equiv_pos_as_xyz
  x,y,z
_cell_length_a	14.044220
_cell_length_b	19.288865
_cell_length_c	17.766277
_cell_angle_alpha	90.011603
_cell_angle_beta	89.995720
_cell_angle_gamma	91.837437
loop_
_atom_site_label
_atom_site_type_symbol
_atom_site_fract_x
_atom_site_fract_y
_atom_site_fract_z
O1	O	1.256998	-0.167413	-0.062531
O2	O	0.981055	-0.161372	-0.062549
O3	O	1.127000	-0.063774	-0.062525
O4	O	1.111053	-0.265010	-0.062556
O5	O	1.126975	-0.063767	0.062664
O6	O	0.981029	-0.161365	0.062639
O7	O	1.256973	-0.167406	0.062658
Cu8	Cu	1.118999	-0.164385	0.074079
Cu9	Cu	1.119029	-0.164393	-0.073971
O10	O	1.111028	-0.265003	0.062633
C11	C	0.945739	-0.158724	0.000043
C12	C	0.840547	-0.150836	0.000036
C13	C	0.647947	-0.136416	0.000053
C14	C	0.590075	-0.192359	0.000048
C15	C	0.482906	-0.184335	0.000058
C16	C	0.755126	-0.144438	0.000044
C17	C	1.126474	-0.037862	0.000072
C18	C	1.124934	0.039341	0.000078
C19	C	1.292289	-0.170054	0.000064
C20	C	1.397481	-0.177942	0.000065
C21	C	1.111554	-0.290916	0.000035
C22	C	1.113094	-0.368119	0.000023
N23	N	1.118984	-0.164379	0.178209
C24	C	1.210568	0.078535	0.000088
C25	C	1.209121	0.151075	0.000076
C26	C	1.122035	0.184418	0.000069
C27	C	1.036390	0.145215	0.000056
C28	C	1.037839	0.072676	0.000060
C29	C	1.053566	0.297107	0.043916
C30	C	1.052120	0.369644	0.043916
C31	C	1.117560	0.408151	0.000052
C32	C	1.184463	0.374113	-0.043802
C33	C	1.185912	0.301574	-0.043797
C34	C	1.120453	0.263074	0.000064
C35	C	1.201631	0.526002	0.000048
C36	C	1.200181	0.598543	0.000031
C37	C	1.027447	0.592681	0.000019
C38	C	1.028900	0.520142	0.000028
C39	C	1.115995	0.486806	0.000046
N40	N	1.119051	-0.164394	-0.178101
C41	C	1.183630	-0.121187	0.217607
C42	C	1.183635	-0.121184	0.296409
C43	C	1.119004	-0.164386	0.335810
C44	C	1.054347	-0.207580	0.296403
C45	C	1.054337	-0.207577	0.217602
C46	C	1.106318	-0.226858	0.460638
C47	C	1.106335	-0.226863	0.539437
C48	C	1.119030	-0.164396	0.578856
C49	C	1.131728	-0.101922	0.539467
C50	C	1.131718	-0.101919	0.460667
C51	C	1.119008	-0.164394	0.421256
C52	C	1.183684	-0.121197	0.703700
C53	C	1.183683	-0.121193	0.782503
C54	C	1.054400	-0.207595	0.782495
C55	C	1.054396	-0.207593	0.703694
C56	C	1.119044	-0.164395	0.664301
H57	H	0.621016	-0.246280	0.000036
N58	N	1.295564	0.490042	0.000067
H59	H	1.300028	0.460058	-0.046333
H60	H	1.299938	0.460132	0.046513
N61	N	1.292547	0.640821	0.000038
H62	H	1.347937	0.608693	0.000053
H63	H	1.295690	0.671057	0.046444
N64	N	1.301488	0.193359	0.000102
H65	H	1.287352	0.244370	0.000100
H66	H	1.339479	0.181954	-0.046298
N67	N	1.253361	-0.074601	0.338921
H68	H	1.242671	-0.024633	0.325227
H69	H	1.320546	-0.086857	0.325180
H70	H	1.142065	-0.051055	0.571561
N71	N	0.606973	-0.064994	0.000073
H72	H	0.535112	-0.069315	0.000078
H73	H	0.629239	-0.038948	-0.046334
H74	H	1.096001	-0.277733	0.571501
N75	N	1.304501	0.042581	0.000106
H76	H	1.358531	0.078422	0.000109
H77	H	1.308879	0.012601	-0.046301
N78	N	1.258062	0.264859	-0.091094
H79	H	1.299302	0.300255	-0.118884
H80	H	1.223798	0.233571	-0.128555
N81	N	1.145412	-0.034542	0.418185
H82	H	1.143482	-0.044022	0.362285
H83	H	1.209060	-0.012194	0.431957
N84	N	1.255055	0.415634	-0.091114
H85	H	1.243985	0.466751	-0.084467
H86	H	1.246461	0.402637	-0.145820
N87	N	0.933516	0.628633	0.000003
H88	H	0.945590	0.680534	-0.000001
H89	H	0.896043	0.614687	0.046409
N90	N	0.979966	0.406360	0.091207
H91	H	1.014154	0.437644	0.128717
H92	H	0.938737	0.370921	0.118940
N93	N	0.984676	-0.254190	0.661203
H94	H	1.020748	-0.287194	0.628495
H95	H	0.942845	-0.224988	0.628566
N96	N	0.936537	0.477862	0.000022
H97	H	0.881147	0.509990	0.000016
H98	H	0.933367	0.447649	0.046433
H99	H	1.095964	-0.277729	0.428549
N100	N	0.982975	0.255577	0.091224
H101	H	0.940380	0.288145	0.119008
H102	H	1.018438	0.226671	0.128690
N103	N	1.253404	-0.074606	0.661205
H104	H	1.294354	-0.047239	0.698124
H105	H	1.217258	-0.041645	0.628521
H106	H	0.965484	0.172367	0.000049
N107	N	0.945473	0.030397	0.000050
H108	H	0.890082	0.062524	0.000041
H109	H	0.942303	0.000186	0.046462
N110	N	1.253350	-0.074595	0.175119
H111	H	1.294303	-0.047232	0.212040
H112	H	1.217203	-0.041629	0.142440
N113	N	1.253427	-0.074618	0.825001
H114	H	1.294384	-0.047261	0.788085
H115	H	1.295191	-0.103836	0.857675
H116	H	1.001772	-0.242768	0.814575
N117	N	0.984632	-0.254173	0.338894
H118	H	0.994448	-0.247622	0.394792
H119	H	0.995358	-0.304117	0.325104
H120	H	1.001694	-0.242749	0.185524
