data_functionalizedCrystal
_audit_creation_method	'MofGen! by Chris Wilmer'
_symmetry_space_group_name_H-M	'P1'
_symmetry_Int_Tables_number	1
_symmetry_cell_setting	triclinic
loop_
_symmetry_equiv_pos_as_xyz
  x,y,z
_cell_length_a	18.050591
_cell_length_b	29.839126
_cell_length_c	18.050589
_cell_angle_alpha	90.016881
_cell_angle_beta	89.975773
_cell_angle_gamma	89.974078
loop_
_atom_site_label
_atom_site_type_symbol
_atom_site_fract_x
_atom_site_fract_y
_atom_site_fract_z
Zn1	Zn	1.135329	-0.254103	0.295795
Zn2	Zn	1.635329	0.245897	0.795795
Zn3	Zn	1.135229	-0.178983	0.419976
Zn4	Zn	1.635229	0.321017	0.919976
Zn5	Zn	1.011138	-0.178978	0.295796
Zn6	Zn	1.511138	0.321022	0.795796
Zn7	Zn	1.011096	-0.254076	0.419939
Zn8	Zn	1.511096	0.245924	0.919939
O9	O	1.073198	-0.216535	0.357877
O10	O	1.573198	0.283465	0.857877
O11	O	1.239240	-0.244152	0.312283
O12	O	1.739240	0.255848	0.812283
O13	O	1.118743	-0.116115	0.403518
O14	O	1.618743	0.383885	0.903518
O15	O	1.027671	-0.188953	0.191871
O16	O	1.527671	0.311047	0.691871
O17	O	1.239167	-0.188961	0.403518
O18	O	1.739167	0.311039	0.903518
O19	O	1.118914	-0.244147	0.191871
O20	O	1.618914	0.255853	0.691871
O21	O	1.027574	-0.116111	0.312284
O22	O	1.527574	0.383889	0.812284
O23	O	0.907208	-0.188926	0.312248
O24	O	1.407208	0.311074	0.812248
O25	O	1.027601	-0.316947	0.403456
O26	O	1.527601	0.183053	0.903456
O27	O	0.907177	-0.244101	0.403456
O28	O	1.407177	0.255899	0.903456
O29	O	1.118874	-0.316967	0.312248
O30	O	1.618874	0.183033	0.812248
O31	O	1.118703	-0.188935	0.523896
O32	O	1.618703	0.311065	1.023896
O33	O	1.027504	-0.244105	0.523869
O34	O	1.527504	0.255895	1.023869
C35	C	0.880246	-0.216510	0.357849
C36	C	1.380246	0.283490	0.857849
C37	C	0.797700	-0.216510	0.357855
C38	C	1.297700	0.283490	0.857855
C39	C	0.598244	-0.186575	0.308199
C40	C	1.098244	0.313425	0.808199
C41	C	0.548823	-0.175523	0.375934
C42	C	1.048823	0.324477	0.875934
C43	C	0.646570	-0.216530	0.357878
C44	C	1.146570	0.283470	0.857878
C45	C	0.548909	-0.227582	0.290166
C46	C	1.048909	0.272418	0.790166
C47	C	0.500585	-0.216549	0.357893
C48	C	1.000585	0.283451	0.857893
C49	C	0.598236	-0.205456	0.425649
C50	C	1.098236	0.294544	0.925649
C51	C	0.598326	-0.257535	0.339834
C52	C	1.098326	0.242465	0.839834
C53	C	0.548927	-0.246498	0.407617
C54	C	1.048927	0.253502	0.907617
C55	C	0.730668	-0.216518	0.357867
C56	C	1.230668	0.283482	0.857867
C57	C	0.416488	-0.216561	0.357911
C58	C	0.916488	0.283439	0.857911
C59	C	1.073244	-0.333713	0.357848
C60	C	1.573244	0.166287	0.857848
C61	C	1.073264	-0.383648	0.357836
C62	C	1.573264	0.116352	0.857836
C63	C	1.025806	-0.693292	0.310256
C64	C	1.525806	-0.193292	0.810256
C65	C	1.025828	-0.880965	0.310204
C66	C	1.525828	-0.380965	0.810204
O67	O	0.985441	-0.905231	0.269824
O68	O	1.485441	-0.405231	0.769824
N69	N	1.073299	-0.904433	0.357697
N70	N	1.573299	-0.404433	0.857697
C71	C	1.120765	-0.880980	0.405209
C72	C	1.620765	-0.380980	0.905209
O73	O	1.161137	-0.905247	0.445608
O74	O	1.661137	-0.405247	0.945608
C75	C	1.120739	-0.693307	0.405264
C76	C	1.620739	-0.193307	0.905264
C77	C	1.073270	-0.669842	0.357763
C78	C	1.573270	-0.169842	0.857763
C79	C	0.978341	-0.669827	0.262759
C80	C	1.478341	-0.169827	0.762759
C81	C	0.978339	-0.622911	0.262770
C82	C	1.478339	-0.122911	0.762770
C83	C	1.025803	-0.599461	0.310277
C84	C	1.525803	-0.099461	0.810277
C85	C	1.073268	-0.622927	0.357773
C86	C	1.573268	-0.122927	0.857773
C87	C	1.168201	-0.669855	0.452779
C88	C	1.668201	-0.169855	0.952779
C89	C	1.168189	-0.622934	0.452790
C90	C	1.668189	-0.122934	0.952790
C91	C	1.120720	-0.599468	0.405289
C92	C	1.620720	-0.099468	0.905289
C93	C	1.120730	-0.552561	0.405291
C94	C	1.620730	-0.052561	0.905291
N95	N	1.073259	-0.529093	0.357798
N96	N	1.573259	-0.029093	0.857798
C97	C	1.025795	-0.552543	0.310291
C98	C	1.525795	-0.052543	0.810291
C99	C	1.120776	-0.979510	0.405176
C100	C	1.620776	-0.479510	0.905176
C101	C	1.120783	-1.026428	0.405161
C102	C	1.620783	-0.526428	0.905161
C103	C	1.025845	-1.026411	0.310157
C104	C	1.525845	-0.526411	0.810157
C105	C	1.025842	-0.979492	0.310169
C106	C	1.525842	-0.479492	0.810169
C107	C	1.073304	-0.956042	0.357683
C108	C	1.573304	-0.456042	0.857683
C109	C	1.025795	-0.454017	0.310316
C110	C	1.525795	0.045983	0.810316
C111	C	1.025800	-0.407098	0.310329
C112	C	1.525800	0.092902	0.810329
C113	C	1.120735	-0.407119	0.405335
C114	C	1.620735	0.092881	0.905335
C115	C	1.120734	-0.454035	0.405320
C116	C	1.620734	0.045965	0.905320
C117	C	1.073258	-0.477483	0.357808
C118	C	1.573258	0.022517	0.857808
O119	O	1.161090	-0.528266	0.445656
O120	O	1.661090	-0.028266	0.945656
O121	O	0.985417	-0.528268	0.269909
O122	O	1.485417	-0.028268	0.769909
C123	C	1.025808	-0.740208	0.310245
C124	C	1.525808	-0.240208	0.810245
C125	C	1.073274	-0.763673	0.357742
C126	C	1.573274	-0.263673	0.857742
C127	C	1.120738	-0.740223	0.405249
C128	C	1.620738	-0.240223	0.905249
C129	C	1.073282	-0.810591	0.357727
C130	C	1.573282	-0.310591	0.857727
C131	C	1.025818	-0.834041	0.310220
C132	C	1.525818	-0.334041	0.810220
C133	C	0.978346	-0.810573	0.262728
C134	C	1.478346	-0.310573	0.762728
C135	C	0.978344	-0.763658	0.262738
C136	C	1.478344	-0.263658	0.762738
C137	C	1.168209	-0.763690	0.452741
C138	C	1.668209	-0.263690	0.952741
C139	C	1.168208	-0.810606	0.452726
C140	C	1.668208	-0.310606	0.952726
C141	C	1.120744	-0.834056	0.405219
C142	C	1.620744	-0.334056	0.905219
C143	C	1.266904	-0.216560	0.357905
C144	C	1.766904	0.283440	0.857905
C145	C	1.349449	-0.216571	0.357917
C146	C	1.849449	0.283429	0.857917
C147	C	1.073108	-0.216527	0.550829
C148	C	1.573108	0.283473	1.050829
C149	C	1.073138	-0.216539	0.633374
C150	C	1.573138	0.283461	1.133374
C151	C	1.073195	-0.099812	0.357851
C152	C	1.573195	0.400188	0.857851
C153	C	1.073319	-0.049878	0.357654
C154	C	1.573319	0.450122	0.857654
C155	C	1.073308	-0.216552	0.164171
C156	C	1.573308	0.283448	0.664171
C157	C	1.073355	-0.216560	0.081625
C158	C	1.573355	0.283440	0.581625
C159	C	1.023592	-0.246531	0.832838
C160	C	1.523592	0.253469	1.332838
C161	C	1.005489	-0.205535	0.882269
C162	C	1.505489	0.294465	1.382269
C163	C	1.073211	-0.216545	0.784505
C164	C	1.573211	0.283455	1.284505
C165	C	1.091351	-0.257545	0.882155
C166	C	1.591351	0.242455	1.382155
C167	C	1.073280	-0.216554	0.930490
C168	C	1.573280	0.283446	1.430490
C169	C	1.055072	-0.175528	0.832849
C170	C	1.555072	0.324472	1.332849
C171	C	1.140966	-0.227566	0.832731
C172	C	1.640966	0.272434	1.332731
C173	C	1.122888	-0.186542	0.882140
C174	C	1.622888	0.313458	1.382140
C175	C	1.073169	-0.216540	0.700407
C176	C	1.573169	0.283460	1.200407
C177	C	1.073322	-0.216555	1.014586
C178	C	1.573322	0.283445	1.514586
H179	H	0.527203	-0.236906	0.232903
H180	H	1.027203	0.263094	0.732903
O181	O	1.216889	-0.239875	0.804050
O182	O	1.716889	0.260125	1.304050
H183	H	1.231826	-0.273917	0.823822
H184	H	1.731826	0.226083	1.323822
H185	H	0.620087	-0.292193	0.324541
H186	H	1.120087	0.207807	0.824541
O187	O	0.626806	-0.193025	0.501531
O188	O	1.126806	0.306975	1.001531
H189	H	0.688294	-0.193095	0.500919
H190	H	1.188294	0.306905	1.000919
O191	O	0.626945	-0.152988	0.252612
O192	O	1.126945	0.347012	0.752612
H193	H	0.607118	-0.118984	0.267779
H194	H	1.107118	0.381016	0.767779
O195	O	1.111645	-0.303468	0.910843
O196	O	1.611645	0.196532	1.410843
H197	H	1.070339	-0.328287	0.891096
H198	H	1.570339	0.171713	1.391096
O199	O	0.974651	-1.051707	0.258913
O200	O	1.474651	-0.551707	0.758913
H201	H	0.982634	-1.088273	0.266891
H202	H	1.482634	-0.588273	0.766891
O203	O	1.178510	-0.152921	0.910638
O204	O	1.678510	0.347079	1.410638
H205	H	1.220908	-0.170465	0.944428
H206	H	1.720908	0.329535	1.444428
H207	H	0.987145	-0.387995	0.271645
H208	H	1.487145	0.112005	0.771645
O209	O	0.974598	-0.479305	0.259067
O210	O	1.474598	0.020695	0.759067
H211	H	0.941602	-0.455100	0.226039
H212	H	1.441602	0.044900	0.726039
O213	O	0.520011	-0.129604	0.396168
O214	O	1.020011	0.370396	0.896168
H215	H	0.539756	-0.104789	0.354845
H216	H	1.039756	0.395211	0.854845
H217	H	0.939682	-0.603810	0.224093
H218	H	1.439682	-0.103810	0.724093
O219	O	0.520404	-0.280060	0.463333
O220	O	1.020404	0.219940	0.963333
H221	H	0.540263	-0.270787	0.519468
H222	H	1.040263	0.229213	1.019468
O223	O	0.927150	-0.695116	0.211510
O224	O	1.427150	-0.195116	0.711510
H225	H	0.894153	-0.670910	0.178486
H226	H	1.394153	-0.170910	0.678486
H227	H	0.987188	-0.960390	0.271489
H228	H	1.487188	-0.460390	0.771489
O229	O	0.929631	-0.193188	0.911091
O230	O	1.429631	0.306812	1.411091
H231	H	0.933660	-0.162218	0.944922
H232	H	1.433660	0.337782	1.444922
O233	O	1.171988	-0.954225	0.456416
O234	O	1.671988	-0.454225	0.956416
H235	H	1.159232	-0.963229	0.514698
H236	H	1.659232	-0.463229	1.014698
H237	H	1.159446	-1.045530	0.443833
H238	H	1.659446	-0.545530	0.943833
O239	O	1.219382	-0.695157	0.504031
O240	O	1.719382	-0.195157	1.004031
H241	H	1.252367	-0.670961	0.537075
H242	H	1.752367	-0.170961	1.037075
H243	H	1.206845	-0.603844	0.491478
H244	H	1.706845	-0.103844	0.991478
H245	H	1.159395	-0.473141	0.443991
H246	H	1.659395	0.026859	0.943991
O247	O	1.171930	-0.381822	0.456571
O248	O	1.671930	0.118178	0.956571
H249	H	1.159162	-0.390820	0.514853
H250	H	1.659162	0.109180	1.014853
H251	H	0.939690	-0.744557	0.224058
H252	H	1.439690	-0.244557	0.724058
O253	O	0.927160	-0.835870	0.211477
O254	O	1.427160	-0.335870	0.711477
H255	H	0.935143	-0.872436	0.219455
H256	H	1.435143	-0.372436	0.719455
O257	O	1.219400	-0.835914	0.503973
O258	O	1.719400	-0.335914	1.003973
H259	H	1.252392	-0.811720	0.537015
H260	H	1.752392	-0.311720	1.037015
H261	H	1.206858	-0.744602	0.491431
H262	H	1.706858	-0.244602	0.991431
O263	O	0.967932	-0.280069	0.804147
O264	O	1.467932	0.219931	1.304147
H265	H	0.939881	-0.296544	0.851604
H266	H	1.439881	0.203456	1.351604
O267	O	1.034691	-0.129590	0.804289
O268	O	1.534691	0.370410	1.304289
H269	H	1.034792	-0.129952	0.742801
H270	H	1.534792	0.370048	1.242801
