data_functionalizedCrystal
_audit_creation_method	'MofGen! by Chris Wilmer'
_symmetry_space_group_name_H-M	'P1'
_symmetry_Int_Tables_number	1
_symmetry_cell_setting	triclinic
loop_
_symmetry_equiv_pos_as_xyz
  x,y,z
_cell_length_a	10.654541
_cell_length_b	14.853559
_cell_length_c	9.730217
_cell_angle_alpha	89.998938
_cell_angle_beta	89.999932
_cell_angle_gamma	84.057691
loop_
_atom_site_label
_atom_site_type_symbol
_atom_site_fract_x
_atom_site_fract_y
_atom_site_fract_z
O1	O	1.666518	0.126615	-0.114241
O2	O	1.300913	0.138681	-0.114252
O3	O	1.493487	0.001470	-0.114244
O4	O	1.473944	0.263826	-0.114248
O5	O	1.493481	0.001469	0.114336
O6	O	1.300907	0.138680	0.114328
O7	O	1.666512	0.126613	0.114340
Zn8	Zn	1.483708	0.132646	0.150626
Zn9	Zn	1.483716	0.132648	-0.150538
O10	O	1.473938	0.263825	0.114332
C11	C	1.254121	0.137795	0.000037
C12	C	1.114705	0.135146	0.000032
C13	C	1.492600	-0.032124	0.000043
C14	C	1.489952	-0.132223	0.000035
C15	C	1.085023	0.299219	0.000013
C16	C	1.004686	0.380007	-0.000002
C17	C	0.873694	0.377512	-0.000004
C18	C	0.823037	0.294220	0.000014
C19	C	0.903374	0.213432	0.000030
C20	C	1.034368	0.215936	0.000027
C21	C	0.933056	0.049361	0.000059
C22	C	1.064049	0.051854	0.000050
C23	C	0.882400	-0.033931	0.000077
C24	C	0.962737	-0.114722	0.000082
C25	C	1.093737	-0.112223	0.000082
C26	C	1.144386	-0.028935	0.000065
C27	C	1.478723	-0.555457	-0.124564
C28	C	1.478716	-0.555453	0.124642
C29	C	1.481214	-0.461407	0.124644
C30	C	1.482465	-0.414381	0.000039
C31	C	1.481217	-0.461401	-0.124567
C32	C	1.482449	-0.414378	0.249247
C33	C	1.484946	-0.320325	0.249254
C34	C	1.486206	-0.273298	0.124647
C35	C	1.484960	-0.320325	0.000037
C36	C	1.486210	-0.273299	-0.124568
C37	C	1.484973	-0.320325	-0.249181
C38	C	1.482477	-0.414375	-0.249173
C39	C	1.488702	-0.179249	0.124640
C40	C	1.488705	-0.179243	-0.124571
C41	C	1.713304	0.127500	0.000048
C42	C	1.852719	0.130149	0.000043
C43	C	1.474824	0.297419	0.000042
C44	C	1.477472	0.397517	0.000040
N45	N	1.483712	0.132645	0.356162
N46	N	1.483722	0.132643	-0.356075
C47	C	1.654306	0.011180	0.356160
C48	C	1.739611	-0.049550	0.428098
C49	C	1.739624	-0.049550	0.571978
C50	C	1.654320	0.011184	0.643922
C51	C	1.569015	0.071913	0.571984
C52	C	1.569014	0.071909	0.428101
C53	C	1.398417	0.193372	0.571987
C54	C	1.398408	0.193379	0.428107
C55	C	1.313113	0.254106	0.643931
C56	C	1.227812	0.314842	0.571993
C57	C	1.227803	0.314841	0.428104
C58	C	1.313103	0.254109	0.356169
H59	H	1.191682	0.301258	-0.000016
C60	C	1.481103	-0.466109	-0.386234
N61	N	1.480061	-0.505078	-0.489468
C62	C	1.313100	0.254100	0.197897
N63	N	1.313098	0.254088	0.078685
H64	H	1.489681	-0.140962	0.226097
C65	C	1.477326	-0.607183	0.261700
N66	N	1.476279	-0.646151	0.364937
C67	C	0.785321	0.466383	-0.000020
N68	N	0.718758	0.533320	-0.000035
C69	C	1.477359	-0.607185	-0.261632
N70	N	1.476330	-0.646148	-0.364872
H71	H	1.158358	0.364283	0.630579
H72	H	1.045945	0.447822	-0.000013
C73	C	0.738305	-0.036673	0.000077
N74	N	0.629771	-0.038740	0.000071
C75	C	1.486352	-0.268585	-0.386241
N76	N	1.487394	-0.229610	-0.489473
C77	C	0.678942	0.291481	0.000028
N78	N	0.570407	0.289416	0.000037
H79	H	1.489729	-0.140962	-0.226040
C80	C	1.654316	0.011163	0.802194
N81	N	1.654308	0.011144	0.921406
C82	C	1.833422	-0.116368	0.348949
N83	N	1.904072	-0.166702	0.289337
C84	C	1.654308	0.011181	0.197888
N85	N	1.654310	0.011179	0.078676
C86	C	1.182099	-0.201099	0.000100
N87	N	1.248649	-0.268042	0.000111
C88	C	1.313114	0.254092	0.802203
N89	N	1.313111	0.254082	0.921415
C90	C	1.288479	-0.026179	0.000069
N91	N	1.397010	-0.024099	0.000079
C92	C	1.833462	-0.116356	0.651112
N93	N	1.904143	-0.166674	0.710716
H94	H	1.485959	-0.282045	0.350721
H95	H	1.481424	-0.452672	0.350694
C96	C	0.907006	-0.206333	0.000105
N97	N	0.865024	-0.275336	0.000119
H98	H	1.158333	0.364291	0.369540
