data_functionalizedCrystal
_audit_creation_method	'MofGen! by Chris Wilmer'
_symmetry_space_group_name_H-M	'P1'
_symmetry_Int_Tables_number	1
_symmetry_cell_setting	triclinic
loop_
_symmetry_equiv_pos_as_xyz
  x,y,z
_cell_length_a	19.288864
_cell_length_b	15.944551
_cell_length_c	17.766277
_cell_angle_alpha	89.992686
_cell_angle_beta	89.976791
_cell_angle_gamma	83.317492
loop_
_atom_site_label
_atom_site_type_symbol
_atom_site_fract_x
_atom_site_fract_y
_atom_site_fract_z
O1	O	0.921629	0.104784	-0.062837
O2	O	0.719406	0.118919	-0.062786
O3	O	0.826040	-0.010445	-0.062806
O4	O	0.814995	0.234147	-0.062817
O5	O	0.826021	-0.010451	0.062382
O6	O	0.719387	0.118912	0.062403
O7	O	0.921610	0.104777	0.062351
Cu8	Cu	0.820497	0.111844	0.073808
Cu9	Cu	0.820519	0.111852	-0.074242
O10	O	0.814976	0.234141	0.062372
C11	C	0.693519	0.118461	-0.000185
C12	C	0.616411	0.117095	-0.000165
C13	C	0.571915	0.193000	-0.000181
C14	C	0.499465	0.191717	-0.000189
C15	C	0.471514	0.114526	-0.000197
C16	C	0.516020	0.038611	-0.000178
C17	C	0.588469	0.039896	-0.000162
C18	C	0.363099	0.053847	-0.044079
C19	C	0.290651	0.052565	-0.044099
C20	C	0.248058	0.110560	-0.000242
C21	C	0.277920	0.169850	0.043625
C22	C	0.350369	0.171135	0.043641
C23	C	0.392956	0.113124	-0.000214
C24	C	0.125002	0.185079	-0.000265
C25	C	0.052550	0.183793	-0.000269
C26	C	0.069107	0.030684	-0.000265
C27	C	0.141557	0.031972	-0.000254
C28	C	0.169500	0.109172	-0.000258
C29	C	0.825572	-0.041740	-0.000212
C30	C	0.824197	-0.134981	-0.000211
C31	C	0.754815	-0.349571	-0.000204
C32	C	0.787024	-0.410715	0.061514
C33	C	0.821710	-0.305697	-0.000216
C34	C	0.787059	-0.410692	-0.061912
C35	C	0.819303	-0.470601	-0.000224
C36	C	0.853938	-0.365614	0.061552
C37	C	0.853963	-0.365585	-0.061929
C38	C	0.886222	-0.426712	-0.000197
C39	C	0.823095	-0.210700	-0.000211
C40	C	0.817924	-0.565597	-0.000224
C41	C	0.947497	0.105235	-0.000251
C42	C	1.024605	0.106600	-0.000276
C43	C	0.815444	0.265436	-0.000225
C44	C	0.816819	0.358677	-0.000230
N45	N	0.820486	0.111838	0.177938
N46	N	0.820535	0.111851	-0.178373
C47	C	0.867719	0.054584	0.217316
C48	C	0.867723	0.054580	0.296118
C49	C	0.820501	0.111845	0.335539
C50	C	0.773259	0.169103	0.296151
C51	C	0.773252	0.169100	0.217351
C52	C	0.811404	0.188378	0.460375
C53	C	0.811416	0.188382	0.539173
C54	C	0.820520	0.111855	0.578585
C55	C	0.829626	0.035319	0.539188
C56	C	0.829618	0.035316	0.460387
C57	C	0.820503	0.111854	0.420984
C58	C	0.867759	0.054592	0.703409
C59	C	0.867759	0.054587	0.782212
C60	C	0.773298	0.169117	0.782244
C61	C	0.773295	0.169115	0.703442
C62	C	0.820530	0.111853	0.664029
H63	H	0.397773	0.006619	-0.079797
H64	H	0.906187	0.007955	0.328185
H65	H	0.906179	0.007956	0.185228
H66	H	0.758764	-0.430657	-0.114093
H67	H	0.734809	0.215728	0.328251
H68	H	0.493258	-0.024239	-0.000195
H69	H	0.941797	-0.460084	-0.000176
H70	H	0.594661	0.255862	-0.000185
H71	H	0.837031	-0.027001	0.428314
H72	H	0.906219	0.007963	0.671318
O73	O	0.727392	0.224821	0.665303
C74	C	0.633675	0.338384	0.673653
C75	C	0.685638	0.275356	0.716939
H76	H	0.599894	0.379247	0.715381
H77	H	0.663623	0.380311	0.636758
H78	H	0.599007	0.302208	0.636764
H79	H	0.720320	0.311464	0.753868
H80	H	0.655647	0.233430	0.753785
H81	H	0.374680	0.219409	0.079362
H82	H	0.147754	0.247939	-0.000257
O83	O	0.688542	-0.309674	-0.000217
C84	C	0.577971	-0.288281	-0.064613
C85	C	0.652999	-0.333532	-0.064686
H86	H	0.549218	-0.307540	-0.116739
H87	H	0.549522	-0.306698	-0.011953
H88	H	0.579648	-0.217048	-0.065115
H89	H	0.651387	-0.404773	-0.064211
H90	H	0.681418	-0.315046	-0.117343
O91	O	0.887598	-0.341710	-0.124270
C92	C	0.890393	-0.337374	-0.259804
C93	C	0.852233	-0.364442	-0.189259
H94	H	0.861826	-0.355757	-0.312365
H95	H	0.891534	-0.266054	-0.258956
H96	H	0.946108	-0.370326	-0.260313
H97	H	0.796502	-0.331549	-0.188704
H98	H	0.851149	-0.435770	-0.190134
O99	O	0.631767	-0.033787	-0.000253
C100	C	0.723174	-0.121208	-0.065120
C101	C	0.674189	-0.037723	-0.065098
H102	H	0.757475	-0.124427	-0.117549
H103	H	0.757530	-0.124449	-0.012760
H104	H	0.690741	-0.176588	-0.065088
H105	H	0.706568	0.017703	-0.065156
H106	H	0.639831	-0.034557	-0.117454
H107	H	0.463229	0.253530	-0.000199
O108	O	0.838346	-0.039012	0.577490
C109	C	0.789420	-0.129851	0.666519
C110	C	0.779444	-0.045655	0.623175
H111	H	0.741814	-0.135241	0.703478
H112	H	0.795886	-0.184578	0.624854
H113	H	0.837979	-0.132038	0.703353
H114	H	0.730884	-0.043385	0.586340
H115	H	0.773019	0.009034	0.664881
H116	H	0.243242	0.217075	0.079338
O117	O	0.009423	0.257609	-0.000315
C118	C	0.000650	0.409604	-0.000285
C119	C	0.049572	0.326070	-0.000250
H120	H	0.033091	0.464977	-0.000216
H121	H	-0.033644	0.412887	-0.052693
H122	H	-0.033723	0.412785	0.052089
H123	H	0.083988	0.322833	-0.052588
H124	H	0.083818	0.322822	0.052193
H125	H	0.906219	0.007959	0.814274
H126	H	0.758722	-0.430717	0.113705
O127	O	0.802533	0.262799	0.577323
C128	C	0.784503	0.414617	0.568991
C129	C	0.794540	0.330399	0.525695
H130	H	0.778053	0.469295	0.527269
H131	H	0.735955	0.416869	0.605892
H132	H	0.832127	0.420033	0.605874
H133	H	0.746955	0.324928	0.488771
H134	H	0.843116	0.328184	0.488842
H135	H	0.882201	-0.345735	0.113786
O136	O	0.041849	-0.044227	-0.000308
C137	C	-0.062424	-0.114063	-0.000286
C138	C	-0.031644	-0.029165	-0.000257
H139	H	-0.121847	-0.101915	-0.000229
H140	H	-0.044120	-0.151568	-0.052686
H141	H	-0.044084	-0.151564	0.052096
H142	H	-0.049970	0.008405	-0.052604
H143	H	-0.049945	0.008276	0.052178
H144	H	0.734846	0.215740	0.814340
O145	O	0.184686	-0.041840	-0.000281
C146	C	0.193460	-0.193835	-0.000234
C147	C	0.144537	-0.110302	-0.000224
H148	H	0.161020	-0.249208	-0.000171
H149	H	0.227808	-0.197116	-0.052630
H150	H	0.227778	-0.197017	0.052153
H151	H	0.110176	-0.107064	-0.052575
H152	H	0.110236	-0.107056	0.052207
H153	H	0.266342	0.004291	-0.079822
O154	O	0.802661	0.262670	0.422008
C155	C	0.851634	0.353523	0.333028
C156	C	0.861617	0.269358	0.376419
H157	H	0.899298	0.358966	0.296171
H158	H	0.803127	0.355734	0.296110
H159	H	0.845102	0.408211	0.374730
H160	H	0.868179	0.214623	0.334771
H161	H	0.910111	0.267221	0.413348
O162	O	0.727345	0.224804	0.179212
C163	C	0.633626	0.338366	0.187559
C164	C	0.685587	0.275338	0.230847
H165	H	0.599841	0.379227	0.229287
H166	H	0.663575	0.380294	0.150668
H167	H	0.598959	0.302189	0.150668
H168	H	0.720267	0.311446	0.267779
H169	H	0.655595	0.233410	0.267691
