data_functionalizedCrystal
_audit_creation_method	'MofGen! by Chris Wilmer'
_symmetry_space_group_name_H-M	'P1'
_symmetry_Int_Tables_number	1
_symmetry_cell_setting	triclinic
loop_
_symmetry_equiv_pos_as_xyz
  x,y,z
_cell_length_a	17.000371
_cell_length_b	17.038272
_cell_length_c	10.268362
_cell_angle_alpha	89.994496
_cell_angle_beta	89.994912
_cell_angle_gamma	83.355402
loop_
_atom_site_label
_atom_site_type_symbol
_atom_site_fract_x
_atom_site_fract_y
_atom_site_fract_z
O1	O	1.058002	0.028043	-0.108306
O2	O	1.391335	0.361376	0.225027
O3	O	1.724668	0.694710	0.558361
O4	O	0.828181	0.056288	-0.108308
O5	O	1.161515	0.389621	0.225025
O6	O	1.494848	0.722955	0.558359
O7	O	0.941726	-0.071556	-0.108297
O8	O	1.275059	0.261777	0.225037
O9	O	1.608392	0.595110	0.558370
O10	O	0.944457	0.155887	-0.108317
O11	O	1.277791	0.489221	0.225016
O12	O	1.611124	0.822554	0.558349
O13	O	0.941715	-0.071560	0.108304
O14	O	1.275048	0.261773	0.441637
O15	O	1.608381	0.595106	0.774971
O16	O	0.828170	0.056284	0.108293
O17	O	1.161504	0.389617	0.441626
O18	O	1.494837	0.722950	0.774959
O19	O	1.057991	0.028039	0.108295
O20	O	1.391324	0.361372	0.441628
O21	O	1.724657	0.694706	0.774961
Cu22	Cu	0.943080	0.042161	0.128071
Cu23	Cu	1.276413	0.375494	0.461404
Cu24	Cu	1.609746	0.708828	0.794738
Cu25	Cu	0.943092	0.042166	-0.128084
Cu26	Cu	1.276426	0.375499	0.205249
Cu27	Cu	1.609759	0.708833	0.538582
O28	O	0.944446	0.155883	0.108283
O29	O	1.277780	0.489217	0.441617
O30	O	1.611113	0.822550	0.774950
C31	C	0.798625	0.057803	-0.000008
C32	C	1.131958	0.391136	0.333326
C33	C	1.465292	0.724470	0.666659
C34	C	0.710572	0.062314	-0.000008
C35	C	1.043905	0.395647	0.333325
C36	C	1.377238	0.728981	0.666658
C37	C	0.673845	-0.007108	0.000000
C38	C	1.007179	0.326226	0.333334
C39	C	1.340512	0.659559	0.666667
C40	C	0.591110	-0.002864	-0.000009
C41	C	0.924443	0.330469	0.333324
C42	C	1.257776	0.663802	0.666657
C43	C	0.545102	0.070802	-0.000018
C44	C	0.878435	0.404135	0.333315
C45	C	1.211769	0.737468	0.666648
C46	C	0.581834	0.140229	-0.000031
C47	C	0.915167	0.473562	0.333302
C48	C	1.248500	0.806895	0.666636
C49	C	0.664568	0.135985	-0.000030
C50	C	0.997901	0.469318	0.333303
C51	C	1.331235	0.802651	0.666636
C52	C	0.295066	0.087196	-0.000029
C53	C	0.628399	0.420529	0.333305
C54	C	0.961733	0.753862	0.666638
C55	C	0.212327	0.091434	-0.000025
C56	C	0.545660	0.424768	0.333308
C57	C	0.878993	0.758101	0.666641
C58	C	0.221608	-0.051659	-0.000006
C59	C	0.554942	0.281674	0.333327
C60	C	0.888275	0.615008	0.666661
C61	C	0.304344	-0.055897	0.000002
C62	C	0.637677	0.277437	0.333336
C63	C	0.971010	0.610770	0.666669
C64	C	0.341068	0.013530	-0.000017
C65	C	0.674402	0.346864	0.333316
C66	C	1.007735	0.680197	0.666649
C67	C	0.460533	0.075141	-0.000024
C68	C	0.793866	0.408474	0.333309
C69	C	1.127199	0.741808	0.666642
C70	C	0.425636	0.009190	-0.000021
C71	C	0.758969	0.342524	0.333313
C72	C	1.092303	0.675857	0.666646
C73	C	0.939235	-0.100516	0.000003
C74	C	1.272569	0.232817	0.333337
C75	C	1.605902	0.566150	0.666670
C76	C	0.931823	-0.186802	0.000003
C77	C	1.265156	0.146532	0.333336
C78	C	1.598489	0.479865	0.666670
C79	C	0.999881	-0.241577	0.000005
C80	C	1.333214	0.091756	0.333338
C81	C	1.666548	0.425090	0.666672
C82	C	0.992911	-0.322650	-0.000008
C83	C	1.326245	0.010683	0.333326
C84	C	1.659578	0.344016	0.666659
C85	C	0.917882	-0.348946	-0.000013
C86	C	1.251216	-0.015613	0.333321
C87	C	1.584549	0.317720	0.666654
C88	C	0.849819	-0.294164	-0.000018
C89	C	1.183152	0.039169	0.333315
C90	C	1.516485	0.372503	0.666648
C91	C	0.856789	-0.213093	-0.000015
C92	C	1.190123	0.120241	0.333318
C93	C	1.523456	0.453574	0.666651
C94	C	0.893256	-0.593018	-0.000031
C95	C	1.226590	-0.259684	0.333303
C96	C	1.559923	0.073649	0.666636
C97	C	0.886291	-0.674096	-0.000030
C98	C	1.219624	-0.340763	0.333304
C99	C	1.552958	-0.007429	0.666637
C100	C	1.029384	-0.702577	-0.000021
C101	C	1.362718	-0.369243	0.333312
C102	C	1.696051	-0.035910	0.666645
C103	C	1.036348	-0.621502	-0.000010
C104	C	1.369682	-0.288169	0.333323
C105	C	1.703015	0.045164	0.666656
C106	C	0.968285	-0.566727	-0.000023
C107	C	1.301618	-0.233394	0.333310
C108	C	1.634951	0.099940	0.666644
C109	C	0.910756	-0.431816	-0.000021
C110	C	1.244089	-0.098483	0.333312
C111	C	1.577423	0.234851	0.666646
C112	C	0.975411	-0.483859	-0.000024
C113	C	1.308745	-0.150526	0.333310
C114	C	1.642078	0.182807	0.666643
C115	C	1.087547	0.026524	-0.000009
C116	C	1.420880	0.359857	0.333325
C117	C	1.754214	0.693191	0.666658
C118	C	1.175600	0.022013	-0.000017
C119	C	1.508934	0.355346	0.333317
C120	C	1.842267	0.688679	0.666650
C121	C	0.946936	0.184843	-0.000020
C122	C	1.280270	0.518177	0.333314
C123	C	1.613603	0.851510	0.666647
C124	C	0.954349	0.271129	-0.000028
C125	C	1.287683	0.604462	0.333305
C126	C	1.621016	0.937795	0.666639
N127	N	0.943076	0.042157	0.308237
N128	N	1.276410	0.375490	0.641570
N129	N	1.609743	0.708823	0.974903
N130	N	0.943102	0.042164	-0.308250
N131	N	1.276435	0.375497	0.025083
N132	N	1.609768	0.708830	0.358416
C133	C	0.943088	0.042165	0.573907
C134	C	1.276422	0.375498	0.907241
C135	C	1.609755	0.708831	1.240574
C136	C	0.943079	0.042163	0.426069
C137	C	1.276413	0.375496	0.759403
C138	C	1.609746	0.708829	1.092736
H139	H	0.463099	-0.050788	-0.000021
H140	H	0.796432	0.282545	0.333312
H141	H	1.129766	0.615879	0.666646
H142	H	0.341798	-0.115883	0.000015
H143	H	0.675132	0.217450	0.333349
H144	H	1.008465	0.550783	0.666682
H145	H	0.849667	-0.453235	-0.000022
H146	H	1.183000	-0.119902	0.333311
H147	H	1.516334	0.213432	0.666644
Cl148	Cl	0.175435	-0.138933	0.000011
Cl149	Cl	0.508769	0.194401	0.333344
Cl150	Cl	0.842102	0.527734	0.666677
Cl151	Cl	0.710738	0.223261	-0.000047
Cl152	Cl	1.044071	0.556595	0.333286
Cl153	Cl	1.377405	0.889928	0.666619
H154	H	1.048332	-0.367246	-0.000003
H155	H	1.381665	-0.033913	0.333330
H156	H	1.714999	0.299420	0.666664
H157	H	1.036500	-0.462446	-0.000049
H158	H	1.369833	-0.129112	0.333285
H159	H	1.703166	0.204221	0.666618
Cl160	Cl	0.731676	-0.099721	0.000020
Cl161	Cl	1.065009	0.233612	0.333354
Cl162	Cl	1.398343	0.566945	0.666687
Cl163	Cl	0.544943	-0.090142	-0.000036
Cl164	Cl	0.878277	0.243192	0.333298
Cl165	Cl	1.211610	0.576525	0.666631
Cl166	Cl	1.094208	-0.208528	0.000025
Cl167	Cl	1.427542	0.124805	0.333358
Cl168	Cl	1.760875	0.458138	0.666691
H169	H	1.097445	-0.600099	-0.000006
H170	H	1.430778	-0.266766	0.333327
H171	H	1.764111	0.066568	0.666661
Cl172	Cl	0.154489	0.184050	-0.000024
Cl173	Cl	0.487822	0.517384	0.333309
Cl174	Cl	0.821155	0.850717	0.666642
H175	H	1.084797	-0.747183	-0.000014
H176	H	1.418131	-0.413849	0.333320
H177	H	1.751464	-0.080516	0.666653
Cl178	Cl	0.791962	-0.707152	-0.000028
Cl179	Cl	1.125295	-0.373818	0.333305
Cl180	Cl	1.458628	-0.040485	0.666638
H181	H	0.423064	0.135120	-0.000030
H182	H	0.756397	0.468453	0.333303
H183	H	1.089731	0.801787	0.666637
H184	H	0.544368	0.200209	-0.000047
H185	H	0.877701	0.533542	0.333286
H186	H	1.211034	0.866876	0.666620
H187	H	0.324957	0.143728	-0.000053
H188	H	0.658290	0.477061	0.333280
H189	H	0.991624	0.810394	0.666614
H190	H	0.837834	-0.548429	-0.000040
H191	H	1.171167	-0.215095	0.333293
H192	H	1.504500	0.118238	0.666626
Cl193	Cl	0.755496	-0.327222	-0.000041
Cl194	Cl	1.088829	0.006111	0.333293
Cl195	Cl	1.422162	0.339445	0.666626
H196	H	0.801369	-0.168494	-0.000017
H197	H	1.134702	0.164839	0.333316
H198	H	1.468035	0.498173	0.666650
