data_functionalizedCrystal
_audit_creation_method	'MofGen! by Chris Wilmer'
_symmetry_space_group_name_H-M	'P1'
_symmetry_Int_Tables_number	1
_symmetry_cell_setting	triclinic
loop_
_symmetry_equiv_pos_as_xyz
  x,y,z
_cell_length_a	19.188931
_cell_length_b	14.519709
_cell_length_c	12.996460
_cell_angle_alpha	90.007090
_cell_angle_beta	89.995944
_cell_angle_gamma	96.587537
loop_
_atom_site_label
_atom_site_type_symbol
_atom_site_fract_x
_atom_site_fract_y
_atom_site_fract_z
O1	O	0.926556	-0.115137	-0.085532
O2	O	1.259889	0.218196	0.247801
O3	O	1.593222	0.551530	0.581135
O4	O	0.723300	-0.130636	-0.085542
O5	O	1.056633	0.202697	0.247791
O6	O	1.389966	0.536030	0.581124
O7	O	0.830317	0.011385	-0.085528
O8	O	1.163650	0.344719	0.247806
O9	O	1.496983	0.678052	0.581139
O10	O	0.819539	-0.257159	-0.085547
O11	O	1.152872	0.076175	0.247787
O12	O	1.486205	0.409508	0.581120
O13	O	0.830305	0.011393	0.085606
O14	O	1.163639	0.344726	0.418939
O15	O	1.496972	0.678060	0.752273
O16	O	0.723288	-0.130629	0.085591
O17	O	1.056622	0.202705	0.418925
O18	O	1.389955	0.536038	0.752258
O19	O	0.926544	-0.115129	0.085602
O20	O	1.259878	0.218204	0.418935
O21	O	1.593211	0.551537	0.752269
Cu22	Cu	0.824915	-0.122878	0.101222
Cu23	Cu	1.158249	0.210455	0.434556
Cu24	Cu	1.491582	0.543788	0.767889
Cu25	Cu	0.824929	-0.122887	-0.101163
Cu26	Cu	1.158262	0.210446	0.232170
Cu27	Cu	1.491595	0.543779	0.565504
O28	O	0.819527	-0.257151	0.085587
O29	O	1.152861	0.076182	0.418920
O30	O	1.486194	0.409516	0.752254
C31	C	0.697281	-0.130130	0.000023
C32	C	1.030615	0.203203	0.333357
C33	C	1.363948	0.536536	0.666690
C34	C	0.619771	-0.128624	0.000019
C35	C	0.953105	0.204710	0.333353
C36	C	1.286438	0.538043	0.666686
C37	C	0.829809	0.045746	0.000039
C38	C	1.163142	0.379079	0.333373
C39	C	1.496475	0.712412	0.666706
C40	C	0.828304	0.148118	0.000040
C41	C	1.161637	0.481451	0.333373
C42	C	1.494970	0.814784	0.666707
C43	C	0.952563	-0.115635	0.000034
C44	C	1.285896	0.217698	0.333367
C45	C	1.619230	0.551032	0.666701
C46	C	1.030073	-0.117142	0.000031
C47	C	1.363406	0.216192	0.333364
C48	C	1.696739	0.549525	0.666698
C49	C	1.074700	-0.033808	0.000028
C50	C	1.408033	0.299525	0.333361
C51	C	1.741367	0.632858	0.666695
C52	C	1.147529	-0.035224	0.000034
C53	C	1.480862	0.298110	0.333367
C54	C	1.814195	0.631443	0.666701
C55	C	1.175727	-0.119978	0.000022
C56	C	1.509061	0.213356	0.333356
C57	C	1.842394	0.546689	0.666689
C58	C	1.131090	-0.203322	0.000031
C59	C	1.464423	0.130011	0.333364
C60	C	1.797757	0.463345	0.666698
C61	C	1.058263	-0.201904	0.000035
C62	C	1.391596	0.131429	0.333369
C63	C	1.724930	0.464762	0.666702
N64	N	1.283956	-0.184764	-0.058239
N65	N	1.617290	0.148569	0.275094
N66	N	1.950623	0.481902	0.608427
N67	N	1.353140	-0.186105	-0.058246
N68	N	1.686473	0.147228	0.275088
N69	N	2.019806	0.480561	0.608421
C70	C	1.395151	-0.124255	0.000012
C71	C	1.728484	0.209079	0.333345
C72	C	2.061818	0.542412	0.666679
N73	N	1.365367	-0.060998	0.058263
N74	N	1.698700	0.272335	0.391596
N75	N	2.032033	0.605669	0.724930
N76	N	1.296177	-0.059654	0.058264
N77	N	1.629511	0.273679	0.391598
N78	N	1.962844	0.607013	0.724931
C79	C	1.254695	-0.121524	0.000018
C80	C	1.588029	0.211809	0.333352
C81	C	1.921362	0.545142	0.666685
C82	C	1.518748	-0.042450	0.000017
C83	C	1.852082	0.290883	0.333350
C84	C	2.185415	0.624216	0.666684
C85	C	1.591578	-0.043869	0.000029
C86	C	1.924911	0.289464	0.333363
C87	C	2.258245	0.622797	0.666696
C88	C	1.575138	-0.211970	0.000016
C89	C	1.908471	0.121363	0.333350
C90	C	2.241804	0.454697	0.666683
C91	C	1.502309	-0.210549	0.000014
C92	C	1.835643	0.122785	0.333347
C93	C	2.168976	0.456118	0.666681
C94	C	1.474119	-0.125786	0.000010
C95	C	1.807453	0.207547	0.333343
C96	C	2.140786	0.540881	0.666676
C97	C	0.820035	-0.291511	0.000018
C98	C	1.153369	0.041822	0.333351
C99	C	1.486702	0.375155	0.666684
C100	C	0.821541	-0.393883	0.000010
C101	C	1.154874	-0.060550	0.333344
C102	C	1.488207	0.272783	0.666677
N103	N	0.824911	-0.122871	0.243570
N104	N	1.158245	0.210462	0.576903
N105	N	1.491578	0.543796	0.910236
C106	C	0.822762	0.522979	0.000013
C107	C	1.156096	0.856312	0.333346
C108	C	1.489429	1.189646	0.666680
C109	C	0.824301	0.418681	0.000021
C110	C	1.157634	0.752014	0.333354
C111	C	1.490968	1.085347	0.666687
C112	C	0.825533	0.335552	0.000027
C113	C	1.158866	0.668885	0.333361
C114	C	1.492199	1.002218	0.666694
C115	C	0.827072	0.231247	0.000033
C116	C	1.160405	0.564580	0.333367
C117	C	1.493739	0.897913	0.666700
N118	N	0.824938	-0.122887	-0.243510
N119	N	1.158272	0.210446	0.089823
N120	N	1.491605	0.543780	0.423156
C121	C	0.824928	-0.122888	0.663384
C122	C	1.158261	0.210445	0.996717
C123	C	1.491594	0.543778	1.330051
C124	C	0.824921	-0.122887	0.546579
C125	C	1.158254	0.210447	0.879912
C126	C	1.491588	0.543780	1.213245
C127	C	0.824920	-0.122880	0.453480
C128	C	1.158253	0.210453	0.786814
C129	C	1.491586	0.543786	1.120147
C130	C	0.824912	-0.122877	0.336668
C131	C	1.158246	0.210456	0.670001
C132	C	1.491579	0.543789	1.003335
H133	H	1.051753	0.035212	0.000028
H134	H	1.385086	0.368545	0.333361
H135	H	1.718419	0.701879	0.666695
O136	O	1.458925	-0.291474	0.000183
O137	O	1.792258	0.041859	0.333516
O138	O	2.125591	0.375192	0.666849
C139	C	1.367124	-0.387402	0.088795
C140	C	1.700457	-0.054068	0.422129
C141	C	2.033791	0.279265	0.755462
C142	C	1.416229	-0.295726	0.088743
C143	C	1.749562	0.037608	0.422076
C144	C	2.082896	0.370941	0.755410
H145	H	1.332582	-0.390860	0.160378
H146	H	1.665915	-0.057527	0.493711
H147	H	1.999249	0.275807	0.827044
H148	H	1.399749	-0.448261	0.088852
H149	H	1.733082	-0.114927	0.422185
H150	H	2.066416	0.218406	0.755519
H151	H	1.332653	-0.390925	0.017143
H152	H	1.665987	-0.057592	0.350476
H153	H	1.999320	0.275742	0.683809
H154	H	1.450710	-0.292112	0.160384
H155	H	1.784043	0.041222	0.493717
H156	H	2.117376	0.374555	0.827050
H157	H	1.383562	-0.234910	0.088633
H158	H	1.716896	0.098423	0.421966
H159	H	2.050229	0.431757	0.755299
O160	O	1.634832	0.037171	-0.000016
O161	O	1.968165	0.370504	0.333317
O162	O	2.301499	0.703838	0.666651
C163	C	1.643449	0.204050	0.000043
C164	C	1.976783	0.537384	0.333377
C165	C	2.310116	0.870717	0.666710
C166	C	1.594384	0.112341	0.000070
C167	C	1.927717	0.445674	0.333403
C168	C	2.261050	0.779007	0.666737
H169	H	1.610767	0.264849	0.000135
H170	H	1.944100	0.598182	0.333468
H171	H	2.277433	0.931516	0.666801
H172	H	1.677948	0.207645	-0.071591
H173	H	2.011281	0.540978	0.261742
H174	H	2.344614	0.874311	0.595076
H175	H	1.677966	0.207546	0.071647
H176	H	2.011299	0.540879	0.404981
H177	H	2.344633	0.874212	0.738314
H178	H	1.559823	0.108784	-0.071486
H179	H	1.893156	0.442117	0.261848
H180	H	2.226490	0.775451	0.595181
H181	H	1.559933	0.108785	0.071752
H182	H	1.893266	0.442118	0.405085
H183	H	2.226600	0.775451	0.738418
O184	O	1.158363	-0.285733	0.000062
O185	O	1.491696	0.047600	0.333395
O186	O	1.825029	0.380934	0.666728
C187	C	1.134372	-0.452313	-0.000010
C188	C	1.467705	-0.118980	0.333323
C189	C	1.801039	0.214354	0.666656
C190	C	1.103395	-0.359045	-0.000027
C191	C	1.436728	-0.025712	0.333307
C192	C	1.770061	0.307621	0.666640
H193	H	1.089945	-0.511610	-0.000103
H194	H	1.423279	-0.178277	0.333230
H195	H	1.756612	0.155056	0.666563
H196	H	1.168033	-0.457239	0.071621
H197	H	1.501366	-0.123906	0.404955
H198	H	1.834699	0.209428	0.738288
H199	H	1.168080	-0.457132	-0.071617
H200	H	1.501413	-0.123799	0.261716
H201	H	1.834747	0.209535	0.595049
H202	H	1.069655	-0.354163	0.071532
H203	H	1.402988	-0.020830	0.404865
H204	H	1.736322	0.312503	0.738199
H205	H	1.069774	-0.354159	-0.071705
H206	H	1.403107	-0.020826	0.261628
H207	H	1.736441	0.312507	0.594961
H208	H	1.183871	0.032639	0.000028
H209	H	1.517205	0.365972	0.333361
H210	H	1.850538	0.699305	0.666695
H211	H	1.021927	-0.269767	0.000039
H212	H	1.355260	0.063567	0.333372
H213	H	1.688593	0.396900	0.666705
O214	O	1.491324	0.039859	-0.000157
O215	O	1.824657	0.373192	0.333177
O216	O	2.157991	0.706526	0.666510
C217	C	1.418608	0.138989	-0.088774
C218	C	1.751941	0.472322	0.244560
C219	C	2.085275	0.805656	0.577893
C220	C	1.449630	0.045753	-0.088718
C221	C	1.782964	0.379086	0.244615
C222	C	2.116297	0.712419	0.577948
H223	H	1.384880	0.143776	-0.160357
H224	H	1.718213	0.477109	0.172977
H225	H	2.051547	0.810443	0.506310
H226	H	1.462989	0.198348	-0.088830
H227	H	1.796323	0.531682	0.244503
H228	H	2.129656	0.865015	0.577836
H229	H	1.384948	0.143840	-0.017122
H230	H	1.718282	0.477174	0.316212
H231	H	2.051615	0.810507	0.649545
H232	H	1.483282	0.040811	-0.160358
H233	H	1.816615	0.374144	0.172975
H234	H	2.149949	0.707477	0.506309
H235	H	1.405216	-0.013562	-0.088608
H236	H	1.738549	0.319771	0.244725
H237	H	2.071882	0.653105	0.578059
H238	H	1.598096	-0.280978	0.000013
H239	H	1.931429	0.052355	0.333347
H240	H	2.264763	0.385688	0.666680
