data_functionalizedCrystal
_audit_creation_method	'MofGen! by Chris Wilmer'
_symmetry_space_group_name_H-M	'P1'
_symmetry_Int_Tables_number	1
_symmetry_cell_setting	triclinic
loop_
_symmetry_equiv_pos_as_xyz
  x,y,z
_cell_length_a	23.532407
_cell_length_b	23.532407
_cell_length_c	9.730217
_cell_angle_alpha	89.988287
_cell_angle_beta	90.003937
_cell_angle_gamma	82.848713
loop_
_atom_site_label
_atom_site_type_symbol
_atom_site_fract_x
_atom_site_fract_y
_atom_site_fract_z
O1	O	0.755257	0.069134	-0.114143
O2	O	0.589394	0.079137	-0.114187
O3	O	0.677327	-0.008796	-0.114126
O4	O	0.667324	0.157067	-0.114205
O5	O	0.677324	-0.008797	0.114455
O6	O	0.589391	0.079136	0.114393
O7	O	0.755254	0.069133	0.114437
Zn8	Zn	0.672322	0.074135	0.150707
Zn9	Zn	0.672326	0.074136	-0.150457
O10	O	0.667321	0.157066	0.114375
C11	C	0.568176	0.078882	0.000098
C12	C	0.504959	0.078116	0.000083
C13	C	0.677071	-0.030013	0.000171
C14	C	0.676305	-0.093230	0.000192
C15	C	0.621110	-0.359397	0.000092
C16	C	0.621821	-0.299997	0.000102
O17	O	0.578035	-0.263252	0.000047
N18	N	0.674097	-0.277371	0.000132
C19	C	0.725666	-0.314148	0.000137
O20	O	0.770196	-0.289449	0.000162
C21	C	0.724954	-0.373547	0.000116
C22	C	0.672674	-0.396170	0.000101
C23	C	0.568834	-0.382020	0.000074
C24	C	0.568123	-0.441417	0.000066
C25	C	0.619687	-0.478189	0.000075
C26	C	0.671963	-0.455566	0.000093
C27	C	0.776521	-0.410324	0.000111
C28	C	0.775805	-0.469726	0.000090
C29	C	0.723525	-0.492349	0.000074
C30	C	0.722816	-0.551735	0.000093
N31	N	0.670539	-0.574361	0.000064
C32	C	0.618975	-0.537589	0.000055
C33	C	0.727157	-0.189406	0.000178
C34	C	0.727870	-0.130008	0.000208
C35	C	0.624025	-0.115861	0.000171
C36	C	0.623313	-0.175260	0.000151
C37	C	0.674881	-0.212032	0.000148
C38	C	0.617486	-0.662325	0.000039
C39	C	0.616779	-0.721727	0.000036
C40	C	0.720623	-0.735869	0.000066
C41	C	0.721330	-0.676473	0.000076
C42	C	0.669757	-0.639701	0.000057
O43	O	0.766579	-0.588514	0.000143
O44	O	0.574452	-0.562296	0.000012
C45	C	0.105856	0.125350	0.000122
C46	C	0.046456	0.124638	0.000131
O47	O	0.009711	0.168424	0.000160
N48	N	0.023830	0.072362	0.000154
C49	C	0.060607	0.020794	0.000182
O50	O	0.035908	-0.023737	0.000203
C51	C	0.120006	0.021506	0.000183
C52	C	0.142629	0.073785	0.000146
C53	C	0.128480	0.177625	0.000087
C54	C	0.187876	0.178336	0.000076
C55	C	0.224649	0.126772	0.000100
C56	C	0.202025	0.074496	0.000135
C57	C	0.156783	-0.030062	0.000221
C58	C	0.216185	-0.029345	0.000223
C59	C	0.238808	0.022934	0.000186
C60	C	0.298194	0.023643	0.000148
N61	N	0.320821	0.075920	0.000125
C62	C	0.284048	0.127484	0.000101
C63	C	-0.064135	0.019302	0.000182
C64	C	-0.123533	0.018589	0.000171
C65	C	-0.137680	0.122434	0.000123
C66	C	-0.078281	0.123146	0.000124
C67	C	-0.041509	0.071578	0.000159
C68	C	0.408784	0.128974	0.000076
C69	C	0.468186	0.129680	0.000059
C70	C	0.482329	0.025836	0.000114
C71	C	0.422932	0.025129	0.000124
C72	C	0.386160	0.076702	0.000110
O73	O	0.334974	-0.020119	0.000124
O74	O	0.308756	0.172007	0.000097
C75	C	0.776472	0.069388	0.000149
C76	C	0.839689	0.070154	0.000154
C77	C	0.667577	0.178283	0.000075
C78	C	0.668343	0.241500	0.000045
N79	N	0.672324	0.074133	0.356243
N80	N	0.672329	0.074132	-0.355994
C81	C	0.750220	-0.003709	0.356289
C82	C	0.789172	-0.042629	0.428251
C83	C	0.789178	-0.042630	0.572131
C84	C	0.750227	-0.003707	0.644051
C85	C	0.711275	0.035213	0.572089
C86	C	0.711274	0.035210	0.428206
C87	C	0.633377	0.113052	0.572043
C88	C	0.633373	0.113056	0.428164
C89	C	0.594425	0.151974	0.643964
C90	C	0.555475	0.190898	0.572001
C91	C	0.555471	0.190897	0.428113
C92	C	0.594421	0.151976	0.356201
H93	H	0.575489	-0.632392	0.000023
C94	C	0.465552	-0.421448	0.000014
C95	C	0.510655	-0.466278	0.000029
H96	H	0.430073	-0.436795	-0.000021
H97	H	0.467989	-0.398588	0.079730
H98	H	0.468002	-0.398564	-0.079693
H99	H	0.508207	-0.489160	0.079741
H100	H	0.508217	-0.489147	-0.079695
H101	H	0.582038	-0.085909	0.000165
C102	C	0.823806	-0.077148	0.207709
C103	C	0.832018	-0.085380	0.349194
H104	H	0.850268	-0.103531	0.158909
H105	H	0.785852	-0.083179	0.184098
H106	H	0.829738	-0.039153	0.184164
H107	H	0.826082	-0.123374	0.372740
H108	H	0.869981	-0.079354	0.372814
H109	H	0.512280	-0.016146	0.000129
C110	C	0.808918	-0.766247	0.117580
C111	C	0.777301	-0.776297	0.000070
H112	H	0.843907	-0.791209	0.117575
H113	H	0.816827	-0.727640	0.117583
H114	H	0.787463	-0.773086	0.197278
H115	H	0.798754	-0.769454	-0.079629
H116	H	0.769394	-0.814914	0.000054
H117	H	0.820894	-0.074323	0.630723
C118	C	0.786619	-0.264392	-0.117322
C119	C	0.783847	-0.229823	0.000193
H120	H	0.821618	-0.289338	-0.117316
H121	H	0.755392	-0.286371	-0.117332
H122	H	0.784736	-0.240908	-0.197017
H123	H	0.785725	-0.253306	0.079888
H124	H	0.815082	-0.207842	0.000216
C125	C	0.010872	-0.040159	0.117701
C126	C	-0.023717	-0.037387	0.000197
H127	H	0.035819	-0.075159	0.117712
H128	H	0.032851	-0.008932	0.117679
H129	H	-0.012597	-0.038278	0.197404
H130	H	-0.000248	-0.039265	-0.079506
H131	H	-0.045698	-0.068623	0.000207
H132	H	0.138374	-0.072634	0.000252
H133	H	0.486602	0.172255	0.000028
H134	H	0.206289	0.220908	0.000045
H135	H	0.574205	-0.740143	0.000030
H136	H	0.750224	-0.003708	0.239134
C137	C	0.605595	0.205576	0.150058
C138	C	0.594419	0.151974	0.198046
H139	H	0.605598	0.205571	0.052419
H140	H	0.576823	0.234320	0.182579
H141	H	0.641948	0.213186	0.182615
H142	H	0.558064	0.144366	0.165498
H143	H	0.623193	0.123222	0.165511
H144	H	0.246123	-0.071339	0.000253
H145	H	0.580742	-0.193674	0.000143
H146	H	0.750229	-0.003715	0.761206
C147	C	0.120478	0.280338	0.000014
C148	C	0.088065	0.234311	0.000049
H149	H	0.095529	0.315336	-0.000026
H150	H	0.143938	0.278455	0.079726
H151	H	0.143943	0.278442	-0.079696
H152	H	0.064603	0.236205	0.079765
H153	H	0.064595	0.236196	-0.079671
H154	H	0.594429	0.151970	0.761118
C155	C	0.782382	-0.617895	0.117610
C156	C	0.778798	-0.651606	0.000106
H157	H	0.817863	-0.602551	0.117619
H158	H	0.751781	-0.587492	0.117589
H159	H	0.779942	-0.640784	0.197312
H160	H	0.781233	-0.628715	-0.079597
H161	H	0.809407	-0.682012	0.000114
C162	C	0.520893	0.225456	0.792540
C163	C	0.512664	0.233678	0.651057
H164	H	0.494465	0.251870	0.841346
H165	H	0.514926	0.187480	0.816122
H166	H	0.558866	0.231451	0.816106
H167	H	0.474692	0.227679	0.627489
H168	H	0.518626	0.271663	0.627465
H169	H	0.378852	0.170970	0.000068
C170	C	0.521455	0.289660	0.383766
C171	C	0.512655	0.233681	0.349014
H172	H	0.495023	0.316072	0.334930
H173	H	0.515881	0.295224	0.479738
H174	H	0.559426	0.295650	0.360177
H175	H	0.474684	0.227689	0.372613
H176	H	0.518224	0.228115	0.253021
C177	C	0.509374	-0.307004	-0.117425
C178	C	0.512147	-0.341607	0.000067
H179	H	0.474373	-0.282060	-0.117424
H180	H	0.540599	-0.285022	-0.117399
H181	H	0.511260	-0.330464	-0.197136
H182	H	0.510265	-0.318146	0.079778
H183	H	0.480913	-0.363590	0.000053
H184	H	0.819093	-0.391915	0.000123
C185	C	0.830442	-0.149973	0.000239
C186	C	0.785337	-0.105145	0.000236
H187	H	0.865921	-0.134624	0.000242
H188	H	0.828002	-0.172852	0.079942
H189	H	0.827998	-0.172838	-0.079480
H190	H	0.787779	-0.082282	0.079961
H191	H	0.787779	-0.082256	-0.079475
H192	H	-0.059866	0.165717	0.000102
C193	C	0.864101	-0.500054	-0.117401
C194	C	0.832492	-0.510145	0.000092
H195	H	0.899098	-0.525004	-0.117391
H196	H	0.842652	-0.506878	-0.197103
H197	H	0.871999	-0.461438	-0.117377
H198	H	0.824591	-0.548761	0.000063
H199	H	0.853946	-0.503326	0.079814
C200	C	-0.212702	0.181875	-0.117392
C201	C	-0.178110	0.179116	0.000107
H202	H	-0.237663	0.216864	-0.117396
H203	H	-0.189240	0.180002	-0.197090
H204	H	-0.234670	0.150633	-0.117362
H205	H	-0.156138	0.210356	0.000071
H206	H	-0.201575	0.180995	0.079825
C207	C	-0.129753	-0.070143	-0.117294
C208	C	-0.148394	-0.038879	0.000195
H209	H	-0.145097	-0.105624	-0.117266
H210	H	-0.142405	-0.048928	-0.196998
H211	H	-0.089113	-0.077089	-0.117282
H212	H	-0.189034	-0.031930	0.000178
H213	H	-0.135745	-0.060099	0.079920
H214	H	0.404512	-0.017441	0.000134
