data_functionalizedCrystal
_audit_creation_method	'MofGen! by Chris Wilmer'
_symmetry_space_group_name_H-M	'P1'
_symmetry_Int_Tables_number	1
_symmetry_cell_setting	triclinic
loop_
_symmetry_equiv_pos_as_xyz
  x,y,z
_cell_length_a	14.519709
_cell_length_b	10.268362
_cell_length_c	14.519709
_cell_angle_alpha	89.993769
_cell_angle_beta	96.319855
_cell_angle_gamma	89.998968
loop_
_atom_site_label
_atom_site_type_symbol
_atom_site_fract_x
_atom_site_fract_y
_atom_site_fract_z
O1	O	-1.223868	-0.108133	0.120892
O2	O	-0.955391	-0.108174	0.135128
O3	O	-1.096747	-0.108141	-0.006228
O4	O	-1.082511	-0.108166	0.262249
O5	O	-1.096735	0.108460	-0.006234
O6	O	-0.955378	0.108427	0.135123
O7	O	-1.223855	0.108467	0.120886
Cu8	Cu	-1.089616	0.128224	0.128004
Cu9	Cu	-1.089630	-0.127931	0.128011
O10	O	-1.082498	0.108434	0.262243
C11	C	-0.921025	0.000122	0.134462
C12	C	-0.818643	0.000107	0.132474
C13	C	-1.258221	0.000169	0.121553
C14	C	-1.360602	0.000175	0.123541
N15	N	-1.089612	0.308390	0.127998
C16	C	-0.443748	0.000167	0.125154
C17	C	-0.548056	0.000150	0.127187
C18	C	-0.631192	0.000135	0.128814
C19	C	-0.735507	0.000121	0.130847
C20	C	-1.096078	0.000160	-0.040591
C21	C	-1.094090	0.000160	-0.142972
N22	N	-1.089641	-0.308097	0.128009
C23	C	-1.089626	0.574061	0.128009
C24	C	-1.089615	0.426223	0.128006
C25	C	-1.086770	0.000125	-0.517868
C26	C	-1.088803	0.000135	-0.413560
C27	C	-1.090430	0.000144	-0.330423
C28	C	-1.092463	0.000152	-0.226109
C29	C	-1.083168	0.000131	0.296605
C30	C	-1.085156	0.000122	0.398987
