data_functionalizedCrystal
_audit_creation_method	'MofGen! by Chris Wilmer'
_symmetry_space_group_name_H-M	'P1'
_symmetry_Int_Tables_number	1
_symmetry_cell_setting	triclinic
loop_
_symmetry_equiv_pos_as_xyz
  x,y,z
_cell_length_a	16.959455
_cell_length_b	16.625545
_cell_length_c	16.959447
_cell_angle_alpha	89.969947
_cell_angle_beta	90.014322
_cell_angle_gamma	89.979016
loop_
_atom_site_label
_atom_site_type_symbol
_atom_site_fract_x
_atom_site_fract_y
_atom_site_fract_z
Zn1	Zn	1.208362	0.321051	0.446910
Zn2	Zn	1.208275	0.455899	0.314732
Zn3	Zn	1.076190	0.321077	0.314748
Zn4	Zn	1.076146	0.455839	0.446871
O5	O	1.142243	0.388466	0.380815
O6	O	1.318961	0.338954	0.429386
O7	O	1.190736	0.438050	0.204123
O8	O	1.093778	0.208241	0.332302
O9	O	1.318898	0.438026	0.332276
O10	O	1.190884	0.208222	0.429401
O11	O	1.093694	0.338997	0.204135
O12	O	0.965574	0.338939	0.332264
O13	O	1.093702	0.437923	0.557487
O14	O	0.965541	0.437947	0.429334
O15	O	1.190841	0.338895	0.557516
O16	O	1.190693	0.568723	0.332238
O17	O	1.093618	0.568679	0.429319
C18	C	0.936877	0.388440	0.380797
C19	C	0.849021	0.388448	0.380808
C20	C	1.142163	0.597957	0.380790
C21	C	1.142201	0.687578	0.380805
C22	C	0.477538	0.336870	0.330376
C23	C	0.477552	0.440129	0.431299
C24	C	0.560098	0.440117	0.431295
C25	C	0.601368	0.388482	0.380829
C26	C	0.560091	0.336859	0.330368
C27	C	0.601381	0.491746	0.481749
C28	C	0.683932	0.491737	0.481745
C29	C	0.725203	0.440097	0.431283
C30	C	0.683921	0.388471	0.380821
C31	C	0.725191	0.336836	0.330355
C32	C	0.683910	0.285205	0.279897
C33	C	0.601362	0.285219	0.279906
C34	C	0.807751	0.440083	0.431274
C35	C	0.807744	0.336824	0.330347
C36	C	1.142330	1.015754	0.380900
C37	C	1.142292	0.924445	0.380876
C38	C	1.142265	0.851669	0.380852
C39	C	1.142228	0.760355	0.380829
C40	C	1.348412	0.388494	0.380834
C41	C	1.436268	0.388505	0.380842
C42	C	1.142276	0.388400	0.586984
C43	C	1.142290	0.388371	0.674840
C44	C	1.142339	1.178157	0.380867
C45	C	1.142362	1.088536	0.380913
C46	C	1.142256	0.388475	0.175449
C47	C	1.142395	0.388276	0.087593
C48	C	1.091809	0.439845	1.046303
C49	C	1.192960	0.336727	1.046329
C50	C	1.192939	0.336744	0.963783
C51	C	1.142353	0.388313	0.922493
C52	C	1.091788	0.439866	0.963750
C53	C	1.243509	0.285199	0.922520
C54	C	1.243491	0.285214	0.839969
C55	C	1.192900	0.336780	0.798678
C56	C	1.142332	0.388334	0.839940
C57	C	1.091746	0.439903	0.798650
C58	C	1.041174	0.491453	0.839910
C59	C	1.041198	0.491431	0.922459
C60	C	1.192876	0.336802	0.716130
C61	C	1.091725	0.439923	0.716097
H62	H	0.841340	0.294771	0.289256
C63	C	1.036177	0.496542	1.091689
N64	N	0.994272	0.539245	1.125875
H65	H	0.567773	0.533790	0.522829
H66	H	1.284669	0.243239	0.806382
C67	C	0.555948	0.228433	0.224403
N68	N	0.521739	0.185665	0.182597
C69	C	1.036074	0.496653	0.670685
N70	N	0.994157	0.539383	0.636481
C71	C	0.729332	0.548529	0.537253
N72	N	0.763529	0.591303	0.579064
C73	C	1.248597	0.279999	1.091750
N74	N	1.290500	0.237265	1.125964
C75	C	0.985531	0.548177	0.794482
N76	N	0.943621	0.590900	0.760261
H77	H	0.443946	0.482173	0.472381
H78	H	1.234054	0.294833	0.682539
C79	C	0.853155	0.496873	0.486775
N80	N	0.887353	0.539649	0.528583
C81	C	0.985569	0.548127	0.967851
N82	N	0.943669	0.590829	1.002044
H83	H	1.284698	0.243219	0.956144
H84	H	0.717523	0.243167	0.238804
H85	H	0.443924	0.294831	0.289296
