data_functionalizedCrystal
_audit_creation_method	'MofGen! by Chris Wilmer'
_symmetry_space_group_name_H-M	'P1'
_symmetry_Int_Tables_number	1
_symmetry_cell_setting	triclinic
loop_
_symmetry_equiv_pos_as_xyz
  x,y,z
_cell_length_a	18.215407
_cell_length_b	13.032721
_cell_length_c	18.215399
_cell_angle_alpha	97.151969
_cell_angle_beta	89.983176
_cell_angle_gamma	97.205008
loop_
_atom_site_label
_atom_site_type_symbol
_atom_site_fract_x
_atom_site_fract_y
_atom_site_fract_z
Zn1	Zn	1.087859	-0.416014	-0.453318
Zn2	Zn	1.337859	-0.166014	-0.203318
Zn3	Zn	1.587859	0.083986	0.046682
Zn4	Zn	1.837859	0.333986	0.296682
Zn5	Zn	1.072150	-0.590784	-0.345880
Zn6	Zn	1.322150	-0.340784	-0.095880
Zn7	Zn	1.572150	-0.090784	0.154120
Zn8	Zn	1.822150	0.159216	0.404120
Zn9	Zn	0.964795	-0.416056	-0.330269
Zn10	Zn	1.214795	-0.166056	-0.080269
Zn11	Zn	1.464795	0.083944	0.169731
Zn12	Zn	1.714795	0.333944	0.419731
Zn13	Zn	0.949140	-0.590718	-0.468899
Zn14	Zn	1.199140	-0.340718	-0.218899
Zn15	Zn	1.449140	-0.090718	0.031101
Zn16	Zn	1.699140	0.159282	0.281101
O17	O	1.018486	-0.503393	-0.399592
O18	O	1.268486	-0.253393	-0.149592
O19	O	1.518486	-0.003393	0.100408
O20	O	1.768486	0.246607	0.350408
O21	O	1.188759	-0.439208	-0.439079
O22	O	1.438759	-0.189208	-0.189079
O23	O	1.688759	0.060792	0.060921
O24	O	1.938759	0.310792	0.310921
O25	O	1.057887	-0.567650	-0.240829
O26	O	1.307887	-0.317650	0.009171
O27	O	1.557887	-0.067650	0.259171
O28	O	1.807887	0.182350	0.509171
O29	O	0.994246	-0.269811	-0.333537
O30	O	1.244246	-0.019811	-0.083537
O31	O	1.494246	0.230189	0.166463
O32	O	1.744246	0.480189	0.416463
O33	O	1.177218	-0.567610	-0.360145
O34	O	1.427218	-0.317610	-0.110145
O35	O	1.677218	-0.067610	0.139855
O36	O	1.927218	0.182390	0.389855
O37	O	1.084661	-0.269781	-0.423941
O38	O	1.334661	-0.019781	-0.173941
O39	O	1.584661	0.230219	0.076059
O40	O	1.834661	0.480219	0.326059
O41	O	0.979013	-0.439278	-0.229360
O42	O	1.229013	-0.189278	0.020640
O43	O	1.479013	0.060722	0.270640
O44	O	1.729013	0.310722	0.520640
O45	O	0.859735	-0.439215	-0.348646
O46	O	1.109735	-0.189215	-0.098646
O47	O	1.359735	0.060785	0.151354
O48	O	1.609735	0.310785	0.401354
O49	O	0.967564	-0.567499	-0.569813
O50	O	1.217564	-0.317499	-0.319813
O51	O	1.467564	-0.067499	-0.069813
O52	O	1.717564	0.182501	0.180187
O53	O	0.848233	-0.567539	-0.450497
O54	O	1.098233	-0.317539	-0.200497
O55	O	1.348233	-0.067539	0.049503
O56	O	1.598233	0.182461	0.299503
O57	O	1.069481	-0.439144	-0.558365
O58	O	1.319481	-0.189144	-0.308365
O59	O	1.569481	0.060856	-0.058365
O60	O	1.819481	0.310856	0.191635
O61	O	1.042707	-0.737014	-0.375254
O62	O	1.292707	-0.487014	-0.125254
O63	O	1.542707	-0.237014	0.124746
O64	O	1.792707	0.012986	0.374746
O65	O	0.952331	-0.736966	-0.465635
O66	O	1.202331	-0.486966	-0.215635
O67	O	1.452331	-0.236966	0.034365
O68	O	1.702331	0.013034	0.284365
C69	C	0.827281	-0.503375	-0.399569
C70	C	1.077281	-0.253375	-0.149569
C71	C	1.327281	-0.003375	0.100431
C72	C	1.577281	0.246625	0.350431
C73	C	0.745481	-0.503393	-0.399579
C74	C	0.995481	-0.253393	-0.149579
C75	C	1.245481	-0.003393	0.100421
C76	C	1.495481	0.246607	0.350421
C77	C	0.551308	-0.570316	-0.452563
C78	C	0.801308	-0.320316	-0.202563
C79	C	1.051308	-0.070316	0.047437
C80	C	1.301308	0.179684	0.297437
C81	C	0.474449	-0.570319	-0.452573
C82	C	0.724449	-0.320319	-0.202573
C83	C	0.974449	-0.070319	0.047427
C84	C	1.224449	0.179681	0.297427
C85	C	0.486415	-0.436489	-0.346638
C86	C	0.736415	-0.186489	-0.096638
C87	C	0.986415	0.063511	0.153362
C88	C	1.236415	0.313511	0.403362
C89	C	0.563273	-0.436481	-0.346632
C90	C	0.813273	-0.186481	-0.096632
C91	C	1.063273	0.063519	0.153368
C92	C	1.313273	0.313519	0.403368
C93	C	0.595717	-0.503401	-0.399594
C94	C	0.845717	-0.253401	-0.149594
C95	C	1.095717	-0.003401	0.100406
C96	C	1.345717	0.246599	0.350406
C97	C	0.442000	-0.503412	-0.399609
C98	C	0.692000	-0.253412	-0.149609
C99	C	0.942000	-0.003412	0.100391
C100	C	1.192000	0.246588	0.350391
C101	C	0.358666	-0.503415	-0.399619
C102	C	0.608666	-0.253415	-0.149619
C103	C	0.858666	-0.003415	0.100381
C104	C	1.108666	0.246585	0.350381
C105	C	0.679056	-0.503396	-0.399586
C106	C	0.929056	-0.253396	-0.149586
C107	C	1.179056	-0.003396	0.100414
C108	C	1.429056	0.246604	0.350414
C109	C	0.994136	-0.774908	-0.423845
C110	C	1.244136	-0.524908	-0.173845
C111	C	1.494136	-0.274908	0.076155
C112	C	1.744136	-0.024908	0.326155
C113	C	0.983786	-0.891063	-0.434246
C114	C	1.233786	-0.641063	-0.184246
C115	C	1.483786	-0.391063	0.065754
C116	C	1.733786	-0.141063	0.315754
C117	C	1.023927	-0.942838	-0.394197
C118	C	1.273927	-0.692838	-0.144197
C119	C	1.523927	-0.442838	0.105803
C120	C	1.773927	-0.192838	0.355803
C121	C	1.013231	-1.062890	-0.404945
C122	C	1.263231	-0.812890	-0.154945
C123	C	1.513231	-0.562890	0.095055
C124	C	1.763231	-0.312890	0.345055
C125	C	1.210437	-0.503412	-0.399615
C126	C	1.460437	-0.253412	-0.149615
C127	C	1.710437	-0.003412	0.100385
C128	C	1.960437	0.246588	0.350385
C129	C	1.292235	-0.503420	-0.399625
C130	C	1.542235	-0.253420	-0.149625
C131	C	1.792235	-0.003420	0.100375
C132	C	2.042235	0.246580	0.350375
C133	C	1.018528	-0.503309	-0.591537
C134	C	1.268528	-0.253309	-0.341537
C135	C	1.518528	-0.003309	-0.091537
C136	C	1.768528	0.246691	0.158463
C137	C	1.018546	-0.503274	-0.673333
C138	C	1.268546	-0.253274	-0.423333
C139	C	1.518546	-0.003274	-0.173333
C140	C	1.768546	0.246726	0.076667
C141	C	1.042952	-0.230818	-0.375260
C142	C	1.292952	0.019182	-0.125260
C143	C	1.542952	0.269182	0.124740
C144	C	1.792952	0.519182	0.374740
C145	C	1.053377	-0.114662	-0.364891
C146	C	1.303377	0.135338	-0.114891
C147	C	1.553377	0.385338	0.135109
C148	C	1.803377	0.635338	0.385109
C149	C	0.977521	-0.436385	-0.855552
C150	C	1.227521	-0.186385	-0.605552
C151	C	1.477521	0.063615	-0.355552
C152	C	1.727521	0.313615	-0.105552
C153	C	0.977535	-0.436364	-0.932409
C154	C	1.227535	-0.186364	-0.682409
C155	C	1.477535	0.063636	-0.432409
C156	C	1.727535	0.313636	-0.182409
C157	C	1.059671	-0.570038	-0.944341
C158	C	1.309671	-0.320038	-0.694341
C159	C	1.559671	-0.070038	-0.444341
C160	C	1.809671	0.179962	-0.194341
C161	C	1.059652	-0.570063	-0.867486
C162	C	1.309652	-0.320063	-0.617486
C163	C	1.559652	-0.070063	-0.367486
C164	C	1.809652	0.179937	-0.117486
C165	C	1.018578	-0.503231	-0.823093
C166	C	1.268578	-0.253231	-0.573093
C167	C	1.518578	-0.003231	-0.323093
C168	C	1.768578	0.246769	-0.073093
C169	C	1.018612	-0.503185	-0.976805
C170	C	1.268612	-0.253185	-0.726805
C171	C	1.518612	-0.003185	-0.476805
C172	C	1.768612	0.246815	-0.226805
C173	C	1.018628	-0.503162	-1.060136
C174	C	1.268628	-0.253162	-0.810136
C175	C	1.518628	-0.003162	-0.560136
C176	C	1.768628	0.246838	-0.310136
C177	C	1.018561	-0.503255	-0.739756
C178	C	1.268561	-0.253255	-0.489756
C179	C	1.518561	-0.003255	-0.239756
C180	C	1.768561	0.246745	0.010244
C181	C	1.018493	-0.503401	-0.208386
C182	C	1.268493	-0.253401	0.041614
C183	C	1.518493	-0.003401	0.291614
C184	C	1.768493	0.246599	0.541614
C185	C	1.018644	-0.503142	-0.126565
C186	C	1.268644	-0.253142	0.123435
C187	C	1.518644	-0.003142	0.373435
C188	C	1.768644	0.246858	0.623435
H189	H	0.599432	-0.381984	-0.303498
H190	H	0.849432	-0.131984	-0.053498
H191	H	1.099432	0.118016	0.196502
H192	H	1.349432	0.368016	0.446502
N193	N	0.451417	-0.364331	-0.289509
N194	N	0.701417	-0.114331	-0.039509
N195	N	0.951417	0.135669	0.210491
N196	N	1.201417	0.385669	0.460491
H197	H	0.491214	-0.321938	-0.255953
H198	H	0.741214	-0.071938	-0.005953
H199	H	0.991214	0.178062	0.244047
H200	H	1.241214	0.428062	0.494047
H201	H	0.423867	-0.316023	-0.315204
H202	H	0.673867	-0.066023	-0.065204
H203	H	0.923867	0.183977	0.184796
H204	H	1.173867	0.433977	0.434796
N205	N	1.109396	-1.055668	-0.308929
N206	N	1.359396	-0.805668	-0.058929
N207	N	1.609396	-0.555668	0.191071
N208	N	1.859396	-0.305668	0.441071
H209	H	1.160300	-1.074535	-0.322088
H210	H	1.410300	-0.824535	-0.072088
H211	H	1.660300	-0.574535	0.177912
H212	H	1.910300	-0.324535	0.427912
H213	H	1.109034	-0.978288	-0.309209
H214	H	1.359034	-0.728288	-0.059209
H215	H	1.609034	-0.478288	0.190791
H216	H	1.859034	-0.228288	0.440791
H217	H	1.093087	-0.624501	-0.841058
H218	H	1.343087	-0.374501	-0.591058
H219	H	1.593087	-0.124501	-0.341058
H220	H	1.843087	0.125499	-0.091058
N221	N	0.927776	-0.950063	-0.490209
N222	N	1.177776	-0.700063	-0.240209
N223	N	1.427776	-0.450063	0.009791
N224	N	1.677776	-0.200063	0.259791
H225	H	0.928075	-1.027462	-0.489955
H226	H	1.178075	-0.777462	-0.239955
H227	H	1.428075	-0.527462	0.010045
H228	H	1.678075	-0.277462	0.260045
H229	H	0.876899	-0.931117	-0.477021
H230	H	1.126899	-0.681117	-0.227021
H231	H	1.376899	-0.431117	0.022979
H232	H	1.626899	-0.181117	0.272979
N233	N	0.586301	-0.642481	-0.509691
N234	N	0.836301	-0.392481	-0.259691
N235	N	1.086301	-0.142481	-0.009691
N236	N	1.336301	0.107519	0.240309
H237	H	0.641730	-0.632327	-0.501650
H238	H	0.891730	-0.382327	-0.251650
H239	H	1.141730	-0.132327	-0.001650
H240	H	1.391730	0.117673	0.248350
H241	H	0.566171	-0.717097	-0.504819
H242	H	0.816171	-0.467097	-0.254819
H243	H	1.066171	-0.217097	-0.004819
H244	H	1.316171	0.032903	0.245181
N245	N	1.103981	-0.642101	-0.992224
N246	N	1.353981	-0.392101	-0.742224
N247	N	1.603981	-0.142101	-0.492224
N248	N	1.853981	0.107899	-0.242224
H249	H	1.129988	-0.684453	-0.959997
H250	H	1.379988	-0.434453	-0.709997
H251	H	1.629988	-0.184453	-0.459997
H252	H	1.879988	0.065547	-0.209997
H253	H	1.069696	-0.690452	-1.028426
H254	H	1.319696	-0.440452	-0.778426
H255	H	1.569696	-0.190452	-0.528426
H256	H	1.819696	0.059548	-0.278426
N257	N	0.426548	-0.642498	-0.509698
N258	N	0.676548	-0.392498	-0.259698
N259	N	0.926548	-0.142498	-0.009698
N260	N	1.176548	0.107502	0.240302
H261	H	0.441391	-0.626366	-0.560857
H262	H	0.691391	-0.376366	-0.310857
H263	H	0.941391	-0.126366	-0.060857
H264	H	1.191391	0.123634	0.189143
H265	H	0.433247	-0.717113	-0.504778
H266	H	0.683247	-0.467113	-0.254778
H267	H	0.933247	-0.217113	-0.004778
H268	H	1.183247	0.032887	0.245222
N269	N	1.079946	-0.883838	-0.338243
N270	N	1.329946	-0.633838	-0.088243
N271	N	1.579946	-0.383838	0.161757
N272	N	1.829946	-0.133838	0.411757
H273	H	1.079648	-0.806439	-0.338498
H274	H	1.329648	-0.556439	-0.088498
H275	H	1.579648	-0.306439	0.161502
H276	H	1.829648	-0.056439	0.411502
H277	H	1.066839	-0.902923	-0.287368
H278	H	1.316839	-0.652923	-0.037368
H279	H	1.566839	-0.402923	0.212632
H280	H	1.816839	-0.152923	0.462632
N281	N	0.957218	-1.121887	-0.460912
N282	N	1.207218	-0.871887	-0.210912
N283	N	1.457218	-0.621887	0.039088
N284	N	1.707218	-0.371887	0.289088
H285	H	0.957517	-1.199285	-0.460658
H286	H	1.207517	-0.949285	-0.210658
H287	H	1.457517	-0.699285	0.039342
H288	H	1.707517	-0.449285	0.289342
H289	H	0.906341	-1.102940	-0.447724
H290	H	1.156341	-0.852940	-0.197724
H291	H	1.406341	-0.602940	0.052276
H292	H	1.656341	-0.352940	0.302276
N293	N	0.933224	-0.364304	-0.807669
N294	N	1.183224	-0.114304	-0.557669
N295	N	1.433224	0.135696	-0.307669
N296	N	1.683224	0.385696	-0.057669
H297	H	0.907217	-0.321955	-0.839897
H298	H	1.157217	-0.071955	-0.589897
H299	H	1.407217	0.178045	-0.339897
H300	H	1.657217	0.428045	-0.089897
H301	H	0.895342	-0.406847	-0.779571
H302	H	1.145342	-0.156847	-0.529571
H303	H	1.395342	0.093153	-0.279571
H304	H	1.645342	0.343153	-0.029571
H305	H	0.944101	-0.381933	-0.958833
H306	H	1.194101	-0.131933	-0.708833
H307	H	1.444101	0.118067	-0.458833
H308	H	1.694101	0.368067	-0.208833
