data_functionalizedCrystal
_audit_creation_method	'MofGen! by Chris Wilmer'
_symmetry_space_group_name_H-M	'P1'
_symmetry_Int_Tables_number	1
_symmetry_cell_setting	triclinic
loop_
_symmetry_equiv_pos_as_xyz
  x,y,z
_cell_length_a	16.109318
_cell_length_b	16.109304
_cell_length_c	17.766277
_cell_angle_alpha	89.996447
_cell_angle_beta	89.994221
_cell_angle_gamma	83.465600
loop_
_atom_site_label
_atom_site_type_symbol
_atom_site_fract_x
_atom_site_fract_y
_atom_site_fract_z
O1	O	1.103130	0.106937	-0.062527
O2	O	1.353130	0.356937	0.187473
O3	O	1.603130	0.606937	0.437473
O4	O	1.853130	0.856937	0.687473
O5	O	0.861070	0.120221	-0.062541
O6	O	1.111070	0.370221	0.187459
O7	O	1.361070	0.620221	0.437459
O8	O	1.611070	0.870221	0.687459
O9	O	0.988748	-0.007451	-0.062534
O10	O	1.238748	0.242549	0.187466
O11	O	1.488748	0.492549	0.437466
O12	O	1.738748	0.742549	0.687466
O13	O	0.975451	0.234609	-0.062534
O14	O	1.225451	0.484609	0.187466
O15	O	1.475451	0.734609	0.437466
O16	O	1.725451	0.984609	0.687466
O17	O	0.988726	-0.007458	0.062654
O18	O	1.238726	0.242542	0.312654
O19	O	1.488726	0.492542	0.562654
O20	O	1.738726	0.742542	0.812654
O21	O	0.861047	0.120215	0.062647
O22	O	1.111047	0.370215	0.312647
O23	O	1.361047	0.620215	0.562647
O24	O	1.611047	0.870215	0.812647
O25	O	1.103107	0.106930	0.062662
O26	O	1.353107	0.356930	0.312662
O27	O	1.603107	0.606930	0.562662
O28	O	1.853107	0.856930	0.812662
Cu29	Cu	0.982075	0.113572	0.074085
Cu30	Cu	1.232075	0.363572	0.324085
Cu31	Cu	1.482075	0.613572	0.574085
Cu32	Cu	1.732075	0.863572	0.824085
Cu33	Cu	0.982102	0.113580	-0.073965
Cu34	Cu	1.232102	0.363580	0.176035
Cu35	Cu	1.482102	0.613580	0.426035
Cu36	Cu	1.732102	0.863580	0.676035
O37	O	0.975429	0.234603	0.062654
O38	O	1.225429	0.484603	0.312654
O39	O	1.475429	0.734603	0.562654
O40	O	1.725429	0.984603	0.812654
C41	C	0.830084	0.119677	0.000051
C42	C	1.080084	0.369677	0.250051
C43	C	1.330084	0.619677	0.500051
C44	C	1.580084	0.869677	0.750051
C45	C	0.737789	0.118056	0.000045
C46	C	0.987789	0.368056	0.250045
C47	C	1.237789	0.618056	0.500045
C48	C	1.487789	0.868056	0.750045
C49	C	0.438728	0.112825	-0.068182
C50	C	0.688728	0.362825	0.181818
C51	C	0.938728	0.612825	0.431818
C52	C	1.188728	0.862825	0.681818
C53	C	0.525449	0.114342	-0.068187
C54	C	0.775449	0.364342	0.181813
C55	C	1.025449	0.614342	0.431813
C56	C	1.275449	0.864342	0.681813
C57	C	0.525443	0.114324	0.068301
C58	C	0.775443	0.364324	0.318301
C59	C	1.025443	0.614324	0.568301
C60	C	1.275443	0.864324	0.818301
C61	C	0.438725	0.112801	0.068305
C62	C	0.688725	0.362801	0.318305
C63	C	0.938725	0.612801	0.568305
C64	C	1.188725	0.862801	0.818305
C65	C	0.395368	0.112055	0.000061
C66	C	0.645368	0.362055	0.250061
C67	C	0.895368	0.612055	0.500061
C68	C	1.145368	0.862055	0.750061
C69	C	0.568809	0.115096	0.000053
C70	C	0.818809	0.365096	0.250053
C71	C	1.068809	0.615096	0.500053
C72	C	1.318809	0.865096	0.750053
C73	C	0.662836	0.116741	0.000048
C74	C	0.912836	0.366741	0.250048
C75	C	1.162836	0.616741	0.500048
C76	C	1.412836	0.866741	0.750048
C77	C	0.301336	0.110408	0.000065
C78	C	0.551336	0.360408	0.250065
C79	C	0.801336	0.610408	0.500065
C80	C	1.051336	0.860408	0.750065
C81	C	0.988198	-0.038430	0.000058
C82	C	1.238198	0.211570	0.250058
C83	C	1.488198	0.461570	0.500058
C84	C	1.738198	0.711570	0.750058
C85	C	0.986582	-0.130725	0.000053
C86	C	1.236582	0.119275	0.250053
C87	C	1.486582	0.369275	0.500053
C88	C	1.736582	0.619275	0.750053
C89	C	0.982861	-0.343059	-0.068185
C90	C	1.232861	-0.093059	0.181815
C91	C	1.482861	0.156941	0.431815
C92	C	1.732861	0.406941	0.681815
C93	C	0.981334	-0.429779	-0.068184
C94	C	1.231334	-0.179779	0.181816
C95	C	1.481334	0.070221	0.431816
C96	C	1.731334	0.320221	0.681816
C97	C	0.981314	-0.429783	0.068303
C98	C	1.231314	-0.179783	0.318303
C99	C	1.481314	0.070217	0.568303
C100	C	1.731314	0.320217	0.818303
C101	C	0.982834	-0.343064	0.068302
C102	C	1.232834	-0.093064	0.318302
C103	C	1.482834	0.156936	0.568302
C104	C	1.732834	0.406936	0.818302
C105	C	0.983612	-0.299704	0.000056
C106	C	1.233612	-0.049704	0.250056
C107	C	1.483612	0.200296	0.500056
C108	C	1.733612	0.450296	0.750056
C109	C	0.980565	-0.473144	0.000058
C110	C	1.230565	-0.223144	0.250058
C111	C	1.480565	0.026856	0.500058
C112	C	1.730565	0.276856	0.750058
C113	C	0.978911	-0.567170	0.000059
C114	C	1.228911	-0.317170	0.250059
C115	C	1.478911	-0.067170	0.500059
C116	C	1.728911	0.182830	0.750059
C117	C	0.985265	-0.205672	0.000054
C118	C	1.235265	0.044328	0.250054
C119	C	1.485265	0.294328	0.500054
C120	C	1.735265	0.544328	0.750054
C121	C	1.134093	0.107474	0.000068
C122	C	1.384093	0.357474	0.250068
C123	C	1.634093	0.607474	0.500068
C124	C	1.884093	0.857474	0.750068
C125	C	1.226388	0.109095	0.000069
C126	C	1.476388	0.359095	0.250069
C127	C	1.726388	0.609095	0.500069
C128	C	1.976388	0.859095	0.750069
C129	C	0.975979	0.265581	0.000060
C130	C	1.225979	0.515581	0.250060
C131	C	1.475979	0.765581	0.500060
C132	C	1.725979	1.015581	0.750060
C133	C	0.977595	0.357876	0.000060
C134	C	1.227595	0.607876	0.250060
C135	C	1.477595	0.857876	0.500060
C136	C	1.727595	1.107876	0.750060
N137	N	0.982063	0.113566	0.178215
N138	N	1.232063	0.363566	0.428215
N139	N	1.482063	0.613566	0.678215
N140	N	1.732063	0.863566	0.928215
N141	N	0.982121	0.113579	-0.178095
N142	N	1.232121	0.363579	0.071905
N143	N	1.482121	0.613579	0.321905
N144	N	1.732121	0.863579	0.571905
C145	C	1.038617	0.057060	0.217606
C146	C	1.288617	0.307060	0.467606
C147	C	1.538617	0.557060	0.717606
C148	C	1.788617	0.807060	0.967606
C149	C	1.038622	0.057056	0.296407
C150	C	1.288622	0.307056	0.546407
C151	C	1.538622	0.557056	0.796407
C152	C	1.788622	0.807056	1.046407
C153	C	0.982080	0.113573	0.335816
C154	C	1.232080	0.363573	0.585816
C155	C	1.482080	0.613573	0.835816
C156	C	1.732080	0.863573	1.085816
C157	C	0.925515	0.170083	0.296416
C158	C	1.175515	0.420083	0.546416
C159	C	1.425515	0.670083	0.796416
C160	C	1.675515	0.920083	1.046416
C161	C	0.925507	0.170079	0.217616
C162	C	1.175507	0.420079	0.467616
C163	C	1.425507	0.670079	0.717616
C164	C	1.675507	0.920079	0.967616
C165	C	0.971167	0.189294	0.460654
C166	C	1.221167	0.439294	0.710654
C167	C	1.471167	0.689294	0.960654
C168	C	1.721167	0.939294	1.210654
C169	C	0.971182	0.189298	0.539452
C170	C	1.221182	0.439298	0.789452
C171	C	1.471182	0.689298	1.039452
C172	C	1.721182	0.939298	1.289452
C173	C	0.982102	0.113583	0.578862
C174	C	1.232102	0.363583	0.828862
C175	C	1.482102	0.613583	1.078862
C176	C	1.732102	0.863583	1.328862
C177	C	0.993026	0.037859	0.539464
C178	C	1.243026	0.287859	0.789464
C179	C	1.493026	0.537859	1.039464
C180	C	1.743026	0.787859	1.289464
C181	C	0.993018	0.037856	0.460663
C182	C	1.243018	0.287856	0.710663
C183	C	1.493018	0.537856	0.960663
C184	C	1.743018	0.787856	1.210663
C185	C	0.982083	0.113582	0.421262
C186	C	1.232083	0.363582	0.671262
C187	C	1.482083	0.613582	0.921262
C188	C	1.732083	0.863582	1.171262
C189	C	1.038665	0.057068	0.703698
C190	C	1.288665	0.307068	0.953698
C191	C	1.538665	0.557068	1.203698
C192	C	1.788665	0.807068	1.453698
C193	C	1.038664	0.057063	0.782502
C194	C	1.288664	0.307063	1.032502
C195	C	1.538664	0.557063	1.282502
C196	C	1.788664	0.807063	1.532502
C197	C	0.925562	0.170097	0.782509
C198	C	1.175562	0.420097	1.032509
C199	C	1.425562	0.670097	1.282509
C200	C	1.675562	0.920097	1.532509
C201	C	0.925559	0.170094	0.703707
C202	C	1.175559	0.420094	0.953707
C203	C	1.425559	0.670094	1.203707
C204	C	1.675559	0.920094	1.453707
C205	C	0.982115	0.113581	0.664307
C206	C	1.232115	0.363581	0.914307
C207	C	1.482115	0.613581	1.164307
C208	C	1.732115	0.863581	1.414307
H209	H	0.403430	0.112217	-0.123750
H210	H	0.653430	0.362217	0.126250
H211	H	0.903430	0.612217	0.376250
H212	H	1.153430	0.862217	0.626250
Br213	Br	0.983840	-0.284218	0.160921
Br214	Br	1.233840	-0.034218	0.410921
Br215	Br	1.483840	0.215782	0.660921
Br216	Br	1.733840	0.465782	0.910921
H217	H	0.980721	-0.465074	-0.123752
H218	H	1.230721	-0.215074	0.126248
H219	H	1.480721	0.034926	0.376248
H220	H	1.730721	0.284926	0.626248
H221	H	1.084714	0.011049	0.671617
H222	H	1.334714	0.261049	0.921617
H223	H	1.584714	0.511049	1.171617
H224	H	1.834714	0.761049	1.421617
Br225	Br	1.115366	-0.019637	0.164133
Br226	Br	1.365366	0.230363	0.414133
Br227	Br	1.615366	0.480363	0.664133
Br228	Br	1.865366	0.730363	0.914133
H229	H	0.403420	0.112173	0.123880
H230	H	0.653420	0.362173	0.373880
H231	H	0.903420	0.612173	0.623880
H232	H	1.153420	0.862173	0.873880
H233	H	0.560749	0.114968	-0.123757
H234	H	0.810749	0.364968	0.126243
H235	H	1.060749	0.614968	0.376243
H236	H	1.310749	0.864968	0.626243
Br237	Br	0.584288	0.115343	0.160913
Br238	Br	0.834288	0.365343	0.410913
Br239	Br	1.084288	0.615343	0.660913
Br240	Br	1.334288	0.865343	0.910913
Br241	Br	0.980257	-0.488633	0.160919
Br242	Br	1.230257	-0.238633	0.410919
Br243	Br	1.480257	0.011367	0.660919
Br244	Br	1.730257	0.261367	0.910919
H245	H	1.084676	0.011041	0.328485
H246	H	1.334676	0.261041	0.578485
H247	H	1.584676	0.511041	0.828485
H248	H	1.834676	0.761041	1.078485
Br249	Br	1.007834	-0.064906	0.407196
Br250	Br	1.257834	0.185094	0.657196
Br251	Br	1.507834	0.435094	0.907196
Br252	Br	1.757834	0.685094	1.157196
Br253	Br	0.983913	-0.284216	-0.160804
Br254	Br	1.233913	-0.034216	0.089196
Br255	Br	1.483913	0.215784	0.339196
Br256	Br	1.733913	0.465784	0.589196
Br257	Br	1.007859	-0.064906	0.592938
Br258	Br	1.257859	0.185094	0.842938
Br259	Br	1.507859	0.435094	1.092938
Br260	Br	1.757859	0.685094	1.342938
Br261	Br	1.115415	-0.019636	0.835964
Br262	Br	1.365415	0.230364	1.085964
Br263	Br	1.615415	0.480364	1.335964
Br264	Br	1.865415	0.730364	1.585964
Br265	Br	0.848817	0.246789	0.835986
Br266	Br	1.098817	0.496789	1.085986
Br267	Br	1.348817	0.746789	1.335986
Br268	Br	1.598817	0.996789	1.585986
Br269	Br	0.848748	0.246770	0.164153
Br270	Br	1.098748	0.496770	0.414153
Br271	Br	1.348748	0.746770	0.664153
Br272	Br	1.598748	0.996770	0.914153
Br273	Br	0.848806	0.246786	0.650243
Br274	Br	1.098806	0.496786	0.900243
Br275	Br	1.348806	0.746786	1.150243
Br276	Br	1.598806	0.996786	1.400243
Br277	Br	0.956366	0.292064	0.592914
Br278	Br	1.206366	0.542064	0.842914
Br279	Br	1.456366	0.792064	1.092914
Br280	Br	1.706366	1.042064	1.342914
H281	H	0.962260	0.250955	0.428572
H282	H	1.212260	0.500955	0.678572
H283	H	1.462260	0.750955	0.928572
H284	H	1.712260	1.000955	1.178572
Br285	Br	0.848773	0.246778	0.349896
Br286	Br	1.098773	0.496778	0.599896
Br287	Br	1.348773	0.746778	0.849896
Br288	Br	1.598773	0.996778	1.099896
