data_functionalizedCrystal
_audit_creation_method	'MofGen! by Chris Wilmer'
_symmetry_space_group_name_H-M	'P1'
_symmetry_Int_Tables_number	1
_symmetry_cell_setting	triclinic
loop_
_symmetry_equiv_pos_as_xyz
  x,y,z
_cell_length_a	12.759395
_cell_length_b	18.215405
_cell_length_c	18.215399
_cell_angle_alpha	89.969449
_cell_angle_beta	90.014082
_cell_angle_gamma	89.969779
loop_
_atom_site_label
_atom_site_type_symbol
_atom_site_fract_x
_atom_site_fract_y
_atom_site_fract_z
Zn1	Zn	1.606161	0.292887	0.415990
Zn2	Zn	1.606030	0.415958	0.292918
Zn3	Zn	1.430469	0.292922	0.292949
Zn4	Zn	1.430420	0.415928	0.415955
O5	O	1.518270	0.354424	0.354453
O6	O	1.753165	0.309211	0.399665
O7	O	1.582707	0.399665	0.189938
O8	O	1.453850	0.189933	0.309299
O9	O	1.753069	0.399631	0.309245
O10	O	1.582930	0.189907	0.399696
O11	O	1.453723	0.309270	0.189961
O12	O	1.283442	0.309240	0.309265
O13	O	1.453767	0.399579	0.518944
O14	O	1.283406	0.399613	0.399637
O15	O	1.582883	0.309182	0.518969
O16	O	1.582660	0.518939	0.309211
O17	O	1.453640	0.518916	0.399606
C18	C	1.518159	0.545630	0.354418
C19	C	1.518208	0.627429	0.354427
C20	C	1.245303	0.354427	0.354451
C21	C	1.128526	0.354447	0.354468
C22	C	1.792304	0.354421	0.354455
C23	C	1.909080	0.354419	0.354456
C24	C	1.909200	0.260259	0.448605
C25	C	1.964121	0.213182	0.495679
C26	C	2.073842	0.213191	0.495684
C27	C	2.128646	0.260284	0.448611
C28	C	2.073725	0.307361	0.401537
C29	C	1.964001	0.307345	0.401536
C30	C	2.073605	0.401524	0.307393
C31	C	1.963884	0.401512	0.307383
C32	C	2.128409	0.448617	0.260320
C33	C	2.073488	0.495691	0.213241
C34	C	1.963760	0.495679	0.213238
C35	C	1.908963	0.448589	0.260309
C36	C	1.518334	0.354373	0.546406
C37	C	1.518362	0.354351	0.628205
C38	C	1.518410	0.162471	0.354505
C39	C	1.518470	0.080672	0.354527
C40	C	1.585546	0.815610	0.307445
C41	C	1.585593	0.892469	0.307463
C42	C	1.451129	0.892485	0.401514
C43	C	1.451088	0.815628	0.401499
C44	C	1.518295	0.777192	0.354461
C45	C	1.518383	0.930908	0.354493
C46	C	1.518433	1.014242	0.354513
C47	C	1.518246	0.693853	0.354442
C48	C	1.518267	0.354421	0.163247
C49	C	1.518443	0.354236	0.081448
C50	C	1.585616	0.307237	0.816413
C51	C	1.585629	0.307216	0.893272
C52	C	1.451181	0.401352	0.893234
C53	C	1.451164	0.401369	0.816377
C54	C	1.518388	0.354313	0.777969
C55	C	1.518417	0.354274	0.931685
C56	C	1.518430	0.354251	1.015018
C57	C	1.518373	0.354335	0.694629
H58	H	1.919488	0.174841	0.534007
H59	H	1.640358	0.923745	0.269179
C60	C	1.658564	0.255986	0.934916
C61	C	1.635752	0.183179	0.916221
C62	C	1.702929	0.135962	0.954559
H63	H	1.649016	0.262609	0.986202
H64	H	1.729161	0.266715	0.922306
H65	H	1.565171	0.172453	0.928836
H66	H	1.645306	0.176533	0.864941
H67	H	1.773526	0.146691	0.941949
H68	H	1.693376	0.142592	1.005844
H69	H	1.687467	0.086558	0.941875
C70	C	1.378195	0.934350	0.452496
C71	C	1.392601	1.009882	0.442432
C72	C	1.325418	1.048468	0.489375
H73	H	1.393451	0.921800	0.501980
H74	H	1.307585	0.921847	0.441671
H75	H	1.463194	1.022380	0.453262
H76	H	1.377337	1.022454	0.392957
H77	H	1.254809	1.035965	0.478551
H78	H	1.340680	1.035912	0.538857
H79	H	1.335176	1.099720	0.482548
H80	H	2.118559	0.174858	0.534018
C81	C	1.378006	0.773818	0.452429
C82	C	1.310701	0.729750	0.410711
C83	C	1.243381	0.691216	0.457602
H84	H	1.337881	0.807630	0.480459
H85	H	1.418128	0.743746	0.484500
H86	H	1.270583	0.759819	0.378653
H87	H	1.350797	0.695924	0.382683
H88	H	1.283503	0.661144	0.489673
H89	H	1.203263	0.725034	0.485630
H90	H	1.197713	0.661307	0.429305
H91	H	1.640351	0.268919	0.785143
H92	H	1.396411	0.439703	0.785074
H93	H	1.819859	0.260230	0.448589
C94	C	2.247535	0.448768	0.260404
C95	C	2.283774	0.518825	0.279189
C96	C	2.393507	0.518991	0.279282
H97	H	2.272490	0.436111	0.212941
H98	H	2.272437	0.414021	0.295202
H99	H	2.258883	0.553562	0.244392
H100	H	2.258848	0.531497	0.326653
H101	H	2.418409	0.484243	0.314080
H102	H	2.418452	0.506330	0.231817
H103	H	2.418109	0.566521	0.292033
H104	H	1.396452	0.439665	0.924516
H105	H	2.118118	0.534034	0.174922
C106	C	1.658632	0.774012	0.256352
C107	C	1.717557	0.824111	0.215196
C108	C	1.784907	0.785820	0.168129
H109	H	1.618573	0.744076	0.224190
H110	H	1.704425	0.743995	0.284509
H111	H	1.671770	0.854114	0.187041
H112	H	1.757638	0.854048	0.247339
H113	H	1.830700	0.755804	0.196286
H114	H	1.744840	0.755886	0.135972
H115	H	1.824903	0.819806	0.140204
H116	H	2.217987	0.260294	0.448627
H117	H	1.919050	0.534019	0.174907
C118	C	1.789836	0.448659	0.260173
C119	C	1.753463	0.499954	0.208862
C120	C	1.643729	0.500031	0.208714
H121	H	1.764889	0.461390	0.307619
H122	H	1.765018	0.401183	0.247417
H123	H	1.778270	0.547420	0.221623
H124	H	1.778381	0.487235	0.161409
H125	H	1.618911	0.452555	0.195958
H126	H	1.618793	0.512761	0.256162
H127	H	1.619036	0.534829	0.173896
