data_functionalizedCrystal
_audit_creation_method	'MofGen! by Chris Wilmer'
_symmetry_space_group_name_H-M	'P1'
_symmetry_Int_Tables_number	1
_symmetry_cell_setting	triclinic
loop_
_symmetry_equiv_pos_as_xyz
  x,y,z
_cell_length_a	18.050591
_cell_length_b	29.839131
_cell_length_c	29.839125
_cell_angle_alpha	89.982291
_cell_angle_beta	89.981737
_cell_angle_gamma	90.037426
loop_
_atom_site_label
_atom_site_type_symbol
_atom_site_fract_x
_atom_site_fract_y
_atom_site_fract_z
Zn1	Zn	1.135205	-0.178964	-0.254080
Zn2	Zn	1.135093	-0.254076	-0.178950
Zn3	Zn	1.011030	-0.178956	-0.178955
Zn4	Zn	1.010943	-0.254063	-0.254044
O5	O	1.073068	-0.216515	-0.216507
O6	O	1.239115	-0.188937	-0.244128
O7	O	1.118625	-0.244113	-0.116084
O8	O	1.027585	-0.116090	-0.188938
O9	O	1.239032	-0.244122	-0.188930
O10	O	1.118816	-0.116096	-0.244132
O11	O	1.027476	-0.188923	-0.116087
O12	O	0.907094	-0.188910	-0.188902
O13	O	1.027438	-0.244099	-0.316916
O14	O	0.907030	-0.244090	-0.244069
O15	O	1.118732	-0.188924	-0.316943
O16	O	1.118541	-0.316942	-0.188894
O17	O	1.027329	-0.316932	-0.244065
C18	C	0.880116	-0.216498	-0.216483
C19	C	0.797570	-0.216502	-0.216483
C20	C	0.598132	-0.186460	-0.186552
C21	C	0.548698	-0.227434	-0.175494
C22	C	0.646439	-0.216515	-0.216503
C23	C	0.548792	-0.175556	-0.227560
C24	C	0.500454	-0.216525	-0.216522
C25	C	0.598092	-0.257511	-0.205424
C26	C	0.598191	-0.205605	-0.257508
C27	C	0.548779	-0.246607	-0.246466
C28	C	0.730538	-0.216509	-0.216491
C29	C	0.416358	-0.216536	-0.216534
C30	C	1.072934	-0.333237	-0.216485
C31	C	1.072944	-0.383172	-0.216491
C32	C	1.120648	-0.692808	-0.187822
C33	C	1.120740	-0.880481	-0.187839
O34	O	1.161193	-0.904739	-0.163447
N35	N	1.073222	-0.903957	-0.216541
C36	C	1.025681	-0.880512	-0.245243
O37	O	0.985271	-0.904786	-0.269659
C38	C	1.025593	-0.692840	-0.245227
C39	C	1.073109	-0.669366	-0.216520
C40	C	1.168161	-0.669334	-0.159118
C41	C	1.168134	-0.622419	-0.159112
C42	C	1.120596	-0.598977	-0.187810
C43	C	1.073083	-0.622450	-0.216515
C44	C	0.978057	-0.669395	-0.273931
C45	C	0.978040	-0.622474	-0.273925
C46	C	1.025556	-0.599001	-0.245218
C47	C	1.025518	-0.552093	-0.245207
N48	N	1.073036	-0.528617	-0.216505
C49	C	1.120575	-0.552059	-0.187807
C50	C	1.025729	-0.979042	-0.245248
C51	C	1.025750	-1.025960	-0.245252
C52	C	1.120810	-1.025926	-0.187849
C53	C	1.120785	-0.979007	-0.187843
C54	C	1.073247	-0.955566	-0.216547
C55	C	1.120516	-0.453533	-0.187797
C56	C	1.120483	-0.406613	-0.187792
C57	C	1.025426	-0.406652	-0.245197
C58	C	1.025455	-0.453567	-0.245200
C59	C	1.073006	-0.477007	-0.216498
O60	O	0.985092	-0.527806	-0.269590
O61	O	1.160990	-0.527777	-0.163401
C62	C	1.120674	-0.739723	-0.187828
C63	C	1.073162	-0.763197	-0.216532
C64	C	1.025623	-0.739755	-0.245230
C65	C	1.073183	-0.810115	-0.216535
C66	C	1.120721	-0.833556	-0.187837
C67	C	1.168239	-0.810080	-0.159135
C68	C	1.168213	-0.763165	-0.159129
C69	C	0.978105	-0.763231	-0.273932
C70	C	0.978134	-0.810147	-0.273935
C71	C	1.025673	-0.833588	-0.245237
C72	C	1.266773	-0.216532	-0.216533
C73	C	1.349319	-0.216539	-0.216543
C74	C	1.073088	-0.216511	-0.333686
C75	C	1.073096	-0.216509	-0.383620
C76	C	1.073223	-0.099336	-0.216540
C77	C	1.073289	-0.049402	-0.216553
C78	C	1.120683	-0.187704	-0.693281
C79	C	1.120720	-0.187666	-0.880954
O80	O	1.161125	-0.163218	-0.905233
N81	N	1.073195	-0.216389	-0.904406
C82	C	1.025654	-0.245121	-0.880936
O83	O	0.985226	-0.269547	-0.905189
C84	C	1.025613	-0.245156	-0.693264
C85	C	1.073147	-0.216435	-0.669815
C86	C	1.168213	-0.158985	-0.669832
C87	C	1.168206	-0.158997	-0.622916
C88	C	1.120670	-0.187728	-0.599450
C89	C	1.073140	-0.216447	-0.622899
C90	C	0.978069	-0.273886	-0.669795
C91	C	0.978062	-0.273892	-0.622874
C92	C	1.025596	-0.245170	-0.599425
C93	C	1.025597	-0.245189	-0.552517
N94	N	1.073123	-0.216467	-0.529066
C95	C	1.120659	-0.187736	-0.552532
C96	C	1.025679	-0.245101	-0.979467
C97	C	1.025690	-0.245092	-1.026384
C98	C	1.120756	-0.187637	-1.026399
C99	C	1.120748	-0.187648	-0.979480
C100	C	1.073204	-0.216378	-0.956015
C101	C	1.120641	-0.187763	-0.454006
C102	C	1.120632	-0.187778	-0.407086
C103	C	1.025564	-0.245232	-0.407076
C104	C	1.025575	-0.245218	-0.453991
C105	C	1.073117	-0.216480	-0.477455
O106	O	0.985208	-0.269621	-0.528209
O107	O	1.161069	-0.163306	-0.528271
C108	C	1.120690	-0.187693	-0.740196
C109	C	1.073161	-0.216412	-0.763645
C110	C	1.025625	-0.245143	-0.740179
C111	C	1.073172	-0.216404	-0.810563
C112	C	1.120708	-0.187673	-0.834030
C113	C	1.168233	-0.158950	-0.810578
C114	C	1.168226	-0.158962	-0.763663
C115	C	0.978100	-0.273866	-0.763631
C116	C	0.978111	-0.273852	-0.810546
C117	C	1.025647	-0.245121	-0.834013
C118	C	1.073090	-0.216486	-0.099785
C119	C	1.073226	-0.216361	-0.049851
H120	H	1.159176	-0.387503	-0.164414
C121	C	0.973925	-0.276329	-0.479509
C122	C	0.926371	-0.250878	-0.506442
C123	C	0.878779	-0.279518	-0.529955
H124	H	0.945545	-0.293451	-0.458861
H125	H	1.002282	-0.295896	-0.497843
H126	H	0.898017	-0.231319	-0.488109
H127	H	0.954731	-0.233757	-0.527098
H128	H	0.907136	-0.299085	-0.548290
H129	H	0.850404	-0.296639	-0.509304
H130	H	0.846513	-0.262255	-0.548235
H131	H	1.206905	-0.744056	-0.135754
H132	H	0.939362	-0.297274	-0.688879
H133	H	0.939390	-0.297263	-0.744529
H134	H	1.206828	-0.603309	-0.135738
H135	H	1.159462	-0.164243	-1.045513
H136	H	0.619948	-0.196357	-0.292168
H137	H	1.206877	-0.688415	-0.135748
C138	C	0.974006	-0.276297	-1.051759
C139	C	0.932363	-0.301449	-1.021161
C140	C	0.884732	-0.330193	-1.044518
H141	H	1.002306	-0.295912	-1.070065
H142	H	0.941632	-0.259116	-1.070050
H143	H	0.964732	-0.318628	-1.002878
H144	H	0.904047	-0.281845	-1.002854
H145	H	0.852358	-0.313012	-1.062808
H146	H	0.913038	-0.349805	-1.062822
H147	H	0.856467	-0.347259	-1.023760
C148	C	0.626889	-0.152598	-0.152707
C149	C	0.566946	-0.131823	-0.131388
C150	C	0.593409	-0.100633	-0.100204
H151	H	0.655866	-0.130627	-0.167683
H152	H	0.656516	-0.167508	-0.131032
H153	H	0.537332	-0.116913	-0.153060
H154	H	0.537964	-0.153782	-0.116404
H155	H	0.623036	-0.115544	-0.078529
H156	H	0.622386	-0.078665	-0.115184
H157	H	0.552743	-0.086536	-0.085733
H158	H	0.526959	-0.236669	-0.140824
C159	C	1.219924	-0.127738	-0.835980
C160	C	1.261563	-0.102591	-0.805407
C161	C	1.309189	-0.073838	-0.828794
H162	H	1.191621	-0.108120	-0.854282
H163	H	1.252300	-0.144913	-0.854277
H164	H	1.229191	-0.085417	-0.787118
H165	H	1.289882	-0.122197	-0.787104
H166	H	1.341565	-0.091013	-0.847090
H167	H	1.280880	-0.054223	-0.847095
H168	H	1.337452	-0.056775	-0.808054
H169	H	0.527097	-0.140917	-0.236888
H170	H	0.939337	-0.297283	-0.603771
H171	H	0.986767	-0.472681	-0.268577
H172	H	1.159453	-0.164260	-0.960391
C173	C	0.973981	-0.276374	-0.381512
C174	C	0.984138	-0.270223	-0.335405
C175	C	0.936621	-0.298896	-0.311840
H176	H	0.984757	-0.306578	-0.389142
H177	H	0.924077	-0.269785	-0.389168
H178	H	1.034031	-0.276814	-0.327752
H179	H	0.973357	-0.240024	-0.327762
H180	H	0.886717	-0.292307	-0.319496
H181	H	0.947401	-0.329098	-0.319474
H182	H	0.943501	-0.294723	-0.280555
H183	H	1.159518	-1.045020	-0.164481
H184	H	1.159238	-0.472612	-0.164426
C185	C	0.973742	-0.381276	-0.276376
C186	C	0.932123	-0.411872	-0.301514
C187	C	0.884505	-0.388511	-0.330241
H188	H	1.002050	-0.362950	-0.296002
H189	H	0.941353	-0.363006	-0.259184
H190	H	0.964508	-0.430134	-0.318705
H191	H	0.903800	-0.430199	-0.281900
H192	H	0.852115	-0.370241	-0.313049
H193	H	0.912819	-0.370186	-0.349864
H194	H	0.856256	-0.409267	-0.347297
C195	C	0.974126	-1.051362	-0.276465
C196	C	0.932508	-1.020784	-0.301604
C197	C	0.884954	-1.044166	-0.330370
H198	H	0.941728	-1.069691	-0.259314
H199	H	1.002503	-1.069630	-0.296084
H200	H	0.904133	-1.002524	-0.281988
H201	H	0.964887	-1.002454	-0.318765
H202	H	0.913331	-1.062434	-0.349989
H203	H	0.852560	-1.062495	-0.313215
H204	H	0.856715	-1.023423	-0.347433
H205	H	1.206945	-0.829175	-0.135767
C206	C	0.626986	-0.303681	-0.192895
C207	C	0.704548	-0.303129	-0.193003
C208	C	0.731191	-0.345649	-0.181458
H209	H	0.609771	-0.325088	-0.214027
H210	H	0.609669	-0.311488	-0.163852
H211	H	0.721857	-0.295327	-0.222042
H212	H	0.721782	-0.281731	-0.171871
H213	H	0.713875	-0.353456	-0.152414
H214	H	0.713972	-0.367053	-0.202590
H215	H	0.783819	-0.345279	-0.181525
C216	C	1.172458	-0.953605	-0.156661
C217	C	1.214102	-0.984182	-0.131537
C218	C	1.261720	-0.960800	-0.102810
H219	H	1.144149	-0.935323	-0.137027
H220	H	1.204832	-0.935288	-0.173853
H221	H	1.181732	-1.002491	-0.114346
H222	H	1.242426	-1.002465	-0.151159
H223	H	1.294094	-0.942484	-0.120003
H224	H	1.233405	-0.942520	-0.083180
H225	H	1.289986	-0.981543	-0.085764
C226	C	1.219705	-0.127743	-0.738153
C227	C	1.177685	-0.098955	-0.711212
C228	C	1.225081	-0.070189	-0.687707
H229	H	1.248024	-0.110590	-0.758805
H230	H	1.252035	-0.144914	-0.719825
H231	H	1.145368	-0.081786	-0.729539
H232	H	1.149368	-0.116096	-0.690552
H233	H	1.257411	-0.087360	-0.669379
H234	H	1.253398	-0.053039	-0.708363
H235	H	1.196578	-0.050656	-0.669422
C236	C	0.974179	-0.276325	-0.953938
C237	C	1.016180	-0.305124	-0.926995
C238	C	0.968765	-0.333892	-0.903470
H239	H	0.945866	-0.293471	-0.974578
H240	H	0.941845	-0.259157	-0.935608
H241	H	1.048501	-0.322291	-0.945323
H242	H	1.044491	-0.287991	-0.906347
H243	H	0.936431	-0.316724	-0.885141
H244	H	0.940454	-0.351034	-0.924113
H245	H	0.997255	-0.353433	-0.885184
C246	C	0.974230	-0.953573	-0.276467
C247	C	1.016224	-0.926611	-0.305300
C248	C	0.968806	-0.903150	-0.334067
H249	H	0.941866	-0.935259	-0.259314
H250	H	0.945949	-0.974264	-0.293584
H251	H	1.044492	-0.905922	-0.288185
H252	H	1.048586	-0.944914	-0.322463
H253	H	0.940525	-0.923842	-0.351183
H254	H	0.936444	-0.884839	-0.316910
H255	H	0.997292	-0.884857	-0.353636
H256	H	0.939404	-0.297245	-0.829635
C257	C	0.926441	-0.694792	-0.305151
C258	C	0.884829	-0.664211	-0.330289
C259	C	0.837278	-0.687589	-0.359060
H260	H	0.894039	-0.713123	-0.288003
H261	H	0.954821	-0.713059	-0.324770
H262	H	0.856451	-0.645952	-0.310672
H263	H	0.917212	-0.645879	-0.347446
H264	H	0.865658	-0.705856	-0.378679
H265	H	0.804881	-0.705919	-0.341909
H266	H	0.809044	-0.666844	-0.376123
H267	H	0.939330	-0.603391	-0.297300
C268	C	0.520099	-0.280611	-0.280191
C269	C	0.545198	-0.323412	-0.268417
C270	C	0.518783	-0.354749	-0.299467
H271	H	0.537778	-0.273166	-0.309243
H272	H	0.467469	-0.280286	-0.280182
H273	H	0.597817	-0.323737	-0.268430
H274	H	0.527521	-0.330871	-0.239370
H275	H	0.466153	-0.354424	-0.299458
H276	H	0.536463	-0.347300	-0.328517
H277	H	0.535803	-0.383794	-0.291481
C278	C	0.926513	-0.835548	-0.305155
C279	C	0.884894	-0.804971	-0.330293
C280	C	0.837347	-0.828352	-0.359063
H281	H	0.894115	-0.853881	-0.288007
H282	H	0.954895	-0.853814	-0.324774
H283	H	0.856513	-0.786713	-0.310676
H284	H	0.917272	-0.786637	-0.347451
H285	H	0.865729	-0.846618	-0.378682
H286	H	0.804953	-0.846684	-0.341911
H287	H	0.809107	-0.807609	-0.376126
C288	C	1.172269	-0.156543	-0.381709
C289	C	1.213883	-0.131371	-0.412306
C290	C	1.261449	-0.102589	-0.388947
H291	H	1.204670	-0.173684	-0.363408
H292	H	1.143901	-0.136945	-0.363414
H293	H	1.242250	-0.150966	-0.430593
H294	H	1.181502	-0.114221	-0.430608
H295	H	1.233080	-0.082991	-0.370651
H296	H	1.293845	-0.119733	-0.370646
H297	H	1.289685	-0.085503	-0.409703
C298	C	1.172136	-0.156507	-0.479500
C299	C	1.130138	-0.127690	-0.506424
C300	C	1.177551	-0.098890	-0.529910
H301	H	1.204492	-0.173638	-0.497842
H302	H	1.200426	-0.139381	-0.458824
H303	H	1.101861	-0.144814	-0.527098
H304	H	1.097784	-0.110550	-0.488093
H305	H	1.205841	-0.081764	-0.509233
H306	H	1.209905	-0.116025	-0.548249
H307	H	1.149062	-0.079332	-0.548177
H308	H	0.939394	-0.744148	-0.297303
C309	C	1.219879	-0.127876	-0.597431
C310	C	1.267463	-0.153307	-0.570497
C311	C	1.315072	-0.124649	-0.547019
H312	H	1.191559	-0.108299	-0.579096
H313	H	1.248230	-0.110767	-0.618112
H314	H	1.239115	-0.170409	-0.549819
H315	H	1.295799	-0.172884	-0.588821
H316	H	1.343422	-0.107539	-0.567700
H317	H	1.286745	-0.105073	-0.528687
H318	H	1.347367	-0.141900	-0.528745
H319	H	1.206922	-0.135586	-0.688933
