data_functionalizedCrystal
_audit_creation_method	'MofGen! by Chris Wilmer'
_symmetry_space_group_name_H-M	'P1'
_symmetry_Int_Tables_number	1
_symmetry_cell_setting	triclinic
loop_
_symmetry_equiv_pos_as_xyz
  x,y,z
_cell_length_a	12.594517
_cell_length_b	18.050590
_cell_length_c	12.594509
_cell_angle_alpha	90.032829
_cell_angle_beta	90.021327
_cell_angle_gamma	90.018352
loop_
_atom_site_label
_atom_site_type_symbol
_atom_site_fract_x
_atom_site_fract_y
_atom_site_fract_z
Zn1	Zn	1.627248	-0.295641	0.601826
Zn2	Zn	1.627132	-0.419845	0.423833
Zn3	Zn	1.449252	-0.295673	0.423855
Zn4	Zn	1.449227	-0.419793	0.601763
O5	O	1.538215	-0.357738	0.512819
O6	O	1.776179	-0.312125	0.578232
O7	O	1.603497	-0.403408	0.274890
O8	O	1.472924	-0.191744	0.447498
O9	O	1.776093	-0.403377	0.447462
O10	O	1.603697	-0.191721	0.578253
O11	O	1.472810	-0.312179	0.274906
O12	O	1.300303	-0.312129	0.447438
O13	O	1.472880	-0.403289	0.750717
O14	O	1.300284	-0.403320	0.578146
O15	O	1.603672	-0.312075	0.750764
O16	O	1.603472	-0.523763	0.447401
O17	O	1.472767	-0.523725	0.578125
C18	C	1.261674	-0.357723	0.512788
C19	C	1.143368	-0.357735	0.512800
C20	C	1.074095	-0.308068	0.441843
C21	C	1.003279	-0.375810	0.415655
C22	C	1.003385	-0.290026	0.539006
C23	C	1.074111	-0.425512	0.486561
C24	C	1.074223	-0.339682	0.609957
C25	C	1.003440	-0.407471	0.583806
C26	C	1.538133	-0.550690	0.512777
C27	C	1.538195	-0.633236	0.512794
C28	C	1.609421	-0.832680	0.441806
C29	C	1.635423	-0.882008	0.538949
C30	C	1.538256	-0.784366	0.512837
C31	C	1.512362	-0.882120	0.415737
C32	C	1.538316	-0.930351	0.512869
C33	C	1.564308	-0.832606	0.610031
C34	C	1.441201	-0.832715	0.486754
C35	C	1.467167	-0.882020	0.583964
C36	C	1.538224	-0.700268	0.512817
C37	C	1.538348	-1.014448	0.512900
C38	C	1.815836	-0.357753	0.512851
C39	C	1.934141	-0.357760	0.512865
C40	C	1.538286	-0.357673	0.790440
C41	C	1.538316	-0.357645	0.908746
C42	C	1.538326	-0.164032	0.512885
C43	C	1.538373	-0.081487	0.512913
C44	C	1.538205	-0.357749	0.236278
C45	C	1.538381	-0.357568	0.117973
C46	C	1.467201	-0.407228	0.977974
C47	C	1.564321	-0.425374	1.048762
C48	C	1.441273	-0.339455	1.048757
C49	C	1.635487	-0.375826	0.977976
C50	C	1.512373	-0.289876	0.977964
C51	C	1.609560	-0.307996	1.048721
H52	H	1.105408	-0.324376	0.692068
N53	N	1.593491	-0.803926	0.718850
H54	H	1.606697	-0.847067	0.768147
H55	H	1.533406	-0.772736	0.747493
N56	N	1.744169	-0.910704	0.568201
H57	H	1.764308	-0.891918	0.641031
H58	H	1.797782	-0.892756	0.514427
H59	H	1.407010	-0.903548	0.644116
N60	N	0.962222	-0.214168	0.568336
H61	H	0.987923	-0.176686	0.514659
H62	H	0.989144	-0.200201	0.641195
H63	H	0.972611	-0.449531	0.643840
N64	N	1.483223	-0.214032	0.936718
H65	H	1.536186	-0.176397	0.963571
H66	H	1.409820	-0.200433	0.962427
H67	H	1.359122	-0.811045	0.464643
N68	N	1.689165	-0.803974	0.362327
H69	H	1.688099	-0.748026	0.362400
H70	H	1.670293	-0.822810	0.289189
H71	H	1.490436	-0.903869	0.333608
H72	H	1.407108	-0.449224	0.946912
N73	N	1.593443	-0.501241	1.089958
H74	H	1.539660	-0.538691	1.064230
H75	H	1.593947	-0.500460	1.170140
N76	N	0.962001	-0.396064	0.306863
H77	H	0.987190	-0.358274	0.253388
H78	H	0.881828	-0.396825	0.308121
H79	H	1.717606	-0.391245	0.947015
N80	N	1.115079	-0.501398	0.457111
H81	H	1.195269	-0.500915	0.457237
H82	H	1.088568	-0.515111	0.384003
N83	N	1.689344	-0.252417	1.089637
H84	H	1.762608	-0.266226	1.063757
H85	H	1.688393	-0.252421	1.169821
N86	N	1.332534	-0.319113	1.089948
H87	H	1.278855	-0.356633	1.064212
H88	H	1.312455	-0.268304	1.063080
H89	H	1.105118	-0.266108	0.381763
