data_functionalizedCrystal
_audit_creation_method	'MofGen! by Chris Wilmer'
_symmetry_space_group_name_H-M	'P1'
_symmetry_Int_Tables_number	1
_symmetry_cell_setting	triclinic
loop_
_symmetry_equiv_pos_as_xyz
  x,y,z
_cell_length_a	15.944551
_cell_length_b	14.971486
_cell_length_c	14.048226
_cell_angle_alpha	89.998499
_cell_angle_beta	90.001543
_cell_angle_gamma	96.443567
loop_
_atom_site_label
_atom_site_type_symbol
_atom_site_fract_x
_atom_site_fract_y
_atom_site_fract_z
O1	O	-0.109463	1.186829	-0.079041
O2	O	0.223870	1.520162	0.254293
O3	O	0.557203	1.853496	0.587626
O4	O	-0.122572	0.926415	-0.079065
O5	O	0.210762	1.259748	0.254268
O6	O	0.544095	1.593081	0.587601
O7	O	0.006251	1.063733	-0.079058
O8	O	0.339584	1.397066	0.254276
O9	O	0.672917	1.730400	0.587609
O10	O	-0.238286	1.049510	-0.079048
O11	O	0.095048	1.382844	0.254285
O12	O	0.428381	1.716177	0.587619
O13	O	0.006258	1.063717	0.079264
O14	O	0.339592	1.397050	0.412597
O15	O	0.672925	1.730383	0.745930
O16	O	-0.122564	0.926398	0.079256
O17	O	0.210769	1.259731	0.412589
O18	O	0.544103	1.593065	0.745923
O19	O	-0.109456	1.186812	0.079281
O20	O	0.223878	1.520146	0.412614
O21	O	0.557211	1.853479	0.745947
Zn22	Zn	-0.116009	1.056603	0.104405
Zn23	Zn	0.217325	1.389936	0.437739
Zn24	Zn	0.550658	1.723269	0.771072
Zn25	Zn	-0.116019	1.056624	-0.104190
Zn26	Zn	0.217315	1.389958	0.229144
Zn27	Zn	0.550648	1.723291	0.562477
O28	O	-0.238278	1.049494	0.079273
O29	O	0.095055	1.382827	0.412607
O30	O	0.428389	1.716161	0.745940
C31	C	-0.121982	0.893082	0.000092
C32	C	0.211352	1.226416	0.333425
C33	C	0.544685	1.559749	0.666759
C34	C	-0.120225	0.793787	0.000082
C35	C	0.213108	1.127120	0.333416
C36	C	0.546442	1.460454	0.666749
C37	C	-0.195904	0.736480	0.000087
C38	C	0.137429	1.069813	0.333420
C39	C	0.470762	1.403147	0.666753
C40	C	-0.194249	0.643182	0.000101
C41	C	0.139085	0.976516	0.333434
C42	C	0.472418	1.309849	0.666767
C43	C	-0.116913	0.607194	0.000104
C44	C	0.216421	0.940527	0.333437
C45	C	0.549754	1.273860	0.666770
C46	C	-0.041227	0.664508	0.000102
C47	C	0.292106	0.997841	0.333435
C48	C	0.625439	1.331175	0.666769
C49	C	-0.042884	0.757804	0.000095
C50	C	0.290450	1.091137	0.333428
C51	C	0.623783	1.424470	0.666761
C52	C	-0.037780	0.470049	0.000115
C53	C	0.295553	0.803382	0.333448
C54	C	0.628887	1.136716	0.666782
C55	C	-0.036123	0.376747	0.000121
C56	C	0.297210	0.710080	0.333454
C57	C	0.630544	1.043414	0.666787
C58	C	-0.189145	0.355428	0.000121
C59	C	0.144189	0.688761	0.333454
C60	C	0.477522	1.022094	0.666788
C61	C	-0.190801	0.448724	0.000114
C62	C	0.142532	0.782057	0.333447
C63	C	0.475865	1.115390	0.666780
C64	C	-0.115116	0.506032	0.000110
C65	C	0.218218	0.839365	0.333444
C66	C	0.551551	1.172698	0.666777
C67	C	-0.269576	1.050093	0.000114
C68	C	0.063757	1.383426	0.333447
C69	C	0.397090	1.716759	0.666781
C70	C	-0.362824	1.051863	0.000118
C71	C	-0.029491	1.385196	0.333452
C72	C	0.303843	1.718529	0.666785
C73	C	-0.577766	1.141210	0.000112
C74	C	-0.244432	1.474544	0.333446
C75	C	0.088901	1.807877	0.666779
C76	C	-0.638739	1.099712	0.078170
C77	C	-0.305405	1.433045	0.411503
C78	C	0.027928	1.766379	0.744837
C79	C	-0.533553	1.055065	0.000110
C80	C	-0.200220	1.388398	0.333443
C81	C	0.133114	1.721732	0.666777
C82	C	-0.638732	1.099708	-0.077922
C83	C	-0.305398	1.433041	0.255411
C84	C	0.027935	1.766375	0.588744
C85	C	-0.698469	1.058165	0.000098
C86	C	-0.365135	1.391498	0.333431
C87	C	-0.031802	1.724831	0.666765
C88	C	-0.593298	1.013543	0.078232
C89	C	-0.259964	1.346877	0.411566
C90	C	0.073369	1.680210	0.744899
C91	C	-0.593284	1.013551	-0.077930
C92	C	-0.259951	1.346885	0.255403
C93	C	0.073382	1.680218	0.588736
C94	C	-0.654240	0.971991	0.000146
C95	C	-0.320906	1.305324	0.333480
C96	C	0.012427	1.638657	0.666813
C97	C	-0.438549	1.053282	0.000118
C98	C	-0.105216	1.386615	0.333451
C99	C	0.228118	1.719949	0.666785
C100	C	-0.793471	1.059941	0.000097
C101	C	-0.460138	1.393274	0.333431
C102	C	-0.126805	1.726608	0.666764
C103	C	0.037549	1.063134	0.000099
C104	C	0.370882	1.396468	0.333433
C105	C	0.704216	1.729801	0.666766
C106	C	0.130797	1.061364	0.000089
C107	C	0.464130	1.394698	0.333422
C108	C	0.797463	1.728031	0.666756
C109	C	-0.110046	1.220145	0.000121
C110	C	0.223288	1.553478	0.333455
C111	C	0.556621	1.886811	0.666788
C112	C	-0.111802	1.319440	0.000125
C113	C	0.221531	1.652773	0.333458
C114	C	0.554864	1.986107	0.666792
N115	N	-0.116001	1.056594	0.246766
N116	N	0.217332	1.389928	0.580099
N117	N	0.550665	1.723261	0.913433
N118	N	-0.116019	1.056640	-0.246550
N119	N	0.217314	1.389973	0.086783
N120	N	0.550647	1.723306	0.420116
C121	C	-0.058982	1.117418	0.296587
C122	C	0.274351	1.450751	0.629921
C123	C	0.607684	1.784085	0.963254
C124	C	-0.058982	1.117424	0.396245
C125	C	0.274351	1.450757	0.729578
C126	C	0.607685	1.784091	1.062912
C127	C	-0.116005	1.056610	0.446080
C128	C	0.217328	1.389943	0.779413
C129	C	0.550662	1.723277	1.112746
C130	C	-0.173027	0.995780	0.396251
C131	C	0.160307	1.329113	0.729585
C132	C	0.493640	1.662446	1.062918
C133	C	-0.173022	0.995770	0.296595
C134	C	0.160311	1.329103	0.629929
C135	C	0.493644	1.662437	0.963262
C136	C	-0.173033	0.995806	0.603965
C137	C	0.160301	1.329139	0.937299
C138	C	0.493634	1.662472	1.270632
C139	C	-0.173038	0.995816	0.703628
C140	C	0.160295	1.329149	1.036962
C141	C	0.493628	1.662483	1.370295
C142	C	-0.058992	1.117459	0.703615
C143	C	0.274341	1.450793	1.036948
C144	C	0.607674	1.784126	1.370282
C145	C	-0.058988	1.117450	0.603959
C146	C	0.274345	1.450783	0.937293
C147	C	0.607679	1.784117	1.270626
C148	C	-0.116011	1.056621	0.554138
C149	C	0.217322	1.389954	0.887471
C150	C	0.550656	1.723287	1.220805
H151	H	-0.258881	0.765774	0.000083
H152	H	0.074453	1.099108	0.333417
H153	H	0.407786	1.432441	0.666750
H154	H	-0.255875	0.596526	0.000103
H155	H	0.077458	0.929859	0.333436
H156	H	0.410792	1.263193	0.666770
Br157	Br	0.064938	0.547824	0.000115
Br158	Br	0.398271	0.881157	0.333449
Br159	Br	0.731604	1.214491	0.666782
H160	H	-0.219453	0.946259	0.436832
H161	H	0.113880	1.279593	0.770166
H162	H	0.447213	1.612926	1.103499
H163	H	0.018742	0.804463	0.000091
H164	H	0.352076	1.137796	0.333424
H165	H	0.685409	1.471130	0.666757
Br166	Br	0.063731	0.615667	0.000116
Br167	Br	0.397064	0.949001	0.333449
Br168	Br	0.730397	1.282334	0.666782
H169	H	0.026851	0.347448	0.000124
H170	H	0.360184	0.680781	0.333458
H171	H	0.693518	1.014115	0.666791
Br172	Br	-0.295759	0.497566	0.000095
Br173	Br	0.037575	0.830899	0.333429
Br174	Br	0.370908	1.164232	0.666762
H175	H	-0.219472	0.946294	0.744198
H176	H	0.113862	1.279627	1.077532
H177	H	0.447195	1.612961	1.410865
H178	H	-0.012552	1.166951	0.436809
H179	H	0.320781	1.500284	0.770143
H180	H	0.654114	1.833617	1.103476
H181	H	-0.544528	1.212715	0.000196
H182	H	-0.211195	1.546049	0.333529
H183	H	0.122139	1.879382	0.666863
H184	H	-0.658859	1.136167	-0.143910
H185	H	-0.325526	1.469500	0.189423
H186	H	0.007807	1.802834	0.522756
H187	H	-0.658877	1.136141	0.144169
H188	H	-0.325544	1.469474	0.477502
H189	H	0.007790	1.802808	0.810835
Br190	Br	-0.709385	0.852704	0.000194
Br191	Br	-0.376052	1.186038	0.333527
Br192	Br	-0.042719	1.519371	0.666861
H193	H	-0.573124	0.977153	-0.143932
H194	H	-0.239791	1.310486	0.189401
H195	H	0.093543	1.643820	0.522734
H196	H	-0.012551	1.166943	0.256019
H197	H	0.320782	1.500277	0.589352
H198	H	0.654116	1.833610	0.922685
H199	H	-0.012560	1.166973	0.563384
H200	H	0.320774	1.500307	0.896718
H201	H	0.654107	1.833640	1.230051
H202	H	-0.012562	1.166988	0.744186
H203	H	0.320771	1.500322	1.077519
H204	H	0.654104	1.833655	1.410852
H205	H	-0.219464	0.946269	0.563404
H206	H	0.113869	1.279602	0.896737
H207	H	0.447202	1.612935	1.230071
H208	H	-0.219452	0.946240	0.256032
H209	H	0.113881	1.279574	0.589365
H210	H	0.447215	1.612907	0.922698
H211	H	-0.250771	0.308763	0.000128
H212	H	0.082562	0.642096	0.333461
H213	H	0.415896	0.975429	0.666795
Br214	Br	-0.559921	0.952852	0.188345
Br215	Br	-0.226588	1.286185	0.521678
Br216	Br	0.106745	1.619518	0.855011
