data_functionalizedCrystal
_audit_creation_method	'MofGen! by Chris Wilmer'
_symmetry_space_group_name_H-M	'P1'
_symmetry_Int_Tables_number	1
_symmetry_cell_setting	triclinic
loop_
_symmetry_equiv_pos_as_xyz
  x,y,z
_cell_length_a	15.698487
_cell_length_b	18.878441
_cell_length_c	18.878441
_cell_angle_alpha	90.000195
_cell_angle_beta	60.000646
_cell_angle_gamma	59.997505
loop_
_atom_site_label
_atom_site_type_symbol
_atom_site_fract_x
_atom_site_fract_y
_atom_site_fract_z
Zr1	Zr	0.932365	0.682403	-0.092938
O2	O	1.110086	0.569291	-0.206042
O3	O	0.754651	0.717078	-0.058268
O4	O	0.932368	0.717072	-0.206045
O5	O	0.932364	0.569301	0.058307
O6	O	0.932361	0.833645	-0.206044
O7	O	0.932369	0.569296	-0.058265
O8	O	0.614458	0.833655	0.058302
O9	O	1.250268	0.569290	-0.206040
O10	O	0.827739	0.818863	-0.043478
O11	O	0.827740	0.731870	0.043518
O12	O	1.036979	0.731863	-0.130471
O13	O	1.036980	0.644869	-0.043475
Zr14	Zr	0.932347	0.868330	0.092982
Zr15	Zr	0.932355	0.868323	-0.092937
Zr16	Zr	0.932357	0.682410	0.092981
Zr17	Zr	1.155938	0.682403	-0.092934
Zr18	Zr	0.708774	0.868330	0.092978
O19	O	1.110061	0.833655	0.058312
O20	O	1.110072	0.833644	-0.206041
O21	O	1.110075	0.569301	0.058310
O22	O	0.754625	0.981442	0.206087
O23	O	0.754636	0.981432	-0.058266
O24	O	0.754639	0.717088	0.206085
O25	O	0.932347	0.981432	-0.058263
O26	O	0.932344	0.833660	0.206089
O27	O	0.932350	0.717088	0.206088
O28	O	0.932342	0.981436	0.058309
O29	O	1.250260	0.717072	-0.206039
O30	O	0.614452	0.833661	0.206083
O31	O	0.614444	0.981442	0.206084
O32	O	0.614450	0.981436	0.058303
O33	O	1.250261	0.569296	-0.058259
O34	O	1.250253	0.717077	-0.058258
O35	O	0.827732	0.818870	0.130515
O36	O	0.827731	0.905863	0.043519
O37	O	1.036971	0.818863	-0.043474
O38	O	1.036972	0.731869	0.043522
C39	C	0.652700	0.775367	0.000017
C40	C	0.557787	0.775367	0.000015
C41	C	0.384005	0.775364	0.000030
C42	C	0.480710	0.775364	0.000024
C43	C	0.932368	0.542809	0.000021
C44	C	0.932373	0.463881	0.000020
C45	C	0.823120	0.169346	0.045432
C46	C	0.823125	0.243503	0.045427
C47	C	0.932351	0.235164	0.000020
C48	C	1.041578	0.152661	-0.045394
C49	C	1.041572	0.078505	-0.045394
C50	C	1.041585	0.307227	-0.045389
C51	C	1.041592	0.381387	-0.045388
C52	C	0.823138	0.472224	0.045433
C53	C	0.823131	0.398069	0.045432
C54	C	0.932359	0.315571	0.000020
C55	C	1.212011	0.775366	0.000027
C56	C	1.306924	0.775366	0.000029
C57	C	0.932366	0.775357	-0.232534
C58	C	0.932369	0.775354	-0.311461
C59	C	0.932343	1.007923	0.000023
C60	C	0.932339	1.086851	0.000024
C61	C	1.041589	0.729941	-0.393951
C62	C	1.041585	0.729950	-0.468109
C63	C	0.932360	0.775367	-0.459775
C64	C	0.823131	0.820785	-0.377277
C65	C	0.823137	0.820782	-0.303121
C66	C	0.823128	0.820789	-0.531844
C67	C	0.823122	0.820791	-0.606005
C68	C	1.041576	0.729957	-0.696832
C69	C	1.041582	0.729953	-0.622676
C70	C	0.932353	0.775370	-0.540183
C71	C	0.932346	0.775375	0.232578
C72	C	0.932342	0.775378	0.311506
C73	C	0.652687	1.007924	0.000018
C74	C	0.557770	1.086852	0.000017
C75	C	0.652690	0.775375	0.232573
C76	C	0.557774	0.775379	0.311498
C77	C	0.652677	1.007933	0.232574
C78	C	0.557757	1.086864	0.311500
C79	C	1.212034	0.542800	-0.232530
C80	C	1.306954	0.463869	-0.311456
C81	C	1.212024	0.542809	0.000026
C82	C	1.306941	0.463881	0.000027
C83	C	1.212021	0.775357	-0.232529
C84	C	1.306937	0.775354	-0.311454
C85	C	0.513201	1.078504	-0.045403
C86	C	0.424029	1.152658	-0.045422
C87	C	0.379422	1.235159	-0.000015
C88	C	0.424000	1.243505	0.045406
C89	C	0.513177	1.169352	0.045419
C90	C	0.513196	0.820793	0.393982
C91	C	0.424025	0.820793	0.468148
C92	C	0.379427	0.775382	0.459829
C93	C	0.424014	0.729962	0.377337
C94	C	0.513190	0.729958	0.303172
C95	C	0.513181	1.169348	0.303154
C96	C	0.424006	1.243519	0.377306
C97	C	0.379402	1.235204	0.459804
C98	C	0.423987	1.152711	0.468149
C99	C	0.513167	1.078542	0.393997
C100	C	1.351541	0.381385	-0.303110
C101	C	1.440744	0.307214	-0.377262
C102	C	1.485352	0.315529	-0.459760
C103	C	1.440762	0.398022	-0.468105
C104	C	1.351567	0.472191	-0.393953
C105	C	1.351520	0.472229	0.045440
C106	C	1.440717	0.398075	0.045438
C107	C	1.485327	0.315574	0.000028
C108	C	1.440744	0.307228	-0.045390
C109	C	1.351555	0.381381	-0.045392
C110	C	1.351507	0.820773	-0.303107
C111	C	1.440679	0.820787	-0.377259
C112	C	1.485285	0.775376	-0.459757
C113	C	1.440707	0.729956	-0.468103
C114	C	1.351531	0.729947	-0.393952
H115	H	0.734175	0.176146	0.082412
C116	C	0.562197	1.178540	0.095384
H117	H	0.621705	1.122567	0.088888
H118	H	0.498163	1.209364	0.155124
H119	H	0.596989	1.209353	0.072947
C120	C	1.302447	0.870731	-0.212367
H121	H	1.242958	0.864222	-0.169392
H122	H	1.267649	0.930475	-0.205864
H123	H	1.366476	0.848305	-0.205862
H124	H	0.549519	1.011334	-0.082389
C125	C	0.702983	0.870730	-0.368104
H126	H	0.637936	0.897778	-0.308353
H127	H	0.698457	0.831524	-0.395146
H128	H	0.698423	0.913711	-0.395141
C129	C	1.489730	0.407271	0.095409
H130	H	1.450367	0.467027	0.122463
H131	H	1.573925	0.380241	0.056223
H132	H	1.475108	0.380229	0.138385
H133	H	1.476965	0.857773	-0.370447
H134	H	1.315261	0.374572	-0.082370
H135	H	1.130533	0.374591	-0.082338
H136	H	1.315205	0.539398	0.082423
C137	C	1.583460	0.233940	-0.541321
H138	H	1.603652	0.250700	-0.591654
H139	H	1.554226	0.200392	-0.541318
H140	H	1.653039	0.200398	-0.541314
H141	H	1.130530	0.240054	-0.082373
H142	H	0.387733	0.857782	0.535310
H143	H	0.734188	0.310671	0.082390
H144	H	1.557899	0.775390	-0.520129
C145	C	0.281332	0.775394	0.541412
H146	H	0.261154	0.741842	0.524650
H147	H	0.211755	0.833256	0.574958
H148	H	0.310581	0.751078	0.574954
C149	C	1.489811	0.216476	-0.095330
H150	H	1.450498	0.222116	-0.122384
H151	H	1.475195	0.185669	-0.056123
H152	H	1.574015	0.185659	-0.138304
H153	H	0.734199	0.857762	-0.235954
H154	H	1.315226	0.374598	-0.235942
C155	C	0.562208	0.680006	0.212445
H156	H	0.522862	0.652971	0.218121
H157	H	0.646407	0.637027	0.181616
H158	H	0.547571	0.719208	0.181631
H159	H	0.549449	1.011382	0.400805
H160	H	1.477040	0.692983	-0.535283
C161	C	0.281321	1.316722	-0.000026
H162	H	0.261135	1.367057	0.033518
H163	H	0.211749	1.316716	0.024281
H164	H	0.310568	1.316717	-0.057889
C165	C	1.161728	0.143482	-0.095344
H166	H	1.226774	0.083728	-0.122394
H167	H	1.166269	0.170521	-0.056147
H168	H	1.166274	0.170521	-0.138322
H169	H	0.387744	1.145845	-0.082409
C170	C	1.489829	0.407157	-0.558855
H171	H	1.549324	0.351167	-0.601814
H172	H	1.524622	0.437970	-0.565376
H173	H	1.425805	0.437958	-0.565366
H174	H	1.315252	0.692958	-0.400760
H175	H	0.549498	0.857772	0.400772
H176	H	0.734200	0.539399	0.082409
C177	C	1.161713	-0.012238	-0.095337
H178	H	1.226765	-0.006586	-0.122373
H179	H	1.166259	-0.043058	-0.138311
H180	H	1.166242	-0.043051	-0.056131
C181	C	0.374914	1.334258	0.095358
H182	H	0.315411	1.377219	0.088848
H183	H	0.438919	1.340781	0.072947
H184	H	0.340100	1.340769	0.155107
H185	H	1.315265	0.539351	-0.400759
H186	H	0.387689	0.692990	0.370576
C187	C	0.562233	1.178512	0.212416
H188	H	0.522912	1.238264	0.218078
H189	H	0.547617	1.151475	0.181594
H190	H	0.646436	1.151465	0.181602
H191	H	0.734190	0.404865	0.082413
H192	H	1.130533	0.692951	-0.400747
C193	C	1.161727	0.679991	-0.558845
H194	H	1.226777	0.652933	-0.553187
H195	H	1.166272	0.719187	-0.589662
H196	H	1.166262	0.637017	-0.589660
C197	C	0.374919	1.143571	0.558897
H198	H	0.414240	1.083824	0.553257
H199	H	0.290719	1.170625	0.589709
H200	H	0.389544	1.170617	0.589707
H201	H	0.387714	1.310681	0.370496
H202	H	1.130522	0.692966	-0.629468
H203	H	0.734182	0.857773	-0.599213
C204	C	1.161729	0.680000	-0.787568
H205	H	1.226779	0.652942	-0.781911
H206	H	1.166273	0.719196	-0.818385
H207	H	1.166265	0.637026	-0.818385
C208	C	0.281297	1.316795	0.541363
H209	H	0.261134	1.367108	0.524569
H210	H	0.310512	1.316813	0.574920
H211	H	0.211704	1.316808	0.574908
C212	C	1.489767	0.216483	-0.368067
H213	H	1.450405	0.222160	-0.308313
H214	H	1.573962	0.185658	-0.395093
H215	H	1.475152	0.185662	-0.395112
H216	H	0.734182	0.857774	-0.464675
C217	C	1.583429	0.234013	0.000041
H218	H	1.603576	0.250808	0.033599
H219	H	1.653021	0.200457	-0.057811
H220	H	1.554197	0.200464	0.024364
