data_functionalizedCrystal
_audit_creation_method	'MofGen! by Chris Wilmer'
_symmetry_space_group_name_H-M	'P1'
_symmetry_Int_Tables_number	1
_symmetry_cell_setting	triclinic
loop_
_symmetry_equiv_pos_as_xyz
  x,y,z
_cell_length_a	11.792241
_cell_length_b	13.339070
_cell_length_c	12.376457
_cell_angle_alpha	75.601917
_cell_angle_beta	78.632725
_cell_angle_gamma	80.088645
loop_
_atom_site_label
_atom_site_type_symbol
_atom_site_fract_x
_atom_site_fract_y
_atom_site_fract_z
O1	O	1.565358	-0.119615	-0.093887
O2	O	1.239431	-0.133925	-0.093913
O3	O	1.364988	0.020699	-0.093900
O4	O	1.439801	-0.274239	-0.093901
O5	O	1.333597	-0.017904	0.094109
O6	O	1.208040	-0.172528	0.094096
O7	O	1.533968	-0.158218	0.094121
Zn8	Zn	1.366020	-0.171502	0.123959
Zn9	Zn	1.407378	-0.120641	-0.123751
O10	O	1.408411	-0.312842	0.094108
C11	C	1.181168	-0.152326	0.000088
C12	C	1.054327	-0.149633	0.000078
C13	C	0.822085	-0.144691	0.000111
C14	C	0.951320	-0.147437	0.000093
C15	C	1.336656	0.039156	0.000102
C16	C	1.298988	0.151666	0.000095
C17	C	1.592231	-0.139816	0.000118
C18	C	1.719073	-0.142508	0.000121
N19	N	1.337802	-0.206213	0.293014
C20	C	1.436743	-0.331299	0.000104
C21	C	1.474412	-0.443807	0.000104
C22	C	1.591878	0.514848	0.000118
C23	C	1.627271	0.409138	0.000132
C24	C	1.545204	0.344765	0.000122
C25	C	1.427736	0.386112	0.000100
C26	C	1.392338	0.491830	0.000095
C27	C	1.345664	0.321747	0.000099
C28	C	1.228197	0.363094	0.000077
C29	C	1.192804	0.468802	0.000071
C30	C	1.274872	0.533175	0.000081
C31	C	1.381062	0.216029	0.000103
C32	C	1.181522	0.193011	0.000080
C33	C	1.146129	0.298721	0.000067
N34	N	1.435603	-0.085922	-0.292806
C35	C	1.501099	-0.005328	0.648017
C36	C	1.520842	0.018967	0.529679
C37	C	1.475084	-0.037326	0.470507
C38	C	1.409579	-0.117917	0.529684
C39	C	1.389841	-0.142219	0.648034
C40	C	1.363826	-0.174218	0.470524
C41	C	1.298321	-0.254809	0.529702
C42	C	1.278586	-0.279107	0.648039
C43	C	1.324345	-0.222814	0.707211
C44	C	1.383564	-0.149915	0.352175
C45	C	1.272306	-0.286807	0.352192
C46	C	1.252563	-0.311102	0.470530
H47	H	1.476704	0.182375	0.000122
N48	N	1.583384	0.230754	0.000120
H49	H	1.564381	0.215087	-0.069583
H50	H	1.541088	0.186530	0.069853
N51	N	1.753956	0.364542	0.000161
H52	H	1.800575	0.421360	0.000165
H53	H	1.784631	0.335488	-0.069531
N54	N	1.591490	0.105883	0.465858
H55	H	1.542108	0.161096	0.416758
H56	H	1.662207	0.076841	0.416822
N57	N	1.496362	-0.011127	0.342872
H58	H	1.583012	-0.020482	0.314350
H59	H	1.462832	0.063673	0.314464
H60	H	1.658683	0.567267	0.000135
H61	H	1.436898	-0.084298	0.304003
H62	H	1.538357	0.040493	0.696202
N63	N	1.019435	0.343320	0.000043
H64	H	1.009471	0.420055	0.000041
H65	H	0.970412	0.305511	0.069737
H66	H	1.246061	0.619255	0.000066
H67	H	1.097154	0.502461	0.000062
N68	N	1.092992	0.123591	0.000084
H69	H	1.133240	0.050350	0.000089
H70	H	1.054870	0.151346	-0.069615
H71	H	1.308266	-0.242591	0.803572
H72	H	1.225260	-0.344736	0.696222
N73	N	1.181911	-0.398021	0.534361
H74	H	1.176353	-0.404869	0.618307
H75	H	1.221124	-0.465747	0.513678
N76	N	1.222951	-0.347535	0.288387
H77	H	1.245390	-0.319909	0.204438
H78	H	1.135150	-0.339593	0.309081
