data_functionalizedCrystal
_audit_creation_method	'MofGen! by Chris Wilmer'
_symmetry_space_group_name_H-M	'P1'
_symmetry_Int_Tables_number	1
_symmetry_cell_setting	triclinic
loop_
_symmetry_equiv_pos_as_xyz
  x,y,z
_cell_length_a	16.992701
_cell_length_b	10.540539
_cell_length_c	16.053802
_cell_angle_alpha	92.593658
_cell_angle_beta	87.243340
_cell_angle_gamma	87.596331
loop_
_atom_site_label
_atom_site_type_symbol
_atom_site_fract_x
_atom_site_fract_y
_atom_site_fract_z
O1	O	1.045179	0.264282	-0.069429
O2	O	0.816877	0.261331	-0.069429
O3	O	0.936237	0.078552	-0.069428
O4	O	0.925820	0.447061	-0.069430
O5	O	0.929667	0.088569	0.069431
O6	O	0.810307	0.271347	0.069429
O7	O	1.038609	0.274299	0.069430
Zn8	Zn	0.923415	0.274413	0.091476
Zn9	Zn	0.932071	0.261216	-0.091476
O10	O	0.919250	0.457078	0.069429
C11	C	0.784358	0.262539	-0.000000
C12	C	0.697251	0.251200	-0.000000
C13	C	0.207865	0.175010	-0.000003
C14	C	0.289711	0.185675	0.000002
C15	C	0.321927	0.305759	-0.000003
C16	C	0.272291	0.415187	-0.000004
C17	C	0.190447	0.404522	-0.000003
C18	C	0.565771	0.349962	-0.000000
C19	C	0.647622	0.360619	-0.000004
C20	C	0.665036	0.131106	0.000003
C21	C	0.583189	0.120451	-0.000001
C22	C	0.533561	0.229879	0.000002
N23	N	0.405586	0.316663	-0.000000
N24	N	0.449903	0.218974	0.000006
C25	C	0.932171	0.036189	-0.000000
C26	C	0.929834	-0.104962	-0.000005
C27	C	0.840288	-0.296181	-0.000317
C28	C	0.842642	-0.149335	-0.000004
C29	C	0.968042	-0.157259	0.079291
C30	C	0.965063	-0.304057	0.079357
C31	C	0.974308	-0.315812	-0.078551
C32	C	0.975161	-0.168836	-0.079600
C33	C	1.071128	0.273091	-0.000001
C34	C	1.158236	0.284430	-0.000007
C35	C	0.923316	0.499440	-0.000001
C36	C	0.925653	0.640591	-0.000002
N37	N	0.917513	0.283420	0.216337
N38	N	0.937980	0.252200	-0.216336
C39	C	0.968319	0.205679	0.260031
C40	C	0.964198	0.211991	0.347438
C41	C	0.909274	0.296053	0.391149
C42	C	0.858462	0.373797	0.347448
C43	C	0.862580	0.367477	0.260043
C44	C	0.891286	0.323625	0.652558
C45	C	0.887173	0.329942	0.739969
C46	C	0.992909	0.168133	0.739953
C47	C	0.997025	0.161826	0.652546
C48	C	0.946211	0.239566	0.608853
N49	N	0.905062	0.302511	0.480492
N50	N	0.950420	0.233101	0.519511
H51	H	0.705451	0.042016	0.000001
H52	H	0.842445	0.398400	0.775554
H53	H	0.673848	0.458412	0.000005
H54	H	0.298528	0.512963	-0.000002
H55	H	1.041749	0.093376	0.616959
Cl56	Cl	0.503392	0.487530	-0.000008
H57	H	0.821207	0.430781	0.224468
Cl58	Cl	0.827409	0.421357	0.597635
Cl59	Cl	1.056784	0.070404	0.794885
Cl60	Cl	0.128055	0.542084	-0.000001
Cl61	Cl	0.789409	0.479470	0.402397
H62	H	0.948932	-0.354148	-0.138652
H63	H	0.812315	-0.113696	-0.056846
H64	H	0.181642	0.077224	-0.000005
H65	H	0.330115	0.096574	0.000008
H66	H	0.947234	-0.134873	-0.138260
Cl67	Cl	0.918730	-0.088829	0.170398
H68	H	0.556965	0.022665	0.000003
H69	H	0.808536	-0.331871	-0.057181
H70	H	0.803310	-0.325286	0.056229
Cl71	Cl	0.912851	-0.345153	0.170870
Cl72	Cl	0.787148	-0.082970	0.087900
H73	H	1.005568	0.148688	0.383014
Cl74	Cl	1.061611	-0.369322	0.084924
Cl75	Cl	1.066686	-0.113844	0.083848
H76	H	1.038956	-0.139445	-0.084388
Cl77	Cl	1.071578	-0.380351	-0.079377
H78	H	1.013048	0.137232	0.224448
