data_functionalizedCrystal
_audit_creation_method	'MofGen! by Chris Wilmer'
_symmetry_space_group_name_H-M	'P1'
_symmetry_Int_Tables_number	1
_symmetry_cell_setting	triclinic
loop_
_symmetry_equiv_pos_as_xyz
  x,y,z
_cell_length_a	12.759401
_cell_length_b	29.839131
_cell_length_c	29.839126
_cell_angle_alpha	89.978002
_cell_angle_beta	89.976061
_cell_angle_gamma	90.041651
loop_
_atom_site_label
_atom_site_type_symbol
_atom_site_fract_x
_atom_site_fract_y
_atom_site_fract_z
Zn1	Zn	1.606105	-0.178895	-0.253984
Zn2	Zn	1.605904	-0.254012	-0.178854
Zn3	Zn	1.430394	-0.178897	-0.178869
Zn4	Zn	1.430314	-0.253999	-0.253957
O5	O	1.518179	-0.216451	-0.216416
O6	O	1.753099	-0.188864	-0.244022
O7	O	1.582572	-0.244055	-0.115988
O8	O	1.453820	-0.116030	-0.188850
O9	O	1.752952	-0.244052	-0.188824
O10	O	1.582914	-0.116028	-0.244037
O11	O	1.453625	-0.188868	-0.116000
O12	O	1.283362	-0.188855	-0.188825
O13	O	1.453683	-0.244029	-0.316828
O14	O	1.283303	-0.244032	-0.243992
O15	O	1.582837	-0.188850	-0.316847
O16	O	1.582494	-0.316878	-0.188799
O17	O	1.453489	-0.316867	-0.243977
C18	C	1.245212	-0.216442	-0.216407
C19	C	1.128435	-0.216450	-0.216415
C20	C	1.517989	-0.333173	-0.216394
C21	C	1.518004	-0.383108	-0.216399
C22	C	1.073500	-0.245140	-0.187634
C23	C	0.963776	-0.245148	-0.187642
C24	C	0.963932	-0.187771	-0.245212
C25	C	1.073654	-0.187766	-0.245206
C26	C	1.073409	-0.278266	-0.154395
C27	C	0.963685	-0.278273	-0.154402
C28	C	1.585475	-0.692744	-0.187726
C29	C	1.585604	-0.880417	-0.187744
O30	O	1.642819	-0.904675	-0.163348
N31	N	1.518397	-0.903893	-0.216450
C32	C	1.451158	-0.880448	-0.245155
O33	O	1.394004	-0.904722	-0.269575
C34	C	1.451034	-0.692775	-0.245140
C35	C	1.518238	-0.669302	-0.216429
C36	C	1.652674	-0.669270	-0.159018
C37	C	1.652637	-0.622354	-0.159012
C38	C	1.585400	-0.598913	-0.187715
C39	C	1.518201	-0.622386	-0.216423
C40	C	1.383800	-0.669331	-0.273847
C41	C	1.383777	-0.622410	-0.273842
C42	C	1.450982	-0.598937	-0.245131
C43	C	1.450927	-0.552029	-0.245120
N44	N	1.518134	-0.528553	-0.216414
C45	C	1.585371	-0.551995	-0.187711
C46	C	1.451226	-0.978978	-0.245161
C47	C	1.451255	-1.025896	-0.245164
C48	C	1.585704	-1.025862	-0.187753
C49	C	1.585668	-0.978943	-0.187748
C50	C	1.518433	-0.955502	-0.216455
C51	C	1.585287	-0.453469	-0.187701
C52	C	1.585241	-0.406549	-0.187697
C53	C	1.450797	-0.406588	-0.245109
C54	C	1.450839	-0.453503	-0.245112
C55	C	1.518092	-0.476943	-0.216407
O56	O	1.393750	-0.527742	-0.269506
O57	O	1.642532	-0.527713	-0.163302
C58	C	1.585512	-0.739659	-0.187732
C59	C	1.518312	-0.763133	-0.216440
C60	C	1.451076	-0.739691	-0.245143
C61	C	1.518342	-0.810051	-0.216444
C62	C	1.585578	-0.833492	-0.187741
C63	C	1.652785	-0.810016	-0.159035
C64	C	1.652748	-0.763101	-0.159030
C65	C	1.383869	-0.763167	-0.273849
C66	C	1.383910	-0.810082	-0.273852
C67	C	1.451147	-0.833524	-0.245149
C68	C	1.792212	-0.216459	-0.216424
C69	C	1.908989	-0.216463	-0.216428
C70	C	1.518273	-0.216438	-0.333594
C71	C	1.518314	-0.216432	-0.383529
C72	C	1.518398	-0.099272	-0.216448
C73	C	1.518492	-0.049338	-0.216462
C74	C	1.585442	-0.245108	-0.740113
C75	C	1.585444	-0.245139	-0.552440
O76	O	1.642508	-0.269591	-0.528173
N77	N	1.518309	-0.216411	-0.528974
C78	C	1.451164	-0.187674	-0.552429
O79	O	1.394054	-0.163243	-0.528163
C80	C	1.451158	-0.187646	-0.740101
C81	C	1.518304	-0.216373	-0.763565
C82	C	1.652582	-0.273833	-0.763577
C83	C	1.652585	-0.273824	-0.810492
C84	C	1.585448	-0.245088	-0.833944
C85	C	1.518307	-0.216363	-0.810480
C86	C	1.384008	-0.158912	-0.763555
C87	C	1.384011	-0.158908	-0.810476
C88	C	1.451157	-0.187635	-0.833940
C89	C	1.451173	-0.187618	-0.880847
N90	N	1.518308	-0.216347	-0.904314
C91	C	1.585445	-0.245082	-0.880862
C92	C	1.451173	-0.187691	-0.453898
C93	C	1.451176	-0.187697	-0.406980
C94	C	1.585455	-0.245163	-0.406995
C95	C	1.585457	-0.245154	-0.453914
C96	C	1.518308	-0.216419	-0.477364
C97	C	1.585447	-0.245059	-0.979388
C98	C	1.585447	-0.245045	-1.026308
C99	C	1.451165	-0.187581	-1.026289
C100	C	1.451168	-0.187593	-0.979373
C101	C	1.518313	-0.216335	-0.955924
O102	O	1.394130	-0.163183	-0.905143
O103	O	1.642530	-0.269517	-0.905136
C104	C	1.585439	-0.245118	-0.693198
C105	C	1.518299	-0.216393	-0.669734
C106	C	1.451161	-0.187657	-0.693186
C107	C	1.518301	-0.216399	-0.622816
C108	C	1.585439	-0.245134	-0.599364
C109	C	1.652574	-0.273863	-0.622831
C110	C	1.652577	-0.273853	-0.669746
C111	C	1.384026	-0.158929	-0.669719
C112	C	1.384029	-0.158940	-0.622804
C113	C	1.451167	-0.187676	-0.599352
C114	C	1.518146	-0.216431	-0.099693
C115	C	1.518309	-0.216310	-0.049759
H116	H	1.118378	-0.164408	-0.268647
O117	O	1.113939	-0.263410	-0.114955
C118	C	1.125555	-0.274444	-0.035110
C119	C	1.079606	-0.291324	-0.079744
H120	H	1.097797	-0.297000	-0.006628
H121	H	1.214792	-0.275147	-0.036890
H122	H	1.098032	-0.238665	-0.028765
H123	H	1.107048	-0.327109	-0.086115
H124	H	0.990373	-0.290589	-0.077941
O125	O	0.910553	-0.159921	-0.273135
C126	C	0.741590	-0.134522	-0.298681
C127	C	0.801907	-0.166078	-0.267028
H128	H	0.653739	-0.139495	-0.293762
H129	H	0.763123	-0.098274	-0.290858
H130	H	0.763265	-0.142459	-0.334885
H131	H	0.780264	-0.158181	-0.230814
H132	H	0.780369	-0.202316	-0.274890
O133	O	1.386107	-0.159741	-0.384170
C134	C	1.372061	-0.099109	-0.331194
C135	C	1.445880	-0.130733	-0.357004
H136	H	1.420356	-0.075654	-0.309217
H137	H	1.324095	-0.078540	-0.355999
H138	H	1.317066	-0.119746	-0.309234
H139	H	1.500938	-0.110130	-0.378965
H140	H	1.493772	-0.151303	-0.332175
O141	O	1.717757	-0.301810	-0.740850
C142	C	1.768605	-0.378233	-0.726479
C143	C	1.694732	-0.346600	-0.752248
H144	H	1.750001	-0.414452	-0.735678
H145	H	1.853345	-0.370375	-0.735737
H146	H	1.757110	-0.373286	-0.688916
H147	H	1.706133	-0.351530	-0.789817
H148	H	1.610019	-0.354465	-0.742953
O149	O	1.650726	-0.272915	-0.956565
C150	C	1.792622	-0.278973	-0.903648
C151	C	1.718739	-0.247379	-0.929458
H152	H	1.847644	-0.258339	-0.881733
H153	H	1.744414	-0.302465	-0.881639
H154	H	1.840555	-0.299509	-0.928493
H155	H	1.670790	-0.226814	-0.904645
H156	H	1.767008	-0.223917	-0.951473
O157	O	1.318748	-0.130951	-0.833186
C158	C	1.185509	-0.073977	-0.828216
C159	C	1.259377	-0.105608	-0.802443
H160	H	1.137472	-0.053486	-0.803371
H161	H	1.233730	-0.050450	-0.850182
H162	H	1.130583	-0.094606	-0.850180
H163	H	1.314318	-0.085016	-0.780454
H164	H	1.211091	-0.129136	-0.780505
H165	H	1.707472	-0.743992	-0.135651
H166	H	1.640450	-1.044956	-0.164383
H167	H	1.640054	-0.472548	-0.164327
O168	O	1.718092	-0.832862	-0.131207
C169	C	1.777731	-0.905133	-0.105788
C170	C	1.703720	-0.879314	-0.137321
H171	H	1.766121	-0.942694	-0.110714
H172	H	1.862444	-0.895895	-0.113724
H173	H	1.759368	-0.895920	-0.069552
H174	H	1.721988	-0.888514	-0.173567
H175	H	1.619029	-0.888555	-0.129346
H176	H	1.103146	-0.313072	-0.163647
O177	O	1.318588	-0.832812	-0.301786
C178	C	1.185203	-0.827881	-0.358717
C179	C	1.259131	-0.802086	-0.327109
H180	H	1.137096	-0.803051	-0.379192
H181	H	1.233382	-0.849799	-0.382259
H182	H	1.130345	-0.849897	-0.338071
H183	H	1.314003	-0.780047	-0.347719
H184	H	1.210886	-0.780197	-0.303565
O185	O	1.718030	-0.599625	-0.131113
C186	C	1.851356	-0.604561	-0.074157
C187	C	1.777360	-0.630353	-0.105737
H188	H	1.899329	-0.629393	-0.053627
H189	H	1.906327	-0.582576	-0.094782
H190	H	1.803131	-0.582613	-0.050661
H191	H	1.825501	-0.652325	-0.129240
H192	H	1.722387	-0.652309	-0.085085
O193	O	1.718164	-0.692042	-0.131212
C194	C	1.860129	-0.744921	-0.125257
C195	C	1.786006	-0.719166	-0.156795
H196	H	1.914984	-0.766863	-0.145929
H197	H	1.908220	-0.720080	-0.104769
H198	H	1.812000	-0.766910	-0.101720
H199	H	1.834055	-0.697176	-0.180360
H200	H	1.737912	-0.744031	-0.177252
O201	O	1.717940	-0.301731	-0.600066
C202	C	1.896599	-0.323569	-0.585745
C203	C	1.822706	-0.291974	-0.611549
H204	H	1.981317	-0.315698	-0.595027
H205	H	1.885147	-0.318637	-0.548177
H206	H	1.878025	-0.359789	-0.594953
H207	H	1.841235	-0.255742	-0.602378
H208	H	1.834172	-0.296945	-0.649111
O209	O	1.717918	-0.301695	-0.692554
C210	C	1.859738	-0.307737	-0.745556
C211	C	1.785814	-0.276153	-0.719752
H212	H	1.914636	-0.287099	-0.767560
H213	H	1.907791	-0.328264	-0.720747
H214	H	1.811453	-0.331237	-0.767489
H215	H	1.834018	-0.252626	-0.697819
H216	H	1.737757	-0.255658	-0.744586
O217	O	1.385846	-0.159673	-0.956647
C218	C	1.252689	-0.102662	-0.961590
C219	C	1.326609	-0.134260	-0.987379
H220	H	1.204793	-0.082100	-0.986426
H221	H	1.197644	-0.123274	-0.939629
H222	H	1.300969	-0.079195	-0.939620
H223	H	1.278414	-0.157733	-1.009373
H224	H	1.381658	-0.113620	-1.009312
H225	H	0.929624	-0.311347	-0.166804
O226	O	1.385802	-0.956280	-0.273060
C227	C	1.252484	-0.961278	-0.330017
C228	C	1.326511	-0.987036	-0.298440
H229	H	1.204544	-0.986133	-0.350552
H230	H	1.197484	-0.939359	-0.309390
H231	H	1.300682	-0.939268	-0.353509
H232	H	1.278398	-1.009071	-0.274941
H233	H	1.381514	-1.008927	-0.319095
O234	O	1.318700	-0.131018	-0.600083
C235	C	1.185544	-0.074007	-0.605034
C236	C	1.259464	-0.105608	-0.630818
H237	H	1.137648	-0.053448	-0.629872
H238	H	1.130498	-0.094616	-0.583070
H239	H	1.233824	-0.050537	-0.583066
H240	H	1.211269	-0.129084	-0.652810
H241	H	1.314513	-0.084971	-0.652754
O242	O	1.650570	-0.273065	-0.384140
C243	C	1.710097	-0.298523	-0.311860
C244	C	1.636297	-0.266908	-0.337690
H245	H	1.698599	-0.293550	-0.274301
H246	H	1.691569	-0.334756	-0.321038
H247	H	1.794821	-0.290645	-0.321126
H248	H	1.551548	-0.274745	-0.328438
H249	H	1.654915	-0.230685	-0.328510
H250	H	0.933875	-0.268904	-0.119627
O251	O	1.650627	-0.383817	-0.159792
C252	C	1.783938	-0.388744	-0.102829
C253	C	1.709962	-0.414541	-0.134413
H254	H	1.831914	-0.413573	-0.082296
H255	H	1.838907	-0.366755	-0.123450
H256	H	1.735697	-0.366800	-0.079335
H257	H	1.758119	-0.436509	-0.157913
H258	H	1.654991	-0.436502	-0.113764
O259	O	1.318516	-0.599689	-0.301791
C260	C	1.267483	-0.585301	-0.378193
C261	C	1.341437	-0.611068	-0.346592
H262	H	1.286002	-0.594484	-0.414422
H263	H	1.182763	-0.594576	-0.370313
H264	H	1.278981	-0.547737	-0.373237
H265	H	1.330032	-0.648637	-0.351531
H266	H	1.426130	-0.601755	-0.354480
H267	H	1.329351	-0.135529	-0.688809
H268	H	1.640392	-0.959834	-0.164369
O269	O	1.385839	-0.159734	-1.049095
C270	C	1.244059	-0.153689	-1.102071
C271	C	1.317964	-0.185275	-1.076261
H272	H	1.189178	-0.174326	-1.124048
H273	H	1.195986	-0.133164	-1.077266
H274	H	1.292360	-0.130188	-1.124031
H275	H	1.269744	-0.208803	-1.054301
H276	H	1.366040	-0.205768	-1.101091
O277	O	1.385522	-0.476239	-0.273042
C278	C	1.252130	-0.471315	-0.329971
C279	C	1.326054	-0.445516	-0.298365
H280	H	1.204016	-0.446487	-0.350446
H281	H	1.300313	-0.493231	-0.353514
H282	H	1.197280	-0.493332	-0.309324
H283	H	1.380920	-0.423475	-0.318976
H284	H	1.277806	-0.423629	-0.274821
H285	H	1.396521	-1.045004	-0.268539
H286	H	1.329071	-0.688435	-0.297225
H287	H	1.396050	-0.387494	-0.268477
O288	O	1.318697	-0.740380	-0.301778
C289	C	1.304418	-0.687371	-0.362408
C290	C	1.378356	-0.713154	-0.330813
H291	H	1.352622	-0.665345	-0.385883
H292	H	1.256415	-0.712194	-0.382955
H293	H	1.249464	-0.665462	-0.341749
H294	H	1.433374	-0.735063	-0.351437
H295	H	1.426286	-0.688306	-0.310264
H296	H	1.640130	-0.268439	-1.045410
H297	H	1.707260	-0.297218	-0.829593
O298	O	1.650711	-0.273104	-0.476635
C299	C	1.783944	-0.330082	-0.471684
C300	C	1.710079	-0.298457	-0.445900
H301	H	1.831978	-0.350581	-0.446847
H302	H	1.735719	-0.353601	-0.493621
H303	H	1.838872	-0.309449	-0.493679
H304	H	1.655136	-0.319054	-0.423881
H305	H	1.758369	-0.274936	-0.423991
H306	H	1.396490	-0.164290	-0.472988
H307	H	1.329328	-0.135519	-0.744459
