data_functionalizedCrystal
_audit_creation_method	'MofGen! by Chris Wilmer'
_symmetry_space_group_name_H-M	'P1'
_symmetry_Int_Tables_number	1
_symmetry_cell_setting	triclinic
loop_
_symmetry_equiv_pos_as_xyz
  x,y,z
_cell_length_a	19.805407
_cell_length_b	13.897441
_cell_length_c	19.805405
_cell_angle_alpha	89.967806
_cell_angle_beta	90.024042
_cell_angle_gamma	89.978935
loop_
_atom_site_label
_atom_site_type_symbol
_atom_site_fract_x
_atom_site_fract_y
_atom_site_fract_z
Zn1	Zn	1.034756	-0.545379	-0.269490
Zn2	Zn	1.368089	-0.212046	0.063843
Zn3	Zn	1.701423	0.121288	0.397177
Zn4	Zn	1.034664	-0.384076	-0.382689
Zn5	Zn	1.367997	-0.050742	-0.049356
Zn6	Zn	1.701330	0.282591	0.283977
Zn7	Zn	0.921564	-0.384096	-0.269514
Zn8	Zn	1.254897	-0.050763	0.063819
Zn9	Zn	1.588231	0.282570	0.397152
Zn10	Zn	0.921533	-0.545328	-0.382637
Zn11	Zn	1.254867	-0.211994	-0.049304
Zn12	Zn	1.588200	0.121339	0.284030
O13	O	0.978129	-0.464720	-0.326083
O14	O	1.311463	-0.131386	0.007251
O15	O	1.644796	0.201947	0.340584
O16	O	1.129460	-0.523995	-0.284518
O17	O	1.462794	-0.190661	0.048815
O18	O	1.796127	0.142672	0.382149
O19	O	1.019635	-0.249097	-0.367709
O20	O	1.352968	0.084236	-0.034375
O21	O	1.686302	0.417570	0.298958
O22	O	0.936631	-0.405521	-0.174795
O23	O	1.269964	-0.072188	0.158539
O24	O	1.603297	0.261146	0.491872
O25	O	1.129393	-0.405486	-0.367685
O26	O	1.462726	-0.072153	-0.034352
O27	O	1.796059	0.261181	0.298982
O28	O	1.019792	-0.524015	-0.174777
O29	O	1.353126	-0.190681	0.158557
O30	O	1.686459	0.142652	0.491890
O31	O	0.936541	-0.249112	-0.284559
O32	O	1.269875	0.084221	0.048774
O33	O	1.603208	0.417555	0.382107
O34	O	0.826844	-0.405471	-0.284509
O35	O	1.160177	-0.072138	0.048825
O36	O	1.493510	0.261196	0.382158
O37	O	0.936578	-0.680316	-0.367596
O38	O	1.269912	-0.346983	-0.034263
O39	O	1.603245	-0.013649	0.299071
O40	O	0.826821	-0.523927	-0.367620
O41	O	1.160154	-0.190594	-0.034286
O42	O	1.493488	0.142740	0.299047
O43	O	1.019763	-0.680354	-0.284467
O44	O	1.353096	-0.347021	0.048866
O45	O	1.686429	-0.013687	0.382199
O46	O	1.019605	-0.405436	-0.477399
O47	O	1.352939	-0.072103	-0.144066
O48	O	1.686272	0.261231	0.189268
O49	O	0.936489	-0.523907	-0.477361
O50	O	1.269822	-0.190574	-0.144027
O51	O	1.603156	0.142760	0.189306
C52	C	0.802273	-0.464696	-0.326062
C53	C	1.135607	-0.131363	0.007272
C54	C	1.468940	0.201970	0.340605
C55	C	0.727041	-0.464709	-0.326069
C56	C	1.060375	-0.131376	0.007265
C57	C	1.393708	0.201958	0.340598
C58	C	0.691733	-0.526510	-0.282840
C59	C	1.025066	-0.193177	0.050493
C60	C	1.358400	0.140156	0.383826
C61	C	0.621045	-0.526514	-0.282844
C62	C	0.954378	-0.193181	0.050489
C63	C	1.287711	0.140153	0.383823
C64	C	0.585666	-0.464721	-0.326080
C65	C	0.918999	-0.131387	0.007253
C66	C	1.252332	0.201946	0.340587
C67	C	0.620979	-0.402913	-0.369310
C68	C	0.954312	-0.069579	-0.035977
C69	C	1.287646	0.263754	0.297356
C70	C	0.691666	-0.402905	-0.369303
C71	C	1.024999	-0.069571	-0.035969
C72	C	1.358333	0.263762	0.297364
C73	C	0.335906	-0.402942	-0.369341
C74	C	0.669239	-0.069609	-0.036007
C75	C	1.002572	0.263725	0.297326
C76	C	0.265214	-0.402957	-0.369346
C77	C	0.598547	-0.069624	-0.036013
C78	C	0.931880	0.263710	0.297320
C79	C	0.265284	-0.526552	-0.282882
C80	C	0.598618	-0.193218	0.050452
C81	C	0.931951	0.140115	0.383785
C82	C	0.335971	-0.526544	-0.282874
C83	C	0.669305	-0.193210	0.050459
C84	C	1.002638	0.140123	0.383792
C85	C	0.371278	-0.464732	-0.326102
C86	C	0.704612	-0.131399	0.007231
C87	C	1.037945	0.201934	0.340565
C88	C	0.447927	-0.464728	-0.326097
C89	C	0.781260	-0.131395	0.007237
C90	C	1.114593	0.201939	0.340570
C91	C	0.509019	-0.464729	-0.326089
C92	C	0.842352	-0.131396	0.007244
C93	C	1.175685	0.201937	0.340578
C94	C	0.978177	-0.716313	-0.326023
C95	C	1.311511	-0.382979	0.007310
C96	C	1.644844	-0.049646	0.340644
C97	C	0.978198	-0.823527	-0.325997
C98	C	1.311531	-0.490193	0.007336
C99	C	1.644864	-0.156860	0.340669
C100	C	0.978216	-1.019822	-0.325952
C101	C	1.311550	-0.686489	0.007382
C102	C	1.644883	-0.353155	0.340715
C103	C	0.978204	-0.910589	-0.325979
C104	C	1.311537	-0.577256	0.007354
C105	C	1.644871	-0.243923	0.340688
C106	C	1.154672	-0.464744	-0.326105
C107	C	1.488005	-0.131410	0.007229
C108	C	1.821339	0.201923	0.340562
C109	C	1.229904	-0.464754	-0.326114
C110	C	1.563237	-0.131421	0.007220
C111	C	1.896571	0.201913	0.340553
C112	C	0.978052	-0.464685	-0.501939
C113	C	1.311386	-0.131351	-0.168606
C114	C	1.644719	0.201982	0.164728
C115	C	0.978081	-0.464702	-0.577171
C116	C	1.311414	-0.131369	-0.243837
C117	C	1.644748	0.201965	0.089496
C118	C	0.978120	-0.214105	-0.326094
C119	C	1.311454	0.119228	0.007240
C120	C	1.644787	0.452561	0.340573
C121	C	0.978231	-0.106892	-0.325928
C122	C	1.311564	0.226441	0.007405
C123	C	1.644898	0.559775	0.340738
C124	C	1.021358	-0.526450	-0.612447
C125	C	1.354691	-0.193117	-0.279114
C126	C	1.688024	0.140217	0.054219
C127	C	1.021382	-0.526468	-0.683136
C128	C	1.354716	-0.193135	-0.349802
C129	C	1.688049	0.140199	-0.016469
C130	C	0.978133	-0.464732	-0.718546
C131	C	1.311466	-0.131399	-0.385213
C132	C	1.644800	0.201934	-0.051880
C133	C	0.934852	-0.402982	-0.683265
C134	C	1.268185	-0.069648	-0.349931
C135	C	1.601518	0.263685	-0.016598
C136	C	0.934824	-0.402969	-0.612578
C137	C	1.268158	-0.069636	-0.279244
C138	C	1.601491	0.263697	0.054089
C139	C	0.934960	-0.403031	-0.968338
C140	C	1.268294	-0.069698	-0.635005
C141	C	1.601627	0.263636	-0.301671
C142	C	0.934992	-0.403046	-1.039030
C143	C	1.268326	-0.069713	-0.705697
C144	C	1.601659	0.263620	-0.372363
C145	C	1.021518	-0.526530	-1.038896
C146	C	1.354852	-0.193196	-0.705563
C147	C	1.688185	0.140137	-0.372230
C148	C	1.021491	-0.526517	-0.968209
C149	C	1.354824	-0.193184	-0.634876
C150	C	1.688158	0.140149	-0.301542
C151	C	0.978207	-0.464771	-0.932934
C152	C	1.311541	-0.131437	-0.599600
C153	C	1.644874	0.201896	-0.266267
C154	C	0.978180	-0.464753	-0.856285
C155	C	1.311514	-0.131420	-0.522952
C156	C	1.644847	0.201913	-0.189619
C157	C	0.978163	-0.464744	-0.795193
C158	C	1.311496	-0.131411	-0.461860
C159	C	1.644829	0.201922	-0.128527
C160	C	0.978225	-0.464776	-0.149540
C161	C	1.311559	-0.131443	0.183793
C162	C	1.644892	0.201891	0.517127
C163	C	0.978266	-0.464800	-0.074308
C164	C	1.311599	-0.131466	0.259025
C165	C	1.644933	0.201867	0.592359
H166	H	0.236529	-0.576878	-0.247681
H167	H	0.569862	-0.243545	0.085652
H168	H	0.903195	0.089789	0.418985
H169	H	1.056760	-0.576810	-1.067626
H170	H	1.390093	-0.243477	-0.734293
H171	H	1.723426	0.089856	-0.400959
H172	H	1.056711	-0.576785	-0.939380
H173	H	1.390044	-0.243452	-0.606047
H174	H	1.723377	0.089882	-0.272713
H175	H	0.364773	-0.576866	-0.247669
H176	H	0.698107	-0.243532	0.085664
H177	H	1.031440	0.089801	0.418997
H178	H	0.899634	-0.352719	-0.712102
H179	H	1.232968	-0.019386	-0.378768
H180	H	1.566301	0.313947	-0.045435
H181	H	0.899583	-0.352689	-0.583856
H182	H	1.232916	-0.019356	-0.250523
H183	H	1.566250	0.313978	0.082811
H184	H	0.720413	-0.352579	-0.404504
H185	H	1.053746	-0.019246	-0.071170
H186	H	1.387080	0.314088	0.262163
H187	H	0.236410	-0.352634	-0.404556
H188	H	0.569743	-0.019300	-0.071223
H189	H	0.903077	0.314033	0.262111
H190	H	0.899719	-0.352753	-0.939622
H191	H	1.233052	-0.019420	-0.606289
H192	H	1.566385	0.313914	-0.272956
H193	H	0.720534	-0.576832	-0.247634
H194	H	1.053867	-0.243499	0.085699
H195	H	1.387200	0.089834	0.419032
H196	H	0.592300	-0.576841	-0.247644
H197	H	0.925633	-0.243508	0.085689
H198	H	1.258967	0.089826	0.419023
H199	H	0.899770	-0.352772	-1.067859
H200	H	1.233104	-0.019439	-0.734526
H201	H	1.566437	0.313895	-0.401193
H202	H	0.364644	-0.352613	-0.404540
H203	H	0.697977	-0.019279	-0.071207
H204	H	1.031311	0.314054	0.262127
H205	H	1.056628	-0.576742	-0.711855
H206	H	1.389961	-0.243409	-0.378522
H207	H	1.723294	0.089925	-0.045188
H208	H	1.056579	-0.576718	-0.583621
H209	H	1.389913	-0.243385	-0.250287
H210	H	1.723246	0.089949	0.083046
H211	H	0.592168	-0.352595	-0.404511
H212	H	0.925501	-0.019261	-0.071177
H213	H	1.258834	0.314072	0.262156
