data_functionalizedCrystal
_audit_creation_method	'MofGen! by Chris Wilmer'
_symmetry_space_group_name_H-M	'P1'
_symmetry_Int_Tables_number	1
_symmetry_cell_setting	triclinic
loop_
_symmetry_equiv_pos_as_xyz
  x,y,z
_cell_length_a	18.215407
_cell_length_b	12.594516
_cell_length_c	18.215399
_cell_angle_alpha	89.977475
_cell_angle_beta	89.980650
_cell_angle_gamma	90.016501
loop_
_atom_site_label
_atom_site_type_symbol
_atom_site_fract_x
_atom_site_fract_y
_atom_site_fract_z
Zn1	Zn	1.125114	-0.423736	-0.416146
Zn2	Zn	1.458447	-0.090403	-0.082812
Zn3	Zn	1.791780	0.242931	0.250521
Zn4	Zn	1.125042	-0.601735	-0.293092
Zn5	Zn	1.458375	-0.268401	0.040241
Zn6	Zn	1.791709	0.064932	0.373575
Zn7	Zn	1.002047	-0.423772	-0.293093
Zn8	Zn	1.335381	-0.090439	0.040240
Zn9	Zn	1.668714	0.242895	0.373574
Zn10	Zn	1.002031	-0.601674	-0.416117
Zn11	Zn	1.335364	-0.268341	-0.082784
Zn12	Zn	1.668698	0.064993	0.250550
O13	O	1.063558	-0.512729	-0.354612
O14	O	1.396892	-0.179396	-0.021279
O15	O	1.730225	0.153937	0.312055
O16	O	1.228088	-0.447358	-0.399834
O17	O	1.561422	-0.114025	-0.066501
O18	O	1.894755	0.219309	0.266833
O19	O	1.108703	-0.578168	-0.190108
O20	O	1.442037	-0.244835	0.143225
O21	O	1.775370	0.088499	0.476559
O22	O	1.018409	-0.274821	-0.309429
O23	O	1.351742	0.058512	0.023904
O24	O	1.685076	0.391845	0.357238
O25	O	1.228036	-0.578133	-0.309427
O26	O	1.561369	-0.244800	0.023906
O27	O	1.894702	0.088534	0.357240
O28	O	1.108825	-0.274795	-0.399835
O29	O	1.442159	0.058538	-0.066502
O30	O	1.775492	0.391872	0.266832
O31	O	1.018340	-0.447420	-0.190109
O32	O	1.351673	-0.114086	0.143225
O33	O	1.685006	0.219247	0.476558
O34	O	0.899061	-0.447361	-0.309401
O35	O	1.232394	-0.114028	0.023932
O36	O	1.565727	0.219306	0.357266
O37	O	1.018381	-0.578030	-0.519105
O38	O	1.351715	-0.244696	-0.185772
O39	O	1.685048	0.088637	0.147562
O40	O	0.899049	-0.578065	-0.399786
O41	O	1.232382	-0.244732	-0.066453
O42	O	1.565716	0.088602	0.266881
O43	O	1.108810	-0.447299	-0.519126
O44	O	1.442143	-0.113966	-0.185793
O45	O	1.775476	0.219367	0.147540
O46	O	1.108688	-0.750672	-0.309399
O47	O	1.442021	-0.417339	0.023934
O48	O	1.775354	-0.084006	0.357268
O49	O	1.018312	-0.750628	-0.399785
O50	O	1.351645	-0.417295	-0.066452
O51	O	1.684979	-0.083961	0.266882
C52	C	0.872352	-0.512711	-0.354591
C53	C	1.205686	-0.179378	-0.021258
C54	C	1.539019	0.153956	0.312076
C55	C	0.790553	-0.512729	-0.354599
C56	C	1.123887	-0.179396	-0.021266
C57	C	1.457220	0.153938	0.312067
C58	C	0.602372	-0.580893	-0.401604
C59	C	0.935706	-0.247560	-0.068270
C60	C	1.269039	0.085773	0.265063
C61	C	0.525514	-0.580897	-0.401613
C62	C	0.858847	-0.247563	-0.068280
C63	C	1.192180	0.085770	0.265054
C64	C	0.525496	-0.444584	-0.307636
C65	C	0.858830	-0.111251	0.025697
C66	C	1.192163	0.222082	0.359030
C67	C	0.602354	-0.444576	-0.307631
C68	C	0.935687	-0.111243	0.025702
C69	C	1.269021	0.222090	0.359035
C70	C	0.640790	-0.512737	-0.354614
C71	C	0.974123	-0.179404	-0.021281
C72	C	1.307456	0.153930	0.312053
C73	C	0.487074	-0.512748	-0.354628
C74	C	0.820407	-0.179415	-0.021295
C75	C	1.153740	0.153918	0.312039
C76	C	0.403740	-0.512751	-0.354638
C77	C	0.737073	-0.179418	-0.021304
C78	C	1.070407	0.153915	0.312029
C79	C	0.724129	-0.512733	-0.354606
C80	C	1.057462	-0.179399	-0.021272
C81	C	1.390795	0.153934	0.312061
C82	C	1.063510	-0.789270	-0.354605
C83	C	1.396844	-0.455937	-0.021271
C84	C	1.730177	-0.122604	0.312062
C85	C	1.063557	-0.907576	-0.354626
C86	C	1.396890	-0.574242	-0.021293
C87	C	1.730224	-0.240909	0.312040
C88	C	1.014397	-0.976843	-0.403753
C89	C	1.347730	-0.643510	-0.070419
C90	C	1.681064	-0.310177	0.262914
C91	C	0.996468	-1.047703	-0.336600
C92	C	1.329801	-0.714369	-0.003266
C93	C	1.663135	-0.381036	0.330067
C94	C	1.081553	-1.047515	-0.421791
C95	C	1.414886	-0.714182	-0.088457
C96	C	1.748219	-0.380849	0.244876
C97	C	1.045593	-0.976877	-0.287438
C98	C	1.378926	-0.643543	0.045896
C99	C	1.712259	-0.310210	0.379229
C100	C	1.130709	-0.976683	-0.372674
C101	C	1.464042	-0.643350	-0.039341
C102	C	1.797375	-0.310017	0.293993
C103	C	1.112805	-1.047511	-0.305475
C104	C	1.446139	-0.714177	0.027858
C105	C	1.779472	-0.380844	0.361192
C106	C	1.255511	-0.512748	-0.354634
C107	C	1.588845	-0.179415	-0.021300
C108	C	1.922178	0.153918	0.312033
C109	C	1.337310	-0.512756	-0.354643
C110	C	1.670644	-0.179423	-0.021309
C111	C	2.003977	0.153910	0.312024
C112	C	1.063602	-0.512654	-0.546565
C113	C	1.396935	-0.179320	-0.213232
C114	C	1.730268	0.154013	0.120102
C115	C	1.063620	-0.512622	-0.628364
C116	C	1.396953	-0.179288	-0.295031
C117	C	1.730287	0.154045	0.038303
C118	C	1.063627	-0.235108	-0.354635
C119	C	1.396960	0.098225	-0.021302
C120	C	1.730294	0.431558	0.312031
C121	C	1.063656	-0.116803	-0.354645
C122	C	1.396989	0.216530	-0.021312
C123	C	1.730323	0.549864	0.312021
C124	C	1.110733	-0.444458	-0.893434
C125	C	1.444067	-0.111125	-0.560100
C126	C	1.777400	0.222208	-0.226767
C127	C	1.110725	-0.444487	-0.816575
C128	C	1.444058	-0.111154	-0.483242
C129	C	1.777391	0.222179	-0.149908
C130	C	1.016567	-0.580631	-0.816543
C131	C	1.349900	-0.247297	-0.483209
C132	C	1.683233	0.086036	-0.149876
C133	C	1.016580	-0.580606	-0.893400
C134	C	1.349913	-0.247273	-0.560067
C135	C	1.683246	0.086060	-0.226733
C136	C	1.063662	-0.512514	-0.931844
C137	C	1.396995	-0.179181	-0.598510
C138	C	1.730329	0.154152	-0.265177
C139	C	1.063640	-0.512567	-0.778127
C140	C	1.396974	-0.179234	-0.444794
C141	C	1.730307	0.154099	-0.111461
C142	C	1.063630	-0.512599	-0.694794
C143	C	1.396964	-0.179266	-0.361460
C144	C	1.730297	0.154068	-0.028127
C145	C	1.063673	-0.512484	-1.015183
C146	C	1.397006	-0.179150	-0.681849
C147	C	1.730339	0.154183	-0.348516
C148	C	1.063558	-0.512728	-0.163406
C149	C	1.396891	-0.179394	0.169928
C150	C	1.730224	0.153939	0.503261
C151	C	1.063682	-0.512460	-0.081607
C152	C	1.397015	-0.179126	0.251726
C153	C	1.730349	0.154207	0.585059
H154	H	0.972749	-0.945813	-0.445237
H155	H	1.306083	-0.612480	-0.111903
H156	H	1.639416	-0.279146	0.221430
N157	N	1.025392	-0.935960	-0.212188
N158	N	1.358726	-0.602627	0.121146
N159	N	1.692059	-0.269294	0.454479
H160	H	1.062313	-0.962269	-0.175045
H161	H	1.395646	-0.628935	0.158289
H162	H	1.728980	-0.295602	0.491622
H163	H	1.025447	-0.855773	-0.212717
H164	H	1.358780	-0.522440	0.120617
H165	H	1.692113	-0.189107	0.453950
N166	N	0.484076	-0.654415	-0.452289
N167	N	0.817409	-0.321081	-0.118955
N168	N	1.150742	0.012252	0.214378
H169	H	0.497477	-0.637987	-0.504889
H170	H	0.830810	-0.304653	-0.171556
H171	H	1.164143	0.028680	0.161777
H172	H	0.497452	-0.730410	-0.440702
H173	H	0.830786	-0.397077	-0.107369
H174	H	1.164119	-0.063743	0.225965
N175	N	1.101664	-1.088628	-0.497014
N176	N	1.434997	-0.755295	-0.163680
N177	N	1.768330	-0.421962	0.169653
H178	H	1.064455	-1.062923	-0.534072
H179	H	1.397789	-0.729590	-0.200738
H180	H	1.731122	-0.396257	0.132595
H181	H	1.152000	-1.061678	-0.510957
H182	H	1.485334	-0.728345	-0.177624
H183	H	1.818667	-0.395011	0.155710
H184	H	0.494193	-0.389092	-0.269384
H185	H	0.827526	-0.055759	0.063950
H186	H	1.160859	0.277575	0.397283
H187	H	1.149056	-0.389070	-0.785305
H188	H	1.482389	-0.055737	-0.451972
H189	H	1.815722	0.277596	-0.118638
H190	H	0.633634	-0.389069	-0.269367
H191	H	0.966967	-0.055735	0.063967
H192	H	1.300301	0.277598	0.397300
N193	N	1.167934	-1.088358	-0.250399
N194	N	1.501267	-0.755025	0.082934
N195	N	1.834601	-0.421691	0.416267
H196	H	1.154285	-1.062523	-0.199717
H197	H	1.487618	-0.729190	0.133616
H198	H	1.820952	-0.395856	0.466949
H199	H	1.167954	-1.168542	-0.251070
H200	H	1.501287	-0.835209	0.082263
H201	H	1.834620	-0.501875	0.415596
N202	N	1.161523	-0.371033	-0.934897
N203	N	1.494856	-0.037700	-0.601564
N204	N	1.828190	0.295634	-0.268230
H205	H	1.154390	-0.381341	-0.989415
H206	H	1.487723	-0.048008	-0.656081
H207	H	1.821056	0.285326	-0.322748
H208	H	1.150085	-0.295020	-0.921469
H209	H	1.483418	0.038313	-0.588136
H210	H	1.816752	0.371647	-0.254803
N211	N	0.921304	-1.089014	-0.316373
N212	N	1.254637	-0.755681	0.016960
N213	N	1.587971	-0.422348	0.350294
H214	H	0.884165	-1.063313	-0.353501
H215	H	1.217498	-0.729980	-0.020168
H216	H	1.550831	-0.396647	0.313165
H217	H	0.922082	-1.169195	-0.316047
H218	H	1.255415	-0.835862	0.017286
H219	H	1.588748	-0.502529	0.350620
H220	H	1.187438	-0.945468	-0.387956
H221	H	1.520772	-0.612134	-0.054622
H222	H	1.854105	-0.278801	0.278711
N223	N	0.965786	-0.654068	-0.775078
N224	N	1.299119	-0.320734	-0.441745
N225	N	1.632453	0.012599	-0.108412
H226	H	0.972918	-0.643755	-0.720561
H227	H	1.306251	-0.310422	-0.387228
H228	H	1.639584	0.022911	-0.053894
H229	H	0.913232	-0.637497	-0.788507
H230	H	1.246566	-0.304163	-0.455174
H231	H	1.579899	0.029170	-0.121841
N232	N	0.965811	-0.654018	-0.934835
N233	N	1.299145	-0.320685	-0.601501
N234	N	1.632478	0.012649	-0.268168
H235	H	0.935979	-0.697153	-0.898820
H236	H	1.269313	-0.363819	-0.565486
H237	H	1.602646	-0.030486	-0.232153
H238	H	0.931769	-0.610683	-0.966725
H239	H	1.265102	-0.277349	-0.633391
H240	H	1.598436	0.055984	-0.300058
H241	H	0.633665	-0.636391	-0.439862
H242	H	0.966998	-0.303058	-0.106529
H243	H	1.300331	0.030275	0.226805
