data_functionalizedCrystal
_audit_creation_method	'MofGen! by Chris Wilmer'
_symmetry_space_group_name_H-M	'P1'
_symmetry_Int_Tables_number	1
_symmetry_cell_setting	triclinic
loop_
_symmetry_equiv_pos_as_xyz
  x,y,z
_cell_length_a	14.519709
_cell_length_b	14.971486
_cell_length_c	13.448316
_cell_angle_alpha	90.006811
_cell_angle_beta	90.000617
_cell_angle_gamma	83.647137
loop_
_atom_site_label
_atom_site_type_symbol
_atom_site_fract_x
_atom_site_fract_y
_atom_site_fract_z
O1	O	-1.223800	-0.117253	-0.082551
O2	O	-0.955315	-0.131061	-0.082584
O3	O	-1.096754	0.006039	-0.082559
O4	O	-1.082362	-0.254353	-0.082575
O5	O	-1.096736	0.006048	0.082824
O6	O	-0.955297	-0.131052	0.082800
O7	O	-1.223782	-0.117244	0.082833
Cu8	Cu	-1.089538	-0.124147	0.097917
Cu9	Cu	-1.089559	-0.124157	-0.097668
O10	O	-1.082344	-0.254344	0.082809
C11	C	-0.920947	-0.130413	0.000104
C12	C	-0.818567	-0.128485	0.000091
C13	C	-1.096101	0.039369	0.000132
C14	C	-1.094172	0.138667	0.000131
N15	N	-1.089530	-0.124140	0.235482
C16	C	-0.443675	-0.121386	0.000133
C17	C	-0.547982	-0.123357	0.000121
C18	C	-0.631118	-0.124935	0.000111
C19	C	-0.735431	-0.126907	0.000101
C20	C	-0.258151	-0.117892	0.000141
C21	C	-0.360531	-0.119820	0.000139
C22	C	-1.082996	-0.287674	0.000115
C23	C	-1.084925	-0.386972	0.000109
C24	C	-1.177264	0.195845	0.000142
C25	C	-1.175446	0.289146	0.000132
C26	C	-1.090536	0.325266	0.000118
C27	C	-1.007438	0.268080	0.000104
C28	C	-1.009257	0.174781	0.000107
C29	C	-1.003653	0.462545	0.000100
C30	C	-1.001834	0.555850	0.000098
C31	C	-1.169842	0.576909	0.000125
C32	C	-1.171661	0.483610	0.000128
C33	C	-1.088563	0.426431	0.000116
N34	N	-1.089575	-0.124158	-0.235232
C35	C	-1.152179	-0.063457	0.287533
C36	C	-1.152184	-0.063456	0.391636
C37	C	-1.089545	-0.124143	0.443686
C38	C	-1.026890	-0.184829	0.391628
C39	C	-1.026881	-0.184825	0.287526
C40	C	-1.026916	-0.184835	0.608608
C41	C	-1.026926	-0.184841	0.712716
C42	C	-1.152219	-0.063467	0.712718
C43	C	-1.152210	-0.063462	0.608616
C44	C	-1.089556	-0.124149	0.556565
H45	H	-1.246407	0.166444	0.000160
H46	H	-0.935985	0.415991	0.000087
H47	H	-1.243107	0.335698	0.000143
C48	C	-0.957983	-0.251585	0.551354
N49	N	-0.906063	-0.301860	0.508230
C50	C	-1.261251	0.639808	0.000130
N51	N	-1.330098	0.687188	0.000136
C52	C	-1.221137	0.003293	0.769976
N53	N	-1.273045	0.053573	0.813107
C54	C	-0.917850	0.111885	0.000097
N55	N	-0.848999	0.064511	0.000087
C56	C	-1.221116	0.003296	0.551363
N57	N	-1.273015	0.053583	0.508240
H58	H	-0.932692	0.585255	0.000103
C59	C	-0.914036	0.307815	0.000097
N60	N	-0.843683	0.337743	0.000099
H61	H	-1.203190	-0.014042	0.245161
C62	C	-0.958015	-0.251594	0.769969
N63	N	-0.906108	-0.301873	0.813092
C64	C	-1.265066	0.443881	0.000148
N65	N	-1.335421	0.413957	0.000160
C66	C	-0.957970	-0.251588	0.230271
N67	N	-0.906064	-0.301877	0.187147
H68	H	-1.203197	-0.014043	0.434016
H69	H	-0.975884	-0.234239	0.434013
