data_functionalizedCrystal
_audit_creation_method	'MofGen! by Chris Wilmer'
_symmetry_space_group_name_H-M	'P1'
_symmetry_Int_Tables_number	1
_symmetry_cell_setting	triclinic
loop_
_symmetry_equiv_pos_as_xyz
  x,y,z
_cell_length_a	19.121063
_cell_length_b	19.121141
_cell_length_c	16.959447
_cell_angle_alpha	92.456185
_cell_angle_beta	92.406624
_cell_angle_gamma	89.873858
loop_
_atom_site_label
_atom_site_type_symbol
_atom_site_fract_x
_atom_site_fract_y
_atom_site_fract_z
Zn1	Zn	-0.324898	-1.059818	-0.513363
Zn2	Zn	-0.442141	-1.054732	-0.386559
Zn3	Zn	-0.319915	-0.942589	-0.375333
Zn4	Zn	-0.437086	-0.937543	-0.512829
O5	O	-0.381010	-0.998671	-0.447021
O6	O	-0.344651	-1.157248	-0.501464
O7	O	-0.425958	-1.039839	-0.274460
O8	O	-0.222473	-0.962380	-0.389169
O9	O	-0.430789	-1.153511	-0.408302
O10	O	-0.226134	-1.048508	-0.490578
O11	O	-0.336159	-0.957448	-0.266212
O12	O	-0.331258	-0.843815	-0.388651
O13	O	-0.422174	-0.953780	-0.623510
O14	O	-0.417343	-0.840108	-0.489669
O15	O	-0.339749	-1.043615	-0.623903
O16	O	-0.539574	-1.034946	-0.407784
O17	O	-0.535860	-0.948848	-0.500554
C18	C	-0.373211	-0.816524	-0.437884
C19	C	-0.369892	-0.738600	-0.433995
C20	C	-0.413220	-0.700077	-0.484686
C21	C	-0.410092	-0.626859	-0.481035
C22	C	-0.363639	-0.592167	-0.426689
C23	C	-0.320306	-0.630695	-0.375995
C24	C	-0.323431	-0.703912	-0.379651
C25	C	-0.351954	-0.371197	-0.413028
C26	C	-0.348834	-0.297976	-0.409374
C27	C	-0.438619	-0.294145	-0.514415
C28	C	-0.441743	-0.367362	-0.518063
C29	C	-0.398408	-0.405885	-0.467373
C30	C	-0.360442	-0.517327	-0.422954
C31	C	-0.401602	-0.480724	-0.471112
C32	C	-0.563155	-0.990817	-0.455348
C33	C	-0.641080	-0.987521	-0.458939
C34	C	-0.679601	-1.030834	-0.412370
C35	C	-0.752820	-1.027739	-0.415753
C36	C	-0.787516	-0.981326	-0.465701
C37	C	-0.748990	-0.938011	-0.512276
C38	C	-0.675772	-0.941111	-0.508897
C39	C	-1.008489	-0.969727	-0.478322
C40	C	-1.081712	-0.966629	-0.481696
C41	C	-1.085537	-1.056358	-0.385173
C42	C	-1.012318	-1.059450	-0.381795
C43	C	-0.973798	-1.016138	-0.428373
C44	C	-0.862357	-0.978160	-0.469158
C45	C	-0.898958	-1.019309	-0.424919
C46	C	-0.198155	-1.006574	-0.438681
C47	C	-0.120233	-1.009942	-0.435127
C48	C	-0.380953	-0.998702	-0.653188
C49	C	-0.380929	-0.998716	-0.741045
C50	C	-0.388836	-0.181529	-0.456185
C51	C	-0.392162	-0.259452	-0.460065
C52	C	-0.423773	-0.952030	-1.112319
C53	C	-0.337944	-1.045576	-1.112723
C54	C	-0.337958	-1.045556	-1.030177
C55	C	-0.380881	-0.998774	-0.988698
C56	C	-0.423790	-0.952011	-1.029766
C57	C	-0.295055	-1.092324	-0.989103
C58	C	-0.295068	-1.092307	-0.906552
C59	C	-0.337988	-1.045520	-0.865072
C60	C	-0.380898	-0.998754	-0.906144
C61	C	-0.423821	-0.951972	-0.864666
C62	C	-0.466728	-0.905202	-0.905737
C63	C	-0.466710	-0.905224	-0.988285
C64	C	-0.338006	-1.045498	-0.782523
C65	C	-0.423838	-0.951953	-0.782112
C66	C	-0.381018	-0.998682	-0.241656
C67	C	-0.380850	-0.998812	-0.153798
H68	H	-0.322621	-0.489072	-0.378703
H69	H	-0.439420	-0.508974	-0.515364
C70	C	-1.127910	-1.104002	-0.333949
H71	H	-1.176485	-1.095515	-0.343118
H72	H	-1.115517	-1.094282	-0.279766
H73	H	-1.117876	-1.151611	-0.347375
C74	C	-0.275772	-0.746291	-0.323893
H75	H	-0.284281	-0.794864	-0.333858
H76	H	-0.285457	-0.733837	-0.270630
H77	H	-0.228168	-0.736323	-0.332804
H78	H	-0.501679	-0.867115	-0.871954
H79	H	-0.473899	-0.262772	-0.555686
H80	H	-0.984070	-1.097243	-0.341123
C81	C	-0.247835	-1.143771	-1.034728
H82	H	-0.253962	-1.137074	-1.089772
H83	H	-0.260106	-1.190432	-1.024035
H84	H	-0.200296	-1.135531	-1.018534
H85	H	-0.977132	-0.934459	-0.516246
H86	H	-0.651356	-1.068625	-0.371693
C87	C	-0.492837	-0.405520	-0.577849
H88	H	-0.518190	-0.372090	-0.607521
H89	H	-0.524568	-0.432758	-0.550378
H90	H	-0.467270	-0.435245	-0.612542
C91	C	-0.297740	-0.259811	-0.349586
H92	H	-0.302096	-0.210689	-0.354662
H93	H	-0.251158	-0.273834	-0.359680
H94	H	-0.308462	-0.271358	-0.297523
C95	C	-0.464322	-0.738236	-0.544461
H96	H	-0.459985	-0.787358	-0.539374
H97	H	-0.453614	-0.726695	-0.596526
H98	H	-0.510901	-0.724200	-0.534350
H99	H	-1.109960	-0.928843	-0.522384
C100	C	-0.304299	-0.413562	-0.357257
H101	H	-0.276195	-0.382412	-0.324360
H102	H	-0.275001	-0.443452	-0.387571
H103	H	-0.332308	-0.440954	-0.325417
C104	C	-0.900522	-0.927105	-0.524098
H105	H	-0.867097	-0.901752	-0.551354
H106	H	-0.927829	-0.895370	-0.493622
H107	H	-0.930182	-0.952704	-0.561225
H108	H	-0.303002	-1.083668	-1.146500
C109	C	-0.787150	-0.886960	-0.567222
H110	H	-0.753720	-0.861613	-0.594479
H111	H	-0.814453	-0.855219	-0.536749
H112	H	-0.816812	-0.912557	-0.604349
H113	H	-0.458785	-0.913850	-0.748346
H114	H	-0.784181	-1.063009	-0.377830
H115	H	-0.260130	-1.130389	-0.873119
C116	C	-0.290818	-1.096938	-0.737345
H117	H	-0.296977	-1.090230	-0.682241
H118	H	-0.243272	-1.088724	-0.748217
H119	H	-0.303103	-1.143603	-0.753698
C120	C	-0.269211	-0.592535	-0.316213
H121	H	-0.273560	-0.543412	-0.321289
H122	H	-0.222631	-0.606565	-0.326311
H123	H	-0.279931	-0.604080	-0.264149
H124	H	-0.644409	-0.905842	-0.546819
H125	H	-0.870707	-1.057101	-0.384254
C126	C	-0.457796	-0.584485	-0.536749
H127	H	-0.485927	-0.615632	-0.569618
H128	H	-0.429838	-0.557066	-0.568608
H129	H	-0.487076	-0.554620	-0.506375
C130	C	-0.513907	-0.853788	-1.033464
H131	H	-0.507754	-0.860507	-1.088568
H132	H	-0.501636	-0.807123	-1.017116
H133	H	-0.561454	-0.862015	-1.022593
C134	C	-0.470970	-0.900589	-1.157492
H135	H	-0.464817	-0.907301	-1.212597
H136	H	-0.458698	-0.853926	-1.141135
H137	H	-0.518517	-0.908817	-1.146622
