data_functionalizedCrystal
_audit_creation_method	'MofGen! by Chris Wilmer'
_symmetry_space_group_name_H-M	'P1'
_symmetry_Int_Tables_number	1
_symmetry_cell_setting	triclinic
loop_
_symmetry_equiv_pos_as_xyz
  x,y,z
_cell_length_a	14.908795
_cell_length_b	14.908178
_cell_length_c	12.759393
_cell_angle_alpha	86.667587
_cell_angle_beta	86.678446
_cell_angle_gamma	96.402092
loop_
_atom_site_label
_atom_site_type_symbol
_atom_site_fract_x
_atom_site_fract_y
_atom_site_fract_z
Zn1	Zn	1.363093	-0.280584	-0.666918
Zn2	Zn	1.863093	0.219416	-0.166918
Zn3	Zn	1.354256	-0.431993	-0.480453
Zn4	Zn	1.854256	0.068007	0.019547
Zn5	Zn	1.211713	-0.289354	-0.480470
Zn6	Zn	1.711713	0.210646	0.019530
Zn7	Zn	1.202965	-0.440642	-0.645321
Zn8	Zn	1.702965	0.059358	-0.145321
O9	O	1.283007	-0.360643	-0.568290
O10	O	1.783007	0.139357	-0.068290
O11	O	1.488589	-0.293379	-0.651214
O12	O	1.988589	0.206621	-0.151214
O13	O	1.335311	-0.413123	-0.333428
O14	O	1.835311	0.086877	0.166572
O15	O	1.239154	-0.161512	-0.514248
O16	O	1.739154	0.338488	-0.014248
O17	O	1.482097	-0.404618	-0.514219
O18	O	1.982097	0.095382	-0.014219
O19	O	1.350371	-0.155068	-0.651230
O20	O	1.850371	0.344932	-0.151230
O21	O	1.230585	-0.308327	-0.333441
O22	O	1.730585	0.191673	0.166559
O23	O	1.083884	-0.316713	-0.493307
O24	O	1.583884	0.183287	0.006693
O25	O	1.224243	-0.419359	-0.795213
O26	O	1.724243	0.080641	-0.295213
O27	O	1.077456	-0.427863	-0.614422
O28	O	1.577456	0.072137	-0.114422
O29	O	1.341888	-0.301765	-0.811080
O30	O	1.841888	0.198235	-0.311080
O31	O	1.326828	-0.559820	-0.493278
O32	O	1.826828	-0.059820	0.006722
O33	O	1.215674	-0.566174	-0.614406
O34	O	1.715674	-0.066174	-0.114406
C35	C	1.047826	-0.374179	-0.551523
C36	C	1.547826	0.125821	-0.051523
C37	C	0.947214	-0.379991	-0.544374
C38	C	1.447214	0.120009	-0.044374
C39	C	0.802032	-0.446003	-0.462874
C40	C	1.302032	0.053997	0.037126
C41	C	0.896566	-0.440546	-0.469591
C42	C	1.396566	0.059454	0.030409
C43	C	0.903321	-0.324888	-0.612442
C44	C	1.403321	0.175112	-0.112442
C45	C	0.808787	-0.330346	-0.605725
C46	C	1.308787	0.169654	-0.105725
C47	C	0.758146	-0.390907	-0.530940
C48	C	1.258146	0.109093	-0.030940
C49	C	0.663609	-0.396368	-0.524228
C50	C	1.163609	0.103632	-0.024228
C51	C	0.670366	-0.280707	-0.667074
C52	C	1.170366	0.219293	-0.167074
C53	C	0.764900	-0.275249	-0.673791
C54	C	1.264900	0.224751	-0.173791
C55	C	1.269367	-0.595842	-0.551521
C56	C	1.769367	-0.095842	-0.051521
C57	C	1.263615	-0.696456	-0.544388
C58	C	1.763615	-0.196456	-0.044388
C59	C	1.368530	-0.878666	-0.673763
C60	C	1.868530	-0.378666	-0.173763
C61	C	1.363128	-0.973202	-0.667064
C62	C	1.863128	-0.473202	-0.167064
C63	C	1.247407	-0.980066	-0.524299
C64	C	1.747407	-0.480066	-0.024299
C65	C	1.252808	-0.885530	-0.530998
C66	C	1.752808	-0.385530	-0.030998
C67	C	1.313373	-0.834833	-0.605731
C68	C	1.813373	-0.334833	-0.105731
C69	C	1.318778	-0.740296	-0.612423
C70	C	1.818778	-0.240296	-0.112423
C71	C	1.203053	-0.747161	-0.469664
C72	C	1.703053	-0.247161	0.030336
C73	C	1.197651	-0.841697	-0.462966
C74	C	1.697651	-0.341697	0.037034
C75	C	1.519105	-0.347055	-0.585124
C76	C	2.019105	0.152945	-0.085124
C77	C	1.619717	-0.341265	-0.592297
C78	C	2.119717	0.158735	-0.092297
C79	C	1.283075	-0.360548	-0.842335
C80	C	1.783075	0.139452	-0.342335
C81	C	1.283105	-0.360508	-0.959116
C82	C	1.783105	0.139492	-0.459116
C83	C	1.296724	-0.124525	-0.585150
C84	C	1.796724	0.375475	-0.085150
C85	C	1.302570	-0.023905	-0.592334
C86	C	1.802570	0.476095	-0.092334
C87	C	1.344371	-0.299271	-1.022243
C88	C	1.844371	0.200729	-0.522243
C89	C	1.344394	-0.299237	-1.131971
C90	C	1.844394	0.200763	-0.631971
C91	C	1.221882	-0.421685	-1.115435
C92	C	1.721882	0.078315	-0.615435
C93	C	1.221855	-0.421714	-1.005709
C94	C	1.721855	0.078286	-0.505709
C95	C	1.415105	-0.228579	-1.031790
C96	C	1.915105	0.271421	-0.531790
C97	C	1.415128	-0.228545	-1.141518
C98	C	1.915128	0.271455	-0.641518
C99	C	1.282994	-0.360670	-0.295320
C100	C	1.782994	0.139330	0.204680
C101	C	1.283155	-0.360445	-0.178570
C102	C	1.783155	0.139555	0.321430
H103	H	0.806145	-0.225940	-0.734676
H104	H	1.306145	0.274060	-0.234676
H105	H	1.148339	-0.882987	-0.402123
H106	H	1.648339	-0.382987	0.097877
H107	H	1.171963	-0.471576	-0.954315
H108	H	1.671963	0.028424	-0.454315
H109	H	1.158143	-0.711461	-0.414265
H110	H	1.658143	-0.211461	0.085735
H111	H	0.932295	-0.485411	-0.414164
H112	H	1.432295	0.014589	0.085836
H113	H	1.480228	-0.249875	-1.000708
H114	H	1.980228	0.250125	-0.500708
H115	H	1.368095	-0.699019	-0.673272
H116	H	1.868095	-0.199019	-0.173272
H117	H	1.393892	-0.163379	-1.178521
H118	H	1.893892	0.336621	-0.678521
H119	H	1.172013	-0.471515	-1.153385
H120	H	1.672013	0.028485	-0.653385
H121	H	1.400399	-0.159554	-1.005689
H122	H	1.900399	0.340446	-0.505689
H123	H	1.484150	-0.243282	-1.174954
H124	H	1.984150	0.256718	-0.674954
H125	H	0.944570	-0.275578	-0.673323
H126	H	1.444570	0.224422	-0.173323
H127	H	0.760799	-0.495321	-0.401988
H128	H	1.260799	0.004679	0.098012
H129	H	0.622378	-0.445683	-0.463337
H130	H	1.122378	0.054317	0.036663
H131	H	0.634624	-0.235844	-0.722499
H132	H	1.134624	0.264156	-0.222499
H133	H	1.408038	-1.008888	-0.722468
H134	H	1.908038	-0.508888	-0.222468
H135	H	1.198094	-1.021359	-0.463460
H136	H	1.698094	-0.521359	0.036540
H137	H	1.417850	-0.837388	-0.734606
H138	H	1.917850	-0.337388	-0.234606
