data_functionalizedCrystal
_audit_creation_method	'MofGen! by Chris Wilmer'
_symmetry_space_group_name_H-M	'P1'
_symmetry_Int_Tables_number	1
_symmetry_cell_setting	triclinic
loop_
_symmetry_equiv_pos_as_xyz
  x,y,z
_cell_length_a	11.792254
_cell_length_b	11.792254
_cell_length_c	12.503572
_cell_angle_alpha	93.547393
_cell_angle_beta	86.456155
_cell_angle_gamma	84.198598
loop_
_atom_site_label
_atom_site_type_symbol
_atom_site_fract_x
_atom_site_fract_y
_atom_site_fract_z
O1	O	-1.513414	-0.149108	0.089352
O2	O	-1.013414	0.350892	0.589352
O3	O	-1.183075	-0.165126	0.089347
O4	O	-0.683075	0.334874	0.589347
O5	O	-1.356253	0.008052	0.089342
O6	O	-0.856253	0.508052	0.589342
O7	O	-1.340236	-0.322285	0.089357
O8	O	-0.840236	0.177715	0.589357
O9	O	-1.343229	-0.004994	-0.089300
O10	O	-0.843229	0.495006	0.410700
O11	O	-1.170051	-0.178171	-0.089294
O12	O	-0.670051	0.321829	0.410706
O13	O	-1.500390	-0.162153	-0.089290
O14	O	-1.000390	0.337847	0.410710
Cu15	Cu	-1.334031	-0.171354	-0.105604
Cu16	Cu	-0.834031	0.328646	0.394396
Cu17	Cu	-1.349434	-0.155925	0.105661
Cu18	Cu	-0.849434	0.344075	0.605661
O19	O	-1.327212	-0.335331	-0.089285
O20	O	-0.827212	0.164669	0.410715
C21	C	-1.134272	-0.170640	0.000026
C22	C	-0.634272	0.329360	0.500026
C23	C	-1.008259	-0.167620	0.000024
C24	C	-0.508259	0.332380	0.500024
C25	C	-0.905923	-0.165166	0.000026
C26	C	-0.405923	0.334834	0.500026
C27	C	-0.777536	-0.162097	0.000024
C28	C	-0.277536	0.337903	0.500024
N29	N	-1.323207	-0.182204	-0.254196
N30	N	-0.823207	0.317796	0.245804
C31	C	-1.348732	0.043820	0.000021
C32	C	-0.848732	0.543820	0.500021
C33	C	-1.345712	0.169833	0.000022
C34	C	-0.845712	0.669833	0.500022
C35	C	-0.549193	-0.156640	0.000029
C36	C	-0.049193	0.343360	0.500029
C37	C	-0.675205	-0.159660	0.000022
C38	C	-0.175205	0.340340	0.500022
C39	C	-1.334733	-0.371099	0.000038
C40	C	-0.834733	0.128901	0.500038
C41	C	-1.337754	-0.497111	0.000044
C42	C	-0.837754	0.002889	0.500044
C43	C	-1.343258	0.272170	0.000026
C44	C	-0.843258	0.772170	0.500026
C45	C	-1.340191	0.400558	0.000036
C46	C	-0.840191	0.900558	0.500036
C47	C	-1.307283	-0.198175	-0.473310
C48	C	-0.807283	0.301825	0.026690
C49	C	-1.376187	-0.129098	-0.526640
C50	C	-0.876187	0.370902	-0.026640
C51	C	-1.367327	-0.137985	-0.648562
C52	C	-0.867327	0.362015	-0.148562
C53	C	-1.316142	-0.189290	-0.351376
C54	C	-0.816142	0.310710	0.148624
N55	N	-1.360267	-0.145066	0.254253
N56	N	-0.860267	0.354934	0.754253
H57	H	-1.441833	-0.063287	-0.480729
H58	H	-0.941833	0.436713	0.019271
Cl59	Cl	-1.205940	-0.299784	-0.544187
Cl60	Cl	-0.705940	0.200216	-0.044187
