data_functionalizedCrystal
_audit_creation_method	'MofGen! by Chris Wilmer'
_symmetry_space_group_name_H-M	'P1'
_symmetry_Int_Tables_number	1
_symmetry_cell_setting	triclinic
loop_
_symmetry_equiv_pos_as_xyz
  x,y,z
_cell_length_a	27.732048
_cell_length_b	14.853567
_cell_length_c	13.330367
_cell_angle_alpha	90.008763
_cell_angle_beta	89.998669
_cell_angle_gamma	83.138792
loop_
_atom_site_label
_atom_site_type_symbol
_atom_site_fract_x
_atom_site_fract_y
_atom_site_fract_z
O1	O	-0.641431	-0.107257	0.083287
O2	O	-0.500714	-0.123567	0.083316
O3	O	-0.574831	0.015879	0.083303
O4	O	-0.567314	-0.246703	0.083299
O5	O	-0.574820	0.015857	-0.083544
O6	O	-0.500703	-0.123590	-0.083531
O7	O	-0.641420	-0.107279	-0.083560
Cu8	Cu	-0.571060	-0.115436	-0.098780
Cu9	Cu	-0.571074	-0.115410	0.098536
O10	O	-0.567303	-0.246725	-0.083548
C11	C	-0.482700	-0.123236	-0.000104
C12	C	-0.429040	-0.122205	-0.000092
C13	C	-0.574485	0.049451	-0.000117
C14	C	-0.573464	0.149518	-0.000108
C15	C	-0.659434	-0.107610	-0.000139
C16	C	-0.713094	-0.108641	-0.000143
C17	C	-0.090580	-0.198118	-0.000137
C18	C	0.111097	-0.194293	-0.000146
O19	O	0.142028	-0.263710	-0.000191
N20	N	0.130608	-0.111607	-0.000143
C21	C	0.099695	-0.029872	-0.000144
O22	O	0.120918	0.040545	-0.000152
C23	C	-0.101981	-0.033698	-0.000142
C24	C	-0.121489	-0.116389	-0.000135
C25	C	-0.110088	-0.280803	-0.000131
C26	C	-0.160504	-0.281758	-0.000124
C27	C	-0.191413	-0.200029	-0.000122
C28	C	-0.171905	-0.117345	-0.000128
C29	C	-0.132893	0.048036	-0.000151
C30	C	-0.183314	0.047073	-0.000153
C31	C	-0.202822	-0.035619	-0.000146
C32	C	-0.253230	-0.036571	-0.000118
N33	N	-0.272740	-0.119257	-0.000121
C34	C	-0.241832	-0.200986	-0.000123
C35	C	0.205579	-0.027869	-0.000143
C36	C	0.255998	-0.026912	-0.000142
C37	C	0.267396	-0.191334	-0.000146
C38	C	0.216976	-0.192290	-0.000140
C39	C	0.186068	-0.110555	-0.000146
C40	C	-0.347710	-0.202986	-0.000106
C41	C	-0.398132	-0.203934	-0.000094
C42	C	-0.409526	-0.039513	-0.000096
C43	C	-0.359109	-0.038564	-0.000102
C44	C	-0.328202	-0.120308	-0.000111
O45	O	-0.284189	0.032809	-0.000085
O46	O	-0.263064	-0.271393	-0.000138
C47	C	-0.040164	-0.197163	-0.000145
C48	C	-0.020656	-0.114478	-0.000151
C49	C	-0.051564	-0.032749	-0.000149
C50	C	0.029763	-0.113522	-0.000149
C51	C	0.060672	-0.195251	-0.000151
C52	C	0.041161	-0.277936	-0.000154
C53	C	-0.009255	-0.278892	-0.000147
C54	C	-0.032054	0.049937	-0.000146
C55	C	0.018363	0.050885	-0.000152
C56	C	0.049272	-0.030844	-0.000154
C57	C	-0.567649	-0.280297	-0.000125
C58	C	-0.568670	-0.380364	-0.000128
N59	N	-0.571054	-0.115454	-0.237562
C60	C	-0.525122	0.561265	-0.000117
C61	C	-0.613175	0.583979	-0.000135
C62	C	-0.614135	0.489961	-0.000130
C63	C	-0.570588	0.431590	-0.000119
C64	C	-0.526081	0.467238	-0.000115
C65	C	-0.658641	0.454306	-0.000145
C66	C	-0.659603	0.360282	-0.000140
C67	C	-0.616055	0.301910	-0.000122
C68	C	-0.571546	0.337563	-0.000117
C69	C	-0.527999	0.279193	-0.000106
C70	C	-0.483489	0.314844	-0.000093
C71	C	-0.482533	0.408866	-0.000097
C72	C	-0.617012	0.207888	-0.000119
C73	C	-0.528957	0.185166	-0.000103
C74	C	-0.600431	-0.169696	-0.710182
C75	C	-0.541731	-0.061088	-0.710156
C76	C	-0.541724	-0.061102	-0.605138
C77	C	-0.571071	-0.115413	-0.552636
C78	C	-0.600426	-0.169709	-0.605154
C79	C	-0.512374	-0.006799	-0.552613
C80	C	-0.512366	-0.006810	-0.447588
C81	C	-0.541711	-0.061127	-0.395085
C82	C	-0.571066	-0.115426	-0.447608
C83	C	-0.600414	-0.169737	-0.395107
C84	C	-0.629766	-0.224042	-0.447629
C85	C	-0.629771	-0.224026	-0.552650
C86	C	-0.541707	-0.061143	-0.290063
C87	C	-0.600409	-0.169751	-0.290079
N88	N	-0.571083	-0.115385	0.237317
H89	H	-0.414012	-0.271274	-0.000088
H90	H	-0.648630	0.631509	-0.000152
H91	H	-0.488884	0.590297	-0.000103
H92	H	0.180417	0.038693	-0.000148
H93	H	-0.624328	-0.213912	-0.752949
H94	H	-0.493495	0.137646	-0.000091
H95	H	-0.057215	0.116492	-0.000147
H96	H	-0.624305	-0.213983	-0.247340
H97	H	-0.517841	-0.016864	-0.752909
H98	H	-0.694095	0.501837	-0.000162
H99	H	-0.176382	-0.349094	-0.000118
H100	H	0.201097	-0.259624	-0.000140
H101	H	-0.488485	0.037426	-0.595367
H102	H	0.271876	0.040423	-0.000132
H103	H	-0.653663	-0.268258	-0.404869
H104	H	0.034241	0.118227	-0.000150
H105	H	-0.653669	-0.268236	-0.595423
H106	H	-0.025133	-0.346227	-0.000142
H107	H	-0.448033	0.267307	-0.000092
H108	H	-0.446296	0.437903	-0.000087
H109	H	-0.434700	0.027028	-0.000090
H110	H	-0.343225	0.028769	-0.000093
H111	H	-0.695845	0.331263	-0.000149
H112	H	-0.653251	0.178865	-0.000136
H113	H	-0.488465	0.037408	-0.404833
H114	H	-0.517810	-0.016926	-0.247305
H115	H	-0.322551	-0.269550	-0.000116
H116	H	0.292571	-0.257881	-0.000147
H117	H	-0.084927	-0.347360	-0.000137
H118	H	-0.117019	0.115372	-0.000157
H119	H	0.066336	-0.344483	-0.000152
H120	H	-0.208478	0.113633	-0.000159
