data_functionalizedCrystal
_audit_creation_method	'MofGen! by Chris Wilmer'
_symmetry_space_group_name_H-M	'P1'
_symmetry_Int_Tables_number	1
_symmetry_cell_setting	triclinic
loop_
_symmetry_equiv_pos_as_xyz
  x,y,z
_cell_length_a	15.297979
_cell_length_b	21.295417
_cell_length_c	15.298159
_cell_angle_alpha	80.344254
_cell_angle_beta	91.635470
_cell_angle_gamma	99.689778
loop_
_atom_site_label
_atom_site_type_symbol
_atom_site_fract_x
_atom_site_fract_y
_atom_site_fract_z
Zn1	Zn	1.253182	-0.187439	0.727313
Zn2	Zn	1.753182	0.312561	1.227313
Zn3	Zn	1.278465	-0.271945	0.580835
Zn4	Zn	1.778465	0.228055	1.080835
Zn5	Zn	1.132103	-0.181280	0.555487
Zn6	Zn	1.632103	0.318720	1.055487
Zn7	Zn	1.106658	-0.307266	0.701846
Zn8	Zn	1.606658	0.192734	1.201846
O9	O	1.192602	-0.236983	0.641370
O10	O	1.692602	0.263017	1.141370
O11	O	1.379110	-0.186445	0.729149
O12	O	1.879110	0.313555	1.229149
O13	O	1.280279	-0.242558	0.454920
O14	O	1.780279	0.257442	0.954920
O15	O	1.148233	-0.094005	0.578329
O16	O	1.648233	0.405995	1.078329
O17	O	1.397685	-0.248531	0.621532
O18	O	1.897685	0.251469	1.121532
O19	O	1.237189	-0.098531	0.704569
O20	O	1.737189	0.401469	1.204569
O21	O	1.172748	-0.175947	0.436296
O22	O	1.672748	0.324053	0.936296
O23	O	1.006154	-0.210197	0.553635
O24	O	1.506154	0.289803	1.053635
O25	O	1.104865	-0.308731	0.827778
O26	O	1.604865	0.191269	1.327778
O27	O	0.987459	-0.302759	0.661165
O28	O	1.487459	0.197241	1.161165
O29	O	1.212516	-0.220694	0.846488
O30	O	1.712516	0.279306	1.346488
O31	O	1.255606	-0.364722	0.596838
O32	O	1.755606	0.135278	1.096838
O33	O	1.129380	-0.390673	0.685744
O34	O	1.629380	0.109327	1.185744
C35	C	0.965024	-0.259643	0.601886
C36	C	1.465024	0.240357	1.101886
C37	C	0.867662	-0.269355	0.585016
C38	C	1.367662	0.230645	1.085016
C39	C	0.831607	-0.306166	0.520970
C40	C	1.331607	0.193834	1.020970
C41	C	0.740129	-0.315293	0.505124
C42	C	1.240129	0.184707	1.005124
C43	C	0.684699	-0.287606	0.553316
C44	C	1.184699	0.212394	1.053316
C45	C	0.720755	-0.250790	0.617359
C46	C	1.220755	0.249210	1.117359
C47	C	0.812241	-0.241666	0.633212
C48	C	1.312241	0.258334	1.133212
C49	C	0.665333	-0.223106	0.665558
C50	C	1.165333	0.276894	1.165558
C51	C	0.701390	-0.186290	0.729600
C52	C	1.201390	0.313710	1.229600
C53	C	0.792866	-0.177167	0.745449
C54	C	1.292866	0.322833	1.245449
C55	C	0.848296	-0.204855	0.697257
C56	C	1.348296	0.295145	1.197257
C57	C	0.573848	-0.232230	0.649705
C58	C	1.073848	0.267770	1.149705
C59	C	0.554482	-0.167730	0.761946
C60	C	1.054482	0.332270	1.261946
C61	C	0.645960	-0.158603	0.777792
C62	C	1.145960	0.341397	1.277792
C63	C	1.192496	-0.400539	0.641302
C64	C	1.692496	0.099461	1.141302
C65	C	1.192525	-0.470505	0.641316
C66	C	1.692525	0.029495	1.141316
C67	C	1.258291	-0.489842	0.595088
C68	C	1.758291	0.010158	1.095088
C69	C	1.258328	-0.555583	0.595115
C70	C	1.758328	-0.055583	1.095115
C71	C	1.192586	-0.601985	0.641358
C72	C	1.692586	-0.101985	1.141358
C73	C	1.126815	-0.582643	0.687595
C74	C	1.626815	-0.082643	1.187595
C75	C	1.126784	-0.516903	0.687574
C76	C	1.626784	-0.016903	1.187574
N77	N	1.114803	-0.713832	0.634739
N78	N	1.614803	-0.213832	1.134739
N79	N	1.114836	-0.776281	0.634755
N80	N	1.614836	-0.276281	1.134755
C81	C	1.192676	-0.800057	0.641425
C82	C	1.692676	-0.300057	1.141425
N83	N	1.270487	-0.759022	0.648062
N84	N	1.770487	-0.259022	1.148062
N85	N	1.270454	-0.696567	0.648042
N86	N	1.770454	-0.196567	1.148042
C87	C	1.192612	-0.673271	0.641386
C88	C	1.692612	-0.173271	1.141386
C89	C	1.258487	-0.890677	0.595224
C90	C	1.758487	-0.390677	1.095224
C91	C	1.258525	-0.956420	0.595258
C92	C	1.758525	-0.456420	1.095258
C93	C	1.127005	-0.983479	0.687731
C94	C	1.627005	-0.483479	1.187731
C95	C	1.126974	-0.917737	0.687704
C96	C	1.626974	-0.417737	1.187704
C97	C	1.192715	-0.871339	0.641446
C98	C	1.692715	-0.371339	1.141446
C99	C	1.421068	-0.214235	0.681009
C100	C	1.921068	0.285765	1.181009
C101	C	1.518427	-0.204541	0.697901
C102	C	2.018427	0.295459	1.197901
C103	C	1.153032	-0.269340	0.869798
C104	C	1.653032	0.230660	1.369798
C105	C	1.136169	-0.283128	0.967140
C106	C	1.636169	0.216872	1.467140
C107	C	1.192729	-0.072788	0.641462
C108	C	1.692729	0.427212	1.141462
C109	C	1.192784	-0.002818	0.641501
C110	C	1.692784	0.497182	1.141501
C111	C	1.312836	-0.138657	1.280499
C112	C	1.812836	0.361343	1.780499
C113	C	1.328685	-0.125702	1.189042
C114	C	1.828685	0.374298	1.689042
C115	C	1.280557	-0.165057	1.133562
C116	C	1.780557	0.334943	1.633562
C117	C	1.216578	-0.217370	1.169548
C118	C	1.716578	0.282630	1.669548
C119	C	1.200733	-0.230329	1.261015
C120	C	1.700733	0.269671	1.761015
C121	C	1.168454	-0.256729	1.114078
C122	C	1.668454	0.243271	1.614078
C123	C	1.104475	-0.309042	1.150064
C124	C	1.604475	0.190958	1.650064
C125	C	1.088632	-0.321998	1.241522
C126	C	1.588632	0.178002	1.741522
C127	C	1.136760	-0.282643	1.297002
C128	C	1.636760	0.217357	1.797002
C129	C	1.184299	-0.243770	1.022611
C130	C	1.684299	0.256230	1.522611
C131	C	1.072196	-0.335442	1.003127
C132	C	1.572196	0.164558	1.503127
C133	C	1.056347	-0.348397	1.094584
C134	C	1.556347	0.151603	1.594584
C135	C	1.232009	-0.204765	1.413830
C136	C	1.732009	0.295235	1.913830
C137	C	1.248863	-0.190971	1.316486
C138	C	1.748863	0.309029	1.816486
H139	H	0.675330	-0.128627	0.829937
H140	H	1.175330	0.371373	1.329937
H141	H	1.236391	-0.201177	0.993321
H142	H	1.736391	0.298823	1.493321
N143	N	1.056035	-0.896876	0.737556
N144	N	1.556035	-0.396876	1.237556
H145	H	1.014391	-0.936245	0.766854
H146	H	1.514391	-0.436245	1.266854
H147	H	1.021699	-0.868620	0.694835
H148	H	1.521699	-0.368620	1.194835
N149	N	1.055907	-0.632691	0.737464
N150	N	1.555907	-0.132691	1.237464
H151	H	0.995694	-0.625593	0.712952
H152	H	1.495694	-0.125593	1.212952
H153	H	1.058691	-0.628715	0.802387
H154	H	1.558691	-0.128715	1.302387
N155	N	0.946966	-0.195006	0.714338
N156	N	1.446966	0.304994	1.214338
H157	H	0.971782	-0.147339	0.702168
H158	H	1.471782	0.352661	1.202168
H159	H	0.976528	-0.218164	0.674074
H160	H	1.476528	0.281836	1.174074
H161	H	1.311822	-0.452066	0.557425
H162	H	1.811822	0.047934	1.057425
H163	H	1.312020	-0.852898	0.557561
H164	H	1.812020	-0.352898	1.057561
H165	H	0.710779	-0.345269	0.452981
H166	H	1.210779	0.154731	0.952981
N167	N	0.494699	-0.137860	0.813916
N168	N	0.994699	0.362140	1.313916
H169	H	0.512980	-0.089368	0.803193
H170	H	1.012980	0.410632	1.303193
H171	H	0.499805	-0.155025	0.879206
H172	H	0.999805	0.344975	1.379206
N173	N	1.329264	-0.576449	0.545256
N174	N	1.829264	-0.076449	1.045256
H175	H	1.370906	-0.537081	0.515950
H176	H	1.870906	-0.037081	1.015950
H177	H	1.300673	-0.601566	0.498530
H178	H	1.800673	-0.101566	0.998530
H179	H	1.123859	-0.293188	1.371474
H180	H	1.623859	0.206812	1.871474
N181	N	1.297647	-0.151088	1.034919
N182	N	1.797647	0.348912	1.534919
H183	H	1.345479	-0.111976	1.020540
H184	H	1.845479	0.388024	1.520540
H185	H	1.241344	-0.142406	1.002536
H186	H	1.741344	0.357594	1.502536
H187	H	1.380779	-0.083110	1.159749
H188	H	1.880779	0.416890	1.659749
N189	N	0.987350	-0.404818	1.133417
N190	N	1.487350	0.095182	1.633417
H191	H	1.003669	-0.446190	1.119841
H192	H	1.503669	0.053810	1.619841
H193	H	0.927556	-0.398958	1.106638
H194	H	1.427556	0.101042	1.606638
N195	N	1.019632	-0.378424	1.280333
N196	N	1.519632	0.121576	1.780333
H197	H	0.972489	-0.362259	1.311255
H198	H	1.472489	0.137741	1.811255
H199	H	1.048704	-0.409407	1.324397
H200	H	1.548704	0.090593	1.824397
N201	N	1.055847	-0.496043	0.737434
N202	N	1.555847	0.003957	1.237434
H203	H	1.014205	-0.535412	0.766736
H204	H	1.514205	-0.035412	1.266736
H205	H	1.021509	-0.467788	0.694712
H206	H	1.521509	0.032212	1.194712
H207	H	0.610215	-0.295039	0.540410
H208	H	1.110215	0.204961	1.040410
H209	H	1.073480	-1.021260	0.725387
H210	H	1.573480	-0.521260	1.225387
H211	H	0.822219	-0.147196	0.797605
H212	H	1.322219	0.352804	1.297605
H213	H	1.312085	-0.972161	0.557616
H214	H	1.812085	-0.472161	1.057616
H215	H	1.352020	-0.106622	1.325679
H216	H	1.852020	0.393378	1.825679
N217	N	0.534958	-0.271931	0.580633
N218	N	1.034958	0.228069	1.080633
H219	H	0.548520	-0.317248	0.596870
H220	H	1.048520	0.182752	1.096870
H221	H	0.561722	-0.251583	0.520870
H222	H	1.061722	0.248417	1.020870
N223	N	1.020285	-0.377897	0.943300
N224	N	1.520285	0.122103	1.443300
H225	H	1.040028	-0.361749	0.879899
H226	H	1.540028	0.138251	1.379899
H227	H	0.954965	-0.376594	0.948438
H228	H	1.454965	0.123406	1.448438
H229	H	0.876744	-0.328709	0.481743
H230	H	1.376744	0.171291	0.981743
