data_functionalizedCrystal
_audit_creation_method	'MofGen! by Chris Wilmer'
_symmetry_space_group_name_H-M	'P1'
_symmetry_Int_Tables_number	1
_symmetry_cell_setting	triclinic
loop_
_symmetry_equiv_pos_as_xyz
  x,y,z
_cell_length_a	16.109301
_cell_length_b	16.109318
_cell_length_c	14.586319
_cell_angle_alpha	90.000075
_cell_angle_beta	89.994786
_cell_angle_gamma	83.465022
loop_
_atom_site_label
_atom_site_type_symbol
_atom_site_fract_x
_atom_site_fract_y
_atom_site_fract_z
O1	O	0.106935	1.103122	-0.076167
O2	O	0.440268	1.436455	0.257166
O3	O	0.773601	1.769788	0.590500
O4	O	0.120219	0.861062	-0.076186
O5	O	0.453552	1.194395	0.257147
O6	O	0.786886	1.527728	0.590481
O7	O	-0.007454	0.988741	-0.076167
O8	O	0.325880	1.322075	0.257167
O9	O	0.659213	1.655408	0.590500
O10	O	0.234607	0.975442	-0.076186
O11	O	0.567941	1.308776	0.257147
O12	O	0.901274	1.642109	0.590480
O13	O	-0.007456	0.988733	0.076314
O14	O	0.325878	1.322066	0.409648
O15	O	0.659211	1.655399	0.742981
O16	O	0.120217	0.861053	0.076295
O17	O	0.453550	1.194386	0.409628
O18	O	0.786884	1.527720	0.742962
O19	O	0.106933	1.103113	0.076314
O20	O	0.440266	1.436446	0.409647
O21	O	0.773599	1.769780	0.742980
Cu22	Cu	0.113575	0.982082	0.090227
Cu23	Cu	0.446908	1.315415	0.423560
Cu24	Cu	0.780241	1.648749	0.756894
Cu25	Cu	0.113577	0.982093	-0.090099
Cu26	Cu	0.446910	1.315426	0.243234
Cu27	Cu	0.780244	1.648759	0.576567
O28	O	0.234606	0.975433	0.076294
O29	O	0.567939	1.308767	0.409628
O30	O	0.901272	1.642100	0.742961
C31	C	0.119677	0.830083	0.000052
C32	C	0.453011	1.163416	0.333385
C33	C	0.786344	1.496749	0.666719
C34	C	0.118057	0.737788	0.000045
C35	C	0.451390	1.071122	0.333379
C36	C	0.784723	1.404455	0.666712
C37	C	0.112823	0.438719	-0.083055
C38	C	0.446156	0.772053	0.250278
C39	C	0.779489	1.105386	0.583611
C40	C	0.114340	0.525441	-0.083061
C41	C	0.447673	0.858774	0.250272
C42	C	0.781007	1.192107	0.583605
C43	C	0.114327	0.525450	0.083182
C44	C	0.447660	0.858783	0.416515
C45	C	0.780993	1.192116	0.749848
C46	C	0.112803	0.438731	0.083187
C47	C	0.446137	0.772064	0.416520
C48	C	0.779470	1.105397	0.749853
C49	C	0.112056	0.395367	0.000065
C50	C	0.445389	0.728701	0.333399
C51	C	0.778722	1.062034	0.666732
C52	C	0.115096	0.568807	0.000055
C53	C	0.448430	0.902141	0.333388
C54	C	0.781763	1.235474	0.666721
C55	C	0.116742	0.662835	0.000049
C56	C	0.450075	0.996168	0.333382
C57	C	0.783408	1.329501	0.666716
C58	C	0.110409	0.301334	0.000070
C59	C	0.443742	0.634668	0.333404
C60	C	0.777075	0.968001	0.666737
C61	C	-0.038430	0.988198	0.000074
C62	C	0.294904	1.321532	0.333408
C63	C	0.628237	1.654865	0.666741
C64	C	-0.130725	0.986583	0.000075
C65	C	0.202608	1.319916	0.333409
C66	C	0.535942	1.653250	0.666742
C67	C	-0.352993	1.058590	0.000067
C68	C	-0.019660	1.391924	0.333400
C69	C	0.313674	1.725257	0.666733
C70	C	-0.439713	1.057066	0.000059
C71	C	-0.106380	1.390400	0.333392
C72	C	0.226953	1.723733	0.666726
C73	C	-0.419848	0.905579	0.000051
C74	C	-0.086515	1.238912	0.333384
C75	C	0.246818	1.572245	0.666717
C76	C	-0.333130	0.907104	0.000052
C77	C	0.000204	1.240437	0.333385
C78	C	0.333537	1.573770	0.666718
C79	C	-0.299704	0.983612	0.000064
C80	C	0.033629	1.316945	0.333398
C81	C	0.366962	1.650279	0.666731
C82	C	-0.473144	0.980563	0.000056
C83	C	-0.139810	1.313896	0.333389
C84	C	0.193523	1.647230	0.666722
C85	C	-0.567170	0.978910	0.000047
C86	C	-0.233837	1.312243	0.333381
C87	C	0.099497	1.645577	0.666714
C88	C	-0.205672	0.985265	0.000071
C89	C	0.127661	1.318599	0.333404
C90	C	0.460994	1.651932	0.666738
C91	C	0.265581	0.975976	0.000052
C92	C	0.598915	1.309310	0.333385
C93	C	0.932248	1.642643	0.666718
C94	C	0.357877	0.977592	0.000044
C95	C	0.691210	1.310925	0.333378
C96	C	1.024543	1.644258	0.666711
C97	C	0.107474	1.134092	0.000074
C98	C	0.440808	1.467425	0.333407
C99	C	0.774141	1.800759	0.666740
C100	C	0.109095	1.226387	0.000075
C101	C	0.442429	1.559720	0.333408
C102	C	0.775762	1.893053	0.666741
N103	N	0.113573	0.982081	0.217059
N104	N	0.446906	1.315414	0.550392
N105	N	0.780239	1.648747	0.883725
N106	N	0.113573	0.982100	-0.216931
N107	N	0.446906	1.315434	0.116402
N108	N	0.780239	1.648767	0.449736
C109	C	0.057058	1.038636	0.452074
C110	C	0.390391	1.371969	0.785407
C111	C	0.723725	1.705303	1.118740
C112	C	0.057056	1.038638	0.548055
C113	C	0.390389	1.371972	0.881388
C114	C	0.723723	1.705305	1.214722
C115	C	0.170090	0.925539	0.548047
C116	C	0.503423	1.258873	0.881381
C117	C	0.836756	1.592206	1.214714
C118	C	0.170087	0.925534	0.452068
C119	C	0.503420	1.258867	0.785401
C120	C	0.836754	1.592200	1.118735
C121	C	0.113572	0.982087	0.404084
C122	C	0.446906	1.315420	0.737417
C123	C	0.780239	1.648753	1.070750
C124	C	0.113573	0.982095	0.596044
C125	C	0.446906	1.315428	0.929378
C126	C	0.780240	1.648761	1.262711
C127	C	0.113571	0.982097	0.700111
C128	C	0.446904	1.315430	1.033445
C129	C	0.780238	1.648764	1.366778
C130	C	0.113573	0.982084	0.300010
C131	C	0.446906	1.315417	0.633343
C132	C	0.780239	1.648750	0.966676
H133	H	0.114937	0.560767	0.150856
H134	H	0.448270	0.894100	0.484189
H135	H	0.781604	1.227433	0.817523
Br136	Br	-0.019642	1.115385	0.386956
Br137	Br	0.313691	1.448718	0.720289
Br138	Br	0.647025	1.782051	1.053622
Br139	Br	-0.465217	0.801751	0.000031
Br140	Br	-0.131884	1.135084	0.333364
Br141	Br	0.201450	1.468418	0.666697
H142	H	0.112178	0.403433	0.150877
H143	H	0.445511	0.736766	0.484211
H144	H	0.778844	1.070099	0.817544
Br145	Br	-0.019648	1.115383	0.613183
Br146	Br	0.313685	1.448716	0.946516
Br147	Br	0.647018	1.782050	1.279850
Br148	Br	0.246787	0.848793	0.613172
Br149	Br	0.580121	1.182126	0.946505
Br150	Br	0.913454	1.515460	1.279839
Br151	Br	0.246784	0.848776	0.386931
Br152	Br	0.580117	1.182110	0.720264
Br153	Br	0.913450	1.515443	1.053597
H154	H	0.114964	0.560734	-0.150746
H155	H	0.448297	0.894067	0.182587
H156	H	0.781630	1.227401	0.515920
H157	H	0.112213	0.403415	-0.150738
H158	H	0.445546	0.736749	0.182595
H159	H	0.778879	1.070082	0.515928
H160	H	-0.483098	1.118121	0.000059
H161	H	-0.149765	1.451455	0.333392
H162	H	0.183569	1.784788	0.666725
Br163	Br	-0.307632	1.162422	0.000084
Br164	Br	0.025701	1.495755	0.333418
Br165	Br	0.359034	1.829089	0.666751
Br166	Br	-0.260803	0.805340	0.000036
Br167	Br	0.072530	1.138673	0.333370
Br168	Br	0.405864	1.472006	0.666703
