data_functionalizedCrystal
_audit_creation_method	'MofGen! by Chris Wilmer'
_symmetry_space_group_name_H-M	'P1'
_symmetry_Int_Tables_number	1
_symmetry_cell_setting	triclinic
loop_
_symmetry_equiv_pos_as_xyz
  x,y,z
_cell_length_a	12.645035
_cell_length_b	12.645331
_cell_length_c	21.395355
_cell_angle_alpha	89.975263
_cell_angle_beta	89.865636
_cell_angle_gamma	89.851203
loop_
_atom_site_label
_atom_site_type_symbol
_atom_site_fract_x
_atom_site_fract_y
_atom_site_fract_z
Zn1	Zn	0.422203	1.619780	-0.354930
Zn2	Zn	0.599458	1.619246	-0.250432
Zn3	Zn	0.422200	1.442488	-0.250166
Zn4	Zn	0.599427	1.442068	-0.355172
O5	O	0.510822	1.530895	-0.302675
O6	O	0.445731	1.768056	-0.341078
O7	O	0.575956	1.595752	-0.162719
O8	O	0.273849	1.466405	-0.263851
O9	O	0.575959	1.767664	-0.264304
O10	O	0.273851	1.596661	-0.340821
O11	O	0.445726	1.465888	-0.162524
O12	O	0.445696	1.294085	-0.264086
O13	O	0.575907	1.465689	-0.442818
O14	O	0.575904	1.293776	-0.341233
O15	O	0.445701	1.596253	-0.442640
O16	O	0.747805	1.595344	-0.264538
O17	O	0.747783	1.465172	-0.341490
C18	C	0.510797	1.255466	-0.302657
C19	C	0.510812	1.137636	-0.302664
C20	C	0.428522	0.970231	-0.254397
C21	C	0.428734	1.092791	-0.254186
C22	C	0.622482	1.092857	-0.284798
C23	C	0.622033	0.970259	-0.284469
C24	C	0.482495	0.970556	-0.368985
C25	C	0.480000	1.093167	-0.368612
C26	C	0.234309	1.531639	-0.302279
C27	C	0.116475	1.531956	-0.302111
C28	C	-0.051062	1.612063	-0.351623
C29	C	0.071477	1.613528	-0.350807
C30	C	0.070326	1.561840	-0.236341
C31	C	-0.052260	1.561290	-0.237297
C32	C	-0.049066	1.418225	-0.319875
C33	C	0.073549	1.419961	-0.320658
C34	C	0.786260	1.530183	-0.303083
C35	C	0.904094	1.529975	-0.303278
C36	C	0.510801	1.530983	-0.466098
C37	C	0.510792	1.531021	-0.535740
C38	C	0.510848	1.807401	-0.302694
C39	C	0.510859	1.925231	-0.302702
C40	C	0.442991	1.599003	-0.568361
C41	C	0.442945	1.599002	-0.633797
C42	C	0.510719	1.531029	-0.666608
C43	C	0.578525	1.463034	-0.633978
C44	C	0.578561	1.463030	-0.568544
C45	C	0.606174	1.522412	-0.770424
C46	C	0.606140	1.522424	-0.835857
C47	C	0.510607	1.531036	-0.868429
C48	C	0.415106	1.539659	-0.835559
C49	C	0.415142	1.539655	-0.770125
C50	C	0.510687	1.531026	-0.737560
C51	C	0.442751	1.599020	-0.972003
C52	C	0.442704	1.599012	-1.037439
C53	C	0.578293	1.463050	-1.037620
C54	C	0.578331	1.463053	-0.972184
C55	C	0.510562	1.531044	-0.939380
C56	C	0.510767	1.530869	-0.139887
C57	C	0.510478	1.531037	-0.070246
H58	H	0.542466	0.941441	-0.404973
H59	H	0.633704	1.407687	-0.660698
F60	F	0.650417	1.390700	-1.072536
F61	F	-0.091271	1.668115	-0.218842
F62	F	0.650499	1.390700	-0.937465
H63	H	0.099780	1.643223	-0.221644
H64	H	0.397823	1.122461	-0.382087
H65	H	0.345925	1.123083	-0.265365
H66	H	0.447059	0.939338	-0.205564
F67	F	0.653475	0.932738	-0.221139
F68	F	0.707780	1.513255	-0.870833
H69	H	0.345463	0.940959	-0.265455
F70	F	-0.087833	1.381798	-0.381932
H71	H	0.402487	0.939844	-0.385266
H72	H	0.387728	1.654358	-0.660362
F73	F	0.650727	1.390671	-0.533825
F74	F	0.113162	1.390447	-0.383948
H75	H	0.447480	1.122022	-0.205064
F76	F	0.707863	1.513269	-0.735765
F77	F	0.654470	1.132844	-0.222149
H78	H	0.685457	0.940471	-0.318126
F79	F	0.113651	1.336552	-0.277522
H80	H	-0.081996	1.504112	-0.200024
F81	F	0.313425	1.548830	-0.870219
F82	F	-0.092893	1.719700	-0.337458
F83	F	0.704812	1.130784	-0.329353
H84	H	0.099411	1.504466	-0.198998
H85	H	0.387486	1.654369	-1.063999
F86	F	-0.086948	1.338337	-0.273823
F87	F	0.552673	1.133068	-0.418153
F88	F	0.370622	1.671377	-0.937087
H89	H	0.337382	1.546674	-0.743366
F90	F	0.112352	1.589172	-0.414581
F91	F	-0.088025	1.587202	-0.416022
H92	H	0.099600	1.696910	-0.339497
F93	F	0.370860	1.671361	-0.533452
