data_functionalizedCrystal
_audit_creation_method	'MofGen! by Chris Wilmer'
_symmetry_space_group_name_H-M	'P1'
_symmetry_Int_Tables_number	1
_symmetry_cell_setting	triclinic
loop_
_symmetry_equiv_pos_as_xyz
  x,y,z
_cell_length_a	12.837943
_cell_length_b	10.268362
_cell_length_c	12.837942
_cell_angle_alpha	89.999312
_cell_angle_beta	85.171060
_cell_angle_gamma	90.003756
loop_
_atom_site_label
_atom_site_type_symbol
_atom_site_fract_x
_atom_site_fract_y
_atom_site_fract_z
O1	O	1.402336	0.108276	-0.272135
O2	O	1.902336	0.608276	0.227865
O3	O	1.099203	0.108284	-0.258692
O4	O	1.599203	0.608284	0.241308
O5	O	1.244048	0.108272	-0.113847
O6	O	1.744048	0.608272	0.386153
O7	O	1.257491	0.108288	-0.416980
O8	O	1.757491	0.608288	0.083020
O9	O	1.244033	-0.108329	-0.113851
O10	O	1.744033	0.391671	0.386149
O11	O	1.099188	-0.108317	-0.258696
O12	O	1.599188	0.391683	0.241304
O13	O	1.402321	-0.108325	-0.272139
O14	O	1.902321	0.391675	0.227861
Cu15	Cu	1.250753	-0.128098	-0.265418
Cu16	Cu	1.750753	0.371902	0.234582
Cu17	Cu	1.250771	0.128057	-0.265413
Cu18	Cu	1.750771	0.628057	0.234587
O19	O	1.257476	-0.108313	-0.416984
O20	O	1.757476	0.391687	0.083016
C21	C	1.060126	-0.000016	-0.254153
C22	C	1.560126	0.499984	0.245847
C23	C	0.943711	-0.000013	-0.240608
C24	C	1.443711	0.499987	0.259392
N25	N	1.250748	-0.308264	-0.265421
N26	N	1.750748	0.191736	0.234579
C27	C	0.718837	-0.000023	-0.403437
C28	C	1.218837	0.499977	0.096563
C29	C	0.609454	-0.000022	-0.390716
C30	C	1.109454	0.499978	0.109284
C31	C	0.615562	-0.000017	-0.202445
C32	C	1.115562	0.499983	0.297555
C33	C	0.724944	-0.000019	-0.215166
C34	C	1.224944	0.499981	0.284834
C35	C	0.776578	-0.000020	-0.315666
C36	C	1.276578	0.499980	0.184334
C37	C	0.885962	-0.000012	-0.328386
C38	C	1.385962	0.499988	0.171614
C39	C	0.892067	-0.000018	-0.140116
C40	C	1.392067	0.499982	0.359884
C41	C	0.782685	-0.000016	-0.127395
C42	C	1.282685	0.499984	0.372605
C43	C	1.250756	-0.426107	-0.265423
C44	C	1.750756	0.073893	0.234577
C45	C	1.250768	-0.573944	-0.265414
C46	C	1.750768	-0.073944	0.234586
C47	C	1.441398	-0.000023	-0.276679
C48	C	1.941398	0.499977	0.223321
C49	C	1.557813	-0.000017	-0.290223
C50	C	2.057813	0.499983	0.209777
C51	C	1.239499	-0.000028	-0.074780
C52	C	1.739499	0.499972	0.425220
C53	C	1.225954	-0.000025	0.041635
C54	C	1.725954	0.499975	0.541635
N55	N	1.250783	0.308223	-0.265402
N56	N	1.750783	0.808223	0.234598
C57	C	1.262025	-0.000011	-0.456052
C58	C	1.762025	0.499989	0.043948
C59	C	1.275569	-0.000005	-0.572467
C60	C	1.775569	0.499995	-0.072467
C61	C	1.388784	-0.000002	0.266510
C62	C	1.888784	0.499998	0.766510
C63	C	1.376062	0.000000	0.375892
C64	C	1.876062	0.500000	0.875892
C65	C	1.187791	-0.000008	0.369785
C66	C	1.687791	0.499992	0.869785
C67	C	1.200513	-0.000011	0.260402
C68	C	1.700513	0.499989	0.760402
C69	C	1.301012	-0.000010	0.208769
C70	C	1.801012	0.499990	0.708769
C71	C	1.313732	-0.000022	0.099384
C72	C	1.813732	0.499978	0.599384
C73	C	1.125462	-0.000021	0.093279
C74	C	1.625462	0.499979	0.593279
C75	C	1.112741	-0.000018	0.202661
C76	C	1.612741	0.499982	0.702661
H77	H	0.928000	-0.000015	-0.410218
H78	H	1.428000	0.499985	0.089782
F79	F	1.469481	0.000012	0.437341
F80	F	1.969481	0.500012	0.937341
F81	F	1.420691	-0.000029	0.044433
F82	F	1.920691	0.499971	0.544433
H83	H	1.105969	0.000005	0.411844
H84	H	1.605969	0.500005	0.911844
F85	F	0.560592	-0.000032	-0.095495
F86	F	1.060592	0.499968	0.404505
F87	F	0.953527	0.000002	-0.046697
F88	F	1.453527	0.500002	0.453303
H89	H	0.740630	-0.000030	-0.045571
H90	H	1.240630	0.499970	0.454429
F91	F	1.495741	-0.000028	0.211555
F92	F	1.995741	0.499972	0.711555
F93	F	1.032043	-0.000042	0.031819
F94	F	1.532043	0.499958	0.531819
H95	H	1.030917	-0.000014	0.244717
H96	H	1.530917	0.499986	0.744717
H97	H	0.760878	-0.000022	-0.485268
H98	H	1.260878	0.499978	0.014732
F99	F	0.548006	-0.000029	-0.484135
F100	F	1.048006	0.499971	0.015865
