data_functionalizedCrystal
_audit_creation_method	'MofGen! by Chris Wilmer'
_symmetry_space_group_name_H-M	'P1'
_symmetry_Int_Tables_number	1
_symmetry_cell_setting	triclinic
loop_
_symmetry_equiv_pos_as_xyz
  x,y,z
_cell_length_a	19.188930
_cell_length_b	14.971486
_cell_length_c	14.048226
_cell_angle_alpha	90.001501
_cell_angle_beta	89.988446
_cell_angle_gamma	96.620545
loop_
_atom_site_label
_atom_site_type_symbol
_atom_site_fract_x
_atom_site_fract_y
_atom_site_fract_z
O1	O	0.090988	-1.186466	-0.079062
O2	O	0.590988	-0.686466	0.420938
O3	O	0.101884	-0.926009	-0.079090
O4	O	0.601884	-0.426009	0.420910
O5	O	-0.005196	-1.063754	-0.079057
O6	O	0.494804	-0.563754	0.420943
O7	O	0.198067	-1.048721	-0.079095
O8	O	0.698067	-0.548721	0.420905
O9	O	-0.005202	-1.063737	0.079265
O10	O	0.494798	-0.563737	0.579265
O11	O	0.101878	-0.925992	0.079232
O12	O	0.601878	-0.425992	0.579232
O13	O	0.090982	-1.186450	0.079259
O14	O	0.590982	-0.686450	0.579259
Zn15	Zn	0.096429	-1.056218	0.104382
Zn16	Zn	0.596429	-0.556218	0.604382
Zn17	Zn	0.096437	-1.056240	-0.104213
Zn18	Zn	0.596437	-0.556240	0.395787
O19	O	0.198061	-1.048705	0.079226
O20	O	0.698061	-0.548705	0.579226
C21	C	0.101393	-0.892678	0.000068
C22	C	0.601393	-0.392678	0.500068
C23	C	0.099933	-0.793389	0.000058
C24	C	0.599933	-0.293389	0.500058
C25	C	-0.031211	-1.063259	0.000107
C26	C	0.468789	-0.563259	0.500107
C27	C	-0.108721	-1.061797	0.000115
C28	C	0.391279	-0.561797	0.500115
N29	N	0.096422	-1.056210	0.246743
N30	N	0.596422	-0.556210	0.746743
C31	C	-0.153384	-1.142622	0.000128
C32	C	0.346616	-0.642622	0.500128
C33	C	-0.226213	-1.141249	0.000112
C34	C	0.273787	-0.641249	0.500112
C35	C	-0.254374	-1.059047	0.000103
C36	C	0.245626	-0.559047	0.500103
C37	C	-0.209700	-0.978212	0.000085
C38	C	0.290300	-0.478212	0.500085
C39	C	-0.136874	-0.979587	0.000091
C40	C	0.363126	-0.479587	0.500091
N41	N	-0.362583	-0.996208	0.053976
N42	N	0.137417	-0.496208	0.553976
N43	N	-0.431766	-0.994907	0.053973
N44	N	0.068234	-0.494907	0.553973
C45	C	-0.473796	-1.054899	0.000084
C46	C	0.026204	-0.554899	0.500084
N47	N	-0.444031	-1.116254	-0.053790
N48	N	0.055969	-0.616254	0.446210
N49	N	-0.374842	-1.117558	-0.053782
N50	N	0.125158	-0.617558	0.446218
C51	C	-0.333341	-1.057547	0.000096
C52	C	0.166659	-0.557547	0.500096
C53	C	-0.597429	-1.134240	0.000078
C54	C	-0.097429	-0.634240	0.500078
C55	C	-0.670258	-1.132864	0.000057
C56	C	-0.170258	-0.632864	0.500057
C57	C	-0.653744	-0.969825	0.000039
C58	C	-0.153744	-0.469825	0.500039
C59	C	-0.580916	-0.971203	0.000051
C60	C	-0.080916	-0.471203	0.500051
C61	C	-0.552763	-1.053413	0.000075
C62	C	-0.052763	-0.553413	0.500075
C63	C	0.224077	-1.049200	0.000061
C64	C	0.724077	-0.549200	0.500061
C65	C	0.301586	-1.050661	0.000046
C66	C	0.801586	-0.550661	0.500046
C67	C	0.091472	-1.219780	0.000100
C68	C	0.591472	-0.719780	0.500100
C69	C	0.092932	-1.319070	0.000103
C70	C	0.592932	-0.819070	0.500103
C71	C	0.162839	-0.735831	0.000048
C72	C	0.662839	-0.235831	0.500048
C73	C	0.161463	-0.642539	0.000062
C74	C	0.661463	-0.142539	0.500062
C75	C	0.097180	-0.606806	0.000080
C76	C	0.597180	-0.106806	0.500080
C77	C	0.034269	-0.664371	0.000094
C78	C	0.534269	-0.164371	0.500094
C79	C	0.035646	-0.757662	0.000086
C80	C	0.535646	-0.257662	0.500086
C81	C	0.031403	-0.469924	0.000108
C82	C	0.531403	0.030076	0.500108
C83	C	0.030026	-0.376627	0.000113
C84	C	0.530026	0.123373	0.500113
C85	C	0.157221	-0.354801	0.000083
C86	C	0.657221	0.145199	0.500083
C87	C	0.158598	-0.448092	0.000076
C88	C	0.658598	0.051908	0.500076
C89	C	0.095686	-0.505650	0.000088
C90	C	0.595686	-0.005650	0.500088
N91	N	0.096437	-1.056256	-0.246573
N92	N	0.596437	-0.556256	0.253427
C93	C	0.049027	-1.117223	0.296576
C94	C	0.549027	-0.617223	0.796576
C95	C	0.049027	-1.117229	0.396233
C96	C	0.549027	-0.617229	0.896233
C97	C	0.096426	-1.056226	0.446057
C98	C	0.596426	-0.556226	0.946057
C99	C	0.143823	-0.995207	0.396217
C100	C	0.643823	-0.495207	0.896217
C101	C	0.143819	-0.995197	0.296561
C102	C	0.643819	-0.495197	0.796561
C103	C	0.143828	-0.995233	0.603931
C104	C	0.643828	-0.495233	1.103931
C105	C	0.143833	-0.995243	0.703594
C106	C	0.643833	-0.495243	1.203594
C107	C	0.049035	-1.117264	0.703603
C108	C	0.549035	-0.617264	1.203603
C109	C	0.049032	-1.117255	0.603948
C110	C	0.549032	-0.617255	1.103948
C111	C	0.096430	-1.056236	0.554115
C112	C	0.596430	-0.556236	1.054115
H113	H	-0.130467	-1.209564	0.000144
H114	H	0.369533	-0.709564	0.500144
C115	C	0.195957	-0.928087	0.241745
C116	C	0.695957	-0.428087	0.741745
H117	H	0.224191	-0.891763	0.285689
H118	H	0.724191	-0.391763	0.785689
H119	H	0.170792	-0.890952	0.202883
H120	H	0.670792	-0.390952	0.702883
H121	H	0.225064	-0.960148	0.202856
H122	H	0.725064	-0.460148	0.702856
C123	C	-0.531781	-0.882298	0.000043
C124	C	-0.031781	-0.382298	0.500043
H125	H	-0.484375	-0.894889	0.000039
H126	H	0.015625	-0.394889	0.500039
H127	H	-0.540332	-0.848568	0.055245
H128	H	-0.040332	-0.348568	0.555245
H129	H	-0.540316	-0.848590	-0.055182
H130	H	-0.040316	-0.348590	0.444818
H131	H	0.215186	-0.764917	0.000032
H132	H	0.715186	-0.264917	0.500032
C133	C	-0.240674	-0.887793	0.000078
C134	C	0.259326	-0.387793	0.500078
H135	H	-0.290445	-0.898549	0.000086
H136	H	0.209555	-0.398549	0.500086
H137	H	-0.225339	-0.854529	-0.055135
H138	H	0.274661	-0.354529	0.444865
H139	H	-0.225355	-0.854521	0.055292
H140	H	0.274645	-0.354521	0.555292
C141	C	0.230660	-0.579229	0.000047
C142	C	0.730660	-0.079229	0.500047
H143	H	0.269141	-0.613872	0.000023
H144	H	0.769141	-0.113872	0.500023
H145	H	0.232769	-0.542387	0.055261
H146	H	0.732769	-0.042387	0.555261
H147	H	0.232766	-0.542380	-0.055166
H148	H	0.732766	-0.042380	0.444834
C149	C	-0.275352	-1.230159	0.000134
C150	C	0.224648	-0.730159	0.500134
H151	H	-0.248154	-1.279316	0.000155
H152	H	0.251846	-0.779316	0.500155
H153	H	-0.304098	-1.233023	-0.055075
H154	H	0.195902	-0.733023	0.444925
H155	H	-0.304110	-1.232994	0.055352
H156	H	0.195890	-0.732994	0.555352
C157	C	-0.087741	-0.890677	0.000085
C158	C	0.412259	-0.390677	0.500085
H159	H	-0.114941	-0.841521	0.000082
H160	H	0.385059	-0.341521	0.500082
H161	H	-0.058974	-0.887830	-0.055119
H162	H	0.441026	-0.387830	0.444881
H163	H	-0.059003	-0.887821	0.055308
H164	H	0.440997	-0.387821	0.555308
C165	C	-0.719389	-1.221775	0.000073
C166	C	-0.219389	-0.721775	0.500073
H167	H	-0.692188	-1.270929	0.000098
H168	H	-0.192188	-0.770929	0.500098
H169	H	-0.748132	-1.224642	-0.055139
H170	H	-0.248132	-0.724642	0.444861
H171	H	-0.748151	-1.224613	0.055288
H172	H	-0.248151	-0.724613	0.555288
C173	C	-0.033549	-0.820979	0.000097
C174	C	0.466451	-0.320979	0.500097
H175	H	-0.023523	-0.881656	0.000100
H176	H	0.476477	-0.381656	0.500100
H177	H	-0.059906	-0.810175	-0.055105
H178	H	0.440094	-0.310175	0.444895
H179	H	-0.059903	-0.810175	0.055323
H180	H	0.440097	-0.310175	0.555323
H181	H	0.182414	-0.945533	0.436789
H182	H	0.682414	-0.445533	0.936789
H183	H	-0.574506	-1.201180	0.000094
H184	H	-0.074506	-0.701180	0.500094
C185	C	0.195968	-0.928118	0.549117
C186	C	0.695968	-0.428118	1.049117
H187	H	0.224204	-0.891795	0.593061
H188	H	0.724204	-0.391795	1.093061
H189	H	0.170807	-0.890981	0.510252
H190	H	0.670807	-0.390981	1.010252
H191	H	0.225074	-0.960183	0.510230
H192	H	0.725074	-0.460183	1.010230
C193	C	-0.684712	-0.879404	0.000026
C194	C	-0.184712	-0.379404	0.500026
H195	H	-0.734483	-0.890160	0.000028
H196	H	-0.234483	-0.390160	0.500028
H197	H	-0.669373	-0.846142	-0.055187
H198	H	-0.169373	-0.346142	0.444813
H199	H	-0.669397	-0.846131	0.055241
H200	H	-0.169397	-0.346131	0.555241
H201	H	-0.019826	-0.516786	0.000119
H202	H	0.480174	-0.016786	0.500119
H203	H	0.010433	-1.166902	0.256016
H204	H	0.510433	-0.666902	0.756016
H205	H	0.210943	-0.477182	0.000052
H206	H	0.710943	0.022818	0.500052
H207	H	0.208445	-0.307932	0.000078
H208	H	0.708445	0.192068	0.500078
C209	C	-0.040684	-0.337322	0.000139
C210	C	0.459316	0.162678	0.500139
H211	H	-0.077954	-0.384961	0.000158
H212	H	0.422046	0.115039	0.500158
H213	H	-0.043865	-0.301382	-0.055068
H214	H	0.456135	0.198618	0.444932
H215	H	-0.043859	-0.301384	0.055359
H216	H	0.456141	0.198616	0.555359
H217	H	0.010434	-1.166909	0.436807
H218	H	0.510434	-0.666909	0.936807
H219	H	-0.018072	-0.635271	0.000122
H220	H	0.481928	-0.135271	0.500122
C221	C	-0.003106	-1.184355	0.549143
C222	C	0.496894	-0.684355	1.049143
H223	H	-0.031339	-1.220691	0.593093
H224	H	0.468661	-0.720691	1.093093
H225	H	0.022058	-1.221480	0.510251
H226	H	0.522058	-0.721480	1.010251
H227	H	-0.032214	-1.152284	0.510286
H228	H	0.467786	-0.652284	1.010286
H229	H	0.010442	-1.166947	0.744183
H230	H	0.510442	-0.666947	1.244183
C231	C	0.195925	-0.928085	0.758398
C232	C	0.695925	-0.428085	1.258398
H233	H	0.224135	-0.891719	0.714448
H234	H	0.724135	-0.391719	1.214448
H235	H	0.225052	-0.960091	0.797289
H236	H	0.725052	-0.460091	1.297289
H237	H	0.170711	-0.890984	0.797257
H238	H	0.670711	-0.390984	1.297257
