data_functionalizedCrystal
_audit_creation_method	'MofGen! by Chris Wilmer'
_symmetry_space_group_name_H-M	'P1'
_symmetry_Int_Tables_number	1
_symmetry_cell_setting	triclinic
loop_
_symmetry_equiv_pos_as_xyz
  x,y,z
_cell_length_a	11.792254
_cell_length_b	15.995350
_cell_length_c	10.268362
_cell_angle_alpha	89.996947
_cell_angle_beta	89.995475
_cell_angle_gamma	83.845486
loop_
_atom_site_label
_atom_site_type_symbol
_atom_site_fract_x
_atom_site_fract_y
_atom_site_fract_z
O1	O	1.505943	0.114814	-0.108292
O2	O	2.005943	0.614814	0.391708
O3	O	1.175505	0.126630	-0.108294
O4	O	1.675505	0.626630	0.391706
O5	O	1.349756	-0.001124	-0.108292
O6	O	1.849756	0.498876	0.391708
O7	O	1.331691	0.242568	-0.108295
O8	O	1.831691	0.742568	0.391705
O9	O	1.349741	-0.001130	0.108309
O10	O	1.849741	0.498870	0.608309
O11	O	1.175490	0.126625	0.108306
O12	O	1.675490	0.626625	0.608306
O13	O	1.505927	0.114809	0.108308
O14	O	2.005927	0.614809	0.608308
Cu15	Cu	1.340707	0.120716	0.128085
Cu16	Cu	1.840707	0.620716	0.628085
Cu17	Cu	1.340725	0.120723	-0.128071
Cu18	Cu	1.840725	0.620723	0.371929
O19	O	1.331676	0.242563	0.108306
O20	O	1.831676	0.742563	0.608306
C21	C	1.133213	0.125883	0.000006
C22	C	1.633213	0.625883	0.500006
C23	C	1.007218	0.123655	0.000005
C24	C	1.507218	0.623655	0.500005
C25	C	0.904897	0.121845	-0.000001
C26	C	1.404897	0.621845	0.499999
C27	C	0.776529	0.119581	-0.000002
C28	C	1.276529	0.619581	0.499998
C29	C	1.349002	-0.032325	0.000006
C30	C	1.849002	0.467675	0.500006
C31	C	1.346763	-0.125286	-0.000002
C32	C	1.846763	0.374714	0.499998
C33	C	1.338722	-0.463070	0.000003
C34	C	1.838722	0.036930	0.500003
C35	C	1.214623	-0.416203	-0.000484
C36	C	1.714623	0.083797	0.499516
C37	C	1.216863	-0.319503	0.000004
C38	C	1.716863	0.180497	0.500004
C39	C	1.342710	-0.295491	-0.000000
C40	C	1.842710	0.204509	0.500000
C41	C	1.403912	-0.336292	0.123688
C42	C	1.903912	0.163708	0.623688
C43	C	1.400794	-0.432942	0.123791
C44	C	1.900794	0.067058	0.623791
C45	C	1.403375	-0.433282	-0.122524
C46	C	1.903375	0.066718	0.377476
C47	C	1.403346	-0.336337	-0.124159
C48	C	1.903346	0.163663	0.375841
C49	C	1.344971	-0.200783	0.000003
C50	C	1.844971	0.299217	0.500003
C51	C	1.336465	-0.557778	0.000009
C52	C	1.836465	-0.057778	0.500009
C53	C	1.548220	0.115556	0.000006
C54	C	2.048220	0.615556	0.500006
C55	C	1.674214	0.117784	-0.000002
C56	C	2.174214	0.617784	0.499998
C57	C	1.332430	0.273764	0.000005
C58	C	1.832430	0.773764	0.500005
C59	C	1.334669	0.366725	0.000004
C60	C	1.834669	0.866725	0.500004
N61	N	1.340703	0.120711	0.308251
N62	N	1.840703	0.620711	0.808251
N63	N	1.340738	0.120721	-0.308236
N64	N	1.840738	0.620721	0.191764
C65	C	1.340719	0.120721	0.573921
C66	C	1.840719	0.620721	1.073921
C67	C	1.340707	0.120718	0.426083
C68	C	1.840707	0.620718	0.926083
H69	H	1.168754	-0.291299	-0.088660
H70	H	1.668754	0.208701	0.411340
C71	C	1.528810	-0.316621	0.129919
C72	C	2.028810	0.183379	0.629919
N73	N	1.622880	-0.301798	0.134615
N74	N	2.122880	0.198202	0.634615
H75	H	1.165028	-0.434960	-0.089182
H76	H	1.665028	0.065040	0.410818
C77	C	1.526981	-0.475629	-0.123658
C78	C	2.026981	0.024371	0.376342
N79	N	1.620076	-0.507530	-0.124503
N80	N	2.120076	-0.007530	0.375497
H81	H	1.168418	-0.291862	0.088819
H82	H	1.668418	0.208138	0.588819
H83	H	1.165236	-0.436025	0.087720
H84	H	1.665236	0.063975	0.587720
C85	C	1.340473	-0.457946	0.248694
C86	C	1.840473	0.042054	0.748694
N87	N	1.295034	-0.476774	0.342772
N88	N	1.795034	0.023226	0.842772
C89	C	1.527334	-0.315024	-0.134249
C90	C	2.027334	0.184976	0.365751
N91	N	1.620728	-0.298974	-0.141837
N92	N	2.120728	0.201026	0.358163
C93	C	1.346464	-0.298223	0.248042
C94	C	1.846464	0.201777	0.748042
N95	N	1.303187	-0.269551	0.341703
N96	N	1.803187	0.230449	0.841703
H97	H	1.491905	-0.464773	0.129400
H98	H	1.991905	0.035227	0.629400
H99	H	1.362808	-0.454005	-0.216272
H100	H	1.862808	0.045995	0.283728
C101	C	1.342953	-0.299750	-0.247778
C102	C	1.842953	0.200250	0.252222
N103	N	1.297454	-0.272196	-0.340885
N104	N	1.797454	0.227804	0.159115
