data_functionalizedCrystal
_audit_creation_method	'MofGen! by Chris Wilmer'
_symmetry_space_group_name_H-M	'P1'
_symmetry_Int_Tables_number	1
_symmetry_cell_setting	triclinic
loop_
_symmetry_equiv_pos_as_xyz
  x,y,z
_cell_length_a	10.654549
_cell_length_b	23.532357
_cell_length_c	9.130313
_cell_angle_alpha	89.989961
_cell_angle_beta	89.997498
_cell_angle_gamma	83.656534
loop_
_atom_site_label
_atom_site_type_symbol
_atom_site_fract_x
_atom_site_fract_y
_atom_site_fract_z
O1	O	1.665274	0.079986	-0.121785
O2	O	1.299551	0.087606	-0.121798
O3	O	1.493474	0.000934	-0.121761
O4	O	1.471351	0.166658	-0.121822
O5	O	1.493460	0.000932	0.121838
O6	O	1.299538	0.087604	0.121801
O7	O	1.665261	0.079983	0.121813
Cu8	Cu	1.482398	0.083793	0.144050
Cu9	Cu	1.482414	0.083796	-0.144034
O10	O	1.471338	0.166655	0.121777
C11	C	1.252764	0.087046	0.000001
C12	C	1.113375	0.085372	-0.000003
C13	C	0.901274	0.134826	-0.000015
C14	C	1.032244	0.136403	-0.000024
C15	C	1.063530	0.032760	0.000013
C16	C	0.932562	0.031183	0.000012
C17	C	1.492914	-0.020287	0.000043
C18	C	1.491250	-0.083517	0.000057
C19	C	1.480813	-0.475594	-0.132809
C20	C	1.479231	-0.535004	-0.132817
O21	O	1.478377	-0.565725	-0.245746
N22	N	1.478440	-0.564722	-0.000033
C23	C	1.479217	-0.535026	0.132768
O24	O	1.478398	-0.565758	0.245710
C25	C	1.480790	-0.475617	0.132775
C26	C	1.481594	-0.445903	-0.000018
C27	C	1.481616	-0.445880	-0.265590
C28	C	1.483199	-0.386475	-0.265581
C29	C	1.483980	-0.356783	-0.132791
C30	C	1.483178	-0.386497	-0.000009
C31	C	1.481558	-0.445922	0.265574
C32	C	1.483130	-0.386508	0.265570
C33	C	1.483934	-0.356794	0.132777
C34	C	1.485542	-0.297400	0.132791
N35	N	1.486334	-0.267683	0.000007
C36	C	1.485553	-0.297374	-0.132784
C37	C	1.475913	-0.659789	0.132743
C38	C	1.474350	-0.719198	0.132738
C39	C	1.474361	-0.719172	-0.132847
C40	C	1.475934	-0.659762	-0.132841
C41	C	1.476704	-0.630071	-0.000041
C42	C	1.488880	-0.172618	-0.132755
C43	C	1.490469	-0.113208	-0.132734
C44	C	1.490450	-0.113239	0.132850
C45	C	1.488868	-0.172645	0.132830
C46	C	1.488079	-0.202333	0.000016
O47	O	1.486393	-0.266642	0.245662
O48	O	1.486356	-0.266634	-0.245707
C49	C	1.712047	0.080544	0.000012
C50	C	1.851437	0.082218	0.000006
C51	C	1.471898	0.187877	-0.000030
C52	C	1.473562	0.251106	-0.000054
N53	N	1.482396	0.083791	0.346672
N54	N	1.482425	0.083794	-0.346657
C55	C	1.568294	0.045429	0.423340
C56	C	1.568306	0.045429	0.576677
C57	C	1.396519	0.122158	0.576664
C58	C	1.396502	0.122155	0.423330
H59	H	1.491127	-0.089018	-0.240875
N60	N	1.308787	0.161353	0.654949
N61	N	1.232096	0.195601	0.586472
H62	H	1.170132	0.223283	0.641756
N63	N	0.818406	0.186954	-0.000065
N64	N	0.741842	0.197637	-0.102757
H65	H	0.683319	0.234454	-0.102799
H66	H	1.483738	-0.362336	0.373714
N67	N	1.656033	0.006231	0.654977
N68	N	1.654986	-0.046414	0.637859
H69	H	1.716945	-0.074102	0.693153
H70	H	1.072813	0.179241	-0.000042
N71	N	1.146417	-0.019363	0.000017
N72	N	1.263350	-0.017949	0.000018
H73	H	1.321889	-0.054762	0.000022
H74	H	0.891986	-0.011659	0.000024
H75	H	1.488231	-0.196783	-0.240905
N76	N	1.480852	-0.476214	-0.401232
N77	N	1.479468	-0.529259	-0.401254
H78	H	1.478944	-0.550680	-0.497058
N79	N	1.476760	-0.629422	-0.268497
N80	N	1.476072	-0.655947	-0.387043
H81	H	1.476656	-0.634523	-0.482858
N82	N	1.308738	0.161343	0.345028
N83	N	1.232059	0.195595	0.413486
H84	H	1.170074	0.223269	0.358186
N85	N	1.484021	-0.356120	-0.401216
N86	N	1.573430	-0.327872	-0.430856
H87	H	1.574009	-0.306436	-0.526655
N88	N	1.488058	-0.202992	0.268484
N89	N	1.488756	-0.176472	0.387037
H90	H	1.488171	-0.197899	0.482846
H91	H	1.473721	-0.743357	-0.240973
N92	N	1.473556	-0.749539	0.268396
N93	N	1.474261	-0.723015	0.386942
H94	H	1.473696	-0.744440	0.482757
N95	N	1.476693	-0.629462	0.268405
N96	N	1.387982	-0.631206	0.357311
H97	H	1.388529	-0.609790	0.453122
H98	H	1.491092	-0.089054	0.240965
N99	N	1.480719	-0.476252	0.401238
N100	N	1.392352	-0.464707	0.490129
H101	H	1.391756	-0.486125	0.585952
H102	H	1.638232	0.014190	0.360929
