data_functionalizedCrystal
_audit_creation_method	'MofGen! by Chris Wilmer'
_symmetry_space_group_name_H-M	'P1'
_symmetry_Int_Tables_number	1
_symmetry_cell_setting	triclinic
loop_
_symmetry_equiv_pos_as_xyz
  x,y,z
_cell_length_a	6.817900
_cell_length_b	14.858565
_cell_length_c	9.170709
_cell_angle_alpha	85.308529
_cell_angle_beta	67.539355
_cell_angle_gamma	75.476084
loop_
_atom_site_label
_atom_site_type_symbol
_atom_site_fract_x
_atom_site_fract_y
_atom_site_fract_z
V1	V	4.112885	-0.088737	-0.486658
V2	V	4.612885	0.411263	0.013342
O3	O	4.093325	0.045320	-0.476947
O4	O	4.593325	0.545320	0.023053
O5	O	4.069040	-0.215435	-0.483760
O6	O	4.569040	0.284565	0.016240
O7	O	4.099662	-0.069357	-0.698710
O8	O	4.599662	0.430643	-0.198710
O9	O	4.062491	-0.101770	-0.260509
O10	O	4.562491	0.398230	0.239491
V11	V	4.591365	-0.074830	-0.459557
V12	V	5.091365	0.425170	0.040443
O13	O	4.385207	-0.119241	-0.546108
O14	O	4.885207	0.380759	-0.046108
O15	O	4.769241	-0.044326	-0.400107
O16	O	5.269241	0.455674	0.099893
O17	O	4.412005	0.051868	-0.462455
O18	O	4.912005	0.551868	0.037545
O19	O	4.728322	-0.208887	-0.469268
O20	O	5.228322	0.291113	0.030732
O21	O	4.759157	-0.061797	-0.685706
O22	O	5.259157	0.438203	-0.185706
O23	O	4.381382	-0.094210	-0.247504
O24	O	4.881382	0.405790	0.252496
C25	C	3.914010	-0.246885	-0.476194
C26	C	4.414010	0.253115	0.023806
C27	C	3.959682	-0.350347	-0.475238
C28	C	4.459682	0.149653	0.024762
C29	C	4.126851	-0.729203	-0.471759
C30	C	4.626851	-0.229203	0.028241
C31	C	4.080330	-0.623793	-0.472726
C32	C	4.580330	-0.123793	0.027274
C33	C	4.043267	-0.539778	-0.473497
C34	C	4.543267	-0.039778	0.026503
C35	C	3.996746	-0.434362	-0.474467
C36	C	4.496746	0.065638	0.025533
C37	C	3.953071	-0.060546	-0.750382
C38	C	4.453071	0.439454	-0.250382
C39	C	4.023573	-0.045540	-0.923739
C40	C	4.523573	0.454460	-0.423739
C41	C	4.230376	0.083312	-0.470017
C42	C	4.730376	0.583312	0.029983
C43	C	4.163943	0.186774	-0.470983
C44	C	4.663943	0.686774	0.029017
C45	C	4.191314	-0.103024	-0.195824
C46	C	4.691314	0.396976	0.304176
C47	C	4.100050	-0.118026	-0.022466
C48	C	4.600050	0.381974	0.477534
H49	H	4.111602	-0.191568	-0.974370
H50	H	4.611602	0.308432	-0.474370
H51	H	4.012042	0.028007	-0.971843
H52	H	4.512042	0.528007	-0.471843
