data_functionalizedCrystal
_audit_creation_method	'MofGen! by Chris Wilmer'
_symmetry_space_group_name_H-M	'P1'
_symmetry_Int_Tables_number	1
_symmetry_cell_setting	triclinic
loop_
_symmetry_equiv_pos_as_xyz
  x,y,z
_cell_length_a	17.699083
_cell_length_b	14.853567
_cell_length_c	16.776229
_cell_angle_alpha	89.997147
_cell_angle_beta	89.998886
_cell_angle_gamma	83.458972
loop_
_atom_site_label
_atom_site_type_symbol
_atom_site_fract_x
_atom_site_fract_y
_atom_site_fract_z
O1	O	1.004374	0.114008	-0.066170
O2	O	0.784034	0.128841	-0.066195
O3	O	0.900090	-0.009827	-0.066184
O4	O	0.888319	0.252676	-0.066181
O5	O	0.900075	-0.009835	0.066392
O6	O	0.784019	0.128832	0.066381
O7	O	1.004359	0.114000	0.066407
Zn8	Zn	0.894187	0.121415	0.087443
Zn9	Zn	0.894207	0.121426	-0.087232
O10	O	0.888303	0.252667	0.066396
C11	C	0.755828	0.128305	0.000090
C12	C	0.671806	0.126711	0.000080
C13	C	0.623396	0.208106	0.000081
C14	C	0.544449	0.206602	0.000092
C15	C	0.513913	0.123703	0.000095
C16	C	0.562329	0.042301	0.000096
C17	C	0.641275	0.043806	0.000091
C18	C	0.243950	0.036232	0.000116
C19	C	0.164999	0.034734	0.000118
C20	C	0.147125	0.199028	0.000116
C21	C	0.226070	0.200533	0.000111
C22	C	0.274479	0.119132	0.000116
C23	C	0.360083	0.120763	0.000107
C24	C	0.428311	0.122070	0.000099
C25	C	0.899549	-0.043418	0.000102
C26	C	0.897951	-0.143496	0.000095
C27	C	0.822255	-0.555751	0.000101
C28	C	0.960131	-0.577539	0.000117
C29	C	0.961634	-0.483511	0.000112
C30	C	0.893446	-0.425598	0.000103
C31	C	0.823756	-0.461714	0.000099
C32	C	1.031324	-0.447389	0.000125
C33	C	1.032829	-0.353355	0.000121
C34	C	0.964641	-0.295441	0.000107
C35	C	0.894947	-0.331561	0.000101
C36	C	0.826759	-0.273648	0.000092
C37	C	0.757065	-0.309767	0.000081
C38	C	0.755567	-0.403799	0.000084
C39	C	0.966139	-0.201409	0.000104
C40	C	0.828260	-0.179611	0.000090
C41	C	1.032565	0.114535	0.000120
C42	C	1.116587	0.116130	0.000125
C43	C	0.888844	0.286258	0.000108
C44	C	0.890443	0.386336	0.000110
N45	N	0.894178	0.121406	0.206655
N46	N	0.894221	0.121427	-0.206443
C47	C	0.945583	0.060029	0.248377
C48	C	0.945587	0.060029	0.331829
C49	C	0.894190	0.121410	0.373558
C50	C	0.842779	0.182790	0.331830
C51	C	0.842772	0.182786	0.248379
C52	C	0.842806	0.182808	0.668377
C53	C	0.842819	0.182809	0.751834
C54	C	0.945622	0.060051	0.751827
C55	C	0.945615	0.060046	0.668376
C56	C	0.894202	0.121423	0.626656
C57	C	0.894197	0.121422	0.536167
C58	C	0.894198	0.121416	0.464044
H59	H	0.505037	0.272882	0.000092
H60	H	0.800946	0.232784	0.634415
H61	H	1.015647	-0.624697	0.000131
O62	O	0.995393	0.000330	0.207775
C63	C	0.954774	-0.055243	0.159555
H64	H	0.895603	-0.019215	0.147038
H65	H	0.986344	-0.069615	0.100877
H66	H	0.949530	-0.121836	0.191755
H67	H	1.086839	-0.494548	0.000140
O68	O	0.792810	0.242467	0.792247
C69	C	0.747440	0.296652	0.737530
H70	H	0.746543	0.259690	0.678045
H71	H	0.687017	0.310485	0.761653
H72	H	0.772072	0.363593	0.728646
O73	O	0.754538	-0.590789	-0.000051
C74	C	0.712969	-0.561157	-0.068709
H75	H	0.753725	-0.541681	-0.116693
H76	H	0.680713	-0.618050	-0.091763
H77	H	0.670854	-0.499781	-0.053189
O78	O	1.100593	-0.318423	0.000091
C79	C	1.160453	-0.389704	0.000122
H80	H	1.139175	-0.453540	-0.024974
H81	H	1.209106	-0.370159	-0.038366
H82	H	1.181484	-0.403051	0.063728
O83	O	0.690758	-0.253635	0.000107
C84	C	0.628921	-0.305669	0.000074
H85	H	0.648050	-0.375897	0.025175
H86	H	0.581136	-0.270876	0.038556
H87	H	0.607575	-0.312311	-0.063534
O88	O	0.792942	0.242447	0.207760
C89	C	0.833523	0.298019	0.159492
H90	H	0.892708	0.262024	0.146986
H91	H	0.801943	0.312323	0.100812
H92	H	0.838733	0.364645	0.191645
O93	O	0.792923	0.242382	0.372486
C94	C	0.803940	0.229213	0.455089
H95	H	0.864078	0.195429	0.466482
H96	H	0.795592	0.297503	0.486798
H97	H	0.761060	0.184061	0.478782
H98	H	0.772732	-0.132463	0.000079
O99	O	1.033783	-0.166213	0.000008
C100	C	1.038795	-0.112495	-0.068667
H101	H	0.979169	-0.088952	-0.091571
H102	H	1.069022	-0.050980	-0.053223
H103	H	1.072247	-0.154113	-0.116739
O104	O	0.652930	0.288715	0.000112
C105	C	0.593269	0.360232	0.000097
H106	H	0.539616	0.335074	0.025200
H107	H	0.609827	0.418120	0.038587
H108	H	0.582121	0.385336	-0.063506
O109	O	0.995604	0.000383	0.372234
C110	C	1.040961	-0.053800	0.317508
H111	H	1.041837	-0.016842	0.258017
H112	H	1.101392	-0.067625	0.341610
H113	H	1.016334	-0.120747	0.308645
H114	H	0.680690	-0.022475	0.000090
O115	O	0.995571	0.000333	0.627965
C116	C	1.040956	-0.053828	0.682686
H117	H	1.009933	-0.054797	0.742178
H118	H	1.052425	-0.125845	0.658579
H119	H	1.097209	-0.024640	0.691550
H120	H	0.987483	0.010072	0.785804
O121	O	0.255638	0.281120	0.000000
C122	C	0.230918	0.330721	-0.068671
H123	H	0.176141	0.306267	-0.091559
H124	H	0.220036	0.405820	-0.053228
H125	H	0.276588	0.320186	-0.116754
O126	O	0.099991	0.278021	0.000154
C127	C	0.023762	0.258924	0.000141
H128	H	0.020661	0.188119	0.025246
H129	H	-0.011946	0.310819	0.038632
H130	H	0.000932	0.262392	-0.063461
H131	H	0.140140	-0.032777	0.000121
H132	H	0.698825	-0.433216	0.000076
H133	H	0.537461	-0.025197	0.000110
O134	O	0.290860	-0.042921	0.000082
C135	C	0.246976	-0.116408	0.000104
H136	H	0.188081	-0.093392	-0.024997
H137	H	0.276035	-0.173430	-0.038385
H138	H	0.241325	-0.141827	0.063708
