data_functionalizedCrystal
_audit_creation_method	'MofGen! by Chris Wilmer'
_symmetry_space_group_name_H-M	'P1'
_symmetry_Int_Tables_number	1
_symmetry_cell_setting	triclinic
loop_
_symmetry_equiv_pos_as_xyz
  x,y,z
_cell_length_a	18.101398
_cell_length_b	18.101395
_cell_length_c	18.101389
_cell_angle_alpha	90.016841
_cell_angle_beta	90.024327
_cell_angle_gamma	90.026371
loop_
_atom_site_label
_atom_site_type_symbol
_atom_site_fract_x
_atom_site_fract_y
_atom_site_fract_z
Zn1	Zn	1.132121	-0.295001	0.418847
Zn2	Zn	1.132017	-0.418826	0.295009
Zn3	Zn	1.008280	-0.294993	0.295008
Zn4	Zn	1.008231	-0.418795	0.418797
O5	O	1.070162	-0.356904	0.356915
O6	O	1.235740	-0.311443	0.402440
O7	O	1.115580	-0.402410	0.191376
O8	O	1.024772	-0.191361	0.311456
O9	O	1.235664	-0.402417	0.311457
O10	O	1.115757	-0.191367	0.402440
O11	O	1.024671	-0.311430	0.191375
O12	O	0.904641	-0.311399	0.311408
O13	O	1.024688	-0.402363	0.522437
O14	O	0.904604	-0.402356	0.402355
O15	O	1.115710	-0.311412	0.522473
O16	O	1.115532	-0.522455	0.311409
O17	O	1.024587	-0.522432	0.402356
C18	C	0.877752	-0.356874	0.356877
C19	C	0.795437	-0.356879	0.356878
C20	C	0.496347	-0.356925	0.356940
C21	C	0.527670	-0.299412	0.299997
C22	C	0.613288	-0.299566	0.299754
C23	C	0.644729	-0.356901	0.356909
C24	C	0.613611	-0.434909	0.335587
C25	C	0.527966	-0.434590	0.335191
C26	C	0.527961	-0.337109	0.435339
C27	C	0.613612	-0.335371	0.434911
C28	C	0.728589	-0.356893	0.356893
C29	C	0.412487	-0.356939	0.356954
C30	C	1.070063	-0.549314	0.356893
C31	C	1.070088	-0.631628	0.356909
C32	C	1.070251	-0.930719	0.356949
C33	C	1.013163	-0.899410	0.414312
C34	C	1.012892	-0.813792	0.414133
C35	C	1.070170	-0.782337	0.356930
C36	C	1.049041	-0.813472	0.278878
C37	C	1.048673	-0.899117	0.279221
C38	C	1.148593	-0.899073	0.376950
C39	C	1.148132	-0.813422	0.378661
C40	C	1.070126	-0.698477	0.356914
C41	C	1.070293	-1.014579	0.356959
C42	C	1.263324	-0.356934	0.356954
C43	C	1.345638	-0.356948	0.356971
C44	C	1.070205	-0.356885	0.550077
C45	C	1.070223	-0.356877	0.632391
C46	C	1.070282	-0.163742	0.356953
C47	C	1.070333	-0.081428	0.356970
C48	C	1.070162	-0.356869	0.164505
C49	C	1.070287	-0.356668	0.082191
C50	C	1.070266	-0.356738	0.931482
C51	C	1.012801	-0.413780	0.900134
C52	C	1.012956	-0.414045	0.814516
C53	C	1.070244	-0.356807	0.783100
C54	C	1.148270	-0.377998	0.814206
C55	C	1.147949	-0.378372	0.899851
C56	C	1.050385	-0.278379	0.899905
C57	C	1.048649	-0.278832	0.814254
C58	C	1.070237	-0.356845	0.699240
C59	C	1.070279	-0.356702	1.015342
H60	H	0.634329	-0.241719	0.313119
H61	H	1.191125	-0.919319	0.335170
H62	H	1.167856	-0.920633	0.432895
H63	H	0.507099	-0.241388	0.313215
H64	H	1.088449	-0.919830	0.235023
C65	C	0.972493	-0.784587	0.255583
H66	H	0.953309	-0.753561	0.293312
H67	H	0.976923	-0.757245	0.211018
H68	H	0.940015	-0.825140	0.248063
H69	H	1.026082	-0.472127	0.794035
H70	H	0.507705	-0.378999	0.477766
H71	H	0.507954	-0.451397	0.277877
C72	C	1.030724	-0.785348	0.492319
H73	H	1.038198	-0.826136	0.524479
H74	H	1.074247	-0.756047	0.490818
H75	H	0.990707	-0.756324	0.509907
C76	C	0.641116	-0.257836	0.456652
H77	H	0.622112	-0.245130	0.503889
H78	H	0.693569	-0.257689	0.458304
H79	H	0.624632	-0.222856	0.421180
H80	H	0.506120	-0.312363	0.242242
C81	C	0.642512	-0.387846	0.495297
H82	H	0.674072	-0.423734	0.473631
H83	H	0.669289	-0.360307	0.531084
H84	H	0.601997	-0.411887	0.518421
C85	C	0.934798	-0.396121	0.786098
H86	H	0.902664	-0.388617	0.826897
H87	H	0.936386	-0.352592	0.756841
H88	H	0.917117	-0.436108	0.757035
H89	H	1.089313	-0.793097	0.234972
H90	H	0.633741	-0.312665	0.241661
H91	H	1.192217	-0.338629	0.920590
H92	H	1.164065	-0.793071	0.436103
C93	C	1.207668	-0.323644	0.786716
H94	H	1.185357	-0.287460	0.755948
H95	H	1.230277	-0.300119	0.827841
H96	H	1.244011	-0.349822	0.759385
H97	H	1.026252	-0.919970	0.472374
H98	H	0.955448	-0.920990	0.401230
C99	C	1.170710	-0.455754	0.926853
H100	H	1.180061	-0.486666	0.885480
H101	H	1.214139	-0.451997	0.956095
H102	H	1.131960	-0.476345	0.955632
C103	C	0.934451	-0.786187	0.396224
H104	H	0.902628	-0.827316	0.389024
H105	H	0.916660	-0.757044	0.436071
H106	H	0.935670	-0.757179	0.352513
C107	C	1.171433	-0.454560	0.785252
H108	H	1.133664	-0.473713	0.754216
H109	H	1.215997	-0.450160	0.757908
H110	H	1.178911	-0.487048	0.825777
C111	C	1.208631	-0.784507	0.326327
H112	H	1.187038	-0.752961	0.290376
H113	H	1.244345	-0.757714	0.353945
H114	H	1.231823	-0.825018	0.302355
C115	C	0.641125	-0.494353	0.389853
H116	H	0.671911	-0.472072	0.426079
H117	H	0.600010	-0.516982	0.413331
H118	H	0.668443	-0.530673	0.363623
C119	C	0.974862	-0.252297	0.929063
H120	H	0.954746	-0.288958	0.960771
H121	H	0.980940	-0.207501	0.955737
H122	H	0.942299	-0.244357	0.888669
C123	C	0.971086	-0.257235	0.786780
H124	H	0.951939	-0.295572	0.756447
H125	H	0.939349	-0.249991	0.827928
H126	H	0.974123	-0.212821	0.758997
H127	H	0.635026	-0.452008	0.278892
C128	C	0.499968	-0.494375	0.388839
H129	H	0.540938	-0.518762	0.410767
H130	H	0.470859	-0.471976	0.426308
H131	H	0.470844	-0.529265	0.362552
C132	C	0.498824	-0.261603	0.461529
H133	H	0.467103	-0.241456	0.424890
H134	H	0.472171	-0.267710	0.506309
H135	H	0.539228	-0.229051	0.469527
C136	C	0.971310	-0.926187	0.256342
H137	H	0.940402	-0.884842	0.246929
H138	H	0.975101	-0.955432	0.212927
H139	H	0.950693	-0.954977	0.295067
C140	C	1.101068	-0.218368	0.785373
H141	H	1.136973	-0.239985	0.753801
H142	H	1.073495	-0.182636	0.758614
H143	H	1.125092	-0.195191	0.825894
C144	C	1.106916	-0.220963	0.927303
H145	H	1.142464	-0.244590	0.957839
H146	H	1.130994	-0.199090	0.886134
H147	H	1.082163	-0.183795	0.954861
C148	C	1.030349	-0.491768	0.929209
H149	H	0.995369	-0.525889	0.910008
H150	H	1.078575	-0.505683	0.913930
H151	H	1.027917	-0.491844	0.981634
H152	H	0.954768	-0.400655	0.920720
