data_functionalizedCrystal
_audit_creation_method	'MofGen! by Chris Wilmer'
_symmetry_space_group_name_H-M	'P1'
_symmetry_Int_Tables_number	1
_symmetry_cell_setting	triclinic
loop_
_symmetry_equiv_pos_as_xyz
  x,y,z
_cell_length_a	15.944493
_cell_length_b	15.944551
_cell_length_c	13.930277
_cell_angle_alpha	89.994493
_cell_angle_beta	89.993349
_cell_angle_gamma	83.486891
loop_
_atom_site_label
_atom_site_type_symbol
_atom_site_fract_x
_atom_site_fract_y
_atom_site_fract_z
O1	O	1.114558	0.108099	-0.079820
O2	O	0.870002	0.121507	-0.079825
O3	O	0.998958	-0.007473	-0.079814
O4	O	0.985601	0.237079	-0.079831
O5	O	0.998940	-0.007476	0.079848
O6	O	0.869984	0.121504	0.079837
O7	O	1.114540	0.108097	0.079842
Zn8	Zn	0.992259	0.114800	0.105189
Zn9	Zn	0.992283	0.114803	-0.105172
O10	O	0.985584	0.237077	0.079830
C11	C	0.838698	0.120957	0.000005
C12	C	0.745449	0.119314	0.000004
C13	C	0.509689	0.195235	-0.000003
C14	C	0.459122	0.154293	0.078726
C15	C	0.574728	0.116270	0.000006
C16	C	0.459144	0.154277	-0.078688
C17	C	0.409819	0.113336	0.000003
C18	C	0.525389	0.075349	0.078799
C19	C	0.525415	0.075345	-0.078685
C20	C	0.474880	0.034345	0.000062
C21	C	0.669728	0.117963	0.000008
C22	C	0.314821	0.111637	0.000008
C23	C	0.998395	-0.038768	0.000017
C24	C	0.996732	-0.132014	0.000018
C25	C	0.912826	-0.346853	0.000003
C26	C	0.951780	-0.407880	0.078727
C27	C	0.993725	-0.302739	0.000010
C28	C	0.951817	-0.407861	-0.078688
C29	C	0.990814	-0.467651	-0.000001
C30	C	1.032702	-0.362538	0.078799
C31	C	1.032727	-0.362512	-0.078686
C32	C	1.071741	-0.423521	0.000057
C33	C	0.995399	-0.207737	0.000018
C34	C	0.989146	-0.562652	-0.000002
C35	C	1.145844	0.108646	0.000009
C36	C	1.239092	0.110289	0.000004
C37	C	0.986147	0.268372	-0.000003
C38	C	0.987809	0.361617	-0.000010
N39	N	0.992249	0.114797	0.248755
N40	N	0.992299	0.114800	-0.248738
C41	C	0.935178	0.171893	0.701019
C42	C	1.049410	0.057707	0.700999
C43	C	1.049400	0.057704	0.600503
C44	C	0.992279	0.114798	0.550261
C45	C	0.935168	0.171894	0.600514
C46	C	1.106515	0.000615	0.550242
C47	C	1.106508	0.000611	0.449740
C48	C	1.049383	0.057701	0.399496
C49	C	0.992269	0.114799	0.449756
C50	C	0.935148	0.171892	0.399514
C51	C	0.878030	0.228987	0.449771
C52	C	0.878043	0.228984	0.550270
C53	C	1.049370	0.057703	0.298997
C54	C	0.935138	0.171893	0.299008
H55	H	0.430177	0.187639	0.145279
N56	N	1.164847	-0.057698	0.601579
N57	N	1.163708	-0.135343	0.590387
H58	H	1.204905	-0.176526	0.626655
H59	H	0.917597	-0.427929	-0.145247
N60	N	1.107655	-0.000622	0.247608
N61	N	1.080931	-0.052737	0.191547
H62	H	1.122081	-0.093935	0.155233
N63	N	1.156050	-0.465143	0.000131
N64	N	1.180458	-0.514078	0.067132
H65	H	1.240001	-0.543475	0.067190
H66	H	0.845675	-0.313532	0.000080
H67	H	0.459415	-0.033726	0.000113
N68	N	1.075574	-0.337492	0.162397
N69	N	1.104870	-0.391739	0.221933
H70	H	1.135145	-0.374049	0.280976
H71	H	0.888620	0.218383	0.258107
N72	N	0.529311	0.280556	0.000103
N73	N	0.571752	0.306438	0.067085
H74	H	0.585614	0.366694	0.067166
H75	H	0.554210	0.042020	0.145424
H76	H	1.066922	-0.342388	-0.145243
H77	H	0.554368	0.042023	-0.145242
N78	N	0.908839	-0.433094	0.162213
N79	N	0.833341	-0.405315	0.176238
H80	H	0.803008	-0.423120	0.235197
H81	H	0.831525	0.275476	0.408853
N82	N	0.422855	0.196139	-0.162171
N83	N	0.430799	0.272269	-0.176182
H84	H	0.405172	0.301841	-0.235138
H85	H	0.831540	0.275469	0.591196
H86	H	0.888671	0.218377	0.741942
H87	H	1.095920	0.011227	0.741909
N88	N	1.164883	-0.057685	0.398423
N89	N	1.215897	-0.108636	0.443294
H90	H	1.257134	-0.149800	0.407051
