data_functionalizedCrystal
_audit_creation_method	'MofGen! by Chris Wilmer'
_symmetry_space_group_name_H-M	'P1'
_symmetry_Int_Tables_number	1
_symmetry_cell_setting	triclinic
loop_
_symmetry_equiv_pos_as_xyz
  x,y,z
_cell_length_a	14.809374
_cell_length_b	18.878441
_cell_length_c	14.809374
_cell_angle_alpha	67.424181
_cell_angle_beta	81.157713
_cell_angle_gamma	55.130942
loop_
_atom_site_label
_atom_site_type_symbol
_atom_site_fract_x
_atom_site_fract_y
_atom_site_fract_z
Zr1	Zr	0.906971	0.734527	-0.236522
O2	O	0.773535	0.862899	-0.348945
O3	O	0.947875	0.592698	-0.202054
O4	O	0.967297	0.710379	-0.376403
O5	O	0.738794	0.768959	-0.037072
O6	O	1.120141	0.706639	-0.398067
O7	O	0.754113	0.745218	-0.174596
O8	O	1.085398	0.496129	-0.086189
O9	O	0.773537	0.979469	-0.348950
O10	O	1.079388	0.653227	-0.203527
O11	O	0.953889	0.673737	-0.084726
O12	O	0.976757	0.812291	-0.290000
O13	O	0.851258	0.832800	-0.171199
Zr14	Zr	1.126309	0.766427	-0.051738
Zr15	Zr	1.150741	0.728562	-0.271074
Zr16	Zr	0.882540	0.772392	-0.017186
Zr17	Zr	0.906974	0.920444	-0.236530
Zr18	Zr	1.126306	0.580511	-0.051730
O19	O	1.085406	0.908257	-0.086206
O20	O	1.120144	0.854417	-0.398074
O21	O	0.738797	0.916738	-0.037078
O22	O	1.259745	0.638056	0.060685
O23	O	1.294483	0.584216	-0.251182
O24	O	0.913136	0.646537	0.109813
O25	O	1.294486	0.731995	-0.251189
O26	O	1.065983	0.790576	0.088143
O27	O	0.913139	0.794316	0.109807
O28	O	1.279167	0.755737	-0.113664
O29	O	0.967302	0.974728	-0.376415
O30	O	1.065979	0.526227	0.088154
O31	O	1.259743	0.521485	0.060690
O32	O	1.279163	0.491388	-0.113653
O33	O	0.754118	1.009567	-0.174608
O34	O	0.947882	1.004826	-0.202072
O35	O	1.056524	0.688664	0.001739
O36	O	1.182022	0.668154	-0.117062
O37	O	1.079391	0.827218	-0.203534
O38	O	0.953893	0.847727	-0.084734
C39	C	1.016636	0.517924	-0.144120
C40	C	1.016635	0.438998	-0.144117
C41	C	0.711722	0.757938	-0.100911
C42	C	0.608235	0.760471	-0.086243
C43	C	1.082152	0.088334	-0.206156
C44	C	1.082146	0.162496	-0.206156
C45	C	1.016638	0.210276	-0.144137
C46	C	0.951124	0.183896	-0.082122
C47	C	0.951125	0.109739	-0.082128
C48	C	0.951128	0.338460	-0.082112
C49	C	0.951128	0.412620	-0.082104
C50	C	1.082149	0.391217	-0.206140
C51	C	1.082150	0.317060	-0.206146
C52	C	1.016637	0.290684	-0.144129
C53	C	0.570118	0.749170	-0.151705
C54	C	0.463159	0.751787	-0.136546
C55	C	1.321559	0.743016	-0.187349
C56	C	1.425045	0.740484	-0.202018
C57	C	1.047200	0.703114	-0.418486
C58	C	1.057572	0.687039	-0.511600
C59	C	1.016644	0.983030	-0.144140
C60	C	1.016646	1.061957	-0.144144
C61	C	1.011284	0.758779	-0.596009
C62	C	1.022003	0.742166	-0.692248
C63	C	0.986080	0.797841	0.130226
C64	C	0.975708	0.813916	0.223339
C65	C	1.321554	0.510463	-0.187339
C66	C	1.425040	0.429004	-0.202004
C67	C	0.986076	0.565288	0.130236
C68	C	0.975703	0.502436	0.223353
C69	C	1.290995	0.557827	0.087016
C70	C	1.384108	0.492443	0.165465
C71	C	0.742286	0.943128	-0.375277
C72	C	0.649172	1.008512	-0.453726
C73	C	0.711726	0.990492	-0.100921
C74	C	0.608241	1.071950	-0.086256
C75	C	1.047204	0.935667	-0.418496
C76	C	1.057577	0.998518	-0.511613
C77	C	1.420064	0.382957	-0.254034
C78	C	1.517293	0.306425	-0.267832
C79	C	1.619494	0.275938	-0.229594
C80	C	1.624467	0.321992	-0.177562
C81	C	1.527241	0.398527	-0.163771
C82	C	1.024404	0.480714	0.312225
C83	C	1.014652	0.421670	0.399727
C84	C	0.956205	0.384344	0.398355
C85	C	0.907497	0.406072	0.309474
C86	C	0.917243	0.465120	0.221974
C87	C	1.493354	0.451032	0.140292
C88	C	1.580854	0.389605	0.213993
C89	C	1.559106	0.369586	0.312868
C90	C	1.449849	0.411004	0.338041
C91	C	1.362351	0.472434	0.264340
C92	C	0.539926	1.049932	-0.428552
C93	C	0.452426	1.111381	-0.502254
C94	C	0.474175	1.131405	-0.601128
C95	C	0.583432	1.089982	-0.626302
C96	C	0.670930	1.028539	-0.552601
C97	C	0.613217	1.118004	-0.034236
C98	C	0.515991	1.194552	-0.020461
C99	C	0.413790	1.225042	-0.058703
C100	C	0.408817	1.178984	-0.110731
C101	C	0.506042	1.102441	-0.124510
C102	C	1.116033	1.035826	-0.510210
C103	C	1.125801	1.094873	-0.597698
C104	C	1.077106	1.116616	-0.686588
C105	C	1.018649	1.079302	-0.687989
C106	C	1.008888	1.020251	-0.600503
H107	H	1.135501	0.049432	-0.256655
Br108	Br	1.205133	1.145506	-0.595772
H109	H	0.501975	1.064946	-0.166867
Br110	Br	0.304161	1.167584	-0.468068
Br111	Br	0.270105	1.220372	-0.162621
H112	H	0.696425	1.093187	-0.003086
Br113	Br	1.171042	0.198297	-0.290328
Br114	Br	0.502628	0.721116	-0.314138
Br115	Br	1.420351	0.383825	0.472234
Br116	Br	0.281851	1.328924	-0.039993
Br117	Br	1.214090	0.528625	0.298523
H118	H	1.054322	0.403986	0.472088
Br119	Br	0.355414	1.214795	-0.701141
Br120	Br	1.182129	1.006332	-0.389585
Br121	Br	0.932014	0.881651	-0.597720
H122	H	0.948278	0.336265	0.469610
Br123	Br	1.136863	0.564166	-0.509893
H124	H	0.897781	0.222807	-0.031629
H125	H	1.135497	0.278153	-0.256641
H126	H	0.928144	0.887639	-0.777686
H127	H	0.601127	1.106293	-0.706814
H128	H	1.085062	1.164701	-0.757818
Br129	Br	1.522900	0.478191	0.006111
H130	H	1.069573	0.668443	-0.691225
Br131	Br	1.763179	0.280603	-0.125670
Br132	Br	0.952558	1.108829	-0.808633
Br133	Br	1.729119	0.333405	0.179807
Br134	Br	1.281376	0.424317	-0.305943
Br135	Br	0.522767	1.257041	0.050152
H136	H	0.416615	0.763395	-0.069272
Br137	Br	1.534012	0.461007	-0.093148
H138	H	1.630362	0.319564	0.372870
H139	H	1.513222	0.268936	-0.310200
H140	H	0.561688	0.772079	-0.018973
Br141	Br	0.929539	0.969633	-0.602424
Br142	Br	0.510380	1.022770	-0.294372
H143	H	0.759881	0.994813	-0.573110
H144	H	1.135491	0.412696	-0.256636
H145	H	1.698654	0.213616	-0.240830
H146	H	0.897772	0.451531	-0.031614
H147	H	0.616670	0.737552	-0.218970
Br148	Br	0.862212	0.073947	0.002028
H149	H	0.859910	0.375673	0.308371
Br150	Br	0.862210	0.302669	0.002049
H151	H	1.071997	0.511099	0.313361
Br152	Br	0.851144	0.494589	0.101366
