data_functionalizedCrystal
_audit_creation_method	'MofGen! by Chris Wilmer'
_symmetry_space_group_name_H-M	'P1'
_symmetry_Int_Tables_number	1
_symmetry_cell_setting	triclinic
loop_
_symmetry_equiv_pos_as_xyz
  x,y,z
_cell_length_a	15.300062
_cell_length_b	12.759395
_cell_length_c	12.759387
_cell_angle_alpha	90.017394
_cell_angle_beta	99.650674
_cell_angle_gamma	99.649627
loop_
_atom_site_label
_atom_site_type_symbol
_atom_site_fract_x
_atom_site_fract_y
_atom_site_fract_z
Zn1	Zn	-0.359065	-1.678518	-0.666434
Zn2	Zn	-0.509903	-1.708783	-0.521180
Zn3	Zn	-0.359102	-1.502833	-0.490778
Zn4	Zn	-0.509829	-1.533158	-0.696803
O5	O	-0.434475	-1.605823	-0.593799
O6	O	-0.379089	-1.829556	-0.647180
O7	O	-0.489946	-1.681439	-0.370135
O8	O	-0.232891	-1.500781	-0.488647
O9	O	-0.489909	-1.851793	-0.540461
O10	O	-0.232863	-1.629855	-0.617701
O11	O	-0.379153	-1.530128	-0.347799
O12	O	-0.379081	-1.359832	-0.518094
O13	O	-0.489783	-1.552465	-0.839786
O14	O	-0.489820	-1.382111	-0.669460
O15	O	-0.379017	-1.659260	-0.817475
O16	O	-0.636100	-1.710844	-0.569909
O17	O	-0.636045	-1.581813	-0.698939
C18	C	-0.434447	-1.332850	-0.593774
C19	C	-0.434457	-1.216075	-0.593793
C20	C	-0.319246	-1.192939	-0.705174
C21	C	-0.261650	-1.126512	-0.760873
C22	C	-0.261662	-1.016793	-0.760886
C23	C	-0.319275	-0.973499	-0.705191
C24	C	-0.376871	-1.039926	-0.649492
C25	C	-0.376855	-1.149647	-0.649488
C26	C	-0.492076	-1.063061	-0.538107
C27	C	-0.492070	-1.172782	-0.538099
C28	C	-0.549689	-1.019768	-0.482412
C29	C	-0.607292	-1.086196	-0.426718
C30	C	-0.607278	-1.195921	-0.426708
C31	C	-0.549667	-1.239209	-0.482399
C32	C	-0.668796	-1.652932	-0.641041
C33	C	-0.769040	-1.673181	-0.661287
C34	C	-0.816034	-1.749835	-0.738028
C35	C	-0.910218	-1.768870	-0.757059
C36	C	-0.957417	-1.711259	-0.699344
C37	C	-0.910423	-1.634609	-0.622596
C38	C	-0.816229	-1.615566	-0.603569
C39	C	-0.957612	-1.576990	-0.564885
C40	C	-0.910618	-1.500340	-0.488137
C41	C	-0.816434	-1.481301	-0.469113
C42	C	-0.769235	-1.538912	-0.526828
C43	C	-1.051805	-1.596033	-0.583912
C44	C	-1.052001	-1.461764	-0.449453
C45	C	-0.957817	-1.442729	-0.430423
C46	C	-0.199239	-1.558559	-0.546395
C47	C	-0.098995	-1.538418	-0.526195
C48	C	-0.434388	-1.605869	-0.867815
C49	C	-0.434350	-1.605889	-0.984584
C50	C	-0.434494	-0.879860	-0.593817
C51	C	-0.434480	-0.996634	-0.593806
C52	C	-0.549656	-1.763510	-1.227255
C53	C	-0.607359	-1.842273	-1.184016
C54	C	-0.607393	-1.842245	-1.074302
C55	C	-0.549721	-1.763444	-1.007822
C56	C	-0.492018	-1.684680	-1.051060
C57	C	-0.491988	-1.684718	-1.160779
C58	C	-0.376648	-1.527125	-1.027823
C59	C	-0.376608	-1.527156	-1.137536
C60	C	-0.318976	-1.448324	-0.961343
C61	C	-0.261267	-1.369563	-1.004580
C62	C	-0.261234	-1.369594	-1.114302
C63	C	-0.318905	-1.448392	-1.180775
C64	C	-0.434497	-1.605825	-0.320836
C65	C	-0.434280	-1.605957	-0.204016
H66	H	-0.214757	-0.962706	-0.806234
H67	H	-0.654177	-1.250001	-0.381347
H68	H	-0.319272	-0.884157	-0.705197
H69	H	-0.319011	-1.448303	-0.872009
Br70	Br	-0.973990	-1.872875	-0.861227
Br71	Br	-0.549701	-0.870861	-0.482421
H72	H	-1.090059	-1.658438	-0.646406
Br73	Br	-0.751976	-1.827991	-0.816366
Br74	Br	-1.085240	-1.737257	-0.725009
H75	H	-0.692543	-1.523420	-0.511335
H76	H	-0.549626	-1.763548	-1.316590
Br77	Br	-0.183462	-1.185271	-0.836451
H78	H	-0.778171	-1.418880	-0.406629
H79	H	-0.919542	-1.380319	-0.367933
Br80	Br	-0.183003	-1.262632	-0.914356
H81	H	-1.090430	-1.414849	-0.402461
Br82	Br	-0.182923	-1.262691	-1.172974
Br83	Br	-0.318859	-1.448447	-1.329675
H84	H	-0.654375	-1.906386	-1.039097
H85	H	-0.654317	-1.906429	-1.238156
H86	H	-0.549762	-1.763421	-0.918489
H87	H	-0.319227	-1.282276	-0.705163
H88	H	-0.654191	-1.050936	-0.381371
H89	H	-0.549645	-1.328546	-0.482391
