data_functionalizedCrystal
_audit_creation_method	'MofGen! by Chris Wilmer'
_symmetry_space_group_name_H-M	'P1'
_symmetry_Int_Tables_number	1
_symmetry_cell_setting	triclinic
loop_
_symmetry_equiv_pos_as_xyz
  x,y,z
_cell_length_a	12.827893
_cell_length_b	12.827892
_cell_length_c	12.759393
_cell_angle_alpha	90.029972
_cell_angle_beta	90.020760
_cell_angle_gamma	90.015552
loop_
_atom_site_label
_atom_site_type_symbol
_atom_site_fract_x
_atom_site_fract_y
_atom_site_fract_z
Zn1	Zn	1.597685	-0.415978	0.594019
Zn2	Zn	2.097685	0.084022	1.094019
Zn3	Zn	1.597575	-0.590755	0.418341
Zn4	Zn	2.097575	-0.090755	0.918341
Zn5	Zn	1.422922	-0.416029	0.418355
Zn6	Zn	1.922922	0.083971	0.918355
Zn7	Zn	1.422912	-0.590678	0.593978
Zn8	Zn	1.922912	-0.090678	1.093978
O9	O	1.510273	-0.503360	0.506173
O10	O	2.010273	-0.003360	1.006173
O11	O	1.743906	-0.439173	0.570726
O12	O	2.243906	0.060827	1.070726
O13	O	1.574365	-0.567631	0.271321
O14	O	2.074365	-0.067631	0.771321
O15	O	1.446155	-0.269787	0.441680
O16	O	1.946155	0.230213	0.941680
O17	O	1.743825	-0.567582	0.441656
O18	O	2.243825	-0.067582	0.941656
O19	O	1.574553	-0.269749	0.570740
O20	O	2.074553	0.230251	1.070740
O21	O	1.446048	-0.439261	0.271332
O22	O	1.946048	0.060739	0.771332
O23	O	1.276684	-0.439186	0.441640
O24	O	1.776684	0.060814	0.941640
O25	O	1.446138	-0.567450	0.741005
O26	O	1.946138	-0.067450	1.241005
O27	O	1.276677	-0.567500	0.570670
O28	O	1.776677	-0.067500	1.070670
O29	O	1.574543	-0.439099	0.741035
O30	O	2.074543	0.060901	1.241035
O31	O	1.574355	-0.736981	0.441617
O32	O	2.074355	-0.236981	0.941617
O33	O	1.446031	-0.736924	0.570657
O34	O	1.946031	-0.236924	1.070657
C35	C	1.238763	-0.503341	0.506153
C36	C	1.738763	-0.003341	1.006153
C37	C	1.122610	-0.503358	0.506170
C38	C	1.622610	-0.003358	1.006170
C39	C	0.950741	-0.566817	0.442235
C40	C	1.450741	-0.066817	0.942235
C41	C	1.070792	-0.566801	0.442217
C42	C	1.570792	-0.066801	0.942217
C43	C	1.510208	-0.774870	0.506154
C44	C	2.010208	-0.274870	1.006154
C45	C	1.510276	-0.891023	0.506181
C46	C	2.010276	-0.391023	1.006181
C47	C	1.573782	-0.942706	0.570101
C48	C	2.073782	-0.442706	1.070101
C49	C	1.573854	-1.062756	0.570130
C50	C	2.073854	-0.562756	1.070130
C51	C	1.782843	-0.503380	0.506194
C52	C	2.282843	-0.003380	1.006194
C53	C	1.898996	-0.503389	0.506203
C54	C	2.398996	-0.003389	1.006203
C55	C	1.510351	-0.503260	0.780207
C56	C	2.010351	-0.003260	1.280207
C57	C	1.510385	-0.503217	0.896983
C58	C	2.010385	-0.003217	1.396983
C59	C	1.510367	-0.230790	0.506216
C60	C	2.010367	0.269210	1.006216
C61	C	1.510407	-0.114637	0.506234
C62	C	2.010407	0.385363	1.006234
C63	C	1.510255	-0.503385	0.233206
C64	C	2.010255	-0.003385	0.733206
C65	C	1.510425	-0.503133	0.116430
C66	C	2.010425	-0.003133	0.616430
C67	C	1.577250	-0.436374	0.951863
C68	C	2.077250	0.063626	1.451863
C69	C	1.577268	-0.436329	1.061587
C70	C	2.077268	0.063671	1.561587
C71	C	1.443552	-0.569979	1.061543
C72	C	1.943552	-0.069979	1.561543
C73	C	1.443529	-0.570018	0.951821
C74	C	1.943529	-0.070018	1.451821
H75	H	1.115291	-0.621109	0.387458
H76	H	1.615291	-0.121109	0.887458
O77	O	1.638814	-1.115610	0.635459
O78	O	2.138814	-0.615610	1.135459
C79	C	1.697769	-1.044054	0.694887
C80	C	2.197769	-0.544054	1.194887
H81	H	1.701441	-0.966253	0.651907
H82	H	2.201441	-0.466253	1.151907
H83	H	1.780086	-1.075593	0.706157
H84	H	2.280086	-0.575593	1.206157
H85	H	1.659453	-1.032453	0.774648
H86	H	2.159453	-0.532453	1.274648
O87	O	1.069424	-0.438715	0.571563
O88	O	1.569424	0.061285	1.071563
C89	C	1.006336	-0.498358	0.639289
C90	C	1.506336	0.001642	1.139289
H91	H	0.990063	-0.577526	0.602087
H92	H	1.490063	-0.077526	1.102087
H93	H	0.929553	-0.455890	0.653385
H94	H	1.429553	0.044110	1.153385
H95	H	1.048377	-0.509887	0.717158
H96	H	1.548377	-0.009887	1.217158
H97	H	0.943573	-0.449070	0.560949
H98	H	1.443573	0.050930	1.060949
H99	H	1.628097	-0.898079	0.624809
H100	H	2.128097	-0.398079	1.124809
H101	H	1.456037	-1.070198	0.451502
H102	H	1.956037	-0.570198	0.951502
H103	H	1.455953	-0.935653	0.451483
H104	H	1.955953	-0.435653	0.951483
O105	O	1.642217	-0.371381	0.898755
O106	O	2.142217	0.128619	1.398755
C107	C	1.701254	-0.312391	0.970727
C108	C	2.201254	0.187609	1.470727
H109	H	1.658467	-0.308744	1.048934
H110	H	2.158467	0.191256	1.548934
H111	H	1.712423	-0.230067	0.939042
H112	H	2.212423	0.269933	1.439042
H113	H	1.780611	-0.350660	0.982404
H114	H	2.280611	0.149340	1.482404
O115	O	1.642072	-0.371284	1.114940
O116	O	2.142072	0.128716	1.614940
C117	C	1.582613	-0.303772	1.178421
C118	C	2.082613	0.196228	1.678421
H119	H	1.500304	-0.297326	1.145342
H120	H	2.000304	0.202674	1.645342
H121	H	1.620437	-0.223352	1.179677
H122	H	2.120437	0.276648	1.679677
H123	H	1.579019	-0.336043	1.261575
H124	H	2.079019	0.163957	1.761575
H125	H	1.389123	-0.624369	1.106205
H126	H	1.889123	-0.124369	1.606205
O127	O	1.378686	-0.635105	0.898550
O128	O	1.878686	-0.135105	1.398550
C129	C	1.401472	-0.739252	0.925363
C130	C	1.901472	-0.239252	1.425363
H131	H	1.484959	-0.744528	0.955541
H132	H	1.984959	-0.244528	1.455541
H133	H	1.392439	-0.790900	0.853191
H134	H	1.892439	-0.290900	1.353191
H135	H	1.345445	-0.766543	0.989034
H136	H	1.845445	-0.266543	1.489034
O137	O	0.897524	-0.631728	0.377064
O138	O	1.397524	-0.131728	0.877064
C139	C	0.834388	-0.699225	0.436830
C140	C	1.334388	-0.199225	0.936830
H141	H	0.867387	-0.705804	0.519531
H142	H	1.367387	-0.205804	1.019531
H143	H	0.833009	-0.779601	0.398696
H144	H	1.333009	-0.279601	0.898696
H145	H	0.751716	-0.666852	0.440593
H146	H	1.251716	-0.166852	0.940593
