data_functionalizedCrystal
_audit_creation_method	'MofGen! by Chris Wilmer'
_symmetry_space_group_name_H-M	'P1'
_symmetry_Int_Tables_number	1
_symmetry_cell_setting	triclinic
loop_
_symmetry_equiv_pos_as_xyz
  x,y,z
_cell_length_a	19.851628
_cell_length_b	14.560438
_cell_length_c	14.560438
_cell_angle_alpha	60.005799
_cell_angle_beta	89.999744
_cell_angle_gamma	60.003548
loop_
_atom_site_label
_atom_site_type_symbol
_atom_site_fract_x
_atom_site_fract_y
_atom_site_fract_z
Zr1	Zr	0.648930	1.005297	-0.120428
O2	O	0.541382	1.196868	-0.267040
O3	O	0.681896	0.813717	-0.075503
O4	O	0.681901	1.005305	-0.267079
O5	O	0.541376	1.005277	0.075677
O6	O	0.792750	1.005323	-0.267087
O7	O	0.541376	1.005279	-0.075464
O8	O	0.792740	0.662607	0.075607
O9	O	0.541386	1.347993	-0.267018
O10	O	0.778685	0.892534	-0.056326
O11	O	0.695960	0.892519	0.056475
O12	O	0.695966	1.118089	-0.169081
O13	O	0.613241	1.118074	-0.056280
Zr14	Zr	0.825721	1.005322	0.120611
Zr15	Zr	0.825721	1.005326	-0.120441
Zr16	Zr	0.648930	1.005293	0.120624
Zr17	Zr	0.648937	1.246325	-0.120393
Zr18	Zr	0.825714	0.764294	0.120576
O19	O	0.792756	1.196902	0.075686
O20	O	0.792756	1.196908	-0.267059
O21	O	0.541382	1.196862	0.075705
O22	O	0.933270	0.813751	0.267223
O23	O	0.933270	0.813757	-0.075522
O24	O	0.681896	0.813711	0.267242
O25	O	0.933275	1.005342	-0.075494
O26	O	0.792750	1.005314	0.267262
O27	O	0.681902	1.005296	0.267270
O28	O	0.933276	1.005340	0.075647
O29	O	0.681911	1.348015	-0.267029
O30	O	0.792740	0.662604	0.267212
O31	O	0.933266	0.662626	0.267201
O32	O	0.933266	0.662629	0.075597
O33	O	0.541386	1.347990	-0.075414
O34	O	0.681911	1.348012	-0.075424
O35	O	0.778685	0.892530	0.169264
O36	O	0.861410	0.892545	0.056463
O37	O	0.778692	1.118100	-0.056292
O38	O	0.695967	1.118085	0.056509
C39	C	0.737317	0.703821	0.000047
C40	C	0.737314	0.601498	0.000032
C41	C	0.676251	0.636616	-0.083185
C42	C	0.676265	0.540427	-0.083128
C43	C	0.798406	0.374003	0.083372
C44	C	0.798396	0.470191	0.083310
C45	C	0.605732	0.732700	-0.179310
C46	C	0.605745	0.636511	-0.179254
C47	C	0.516187	1.005274	0.000108
C48	C	0.441135	1.005262	0.000114
C49	C	0.304870	0.882309	0.061579
C50	C	0.237424	0.943783	0.106167
C51	C	0.303703	1.005296	0.000100
C52	C	0.237415	0.943814	-0.044450
C53	C	0.170954	1.005319	0.000086
C54	C	0.237245	1.066770	0.044749
C55	C	0.237247	1.066784	-0.105926
C56	C	0.169788	1.128347	-0.061365
C57	C	0.380178	1.005279	0.000110
C58	C	0.094478	1.005346	0.000078
C59	C	0.958464	1.005345	0.000075
C60	C	1.033517	1.005357	0.000069
C61	C	0.737326	1.005315	-0.301428
C62	C	0.737326	1.005316	-0.403761
C63	C	0.737335	1.306798	0.000136
C64	C	0.737338	1.409121	0.000151
C65	C	0.694144	1.123052	-0.510694
C66	C	0.694146	1.123045	-0.606843
C67	C	0.780513	0.887558	-0.489111
C68	C	0.780515	0.887566	-0.392965
C69	C	0.644278	1.259008	-0.578667
C70	C	0.644280	1.259002	-0.674816
C71	C	0.737326	1.005304	0.301611
C72	C	0.737326	1.005303	0.403944
C73	C	0.958456	0.703856	0.000031
C74	C	1.033505	0.601546	0.000010
C75	C	0.737317	0.703816	0.301567
C76	C	0.737314	0.601491	0.403885
C77	C	0.958456	0.703851	0.301550
C78	C	1.033505	0.601539	0.403862
C79	C	0.516196	1.306768	-0.301367
C80	C	0.441146	1.409080	-0.403679
C81	C	0.516196	1.306763	0.000152
C82	C	0.441147	1.409073	0.000173
C83	C	0.737334	1.306803	-0.301384
C84	C	0.737337	1.409128	-0.403702
C85	C	1.025567	0.553494	-0.058884
C86	C	1.096077	0.457375	-0.058926
C87	C	1.174524	0.409304	-0.000067
C88	C	1.182461	0.457366	0.058829
C89	C	1.111951	0.553489	0.058864
C90	C	1.111938	0.553500	0.393028
C91	C	1.182462	0.457380	0.489152
C92	C	1.174551	0.409294	0.596109
C93	C	1.096110	0.457343	0.606941
C94	C	1.025588	0.553467	0.510818
C95	C	0.362713	1.457131	-0.392845
C96	C	0.292190	1.553281	-0.488969
C97	C	0.300101	1.601371	-0.595926
C98	C	0.378542	1.553317	-0.606758
C99	C	0.449064	1.457175	-0.510635
C100	C	0.449084	1.457136	0.059057
C101	C	0.378574	1.553280	0.059073
C102	C	0.300127	1.601355	0.000210
C103	C	0.292191	1.553289	-0.058682
C104	C	0.362700	1.457152	-0.058703
C105	C	0.780496	0.553420	0.510828
C106	C	0.780487	0.457281	0.606963
C107	C	0.694113	0.457288	0.489197
C108	C	0.694118	0.553432	0.393065
C109	C	0.830366	0.553411	0.578821
C110	C	0.830357	0.457272	0.674955
H111	H	0.549647	0.792364	-0.162510
H112	H	0.677182	1.301196	-0.725735
Br113	Br	1.085387	0.392070	0.752106
Br114	Br	1.122739	0.618684	0.138807
H115	H	0.961726	0.592568	0.519655
H116	H	0.658946	0.592581	0.305989
Br117	Br	1.122698	0.618745	0.247884
Br118	Br	0.919112	0.618715	-0.138779
Br119	Br	1.288907	0.392189	0.474425
H120	H	0.578253	1.311188	-0.726998
H121	H	1.231981	0.331023	0.674370
Br122	Br	1.085287	0.392167	-0.138859
Br123	Br	0.555540	1.391917	0.138949
H124	H	0.112050	1.232424	-0.113349
H125	H	0.618065	0.636480	-0.255712
Br126	Br	1.270209	0.278849	-0.000126
Br127	Br	0.690503	1.346037	-0.578685
Br128	Br	0.351954	1.391883	-0.247701
H129	H	0.385052	1.592400	0.107033
Br130	Br	0.185744	1.618475	-0.474242
H131	H	0.242671	1.679656	-0.674187
H132	H	1.246342	0.418212	0.106750
H133	H	0.237952	1.118719	-0.195568
Br134	Br	0.389265	1.618594	-0.751923
Br135	Br	0.401261	0.708988	0.148338
Br136	Br	0.238240	1.153346	0.107709
Br137	Br	0.555507	1.391969	-0.525359
H138	H	0.580435	1.301191	-0.569928
H139	H	0.356226	1.418023	-0.106650
H140	H	0.802634	0.643410	0.578854
H141	H	0.242721	1.679635	0.000236
Br142	Br	0.185720	1.618543	-0.138558
H143	H	0.236754	0.891812	-0.082123
Br144	Br	0.236301	0.857154	0.255607
H145	H	0.658943	0.418148	0.480401
H146	H	0.894209	0.517291	0.570082
Br147	Br	0.775530	0.517462	0.759853
H148	H	0.896382	0.367266	0.727136
H149	H	0.848126	0.441586	0.151064
H150	H	0.545522	0.647315	-0.170940
Br151	Br	0.839126	0.727762	-0.474469
Br152	Br	0.881301	0.195801	0.196385
H153	H	0.815687	0.791695	-0.305898
Br154	Br	0.615847	0.837674	-0.316198
