data_functionalizedCrystal
_audit_creation_method	'MofGen! by Chris Wilmer'
_symmetry_space_group_name_H-M	'P1'
_symmetry_Int_Tables_number	1
_symmetry_cell_setting	triclinic
loop_
_symmetry_equiv_pos_as_xyz
  x,y,z
_cell_length_a	16.109301
_cell_length_b	19.188930
_cell_length_c	15.186229
_cell_angle_alpha	89.991369
_cell_angle_beta	89.998834
_cell_angle_gamma	83.303183
loop_
_atom_site_label
_atom_site_type_symbol
_atom_site_fract_x
_atom_site_fract_y
_atom_site_fract_z
O1	O	1.102833	0.089744	-0.073190
O2	O	0.860734	0.100913	-0.073204
O3	O	0.988770	-0.006311	-0.073180
O4	O	0.974797	0.196968	-0.073215
O5	O	0.988761	-0.006312	0.073278
O6	O	0.860725	0.100912	0.073253
O7	O	1.102824	0.089743	0.073267
Zn8	Zn	0.981773	0.095327	0.096513
Zn9	Zn	0.981785	0.095329	-0.096450
O10	O	0.974788	0.196967	0.073243
C11	C	0.829757	0.100460	0.000023
C12	C	0.737466	0.099103	0.000019
C13	C	0.428271	0.158294	0.000024
C14	C	0.514987	0.159575	0.000019
C15	C	0.535282	0.032358	0.000029
C16	C	0.448568	0.031077	0.000028
C17	C	0.395064	0.094048	0.000030
C18	C	0.568495	0.096609	0.000025
C19	C	0.662516	0.097997	0.000020
C20	C	0.301037	0.092659	0.000034
C21	C	0.988313	-0.032323	0.000052
C22	C	0.986955	-0.109831	0.000059
C23	C	1.062082	-0.154579	0.000068
C24	C	1.060806	-0.227406	0.000053
C25	C	0.984398	-0.255481	0.000048
C26	C	0.909261	-0.210723	0.000035
C27	C	0.910540	-0.137898	0.000040
N28	N	0.925991	-0.363623	0.049887
N29	N	0.924782	-0.432805	0.049884
C30	C	0.980543	-0.474899	0.000030
N31	N	1.037571	-0.445200	-0.049809
N32	N	1.038783	-0.376012	-0.049802
C33	C	0.983004	-0.334447	0.000042
C34	C	1.054291	-0.598615	0.000022
C35	C	1.053012	-0.671443	0.000003
C36	C	0.901465	-0.654758	-0.000007
C37	C	0.902747	-0.581932	0.000004
C38	C	0.979162	-0.553865	0.000023
C39	C	1.133802	0.090196	0.000038
C40	C	1.226093	0.091553	0.000037
C41	C	0.975245	0.222980	0.000009
C42	C	0.976604	0.300487	-0.000004
N43	N	0.981771	0.095326	0.228206
C44	C	1.038484	0.047864	0.453940
C45	C	1.038486	0.047863	0.546129
C46	C	0.925072	0.142792	0.546117
C47	C	0.925066	0.142790	0.453929
C48	C	0.981777	0.095326	0.407843
C49	C	0.981785	0.095328	0.592220
C50	C	0.981787	0.095327	0.692176
C51	C	0.981774	0.095326	0.307880
N52	N	0.981791	0.095328	0.771857
H53	H	0.578855	-0.018910	0.000029
H54	H	0.542020	0.211890	0.000013
O55	O	1.093494	0.001786	0.591044
C56	C	1.143801	-0.040258	0.733068
C57	C	1.081446	0.011954	0.682313
H58	H	1.134094	-0.032046	0.806868
H59	H	1.133174	-0.096200	0.715019
H60	H	1.210345	-0.031149	0.714882
H61	H	1.014877	0.002909	0.700471
H62	H	1.092146	0.067877	0.700366
H63	H	0.839252	-0.677616	-0.000015
H64	H	1.084660	0.009216	0.416419
O65	O	1.126072	-0.714814	0.000049
C66	C	1.276518	-0.723674	0.000024
C67	C	1.193839	-0.674475	-0.000009
H68	H	1.331329	-0.691080	-0.000041
H69	H	1.279755	-0.758185	0.061326
H70	H	1.279672	-0.758188	-0.061258
H71	H	1.190630	-0.639917	0.061232
H72	H	1.190636	-0.640012	-0.061351
O73	O	0.870072	0.188873	0.591023
C74	C	0.819786	0.230925	0.733038
C75	C	0.882131	0.178709	0.682294
H76	H	0.829502	0.222716	0.806839
H77	H	0.830415	0.286865	0.714961
H78	H	0.753238	0.221819	0.714869
H79	H	0.948703	0.187751	0.700436
H80	H	0.871429	0.122787	0.700376
H81	H	0.421531	-0.021243	0.000030
H82	H	0.841570	-0.545497	0.000002
O83	O	0.837579	-0.094397	-0.000119
C84	C	0.751104	-0.002448	-0.075963
C85	C	0.833753	-0.051685	-0.075905
H86	H	0.747992	0.032107	-0.137220
H87	H	0.696239	-0.034986	-0.076030
H88	H	0.747921	0.032019	-0.014639
H89	H	0.837018	-0.086162	-0.137219
H90	H	0.888579	-0.019106	-0.075793
H91	H	1.121986	-0.263847	0.000057
O92	O	0.870060	0.188995	0.409185
C93	C	0.820865	0.310386	0.380988
C94	C	0.883217	0.258142	0.431699
H95	H	0.831468	0.366302	0.399186
H96	H	0.830599	0.302291	0.307173
H97	H	0.754319	0.301237	0.399112
H98	H	0.949787	0.267260	0.413649
H99	H	0.873410	0.266250	0.505502
O100	O	0.376332	0.219479	-0.000140
C101	C	0.332494	0.327839	-0.076007
C102	C	0.391346	0.258564	-0.075937
H103	H	0.344625	0.359466	-0.137273
H104	H	0.264795	0.315932	-0.076062
H105	H	0.344534	0.359427	-0.014692
H106	H	0.379382	0.226942	-0.137242
H107	H	0.459026	0.270521	-0.075836
H108	H	1.124306	-0.131732	0.000080
H109	H	0.847050	-0.233587	0.000029
O110	O	1.128464	-0.571261	-0.000088
C111	C	1.217875	-0.498736	-0.075978
C112	C	1.133839	-0.529653	-0.075951
H113	H	1.222256	-0.465101	-0.137316
H114	H	1.222272	-0.465024	-0.014723
H115	H	1.271342	-0.543242	-0.075941
H116	H	1.080324	-0.485192	-0.076019
H117	H	1.129514	-0.563383	-0.137201
