data_functionalizedCrystal
_audit_creation_method	'MofGen! by Chris Wilmer'
_symmetry_space_group_name_H-M	'P1'
_symmetry_Int_Tables_number	1
_symmetry_cell_setting	triclinic
loop_
_symmetry_equiv_pos_as_xyz
  x,y,z
_cell_length_a	23.532355
_cell_length_b	10.489716
_cell_length_c	22.610064
_cell_angle_alpha	89.999703
_cell_angle_beta	89.990547
_cell_angle_gamma	83.678317
loop_
_atom_site_label
_atom_site_type_symbol
_atom_site_fract_x
_atom_site_fract_y
_atom_site_fract_z
O1	O	0.756306	0.154509	-0.049099
O2	O	0.590586	0.176980	-0.049117
O3	O	0.677224	-0.019983	-0.049110
O4	O	0.669668	0.351472	-0.049106
O5	O	0.677198	-0.019983	0.049259
O6	O	0.590560	0.176980	0.049252
O7	O	0.756280	0.154509	0.049270
Zn8	Zn	0.673416	0.165745	0.064879
Zn9	Zn	0.673450	0.165744	-0.064726
O10	O	0.669642	0.351472	0.049263
C11	C	0.569353	0.176419	0.000065
C12	C	0.506123	0.174730	0.000058
C13	C	0.676643	-0.067496	0.000073
C14	C	0.674945	-0.209069	0.000067
C15	C	0.728074	-0.308532	0.000078
C16	C	0.700012	-0.384947	-0.048424
C17	C	0.699974	-0.384911	0.048560
C18	C	0.646905	-0.283620	-0.048475
C19	C	0.646875	-0.283579	0.048552
C20	C	0.618774	-0.359944	0.000038
C21	C	0.114026	0.164119	0.053704
C22	C	0.054616	0.162512	0.053706
O23	O	0.023879	0.161638	0.099308
N24	N	0.024916	0.161715	0.000085
C25	C	0.054630	0.162512	-0.053542
O26	O	0.023913	0.161686	-0.099150
C27	C	0.114039	0.164110	-0.053543
C28	C	0.143735	0.164920	0.000081
C29	C	0.143722	0.164927	0.107324
C30	C	0.203127	0.166536	0.107321
C31	C	0.232837	0.167337	0.053699
C32	C	0.203141	0.166529	0.000079
C33	C	0.143753	0.164898	-0.107169
C34	C	0.203166	0.166495	-0.107166
C35	C	0.232862	0.167304	-0.053542
C36	C	0.292256	0.168938	-0.053546
N37	N	0.321956	0.169735	0.000074
C38	C	0.292246	0.168934	0.053697
C39	C	-0.070134	0.159155	-0.053534
C40	C	-0.129543	0.157567	-0.053533
C41	C	-0.129553	0.157564	0.053715
C42	C	-0.070143	0.159162	0.053713
C43	C	-0.040434	0.159952	0.000087
C44	C	0.417003	0.172314	0.053688
C45	C	0.476414	0.173929	0.053680
C46	C	0.476419	0.173925	-0.053567
C47	C	0.417013	0.172317	-0.053560
C48	C	0.387307	0.171508	0.000072
O49	O	0.323031	0.169808	-0.099125
O50	O	0.322972	0.169744	0.099298
C51	C	0.777513	0.155070	0.000087
C52	C	0.840743	0.156759	0.000090
C53	C	0.670223	0.398985	0.000079
C54	C	0.671921	0.540558	0.000080
N55	N	0.673397	0.165744	0.153332
N56	N	0.673473	0.165735	-0.153179
C57	C	0.708302	0.242680	0.561978
C58	C	0.708309	0.242677	0.623898
O59	O	0.737964	0.308083	0.655921
N60	N	0.673461	0.165730	0.654869
C61	C	0.638607	0.088771	0.623917
O62	O	0.608967	0.023320	0.655946
C63	C	0.638603	0.088768	0.561998
C64	C	0.673450	0.165730	0.531030
C65	C	0.743147	0.319635	0.531010
C66	C	0.743139	0.319639	0.469094
C67	C	0.708286	0.242690	0.438147
C68	C	0.673442	0.165735	0.469114
C69	C	0.603753	0.011804	0.531047
C70	C	0.603753	0.011807	0.469124
C71	C	0.638599	0.088769	0.438156
C72	C	0.638581	0.088790	0.376251
N73	N	0.673430	0.165737	0.345280
C74	C	0.708282	0.242687	0.376228
C75	C	0.638618	0.088781	0.753950
C76	C	0.638618	0.088790	0.815868
C77	C	0.708322	0.242694	0.815845
C78	C	0.708318	0.242691	0.753926
C79	C	0.673467	0.165728	0.722979
C80	C	0.708263	0.242692	0.246201
C81	C	0.708250	0.242694	0.184279
C82	C	0.638549	0.088785	0.184308
C83	C	0.638559	0.088787	0.246224
C84	C	0.673421	0.165744	0.277168
O85	O	0.608944	0.023413	0.344189
O86	O	0.737924	0.308114	0.344191
H87	H	0.774287	-0.285411	0.000034
H88	H	0.722451	-0.429197	-0.089426
C89	C	0.565410	-0.072857	0.435086
N90	N	0.536529	-0.136621	0.409451
H91	H	0.610236	0.026135	0.841077
C92	C	0.509076	0.174813	0.112674
N93	N	0.533675	0.175475	0.157107
C94	C	0.556296	-0.390852	-0.000004
N95	N	0.509238	-0.414134	-0.000038
C96	C	0.616586	-0.223776	0.103947
N97	N	0.593774	-0.178735	0.145675
C98	C	0.600225	0.004129	0.280289
N99	N	0.571356	-0.059649	0.305943
H100	H	0.227301	0.167187	0.150988
H101	H	0.392822	0.171667	0.097360
H102	H	0.722403	-0.429139	0.089564
H103	H	0.624500	-0.239562	-0.089526
C104	C	0.600269	0.004127	0.719914
N105	N	0.571384	-0.059633	0.694282
C106	C	-0.037483	0.160040	0.112703
N107	N	-0.012885	0.160696	0.157138
C108	C	0.111049	0.164064	0.166318
N109	N	0.086444	0.163429	0.210756
H110	H	-0.153753	0.156910	0.097377
C111	C	0.746656	0.327345	0.719867
N112	N	0.775536	0.391106	0.694217
C113	C	0.746588	0.327356	0.150218
N114	N	0.775465	0.391118	0.124566
H115	H	-0.153717	0.156928	-0.097199
H116	H	0.610171	0.026138	0.159099
C117	C	-0.037460	0.160040	-0.112531
N118	N	-0.012853	0.160705	-0.156968
H119	H	0.119584	0.164237	-0.150836
C120	C	0.746606	0.327361	0.280231
N121	N	0.775483	0.391144	0.305862
H122	H	0.500619	0.174582	-0.097225
H123	H	0.227352	0.167139	-0.150836
C124	C	0.384346	0.171441	-0.112549
N125	N	0.359745	0.170770	-0.156981
H126	H	0.771517	0.382304	0.443886
H127	H	0.771531	0.382297	0.556201
C128	C	0.746665	0.327331	0.849899
N129	N	0.775543	0.391075	0.875551
H130	H	0.575378	-0.050869	0.556250
