data_functionalizedCrystal
_audit_creation_method	'MofGen! by Chris Wilmer'
_symmetry_space_group_name_H-M	'P1'
_symmetry_Int_Tables_number	1
_symmetry_cell_setting	triclinic
loop_
_symmetry_equiv_pos_as_xyz
  x,y,z
_cell_length_a	19.188905
_cell_length_b	27.732048
_cell_length_c	18.266242
_cell_angle_alpha	89.988683
_cell_angle_beta	89.983837
_cell_angle_gamma	82.888605
loop_
_atom_site_label
_atom_site_type_symbol
_atom_site_fract_x
_atom_site_fract_y
_atom_site_fract_z
O1	O	0.925776	0.060290	-0.061009
O2	O	1.175776	0.310290	0.188991
O3	O	1.425776	0.560290	0.438991
O4	O	1.675776	0.810290	0.688991
O5	O	0.722410	0.068427	-0.060985
O6	O	0.972410	0.318427	0.189015
O7	O	1.222410	0.568427	0.439015
O8	O	1.472410	0.818427	0.689015
O9	O	0.830409	-0.006019	-0.060984
O10	O	1.080409	0.243981	0.189016
O11	O	1.330409	0.493981	0.439016
O12	O	1.580409	0.743981	0.689016
O13	O	0.817777	0.134736	-0.061011
O14	O	1.067777	0.384736	0.188989
O15	O	1.317777	0.634736	0.438989
O16	O	1.567777	0.884736	0.688989
O17	O	0.830391	-0.006023	0.060778
O18	O	1.080391	0.243977	0.310778
O19	O	1.330391	0.493977	0.560778
O20	O	1.580391	0.743977	0.810778
O21	O	0.722392	0.068423	0.060777
O22	O	0.972392	0.318423	0.310777
O23	O	1.222392	0.568423	0.560777
O24	O	1.472392	0.818423	0.810777
O25	O	0.925758	0.060287	0.060753
O26	O	1.175758	0.310287	0.310753
O27	O	1.425758	0.560287	0.560753
O28	O	1.675758	0.810287	0.810753
Zn29	Zn	0.824072	0.064354	0.080097
Zn30	Zn	1.074072	0.314354	0.330097
Zn31	Zn	1.324072	0.564354	0.580097
Zn32	Zn	1.574072	0.814354	0.830097
Zn33	Zn	0.824096	0.064359	-0.080330
Zn34	Zn	1.074096	0.314359	0.169670
Zn35	Zn	1.324096	0.564359	0.419670
Zn36	Zn	1.574096	0.814359	0.669670
O37	O	0.817759	0.134733	0.060751
O38	O	1.067759	0.384733	0.310751
O39	O	1.317759	0.634733	0.560751
O40	O	1.567759	0.884733	0.810751
C41	C	0.696391	0.068163	-0.000101
C42	C	0.946391	0.318163	0.249899
C43	C	1.196391	0.568163	0.499899
C44	C	1.446391	0.818163	0.749899
C45	C	0.618891	0.067379	-0.000091
C46	C	0.868891	0.317379	0.249909
C47	C	1.118891	0.567379	0.499909
C48	C	1.368891	0.817379	0.749909
C49	C	0.582512	0.067004	-0.066466
C50	C	0.832512	0.317004	0.183534
C51	C	1.082512	0.567004	0.433534
C52	C	1.332512	0.817004	0.683534
C53	C	0.509693	0.066261	-0.066475
C54	C	0.759693	0.316261	0.183525
C55	C	1.009693	0.566261	0.433525
C56	C	1.259693	0.816261	0.683525
C57	C	0.473258	0.065883	-0.000106
C58	C	0.723258	0.315883	0.249894
C59	C	0.973258	0.565883	0.499894
C60	C	1.223258	0.815883	0.749894
C61	C	0.509646	0.066261	0.066278
C62	C	0.759646	0.316261	0.316278
C63	C	1.009646	0.566261	0.566278
C64	C	1.259646	0.816261	0.816278
C65	C	0.582462	0.067009	0.066285
C66	C	0.832462	0.317009	0.316285
C67	C	1.082462	0.567009	0.566285
C68	C	1.332462	0.817009	0.816285
N69	N	0.364413	0.037200	0.049292
N70	N	0.614413	0.287200	0.299292
N71	N	0.864413	0.537200	0.549292
N72	N	1.114413	0.787200	0.799292
N73	N	0.295241	0.036489	0.049281
N74	N	0.545241	0.286489	0.299281
N75	N	0.795241	0.536489	0.549281
N76	N	1.045241	0.786489	0.799281
C77	C	0.253866	0.063631	-0.000123
C78	C	0.503866	0.313631	0.249877
C79	C	0.753866	0.563631	0.499877
C80	C	1.003866	0.813631	0.749877
N81	N	0.284277	0.091506	-0.049526
N82	N	0.534277	0.341506	0.200474
N83	N	0.784277	0.591506	0.450474
N84	N	1.034277	0.841506	0.700474
N85	N	0.353457	0.092215	-0.049517
N86	N	0.603457	0.342215	0.200483
N87	N	0.853457	0.592215	0.450483
N88	N	1.103457	0.842215	0.700483
C89	C	0.394301	0.065073	-0.000106
C90	C	0.644301	0.315073	0.249894
C91	C	0.894301	0.565073	0.499894
C92	C	1.144301	0.815073	0.749894
C93	C	0.138528	0.062451	-0.066511
C94	C	0.388528	0.312451	0.183489
C95	C	0.638528	0.562451	0.433489
C96	C	0.888528	0.812451	0.683489
C97	C	0.065707	0.061712	-0.066518
C98	C	0.315707	0.311712	0.183482
C99	C	0.565707	0.561712	0.433482
C100	C	0.815707	0.811712	0.683482
C101	C	0.065662	0.061707	0.066237
C102	C	0.315662	0.311707	0.316237
C103	C	0.565662	0.561707	0.566237
C104	C	0.815662	0.811707	0.816237
C105	C	0.138481	0.062452	0.066241
C106	C	0.388481	0.312452	0.316241
C107	C	0.638481	0.562452	0.566241
C108	C	0.888481	0.812452	0.816241
C109	C	0.174909	0.062822	-0.000135
C110	C	0.424909	0.312822	0.249865
C111	C	0.674909	0.562822	0.499865
C112	C	0.924909	0.812822	0.749865
C113	C	0.830135	-0.024029	-0.000101
C114	C	1.080135	0.225971	0.249899
C115	C	1.330135	0.475971	0.499899
C116	C	1.580135	0.725971	0.749899
C117	C	0.829336	-0.077686	-0.000095
C118	C	1.079336	0.172314	0.249905
C119	C	1.329336	0.422314	0.499905
C120	C	1.579336	0.672314	0.749905
C121	C	0.888130	-0.416325	-0.000140
C122	C	1.138130	-0.166325	0.249860
C123	C	1.388130	0.083675	0.499860
C124	C	1.638130	0.333675	0.749860
C125	C	0.885167	-0.617994	-0.000149
C126	C	1.135167	-0.367994	0.249851
C127	C	1.385167	-0.117994	0.499851
C128	C	1.635167	0.132006	0.749851
O129	O	0.938930	-0.649088	-0.000188
O130	O	1.188930	-0.399088	0.249812
O131	O	1.438930	-0.149088	0.499812
O132	O	1.688930	0.100912	0.749812
N133	N	0.821129	-0.637309	-0.000141
N134	N	1.071129	-0.387309	0.249859
N135	N	1.321129	-0.137309	0.499859
N136	N	1.571129	0.112691	0.749859
C137	C	0.757826	-0.606204	-0.000135
C138	C	1.007826	-0.356204	0.249865
C139	C	1.257826	-0.106204	0.499865
C140	C	1.507826	0.143796	0.749865
O141	O	0.703289	-0.627261	-0.000136
O142	O	0.953289	-0.377261	0.249864
O143	O	1.203289	-0.127261	0.499864
O144	O	1.453289	0.122739	0.749864
C145	C	0.760789	-0.404537	-0.000131
C146	C	1.010789	-0.154537	0.249869
C147	C	1.260789	0.095463	0.499869
C148	C	1.510789	0.345463	0.749869
C149	C	0.824832	-0.385224	-0.000131
C150	C	1.074832	-0.135224	0.249869
C151	C	1.324832	0.114776	0.499869
C152	C	1.574832	0.364776	0.749869
C153	C	0.952168	-0.397012	-0.000141
C154	C	1.202168	-0.147012	0.249859
C155	C	1.452168	0.102988	0.499859
C156	C	1.702168	0.352988	0.749859
C157	C	0.952908	-0.346598	-0.000135
C158	C	1.202908	-0.096598	0.249865
C159	C	1.452908	0.153402	0.499865
C160	C	1.702908	0.403402	0.749865
C161	C	0.889610	-0.315497	-0.000127
C162	C	1.139610	-0.065497	0.249873
C163	C	1.389610	0.184503	0.499873
C164	C	1.639610	0.434503	0.749873
C165	C	0.825572	-0.334810	-0.000125
C166	C	1.075572	-0.084810	0.249875
C167	C	1.325572	0.165190	0.499875
C168	C	1.575572	0.415190	0.749875
C169	C	0.697487	-0.373432	-0.000130
C170	C	0.947487	-0.123432	0.249870
C171	C	1.197487	0.126568	0.499870
C172	C	1.447487	0.376568	0.749870
C173	C	0.698234	-0.323013	-0.000131
C174	C	0.948234	-0.073013	0.249869
C175	C	1.198234	0.176987	0.499869
C176	C	1.448234	0.426987	0.749869
C177	C	0.762277	-0.303700	-0.000132
C178	C	1.012277	-0.053700	0.249868
C179	C	1.262277	0.196300	0.499868
C180	C	1.512277	0.446300	0.749868
C181	C	0.763014	-0.253295	-0.000110
C182	C	1.013014	-0.003295	0.249890
C183	C	1.263014	0.246705	0.499890
C184	C	1.513014	0.496705	0.749890
N185	N	0.827053	-0.233979	-0.000119
N186	N	1.077053	0.016021	0.249881
N187	N	1.327053	0.266021	0.499881
N188	N	1.577053	0.516021	0.749881
C189	C	0.890351	-0.265080	-0.000127
C190	C	1.140351	-0.015080	0.249873
C191	C	1.390351	0.234920	0.499873
C192	C	1.640351	0.484920	0.749873
C193	C	0.756275	-0.712083	-0.000136
C194	C	1.006275	-0.462083	0.249864
C195	C	1.256275	-0.212083	0.499864
C196	C	1.506275	0.037917	0.749864
C197	C	0.755534	-0.762499	-0.000136
C198	C	1.005534	-0.512499	0.249864
C199	C	1.255534	-0.262499	0.499864
C200	C	1.505534	-0.012499	0.749864
C201	C	0.882876	-0.774286	-0.000152
C202	C	1.132876	-0.524286	0.249848
C203	C	1.382876	-0.274286	0.499848
C204	C	1.632876	-0.024286	0.749848
C205	C	0.883616	-0.723868	-0.000147
C206	C	1.133616	-0.473868	0.249853
C207	C	1.383616	-0.223868	0.499853
C208	C	1.633616	0.026132	0.749853
C209	C	0.820313	-0.692767	-0.000145
C210	C	1.070313	-0.442767	0.249855
C211	C	1.320313	-0.192767	0.499855
C212	C	1.570313	0.057233	0.749855
C213	C	0.891900	-0.159206	-0.000113
C214	C	1.141900	0.090794	0.249887
C215	C	1.391900	0.340794	0.499887
C216	C	1.641900	0.590794	0.749887
C217	C	0.892634	-0.108787	-0.000103
C218	C	1.142634	0.141213	0.249897
C219	C	1.392634	0.391213	0.499897
C220	C	1.642634	0.641213	0.749897
C221	C	0.765293	-0.097006	-0.000091
C222	C	1.015293	0.152994	0.249909
C223	C	1.265293	0.402994	0.499909
C224	C	1.515293	0.652994	0.749909
C225	C	0.764558	-0.147420	-0.000097
C226	C	1.014558	0.102580	0.249903
C227	C	1.264558	0.352580	0.499903
C228	C	1.514558	0.602580	0.749903
C229	C	0.827867	-0.178520	-0.000110
C230	C	1.077867	0.071480	0.249890
C231	C	1.327867	0.321480	0.499890
C232	C	1.577867	0.571480	0.749890
O233	O	0.709280	-0.222172	-0.000080
O234	O	0.959280	0.027828	0.249920
O235	O	1.209280	0.277828	0.499920
O236	O	1.459280	0.527828	0.749920
O237	O	0.944880	-0.244014	-0.000142
O238	O	1.194880	0.005986	0.249858
O239	O	1.444880	0.255986	0.499858
O240	O	1.694880	0.505986	0.749858
C241	C	0.887390	-0.466739	-0.000146
C242	C	1.137390	-0.216739	0.249854
C243	C	1.387390	0.033261	0.499854
C244	C	1.637390	0.283261	0.749854
C245	C	0.823352	-0.486052	-0.000144
C246	C	1.073352	-0.236052	0.249856
C247	C	1.323352	0.013948	0.499856
C248	C	1.573352	0.263948	0.749856
C249	C	0.760054	-0.454951	-0.000136
C250	C	1.010054	-0.204951	0.249864
C251	C	1.260054	0.045049	0.499864
C252	C	1.510054	0.295049	0.749864
C253	C	0.822611	-0.536469	-0.000144
C254	C	1.072611	-0.286469	0.249856
C255	C	1.322611	-0.036469	0.499856
C256	C	1.572611	0.213531	0.749856
C257	C	0.885909	-0.567570	-0.000152
C258	C	1.135909	-0.317570	0.249848
C259	C	1.385909	-0.067570	0.499848
C260	C	1.635909	0.182430	0.749848
C261	C	0.949948	-0.548255	-0.000161
C262	C	1.199948	-0.298255	0.249839
C263	C	1.449948	-0.048255	0.499839
C264	C	1.699948	0.201745	0.749839
C265	C	0.950688	-0.497840	-0.000154
C266	C	1.200688	-0.247840	0.249846
C267	C	1.450688	0.002160	0.499846
C268	C	1.700688	0.252160	0.749846
C269	C	0.696015	-0.474267	-0.000128
C270	C	0.946015	-0.224267	0.249872
C271	C	1.196015	0.025733	0.499872
C272	C	1.446015	0.275733	0.749872
C273	C	0.695281	-0.524681	-0.000134
C274	C	0.945281	-0.274681	0.249866
C275	C	1.195281	-0.024681	0.499866
C276	C	1.445281	0.225319	0.749866
C277	C	0.758579	-0.555783	-0.000142
C278	C	1.008579	-0.305783	0.249858
C279	C	1.258579	-0.055783	0.499858
C280	C	1.508579	0.194217	0.749858
C281	C	0.951776	0.060550	-0.000133
C282	C	1.201776	0.310550	0.249867
C283	C	1.451776	0.560550	0.499867
C284	C	1.701776	0.810550	0.749867
C285	C	1.029277	0.061335	-0.000148
C286	C	1.279277	0.311335	0.249852
C287	C	1.529277	0.561335	0.499852
C288	C	1.779277	0.811335	0.749852
C289	C	0.818033	0.152742	-0.000133
C290	C	1.068033	0.402742	0.249867
C291	C	1.318033	0.652742	0.499867
C292	C	1.568033	0.902742	0.749867
C293	C	0.818831	0.206399	-0.000144
C294	C	1.068831	0.456399	0.249856
C295	C	1.318831	0.706399	0.499856
C296	C	1.568831	0.956399	0.749856
N297	N	0.824061	0.064350	0.189584
N298	N	1.074061	0.314350	0.439584
N299	N	1.324061	0.564350	0.689584
N300	N	1.574061	0.814350	0.939584
N301	N	0.824113	0.064359	-0.189817
N302	N	1.074113	0.314359	0.060183
N303	N	1.324113	0.564359	0.310183
N304	N	1.574113	0.814359	0.560183
C305	C	0.871898	0.031402	0.227893
C306	C	1.121898	0.281402	0.477893
C307	C	1.371898	0.531402	0.727893
C308	C	1.621898	0.781402	0.977893
C309	C	0.871903	0.031400	0.304538
C310	C	1.121903	0.281400	0.554538
C311	C	1.371903	0.531400	0.804538
C312	C	1.621903	0.781400	1.054538
C313	C	0.824076	0.064354	0.342871
C314	C	1.074076	0.314354	0.592871
C315	C	1.324076	0.564354	0.842871
C316	C	1.574076	0.814354	1.092871
C317	C	0.776230	0.097305	0.304552
C318	C	1.026230	0.347305	0.554552
C319	C	1.276230	0.597305	0.804552
C320	C	1.526230	0.847305	1.054552
C321	C	0.776222	0.097303	0.227909
C322	C	1.026222	0.347303	0.477909
C323	C	1.276222	0.597303	0.727909
C324	C	1.526222	0.847303	0.977909
N325	N	0.814728	0.107145	0.463196
N326	N	1.064728	0.357145	0.713196
N327	N	1.314728	0.607145	0.963196
N328	N	1.564728	0.857145	1.213196
N329	N	0.814739	0.107145	0.536004
N330	N	1.064739	0.357145	0.786004
N331	N	1.314739	0.607145	1.036004
N332	N	1.564739	0.857145	1.286004
C333	C	0.824096	0.064361	0.573793
C334	C	1.074096	0.314361	0.823793
C335	C	1.324096	0.564361	1.073793
C336	C	1.574096	0.814361	1.323793
N337	N	0.833454	0.021576	0.536024
N338	N	1.083454	0.271576	0.786024
N339	N	1.333454	0.521576	1.036024
N340	N	1.583454	0.771576	1.286024
N341	N	0.833446	0.021576	0.463209
N342	N	1.083446	0.271576	0.713209
N343	N	1.333446	0.521576	0.963209
N344	N	1.583446	0.771576	1.213209
C345	C	0.824079	0.064360	0.425978
C346	C	1.074079	0.314360	0.675978
C347	C	1.324079	0.564360	0.925978
C348	C	1.574079	0.814360	1.175978
C349	C	0.871941	0.031407	0.695210
C350	C	1.121941	0.281407	0.945210
C351	C	1.371941	0.531407	1.195210
C352	C	1.621941	0.781407	1.445210
C353	C	0.871940	0.031405	0.771856
C354	C	1.121940	0.281405	1.021856
C355	C	1.371940	0.531405	1.271856
C356	C	1.621940	0.781405	1.521856
C357	C	0.776271	0.097315	0.771868
C358	C	1.026271	0.347315	1.021868
C359	C	1.276271	0.597315	1.271868
C360	C	1.526271	0.847315	1.521868
C361	C	0.776268	0.097313	0.695224
C362	C	1.026268	0.347313	0.945224
C363	C	1.276268	0.597313	1.195224
C364	C	1.526268	0.847313	1.445224
C365	C	0.824107	0.064360	0.656899
C366	C	1.074107	0.314360	0.906899
C367	C	1.324107	0.564360	1.156899
C368	C	1.574107	0.814360	1.406899
H369	H	0.612167	0.067305	-0.120514
H370	H	0.862167	0.317305	0.129486
H371	H	1.112167	0.567305	0.379486
H372	H	1.362167	0.817305	0.629486
Br373	Br	0.460309	0.065753	-0.156560
Br374	Br	0.710309	0.315753	0.093440
Br375	Br	0.960309	0.565753	0.343440
Br376	Br	1.210309	0.815753	0.593440
H377	H	0.644469	-0.448949	-0.000123
H378	H	0.894469	-0.198949	0.249877
H379	H	1.144469	0.051051	0.499877
H380	H	1.394469	0.301051	0.749877
H381	H	0.646684	-0.297693	-0.000130
H382	H	0.896684	-0.047693	0.249870
H383	H	1.146684	0.202307	0.499870
H384	H	1.396684	0.452307	0.749870
H385	H	0.703383	-0.778219	-0.000123
H386	H	0.953383	-0.528219	0.249877
H387	H	1.203383	-0.278219	0.499877
H388	H	1.453383	-0.028219	0.749877
Br389	Br	0.977820	-0.201405	-0.000131
Br390	Br	1.227820	0.048595	0.249869
Br391	Br	1.477820	0.298595	0.499869
Br392	Br	1.727820	0.548595	0.749869
H393	H	0.910849	0.004568	0.196691
H394	H	1.160849	0.254568	0.446691
H395	H	1.410849	0.504568	0.696691
H396	H	1.660849	0.754568	0.946691
Br397	Br	0.936829	-0.013321	0.356539
Br398	Br	1.186829	0.236679	0.606539
Br399	Br	1.436829	0.486679	0.856539
Br400	Br	1.686829	0.736679	1.106539
H401	H	0.910892	0.004574	0.664004
H402	H	1.160892	0.254574	0.914004
H403	H	1.410892	0.504574	1.164004
H404	H	1.660892	0.754574	1.414004
H405	H	0.712409	-0.163145	-0.000076
H406	H	0.962409	0.086855	0.249924
H407	H	1.212409	0.336855	0.499924
H408	H	1.462409	0.586855	0.749924
Br409	Br	1.037608	-0.471639	-0.000160
Br410	Br	1.287608	-0.221639	0.249840
Br411	Br	1.537608	0.028361	0.499840
Br412	Br	1.787608	0.278361	0.749840
Br413	Br	1.039828	-0.320396	-0.000157
Br414	Br	1.289828	-0.070396	0.249843
Br415	Br	1.539828	0.179604	0.499843
Br416	Br	1.789828	0.429604	0.749843
Br417	Br	0.460200	0.065754	0.156351
Br418	Br	0.710200	0.315754	0.406351
Br419	Br	0.960200	0.565754	0.656351
Br420	Br	1.210200	0.815754	0.906351
H421	H	0.737288	0.124137	0.335766
H422	H	0.987288	0.374137	0.585766
H423	H	1.237288	0.624137	0.835766
H424	H	1.487288	0.874137	1.085766
Br425	Br	0.711295	0.142022	0.175913
Br426	Br	0.961295	0.392022	0.425913
Br427	Br	1.211295	0.642022	0.675913
Br428	Br	1.461295	0.892022	0.925913
H429	H	0.035997	0.061402	0.120276
H430	H	0.285997	0.311402	0.370276
H431	H	0.535997	0.561402	0.620276
H432	H	0.785997	0.811402	0.870276
Br433	Br	0.936861	-0.013319	0.823852
Br434	Br	1.186861	0.236681	1.073852
Br435	Br	1.436861	0.486681	1.323852
Br436	Br	1.686861	0.736681	1.573852
Br437	Br	0.187970	0.062957	-0.156590
Br438	Br	0.437970	0.312957	0.093410
Br439	Br	0.687970	0.562957	0.343410
Br440	Br	0.937970	0.812957	0.593410
H441	H	1.001487	-0.573586	-0.000164
H442	H	1.251487	-0.323586	0.249836
H443	H	1.501487	-0.073586	0.499836
H444	H	1.751487	0.176414	0.749836
Br445	Br	0.631838	0.067518	0.156371
Br446	Br	0.881838	0.317518	0.406371
Br447	Br	1.131838	0.567518	0.656371
Br448	Br	1.381838	0.817518	0.906371
Br449	Br	0.670355	-0.669881	-0.000135
Br450	Br	0.920355	-0.419881	0.249865
Br451	Br	1.170355	-0.169881	0.499865
Br452	Br	1.420355	0.080119	0.749865
Br453	Br	0.970534	-0.697664	-0.000146
Br454	Br	1.220534	-0.447664	0.249854
Br455	Br	1.470534	-0.197664	0.499854
Br456	Br	1.720534	0.052336	0.749854
Br457	Br	0.187857	0.062959	0.156325
Br458	Br	0.437857	0.312959	0.406325
Br459	Br	0.687857	0.562959	0.656325
Br460	Br	0.937857	0.812959	0.906325
H461	H	0.737317	0.124145	0.664030
H462	H	0.987317	0.374145	0.914030
H463	H	1.237317	0.624145	1.164030
H464	H	1.487317	0.874145	1.414030
H465	H	0.036087	0.061409	-0.120570
H466	H	0.286087	0.311409	0.129430
H467	H	0.536087	0.561409	0.379430
H468	H	0.786087	0.811409	0.629430
Br469	Br	0.979556	-0.082581	-0.000103
Br470	Br	1.229556	0.167419	0.249897
Br471	Br	1.479556	0.417419	0.499897
Br472	Br	1.729556	0.667419	0.749897
Br473	Br	0.679393	-0.054788	-0.000080
Br474	Br	0.929393	0.195212	0.249920
Br475	Br	1.179393	0.445212	0.499920
Br476	Br	1.429393	0.695212	0.749920
H477	H	0.737327	0.124145	0.803078
H478	H	0.987327	0.374145	1.053078
H479	H	1.237327	0.624145	1.303078
H480	H	1.487327	0.874145	1.553078
H481	H	1.003716	-0.422330	-0.000150
H482	H	1.253716	-0.172330	0.249850
H483	H	1.503716	0.077670	0.499850
H484	H	1.753716	0.327670	0.749850
H485	H	0.643125	-0.540400	-0.000127
H486	H	0.893125	-0.290400	0.249873
H487	H	1.143125	-0.040400	0.499873
H488	H	1.393125	0.209600	0.749873
H489	H	0.934415	-0.799617	-0.000158
H490	H	1.184415	-0.549617	0.249842
H491	H	1.434415	-0.299617	0.499842
H492	H	1.684415	-0.049617	0.749842
Br493	Br	0.610566	-0.399629	-0.000132
Br494	Br	0.860566	-0.149629	0.249868
Br495	Br	1.110566	0.100371	0.499868
Br496	Br	1.360566	0.350371	0.749868
