data_functionalizedCrystal
_audit_creation_method	'MofGen! by Chris Wilmer'
_symmetry_space_group_name_H-M	'P1'
_symmetry_Int_Tables_number	1
_symmetry_cell_setting	triclinic
loop_
_symmetry_equiv_pos_as_xyz
  x,y,z
_cell_length_a	10.868271
_cell_length_b	11.026607
_cell_length_c	11.026607
_cell_angle_alpha	108.586017
_cell_angle_beta	89.997040
_cell_angle_gamma	89.996513
loop_
_atom_site_label
_atom_site_type_symbol
_atom_site_fract_x
_atom_site_fract_y
_atom_site_fract_z
O1	O	0.102319	-1.726733	-0.533624
O2	O	0.435653	-1.393400	-0.200291
O3	O	0.768986	-1.060066	0.133042
O4	O	0.102321	-1.360153	-0.472861
O5	O	0.435655	-1.026820	-0.139527
O6	O	0.768988	-0.693486	0.193806
O7	O	0.102316	-1.513061	-0.319952
O8	O	0.435649	-1.179728	0.013381
O9	O	0.768983	-0.846395	0.346714
O10	O	0.102325	-1.573825	-0.686532
O11	O	0.435658	-1.240492	-0.353199
O12	O	0.768991	-0.907158	-0.019866
O13	O	-0.102329	-1.513044	-0.319941
O14	O	0.231005	-1.179710	0.013392
O15	O	0.564338	-0.846377	0.346725
O16	O	-0.102323	-1.360135	-0.472850
O17	O	0.231010	-1.026802	-0.139516
O18	O	0.564343	-0.693469	0.193817
O19	O	-0.102325	-1.726715	-0.533613
O20	O	0.231008	-1.393382	-0.200280
O21	O	0.564341	-1.060049	0.133053
Zn22	Zn	-0.134816	-1.543423	-0.503230
Zn23	Zn	0.198517	-1.210089	-0.169896
Zn24	Zn	0.531850	-0.876756	0.163437
Zn25	Zn	0.134812	-1.543446	-0.503244
Zn26	Zn	0.468145	-1.210113	-0.169911
Zn27	Zn	0.801479	-0.876779	0.163422
O28	O	-0.102320	-1.573807	-0.686521
O29	O	0.231013	-1.240474	-0.353188
O30	O	0.564347	-0.907141	-0.019855
C31	C	-0.000001	-1.312485	-0.461645
C32	C	0.333332	-0.979151	-0.128312
C33	C	0.666666	-0.645818	0.205021
C34	C	-0.000000	-1.170471	-0.428228
C35	C	0.333333	-0.837137	-0.094895
C36	C	0.666667	-0.503804	0.238438
C37	C	-0.000005	-1.501843	-0.272287
C38	C	0.333328	-1.168509	0.061046
C39	C	0.666662	-0.835176	0.394379
C40	C	-0.000000	-1.468426	-0.130273
C41	C	0.333333	-1.135092	0.203060
C42	C	0.666666	-0.801759	0.536393
N43	N	-0.318830	-1.543416	-0.503221
N44	N	0.014503	-1.210082	-0.169888
N45	N	0.347836	-0.876749	0.163446
C46	C	-0.569836	-1.543439	-0.503240
C47	C	-0.236503	-1.210105	-0.169907
C48	C	0.096830	-0.876772	0.163427
C49	C	-0.430159	-1.543423	-0.503232
C50	C	-0.096825	-1.210089	-0.169899
C51	C	0.236508	-0.876756	0.163434
N52	N	0.318826	-1.543461	-0.503245
N53	N	0.652159	-1.210127	-0.169912
N54	N	0.985493	-0.876794	0.163422
C55	C	-0.000001	-1.774384	-0.544828
C56	C	0.333333	-1.441051	-0.211495
C57	C	0.666666	-1.107717	0.121838
C58	C	0.000007	-1.916398	-0.578245
C59	C	0.333340	-1.583064	-0.244912
C60	C	0.666673	-1.249731	0.088421
C61	C	0.000003	-1.116821	-0.520498
C62	C	0.333336	-0.783488	-0.187165
C63	C	0.666670	-0.450155	0.146169
C64	C	0.000004	-0.970043	-0.485962
C65	C	0.333337	-0.636709	-0.152629
C66	C	0.666670	-0.303376	0.180704
C67	C	0.000003	-1.585026	-0.734187
C68	C	0.333337	-1.251693	-0.400853
C69	C	0.666670	-0.918359	-0.067520
C70	C	0.000007	-1.618443	-0.876200
C71	C	0.333340	-1.285109	-0.542867
C72	C	0.666674	-0.951776	-0.209534
C73	C	0.000001	-1.560695	-0.076624
C74	C	0.333334	-1.227362	0.256709
C75	C	0.666668	-0.894029	0.590043
C76	C	0.000006	-1.526160	0.070155
C77	C	0.333339	-1.192826	0.403488
C78	C	0.666672	-0.859493	0.736821
H79	H	-0.000002	-1.179555	-0.625061
H80	H	0.333332	-0.846221	-0.291728
H81	H	0.666665	-0.512888	0.041606
Br82	Br	0.000024	-1.351868	0.174697
Br83	Br	0.333358	-1.018534	0.508031
Br84	Br	0.666691	-0.685201	0.841364
Br85	Br	-0.000014	-0.865500	-0.311670
Br86	Br	0.333319	-0.532167	0.021663
Br87	Br	0.666652	-0.198833	0.354996
H88	H	0.000029	-1.107738	-0.323666
H89	H	0.333362	-0.774404	0.009668
H90	H	0.666696	-0.441071	0.343001
Br91	Br	0.000013	-1.734981	-0.181171
Br92	Br	0.333346	-1.401647	0.152163
Br93	Br	0.666679	-1.068314	0.485496
Br94	Br	-0.000013	-1.020937	-0.752539
Br95	Br	0.333321	-0.687604	-0.419205
Br96	Br	0.666654	-0.354270	-0.085872
H97	H	0.000099	-1.723013	0.061072
H98	H	0.333432	-1.389680	0.394405
H99	H	0.666765	-1.056346	0.727739
Br100	Br	0.000018	-1.294141	-0.025727
Br101	Br	0.333352	-0.960807	0.307607
Br102	Br	0.666685	-0.627474	0.640940
