data_functionalizedCrystal
_audit_creation_method	'MofGen! by Chris Wilmer'
_symmetry_space_group_name_H-M	'P1'
_symmetry_Int_Tables_number	1
_symmetry_cell_setting	triclinic
loop_
_symmetry_equiv_pos_as_xyz
  x,y,z
_cell_length_a	13.635800
_cell_length_b	9.109307
_cell_length_c	11.102291
_cell_angle_alpha	82.515494
_cell_angle_beta	108.605752
_cell_angle_gamma	68.235001
loop_
_atom_site_label
_atom_site_type_symbol
_atom_site_fract_x
_atom_site_fract_y
_atom_site_fract_z
V1	V	2.072302	-0.225379	0.420843
O2	O	2.034493	0.010809	0.387537
O3	O	2.076938	-0.446869	0.442293
O4	O	2.060441	-0.221922	0.593288
O5	O	2.051104	-0.215695	0.235496
V6	V	2.308781	-0.197127	0.395719
O7	O	2.214520	-0.287352	0.475956
O8	O	2.391662	-0.135154	0.340607
O9	O	2.192542	0.024362	0.374269
O10	O	2.405289	-0.433316	0.429026
O11	O	2.388677	-0.206811	0.581066
O12	O	2.209039	-0.200585	0.223274
V13	V	2.572302	-0.225379	0.420843
O14	O	2.534493	0.010809	0.387537
O15	O	2.576938	-0.446869	0.442293
O16	O	2.560441	-0.221922	0.593288
O17	O	2.551104	-0.215695	0.235496
V18	V	2.808781	-0.197127	0.395719
O19	O	2.714520	-0.287352	0.475956
O20	O	2.891662	-0.135154	0.340607
O21	O	2.692542	0.024362	0.374269
O22	O	2.905289	-0.433316	0.429026
O23	O	2.888677	-0.206811	0.581066
O24	O	2.709039	-0.200585	0.223274
C25	C	2.006054	-0.500863	0.441932
C26	C	2.050570	-0.681934	0.460619
C27	C	1.985010	-0.213918	0.634539
C28	C	2.016144	-0.212557	0.775674
C29	C	2.095097	0.078348	0.374628
C30	C	2.040201	0.259417	0.355949
C31	C	2.116141	-0.208593	0.182017
C32	C	2.074625	-0.209946	0.040880
C33	C	2.506054	-0.500863	0.441932
C34	C	2.550570	-0.681934	0.460619
C35	C	2.485010	-0.213918	0.634539
C36	C	2.516144	-0.212557	0.775674
C37	C	2.123370	-0.220041	0.849338
C38	C	2.152610	-0.218730	0.981941
C39	C	1.967388	-0.202457	0.967205
C40	C	1.938147	-0.203756	0.834602
C41	C	2.230309	-0.229443	0.857849
C42	C	2.259549	-0.228132	0.990452
C43	C	2.595097	0.078348	0.374628
C44	C	2.540201	0.259417	0.355949
C45	C	2.616141	-0.208593	0.182017
C46	C	2.574625	-0.209946	0.040880
C47	C	2.664102	-0.775272	0.476651
C48	C	2.705949	-0.945412	0.494230
C49	C	2.634260	-1.022209	0.495767
C50	C	2.520719	-0.928859	0.479738
C51	C	2.478876	-0.758724	0.462169
C52	C	2.599163	0.352754	0.339921
C53	C	2.547589	0.522893	0.322348
C54	C	2.437055	0.599690	0.320814
C55	C	2.378089	0.506341	0.336840
C56	C	2.429660	0.336207	0.354402
C57	C	2.623370	-0.220041	0.849338
C58	C	2.652610	-0.218730	0.981941
C59	C	2.467388	-0.202457	0.967205
C60	C	2.438147	-0.203756	0.834602
C61	C	2.730309	-0.229443	0.857849
C62	C	2.759549	-0.228132	0.990452
H63	H	1.997287	-0.652268	0.252012
H64	H	2.269296	-0.112482	1.006938
H65	H	1.850836	-0.197664	0.774629
O66	O	2.372242	0.245777	0.370027
C67	C	2.198647	0.247373	0.382488
C68	C	2.263564	0.349962	0.364811
H69	H	2.110759	0.331569	0.378250
H70	H	2.250359	0.149489	0.482403
H71	H	2.186739	0.185114	0.299798
H72	H	2.275486	0.412328	0.447425
H73	H	2.211822	0.447751	0.264850
O74	O	2.675091	-1.187524	0.513012
C75	C	2.816144	-1.458320	0.655247
C76	C	2.770030	-1.271143	0.635878
H77	H	2.892894	-1.525982	0.754592
H78	H	2.844234	-1.490410	0.571997
H79	H	2.745376	-1.497142	0.653523
H80	H	2.840741	-1.232189	0.637632
H81	H	2.741907	-1.239157	0.719127
H82	H	1.903889	-0.195289	1.015200
O83	O	2.232246	-0.097430	0.787450
C84	C	2.265305	0.144289	0.792440
C85	C	2.263131	-0.005120	0.872318
H86	H	2.290297	0.218943	0.861028
H87	H	2.176351	0.224980	0.710493
H88	H	2.330960	0.099477	0.746671
H89	H	2.197531	0.039545	0.918174
H90	H	2.352127	-0.085780	0.954193
H91	H	2.093496	-0.770259	0.564564
O92	O	2.297977	-0.374421	0.844689
C93	C	2.454978	-0.645612	0.955812
C94	C	2.378448	-0.481495	0.970905
H95	H	2.520041	-0.732240	1.057843
H96	H	2.502596	-0.621645	0.893530
H97	H	2.398889	-0.704492	0.904879
H98	H	2.434453	-0.422530	1.021871
H99	H	2.330822	-0.505568	1.033138
H100	H	2.731936	-0.118889	0.798693
H101	H	2.340037	-0.345906	1.056146
H102	H	2.462359	-0.991413	0.480993
O103	O	2.797977	-0.374421	0.844689
C104	C	2.954978	-0.645612	0.955812
C105	C	2.878448	-0.481495	0.970905
H106	H	3.020041	-0.732240	1.057843
H107	H	3.002596	-0.621645	0.893530
H108	H	2.898889	-0.704492	0.904879
H109	H	2.934453	-0.422530	1.021871
H110	H	2.830822	-0.505568	1.033138
H111	H	2.722489	-0.712766	0.475394
H112	H	2.350836	-0.197664	0.774629
H113	H	2.798401	-1.021394	0.507276
O114	O	2.391665	-0.193701	1.024548
C115	C	2.278136	-0.040961	1.132900
C116	C	2.363912	-0.050693	1.068026
H117	H	2.255652	0.074670	1.168046
H118	H	2.318675	-0.154380	1.221122
H119	H	2.196508	-0.035919	1.057466
H120	H	2.445562	-0.055683	1.143361
H121	H	2.323281	0.062724	0.979781
H122	H	2.386427	-0.682738	0.449109
H123	H	2.689167	0.290250	0.341168
H124	H	2.595620	0.598875	0.309303
H125	H	2.395075	0.738225	0.306511
O126	O	2.771191	-0.090111	1.009915
C127	C	2.762944	0.168021	0.910618
C128	C	2.749759	0.011774	0.888394
H129	H	2.745598	0.250454	0.812382
H130	H	2.854207	0.131869	0.983954
H131	H	2.698703	0.237466	0.951971
H132	H	2.813934	-0.057744	0.846997
H133	H	2.658460	0.048035	0.815105
H134	H	2.288086	0.568895	0.335586
H135	H	2.840037	-0.345906	1.056146
