data_functionalizedCrystal
_audit_creation_method	'MofGen! by Chris Wilmer'
_symmetry_space_group_name_H-M	'P1'
_symmetry_Int_Tables_number	1
_symmetry_cell_setting	triclinic
loop_
_symmetry_equiv_pos_as_xyz
  x,y,z
_cell_length_a	17.077404
_cell_length_b	12.827892
_cell_length_c	17.077396
_cell_angle_alpha	89.975123
_cell_angle_beta	89.980499
_cell_angle_gamma	90.015617
loop_
_atom_site_label
_atom_site_type_symbol
_atom_site_fract_x
_atom_site_fract_y
_atom_site_fract_z
Zn1	Zn	1.200096	-0.416027	-0.443862
Zn2	Zn	1.700096	0.083973	0.056138
Zn3	Zn	1.200020	-0.590789	-0.312605
Zn4	Zn	1.700020	-0.090789	0.187395
Zn5	Zn	1.068827	-0.416063	-0.312610
Zn6	Zn	1.568827	0.083937	0.187390
Zn7	Zn	1.068812	-0.590727	-0.443828
Zn8	Zn	1.568812	-0.090727	0.056172
O9	O	1.134439	-0.503402	-0.378226
O10	O	1.634439	-0.003402	0.121774
O11	O	1.309932	-0.439220	-0.426463
O12	O	1.809932	0.060780	0.073537
O13	O	1.182591	-0.567653	-0.202758
O14	O	1.682591	-0.067653	0.297242
O15	O	1.086278	-0.269823	-0.330038
O16	O	1.586278	0.230177	0.169962
O17	O	1.309877	-0.567617	-0.330028
O18	O	1.809877	-0.067617	0.169972
O19	O	1.182720	-0.269796	-0.426468
O20	O	1.682720	0.230204	0.073532
O21	O	1.086205	-0.439282	-0.202763
O22	O	1.586205	0.060718	0.297237
O23	O	0.958978	-0.439222	-0.330005
O24	O	1.458978	0.060778	0.169995
O25	O	1.086253	-0.567511	-0.553680
O26	O	1.586253	-0.067511	-0.053680
O27	O	0.958968	-0.567547	-0.426410
O28	O	1.458968	-0.067547	0.073590
O29	O	1.182706	-0.439160	-0.553705
O30	O	1.682706	0.060840	-0.053705
O31	O	1.182577	-0.737017	-0.329995
O32	O	1.682577	-0.237017	0.170005
O33	O	1.086179	-0.736971	-0.426404
O34	O	1.586179	-0.236971	0.073596
C35	C	0.930491	-0.503383	-0.378205
C36	C	1.430491	-0.003383	0.121795
C37	C	0.843241	-0.503400	-0.378214
C38	C	1.343241	-0.003400	0.121786
C39	C	0.802266	-0.570319	-0.428332
C40	C	1.302266	-0.070319	0.071668
C41	C	0.720285	-0.570321	-0.428344
C42	C	1.220285	-0.070321	0.071656
C43	C	0.679282	-0.503409	-0.378235
C44	C	1.179282	-0.003409	0.121765
C45	C	0.720263	-0.436482	-0.328115
C46	C	1.220263	0.063518	0.171885
C47	C	0.802242	-0.436475	-0.328107
C48	C	1.302242	0.063525	0.171893
C49	C	0.549393	-0.436502	-0.328134
C50	C	1.049393	0.063498	0.171866
C51	C	0.467408	-0.436510	-0.328140
C52	C	0.967408	0.063490	0.171860
C53	C	0.467436	-0.570349	-0.428371
C54	C	0.967436	-0.070349	0.071629
C55	C	0.549415	-0.570342	-0.428363
C56	C	1.049415	-0.070342	0.071637
C57	C	0.590391	-0.503416	-0.378242
C58	C	1.090391	-0.003416	0.121758
C59	C	1.134390	-0.774912	-0.378213
C60	C	1.634390	-0.274912	0.121787
C61	C	1.134440	-0.891065	-0.378233
C62	C	1.634440	-0.391065	0.121767
C63	C	1.182198	-0.942837	-0.330579
C64	C	1.682198	-0.442837	0.169421
C65	C	1.182251	-1.062888	-0.330599
C66	C	1.682251	-0.562888	0.169401
C67	C	1.339183	-0.503421	-0.378249
C68	C	1.839183	-0.003421	0.121751
C69	C	1.426433	-0.503430	-0.378258
C70	C	1.926433	-0.003430	0.121742
C71	C	1.134486	-0.503325	-0.582971
C72	C	1.634486	-0.003325	-0.082971
C73	C	1.134506	-0.503292	-0.670221
C74	C	1.634506	-0.003292	-0.170221
C75	C	1.134509	-0.230831	-0.378257
C76	C	1.634509	0.269169	0.121743
C77	C	1.134540	-0.114678	-0.378271
C78	C	1.634540	0.385322	0.121729
C79	C	1.184731	-0.436454	-0.711225
C80	C	1.684731	0.063546	-0.211225
C81	C	1.184741	-0.436419	-0.793206
C82	C	1.684741	0.063581	-0.293206
C83	C	1.134529	-0.503228	-0.834180
C84	C	1.634529	-0.003228	-0.334180
C85	C	1.084298	-0.570069	-0.793170
C86	C	1.584298	-0.070069	-0.293170
C87	C	1.084285	-0.570098	-0.711191
C88	C	1.584285	-0.070098	-0.211191
C89	C	1.084330	-0.570007	-0.964040
C90	C	1.584330	-0.070007	-0.464040
C91	C	1.084344	-0.569980	-1.046025
C92	C	1.584344	-0.069980	-0.546025
C93	C	1.184785	-0.436327	-1.046055
C94	C	1.684785	0.063673	-0.546055
C95	C	1.184772	-0.436356	-0.964076
C96	C	1.684772	0.063644	-0.464076
C97	C	1.134543	-0.503199	-0.923071
C98	C	1.634543	-0.003199	-0.423071
C99	C	1.134437	-0.503403	-0.174279
C100	C	1.634437	-0.003403	0.325721
C101	C	1.134568	-0.503141	-0.087029
C102	C	1.634568	-0.003141	0.412971
H103	H	0.434070	-0.624839	-0.469184
H104	H	0.934070	-0.124839	0.030816
H105	H	1.225641	-0.381995	-0.826588
H106	H	1.725641	0.118005	-0.326588
F107	F	1.235691	-1.121079	-0.277268
F108	F	1.735691	-0.621079	0.222732
F109	F	1.081053	-0.949292	-0.431584
F110	F	1.581053	-0.449292	0.068416
F111	F	0.676621	-0.365261	-0.274789
F112	F	1.176621	0.134739	0.225211
F113	F	0.423770	-0.365299	-0.274805
F114	F	0.923770	0.134701	0.225195
F115	F	1.030896	-0.641077	-1.089631
F116	F	1.530896	-0.141077	-0.589631
F117	F	0.593000	-0.365271	-0.274790
F118	F	1.093000	0.134729	0.225210
H119	H	0.835603	-0.381977	-0.287300
H120	H	1.335603	0.118023	0.212700
H121	H	1.223048	-0.898288	-0.289769
H122	H	1.723048	-0.398288	0.210231
H123	H	1.225622	-0.382053	-0.677870
H124	H	1.725622	0.117947	-0.177870
F125	F	1.081089	-1.056494	-0.431597
F126	F	1.581089	-0.556494	0.068403
H127	H	1.225664	-0.381960	-0.930716
H128	H	1.725664	0.118040	-0.430716
F129	F	1.238244	-0.365188	-1.089695
F130	F	1.738244	0.134812	-0.589695
F131	F	1.030868	-0.641147	-0.920402
F132	F	1.530868	-0.141147	-0.420402
F133	F	1.030855	-0.641169	-0.836780
F134	F	1.530855	-0.141169	-0.336780
F135	F	1.030827	-0.641234	-0.667551
F136	F	1.530827	-0.141234	-0.167551
H137	H	0.686927	-0.624815	-0.469154
H138	H	1.186927	-0.124815	0.030846
H139	H	0.582798	-0.624834	-0.469163
H140	H	1.082798	-0.124834	0.030837
F141	F	0.845898	-0.641543	-0.481662
F142	F	1.345898	-0.141543	0.018338
