data_functionalizedCrystal
_audit_creation_method	'MofGen! by Chris Wilmer'
_symmetry_space_group_name_H-M	'P1'
_symmetry_Int_Tables_number	1
_symmetry_cell_setting	triclinic
loop_
_symmetry_equiv_pos_as_xyz
  x,y,z
_cell_length_a	27.731993
_cell_length_b	27.732048
_cell_length_c	13.330367
_cell_angle_alpha	89.990394
_cell_angle_beta	90.003990
_cell_angle_gamma	82.631525
loop_
_atom_site_label
_atom_site_type_symbol
_atom_site_fract_x
_atom_site_fract_y
_atom_site_fract_z
O1	O	0.640947	0.057391	-0.083164
O2	O	1.140947	0.557391	0.416836
O3	O	0.500149	0.066164	-0.083227
O4	O	1.000149	0.566164	0.416773
O5	O	0.574921	-0.008620	-0.083175
O6	O	1.074921	0.491380	0.416825
O7	O	0.566175	0.132175	-0.083217
O8	O	1.066175	0.632175	0.416783
O9	O	0.574910	-0.008622	0.083673
O10	O	1.074910	0.491378	0.583673
O11	O	0.500139	0.066163	0.083620
O12	O	1.000139	0.566163	0.583620
O13	O	0.640936	0.057390	0.083683
O14	O	1.140936	0.557390	0.583683
Cu15	Cu	0.570536	0.061776	0.098886
Cu16	Cu	1.070536	0.561776	0.598886
Cu17	Cu	0.570549	0.061778	-0.098430
Cu18	Cu	1.070549	0.561778	0.401570
O19	O	0.566164	0.132174	0.083630
O20	O	1.066164	0.632174	0.583630
C21	C	0.482137	0.065983	0.000189
C22	C	0.982137	0.565983	0.500189
C23	C	0.428480	0.065441	0.000166
C24	C	0.928480	0.565441	0.500166
C25	C	0.574732	-0.026628	0.000252
C26	C	1.074732	0.473372	0.500252
C27	C	0.574179	-0.080282	0.000260
C28	C	1.074179	0.419718	0.500260
C29	C	0.045326	0.061511	-0.090733
C30	C	0.545326	0.561511	0.409267
C31	C	0.246983	0.063578	-0.090761
C32	C	0.746983	0.563578	0.409239
O33	O	0.273061	0.063827	-0.168111
O34	O	0.773061	0.563827	0.331889
N35	N	0.272198	0.063836	0.000186
N36	N	0.772198	0.563836	0.500186
C37	C	0.246995	0.063574	0.091145
C38	C	0.746995	0.563574	0.591145
O39	O	0.273069	0.063836	0.168500
O40	O	0.773069	0.563836	0.668500
C41	C	0.045339	0.061503	0.091172
C42	C	0.545339	0.561503	0.591172
C43	C	0.020127	0.061251	0.000220
C44	C	0.520127	0.561251	0.500220
C45	C	0.020114	0.061258	-0.181678
C46	C	0.520114	0.561258	0.318322
C47	C	-0.030298	0.060744	-0.181670
C48	C	0.469702	0.560744	0.318330
C49	C	-0.055497	0.060483	-0.090717
C50	C	0.444503	0.560483	0.409283
C51	C	-0.030285	0.060736	0.000228
C52	C	0.469715	0.560736	0.500228
C53	C	0.020138	0.061238	0.182131
C54	C	0.520138	0.561238	0.682131
C55	C	-0.030279	0.060719	0.182129
C56	C	0.469721	0.560719	0.682129
C57	C	-0.055491	0.060466	0.091177
C58	C	0.444509	0.560466	0.591177
C59	C	-0.105896	0.059962	0.091188
C60	C	0.394104	0.559962	0.591188
N61	N	-0.131110	0.059704	0.000242
N62	N	0.368890	0.559704	0.500242
C63	C	-0.105911	0.059965	-0.090711
C64	C	0.394089	0.559965	0.409289
C65	C	0.352867	0.064662	0.091125
C66	C	0.852867	0.564662	0.591125
C67	C	0.403281	0.065180	0.091118
C68	C	0.903281	0.565180	0.591118
C69	C	0.403266	0.065184	-0.090788
C70	C	0.903266	0.565184	0.409212
C71	C	0.352851	0.064669	-0.090781
C72	C	0.852851	0.564669	0.409219
C73	C	0.327653	0.064404	0.000179
C74	C	0.827653	0.564404	0.500179
C75	C	-0.211779	0.058885	-0.090687
C76	C	0.288221	0.558885	0.409313
C77	C	-0.262196	0.058373	-0.090671
C78	C	0.237804	0.558373	0.409329
C79	C	-0.262176	0.058367	0.091234
C80	C	0.237824	0.558367	0.591234
C81	C	-0.211764	0.058882	0.091219
C82	C	0.288236	0.558882	0.591219
C83	C	-0.186567	0.059139	0.000250
C84	C	0.313433	0.559139	0.500250
O85	O	-0.132004	0.059707	0.168498
O86	O	0.367996	0.559707	0.668498
O87	O	-0.131992	0.059692	-0.168054
O88	O	0.368008	0.559692	0.331946
C89	C	0.095738	0.062025	-0.090741
C90	C	0.595738	0.562025	0.409259
C91	C	0.120950	0.062279	0.000204
C92	C	0.620950	0.562279	0.500204
C93	C	0.095751	0.062018	0.091157
C94	C	0.595751	0.562018	0.591157
C95	C	0.171364	0.062797	0.000198
C96	C	0.671364	0.562797	0.500198
C97	C	0.196563	0.063058	-0.090755
C98	C	0.696563	0.563058	0.409245
C99	C	0.171349	0.062800	-0.181701
C100	C	0.671349	0.562800	0.318299
C101	C	0.120937	0.062286	-0.181693
C102	C	0.620937	0.562286	0.318307
C103	C	0.120965	0.062276	0.182103
C104	C	0.620965	0.562276	0.682103
C105	C	0.171377	0.062790	0.182088
C106	C	0.671377	0.562790	0.682088
C107	C	0.196576	0.063051	0.091135
C108	C	0.696576	0.563051	0.591135
C109	C	0.614884	-0.419105	0.000226
C110	C	1.114884	0.080895	0.500226
C111	C	0.612833	-0.620765	0.000211
C112	C	1.112833	-0.120765	0.500211
O113	O	0.650055	-0.652028	0.000184
O114	O	1.150055	-0.152028	0.500184
N115	N	0.568497	-0.639880	0.000193
N116	N	1.068497	-0.139880	0.500193
C117	C	0.524670	-0.608576	0.000171
C118	C	1.024670	-0.108576	0.500171
O119	O	0.486912	-0.629462	0.000144
O120	O	0.986912	-0.129462	0.500144
C121	C	0.526721	-0.406918	0.000179
C122	C	1.026721	0.093082	0.500179
C123	C	0.571061	-0.387806	0.000208
C124	C	1.071061	0.112194	0.500208
C125	C	0.659220	-0.399993	0.000254
C126	C	1.159220	0.100007	0.500254
C127	C	0.659732	-0.349581	0.000263
C128	C	1.159732	0.150419	0.500263
C129	C	0.615909	-0.318282	0.000245
C130	C	1.115909	0.181718	0.500245
C131	C	0.571573	-0.337394	0.000217
C132	C	1.071573	0.162606	0.500217
C133	C	0.482895	-0.375616	0.000150
C134	C	0.982895	0.124384	0.500150
C135	C	0.483412	-0.325199	0.000149
C136	C	0.983412	0.174801	0.500149
C137	C	0.527751	-0.306087	0.000178
C138	C	1.027751	0.193913	0.500178
C139	C	0.528262	-0.255683	0.000207
C140	C	1.028262	0.244317	0.500207
N141	N	0.572598	-0.236568	0.000226
N142	N	1.072598	0.263432	0.500226
C143	C	0.616422	-0.267867	0.000245
C144	C	1.116422	0.232133	0.500245
C145	C	0.523596	-0.714450	0.000169
C146	C	1.023596	-0.214450	0.500169
C147	C	0.523083	-0.764865	0.000169
C148	C	1.023083	-0.264865	0.500169
C149	C	0.611246	-0.777049	0.000207
C150	C	1.111246	-0.277049	0.500207
C151	C	0.611759	-0.726634	0.000215
C152	C	1.111759	-0.226634	0.500215
C153	C	0.567932	-0.695335	0.000188
C154	C	1.067932	-0.195335	0.500188
C155	C	0.617494	-0.161998	0.000265
C156	C	1.117494	0.338002	0.500265
C157	C	0.618003	-0.111582	0.000278
C158	C	1.118003	0.388418	0.500278
C159	C	0.529839	-0.099401	0.000234
C160	C	1.029839	0.400599	0.500234
C161	C	0.529331	-0.149814	0.000226
C162	C	1.029331	0.350186	0.500226
C163	C	0.573162	-0.181112	0.000238
C164	C	1.073162	0.318888	0.500238
O165	O	0.491060	-0.224392	0.000223
O166	O	0.991060	0.275608	0.500223
O167	O	0.654174	-0.246972	0.000249
O168	O	1.154174	0.253028	0.500249
C169	C	0.614372	-0.469517	0.000217
C170	C	1.114372	0.030483	0.500217
C171	C	0.570036	-0.488630	0.000189
C172	C	1.070036	0.011370	0.500189
C173	C	0.526213	-0.457331	0.000171
C174	C	1.026213	0.042669	0.500171
C175	C	0.569523	-0.539044	0.000189
C176	C	1.069523	-0.039044	0.500189
C177	C	0.613346	-0.570343	0.000208
C178	C	1.113346	-0.070343	0.500208
C179	C	0.657683	-0.551228	0.000227
C180	C	1.157683	-0.051228	0.500227
C181	C	0.658195	-0.500817	0.000236
C182	C	1.158195	-0.000817	0.500236
C183	C	0.481876	-0.476446	0.000152
C184	C	0.981876	0.023554	0.500152
C185	C	0.481368	-0.526858	0.000144
C186	C	0.981368	-0.026858	0.500144
C187	C	0.525191	-0.558157	0.000162
C188	C	1.025191	-0.058157	0.500162
C189	C	0.658949	0.057570	0.000265
C190	C	1.158949	0.557570	0.500265
C191	C	0.712605	0.058113	0.000281
C192	C	1.212605	0.558113	0.500281
C193	C	0.566353	0.150181	0.000202
C194	C	1.066353	0.650181	0.500202
C195	C	0.566906	0.203836	0.000187
C196	C	1.066906	0.703836	0.500187
N197	N	0.570531	0.061774	0.237667
N198	N	1.070531	0.561774	0.737667
N199	N	0.570558	0.061776	-0.237212
N200	N	1.070558	0.561776	0.262788
C201	C	0.537439	0.094879	0.710267
C202	C	1.037439	0.594879	1.210267
C203	C	0.603672	0.028672	0.710282
C204	C	1.103672	0.528672	1.210282
C205	C	0.603667	0.028671	0.605263
C206	C	1.103667	0.528671	1.105263
C207	C	0.570547	0.061775	0.552742
C208	C	1.070547	0.561775	1.052742
C209	C	0.537433	0.094880	0.605239
C210	C	1.037433	0.594880	1.105239
C211	C	0.636783	-0.004430	0.552758
C212	C	1.136783	0.495570	1.052758
C213	C	0.636780	-0.004433	0.447733
C214	C	1.136780	0.495567	0.947733
C215	C	0.603657	0.028669	0.395210
C216	C	1.103657	0.528669	0.895210
C217	C	0.570542	0.061775	0.447714
C218	C	1.070542	0.561775	0.947714
C219	C	0.537422	0.094879	0.395193
C220	C	1.037422	0.594879	0.895193
C221	C	0.504304	0.127983	0.447694
C222	C	1.004304	0.627983	0.947694
C223	C	0.504311	0.127982	0.552716
C224	C	1.004311	0.627982	1.052716
C225	C	0.603650	0.028671	0.290189
C226	C	1.103650	0.528671	0.790189
C227	C	0.537417	0.094879	0.290164
C228	C	1.037417	0.594879	0.790164
H229	H	-0.282722	0.058169	-0.164739
H230	H	0.217278	0.558169	0.335261
F231	F	0.198204	0.063063	0.278899
F232	F	0.698204	0.563063	0.778899
F233	F	-0.057124	0.060471	-0.278475
F234	F	0.442876	0.560471	0.221525
F235	F	0.482140	-0.170155	0.000214
F236	F	0.982140	0.329845	0.500214
F237	F	0.469068	0.163212	0.608595
F238	F	0.969068	0.663212	1.108595
H239	H	0.477340	0.154939	0.404919
H240	H	0.977340	0.654939	0.904919
F241	F	0.502192	0.130108	0.766141
F242	F	1.002192	0.630108	1.266141
H243	H	0.040626	0.061469	-0.255746
H244	H	0.540626	0.561469	0.244254
F245	F	0.326055	0.064385	0.187942
F246	F	0.826055	0.564385	0.687942
F247	F	0.326022	0.064399	-0.187583
F248	F	0.826022	0.564399	0.312417
H249	H	0.100454	0.062061	0.256169
H250	H	0.600454	0.562061	0.756169
H251	H	0.423791	0.065398	-0.164845
H252	H	0.923791	0.565398	0.335155
F253	F	0.705387	-0.480483	0.000261
F254	F	1.205387	0.019517	0.500261
F255	F	0.430107	0.065459	0.187922
F256	F	0.930107	0.565459	0.687922
H257	H	-0.191270	0.059096	-0.164763
H258	H	0.308730	0.559096	0.335237
H259	H	0.040658	0.061442	0.256194
H260	H	0.540658	0.561442	0.756194
F261	F	0.483202	-0.066082	0.000215
F262	F	0.983202	0.433918	0.500215
F263	F	-0.057093	0.060434	0.278943
F264	F	0.442907	0.560434	0.778943
F265	F	0.672033	-0.039657	0.608655
F266	F	1.172033	0.460343	1.108655
F267	F	-0.184931	0.059157	0.188020
F268	F	0.315069	0.559157	0.688020
F269	F	0.704323	-0.584548	0.000252
F270	F	1.204323	-0.084548	0.500252
F271	F	0.657886	-0.810369	0.000225
F272	F	1.157886	-0.310369	0.500225
H273	H	0.663746	-0.031388	0.404993
H274	H	1.163746	0.468612	0.904993
H275	H	0.446789	-0.391168	0.000120
H276	H	0.946789	0.108832	0.500120
F277	F	0.658950	-0.706298	0.000245
F278	F	1.158950	-0.206298	0.500245
F279	F	0.665196	-0.091245	0.000309
F280	F	1.165196	0.408755	0.500309
H281	H	-0.282702	0.058157	0.165286
H282	H	0.217298	0.558157	0.665286
H283	H	0.100413	0.062080	-0.255756
H284	H	0.600413	0.562080	0.244244
H285	H	0.191874	0.063015	-0.255758
H286	H	0.691874	0.563015	0.244242
F287	F	0.638922	-0.006555	0.766178
F288	F	1.138922	0.493445	1.266178
H289	H	0.653186	-0.187476	0.000271
H290	H	1.153186	0.312524	0.500271
F291	F	0.706924	-0.329247	0.000273
F292	F	1.206924	0.170753	0.500273
H293	H	0.446189	-0.450966	0.000134
H294	H	0.946189	0.049034	0.500134
F295	F	0.638898	-0.006556	0.234319
F296	F	1.138898	0.493444	0.734319
H297	H	0.447722	-0.299717	0.000126
H298	H	0.947722	0.200283	0.500126
F299	F	0.475891	-0.785199	0.000156
F300	F	0.975891	-0.285199	0.500156
F301	F	0.705867	-0.433297	0.000273
F302	F	1.205867	0.066703	0.500273
F303	F	0.434172	-0.547192	0.000119
F304	F	0.934172	-0.047192	0.500119
H305	H	0.487905	-0.688970	0.000147
H306	H	0.987905	-0.188970	0.500147
H307	H	0.510445	0.121835	0.247408
H308	H	1.010445	0.621835	0.747408
