data_functionalizedCrystal
_audit_creation_method	'MofGen! by Chris Wilmer'
_symmetry_space_group_name_H-M	'P1'
_symmetry_Int_Tables_number	1
_symmetry_cell_setting	triclinic
loop_
_symmetry_equiv_pos_as_xyz
  x,y,z
_cell_length_a	14.971486
_cell_length_b	16.992695
_cell_length_c	14.048226
_cell_angle_alpha	89.993436
_cell_angle_beta	89.998499
_cell_angle_gamma	87.141176
loop_
_atom_site_label
_atom_site_type_symbol
_atom_site_fract_x
_atom_site_fract_y
_atom_site_fract_z
O1	O	1.194127	0.102190	-0.079052
O2	O	1.694127	0.602190	0.420948
O3	O	0.934587	0.114427	-0.079078
O4	O	1.434587	0.614427	0.420922
O5	O	1.063316	-0.005835	-0.079057
O6	O	1.563316	0.494165	0.420943
O7	O	1.065397	0.222452	-0.079072
O8	O	1.565397	0.722452	0.420928
O9	O	1.063299	-0.005842	0.079264
O10	O	1.563299	0.494158	0.579264
O11	O	0.934570	0.114420	0.079244
O12	O	1.434570	0.614420	0.579244
O13	O	1.194110	0.102183	0.079270
O14	O	1.694110	0.602183	0.579270
Zn15	Zn	1.064337	0.108300	0.104394
Zn16	Zn	1.564337	0.608300	0.604394
Zn17	Zn	1.064359	0.108310	-0.104201
Zn18	Zn	1.564359	0.608310	0.395799
O19	O	1.065380	0.222445	0.079249
O20	O	1.565380	0.722445	0.579249
C21	C	0.901215	0.113876	0.000080
C22	C	1.401215	0.613876	0.500080
C23	C	0.801803	0.112236	0.000070
C24	C	1.301803	0.612236	0.500070
C25	C	0.749541	0.182887	0.000067
C26	C	1.249541	0.682887	0.500067
C27	C	0.656133	0.181341	0.000081
C28	C	1.156133	0.681341	0.500081
C29	C	0.614988	0.109144	0.000092
C30	C	1.114988	0.609144	0.500092
C31	C	0.667257	0.038488	0.000098
C32	C	1.167257	0.538488	0.500098
C33	C	0.760663	0.040034	0.000091
C34	C	1.260663	0.540034	0.500091
C35	C	0.472568	0.035269	0.000111
C36	C	0.972568	0.535269	0.500111
C37	C	0.379155	0.033723	0.000117
C38	C	0.879155	0.533723	0.500117
C39	C	0.368038	0.176577	0.000102
C40	C	0.868038	0.676577	0.500102
C41	C	0.461445	0.178123	0.000094
C42	C	0.961445	0.678123	0.500094
C43	C	0.513707	0.107466	0.000099
C44	C	1.013707	0.607466	0.500099
C45	C	1.060631	-0.035054	0.000103
C46	C	1.560631	0.464946	0.500103
C47	C	1.052644	-0.122105	0.000102
C48	C	1.552644	0.377895	0.500102
C49	C	1.129708	-0.172274	0.000111
C50	C	1.629708	0.327726	0.500111
C51	C	1.122198	-0.254067	0.000101
C52	C	1.622198	0.245933	0.500101
C53	C	1.037623	-0.285691	0.000089
C54	C	1.537623	0.214309	0.500089
C55	C	0.960553	-0.235517	0.000078
C56	C	1.460553	0.264483	0.500078
C57	C	0.968064	-0.153724	0.000081
C58	C	1.468064	0.346276	0.500081
C59	C	1.006493	-0.529318	0.000073
C60	C	1.506493	-0.029318	0.500073
C61	C	0.998988	-0.611117	0.000073
C62	C	1.498988	-0.111117	0.500073
C63	C	1.160634	-0.629662	0.000094
C64	C	1.660634	-0.129662	0.500094
C65	C	1.168138	-0.547867	0.000103
C66	C	1.668138	-0.047867	0.500103
C67	C	1.091068	-0.497700	0.000087
C68	C	1.591068	0.002300	0.500087
N69	N	1.029945	-0.369297	0.000082
N70	N	1.529945	0.130703	0.500082
N71	N	1.098747	-0.414095	0.000087
N72	N	1.598747	0.085905	0.500087
C73	C	1.227482	0.102733	0.000110
C74	C	1.727482	0.602733	0.500110
C75	C	1.326894	0.104373	0.000114
C76	C	1.826894	0.604373	0.500114
C77	C	1.068066	0.251664	0.000087
C78	C	1.568066	0.751664	0.500087
C79	C	1.076053	0.338715	0.000082
C80	C	1.576053	0.838715	0.500082
N81	N	1.064328	0.108293	0.246754
N82	N	1.564328	0.608293	0.746754
N83	N	1.064375	0.108310	-0.246562
N84	N	1.564375	0.608310	0.253438
C85	C	1.121350	0.055063	0.296581
C86	C	1.621350	0.555063	0.796581
C87	C	1.121356	0.055063	0.396239
C88	C	1.621356	0.555063	0.896239
C89	C	1.064344	0.108297	0.446068
C90	C	1.564344	0.608297	0.946068
C91	C	1.007316	0.161529	0.396234
C92	C	1.507316	0.661529	0.896234
C93	C	1.007306	0.161526	0.296578
C94	C	1.507306	0.661526	0.796578
C95	C	1.007342	0.161535	0.603948
C96	C	1.507342	0.661535	1.103948
C97	C	1.007353	0.161540	0.703611
C98	C	1.507353	0.661540	1.203611
C99	C	1.121393	0.055072	0.703609
C100	C	1.621393	0.555072	1.203609
C101	C	1.121383	0.055068	0.603953
C102	C	1.621383	0.555068	1.103953
C103	C	1.064355	0.108302	0.554126
C104	C	1.564355	0.608302	1.054126
H105	H	0.345658	-0.025067	0.000127
H106	H	0.845658	0.474933	0.500127
H107	H	1.184952	-0.294912	0.000110
H108	H	1.684952	0.205088	0.500110
H109	H	0.960927	0.204888	0.744176
H110	H	1.460927	0.704888	1.244176
H111	H	0.783034	0.241679	0.000057
H112	H	1.283034	0.741679	0.500057
H113	H	0.960901	0.204881	0.563382
H114	H	1.460901	0.704881	1.063382
N115	N	1.182876	-0.002349	0.550214
N116	N	1.682876	0.497651	1.050214
H117	H	1.146209	-0.037118	0.508877
H118	H	1.646209	0.462882	1.008877
H119	H	1.224604	0.027732	0.508910
H120	H	1.724604	0.527732	1.008910
N121	N	1.259358	-0.513760	0.000121
N122	N	1.759358	-0.013760	0.500121
H123	H	1.307040	-0.557954	0.000126
H124	H	1.807040	-0.057954	0.500126
H125	H	1.266004	-0.480220	-0.058567
H126	H	1.766004	0.019780	0.441433
N127	N	0.622873	-0.039379	0.000109
N128	N	1.122873	0.460621	0.500109
H129	H	0.641557	-0.070335	-0.058579
H130	H	1.141557	0.429665	0.441421
H131	H	0.641572	-0.070276	0.058840
H132	H	1.141572	0.429724	0.558840
N133	N	1.182910	-0.002332	0.757355
N134	N	1.682910	0.497668	1.257355
H135	H	1.247034	0.006812	0.740000
H136	H	1.747034	0.506812	1.240000
H137	H	1.174185	0.005786	0.828028
H138	H	1.674185	0.505786	1.328028
N139	N	0.945821	0.218941	0.449980
N140	N	1.445821	0.718941	0.949980
H141	H	0.982487	0.253714	0.491313
H142	H	1.482487	0.753714	0.991313
H143	H	0.909704	0.252608	0.403233
H144	H	1.409704	0.752608	0.903233
N145	N	0.505833	0.255987	0.000086
N146	N	1.005833	0.755987	0.500086
H147	H	0.544337	0.259810	-0.058608
H148	H	1.044337	0.759810	0.441392
H149	H	0.458506	0.300471	0.000123
H150	H	0.958506	0.800471	0.500123
N151	N	0.907762	-0.645224	0.000059
N152	N	1.407762	-0.145224	0.500059
H153	H	0.873745	-0.626936	-0.058639
H154	H	1.373745	-0.126936	0.441361
H155	H	0.914778	-0.704646	0.000100
H156	H	1.414778	-0.204646	0.500100
H157	H	0.943737	-0.488481	0.000060
H158	H	1.443737	0.011519	0.500060
H159	H	0.960871	0.204870	0.256010
H160	H	1.460871	0.704870	0.756010
H161	H	0.515117	-0.022267	0.000116
H162	H	1.015117	0.477733	0.500116
H163	H	1.223380	-0.670517	0.000106
H164	H	1.723380	-0.170517	0.500106
N165	N	0.817035	-0.036167	0.000101
N166	N	1.317035	0.463833	0.500101
H167	H	0.776798	-0.082139	0.000109
H168	H	1.276798	0.417861	0.500109
H169	H	0.856033	-0.038638	-0.058591
H170	H	1.356033	0.461362	0.441409
N171	N	1.220929	-0.138168	0.000132
N172	N	1.720929	0.361832	0.500132
H173	H	1.268609	-0.182364	0.000135
H174	H	1.768609	0.317636	0.500135
H175	H	1.227575	-0.104629	-0.058557
H176	H	1.727575	0.395371	0.441443
H177	H	0.891690	-0.261271	0.000062
H178	H	1.391690	0.238729	0.500062
N179	N	0.884945	-0.099610	0.000066
N180	N	1.384945	0.400390	0.500066
H181	H	0.830227	-0.132053	0.000059
H182	H	1.330227	0.367947	0.500059
H183	H	0.884531	-0.065274	0.058756
H184	H	1.384531	0.434726	0.558756
H185	H	1.167780	0.011717	0.256017
H186	H	1.667780	0.511717	0.756017
H187	H	0.613586	0.238873	0.000077
H188	H	1.113586	0.738873	0.500077
H189	H	0.325482	0.234108	0.000103
H190	H	0.825482	0.734108	0.500103
N191	N	1.182892	-0.002331	0.449968
N192	N	1.682892	0.497669	0.949968
H193	H	1.168643	-0.058009	0.432639
H194	H	1.668643	0.441991	0.932639
H195	H	1.246983	0.006892	0.432569
H196	H	1.746983	0.506892	0.932569
