data_functionalizedCrystal
_audit_creation_method	'MofGen! by Chris Wilmer'
_symmetry_space_group_name_H-M	'P1'
_symmetry_Int_Tables_number	1
_symmetry_cell_setting	triclinic
loop_
_symmetry_equiv_pos_as_xyz
  x,y,z
_cell_length_a	12.759401
_cell_length_b	16.625546
_cell_length_c	12.759393
_cell_angle_alpha	89.964325
_cell_angle_beta	89.979527
_cell_angle_gamma	90.023993
loop_
_atom_site_label
_atom_site_type_symbol
_atom_site_fract_x
_atom_site_fract_y
_atom_site_fract_z
Zn1	Zn	1.606205	-0.320925	-0.593986
Zn2	Zn	1.606074	-0.455781	-0.418292
Zn3	Zn	1.430505	-0.320970	-0.418322
Zn4	Zn	1.430472	-0.455723	-0.593930
O5	O	1.518314	-0.388350	-0.506132
O6	O	1.753208	-0.338820	-0.570692
O7	O	1.582743	-0.437941	-0.271275
O8	O	1.453881	-0.208131	-0.441660
O9	O	1.753112	-0.437898	-0.441610
O10	O	1.582967	-0.208099	-0.570720
O11	O	1.453754	-0.338895	-0.271297
O12	O	1.283480	-0.338839	-0.441605
O13	O	1.453824	-0.437799	-0.740958
O14	O	1.283455	-0.437842	-0.570623
O15	O	1.582934	-0.338764	-0.741000
O16	O	1.582711	-0.568606	-0.441555
O17	O	1.453697	-0.568563	-0.570595
C18	C	1.245346	-0.388340	-0.506112
C19	C	1.128570	-0.388355	-0.506128
C20	C	1.073723	-0.439984	-0.573202
C21	C	0.963998	-0.439988	-0.573223
C22	C	0.963979	-0.336730	-0.439086
C23	C	1.073701	-0.336723	-0.439071
C24	C	0.814096	-0.468919	-0.697080
C25	C	0.759245	-0.520560	-0.764145
C26	C	0.794829	-0.599248	-0.780084
C27	C	0.885262	-0.626311	-0.728944
C28	C	0.940107	-0.574673	-0.661871
C29	C	0.904525	-0.495974	-0.645952
C30	C	1.223605	-0.307800	-0.315212
C31	C	1.278452	-0.256166	-0.248134
C32	C	1.242870	-0.177477	-0.232183
C33	C	1.152434	-0.150418	-0.283306
C34	C	1.097587	-0.202052	-0.350384
C35	C	1.133176	-0.280740	-0.366336
C36	C	1.518214	-0.597841	-0.506088
C37	C	1.518268	-0.687462	-0.506105
C38	C	1.518451	-1.015637	-0.506214
C39	C	1.518397	-0.924329	-0.506187
C40	C	1.518359	-0.851552	-0.506159
C41	C	1.518306	-0.760238	-0.506132
C42	C	1.792347	-0.388360	-0.506154
C43	C	1.909124	-0.388365	-0.506163
C44	C	1.518390	-0.388270	-0.780166
C45	C	1.518423	-0.388237	-0.896943
C46	C	1.518442	-0.178041	-0.506200
C47	C	1.518497	-0.088420	-0.506228
C48	C	1.585677	-0.336630	-1.061559
C49	C	1.585657	-0.336661	-0.951835
C50	C	1.451212	-0.439790	-0.951780
C51	C	1.451238	-0.439762	-1.061502
C52	C	1.709545	-0.307897	-0.801910
C53	C	1.776744	-0.256337	-0.747077
C54	C	1.792932	-0.177653	-0.782720
C55	C	1.741906	-0.150513	-0.873194
C56	C	1.674700	-0.202069	-0.928022
C57	C	1.658531	-0.280764	-0.892381
C58	C	1.327349	-0.468518	-1.211429
C59	C	1.260136	-0.520071	-1.266258
C60	C	1.243937	-0.598756	-1.230618
C61	C	1.294944	-0.625892	-1.140140
C62	C	1.362157	-0.574340	-1.085310
C63	C	1.378358	-0.495656	-1.120958
C64	C	1.518298	-0.388371	-0.233165
C65	C	1.518469	-0.388177	-0.116389
H66	H	1.023954	-0.180011	-0.392018
H67	H	0.750162	-0.641295	-0.834692
Cl68	Cl	1.195990	-0.485948	-1.379989
Cl69	Cl	1.107691	-0.051494	-0.263247
Cl70	Cl	1.426257	-0.608448	-0.971546
H71	H	1.847647	-0.135672	-0.738066
Cl72	Cl	0.645566	-0.486538	-0.828438
Cl73	Cl	1.053786	-0.608687	-0.597581
H74	H	1.633143	-0.179968	-1.001675
Cl75	Cl	0.769367	-0.369987	-0.677064
H76	H	1.281756	-0.689965	-1.111121
Cl77	Cl	1.159425	-0.663560	-1.299540
H78	H	1.340539	-0.404447	-1.240460
H79	H	1.118394	-0.482024	-0.627806
H80	H	0.914220	-0.690390	-0.741919
H81	H	0.919291	-0.294694	-0.384490
Cl82	Cl	1.311814	-0.112570	-0.147839
H83	H	1.352090	-0.278205	-0.206507
H84	H	1.252591	-0.371874	-0.328203
Cl85	Cl	1.670195	-0.271780	-1.130556
H86	H	1.755082	-0.086437	-0.902200
H87	H	1.696381	-0.371970	-0.772888
Cl88	Cl	1.840904	-0.290460	-0.633354
Cl89	Cl	1.366690	-0.504629	-0.882772
