data_functionalizedCrystal
_audit_creation_method	'MofGen! by Chris Wilmer'
_symmetry_space_group_name_H-M	'P1'
_symmetry_Int_Tables_number	1
_symmetry_cell_setting	triclinic
loop_
_symmetry_equiv_pos_as_xyz
  x,y,z
_cell_length_a	16.974800
_cell_length_b	16.992695
_cell_length_c	15.455313
_cell_angle_alpha	92.847427
_cell_angle_beta	90.973911
_cell_angle_gamma	87.021674
loop_
_atom_site_label
_atom_site_type_symbol
_atom_site_fract_x
_atom_site_fract_y
_atom_site_fract_z
O1	O	1.055370	0.099968	0.001980
O2	O	0.826692	0.111944	-0.014081
O3	O	0.940114	-0.008189	-0.006108
O4	O	0.941948	0.220100	-0.005993
O5	O	0.933626	-0.001347	0.137698
O6	O	0.820204	0.118785	0.129725
O7	O	1.048882	0.106809	0.145786
Cu8	Cu	0.933951	0.113422	0.150886
Cu9	Cu	0.941623	0.105331	-0.019181
O10	O	0.935460	0.226941	0.137813
C11	C	0.794052	0.114783	0.055758
C12	C	0.706461	0.113043	0.049607
C13	C	0.661778	0.115953	0.125107
C14	C	0.579478	0.114306	0.119330
C15	C	0.541861	0.109754	0.038051
C16	C	0.586550	0.106842	-0.037456
C17	C	0.668849	0.108483	-0.031677
C18	C	0.296102	0.104438	0.012363
C19	C	0.213796	0.102799	0.006591
C20	C	0.206730	0.110262	0.163377
C21	C	0.289031	0.111908	0.169148
C22	C	0.333713	0.108991	0.093642
N23	N	0.457736	0.108072	0.032143
N24	N	0.417836	0.110667	0.099550
C25	C	0.934511	-0.033986	0.065629
C26	C	0.927474	-0.121046	0.065135
C27	C	0.995375	-0.171136	0.069905
C28	C	0.988758	-0.252938	0.069432
C29	C	0.914240	-0.284647	0.064195
C30	C	0.846334	-0.234550	0.059423
C31	C	0.852952	-0.152750	0.059889
C32	C	0.886813	-0.528306	0.062257
C33	C	0.880200	-0.610112	0.061793
C34	C	1.022624	-0.628494	0.071801
C35	C	1.029235	-0.546692	0.072272
C36	C	0.961330	-0.496602	0.067495
N37	N	0.907475	-0.368261	0.063714
N38	N	0.968096	-0.412990	0.067970
C39	C	1.081522	0.103969	0.075945
C40	C	1.169114	0.105709	0.082091
C41	C	0.941063	0.252738	0.066074
C42	C	0.948100	0.339798	0.066563
N43	N	0.928560	0.119112	0.270503
N44	N	0.947020	0.099635	-0.138797
C45	C	0.976765	0.068094	0.319285
C46	C	0.972696	0.072404	0.409807
C47	C	0.920425	0.127737	0.451545
C48	C	0.872215	0.178757	0.402756
C49	C	0.876281	0.174442	0.312236
C50	C	0.902875	0.146340	0.721893
C51	C	0.898815	0.150652	0.812420
C52	C	0.999295	0.044298	0.819465
C53	C	1.003359	0.039992	0.728943
C54	C	0.955146	0.091009	0.680161
N55	N	0.916267	0.132146	0.544073
N56	N	0.959302	0.086596	0.587635
H57	H	0.692399	0.119666	0.191293
C58	C	0.717223	0.105363	-0.113751
C59	C	0.666666	0.101049	-0.186170
C60	C	0.711198	0.098182	-0.261792
H61	H	0.752619	0.060167	-0.114657
H62	H	0.746323	0.151553	-0.115025
H63	H	0.637579	0.054863	-0.184896
H64	H	0.631270	0.146240	-0.185292
H65	H	0.740298	0.144372	-0.263066
H66	H	0.746592	0.052985	-0.262690
H67	H	0.676902	0.095261	-0.310937
C68	C	0.813121	-0.473904	0.056900
C69	C	0.816081	-0.429938	-0.017124
C70	C	0.748201	-0.379819	-0.022094
H71	H	0.810406	-0.439155	0.106957
H72	H	0.767778	-0.504484	0.053670
H73	H	0.861411	-0.399359	-0.013887
H74	H	0.818785	-0.464665	-0.067193
H75	H	0.702859	-0.410400	-0.025324
H76	H	0.745492	-0.345076	0.027967
H77	H	0.750197	-0.349988	-0.072322
H78	H	1.089916	-0.520881	0.076536
H79	H	1.011947	0.030861	0.449526
H80	H	0.543102	0.116662	0.180811
H81	H	0.819515	-0.635925	0.057543
H82	H	1.077909	-0.669285	0.075688
C83	C	0.344691	0.101409	-0.069545
C84	C	0.387537	0.169528	-0.071131
C85	C	0.432316	0.166761	-0.146571
H86	H	0.310586	0.098506	-0.118841
H87	H	0.380122	0.056229	-0.070339
H88	H	0.352110	0.214696	-0.070346
H89	H	0.421656	0.172445	-0.021853
H90	H	0.467746	0.121581	-0.147365
H91	H	0.398205	0.163856	-0.195861
H92	H	0.461397	0.212975	-0.147654
C93	C	0.329727	0.116812	0.257476
C94	C	0.272981	0.118989	0.322362
C95	C	0.310440	0.123500	0.403740
H96	H	0.358546	0.163290	0.262885
H97	H	0.364804	0.071904	0.263260
H98	H	0.237917	0.163892	0.316581
H99	H	0.244158	0.072515	0.316981
H100	H	0.345517	0.078592	0.409524
H101	H	0.339259	0.169979	0.409140
H102	H	0.271945	0.124971	0.447775
C103	C	1.076355	-0.136867	0.075548
C104	C	1.134403	-0.198248	0.079598
C105	C	1.209014	-0.166714	0.084781
H106	H	1.079751	-0.102969	0.126080
H107	H	1.084200	-0.107746	0.025771
H108	H	1.126562	-0.227356	0.129370
H109	H	1.131033	-0.232152	0.029072
H110	H	1.216858	-0.137592	0.035004
H111	H	1.212401	-0.132815	0.135313
H112	H	1.248409	-0.208356	0.087522
C113	C	0.779135	-0.098491	0.054748
C114	C	0.712457	-0.143766	0.050084
C115	C	0.644441	-0.093810	0.045353
H116	H	0.780910	-0.068566	0.004578
H117	H	0.776446	-0.063825	0.104886
H118	H	0.715145	-0.178418	-0.000048
H119	H	0.710656	-0.173690	0.100249
H120	H	0.641752	-0.059144	0.095491
H121	H	0.646224	-0.063887	-0.004817
H122	H	0.599192	-0.124521	0.042196
C123	C	1.062463	-0.307365	0.074429
C124	C	1.066180	-0.358360	0.000455
C125	C	1.134076	-0.408500	0.005020
H126	H	1.060656	-0.337356	0.124547
H127	H	1.107811	-0.276791	0.077573
H128	H	1.020844	-0.388931	-0.002680
H129	H	1.068000	-0.328391	-0.049674
H130	H	1.179424	-0.377926	0.008163
H131	H	1.132263	-0.438485	0.055140
H132	H	1.136611	-0.443101	-0.045174
H133	H	0.170342	0.112635	0.224849
H134	H	0.785660	-0.260374	0.055154
H135	H	0.856248	0.195714	0.846399
C136	C	0.815412	0.238711	0.448179
C137	C	0.762219	0.199280	0.496614
C138	C	0.709888	0.254487	0.538477
H139	H	0.787203	0.268505	0.406255
H140	H	0.844210	0.273109	0.485660
H141	H	0.733424	0.164896	0.459136
H142	H	0.790405	0.169490	0.538552
H143	H	0.738686	0.288885	0.575958
H144	H	0.681685	0.284277	0.496547
H145	H	0.673795	0.227741	0.571352
H146	H	1.019332	0.023040	0.285309
C147	C	1.060131	-0.020168	0.683788
C148	C	1.101462	-0.063940	0.745885
C149	C	1.153761	-0.119371	0.704320
H150	H	1.096369	0.006360	0.650893
H151	H	1.031326	-0.054616	0.646374
H152	H	1.130265	-0.029496	0.783284
H153	H	1.065244	-0.090484	0.778784
H154	H	1.124956	-0.153819	0.666906
H155	H	1.189994	-0.092837	0.671426
H156	H	1.181806	-0.149081	0.746446
C157	C	0.850500	0.201828	0.669093
C158	C	0.803873	0.251223	0.725024
C159	C	0.755621	0.302359	0.676412
H160	H	0.817430	0.171937	0.631359
H161	H	0.882472	0.232914	0.635918
H162	H	0.771904	0.220141	0.758184
H163	H	0.836922	0.281132	0.762758
H164	H	0.787593	0.333445	0.643238
H165	H	0.722556	0.272461	0.638681
H166	H	0.723984	0.335884	0.714355
H167	H	0.837026	0.215985	0.272517
C168	C	0.173102	0.097822	-0.081741
C169	C	0.229847	0.095602	-0.146631
C170	C	0.192389	0.091013	-0.228006
H171	H	0.138017	0.142701	-0.087593
H172	H	0.144293	0.051322	-0.087077
H173	H	0.258643	0.142096	-0.141297
H174	H	0.264934	0.050724	-0.140807
H175	H	0.163580	0.044513	-0.233343
H176	H	0.157305	0.135894	-0.233850
H177	H	0.230885	0.089499	-0.272044
H178	H	0.555916	0.103130	-0.103635
H179	H	1.038547	0.002762	0.859191
