data_functionalizedCrystal
_audit_creation_method	'MofGen! by Chris Wilmer'
_symmetry_space_group_name_H-M	'P1'
_symmetry_Int_Tables_number	1
_symmetry_cell_setting	triclinic
loop_
_symmetry_equiv_pos_as_xyz
  x,y,z
_cell_length_a	21.295417
_cell_length_b	12.759401
_cell_length_c	21.295411
_cell_angle_alpha	90.022412
_cell_angle_beta	89.978356
_cell_angle_gamma	89.971344
loop_
_atom_site_label
_atom_site_type_symbol
_atom_site_fract_x
_atom_site_fract_y
_atom_site_fract_z
Zn1	Zn	-0.250712	-1.606169	-0.355875
Zn2	Zn	0.249288	-1.106169	0.144125
Zn3	Zn	-0.355964	-1.606007	-0.250601
Zn4	Zn	0.144036	-1.106007	0.249399
Zn5	Zn	-0.250709	-1.430463	-0.250624
Zn6	Zn	0.249291	-0.930463	0.249376
Zn7	Zn	-0.355944	-1.430412	-0.355836
Zn8	Zn	0.144056	-0.930412	0.144164
O9	O	-0.303332	-1.518263	-0.303234
O10	O	0.196668	-1.018263	0.196766
O11	O	-0.264683	-1.753169	-0.341917
O12	O	0.235317	-1.253169	0.158083
O13	O	-0.342009	-1.582674	-0.162514
O14	O	0.157991	-1.082674	0.337486
O15	O	-0.162620	-1.453860	-0.264612
O16	O	0.337380	-0.953860	0.235388
O17	O	-0.342012	-1.753049	-0.264572
O18	O	0.157988	-1.253049	0.235428
O19	O	-0.162622	-1.582951	-0.341940
O20	O	0.337378	-1.082951	0.158060
O21	O	-0.264678	-1.453702	-0.162532
O22	O	0.235322	-0.953702	0.337468
O23	O	-0.264659	-1.283435	-0.264574
O24	O	0.235341	-0.783435	0.235426
O25	O	-0.341978	-1.453773	-0.443931
O26	O	0.158022	-0.953773	0.056069
O27	O	-0.341975	-1.283397	-0.341873
O28	O	0.158025	-0.783397	0.158127
O29	O	-0.264664	-1.582902	-0.443960
O30	O	0.235336	-1.082902	0.056040
O31	O	-0.444051	-1.582624	-0.264534
O32	O	0.055949	-1.082624	0.235466
O33	O	-0.444036	-1.453615	-0.341850
O34	O	0.055964	-0.953615	0.158150
C35	C	-0.303315	-1.245295	-0.303223
C36	C	0.196685	-0.745295	0.196777
C37	C	-0.303323	-1.128519	-0.303233
C38	C	0.196677	-0.628519	0.196767
C39	C	-0.466884	-1.518125	-0.303199
C40	C	0.033116	-1.018125	0.196801
C41	C	-0.536852	-1.518162	-0.303205
C42	C	-0.036852	-1.018162	0.196795
C43	C	-0.343644	-1.073664	-0.343415
C44	C	0.156356	-0.573664	0.156585
C45	C	-0.343650	-0.963940	-0.343421
C46	C	0.156350	-0.463940	0.156579
C47	C	-0.263011	-0.963934	-0.263056
C48	C	0.236989	-0.463934	0.236944
C49	C	-0.263002	-1.073656	-0.263054
C50	C	0.236998	-0.573656	0.236946
C51	C	-0.390202	-1.073667	-0.389811
C52	C	0.109798	-0.573667	0.110189
C53	C	-0.390208	-0.963943	-0.389816
C54	C	0.109792	-0.463943	0.110184
C55	C	-0.569705	-1.585397	-0.262988
C56	C	-0.069705	-1.085397	0.237012
C57	C	-0.635448	-1.585446	-0.263002
C58	C	-0.135448	-1.085446	0.236998
C59	C	-0.668334	-1.518242	-0.303227
C60	C	-0.168334	-1.018242	0.196773
C61	C	-0.635473	-1.451002	-0.343452
C62	C	-0.135473	-0.951002	0.156548
C63	C	-0.569732	-1.450963	-0.343441
C64	C	-0.069732	-0.950963	0.156559
N65	N	-0.771599	-1.426335	-0.308022
N66	N	-0.271599	-0.926335	0.191978
N67	N	-0.834051	-1.426376	-0.308029
N68	N	-0.334051	-0.926376	0.191971
C69	C	-0.866409	-1.518359	-0.303263
C70	C	-0.366409	-1.018359	0.196737
N71	N	-0.833957	-1.610303	-0.298478
N72	N	-0.333957	-1.110303	0.201522
N73	N	-0.771500	-1.610261	-0.298469
N74	N	-0.271500	-1.110261	0.201531
C75	C	-0.739620	-1.518278	-0.303244
C76	C	-0.239620	-1.018278	0.196756
C77	C	-0.970548	-1.585653	-0.263059
C78	C	-0.470548	-1.085653	0.236941
C79	C	-1.036292	-1.585704	-0.263078
C80	C	-0.536292	-1.085704	0.236922
C81	C	-1.036316	-1.451251	-0.343524
C82	C	-0.536316	-0.951251	0.156476
C83	C	-0.970573	-1.451210	-0.343509
C84	C	-0.470573	-0.951210	0.156491
C85	C	-0.937693	-1.518409	-0.303273
C86	C	-0.437693	-1.018409	0.196727
C87	C	-0.139142	-1.518429	-0.303283
C88	C	0.360858	-1.018429	0.196717
C89	C	-0.069174	-1.518501	-0.303304
C90	C	0.430826	-1.018501	0.196696
C91	C	-0.303319	-1.518350	-0.467424
C92	C	0.196681	-1.018350	0.032576
C93	C	-0.303313	-1.518387	-0.537393
C94	C	0.196687	-1.018387	-0.037393
C95	C	-0.303345	-0.792296	-0.303243
C96	C	0.196655	-0.292296	0.196757
C97	C	-0.303337	-0.909072	-0.303240
C98	C	0.196663	-0.409072	0.196760
C99	C	-0.263054	-1.585621	-0.570275
C100	C	0.236946	-1.085621	-0.070275
C101	C	-0.263027	-1.585620	-0.636018
C102	C	0.236973	-1.085620	-0.136018
C103	C	-0.303270	-1.518395	-0.668875
C104	C	0.196730	-1.018395	-0.168875
C105	C	-0.343532	-1.451148	-0.635985
C106	C	0.156468	-0.951148	-0.135985
C107	C	-0.343553	-1.451144	-0.570243
C108	C	0.156447	-0.951144	-0.070243
N109	N	-0.358338	-1.510289	-0.772091
N110	N	0.141662	-1.010289	-0.272091
N111	N	-0.358315	-1.510299	-0.834542
N112	N	0.141685	-1.010299	-0.334542
C113	C	-0.303206	-1.518402	-0.866950
C114	C	0.196794	-1.018402	-0.366950
N115	N	-0.248119	-1.526514	-0.834547
N116	N	0.251881	-1.026514	-0.334547
N117	N	-0.248142	-1.526510	-0.772090
N118	N	0.251858	-1.026510	-0.272090
C119	C	-0.303251	-1.518392	-0.740161
C120	C	0.196749	-1.018392	-0.240161
C121	C	-0.262914	-1.585638	-0.971118
C122	C	0.237086	-1.085638	-0.471118
C123	C	-0.262886	-1.585629	-1.036862
C124	C	0.237114	-1.085629	-0.536862
C125	C	-0.343396	-1.451163	-1.036828
C126	C	0.156604	-0.951163	-0.536828
C127	C	-0.343419	-1.451166	-0.971085
C128	C	0.156581	-0.951166	-0.471085
C129	C	-0.303179	-1.518409	-0.938234
C130	C	0.196821	-1.018409	-0.438234
C131	C	-0.303300	-1.518236	-0.139683
C132	C	0.196700	-1.018236	0.360317
C133	C	-0.303128	-1.518403	-0.069715
C134	C	0.196872	-1.018403	0.430285
H135	H	-0.230165	-1.118314	-0.230338
H136	H	0.269835	-0.618314	0.269662
H137	H	-0.436484	-1.107659	-0.372259
H138	H	0.063516	-0.607659	0.127741
N139	N	-0.534290	-1.378432	-0.386812
N140	N	-0.034290	-0.878432	0.113188
H141	H	-0.506973	-1.421084	-0.416001
H142	H	-0.006973	-0.921084	0.083999
H143	H	-0.565135	-1.335878	-0.412257
H144	H	-0.065135	-0.835878	0.087743
N145	N	-0.219602	-1.658143	-0.671491
N146	N	0.280398	-1.158143	-0.171491
H147	H	-0.229393	-1.733197	-0.660065
H148	H	0.270607	-1.233197	-0.160065
H149	H	-0.225715	-1.647854	-0.718111
H150	H	0.274285	-1.147854	-0.218111
N151	N	-0.219524	-1.658178	-0.935683
N152	N	0.280476	-1.158178	-0.435683
H153	H	-0.225656	-1.647989	-0.889046
H154	H	0.274344	-1.147989	-0.389046
H155	H	-0.229340	-1.733191	-0.947202
H156	H	0.270660	-1.233191	-0.447202
H157	H	-0.438945	-0.934124	-0.376669
H158	H	0.061055	-0.434124	0.123331
N159	N	-0.367173	-0.918870	-0.451193
N160	N	0.132827	-0.418870	0.048807
H161	H	-0.328780	-0.874328	-0.443315
H162	H	0.171220	-0.374328	0.056685
H163	H	-0.356066	-0.977841	-0.480839
H164	H	0.143934	-0.477841	0.019161
H165	H	-1.063091	-1.396537	-0.376279
H166	H	-0.563091	-0.896537	0.123721
N167	N	-0.219638	-1.658131	-0.534854
N168	N	0.280362	-1.158131	-0.034854
H169	H	-0.190472	-1.615456	-0.507575
H170	H	0.309528	-1.115456	-0.007575
H171	H	-0.245266	-1.706786	-0.507619
H172	H	0.254734	-1.206786	-0.007619
H173	H	-0.376156	-1.396416	-1.063580
H174	H	0.123844	-0.896416	-0.563580
H175	H	-0.542936	-1.640117	-0.230227
H176	H	-0.042936	-1.140117	0.269773
N177	N	-0.670893	-1.657967	-0.219625
N178	N	-0.170893	-1.157967	0.280375
H179	H	-0.640088	-1.700532	-0.194135
H180	H	-0.140088	-1.200532	0.305865
H181	H	-0.698207	-1.615233	-0.190478
H182	H	-0.198207	-1.115233	0.309522
H183	H	-0.943776	-1.640375	-0.230298
H184	H	-0.443776	-1.140375	0.269702
N185	N	-0.386927	-1.378623	-0.671419
N186	N	0.113073	-0.878623	-0.171419
H187	H	-0.380803	-1.388825	-0.718056
H188	H	0.119197	-0.888825	-0.218056
H189	H	-0.431892	-1.394913	-0.659932
H190	H	0.068108	-0.894913	-0.159932
H191	H	-1.063040	-1.640461	-0.230329
H192	H	-0.563040	-1.140461	0.269671
H193	H	-0.376336	-1.396389	-0.543471
H194	H	0.123664	-0.896389	-0.043471
H195	H	-0.662254	-1.396286	-0.376205
H196	H	-0.162254	-0.896286	0.123795
H197	H	-0.230099	-1.640378	-1.063634
H198	H	0.269901	-1.140378	-0.563634
H199	H	-0.943822	-1.396456	-0.376255
H200	H	-0.443822	-0.896456	0.123745
N201	N	-0.386840	-1.378631	-0.935625
N202	N	0.113160	-0.878631	-0.435625
H203	H	-0.431816	-1.394891	-0.947066
H204	H	0.068184	-0.894891	-0.447066
H205	H	-0.380697	-1.388845	-0.889003
H206	H	0.119303	-0.888845	-0.389003
N207	N	-0.219534	-0.904761	-0.219713
N208	N	0.280466	-0.404761	0.280287
H209	H	-0.225659	-0.826929	-0.225809
H210	H	0.274341	-0.326929	0.274191
H211	H	-0.229273	-0.923909	-0.174740
H212	H	0.270727	-0.423909	0.325260
N213	N	-0.373004	-1.113173	-0.454420
N214	N	0.126996	-0.613173	0.045580
H215	H	-0.329833	-1.086851	-0.466105
H216	H	0.170167	-0.586851	0.033895
H217	H	-0.373031	-1.192327	-0.454399
H218	H	0.126969	-0.692327	0.045601
