data_functionalizedCrystal
_audit_creation_method	'MofGen! by Chris Wilmer'
_symmetry_space_group_name_H-M	'P1'
_symmetry_Int_Tables_number	1
_symmetry_cell_setting	triclinic
loop_
_symmetry_equiv_pos_as_xyz
  x,y,z
_cell_length_a	23.532356
_cell_length_b	10.723024
_cell_length_c	9.198806
_cell_angle_alpha	89.996352
_cell_angle_beta	89.995026
_cell_angle_gamma	96.352186
loop_
_atom_site_label
_atom_site_type_symbol
_atom_site_fract_x
_atom_site_fract_y
_atom_site_fract_z
O1	O	-0.079873	1.654667	-0.120854
O2	O	-0.087518	1.291274	-0.120856
O3	O	-0.000833	1.483962	-0.120876
O4	O	-0.166558	1.461979	-0.120834
O5	O	-0.000833	1.483947	0.120909
O6	O	-0.087518	1.291259	0.120929
O7	O	-0.079872	1.654652	0.120931
Cu8	Cu	-0.083695	1.472954	0.143007
Cu9	Cu	-0.083695	1.472972	-0.142932
O10	O	-0.166557	1.461964	0.120951
C11	C	-0.086961	1.244784	0.000036
C12	C	-0.085297	1.106282	0.000033
C13	C	-0.133801	1.029769	0.000044
C14	C	-0.132082	0.886620	0.000042
C15	C	-0.187778	1.462521	0.000063
C16	C	-0.251007	1.464173	0.000079
C17	C	-0.643088	1.474562	-0.131789
C18	C	-0.702498	1.476133	-0.131796
O19	O	-0.733222	1.476995	-0.243883
N20	N	-0.732211	1.476904	0.000000
C21	C	-0.702511	1.476116	0.131812
O22	O	-0.733240	1.476918	0.243914
C23	C	-0.643102	1.474554	0.131817
C24	C	-0.613393	1.473770	0.000013
C25	C	-0.613379	1.473779	-0.263582
C26	C	-0.553973	1.472205	-0.263575
C27	C	-0.524278	1.471414	-0.131773
C28	C	-0.553987	1.472196	0.000020
C29	C	-0.613403	1.473775	0.263627
C30	C	-0.553990	1.472213	0.263621
C31	C	-0.524280	1.471429	0.131817
C32	C	-0.464886	1.469830	0.131829
N33	N	-0.435173	1.469059	0.000033
C34	C	-0.464869	1.469851	-0.131768
C35	C	-0.827274	1.479400	0.131790
C36	C	-0.886683	1.480954	0.131786
C37	C	-0.886665	1.480973	-0.131822
C38	C	-0.827256	1.479411	-0.131817
C39	C	-0.797561	1.478629	-0.000006
C40	C	-0.340113	1.466544	-0.131742
C41	C	-0.280703	1.464965	-0.131723
C42	C	-0.280725	1.464953	0.131884
C43	C	-0.340131	1.466525	0.131866
C44	C	-0.369823	1.467325	0.000041
O45	O	-0.434124	1.468972	0.243860
O46	O	-0.434132	1.469066	-0.243851
C47	C	0.020387	1.483405	0.000009
C48	C	0.083617	1.481752	-0.000016
C49	C	-0.080429	1.701142	0.000036
C50	C	-0.082093	1.839644	0.000029
N51	N	-0.083694	1.472950	0.344121
N52	N	-0.083691	1.472985	-0.344046
C53	C	-0.047137	1.553860	0.416310
C54	C	-0.047135	1.553879	0.583722
H55	H	-0.042498	1.065811	-0.000015
Cl56	Cl	-0.243357	1.463978	-0.297432
H57	H	-0.015838	1.623111	0.354176
Cl58	Cl	-0.377431	1.467547	-0.297467
Cl59	Cl	0.001186	1.660838	0.679561
H60	H	-0.529788	1.471576	-0.370904
Cl61	Cl	-0.196195	0.785124	0.000045
Cl62	Cl	-0.199884	1.092242	0.000065
H63	H	-0.364324	1.467114	0.239192
Cl64	Cl	-0.132020	1.366036	0.560124
Cl65	Cl	-0.132013	1.366014	0.440043
Cl66	Cl	-0.650700	1.474774	-0.429299
Cl67	Cl	-0.924009	1.481944	-0.297517
H68	H	-0.040568	0.905379	0.000010
Cl69	Cl	-0.789913	1.478429	-0.297519
H70	H	-0.910869	1.481568	0.239114
H71	H	-0.803101	1.478753	0.239132
Cl72	Cl	-0.516662	1.471235	0.429337
H73	H	-0.637582	1.474426	0.370957
Cl74	Cl	-0.243383	1.463948	0.297569
