data_functionalizedCrystal
_audit_creation_method	'MofGen! by Chris Wilmer'
_symmetry_space_group_name_H-M	'P1'
_symmetry_Int_Tables_number	1
_symmetry_cell_setting	triclinic
loop_
_symmetry_equiv_pos_as_xyz
  x,y,z
_cell_length_a	16.109302
_cell_length_b	16.109301
_cell_length_c	15.186229
_cell_angle_alpha	89.994833
_cell_angle_beta	89.994701
_cell_angle_gamma	83.461631
loop_
_atom_site_label
_atom_site_type_symbol
_atom_site_fract_x
_atom_site_fract_y
_atom_site_fract_z
O1	O	1.103130	0.106869	-0.073271
O2	O	0.861068	0.120168	-0.073264
O3	O	0.988749	-0.007513	-0.073259
O4	O	0.975450	0.234549	-0.073276
O5	O	0.988740	-0.007514	0.073198
O6	O	0.861060	0.120166	0.073193
O7	O	1.103122	0.106867	0.073186
Zn8	Zn	0.982089	0.113516	0.096443
Zn9	Zn	0.982101	0.113519	-0.096521
O10	O	0.975441	0.234547	0.073181
C11	C	0.830089	0.119628	-0.000035
C12	C	0.737794	0.118013	-0.000032
C13	C	0.525448	0.114276	0.079793
C14	C	0.438728	0.112750	0.079790
C15	C	0.438748	0.112756	-0.079885
C16	C	0.525467	0.114277	-0.079881
C17	C	0.568815	0.115041	-0.000039
C18	C	0.395375	0.111994	-0.000046
C19	C	0.301350	0.110338	-0.000050
C20	C	0.662847	0.116695	-0.000035
C21	C	0.988206	-0.038488	-0.000030
C22	C	0.986591	-0.130784	-0.000028
C23	C	1.058599	-0.353056	-0.000044
C24	C	1.057074	-0.439776	-0.000052
C25	C	0.905586	-0.419902	-0.000044
C26	C	0.907111	-0.333184	-0.000043
C27	C	0.983620	-0.299763	-0.000039
C28	C	0.980571	-0.473202	-0.000047
C29	C	0.978918	-0.567228	-0.000055
C30	C	0.985273	-0.205731	-0.000033
C31	C	1.134101	0.107407	-0.000045
C32	C	1.226396	0.109022	-0.000054
C33	C	0.975984	0.265523	-0.000050
C34	C	0.977599	0.357819	-0.000057
N35	N	0.982088	0.113514	0.228136
N36	N	0.982109	0.113514	-0.228214
C37	C	1.038644	0.056996	0.453861
C38	C	1.038647	0.056994	0.546051
C39	C	0.925547	0.170035	0.546055
C40	C	0.925541	0.170032	0.453867
C41	C	0.982094	0.113514	0.407772
C42	C	0.982103	0.113514	0.592150
C43	C	0.982105	0.113513	0.692106
C44	C	0.982091	0.113514	0.307810
H45	H	0.403444	0.112134	-0.144890
H46	H	0.843295	-0.447124	-0.000046
O47	O	0.834194	-0.281527	0.000002
C48	C	0.766339	-0.329619	-0.000017
H49	H	0.787451	-0.394351	0.027711
H50	H	0.742890	-0.335780	-0.070279
C51	C	0.669442	-0.206881	0.023364
C52	C	0.695371	-0.286383	0.057427
H53	H	0.625664	-0.180210	0.058795
H54	H	0.715157	-0.174480	0.023374
H55	H	0.649907	-0.212026	-0.035187
H56	H	0.714915	-0.281236	0.115973
H57	H	0.649658	-0.318783	0.057429
H58	H	0.879503	0.216052	0.583594
H59	H	1.084692	0.010975	0.416333
O60	O	1.093661	0.002064	0.590684
C61	C	1.143556	-0.047833	0.530228
H62	H	1.144481	-0.013744	0.464510
H63	H	1.116581	-0.109604	0.520432
C64	C	1.232113	-0.106811	0.646910
C65	C	1.233255	-0.064939	0.566196
H66	H	1.287442	-0.117367	0.669097
H67	H	1.198496	-0.073198	0.687641
H68	H	1.209630	-0.158283	0.638736
H69	H	1.255727	-0.013464	0.574373
H70	H	1.266877	-0.098544	0.525466
O71	O	0.870574	0.225018	0.409227
C72	C	0.820651	0.274893	0.469677
H73	H	0.854738	0.275849	0.535387
H74	H	0.758900	0.247879	0.479496
C75	C	0.761620	0.363403	0.352977
C76	C	0.803489	0.364582	0.433681
H77	H	0.751030	0.418727	0.330772
H78	H	0.795251	0.329799	0.312249
H79	H	0.710166	0.340887	0.361170
H80	H	0.854946	0.387088	0.425484
H81	H	0.769865	0.398192	0.474406
O82	O	0.567664	0.114901	0.157292
C83	C	0.627248	0.043806	0.162081
H84	H	0.643395	0.020050	0.092764
H85	H	0.600430	-0.007174	0.201475
C86	C	0.686918	0.096284	0.292867
C87	C	0.706755	0.067110	0.207731
H88	H	0.735961	0.110657	0.321029
H89	H	0.646773	0.144180	0.289643
H90	H	0.664568	0.053795	0.325685
H91	H	0.729095	0.109602	0.174911
H92	H	0.746906	0.019221	0.210950
H93	H	0.560777	0.114897	-0.144895
H94	H	1.120897	-0.325848	-0.000043
O95	O	0.396726	0.112049	0.157419
C96	C	0.453588	0.113027	0.227885
H97	H	0.511955	0.140420	0.204479
H98	H	0.471553	0.046528	0.252438
C99	C	0.340899	0.133277	0.332056
C100	C	0.412584	0.166928	0.303310
H101	H	0.315606	0.166522	0.378584
H102	H	0.302590	0.132615	0.284583
H103	H	0.355880	0.077862	0.352511
H104	H	0.397601	0.222337	0.282847
H105	H	0.450891	0.167601	0.350782
O106	O	1.129986	-0.491426	-0.000015
C107	C	1.197837	-0.443328	-0.000035
H108	H	1.176715	-0.378603	0.027697
H109	H	1.221292	-0.437151	-0.070298
C110	C	1.294741	-0.566063	0.023336
C111	C	1.268801	-0.486569	0.057403
H112	H	1.338518	-0.592737	0.058763
H113	H	1.249030	-0.598469	0.023346
H114	H	1.314282	-0.560904	-0.035216
H115	H	1.249252	-0.491729	0.115950
H116	H	1.314511	-0.454165	0.057404
