data_functionalizedCrystal
_audit_creation_method	'MofGen! by Chris Wilmer'
_symmetry_space_group_name_H-M	'P1'
_symmetry_Int_Tables_number	1
_symmetry_cell_setting	triclinic
loop_
_symmetry_equiv_pos_as_xyz
  x,y,z
_cell_length_a	13.033293
_cell_length_b	19.121111
_cell_length_c	13.032268
_cell_angle_alpha	80.750656
_cell_angle_beta	89.079182
_cell_angle_gamma	80.076709
loop_
_atom_site_label
_atom_site_type_symbol
_atom_site_fract_x
_atom_site_fract_y
_atom_site_fract_z
Zn1	Zn	1.482851	0.220867	-0.793494
Zn2	Zn	1.497382	0.322887	-0.627070
Zn3	Zn	1.332976	0.217118	-0.599466
Zn4	Zn	1.301541	0.352481	-0.778719
O5	O	1.403688	0.278338	-0.699688
O6	O	1.629462	0.223584	-0.789154
O7	O	1.494811	0.294902	-0.478741
O8	O	1.359931	0.118270	-0.619836
O9	O	1.640138	0.298537	-0.666882
O10	O	1.470043	0.121024	-0.762387
O11	O	1.374022	0.217194	-0.458461
O12	O	1.184123	0.245891	-0.605509
O13	O	1.306355	0.348977	-0.925347
O14	O	1.161028	0.345342	-0.737206
O15	O	1.439563	0.252280	-0.936202
O16	O	1.464330	0.426159	-0.652555
O17	O	1.320446	0.447901	-0.763972
C18	C	1.135060	0.298421	-0.666759
C19	C	1.020136	0.307032	-0.652698
C20	C	0.963599	0.273862	-0.707027
C21	C	0.844818	0.282761	-0.692495
C22	C	1.390579	0.462789	-0.709682
C23	C	1.385061	0.541694	-0.714003
C24	C	1.457425	0.567422	-0.658086
C25	C	1.452241	0.641563	-0.662158
C26	C	1.374687	0.689974	-0.722141
C27	C	1.302319	0.664243	-0.778064
C28	C	1.307509	0.590103	-0.773998
C29	C	1.355272	0.914395	-0.737322
C30	C	1.350086	0.988538	-0.741382
C31	C	1.500009	0.965853	-0.625476
C32	C	1.505188	0.891714	-0.621410
C33	C	1.432824	0.865988	-0.677338
C34	C	1.369384	0.765758	-0.726301
C35	C	1.438132	0.790206	-0.673183
C36	C	1.673363	0.258178	-0.732745
C37	C	1.788283	0.249586	-0.746832
C38	C	1.367831	0.304348	-0.969334
C39	C	1.352552	0.315431	-1.084241
C40	C	1.416862	1.093169	-0.689693
C41	C	1.422450	1.014266	-0.685465
C42	C	1.411648	0.272529	-1.140841
C43	C	1.395857	0.283984	-1.259604
C44	C	1.439467	0.252374	-0.431095
C45	C	1.454961	0.241076	-0.316202
H46	H	0.805290	0.317748	-0.635217
H47	H	1.333562	0.329193	-1.299064
C48	C	1.264780	1.041791	-0.807376
H49	H	1.222432	1.015852	-0.840112
H50	H	1.222996	1.070301	-0.763868
H51	H	1.296295	1.072067	-0.858877
H52	H	1.290261	0.360637	-1.123706
H53	H	1.239177	0.703666	-0.826909
H54	H	0.980604	0.342017	-0.595424
C55	C	1.284075	0.819010	-0.792277
H56	H	1.241718	0.793073	-0.825004
H57	H	1.242300	0.847522	-0.748765
H58	H	1.315585	0.849284	-0.843785
C59	C	0.841667	0.202316	-0.824207
H60	H	0.790793	0.182656	-0.856401
H61	H	0.875903	0.230722	-0.875779
H62	H	0.891232	0.164397	-0.788163
C63	C	1.542736	0.514175	-0.592106
H64	H	1.585097	0.540119	-0.559395
H65	H	1.511243	0.483896	-0.540601
H66	H	1.584519	0.485669	-0.635627
C67	C	1.227910	0.561803	-0.835509
H68	H	1.180973	0.601252	-0.871810
H69	H	1.263462	0.534238	-0.883839
H70	H	1.190173	0.532467	-0.788822
C71	C	1.495786	0.211448	-1.087540
H72	H	1.530808	0.186013	-1.138450
H73	H	1.544463	0.231198	-1.052398
H74	H	1.463984	0.179438	-1.038900
H75	H	1.511167	0.662506	-0.616623
C76	C	1.590503	0.838466	-0.555436
H77	H	1.632865	0.864407	-0.522723
H78	H	1.559007	0.808186	-0.503933
H79	H	1.632284	0.809960	-0.598959
C80	C	1.016989	0.226598	-0.784400
H81	H	0.966116	0.206938	-0.816597
H82	H	1.051223	0.255006	-0.835971
H83	H	1.066556	0.188678	-0.748359
C84	C	1.579609	0.994154	-0.563970
H85	H	1.565419	1.045242	-0.574986
H86	H	1.574625	0.976459	-0.491984
H87	H	1.647900	0.978228	-0.587012
C88	C	1.539110	0.179994	-1.262909
H89	H	1.574132	0.154561	-1.313821
H90	H	1.587786	0.199748	-1.227770
H91	H	1.507315	0.147982	-1.214266
C92	C	1.523438	0.736959	-0.607204
H93	H	1.565800	0.762896	-0.574483
H94	H	1.491934	0.706680	-0.555707
H95	H	1.565221	0.708453	-0.650725
H96	H	1.296348	0.893455	-0.782859
