data_functionalizedCrystal
_audit_creation_method	'MofGen! by Chris Wilmer'
_symmetry_space_group_name_H-M	'P1'
_symmetry_Int_Tables_number	1
_symmetry_cell_setting	triclinic
loop_
_symmetry_equiv_pos_as_xyz
  x,y,z
_cell_length_a	14.519709
_cell_length_b	10.654550
_cell_length_c	9.130313
_cell_angle_alpha	90.000488
_cell_angle_beta	90.003947
_cell_angle_gamma	84.082538
loop_
_atom_site_label
_atom_site_type_symbol
_atom_site_fract_x
_atom_site_fract_y
_atom_site_fract_z
O1	O	0.129530	1.666595	0.121694
O2	O	0.141871	1.300997	0.121721
O3	O	0.001513	1.493489	0.121693
O4	O	0.269889	1.474103	0.121721
O5	O	0.001513	1.493475	-0.121906
O6	O	0.141871	1.300983	-0.121878
O7	O	0.129530	1.666580	-0.121905
Cu8	Cu	0.135701	1.483780	-0.144134
Cu9	Cu	0.135701	1.483797	0.143950
O10	O	0.269889	1.474088	-0.121878
C11	C	0.140965	1.254201	-0.000075
C12	C	0.138254	1.114784	-0.000065
C13	C	-0.032852	1.492579	-0.000106
C14	C	-0.135247	1.489871	-0.000107
C15	C	0.220895	1.034504	-0.000061
C16	C	0.218342	0.903507	-0.000087
C17	C	0.050500	0.933084	-0.000115
C18	C	0.053054	1.064078	-0.000100
C19	C	-0.510195	1.479904	-0.000068
C20	C	-0.405872	1.482672	-0.000079
C21	C	-0.322724	1.484887	-0.000089
C22	C	-0.218395	1.487656	-0.000097
C23	C	0.304253	1.474999	-0.000075
C24	C	0.406649	1.477706	-0.000065
C25	C	0.130436	1.713377	-0.000106
C26	C	0.133147	1.852794	-0.000106
N27	N	0.135700	1.483777	-0.346757
C28	C	0.192156	1.560066	-0.423403
C29	C	0.192151	1.560086	-0.576740
C30	C	0.079232	1.407519	-0.576771
C31	C	0.079233	1.407506	-0.423437
N32	N	0.135694	1.483810	0.346572
H33	H	0.285637	0.838147	-0.000086
H34	H	0.238121	1.622209	-0.639139
H35	H	-0.014247	1.129446	-0.000108
O36	O	0.246869	1.634231	-0.348753
C37	C	0.191220	1.719811	-0.260080
H38	H	0.122524	1.680581	-0.237118
H39	H	0.228392	1.733871	-0.152251
H40	H	0.177745	1.814181	-0.319164
O41	O	0.024495	1.333200	-0.349046
C42	C	0.049163	1.205797	-0.386557
H43	H	0.123454	1.193822	-0.428700
H44	H	0.043367	1.143995	-0.285729
H45	H	0.000616	1.176553	-0.475572
O46	O	0.303734	1.083552	-0.000105
C47	C	0.376126	0.984598	-0.000072
H48	H	0.349702	0.895561	-0.046205
H49	H	0.435557	1.012107	-0.070785
H50	H	0.401658	0.966109	0.116795
O51	O	-0.032180	0.883617	-0.000072
C52	C	-0.016715	0.750783	-0.000117
H53	H	0.055057	0.720180	0.046010
H54	H	-0.071282	0.710440	0.070594
H55	H	-0.021416	0.714317	-0.116988
H56	H	0.033259	1.345420	-0.639222
