data_functionalizedCrystal
_audit_creation_method	'MofGen! by Chris Wilmer'
_symmetry_space_group_name_H-M	'P1'
_symmetry_Int_Tables_number	1
_symmetry_cell_setting	triclinic
loop_
_symmetry_equiv_pos_as_xyz
  x,y,z
_cell_length_a	10.540539
_cell_length_b	19.288867
_cell_length_c	17.766277
_cell_angle_alpha	89.992126
_cell_angle_beta	90.003378
_cell_angle_gamma	96.168720
loop_
_atom_site_label
_atom_site_type_symbol
_atom_site_fract_x
_atom_site_fract_y
_atom_site_fract_z
O1	O	-0.158357	0.922409	-0.062563
O2	O	-0.179715	0.720291	-0.062570
O3	O	0.015773	0.825961	-0.062567
O4	O	-0.353845	0.816739	-0.062566
O5	O	0.015783	0.825942	0.062622
O6	O	-0.179705	0.720272	0.062619
O7	O	-0.158347	0.922390	0.062625
Cu8	Cu	-0.169025	0.821329	0.074053
Cu9	Cu	-0.169037	0.821352	-0.073997
O10	O	-0.353835	0.816720	0.062623
C11	C	-0.179022	0.694400	0.000024
C12	C	-0.176958	0.617283	0.000021
C13	C	-0.162095	0.061629	-0.068211
C14	C	-0.164027	0.134089	-0.068214
C15	C	-0.164994	0.170314	0.000027
C16	C	-0.163995	0.134075	0.068275
C17	C	-0.162051	0.061616	0.068275
C18	C	-0.242414	0.280150	0.052308
C19	C	-0.244366	0.352607	0.052304
C20	C	-0.170986	0.393800	0.000027
C21	C	-0.095669	0.362527	-0.052259
C22	C	-0.093725	0.290068	-0.052258
C23	C	-0.167101	0.248883	0.000033
C24	C	-0.174070	0.508601	-0.068220
C25	C	-0.175994	0.581063	-0.068220
C26	C	-0.175975	0.581046	0.068270
C27	C	-0.174038	0.508586	0.068268
C28	C	-0.173092	0.472367	0.000021
C29	C	-0.401128	0.817421	0.000028
C30	C	-0.542030	0.819490	0.000029
C31	C	-0.723691	0.898779	-0.000258
C32	C	-0.577119	0.896681	0.000030
C33	C	-0.604518	0.782331	0.071514
C34	C	-0.751003	0.784966	0.071568
C35	C	-0.751551	0.783417	-0.070795
C36	C	-0.604585	0.782706	-0.071734
C37	C	0.063066	0.825260	0.000026
C38	C	0.203968	0.823191	0.000020
C39	C	-0.159040	0.948280	0.000030
C40	C	-0.161104	1.025398	0.000028
N41	N	-0.169016	0.821319	0.178183
N42	N	-0.169036	0.821368	-0.178127
C43	C	-0.082497	0.868125	0.217571
C44	C	-0.082491	0.868129	0.296373
C45	C	-0.169026	0.821333	0.335784
C46	C	-0.255553	0.774518	0.296386
C47	C	-0.255548	0.774511	0.217586
C48	C	-0.284681	0.812806	0.460622
C49	C	-0.284687	0.812819	0.539421
C50	C	-0.169042	0.821352	0.578830
C51	C	-0.053384	0.829888	0.539431
C52	C	-0.053379	0.829881	0.460631
C53	C	-0.169041	0.821336	0.421229
C54	C	-0.082508	0.868165	0.703664
C55	C	-0.082501	0.868164	0.782467
C56	C	-0.255574	0.774557	0.782479
C57	C	-0.255571	0.774555	0.703677
C58	C	-0.169039	0.821362	0.664274
H59	H	-0.161249	0.032117	0.123845
C60	C	-0.576023	0.705751	0.075113
C61	C	-0.503296	0.679745	0.142885
C62	C	-0.474798	0.603165	0.146482
C63	C	-0.519027	0.552591	0.082308
C64	C	-0.591758	0.578596	0.014531
C65	C	-0.620256	0.655176	0.010934
H66	H	-0.470551	0.717183	0.190395
H67	H	-0.420957	0.583914	0.196655
H68	H	-0.497931	0.495902	0.084971
H69	H	-0.624503	0.541157	-0.032979
H70	H	-0.674097	0.674427	-0.039239
H71	H	-0.378859	0.805845	0.428541
H72	H	-0.302163	0.246616	0.094886
C73	C	-0.350746	0.723043	0.339733
C74	C	-0.350819	0.723082	0.426410
C75	C	-0.446012	0.671602	0.469756
C76	C	-0.541131	0.620083	0.426425
C77	C	-0.541062	0.620043	0.339743
C78	C	-0.445869	0.671522	0.296397
H79	H	-0.280403	0.761221	0.458491
H80	H	-0.446062	0.671632	0.533924
H81	H	-0.611599	0.581975	0.458512
H82	H	-0.611479	0.581904	0.307662
H83	H	-0.445819	0.671492	0.232229
H84	H	-0.533862	0.925923	-0.051211
H85	H	-0.161319	0.032144	-0.123783
H86	H	-0.164780	0.163574	0.123836
H87	H	-0.012035	0.906237	0.185492
C88	C	-0.761409	0.939991	-0.069511
C89	C	-0.858361	0.905516	-0.126659
C90	C	-0.896089	0.946729	-0.195914
C91	C	-0.836866	1.022417	-0.208021
C92	C	-0.739908	1.056895	-0.150871
C93	C	-0.702179	1.015682	-0.081616
H94	H	-0.902207	0.849485	-0.117698
H95	H	-0.967864	0.921206	-0.238220
H96	H	-0.864794	1.052925	-0.259288
H97	H	-0.696062	1.112927	-0.159832
H98	H	-0.630405	1.041206	-0.039310
H99	H	-0.032397	0.264609	-0.094830
H100	H	-0.326004	0.736395	0.185515
H101	H	-0.012033	0.906245	0.328449
H102	H	-0.173295	0.479110	-0.123791
C103	C	-0.165126	0.173954	-0.143280
C104	C	-0.164084	0.134116	-0.218348
C105	C	-0.165185	0.173978	-0.293414
C106	C	-0.167327	0.253679	-0.293413
C107	C	-0.168369	0.293522	-0.218343
C108	C	-0.167268	0.253660	-0.143277
H109	H	-0.162498	0.075112	-0.218351
H110	H	-0.164413	0.144483	-0.348986
H111	H	-0.168142	0.283188	-0.348982
H112	H	-0.169955	0.352526	-0.218340
H113	H	-0.168040	0.283155	-0.087705
H114	H	0.040793	0.836829	0.428555
H115	H	0.040785	0.836837	0.571516
C116	C	-0.763575	0.939795	0.068612
C117	C	-0.662725	0.968398	0.126645
C118	C	-0.702613	1.009410	0.195518
C119	C	-0.843351	1.021820	0.206357
C120	C	-0.944210	0.993217	0.148322
C121	C	-0.904322	0.952205	0.079450
H122	H	-0.558534	0.959211	0.118623
H123	H	-0.627949	1.030584	0.238479
H124	H	-0.872878	1.052180	0.257340
H125	H	-1.048401	1.002404	0.156344
H126	H	-0.978986	0.931031	0.036489
H127	H	-0.534710	0.926106	0.051365
H128	H	-0.800000	0.727658	-0.071271
H129	H	-0.035920	0.396065	-0.094830
H130	H	-0.176791	0.610562	-0.123791
C131	C	0.012685	0.919646	0.660317
C132	C	0.157225	0.917765	0.671158
C133	C	0.252419	0.969245	0.627815
C134	C	0.203074	1.022607	0.573630
C135	C	0.058527	1.024489	0.562786
C136	C	-0.036667	0.973009	0.606129
H137	H	0.193759	0.878262	0.711272
H138	H	0.359423	0.967851	0.635842
H139	H	0.273543	1.060715	0.541544
H140	H	0.021993	1.063992	0.522672
H141	H	-0.143671	0.974403	0.598102
C142	C	-0.817496	0.709974	0.075958
C143	C	-0.908379	0.681577	0.012616
C144	C	-0.974869	0.606588	0.017013
C145	C	-0.950476	0.559997	0.084751
C146	C	-0.859589	0.588393	0.148097
C147	C	-0.793099	0.663382	0.143701
H148	H	-0.926439	0.716068	-0.037532
H149	H	-1.042149	0.585568	-0.029881
H150	H	-0.999696	0.504486	0.088005
H151	H	-0.841528	0.553903	0.198246
H152	H	-0.725819	0.684403	0.190595
C153	C	-0.411905	0.803428	0.582756
C154	C	-0.539112	0.794026	0.539411
C155	C	-0.666333	0.784634	0.582744
C156	C	-0.666346	0.784645	0.669422
C157	C	-0.539134	0.794048	0.712771
C158	C	-0.411913	0.803440	0.669438
H159	H	-0.539107	0.794018	0.475243
H160	H	-0.760504	0.777674	0.550654
H161	H	-0.760522	0.777693	0.701499
H162	H	-0.539139	0.794056	0.776939
H163	H	-0.317742	0.810400	0.701528
C164	C	-0.177028	0.620879	0.143341
C165	C	-0.288551	0.663349	0.162126
C166	C	-0.289593	0.703183	0.237200
C167	C	-0.179113	0.700547	0.293490
C168	C	-0.067581	0.658075	0.274706
C169	C	-0.066539	0.618241	0.199631
H170	H	-0.370342	0.665302	0.120456
H171	H	-0.372157	0.734624	0.251105
H172	H	-0.179884	0.730034	0.349065
H173	H	0.014210	0.656122	0.316376
H174	H	0.016025	0.586800	0.185727
H175	H	-0.173236	0.479086	0.123836
H176	H	-0.778593	0.812413	0.125006
C177	C	-0.327218	0.387000	0.109815
C178	C	-0.303852	0.378569	0.194727
C179	C	-0.386709	0.412959	0.252239
C180	C	-0.492931	0.455781	0.224838
C181	C	-0.516302	0.464214	0.139922
C182	C	-0.433445	0.429824	0.082410
H183	H	-0.225216	0.346868	0.215014
H184	H	-0.369408	0.406716	0.315099
H185	H	-0.554267	0.481239	0.267412
H186	H	-0.594938	0.495915	0.119635
H187	H	-0.450746	0.436067	0.019549
C188	C	-0.546211	0.817181	0.143391
C189	C	-0.441417	0.879026	0.137371
C190	C	-0.383113	0.913880	0.209245
C191	C	-0.429602	0.886889	0.287140
C192	C	-0.534401	0.825041	0.293163
C193	C	-0.592706	0.790187	0.221288
H194	H	-0.406998	0.899009	0.079706
H195	H	-0.305534	0.959665	0.204786
H196	H	-0.386442	0.912690	0.340346
H197	H	-0.568820	0.805058	0.350828
H198	H	-0.670285	0.744402	0.225748
H199	H	-0.782552	0.808406	-0.124979
C200	C	-0.548561	0.819517	-0.143129
C201	C	-0.404348	0.823333	-0.158984
C202	C	-0.348360	0.860210	-0.230353
C203	C	-0.436584	0.893272	-0.285867
C204	C	-0.580805	0.889457	-0.270014
C205	C	-0.636793	0.852580	-0.198645
H206	H	-0.339032	0.798858	-0.117887
H207	H	-0.241598	0.863034	-0.242088
H208	H	-0.395138	0.920571	-0.338699
H209	H	-0.646122	0.913933	-0.311111
H210	H	-0.743556	0.849756	-0.186910
C211	C	-0.573586	0.706673	-0.077564
C212	C	-0.490557	0.676519	-0.016992
C213	C	-0.459569	0.600480	-0.022812
C214	C	-0.511609	0.554595	-0.089203
C215	C	-0.594643	0.584748	-0.149779
C216	C	-0.625631	0.660787	-0.143960
H217	H	-0.452029	0.710486	0.032159
H218	H	-0.398101	0.578159	0.022031
H219	H	-0.488670	0.498307	-0.093511
H220	H	-0.633171	0.550781	-0.198930
H221	H	-0.687098	0.683108	-0.188803
H222	H	-0.012039	0.906278	0.814538
H223	H	-0.326028	0.736453	0.814566
H224	H	-0.326028	0.736443	0.671605
