data_functionalizedCrystal
_audit_creation_method	'MofGen! by Chris Wilmer'
_symmetry_space_group_name_H-M	'P1'
_symmetry_Int_Tables_number	1
_symmetry_cell_setting	triclinic
loop_
_symmetry_equiv_pos_as_xyz
  x,y,z
_cell_length_a	13.032831
_cell_length_b	12.759399
_cell_length_c	12.759393
_cell_angle_alpha	90.028437
_cell_angle_beta	82.806329
_cell_angle_gamma	97.179054
loop_
_atom_site_label
_atom_site_type_symbol
_atom_site_fract_x
_atom_site_fract_y
_atom_site_fract_z
Zn1	Zn	1.597739	0.622490	-0.797747
Zn2	Zn	2.097739	1.122490	-0.297747
Zn3	Zn	1.597631	0.798195	-0.622063
Zn4	Zn	2.097631	1.298195	-0.122063
Zn5	Zn	1.422972	0.600199	-0.599800
Zn6	Zn	1.922972	1.100199	-0.099800
Zn7	Zn	1.422958	0.775780	-0.775430
Zn8	Zn	1.922958	1.275780	-0.275430
O9	O	1.510325	0.699166	-0.698760
O10	O	2.010325	1.199166	-0.198760
O11	O	1.743967	0.664507	-0.793098
O12	O	2.243967	1.164507	-0.293098
O13	O	1.574423	0.771982	-0.472083
O14	O	2.074423	1.271982	0.027917
O15	O	1.446206	0.456141	-0.626081
O16	O	1.946206	0.956141	-0.126081
O17	O	1.743888	0.793597	-0.664024
O18	O	2.243888	1.293597	-0.164024
O19	O	1.574607	0.472518	-0.771511
O20	O	2.074607	0.972518	-0.271511
O21	O	1.446102	0.626515	-0.455727
O22	O	1.946102	1.126515	0.044273
O23	O	1.276728	0.604780	-0.604441
O24	O	1.776728	1.104780	-0.104441
O25	O	1.446182	0.755394	-0.925416
O26	O	1.946182	1.255394	-0.425416
O27	O	1.276718	0.733779	-0.733475
O28	O	1.776718	1.233779	-0.233475
O29	O	1.574593	0.642772	-0.941812
O30	O	2.074593	1.142772	-0.441812
O31	O	1.574409	0.942236	-0.642384
O32	O	2.074409	1.442236	-0.142384
O33	O	1.446078	0.925768	-0.755063
O34	O	1.946078	1.425768	-0.255063
C35	C	1.238804	0.664429	-0.664121
C36	C	1.738804	1.164429	-0.164121
C37	C	1.122646	0.649594	-0.649328
C38	C	1.622646	1.149594	-0.149328
C39	C	1.510259	0.972125	-0.698744
C40	C	2.010259	1.472125	-0.198744
C41	C	1.510326	1.088910	-0.698785
C42	C	2.010326	1.588910	-0.198785
C43	C	1.510398	0.699069	-0.972803
C44	C	2.010398	1.199069	-0.472803
C45	C	1.510429	0.699028	-1.089583
C46	C	2.010429	1.199028	-0.589583
C47	C	1.070881	0.706909	-0.706481
C48	C	1.570881	1.206909	-0.206481
C49	C	0.950826	0.691577	-0.691192
C50	C	1.450826	1.191577	-0.191192
C51	C	1.782906	0.734039	-0.733534
C52	C	2.282906	1.234039	-0.233534
C53	C	1.899064	0.748900	-0.748353
C54	C	2.399064	1.248900	-0.248353
C55	C	1.577221	1.152321	-0.640200
C56	C	2.077221	1.652321	-0.140200
C57	C	1.577284	1.262053	-0.640246
C58	C	2.077284	1.762053	-0.140246
C59	C	1.443546	1.244952	-0.757464
C60	C	1.943546	1.744952	-0.257464
C61	C	1.443490	1.135222	-0.757423
C62	C	1.943490	1.635222	-0.257423
C63	C	1.654431	1.162196	-0.572521
C64	C	2.154431	1.662196	-0.072521
C65	C	1.654493	1.271928	-0.572568
C66	C	2.154493	1.771928	-0.072568
C67	C	1.510416	1.425144	-0.698815
C68	C	2.010416	1.925144	-0.198815
C69	C	1.510445	1.308371	-0.698872
C70	C	2.010445	1.808371	-0.198872
C71	C	1.577302	0.640381	-1.152986
C72	C	2.077302	1.140381	-0.652986
C73	C	1.577327	0.640346	-1.262713
C74	C	2.077327	1.140346	-0.762713
C75	C	1.443603	0.757614	-1.245625
C76	C	1.943603	1.257614	-0.745625
C77	C	1.443574	0.757643	-1.135900
C78	C	1.943574	1.257643	-0.635900
C79	C	1.654510	0.572680	-1.162852
C80	C	2.154510	1.072680	-0.662852
C81	C	1.654535	0.572646	-1.272579
C82	C	2.154535	1.072646	-0.772579
C83	C	1.510312	0.699194	-0.425791
C84	C	2.010312	1.199194	0.074209
C85	C	1.510483	0.698965	-0.309036
C86	C	2.010483	1.198965	0.190964
H87	H	1.115444	0.767324	-0.766733
H88	H	1.615444	1.267324	-0.266733
Cl89	Cl	1.773178	0.632881	-1.125429
Cl90	Cl	2.273178	1.132881	-0.625429
H91	H	1.389170	0.805334	-1.283350
H92	H	1.889170	1.305334	-0.783350
H93	H	1.625461	1.124544	-0.491499
H94	H	2.125461	1.624544	0.008501
Cl95	Cl	1.779349	1.132061	-0.622186
Cl96	Cl	2.279349	1.632061	-0.122186
Cl97	Cl	1.609676	0.447613	-1.319429
Cl98	Cl	2.109676	0.947613	-0.819429
Cl99	Cl	0.967851	0.842175	-0.841397
Cl100	Cl	1.467851	1.342175	-0.341397
H101	H	1.389116	0.805395	-1.084280
H102	H	1.889116	1.305395	-0.584280
Cl103	Cl	1.359405	1.055510	-0.831094
Cl104	Cl	1.859405	1.555510	-0.331094
Cl105	Cl	1.779497	0.622254	-1.334500
Cl106	Cl	2.279497	1.122254	-0.834500
H107	H	1.078083	0.589171	-0.589083
H108	H	1.578083	1.089171	-0.089083
Cl109	Cl	1.621111	1.313773	-0.442673
Cl110	Cl	2.121111	1.813773	0.057327
Cl111	Cl	1.621080	0.442791	-1.112633
Cl112	Cl	2.121080	0.942791	-0.612633
H113	H	0.906267	0.631149	-0.630943
H114	H	1.406267	1.131149	-0.130943
Cl115	Cl	1.359529	1.303181	-0.831178
Cl116	Cl	1.859529	1.803181	-0.331178
H117	H	1.731387	1.315704	-0.611587
H118	H	2.231387	1.815704	-0.111587
