data_functionalizedCrystal
_audit_creation_method	'MofGen! by Chris Wilmer'
_symmetry_space_group_name_H-M	'P1'
_symmetry_Int_Tables_number	1
_symmetry_cell_setting	triclinic
loop_
_symmetry_equiv_pos_as_xyz
  x,y,z
_cell_length_a	6.817900
_cell_length_b	11.102288
_cell_length_c	9.582880
_cell_angle_alpha	90.972801
_cell_angle_beta	111.207034
_cell_angle_gamma	108.605689
loop_
_atom_site_label
_atom_site_type_symbol
_atom_site_fract_x
_atom_site_fract_y
_atom_site_fract_z
V1	V	-4.142615	-0.175303	-0.466602
V2	V	-3.642615	0.324697	0.033398
O3	O	-4.101056	0.008976	-0.457719
O4	O	-3.601056	0.508976	0.042281
O5	O	-4.119180	-0.348127	-0.463410
O6	O	-3.619180	0.151873	0.036590
O7	O	-4.132954	-0.172364	-0.670102
O8	O	-3.632954	0.327636	-0.170102
O9	O	-4.087187	-0.168004	-0.249596
O10	O	-3.587187	0.331996	0.250404
V11	V	-4.617989	-0.153290	-0.440646
V12	V	-4.117989	0.346710	0.059354
O13	O	-4.421750	-0.223591	-0.523537
O14	O	-3.921750	0.276409	-0.023537
O15	O	-4.789051	-0.105002	-0.383710
O16	O	-4.289051	0.394998	0.116290
O17	O	-4.418218	0.019534	-0.443837
O18	O	-3.918218	0.519534	0.056163
O19	O	-4.776945	-0.337568	-0.449528
O20	O	-4.276945	0.162432	0.050472
O21	O	-4.790814	-0.160589	-0.657651
O22	O	-4.290814	0.339411	-0.157651
O23	O	-4.404444	-0.156228	-0.237145
O24	O	-3.904444	0.343772	0.262855
C25	C	-3.969000	-0.390265	-0.456050
C26	C	-3.469000	0.109735	0.043950
C27	C	-4.031384	-0.531549	-0.454797
C28	C	-3.531384	-0.031549	0.045203
C29	C	-4.245197	-0.604390	-0.461675
C30	C	-3.745197	-0.104390	0.038325
C31	C	-4.303807	-0.737143	-0.460510
C32	C	-3.803807	-0.237143	0.039490
C33	C	-3.934767	-0.724201	-0.445582
C34	C	-3.434767	-0.224201	0.054418
C35	C	-3.876165	-0.591453	-0.446758
C36	C	-3.376165	-0.091453	0.053242
C37	C	-3.986569	-0.166061	-0.719704
C38	C	-3.486569	0.333939	-0.219704
C39	C	-4.060118	-0.164802	-0.886067
C40	C	-3.560118	0.335198	-0.386067
C41	C	-4.231739	0.061666	-0.451194
C42	C	-3.731739	0.561666	0.048806
C43	C	-4.148596	0.202949	-0.452456
C44	C	-3.648596	0.702949	0.047544
C45	C	-4.214170	-0.162536	-0.187536
C46	C	-3.714170	0.337464	0.312464
C47	C	-4.119858	-0.163788	-0.021171
C48	C	-3.619858	0.336212	0.478829
H49	H	-4.371589	-0.555621	-0.468218
H50	H	-3.871589	-0.055621	0.031782
F51	F	-3.769585	-0.787965	-0.437020
F52	F	-3.269585	-0.287965	0.062980
H53	H	-4.477911	-0.796444	-0.466113
H54	H	-3.977911	-0.296444	0.033887
F55	F	-3.648590	-0.513927	-0.439446
F56	F	-3.148590	-0.013927	0.060554
