data_functionalizedCrystal
_audit_creation_method	'MofGen! by Chris Wilmer'
_symmetry_space_group_name_H-M	'P1'
_symmetry_Int_Tables_number	1
_symmetry_cell_setting	triclinic
loop_
_symmetry_equiv_pos_as_xyz
  x,y,z
_cell_length_a	14.044220
_cell_length_b	14.044220
_cell_length_c	14.586319
_cell_angle_alpha	90.004787
_cell_angle_beta	89.998609
_cell_angle_gamma	93.188878
loop_
_atom_site_label
_atom_site_type_symbol
_atom_site_fract_x
_atom_site_fract_y
_atom_site_fract_z
O1	O	1.277167	0.230166	0.076146
O2	O	1.000495	0.221861	0.076170
O3	O	1.134678	0.087678	0.076149
O4	O	1.142984	0.364349	0.076167
O5	O	1.134668	0.087675	-0.076331
O6	O	1.000485	0.221858	-0.076311
O7	O	1.277156	0.230163	-0.076334
Cu8	Cu	1.138820	0.226010	-0.090245
Cu9	Cu	1.138832	0.226014	0.090081
O10	O	1.142973	0.364346	-0.076314
C11	C	0.964868	0.218223	-0.000068
C12	C	0.858725	0.207379	-0.000059
C13	C	0.664388	0.187553	-0.000079
C14	C	0.613258	0.264467	-0.000078
C15	C	0.505122	0.253435	-0.000089
C16	C	0.772534	0.198583	-0.000068
C17	C	1.131037	0.052054	-0.000091
C18	C	1.120193	-0.054088	-0.000091
C19	C	1.100366	-0.248426	-0.000077
C20	C	1.177281	-0.299556	-0.000080
C21	C	1.166249	-0.407692	-0.000072
C22	C	1.111397	-0.140280	-0.000085
C23	C	1.312783	0.233800	-0.000095
C24	C	1.418926	0.244645	-0.000097
C25	C	1.146614	0.399969	-0.000072
C26	C	1.157459	0.506112	-0.000065
N27	N	1.138818	0.226008	-0.217077
C28	C	1.198257	0.166615	-0.452093
C29	C	1.198260	0.166613	-0.548074
C30	C	1.079394	0.285404	-0.548065
C31	C	1.079387	0.285401	-0.452086
C32	C	1.138824	0.226008	-0.404102
C33	C	1.138834	0.226009	-0.596063
C34	C	1.138836	0.226007	-0.700130
C35	C	1.138821	0.226008	-0.300028
N36	N	1.138840	0.226009	0.216912
H37	H	1.251414	-0.262117	-0.000025
O38	O	1.011980	-0.293191	0.000049
C39	C	1.001022	-0.350623	0.079034
H40	H	1.074210	-0.368931	0.105365
H41	H	0.957566	-0.419119	0.061274
H42	H	0.962429	-0.310263	0.134330
H43	H	0.650697	0.338600	-0.000069
H44	H	0.626951	0.113425	-0.000089
H45	H	1.031003	0.333762	-0.587143
O46	O	1.256014	0.108828	-0.405622
C47	C	1.308486	0.056422	-0.468567
H48	H	1.269257	0.052018	-0.536986
H49	H	1.316602	-0.018584	-0.440845
H50	H	1.382030	0.093455	-0.478768
O51	O	1.255856	0.108815	-0.594733
C52	C	1.199756	0.045577	-0.650274
H53	H	1.124327	0.037555	-0.621353
H54	H	1.232296	-0.026991	-0.651367
H55	H	1.197281	0.075030	-0.723013
O56	O	1.021623	0.343189	-0.405604
C57	C	0.969153	0.395600	-0.468534
H58	H	1.008389	0.400017	-0.536951
H59	H	0.961030	0.470602	-0.440790
H60	H	0.895612	0.358564	-0.478749
