data_functionalizedCrystal
_audit_creation_method	'MofGen! by Chris Wilmer'
_symmetry_space_group_name_H-M	'P1'
_symmetry_Int_Tables_number	1
_symmetry_cell_setting	triclinic
loop_
_symmetry_equiv_pos_as_xyz
  x,y,z
_cell_length_a	19.188930
_cell_length_b	11.792241
_cell_length_c	17.666332
_cell_angle_alpha	89.991220
_cell_angle_beta	90.005240
_cell_angle_gamma	96.330902
loop_
_atom_site_label
_atom_site_type_symbol
_atom_site_fract_x
_atom_site_fract_y
_atom_site_fract_z
O1	O	0.926933	-0.141703	0.063192
O2	O	1.426933	0.358297	0.563192
O3	O	0.723730	-0.160777	0.063140
O4	O	1.223730	0.339223	0.563140
O5	O	0.830263	0.014005	0.063162
O6	O	1.330263	0.514005	0.563162
O7	O	0.820401	-0.316484	0.063170
O8	O	1.320401	0.183516	0.563170
O9	O	0.830282	0.014028	-0.062735
O10	O	1.330282	0.514028	0.437265
O11	O	0.723749	-0.160754	-0.062756
O12	O	1.223749	0.339246	0.437244
O13	O	0.926952	-0.141679	-0.062705
O14	O	1.426952	0.358321	0.437295
Cu15	Cu	0.825352	-0.151214	-0.074226
Cu16	Cu	1.325352	0.348786	0.425774
Cu17	Cu	0.825330	-0.151242	0.074662
Cu18	Cu	1.325330	0.348758	0.574662
O19	O	0.820419	-0.316461	-0.062726
O20	O	1.320419	0.183539	0.437274
C21	C	0.697725	-0.160148	0.000185
C22	C	1.197725	0.339852	0.500185
C23	C	0.620210	-0.158293	0.000165
C24	C	1.120210	0.341707	0.500165
N25	N	0.825372	-0.151195	-0.178945
N26	N	1.325372	0.348805	0.321055
C27	C	0.829653	0.056298	0.000214
C28	C	1.329653	0.556298	0.500214
C29	C	0.827798	0.182284	0.000214
C30	C	1.327798	0.682284	0.500214
C31	C	0.575867	-0.260849	0.000180
C32	C	1.075867	0.239151	0.500180
C33	C	0.503033	-0.259107	0.000188
C34	C	1.003033	0.240893	0.500188
C35	C	0.474546	-0.154804	0.000197
C36	C	0.974546	0.345196	0.500197
C37	C	0.518899	-0.052234	0.000178
C38	C	1.018899	0.447766	0.500178
C39	C	0.591731	-0.053979	0.000163
C40	C	1.091731	0.446021	0.500163
N41	N	0.366108	-0.075084	0.043074
N42	N	0.866108	0.424916	0.543074
N43	N	0.296920	-0.073433	0.043090
N44	N	0.796920	0.426567	0.543090
C45	C	0.255107	-0.149540	0.000243
C46	C	0.755107	0.350460	0.500243
N47	N	0.285095	-0.227377	-0.042612
N48	N	0.785095	0.272623	0.457388
N49	N	0.354289	-0.229031	-0.042625
N50	N	0.854289	0.270969	0.457375
C51	C	0.395573	-0.152900	0.000214
C52	C	0.895573	0.347100	0.500214
C53	C	0.131789	-0.250214	0.000266
C54	C	0.631789	0.249786	0.500266
C55	C	0.058955	-0.248468	0.000269
C56	C	0.558955	0.251532	0.500269
C57	C	0.074822	-0.041591	0.000267
C58	C	0.574822	0.458409	0.500267
C59	C	0.147655	-0.043341	0.000256
C60	C	0.647655	0.456659	0.500256
C61	C	0.176134	-0.147655	0.000259
C62	C	0.676134	0.352345	0.500259
C63	C	0.952957	-0.142309	0.000252
C64	C	1.452957	0.357691	0.500252
C65	C	1.030472	-0.144163	0.000277
C66	C	1.530472	0.355837	0.500277
C67	C	0.821029	-0.358754	0.000224
C68	C	1.321029	0.141246	0.500224
C69	C	0.822884	-0.484740	0.000228
C70	C	1.322884	0.015260	0.500228
C71	C	0.824389	0.412945	0.000226
C72	C	1.324389	0.912945	0.500226
C73	C	0.826283	0.284588	0.000220
C74	C	1.326283	0.784588	0.500220
N75	N	0.825315	-0.151253	0.179381
N76	N	1.325315	0.348747	0.679381
C77	C	0.867833	-0.220051	0.219008
C78	C	1.367833	0.279949	0.719008
C79	C	0.867838	-0.220052	0.298256
C80	C	1.367838	0.279948	0.798256
C81	C	0.825332	-0.151234	0.337873
C82	C	1.325332	0.348766	0.837873
C83	C	0.782805	-0.082431	0.298236
C84	C	1.282805	0.417569	0.798236
C85	C	0.782797	-0.082441	0.218990
C86	C	1.282797	0.417559	0.718990
N87	N	0.823215	-0.051772	0.462282
N88	N	1.323215	0.448228	0.962282
N89	N	0.823227	-0.051766	0.537563
N90	N	1.323227	0.448234	1.037563
C91	C	0.825354	-0.151203	0.576637
C92	C	1.325354	0.348797	1.076637
N93	N	0.827483	-0.250648	0.537587
N94	N	1.327483	0.249352	1.037587
N95	N	0.827474	-0.250652	0.462300
N96	N	1.327474	0.249348	0.962300
C97	C	0.825337	-0.151217	0.423802
C98	C	1.325337	0.348783	0.923802
C99	C	0.867880	-0.220009	0.702194
C100	C	1.367880	0.279991	1.202194
C101	C	0.867879	-0.220012	0.781443
C102	C	1.367879	0.279988	1.281443
C103	C	0.782851	-0.082380	0.781422
C104	C	1.282851	0.417620	1.281422
C105	C	0.782847	-0.082388	0.702174
C106	C	1.282847	0.417612	1.202174
C107	C	0.825366	-0.151200	0.662565
C108	C	1.325366	0.348800	1.162565
H109	H	0.599050	-0.345790	0.000183
H110	H	1.099050	0.154210	0.500183
H111	H	0.022850	-0.331985	0.000277
H112	H	0.522850	0.168015	0.500277
H113	H	0.902454	-0.276086	0.186763
H114	H	1.402454	0.223914	0.686763
H115	H	0.902461	-0.276081	0.330527
H116	H	1.402461	0.223919	0.830527
Cl117	Cl	0.447277	-0.388045	0.000204
Cl118	Cl	0.947277	0.111955	0.500204
Cl119	Cl	0.921327	-0.306518	0.652395
Cl120	Cl	1.421327	0.193482	1.152395
Cl121	Cl	0.039016	0.089535	0.000270
Cl122	Cl	0.539016	0.589535	0.500270
Cl123	Cl	0.483087	0.078891	0.000185
Cl124	Cl	0.983087	0.578891	0.500185
H125	H	0.183760	0.040172	0.000248
H126	H	0.683760	0.540172	0.500248
Cl127	Cl	0.729366	0.004078	0.348040
Cl128	Cl	1.229366	0.504078	0.848040
H129	H	0.627836	0.029537	0.000151
H130	H	1.127836	0.529537	0.500151
Cl131	Cl	0.729341	0.004057	0.169171
Cl132	Cl	1.229341	0.504057	0.669171
H133	H	0.902501	-0.276043	0.813706
H134	H	1.402501	0.223957	1.313706
Cl135	Cl	0.729409	0.004126	0.831219
Cl136	Cl	1.229409	0.504126	1.331219
H137	H	0.748228	-0.026359	0.669910
H138	H	1.248228	0.473641	1.169910
H139	H	0.154978	-0.335153	0.000257
H140	H	0.654978	0.164847	0.500257
