data_functionalizedCrystal
_audit_creation_method	'MofGen! by Chris Wilmer'
_symmetry_space_group_name_H-M	'P1'
_symmetry_Int_Tables_number	1
_symmetry_cell_setting	triclinic
loop_
_symmetry_equiv_pos_as_xyz
  x,y,z
_cell_length_a	17.699083
_cell_length_b	14.519709
_cell_length_c	16.176319
_cell_angle_alpha	89.992256
_cell_angle_beta	89.998611
_cell_angle_gamma	83.481580
loop_
_atom_site_label
_atom_site_type_symbol
_atom_site_fract_x
_atom_site_fract_y
_atom_site_fract_z
O1	O	1.004413	0.116624	-0.068632
O2	O	1.337746	0.449958	0.264701
O3	O	1.671079	0.783291	0.598034
O4	O	0.784078	0.131798	-0.068660
O5	O	1.117411	0.465131	0.264674
O6	O	1.450744	0.798464	0.598007
O7	O	0.900087	-0.010052	-0.068638
O8	O	1.233420	0.323281	0.264695
O9	O	1.566754	0.656614	0.598029
O10	O	0.888403	0.258474	-0.068654
O11	O	1.221737	0.591808	0.264679
O12	O	1.555070	0.925141	0.598012
O13	O	0.900071	-0.010061	0.068855
O14	O	1.233404	0.323272	0.402189
O15	O	1.566738	0.656605	0.735522
O16	O	0.784062	0.131789	0.068833
O17	O	1.117395	0.465122	0.402167
O18	O	1.450728	0.798455	0.735500
O19	O	1.004397	0.116615	0.068861
O20	O	1.337730	0.449949	0.402194
O21	O	1.671063	0.783282	0.735527
Cu22	Cu	0.894228	0.124201	0.081401
Cu23	Cu	1.227561	0.457535	0.414735
Cu24	Cu	1.560894	0.790868	0.748068
Cu25	Cu	0.894247	0.124212	-0.081200
Cu26	Cu	1.227580	0.457545	0.252133
Cu27	Cu	1.560913	0.790878	0.585466
O28	O	0.888387	0.258465	0.068839
O29	O	1.221721	0.591799	0.402172
O30	O	1.555054	0.925132	0.735506
C31	C	0.755871	0.131249	0.000083
C32	C	1.089204	0.464583	0.333417
C33	C	1.422538	0.797916	0.666750
C34	C	0.671848	0.129618	0.000073
C35	C	1.005182	0.462952	0.333407
C36	C	1.338515	0.796285	0.666740
C37	C	0.899534	-0.044414	0.000109
C38	C	1.232868	0.288919	0.333442
C39	C	1.566201	0.622252	0.666775
C40	C	0.897903	-0.146789	0.000109
C41	C	1.231236	0.186545	0.333442
C42	C	1.564569	0.519878	0.666776
C43	C	0.623466	0.212881	0.000068
C44	C	0.956799	0.546214	0.333402
C45	C	1.290132	0.879548	0.666735
C46	C	0.544518	0.211343	0.000079
C47	C	0.877851	0.544676	0.333413
C48	C	1.211185	0.878010	0.666746
C49	C	0.513954	0.126541	0.000089
C50	C	0.847288	0.459875	0.333422
C51	C	1.180621	0.793208	0.666756
C52	C	0.562343	0.043272	0.000096
C53	C	0.895677	0.376605	0.333430
C54	C	1.229010	0.709939	0.666763
C55	C	0.641289	0.044811	0.000091
C56	C	0.974623	0.378144	0.333425
C57	C	1.307956	0.711478	0.666758
C58	C	0.243962	0.037064	0.000117
C59	C	0.577296	0.370397	0.333450
C60	C	0.910629	0.703730	0.666784
C61	C	0.165010	0.035531	0.000119
C62	C	0.498343	0.368864	0.333453
C63	C	0.831677	0.702198	0.666786
C64	C	0.147191	0.203596	0.000105
C65	C	0.480524	0.536929	0.333438
C66	C	0.813858	0.870262	0.666772
C67	C	0.226137	0.205135	0.000100
C68	C	0.559471	0.538468	0.333433
C69	C	0.892804	0.871801	0.666767
C70	C	0.274519	0.121866	0.000112
C71	C	0.607852	0.455199	0.333445
C72	C	0.941186	0.788533	0.666778
C73	C	0.360123	0.123535	0.000102
C74	C	0.693456	0.456868	0.333435
C75	C	1.026790	0.790201	0.666768
C76	C	0.428352	0.124872	0.000093
C77	C	0.761685	0.458205	0.333427
C78	C	1.095019	0.791538	0.666760
C79	C	0.891896	-0.521659	0.000087
C80	C	1.225229	-0.188326	0.333420
C81	C	1.558563	0.145008	0.666754
C82	C	0.893564	-0.417358	0.000093
C83	C	1.226897	-0.084025	0.333427
C84	C	1.560231	0.249309	0.666760
C85	C	0.894899	-0.334227	0.000099
C86	C	1.228232	-0.000894	0.333432
C87	C	1.561566	0.332440	0.666765
C88	C	0.896568	-0.229920	0.000104
C89	C	1.229901	0.103414	0.333437
C90	C	1.563234	0.436747	0.666770
C91	C	1.032603	0.117164	0.000116
C92	C	1.365937	0.450497	0.333449
C93	C	1.699270	0.783830	0.666782
C94	C	1.116626	0.118795	0.000121
C95	C	1.449959	0.452128	0.333454
C96	C	1.783293	0.785461	0.666787
C97	C	0.888940	0.292827	0.000090
C98	C	1.222273	0.626161	0.333424
C99	C	1.555607	0.959494	0.666757
C100	C	0.890572	0.395202	0.000085
C101	C	1.223905	0.728535	0.333418
C102	C	1.557238	1.061868	0.666751
N103	N	0.894220	0.124193	0.195767
N104	N	1.227553	0.457526	0.529100
N105	N	1.560887	0.790860	0.862433
N106	N	0.894260	0.124213	-0.195565
N107	N	1.227594	0.457546	0.137768
N108	N	1.560927	0.790879	0.471101
C109	C	0.945604	0.061408	0.239040
C110	C	1.278938	0.394741	0.572374
C111	C	1.612271	0.728074	0.905707
C112	C	0.945608	0.061407	0.325588
C113	C	1.278942	0.394740	0.658921
C114	C	1.612275	0.728073	0.992254
C115	C	0.894231	0.124196	0.368859
C116	C	1.227564	0.457530	0.702193
C117	C	1.560897	0.790863	1.035526
C118	C	0.842841	0.186985	0.325579
C119	C	1.176174	0.520318	0.658913
C120	C	1.509507	0.853651	0.992246
C121	C	0.842834	0.186981	0.239034
C122	C	1.176167	0.520314	0.572367
C123	C	1.509500	0.853647	0.905700
C124	C	0.842867	0.187002	0.674608
C125	C	1.176200	0.520335	1.007941
C126	C	1.509533	0.853669	1.341274
C127	C	0.842879	0.187003	0.761159
C128	C	1.176212	0.520337	1.094492
C129	C	1.509546	0.853670	1.427826
C130	C	0.945641	0.061428	0.761161
C131	C	1.278974	0.394761	1.094495
C132	C	1.612308	0.728095	1.427828
C133	C	0.945634	0.061424	0.674616
C134	C	1.278968	0.394757	1.007949
C135	C	1.612301	0.728091	1.341282
C136	C	0.894242	0.124209	0.631343
C137	C	1.227575	0.457542	0.964677
C138	C	1.560909	0.790875	1.298010
C139	C	0.894237	0.124208	0.537499
C140	C	1.227571	0.457541	0.870833
C141	C	1.560904	0.790874	1.204166
C142	C	0.894238	0.124202	0.462702
C143	C	1.227572	0.457536	0.796035
C144	C	1.560905	0.790869	1.129368
H145	H	0.505128	0.279144	0.000074
H146	H	0.838461	0.612478	0.333408
H147	H	1.171794	0.945811	0.666741
C148	C	0.786314	0.256048	0.191432
C149	C	1.119647	0.589381	0.524766
C150	C	1.452981	0.922715	0.858099
H151	H	0.755721	0.293450	0.229597
H152	H	1.089054	0.626784	0.562931
H153	H	1.422388	0.960117	0.896264
H154	H	0.754764	0.222920	0.157680
H155	H	1.088097	0.556253	0.491013
H156	H	1.421431	0.889587	0.824347
H157	H	0.813591	0.294399	0.157663
H158	H	1.146925	0.627732	0.490996
H159	H	1.480258	0.961065	0.824329
C160	C	0.694510	-0.046778	0.000088
C161	C	1.027844	0.286555	0.333422
C162	C	1.361177	0.619889	0.666755
H163	H	0.665002	-0.097504	0.000086
H164	H	0.998336	0.235829	0.333419
H165	H	1.331669	0.569163	0.666753
H166	H	0.725682	-0.049677	0.048032
H167	H	1.059015	0.283656	0.381365
H168	H	1.392348	0.616989	0.714699
H169	H	0.725673	-0.049664	-0.047868
H170	H	1.059007	0.283669	0.285466
H171	H	1.392340	0.617003	0.618799
H172	H	0.987445	0.010281	0.203814
H173	H	1.320778	0.343614	0.537148
H174	H	1.654112	0.676948	0.870481
C175	C	1.002138	-0.007649	0.373185
C176	C	1.335472	0.325685	0.706519
C177	C	1.668805	0.659018	1.039852
H178	H	1.032743	-0.045034	0.335019
H179	H	1.366077	0.288299	0.668352
H180	H	1.699410	0.621632	1.001686
H181	H	0.974874	-0.046003	0.406959
H182	H	1.308208	0.287331	0.740292
H183	H	1.641541	0.620664	1.073625
H184	H	1.033687	0.025494	0.406934
H185	H	1.367020	0.358827	0.740268
H186	H	1.700354	0.692161	1.073601
H187	H	0.251017	0.274189	0.000088
H188	H	0.584351	0.607522	0.333422
H189	H	0.917684	0.940856	0.666755
H190	H	0.801004	0.238106	0.360816
H191	H	1.134338	0.571440	0.694149
H192	H	1.467671	0.904773	1.027483
C193	C	1.002147	-0.007647	0.627021
C194	C	1.335480	0.325686	0.960355
C195	C	1.668814	0.659020	1.293688
H196	H	1.032746	-0.045047	0.665190
H197	H	1.366079	0.288286	0.998523
H198	H	1.699413	0.621619	1.331856
H199	H	1.033692	0.025475	0.593247
H200	H	1.367025	0.358808	0.926581
H201	H	1.700359	0.692142	1.259914
H202	H	0.974861	-0.045999	0.593273
H203	H	1.308194	0.287335	0.926606
H204	H	1.641527	0.620668	1.259940
C205	C	0.657079	0.306165	0.000057
C206	C	0.990412	0.639498	0.333391
C207	C	1.323745	0.972831	0.666724
H208	H	0.616954	0.355532	0.000064
H209	H	0.950287	0.688865	0.333397
H210	H	1.283621	1.022198	0.666730
H211	H	0.687504	0.310264	-0.047891
H212	H	1.020837	0.643597	0.285442
H213	H	1.354170	0.976931	0.618775
H214	H	0.687506	0.310255	0.048009
H215	H	1.020839	0.643588	0.381342
H216	H	1.354172	0.976921	0.714675
C217	C	0.093969	0.295191	0.000103
C218	C	0.427302	0.628524	0.333437
C219	C	0.760636	0.961858	0.666770
H220	H	0.042574	0.282134	0.000117
H221	H	0.375907	0.615467	0.333450
H222	H	0.709240	0.948801	0.666784
H223	H	0.103243	0.329973	-0.047848
H224	H	0.436577	0.663306	0.285486
H225	H	0.769910	0.996640	0.618819
H226	H	0.103251	0.329967	0.048052
H227	H	0.436584	0.663300	0.381385
H228	H	0.769917	0.996634	0.714719
H229	H	0.283346	-0.030739	0.000127
H230	H	0.616679	0.302594	0.333461
H231	H	0.950013	0.635927	0.666794
C232	C	1.002165	-0.007644	0.808763
C233	C	1.335498	0.325689	1.142096
C234	C	1.668831	0.659022	1.475430
H235	H	0.994808	0.001340	0.866504
H236	H	1.328141	0.334673	1.199837
H237	H	1.661474	0.668006	1.533171
H238	H	1.052687	0.002294	0.794572
H239	H	1.386020	0.335627	1.127906
H240	H	1.719353	0.668961	1.461239
H241	H	0.993859	-0.069185	0.794586
H242	H	1.327193	0.264149	1.127920
H243	H	1.660526	0.597482	1.461253
H244	H	0.801023	0.238125	0.639382
H245	H	1.134356	0.571459	0.972715
H246	H	1.467689	0.904792	1.306049
C247	C	0.131392	-0.057755	0.000138
C248	C	0.464725	0.275578	0.333472
C249	C	0.798058	0.608911	0.666805
H250	H	0.171512	-0.107127	0.000153
H251	H	0.504846	0.226206	0.333486
H252	H	0.838179	0.559539	0.666820
H253	H	0.100964	-0.061851	-0.047806
H254	H	0.434297	0.271483	0.285527
H255	H	0.767631	0.604816	0.618860
H256	H	0.100966	-0.061841	0.048094
H257	H	0.434299	0.271493	0.381427
H258	H	0.767633	0.604826	0.714760
H259	H	0.537452	-0.025775	0.000116
H260	H	0.870786	0.307558	0.333449
H261	H	1.204119	0.640891	0.666783
C262	C	0.786347	0.256058	0.808757
C263	C	1.119681	0.589392	1.142090
C264	C	1.453014	0.922725	1.475423
H265	H	0.755731	0.293441	0.770591
H266	H	1.089064	0.626774	1.103924
H267	H	1.422397	0.960108	1.437257
H268	H	0.813613	0.294416	0.842513
H269	H	1.146946	0.627749	1.175847
H270	H	1.480280	0.961083	1.509180
H271	H	0.754810	0.222908	0.842522
H272	H	1.088143	0.556241	1.175856
H273	H	1.421476	0.889575	1.509189
