data_functionalizedCrystal
_audit_creation_method	'MofGen! by Chris Wilmer'
_symmetry_space_group_name_H-M	'P1'
_symmetry_Int_Tables_number	1
_symmetry_cell_setting	triclinic
loop_
_symmetry_equiv_pos_as_xyz
  x,y,z
_cell_length_a	6.817900
_cell_length_b	16.305681
_cell_length_c	16.305550
_cell_angle_alpha	95.371254
_cell_angle_beta	103.455250
_cell_angle_gamma	103.457389
loop_
_atom_site_label
_atom_site_type_symbol
_atom_site_fract_x
_atom_site_fract_y
_atom_site_fract_z
V1	V	-4.026191	-0.117429	-0.263322
O2	O	-4.013843	0.004910	-0.258012
O3	O	-3.977589	-0.232137	-0.261807
O4	O	-3.977598	-0.115944	-0.378035
O5	O	-4.013834	-0.112087	-0.140979
V6	V	-4.509870	-0.102758	-0.248654
O7	O	-4.287107	-0.149611	-0.295497
O8	O	-4.699152	-0.070575	-0.216479
O9	O	-4.335266	0.011951	-0.250169
O10	O	-4.639615	-0.225097	-0.253964
O11	O	-4.639624	-0.108100	-0.370997
O12	O	-4.335257	-0.104243	-0.133941
C13	C	-3.822547	-0.260091	-0.257726
C14	C	-3.864094	-0.353868	-0.257252
C15	C	-3.940236	-0.525570	-0.256406
C16	C	-3.736017	-0.556086	-0.251127
C17	C	-3.779332	-0.653679	-0.250964
C18	C	-4.015199	-0.694622	-0.255573
C19	C	-4.151340	-0.674609	-0.339102
C20	C	-4.106672	-0.577011	-0.339618
C21	C	-4.026207	-0.551426	-0.178454
C22	C	-4.064811	-0.648742	-0.176814
C23	C	-4.057579	-0.790163	-0.255105
C24	C	-3.897866	-0.430030	-0.256880
C25	C	-3.822557	-0.111874	-0.405986
C26	C	-3.864109	-0.111419	-0.499767
C27	C	-4.015197	-0.109656	-0.840508
C28	C	-3.779151	-0.104421	-0.799567
C29	C	-3.735957	-0.105244	-0.702074
C30	C	-3.940239	-0.110530	-0.671462
C31	C	-4.107233	-0.193843	-0.722295
C32	C	-4.149097	-0.193372	-0.819843
C33	C	-4.069988	-0.032242	-0.794473
C34	C	-4.022059	-0.031583	-0.696629
C35	C	-3.897889	-0.111027	-0.575926
C36	C	-4.057556	-0.109164	-0.936046
C37	C	-4.153650	0.039900	-0.254247
C38	C	-4.091341	0.133676	-0.254727
C39	C	-4.153640	-0.108316	-0.105985
C40	C	-4.091326	-0.108767	-0.012203
H41	H	-3.912582	-0.515435	-0.115666
F42	F	-3.640463	-0.025688	-0.815419
H43	H	-3.669674	-0.538725	-0.307126
H44	H	-4.051772	-0.252463	-0.705627
F45	F	-4.285371	-0.684465	-0.174840
F46	F	-3.720176	-0.177119	-0.840930
H47	H	-4.322930	-0.200679	-0.847853
F48	F	-4.214567	-0.030221	-0.668716
H49	H	-4.242052	-0.035336	-0.821297
F50	F	-4.306584	-0.551910	-0.349699
F51	F	-3.950565	0.050269	-0.811744
H52	H	-3.734102	-0.684236	-0.307122
H53	H	-4.118080	-0.706837	-0.397594
F54	F	-4.033708	-0.557448	-0.416678
H55	H	-3.669505	-0.161503	-0.685919
F56	F	-3.932934	-0.664144	-0.096096
H57	H	-4.112925	-0.251976	-0.850370
H58	H	-3.609488	-0.045341	-0.666902
F59	F	-3.641282	-0.670322	-0.172496
F60	F	-3.863876	0.048966	-0.651501
F61	F	-3.569610	-0.510741	-0.172916
F62	F	-4.378277	-0.710483	-0.347490
H63	H	-4.177665	-0.532034	-0.181547
F64	F	-4.307421	-0.202840	-0.697601
