data_functionalizedCrystal
_audit_creation_method	'MofGen! by Chris Wilmer'
_symmetry_space_group_name_H-M	'P1'
_symmetry_Int_Tables_number	1
_symmetry_cell_setting	triclinic
loop_
_symmetry_equiv_pos_as_xyz
  x,y,z
_cell_length_a	14.519731
_cell_length_b	14.519731
_cell_length_c	13.596369
_cell_angle_alpha	90.005365
_cell_angle_beta	89.993633
_cell_angle_gamma	96.311147
loop_
_atom_site_label
_atom_site_type_symbol
_atom_site_fract_x
_atom_site_fract_y
_atom_site_fract_z
O1	O	1.223868	-0.120977	-0.081806
O2	O	0.955395	-0.135193	-0.081809
O3	O	1.096739	0.006152	-0.081787
O4	O	1.082523	-0.262321	-0.081827
O5	O	1.096721	0.006143	0.081796
O6	O	0.955376	-0.135202	0.081774
O7	O	1.223849	-0.120986	0.081777
Zn8	Zn	1.089610	-0.128095	0.107748
Zn9	Zn	1.089634	-0.128083	-0.107779
O10	O	1.082505	-0.262330	0.081756
C11	C	0.921026	-0.134531	-0.000017
C12	C	0.818645	-0.132535	-0.000017
C13	C	0.735501	-0.130913	-0.000021
C14	C	0.631192	-0.128887	-0.000021
C15	C	0.548053	-0.127278	-0.000021
C16	C	0.443738	-0.125252	-0.000023
C17	C	1.096064	0.040507	0.000007
C18	C	1.094068	0.142887	0.000016
C19	C	1.258218	-0.121648	-0.000016
C20	C	1.360598	-0.123644	-0.000022
C21	C	1.092446	0.226031	0.000021
C22	C	1.090419	0.330340	0.000022
C23	C	1.088811	0.413479	0.000022
C24	C	1.086785	0.517795	0.000025
N25	N	1.089600	-0.128103	0.254840
C26	C	1.083180	0.703315	-0.000020
C27	C	1.085176	0.600934	0.000025
C28	C	1.089604	-0.128105	0.343838
C29	C	1.089612	-0.128100	0.455489
C30	C	1.089624	-0.128090	0.544480
C31	C	1.089633	-0.128085	0.656138
N32	N	1.089645	-0.128076	0.745129
