data_functionalizedCrystal
_audit_creation_method	'MofGen! by Chris Wilmer'
_symmetry_space_group_name_H-M	'P1'
_symmetry_Int_Tables_number	1
_symmetry_cell_setting	triclinic
loop_
_symmetry_equiv_pos_as_xyz
  x,y,z
_cell_length_a	16.625547
_cell_length_b	21.295418
_cell_length_c	16.625539
_cell_angle_alpha	90.029217
_cell_angle_beta	90.024822
_cell_angle_gamma	90.028324
loop_
_atom_site_label
_atom_site_type_symbol
_atom_site_fract_x
_atom_site_fract_y
_atom_site_fract_z
Zn1	Zn	1.232647	-0.250609	0.455996
Zn2	Zn	1.732647	0.249391	0.955996
Zn3	Zn	1.232537	-0.355882	0.321161
Zn4	Zn	1.732537	0.144118	0.821161
Zn5	Zn	1.097809	-0.250631	0.321166
Zn6	Zn	1.597809	0.249369	0.821166
Zn7	Zn	1.097766	-0.355844	0.455941
Zn8	Zn	1.597766	0.144156	0.955941
O9	O	1.165190	-0.303242	0.388566
O10	O	1.665190	0.196758	0.888566
O11	O	1.345465	-0.264581	0.438130
O12	O	1.845465	0.235419	0.938130
O13	O	1.214637	-0.341946	0.208329
O14	O	1.714637	0.158054	0.708329
O15	O	1.115760	-0.162539	0.339077
O16	O	1.615760	0.337461	0.839077
O17	O	1.345384	-0.341925	0.339068
O18	O	1.845384	0.158075	0.839068
O19	O	1.214825	-0.162523	0.438136
O20	O	1.714825	0.337477	0.938136
O21	O	1.115653	-0.264618	0.208333
O22	O	1.615653	0.235382	0.708333
O23	O	0.984971	-0.264581	0.339024
O24	O	1.484971	0.235419	0.839024
O25	O	1.115686	-0.341859	0.568780
O26	O	1.615686	0.158141	1.068780
O27	O	0.984939	-0.341881	0.438042
O28	O	1.484939	0.158119	0.938042
O29	O	1.214783	-0.264544	0.568821
O30	O	1.714783	0.235456	1.068821
O31	O	1.214594	-0.443967	0.339014
O32	O	1.714594	0.056033	0.839014
O33	O	1.115579	-0.443939	0.438036
O34	O	1.615579	0.056061	0.938036
C35	C	0.955699	-0.303229	0.388528
C36	C	1.455699	0.196771	0.888528
C37	C	0.866078	-0.303239	0.388531
C38	C	1.366078	0.196761	0.888531
C39	C	1.165092	-0.466793	0.388536
C40	C	1.665092	0.033207	0.888536
C41	C	1.165124	-0.536761	0.388551
C42	C	1.665124	-0.036761	0.888551
C43	C	0.793295	-0.303241	0.388541
C44	C	1.293295	0.196759	0.888541
C45	C	0.701987	-0.303244	0.388561
C46	C	1.201987	0.196756	0.888561
C47	C	0.629210	-0.303250	0.388581
C48	C	1.129210	0.196750	0.888581
C49	C	0.537896	-0.303254	0.388601
C50	C	1.037896	0.196746	0.888601
C51	C	1.216873	-1.036158	0.440249
C52	C	1.716873	-0.536158	0.940249
C53	C	1.216850	-0.970415	0.440236
C54	C	1.716850	-0.470415	0.940236
C55	C	1.165300	-0.937601	0.388616
C56	C	1.665300	-0.437601	0.888616
C57	C	1.113784	-0.970534	0.336990
C58	C	1.613784	-0.470534	0.836990
C59	C	1.113815	-1.036276	0.336999
C60	C	1.613815	-0.536276	0.836999
N61	N	1.094675	-0.834431	0.382347
N62	N	1.594675	-0.334431	0.882347
N63	N	1.094648	-0.771980	0.382343
N64	N	1.594648	-0.271980	0.882343
C65	C	1.165205	-0.739526	0.388586
C66	C	1.665205	-0.239526	0.888586
N67	N	1.235791	-0.771883	0.394848
N68	N	1.735791	-0.271883	0.894848
N69	N	1.235817	-0.834340	0.394856
N70	N	1.735817	-0.334340	0.894856
C71	C	1.165261	-0.866315	0.388601
C72	C	1.665261	-0.366315	0.888601
C73	C	1.216696	-0.635315	0.440191
C74	C	1.716696	-0.135315	0.940191
C75	C	1.216673	-0.569571	0.440172
C76	C	1.716673	-0.069571	0.940172
C77	C	1.113600	-0.569692	0.336931
C78	C	1.613600	-0.069692	0.836931
C79	C	1.113630	-0.635434	0.336945
C80	C	1.613630	-0.135434	0.836945
C81	C	1.165176	-0.668242	0.388579
C82	C	1.665176	-0.168242	0.888579
C83	C	1.375499	-0.303254	0.388605
C84	C	1.875499	0.196746	0.888605
C85	C	1.465120	-0.303260	0.388621
C86	C	1.965120	0.196740	0.888621
C87	C	1.165242	-0.303195	0.598875
C88	C	1.665242	0.196805	1.098875
C89	C	1.165264	-0.303175	0.688496
C90	C	1.665264	0.196825	1.188496
C91	C	1.165310	-0.139051	0.388613
C92	C	1.665310	0.360949	0.888613
C93	C	1.165361	-0.069083	0.388633
C94	C	1.665361	0.430917	0.888633
C95	C	1.165184	-0.303243	0.179075
C96	C	1.665184	0.196757	0.679075
C97	C	1.165318	-0.303086	0.089454
C98	C	1.665318	0.196914	0.589454
C99	C	1.165302	-0.303104	1.016672
C100	C	1.665302	0.196896	1.516672
C101	C	1.165289	-0.303126	0.925363
C102	C	1.665289	0.196874	1.425363
C103	C	1.165283	-0.303140	0.852587
C104	C	1.665283	0.196860	1.352587
C105	C	1.165270	-0.303161	0.761273
C106	C	1.665270	0.196839	1.261273
H107	H	1.258853	-1.062866	0.482288
H108	H	1.758853	-0.562866	0.982288
O109	O	1.266604	-0.537517	0.490355
O110	O	1.766604	-0.037517	0.990355
C111	C	1.220645	-0.499505	0.542387
C112	C	1.720645	0.000495	1.042387
H113	H	1.159557	-0.489708	0.513878
H114	H	1.659557	0.010292	1.013878
H115	H	1.211753	-0.524817	0.602134
H116	H	1.711753	-0.024817	1.102134
C117	C	1.340002	-0.449054	0.592043
C118	C	1.840002	0.050946	1.092043
C119	C	1.264975	-0.437018	0.557025
C120	C	1.764975	0.062982	1.057025
H121	H	1.367348	-0.410510	0.601076
H122	H	1.867348	0.089490	1.101076
H123	H	1.370967	-0.474665	0.556991
H124	H	1.870967	0.025335	1.056991
H125	H	1.332582	-0.470149	0.641828
H126	H	1.832582	0.029851	1.141828
H127	H	1.272397	-0.415930	0.507236
H128	H	1.772397	0.084070	1.007236
H129	H	1.234013	-0.411401	0.592069
H130	H	1.734013	0.088599	1.092069
H131	H	1.071812	-0.943814	0.294959
H132	H	1.571812	-0.443814	0.794959
H133	H	1.071631	-0.542975	0.294897
H134	H	1.571631	-0.042975	0.794897
O135	O	1.266909	-0.938519	0.490462
O136	O	1.766909	-0.438519	0.990462
C137	C	1.312424	-0.981574	0.536023
C138	C	1.812424	-0.481574	1.036023
H139	H	1.279425	-1.028461	0.538777
H140	H	1.779425	-0.528461	1.038777
H141	H	1.373691	-0.988532	0.506576
H142	H	1.873691	-0.488532	1.006576
C143	C	1.364485	-0.898281	0.618469
C144	C	1.864485	-0.398281	1.118469
C145	C	1.323953	-0.955867	0.621857
C146	C	1.823953	-0.455867	1.121857
H147	H	1.371601	-0.882424	0.671414
H148	H	1.871601	-0.382424	1.171414
H149	H	1.333824	-0.869274	0.587772
H150	H	1.833824	-0.369274	1.087772
H151	H	1.415537	-0.904087	0.593926
H152	H	1.915537	-0.404087	1.093926
H153	H	1.272898	-0.950059	0.646390
H154	H	1.772898	-0.450059	1.146390
H155	H	1.354606	-0.984873	0.652560
H156	H	1.854606	-0.484873	1.152560
O157	O	1.063507	-0.667324	0.286785
O158	O	1.563507	-0.167324	0.786785
C159	C	1.018016	-0.624267	0.241205
C160	C	1.518016	-0.124267	0.741205
H161	H	1.015183	-0.577390	0.274221
H162	H	1.515183	-0.077390	0.774221
H163	H	1.047576	-0.617286	0.179997
H164	H	1.547576	-0.117286	0.679997
C165	C	0.935700	-0.707563	0.188949
C166	C	1.435700	-0.207563	0.688949
C167	C	0.932214	-0.649989	0.229503
C168	C	1.432214	-0.149989	0.729503
H169	H	0.882774	-0.723430	0.181726
H170	H	1.382774	-0.223430	0.681726
H171	H	0.966350	-0.736572	0.219654
H172	H	1.466350	-0.236572	0.719654
H173	H	0.960337	-0.701737	0.137946
H174	H	1.460337	-0.201737	0.637946
H175	H	0.907587	-0.655817	0.280508
H176	H	1.407587	-0.155817	0.780508
H177	H	0.901558	-0.620981	0.198805
H178	H	1.401558	-0.120981	0.698805
O179	O	1.063694	-1.068165	0.286834
O180	O	1.563694	-0.568165	0.786834
C181	C	1.018204	-1.025109	0.241251
C182	C	1.518204	-0.525109	0.741251
H183	H	1.015372	-0.978231	0.274263
H184	H	1.515372	-0.478231	0.774263
H185	H	1.047766	-1.018131	0.180042
H186	H	1.547766	-0.518131	0.680042
C187	C	0.935887	-1.108405	0.188998
C188	C	1.435887	-0.608405	0.688998
C189	C	0.932402	-1.050830	0.229548
C190	C	1.432402	-0.550830	0.729548
H191	H	0.882961	-1.124272	0.181775
H192	H	1.382961	-0.624272	0.681775
H193	H	0.966535	-1.137414	0.219706
H194	H	1.466535	-0.637414	0.719706
H195	H	0.960525	-1.102582	0.137995
H196	H	1.460525	-0.602582	0.637995
H197	H	0.907773	-1.056655	0.280553
H198	H	1.407773	-0.556655	0.780553
H199	H	0.901747	-1.021823	0.198848
H200	H	1.401747	-0.521823	0.698848
H201	H	1.258662	-0.662028	0.482240
H202	H	1.758662	-0.162028	0.982240
