data_functionalizedCrystal
_audit_creation_method	'MofGen! by Chris Wilmer'
_symmetry_space_group_name_H-M	'P1'
_symmetry_Int_Tables_number	1
_symmetry_cell_setting	triclinic
loop_
_symmetry_equiv_pos_as_xyz
  x,y,z
_cell_length_a	19.805407
_cell_length_b	12.759399
_cell_length_c	19.805398
_cell_angle_alpha	89.978012
_cell_angle_beta	89.984135
_cell_angle_gamma	90.015116
loop_
_atom_site_label
_atom_site_type_symbol
_atom_site_fract_x
_atom_site_fract_y
_atom_site_fract_z
Zn1	Zn	1.034764	-0.418308	-0.382738
Zn2	Zn	1.034709	-0.593996	-0.269558
Zn3	Zn	0.921586	-0.418332	-0.269563
Zn4	Zn	0.921564	-0.593945	-0.382704
O5	O	0.978156	-0.506145	-0.326141
O6	O	1.129473	-0.441625	-0.367736
O7	O	1.019688	-0.570725	-0.174842
O8	O	0.936632	-0.271308	-0.284592
O9	O	1.129432	-0.570702	-0.284583
O10	O	1.019783	-0.271290	-0.367741
O11	O	0.936578	-0.441665	-0.174845
O12	O	0.826867	-0.441616	-0.284559
O13	O	0.936595	-0.570615	-0.477425
O14	O	0.826851	-0.570639	-0.367684
O15	O	1.019762	-0.441575	-0.477450
O16	O	1.019667	-0.741010	-0.284551
O17	O	0.936541	-0.740973	-0.367679
C18	C	0.802300	-0.506125	-0.326119
C19	C	0.727068	-0.506142	-0.326126
C20	C	0.978114	-0.779113	-0.326125
C21	C	0.978158	-0.895889	-0.326141
C22	C	0.691733	-0.573425	-0.369339
C23	C	0.621045	-0.573427	-0.369348
C24	C	0.585692	-0.506150	-0.326141
C25	C	0.621032	-0.438859	-0.282926
C26	C	0.691719	-0.438853	-0.282920
C27	C	0.335958	-0.438883	-0.282948
C28	C	0.265266	-0.438896	-0.282956
C29	C	0.265284	-0.573456	-0.369376
C30	C	0.335971	-0.573450	-0.369370
C31	C	0.371305	-0.506156	-0.326158
C32	C	0.447953	-0.506154	-0.326149
C33	C	0.509045	-0.506157	-0.326146
C34	C	1.021492	-0.950736	-0.282906
C35	C	1.021535	-1.060460	-0.282928
C36	C	0.934906	-1.060481	-0.369424
C37	C	0.934867	-0.950759	-0.369405
C38	C	1.101430	-1.210333	-0.258846
C39	C	1.144757	-1.265183	-0.215599
C40	C	1.155179	-1.229627	-0.149559
C41	C	1.122263	-1.139222	-0.126751
C42	C	1.078931	-1.084378	-0.169994
C43	C	1.068522	-1.119932	-0.236044
C44	C	0.854971	-0.800884	-0.393480
C45	C	0.811635	-0.746038	-0.436720
C46	C	0.801207	-0.781592	-0.502762
C47	C	0.834110	-0.872000	-0.525567
C48	C	0.877446	-0.926846	-0.482327
C49	C	0.887876	-0.891285	-0.416286
C50	C	1.154698	-0.506166	-0.326163
C51	C	1.229930	-0.506175	-0.326173
C52	C	0.978182	-0.506087	-0.502684
C53	C	0.978194	-0.506062	-0.577916
C54	C	0.978216	-0.232112	-0.326171
C55	C	0.978241	-0.115335	-0.326184
C56	C	1.021580	-0.438685	-1.039721
C57	C	1.021570	-0.438717	-0.969032
C58	C	0.978263	-0.505916	-0.933677
C59	C	0.934969	-0.573095	-0.969015
C60	C	0.934983	-0.573067	-1.039702
C61	C	0.934910	-0.573209	-0.683941
C62	C	0.934897	-0.573229	-0.613249
C63	C	1.021496	-0.438859	-0.613272
C64	C	1.021511	-0.438831	-0.683959
C65	C	0.978220	-0.506013	-0.719290
C66	C	0.978233	-0.505979	-0.795938
C67	C	0.978246	-0.505946	-0.857030
C68	C	0.978168	-0.506127	-0.150285
C69	C	0.978288	-0.505856	-0.075053
H70	H	0.720512	-0.628213	-0.404521
H71	H	0.592278	-0.628217	-0.404536
C72	C	1.068416	-0.365736	-0.722377
C73	C	1.030112	-0.298359	-0.762946
C74	C	1.073299	-0.230999	-0.798337
H75	H	1.097919	-0.405793	-0.750007
H76	H	1.094186	-0.325675	-0.691229
H77	H	1.004354	-0.338415	-0.794091
H78	H	1.000612	-0.258279	-0.735333
H79	H	1.099069	-0.190938	-0.767189
H80	H	1.102800	-0.271064	-0.825963
H81	H	1.047317	-0.185269	-0.825863
C82	C	0.887830	-0.646178	-0.722173
C83	C	0.849887	-0.705006	-0.676078
C84	C	0.806500	-0.772227	-0.711275
H85	H	0.913638	-0.692045	-0.749748
H86	H	0.858316	-0.605997	-0.749735
H87	H	0.879396	-0.745184	-0.648528
H88	H	0.824064	-0.659167	-0.648502
H89	H	0.776986	-0.732047	-0.738837
H90	H	0.832314	-0.818087	-0.738849
H91	H	0.780746	-0.812143	-0.680006
H92	H	1.171557	-1.338790	-0.234176
C93	C	0.887975	-0.645941	-0.930510
C94	C	0.897213	-0.631568	-0.861042
C95	C	0.853924	-0.698644	-0.825552
H96	H	0.897824	-0.716571	-0.942006
H97	H	0.842489	-0.630544	-0.942055
H98	H	0.942688	-0.646972	-0.849501
H99	H	0.887358	-0.560951	-0.849526
H100	H	0.808438	-0.683248	-0.837097
H101	H	0.863777	-0.769271	-0.837054
H102	H	0.860182	-0.688895	-0.778415
H103	H	0.364718	-0.384096	-0.247757
C104	C	0.374231	-0.646533	-0.416357
C105	C	0.328156	-0.705439	-0.454217
C106	C	0.363375	-0.772761	-0.497517
H107	H	0.401795	-0.692347	-0.390488
H108	H	0.401807	-0.606422	-0.445925
H109	H	0.300592	-0.745547	-0.424652
H110	H	0.300591	-0.659653	-0.480099
H111	H	0.390951	-0.732650	-0.527086
H112	H	0.390937	-0.818568	-0.471644
H113	H	0.332119	-0.812729	-0.523215
C114	C	1.043071	-0.986342	-0.145234
C115	C	0.973141	-1.001179	-0.149261
C116	C	0.940090	-0.910891	-0.126449
H117	H	1.055717	-0.928368	-0.172559
H118	H	1.055436	-0.973016	-0.099693
H119	H	0.960782	-1.014492	-0.194794
H120	H	0.960477	-1.059135	-0.121934
H121	H	0.952454	-0.897565	-0.080908
H122	H	0.952741	-0.852924	-0.153776
H123	H	0.892639	-0.920949	-0.129172
C124	C	0.887906	-0.646085	-0.574740
C125	C	0.897147	-0.631703	-0.505274
C126	C	0.853867	-0.698784	-0.469778
H127	H	0.897760	-0.716714	-0.586234
H128	H	0.842418	-0.630698	-0.586283
H129	H	0.942625	-0.647098	-0.493735
H130	H	0.887288	-0.561087	-0.493760
H131	H	0.808379	-0.683397	-0.481321
H132	H	0.863724	-0.769410	-0.481278
H133	H	0.860127	-0.689029	-0.422642
C134	C	0.582736	-0.365875	-0.235906
C135	C	0.599916	-0.388589	-0.168911
C136	C	0.564659	-0.321369	-0.125576
H137	H	0.535566	-0.375451	-0.242006
H138	H	0.594346	-0.295285	-0.245850
H139	H	0.588301	-0.459161	-0.158970
H140	H	0.647080	-0.379007	-0.162790
H141	H	0.576269	-0.250780	-0.135520
H142	H	0.517491	-0.330950	-0.131682
H143	H	0.576315	-0.336765	-0.080116
H144	H	0.236507	-0.628247	-0.404564
C145	C	0.887905	-0.646035	-1.077944
C146	C	0.849962	-0.704872	-1.031854
C147	C	0.806582	-0.772097	-1.067056
H148	H	0.913718	-0.691897	-1.105518
H149	H	0.858391	-0.605857	-1.105506
H150	H	0.879472	-0.745048	-1.004302
H151	H	0.824135	-0.659039	-1.004278
H152	H	0.777068	-0.731918	-1.094619
H153	H	0.832400	-0.817951	-1.094629
H154	H	0.780828	-0.812019	-1.035790
H155	H	0.720488	-0.384059	-0.247735
C156	C	1.068537	-0.891028	-0.236050
C157	C	1.111860	-0.827921	-0.274401
C158	C	1.155203	-0.772897	-0.231260
H159	H	1.094415	-0.939292	-0.210289
H160	H	1.042668	-0.848229	-0.206536
H161	H	1.137726	-0.870716	-0.303903
H162	H	1.086000	-0.779638	-0.300160
H163	H	1.129335	-0.730098	-0.201746
H164	H	1.181077	-0.821168	-0.205502
H165	H	1.184599	-0.730065	-0.257275
C166	C	1.133687	-1.100763	-0.055031
C167	C	1.178693	-1.168128	-0.022048
C168	C	1.189241	-1.132721	0.044018
H169	H	1.091922	-1.099795	-0.031451
H170	H	1.152092	-1.032017	-0.056172
H171	H	1.160287	-1.236856	-0.020904
H172	H	1.220467	-1.169104	-0.045609
H173	H	1.207646	-1.063974	0.042877
H174	H	1.147473	-1.131753	0.067592
H175	H	1.219783	-1.178416	0.066403
C176	C	1.202273	-1.289290	-0.102718
C177	C	1.228877	-1.376056	-0.136830
C178	C	1.272272	-1.431036	-0.093709
H179	H	1.177898	-1.312433	-0.064183
H180	H	1.238048	-1.244586	-0.088873
H181	H	1.193107	-1.420752	-0.150665
H182	H	1.253264	-1.352943	-0.175362
H183	H	1.308047	-1.386331	-0.079864
H184	H	1.247892	-1.454171	-0.055176
H185	H	1.290333	-1.489906	-0.116849
H186	H	0.236484	-0.384105	-0.247771
H187	H	1.092955	-1.239284	-0.312623
C188	C	0.866162	-0.762357	-0.321736
C189	C	0.804448	-0.761053	-0.287249
C190	C	0.814728	-0.725584	-0.221154
H191	H	0.884500	-0.693579	-0.322808
H192	H	0.896656	-0.807976	-0.299217
H193	H	0.773965	-0.715434	-0.309761
H194	H	0.786100	-0.829819	-0.286157
H195	H	0.845222	-0.771203	-0.198635
H196	H	0.833067	-0.656807	-0.222233
H197	H	0.772858	-0.724703	-0.197744
H198	H	0.899659	-1.105170	-0.404647
C199	C	1.068477	-0.366034	-0.574789
C200	C	1.059213	-0.380456	-0.505316
C201	C	1.102482	-0.313396	-0.469847
H202	H	1.058627	-0.295397	-0.586298
H203	H	1.113969	-0.381415	-0.586338
H204	H	1.013732	-0.365068	-0.493772
H205	H	1.069068	-0.451079	-0.493787
H206	H	1.147973	-0.328776	-0.481396
H207	H	1.092628	-0.242764	-0.481362
H208	H	1.096206	-0.323179	-0.422707
H209	H	0.904241	-1.000458	-0.500902
C210	C	0.822853	-0.910805	-0.597237
C211	C	0.860931	-1.001734	-0.607947
C212	C	0.850568	-1.037518	-0.673958
H213	H	0.836516	-0.858246	-0.628355
H214	H	0.776327	-0.925977	-0.603628
H215	H	0.907448	-0.986558	-0.601563
H216	H	0.847275	-1.054315	-0.576846
H217	H	0.804041	-1.052690	-0.680349
H218	H	0.864231	-0.984951	-0.705071
H219	H	0.876397	-1.099221	-0.681232
C220	C	0.754062	-0.722042	-0.549615
C221	C	0.689200	-0.719550	-0.521528
C222	C	0.645761	-0.664698	-0.564672
H223	H	0.752490	-0.756100	-0.592225
H224	H	0.770162	-0.652451	-0.555315
H225	H	0.673103	-0.789128	-0.515837
H226	H	0.690750	-0.685484	-0.478922
H227	H	0.661862	-0.595107	-0.570371
H228	H	0.644195	-0.698761	-0.607280
H229	H	0.601749	-0.662991	-0.545618
C230	C	1.068561	-0.365553	-1.078016
C231	C	1.053854	-0.261610	-1.060814
C232	C	1.097128	-0.194213	-1.096069
H233	H	1.062414	-0.375009	-1.125186
H234	H	1.114044	-0.380877	-1.066418
H235	H	1.008383	-0.246290	-1.072416
H236	H	1.060006	-0.252120	-1.013650
H237	H	1.142610	-0.209537	-1.084471
H238	H	1.090977	-0.203678	-1.143237
H239	H	1.087159	-0.123681	-1.084398
H240	H	1.056824	-0.384023	-0.940268
H241	H	0.784847	-0.672418	-0.418148
