data_functionalizedCrystal
_audit_creation_method	'MofGen! by Chris Wilmer'
_symmetry_space_group_name_H-M	'P1'
_symmetry_Int_Tables_number	1
_symmetry_cell_setting	triclinic
loop_
_symmetry_equiv_pos_as_xyz
  x,y,z
_cell_length_a	21.395362
_cell_length_b	19.805405
_cell_length_c	21.395355
_cell_angle_alpha	89.980090
_cell_angle_beta	89.956060
_cell_angle_gamma	90.042288
loop_
_atom_site_label
_atom_site_type_symbol
_atom_site_fract_x
_atom_site_fract_y
_atom_site_fract_z
Zn1	Zn	0.957878	-0.269255	-0.354580
Zn2	Zn	1.207878	-0.019255	-0.104580
Zn3	Zn	1.457878	0.230745	0.145420
Zn4	Zn	1.707878	0.480745	0.395420
Zn5	Zn	0.957789	-0.382425	-0.249800
Zn6	Zn	1.207789	-0.132425	0.000200
Zn7	Zn	1.457789	0.117575	0.250200
Zn8	Zn	1.707789	0.367575	0.500200
Zn9	Zn	0.853093	-0.269286	-0.249781
Zn10	Zn	1.103093	-0.019286	0.000219
Zn11	Zn	1.353093	0.230714	0.250219
Zn12	Zn	1.603093	0.480714	0.500219
Zn13	Zn	0.853070	-0.382438	-0.354504
Zn14	Zn	1.103070	-0.132438	-0.104504
Zn15	Zn	1.353070	0.117562	0.145496
Zn16	Zn	1.603070	0.367562	0.395496
O17	O	0.905458	-0.325851	-0.302166
O18	O	1.155458	-0.075851	-0.052166
O19	O	1.405458	0.174149	0.197834
O20	O	1.655458	0.424149	0.447834
O21	O	1.045544	-0.284248	-0.340720
O22	O	1.295544	-0.034248	-0.090720
O23	O	1.545544	0.215752	0.159280
O24	O	1.795544	0.465752	0.409280
O25	O	0.943873	-0.367424	-0.162119
O26	O	1.193873	-0.117424	0.087881
O27	O	1.443873	0.132576	0.337881
O28	O	1.693873	0.382576	0.587881
O29	O	0.867040	-0.174565	-0.263706
O30	O	1.117040	0.075435	-0.013706
O31	O	1.367040	0.325435	0.236294
O32	O	1.617040	0.575435	0.486294
O33	O	1.045478	-0.367393	-0.263738
O34	O	1.295478	-0.117393	-0.013738
O35	O	1.545478	0.132607	0.236262
O36	O	1.795478	0.382607	0.486262
O37	O	0.944025	-0.174542	-0.340701
O38	O	1.194025	0.075458	-0.090701
O39	O	1.444025	0.325458	0.159299
O40	O	1.694025	0.575458	0.409299
O41	O	0.866953	-0.284302	-0.162105
O42	O	1.116953	-0.034302	0.087895
O43	O	1.366953	0.215698	0.337895
O44	O	1.616953	0.465698	0.587895
O45	O	0.765412	-0.284315	-0.263633
O46	O	1.015412	-0.034315	-0.013633
O47	O	1.265412	0.215685	0.236367
O48	O	1.515412	0.465685	0.486367
O49	O	0.867001	-0.367417	-0.442192
O50	O	1.117001	-0.117417	-0.192192
O51	O	1.367001	0.132583	0.057808
O52	O	1.617001	0.382583	0.307808
O53	O	0.765395	-0.367448	-0.340573
O54	O	1.015395	-0.117448	-0.090573
O55	O	1.265395	0.132552	0.159427
O56	O	1.515395	0.382552	0.409427
O57	O	0.944003	-0.284261	-0.442247
O58	O	1.194003	-0.034261	-0.192247
O59	O	1.444003	0.215739	0.057753
O60	O	1.694003	0.465739	0.307753
O61	O	0.943850	-0.477143	-0.263665
O62	O	1.193850	-0.227143	-0.013665
O63	O	1.443850	0.022857	0.236335
O64	O	1.693850	0.272857	0.486335
O65	O	0.866914	-0.477153	-0.340591
O66	O	1.116914	-0.227153	-0.090591
O67	O	1.366914	0.022847	0.159409
O68	O	1.616914	0.272847	0.409409
C69	C	0.742670	-0.325887	-0.302093
C70	C	0.992670	-0.075887	-0.052093
C71	C	1.242670	0.174113	0.197907
C72	C	1.492670	0.424113	0.447907
C73	C	0.673029	-0.325918	-0.302077
C74	C	0.923029	-0.075918	-0.052077
C75	C	1.173029	0.174082	0.197923
C76	C	1.423029	0.424082	0.447923
C77	C	0.640323	-0.369263	-0.342080
C78	C	0.890323	-0.119263	-0.092080
C79	C	1.140323	0.130737	0.157920
C80	C	1.390323	0.380737	0.407920
C81	C	0.574888	-0.369246	-0.342108
C82	C	0.824888	-0.119246	-0.092108
C83	C	1.074888	0.130754	0.157892
C84	C	1.324888	0.380754	0.407892
C85	C	0.542160	-0.325892	-0.302122
C86	C	0.792160	-0.075892	-0.052122
C87	C	1.042160	0.174108	0.197878
C88	C	1.292160	0.424108	0.447878
C89	C	0.574874	-0.282539	-0.262116
C90	C	0.824874	-0.032539	-0.012116
C91	C	1.074874	0.217461	0.237884
C92	C	1.324874	0.467461	0.487884
C93	C	0.640308	-0.282553	-0.262094
C94	C	0.890308	-0.032553	-0.012094
C95	C	1.140308	0.217447	0.237906
C96	C	1.390308	0.467447	0.487906
C97	C	0.438435	-0.320440	-0.245717
C98	C	0.688435	-0.070440	0.004283
C99	C	0.938435	0.179560	0.254283
C100	C	1.188435	0.429560	0.504283
C101	C	0.373002	-0.320431	-0.245738
C102	C	0.623002	-0.070431	0.004262
C103	C	0.873002	0.179569	0.254262
C104	C	1.123002	0.429569	0.504262
C105	C	0.340340	-0.325848	-0.302191
C106	C	0.590340	-0.075848	-0.052191
C107	C	0.840340	0.174152	0.197809
C108	C	1.090340	0.424152	0.447809
C109	C	0.373118	-0.331287	-0.358624
C110	C	0.623118	-0.081287	-0.108624
C111	C	0.873118	0.168713	0.141376
C112	C	1.123118	0.418713	0.391376
C113	C	0.438552	-0.331301	-0.358602
C114	C	0.688552	-0.081301	-0.108602
C115	C	0.938552	0.168699	0.141398
C116	C	1.188552	0.418699	0.391398
C117	C	0.471208	-0.325873	-0.302142
C118	C	0.721208	-0.075873	-0.052142
C119	C	0.971208	0.174127	0.197858
C120	C	1.221208	0.424127	0.447858
C121	C	0.236682	-0.369177	-0.342227
C122	C	0.486682	-0.119177	-0.092227
C123	C	0.736682	0.130823	0.157773
C124	C	0.986682	0.380823	0.407773
C125	C	0.171245	-0.369156	-0.342256
C126	C	0.421245	-0.119156	-0.092256
C127	C	0.671245	0.130844	0.157744
C128	C	0.921245	0.380844	0.407744
C129	C	0.171232	-0.282452	-0.262259
C130	C	0.421232	-0.032452	-0.012259
C131	C	0.671232	0.217548	0.237741
C132	C	0.921232	0.467548	0.487741
C133	C	0.236668	-0.282470	-0.262236
C134	C	0.486668	-0.032470	-0.012236
C135	C	0.736668	0.217530	0.237764
C136	C	0.986668	0.467530	0.487764
C137	C	0.269388	-0.325836	-0.302219
C138	C	0.519388	-0.075836	-0.052219
C139	C	0.769388	0.174164	0.197781
C140	C	1.019388	0.424164	0.447781
C141	C	0.905387	-0.501707	-0.302136
C142	C	1.155387	-0.251707	-0.052136
C143	C	1.405387	-0.001707	0.197864
C144	C	1.655387	0.248293	0.447864
C145	C	0.905414	-0.576939	-0.302144
C146	C	1.155414	-0.326939	-0.052144
C147	C	1.405414	-0.076939	0.197856
C148	C	1.655414	0.173061	0.447856
C149	C	0.945514	-0.612255	-0.262130
C150	C	1.195514	-0.362255	-0.012130
C151	C	1.445514	-0.112255	0.237870
C152	C	1.695514	0.137745	0.487870
C153	C	0.945540	-0.682944	-0.262144
C154	C	1.195540	-0.432944	-0.012144
C155	C	1.445540	-0.182944	0.237856
C156	C	1.695540	0.067056	0.487856
C157	C	0.905464	-0.718315	-0.302169
C158	C	1.155464	-0.468315	-0.052169
C159	C	1.405464	-0.218315	0.197831
C160	C	1.655464	0.031685	0.447831
C161	C	0.865362	-0.682993	-0.342187
C162	C	1.115362	-0.432993	-0.092187
C163	C	1.365362	-0.182993	0.157813
C164	C	1.615362	0.067007	0.407813
C165	C	0.865339	-0.612306	-0.342175
C166	C	1.115339	-0.362306	-0.092175
C167	C	1.365339	-0.112306	0.157825
C168	C	1.615339	0.137694	0.407825
C169	C	0.865455	-0.968067	-0.342233
C170	C	1.115455	-0.718067	-0.092233
C171	C	1.365455	-0.468067	0.157767
C172	C	1.615455	-0.218067	0.407767
C173	C	0.865480	-1.038759	-0.342240
C174	C	1.115480	-0.788759	-0.092240
C175	C	1.365480	-0.538759	0.157760
C176	C	1.615480	-0.288759	0.407760
C177	C	0.945656	-1.038704	-0.262202
C178	C	1.195656	-0.788704	-0.012202
C179	C	1.445656	-0.538704	0.237798
C180	C	1.695656	-0.288704	0.487798
C181	C	0.945633	-0.968017	-0.262191
C182	C	1.195633	-0.718017	-0.012191
C183	C	1.445633	-0.468017	0.237809
C184	C	1.695633	-0.218017	0.487809
C185	C	0.905534	-0.932702	-0.302210
C186	C	1.155534	-0.682702	-0.052210
C187	C	1.405534	-0.432702	0.197790
C188	C	1.655534	-0.182702	0.447790
C189	C	0.905507	-0.856053	-0.302196
C190	C	1.155507	-0.606053	-0.052196
C191	C	1.405507	-0.356053	0.197804
C192	C	1.655507	-0.106053	0.447804
C193	C	0.905488	-0.794962	-0.302181
C194	C	1.155488	-0.544962	-0.052181
C195	C	1.405488	-0.294962	0.197819
C196	C	1.655488	-0.044962	0.447819
C197	C	1.068881	-0.325816	-0.302239
C198	C	1.318881	-0.075816	-0.052239
C199	C	1.568881	0.174184	0.197761
C200	C	1.818881	0.424184	0.447761
C201	C	1.138522	-0.325800	-0.302271
C202	C	1.388522	-0.075800	-0.052271
C203	C	1.638522	0.174200	0.197729
C204	C	1.888522	0.424200	0.447729
C205	C	0.905510	-0.325837	-0.465589
C206	C	1.155510	-0.075837	-0.215589
C207	C	1.405510	0.174163	0.034411
C208	C	1.655510	0.424163	0.284411
C209	C	0.905532	-0.325831	-0.535231
C210	C	1.155532	-0.075831	-0.285231
C211	C	1.405532	0.174169	-0.035231
C212	C	1.655532	0.424169	0.214769
C213	C	0.905545	-0.149308	-0.302210
C214	C	1.155545	0.100692	-0.052210
C215	C	1.405545	0.350692	0.197790
C216	C	1.655545	0.600692	0.447790
C217	C	0.905583	-0.074076	-0.302229
C218	C	1.155583	0.175924	-0.052229
C219	C	1.405583	0.425924	0.197771
C220	C	1.655583	0.675924	0.447771
C221	C	0.945625	-0.282530	-0.567974
C222	C	1.195625	-0.032530	-0.317974
C223	C	1.445625	0.217470	-0.067974
C224	C	1.695625	0.467470	0.182026
C225	C	0.945624	-0.282501	-0.633409
C226	C	1.195624	-0.032501	-0.383409
C227	C	1.445624	0.217499	-0.133409
C228	C	1.695624	0.467499	0.116591
C229	C	0.905537	-0.325785	-0.666099
C230	C	1.155537	-0.075785	-0.416099
C231	C	1.405537	0.174215	-0.166099
C232	C	1.655537	0.424215	0.083901
C233	C	0.865436	-0.369089	-0.633348
C234	C	1.115436	-0.119089	-0.383348
C235	C	1.365436	0.130911	-0.133348
C236	C	1.615436	0.380911	0.116652
C237	C	0.865433	-0.369112	-0.567914
C238	C	1.115433	-0.119112	-0.317914
C239	C	1.365433	0.130888	-0.067914
C240	C	1.615433	0.380888	0.182086
C241	C	0.900565	-0.386731	-0.769762
C242	C	1.150565	-0.136731	-0.519762
C243	C	1.400565	0.113269	-0.269762
C244	C	1.650565	0.363269	-0.019762
C245	C	0.900572	-0.386709	-0.835195
C246	C	1.150572	-0.136709	-0.585195
C247	C	1.400572	0.113291	-0.335195
C248	C	1.650572	0.363291	-0.085195
C249	C	0.905540	-0.325714	-0.867920
C250	C	1.155540	-0.075714	-0.617920
C251	C	1.405540	0.174286	-0.367920
C252	C	1.655540	0.424286	-0.117920
C253	C	0.910516	-0.264738	-0.835204
C254	C	1.160516	-0.014738	-0.585204
C255	C	1.410516	0.235262	-0.335204
C256	C	1.660516	0.485262	-0.085204
C257	C	0.910513	-0.264762	-0.769770
C258	C	1.160513	-0.014762	-0.519770
C259	C	1.410513	0.235238	-0.269770
C260	C	1.660513	0.485238	-0.019770
C261	C	0.905534	-0.325765	-0.737051
C262	C	1.155534	-0.075765	-0.487051
C263	C	1.405534	0.174235	-0.237051
C264	C	1.655534	0.424235	0.012949
C265	C	0.945635	-0.282378	-0.971615
C266	C	1.195635	-0.032378	-0.721615
C267	C	1.445635	0.217622	-0.471615
C268	C	1.695635	0.467622	-0.221615
C269	C	0.945630	-0.282347	-1.037052
C270	C	1.195630	-0.032347	-0.787052
C271	C	1.445630	0.217653	-0.537052
C272	C	1.695630	0.467653	-0.287052
C273	C	0.865444	-0.368941	-1.036990
C274	C	1.115444	-0.118941	-0.786990
C275	C	1.365444	0.131059	-0.536990
C276	C	1.615444	0.381059	-0.286990
C277	C	0.865446	-0.368966	-0.971555
C278	C	1.115446	-0.118966	-0.721555
C279	C	1.365446	0.131034	-0.471555
C280	C	1.615446	0.381034	-0.221555
C281	C	0.905545	-0.325685	-0.938871
C282	C	1.155545	-0.075685	-0.688871
C283	C	1.405545	0.174315	-0.438871
C284	C	1.655545	0.424315	-0.188871
C285	C	0.905442	-0.325816	-0.139378
C286	C	1.155442	-0.075816	0.110622
C287	C	1.405442	0.174184	0.360622
C288	C	1.655442	0.424184	0.610622
C289	C	0.905541	-0.325631	-0.069738
C290	C	1.155541	-0.075631	0.180262
C291	C	1.405541	0.174369	0.430262
C292	C	1.655541	0.424369	0.680262
H293	H	0.666960	-0.404574	-0.374638
H294	H	0.916960	-0.154574	-0.124638
H295	H	1.166960	0.095426	0.125362
H296	H	1.416960	0.345426	0.375362
F297	F	0.988287	-0.930377	-0.219590
F298	F	1.238287	-0.680377	0.030410
F299	F	1.488287	-0.430377	0.280410
F300	F	1.738287	-0.180377	0.530410
H301	H	0.832845	-1.067556	-0.374837
H302	H	1.082845	-0.817556	-0.124837
H303	H	1.332845	-0.567556	0.125163
H304	H	1.582845	-0.317556	0.375163
H305	H	0.144586	-0.247150	-0.229705
H306	H	0.394586	0.002850	0.020295
H307	H	0.644586	0.252850	0.270295
H308	H	0.894586	0.502850	0.520295
H309	H	0.914563	-0.215070	-0.861848
H310	H	1.164563	0.034930	-0.611848
H311	H	1.414563	0.284930	-0.361848
H312	H	1.664563	0.534930	-0.111848
H313	H	0.978308	-1.067466	-0.229618
H314	H	1.228308	-0.817466	0.020382
H315	H	1.478308	-0.567466	0.270382
H316	H	1.728308	-0.317466	0.520382
F317	F	0.822770	-0.415153	-0.668140
F318	F	1.072770	-0.165153	-0.418140
F319	F	1.322770	0.084847	-0.168140
F320	F	1.572770	0.334847	0.081860
H321	H	0.263297	-0.247178	-0.229658
H322	H	0.513297	0.002822	0.020342
H323	H	0.763297	0.252822	0.270342
H324	H	1.013297	0.502822	0.520342
F325	F	0.540073	-0.415381	-0.384686
F326	F	0.790073	-0.165381	-0.134686
F327	F	1.040073	0.084619	0.115314
F328	F	1.290073	0.334619	0.365314
H329	H	0.978193	-0.711695	-0.229561
H330	H	1.228193	-0.461695	0.020439
H331	H	1.478193	-0.211695	0.270439
H332	H	1.728193	0.038305	0.520439
F333	F	0.473435	-0.337086	-0.418661
F334	F	0.723435	-0.087086	-0.168661
F335	F	0.973435	0.162914	0.081339
F336	F	1.223435	0.412914	0.331339
F337	F	0.822778	-0.930490	-0.384825
F338	F	1.072778	-0.680490	-0.134825
F339	F	1.322778	-0.430490	0.115175
F340	F	1.572778	-0.180490	0.365175
F341	F	0.822713	-0.720639	-0.384788
F342	F	1.072713	-0.470639	-0.134788
F343	F	1.322713	-0.220639	0.115212
F344	F	1.572713	0.029361	0.365212
H345	H	0.978146	-0.583461	-0.229535
H346	H	1.228146	-0.333461	0.020465
H347	H	1.478146	-0.083461	0.270465
H348	H	1.728146	0.166539	0.520465
H349	H	0.832687	-0.583552	-0.374759
H350	H	1.082687	-0.333552	-0.124759
H351	H	1.332687	-0.083552	0.125241
H352	H	1.582687	0.166448	0.375241
H353	H	0.978276	-0.247287	-0.541367
H354	H	1.228276	0.002713	-0.291367
H355	H	1.478276	0.252713	-0.041367
H356	H	1.728276	0.502713	0.208633
H357	H	0.346526	-0.335697	-0.404594
H358	H	0.596526	-0.085697	-0.154594
H359	H	0.846526	0.164303	0.095406
H360	H	1.096526	0.414303	0.345406
F361	F	0.895290	-0.451657	-0.734939
F362	F	1.145290	-0.201657	-0.484939
F363	F	1.395290	0.048343	-0.234939
F364	F	1.645290	0.298343	0.015061
F365	F	0.675116	-0.236417	-0.219516
F366	F	0.925116	0.013583	0.030484
F367	F	1.175116	0.263583	0.280484
F368	F	1.425116	0.513583	0.530484
H369	H	0.978271	-0.247237	-0.660074
H370	H	1.228271	0.002763	-0.410074
H371	H	1.478271	0.252763	-0.160074
H372	H	1.728271	0.502763	0.089926
F373	F	0.338123	-0.314643	-0.185677
F374	F	0.588123	-0.064643	0.064323
F375	F	0.838123	0.185357	0.314323
F376	F	1.088123	0.435357	0.564323
H377	H	0.978282	-0.247132	-0.945003
H378	H	1.228282	0.002868	-0.695003
H379	H	1.478282	0.252868	-0.445003
H380	H	1.728282	0.502868	-0.195003
F381	F	0.988312	-0.236266	-1.071899
F382	F	1.238312	0.013734	-0.821899
F383	F	1.488312	0.263734	-0.571899
F384	F	1.738312	0.513734	-0.321899
H385	H	0.914562	-0.215113	-0.743136
H386	H	1.164562	0.034887	-0.493136
H387	H	1.414562	0.284887	-0.243136
H388	H	1.664562	0.534887	0.006864
H389	H	0.832798	-0.404177	-1.063606
H390	H	1.082798	-0.154177	-0.813606
H391	H	1.332798	0.095823	-0.563606
H392	H	1.582798	0.345823	-0.313606
H393	H	0.832802	-0.404230	-0.944895
H394	H	1.082802	-0.154230	-0.694895
H395	H	1.332802	0.095770	-0.444895
H396	H	1.582802	0.345770	-0.194895
H397	H	0.896524	-0.436359	-0.861827
H398	H	1.146524	-0.186359	-0.611827
H399	H	1.396524	0.063641	-0.361827
H400	H	1.646524	0.313641	-0.111827
H401	H	0.263324	-0.404485	-0.374787
H402	H	0.513324	-0.154485	-0.124787
H403	H	0.763324	0.095515	0.125213
H404	H	1.013324	0.345515	0.375213
F405	F	0.136438	-0.415288	-0.384838
F406	F	0.386438	-0.165288	-0.134838
F407	F	0.636438	0.084712	0.115162
F408	F	0.886438	0.334712	0.365162
H409	H	0.465024	-0.316026	-0.199743
H410	H	0.715024	-0.066026	0.050257
H411	H	0.965024	0.183974	0.300257
H412	H	1.215024	0.433974	0.550257
F413	F	0.540042	-0.236397	-0.219563
F414	F	0.790042	0.013603	0.030437
F415	F	1.040042	0.263603	0.280437
F416	F	1.290042	0.513603	0.530437
F417	F	0.822758	-0.415201	-0.533066
F418	F	1.072758	-0.165201	-0.283066
F419	F	1.322758	0.084799	-0.033066
F420	F	1.572758	0.334799	0.216934
