data_functionalizedCrystal
_audit_creation_method	'MofGen! by Chris Wilmer'
_symmetry_space_group_name_H-M	'P1'
_symmetry_Int_Tables_number	1
_symmetry_cell_setting	triclinic
loop_
_symmetry_equiv_pos_as_xyz
  x,y,z
_cell_length_a	25.639243
_cell_length_b	25.639240
_cell_length_c	12.759401
_cell_angle_alpha	89.981216
_cell_angle_beta	89.992023
_cell_angle_gamma	90.046633
loop_
_atom_site_label
_atom_site_type_symbol
_atom_site_fract_x
_atom_site_fract_y
_atom_site_fract_z
Zn1	Zn	-0.799164	0.208191	0.594083
Zn2	Zn	-0.799092	0.295606	0.418378
Zn3	Zn	-0.711753	0.208190	0.418405
Zn4	Zn	-0.711678	0.295602	0.594001
O5	O	-0.755422	0.251897	0.506217
O6	O	-0.872320	0.219789	0.570798
O7	O	-0.787508	0.284011	0.271360
O8	O	-0.723410	0.135025	0.441754
O9	O	-0.872267	0.284012	0.441708
O10	O	-0.787631	0.135026	0.570824
O11	O	-0.723340	0.219788	0.271380
O12	O	-0.638578	0.219784	0.441675
O13	O	-0.723282	0.284005	0.741033
O14	O	-0.638523	0.284004	0.570685
O15	O	-0.787558	0.219785	0.741093
O16	O	-0.787435	0.368771	0.441629
O17	O	-0.723212	0.368767	0.570659
C18	C	-0.619579	0.251894	0.506175
C19	C	-0.561465	0.251905	0.506182
C20	C	-0.755321	0.387740	0.506155
C21	C	-0.755326	0.445854	0.506164
C22	C	-0.755420	0.251895	0.780250
C23	C	-0.755419	0.251894	0.897026
C24	C	-0.201124	0.218508	0.573545
C25	C	-0.146520	0.218508	0.573551
O26	O	-0.118302	0.190104	0.630774
N27	N	-0.119183	0.251895	0.506244
C28	C	-0.146453	0.285282	0.438919
O29	O	-0.118186	0.313680	0.381669
C30	C	-0.201056	0.285279	0.438908
C31	C	-0.228390	0.251893	0.506227
C32	C	-0.228459	0.185125	0.640857
C33	C	-0.283059	0.185126	0.640852
C34	C	-0.310325	0.218511	0.573534
C35	C	-0.282991	0.251895	0.506222
C36	C	-0.228325	0.318662	0.371579
C37	C	-0.282932	0.318656	0.371573
C38	C	-0.310266	0.285271	0.438892
C39	C	-0.364858	0.285281	0.438899
N40	N	-0.392195	0.251893	0.506205
C41	C	-0.364929	0.218509	0.573523
C42	C	-0.031782	0.285284	0.438946
C43	C	0.022820	0.285289	0.438961
C44	C	0.022749	0.218515	0.573592
C45	C	-0.031854	0.218512	0.573581
C46	C	-0.059119	0.251896	0.506253
C47	C	-0.479594	0.218514	0.573508
C48	C	-0.534199	0.218520	0.573499
C49	C	-0.534123	0.285292	0.438865
C50	C	-0.479523	0.285289	0.438877
C51	C	-0.452259	0.251895	0.506202
O52	O	-0.393110	0.313669	0.381702
O53	O	-0.393202	0.190110	0.630754
C54	C	0.108205	0.251901	0.506259
C55	C	0.050091	0.251902	0.506276
C56	C	-0.721938	0.697058	0.573346
C57	C	-0.721923	0.642454	0.573338
O58	O	-0.693470	0.614226	0.630443
N59	N	-0.755378	0.615128	0.506205
C60	C	-0.788854	0.642409	0.439084
O61	O	-0.817309	0.614152	0.381983
C62	C	-0.788871	0.697012	0.439098
C63	C	-0.755410	0.724335	0.506227
C64	C	-0.688481	0.724382	0.640471
C65	C	-0.688495	0.778982	0.640477
C66	C	-0.721967	0.806259	0.573358
C67	C	-0.755425	0.778936	0.506234
C68	C	-0.822349	0.724292	0.371983
C69	C	-0.822364	0.778899	0.372003
C70	C	-0.788903	0.806223	0.439132
C71	C	-0.788911	0.860814	0.439121
N72	N	-0.755456	0.888140	0.506254
C73	C	-0.721984	0.860863	0.573372
C74	C	-0.788816	0.527738	0.439061
C75	C	-0.788797	0.473136	0.439041
C76	C	-0.721867	0.473185	0.573297
C77	C	-0.721884	0.527788	0.573311
C78	C	-0.755361	0.555064	0.506194
C79	C	-0.722017	0.975528	0.573380
C80	C	-0.722032	1.030133	0.573377
C81	C	-0.788964	1.030079	0.439126
C82	C	-0.788947	0.975479	0.439124
C83	C	-0.755471	0.948204	0.506260
O84	O	-0.817352	0.889076	0.382049
O85	O	-0.693539	0.889126	0.630474
C86	C	-0.755516	1.115524	0.506281
C87	C	-0.755504	1.057410	0.506258
C88	C	-0.788884	0.218461	0.951921
C89	C	-0.788881	0.218462	1.061645
C90	C	-0.721946	0.285333	1.061570
C91	C	-0.721947	0.285329	0.951848
C92	C	-0.827530	0.179855	0.951966
C93	C	-0.827527	0.179857	1.061690
C94	C	-0.755419	0.251908	1.233249
C95	C	-0.755415	0.251899	1.116473
H96	H	-0.556452	0.191333	0.628322
H97	H	-0.865982	0.194363	0.917933
Cl98	Cl	-0.445328	0.176534	0.658147
H99	H	-0.816038	0.450893	0.384367
Cl100	Cl	-0.679869	0.327364	1.130496
Cl101	Cl	-0.805106	0.120499	1.114279
Cl102	Cl	-0.890031	0.196599	1.107681
H103	H	-0.305310	0.157939	0.695668
H104	H	-0.816076	0.549943	0.384398
Cl105	Cl	-0.864423	0.689956	0.287598
H106	H	-0.694613	0.450966	0.627950
H107	H	-0.206264	0.157936	0.695676
H108	H	-0.816188	0.953232	0.384451
H109	H	-0.816214	1.052298	0.384476
H110	H	-0.694694	0.312551	0.907157
H111	H	-0.457266	0.312480	0.384073
Cl112	Cl	-0.193975	0.360625	0.286922
Cl113	Cl	-0.066212	0.176539	0.658211
H114	H	0.044959	0.191330	0.628404
Cl115	Cl	-0.646396	0.690100	0.724860
H116	H	-0.849627	0.801105	0.317350
Cl117	Cl	0.057177	0.327267	0.354339
Cl118	Cl	-0.317205	0.360629	0.286928
Cl119	Cl	-0.066053	0.327260	0.354302
H120	H	-0.694759	0.953327	0.628049
Cl121	Cl	-0.568411	0.327259	0.354242
Cl122	Cl	-0.679965	1.064479	0.657775
Cl123	Cl	-0.646436	0.813323	0.724889
Cl124	Cl	-0.810843	0.117335	0.906031
H125	H	-0.694640	0.550031	0.627979
