data_functionalizedCrystal
_audit_creation_method	'MofGen! by Chris Wilmer'
_symmetry_space_group_name_H-M	'P1'
_symmetry_Int_Tables_number	1
_symmetry_cell_setting	triclinic
loop_
_symmetry_equiv_pos_as_xyz
  x,y,z
_cell_length_a	11.792241
_cell_length_b	16.992701
_cell_length_c	10.868271
_cell_angle_alpha	89.995658
_cell_angle_beta	90.000150
_cell_angle_gamma	92.569707
loop_
_atom_site_label
_atom_site_type_symbol
_atom_site_fract_x
_atom_site_fract_y
_atom_site_fract_z
O1	O	-0.240740	1.041415	-0.102309
O2	O	-0.238102	0.813118	-0.102309
O3	O	-0.074704	0.932806	-0.102316
O4	O	-0.404139	0.921726	-0.102302
O5	O	-0.074696	0.932797	0.102328
O6	O	-0.238094	0.813108	0.102335
O7	O	-0.240733	1.041405	0.102336
Zn8	Zn	-0.239412	0.927255	0.134827
Zn9	Zn	-0.239422	0.927268	-0.134801
O10	O	-0.404131	0.921716	0.102343
C11	C	-0.234701	0.783886	0.000013
C12	C	-0.224564	0.696799	0.000012
C13	C	-0.156454	0.207550	0.000004
C14	C	-0.165987	0.289377	0.000012
C15	C	-0.273339	0.321376	0.000011
C16	C	-0.371163	0.271544	0.000015
C17	C	-0.361629	0.189719	0.000016
C18	C	-0.312854	0.565141	0.000016
C19	C	-0.322381	0.646973	0.000012
C20	C	-0.117204	0.664800	0.000011
C21	C	-0.107679	0.582972	0.000004
C22	C	-0.205504	0.533147	0.000015
N23	N	-0.283086	0.405016	0.000015
N24	N	-0.195755	0.449509	0.000019
C25	C	-0.446483	0.922417	0.000022
C26	C	-0.572667	0.924500	0.000028
C27	C	-0.803692	0.928331	-0.000003
C28	C	-0.675133	0.926203	0.000014
C29	C	-0.032352	0.932105	0.000001
C30	C	0.093832	0.930022	-0.000012
C31	C	-0.244134	1.070637	0.000011
C32	C	-0.254271	1.157724	0.000004
N33	N	-0.239405	0.927252	0.318841
N34	N	-0.239421	0.927277	-0.318815
C35	C	-0.239420	0.927264	0.569847
C36	C	-0.239415	0.927255	0.430170
H37	H	-0.392511	0.524583	0.000019
C38	C	-0.009604	0.719605	0.000004
H39	H	0.055695	0.688827	-0.000005
H40	H	-0.009054	0.751895	0.071365
H41	H	-0.009059	0.751895	-0.071372
H42	H	-0.086333	0.329942	0.000017
H43	H	-0.409804	0.673023	0.000029
H44	H	-0.020262	0.556925	0.000005
C45	C	-0.489248	0.306742	0.000012
H46	H	-0.480918	0.362610	-0.000002
H47	H	-0.529841	0.289667	0.071374
H48	H	-0.529830	0.289669	-0.071363
C49	C	-0.469228	0.134910	0.000005
H50	H	-0.534529	0.165686	-0.000008
H51	H	-0.469778	0.102615	0.071368
H52	H	-0.469768	0.102625	-0.071369
C53	C	-0.038366	0.172357	0.000005
H54	H	0.018524	0.213754	0.000018
H55	H	-0.030376	0.140811	-0.071357
H56	H	-0.030385	0.140806	0.071380
