data_functionalizedCrystal
_audit_creation_method	'MofGen! by Chris Wilmer'
_symmetry_space_group_name_H-M	'P1'
_symmetry_Int_Tables_number	1
_symmetry_cell_setting	triclinic
loop_
_symmetry_equiv_pos_as_xyz
  x,y,z
_cell_length_a	10.540510
_cell_length_b	10.489716
_cell_length_c	9.616153
_cell_angle_alpha	90.001809
_cell_angle_beta	89.992871
_cell_angle_gamma	84.521223
loop_
_atom_site_label
_atom_site_type_symbol
_atom_site_fract_x
_atom_site_fract_y
_atom_site_fract_z
O1	O	1.685920	0.179581	-0.115641
O2	O	1.316503	0.196558	-0.115640
O3	O	1.509633	0.002467	-0.115645
O4	O	1.492789	0.373671	-0.115636
O5	O	1.509607	0.002472	0.115646
O6	O	1.316476	0.196562	0.115651
O7	O	1.685893	0.179585	0.115651
Zn8	Zn	1.501180	0.188074	0.152373
Zn9	Zn	1.501215	0.188069	-0.152363
O10	O	1.492762	0.373675	0.115656
C11	C	1.269186	0.195295	0.000005
C12	C	1.128236	0.191510	0.000005
C13	C	0.910784	0.326343	-0.000523
C14	C	1.057380	0.330381	0.000007
C15	C	1.083458	0.120423	0.132078
C16	C	0.936697	0.117369	0.132181
C17	C	0.936921	0.114473	-0.130841
C18	C	1.083263	0.121060	-0.132578
C19	C	1.508354	-0.045062	-0.000004
C20	C	1.504568	-0.186693	-0.000017
C21	C	1.623002	-0.284393	-0.000004
C22	C	1.560432	-0.361742	-0.114039
C23	C	1.560378	-0.361702	0.113996
C24	C	1.442047	-0.262175	-0.114146
C25	C	1.442011	-0.262130	0.113992
C26	C	1.379354	-0.339429	-0.000071
C27	C	1.733210	0.180848	0.000002
C28	C	1.874160	0.184633	-0.000007
C29	C	1.494041	0.421205	0.000011
C30	C	1.497828	0.562835	0.000015
N31	N	1.501166	0.188077	0.360348
N32	N	1.501240	0.188056	-0.360338
C33	C	1.397538	0.291554	0.580721
C34	C	1.397766	0.291942	0.419553
C35	C	1.633892	0.218342	0.418798
C36	C	1.633327	0.219075	0.580016
C37	C	1.473389	0.053995	0.580256
C38	C	1.470342	0.054864	0.419029
H39	H	0.894386	0.158265	-0.230947
H40	H	1.610388	-0.405184	0.210401
C41	C	1.666209	0.351215	0.630803
N42	N	1.690966	0.450750	0.669048
H43	H	0.913698	0.013503	0.138177
C44	C	1.264530	0.267366	0.366166
N45	N	1.164168	0.248863	0.325962
C46	C	1.421959	0.426309	0.367431
N47	N	1.440189	0.527518	0.328174
C48	C	1.147517	-0.017674	0.138749
N49	N	1.195783	-0.121682	0.143781
H50	H	1.111894	0.172781	-0.230285
H51	H	1.712968	0.146728	0.619003
C52	C	1.345372	0.015103	0.635237
N53	N	1.248943	-0.014175	0.676649
H54	H	0.896471	0.165953	0.230910
H55	H	1.392048	-0.218599	0.210406
H56	H	1.114303	0.169795	0.230371
C57	C	1.263892	0.267358	0.633184
N58	N	1.163228	0.249138	0.672717
H59	H	1.276259	-0.363836	-0.000133
H60	H	0.867268	0.380136	0.093661
H61	H	1.726019	-0.259740	-0.000120
H62	H	1.086739	0.385993	-0.094672
H63	H	1.415208	0.390452	0.621222
H64	H	0.868844	0.380444	-0.095241
H65	H	1.712945	0.145017	0.380444
H66	H	1.372702	0.031924	0.380828
C67	C	1.667526	0.348990	0.364256
N68	N	1.692849	0.447401	0.323182
C69	C	1.095748	0.405952	0.128143
N70	N	1.124645	0.462871	0.224665
H71	H	1.548999	-0.023039	0.618370
C72	C	1.565639	-0.054181	0.364620
N73	N	1.637434	-0.136310	0.323650
C74	C	0.906984	-0.026382	-0.132055
N75	N	0.884427	-0.132469	-0.132960
C76	C	1.149534	-0.015918	-0.143350
N77	N	1.199446	-0.119097	-0.151450
H78	H	1.610438	-0.405250	-0.210450
C79	C	1.374572	-0.203667	-0.244545
N80	N	1.323757	-0.159596	-0.342762
