data_functionalizedCrystal
_audit_creation_method	'MofGen! by Chris Wilmer'
_symmetry_space_group_name_H-M	'P1'
_symmetry_Int_Tables_number	1
_symmetry_cell_setting	triclinic
loop_
_symmetry_equiv_pos_as_xyz
  x,y,z
_cell_length_a	15.995350
_cell_length_b	10.654550
_cell_length_c	9.130313
_cell_angle_alpha	89.999512
_cell_angle_beta	90.000768
_cell_angle_gamma	96.011347
loop_
_atom_site_label
_atom_site_type_symbol
_atom_site_fract_x
_atom_site_fract_y
_atom_site_fract_z
O1	O	0.117601	-1.666304	0.121682
O2	O	0.128805	-1.300679	0.121708
O3	O	0.001373	-1.493486	0.121693
O4	O	0.245032	-1.473497	0.121697
O5	O	0.001373	-1.493471	-0.121906
O6	O	0.128805	-1.300664	-0.121891
O7	O	0.117601	-1.666289	-0.121917
Cu8	Cu	0.123203	-1.483476	-0.144146
Cu9	Cu	0.123203	-1.483493	0.143938
O10	O	0.245032	-1.473482	-0.121902
C11	C	0.127982	-1.253884	-0.000088
C12	C	0.125521	-1.114473	-0.000078
C13	C	-0.029826	-1.492652	-0.000103
C14	C	-0.122791	-1.490175	-0.000095
N15	N	0.123202	-1.483473	-0.346769
C16	C	-0.460590	-1.481277	-0.000099
C17	C	-0.413954	-1.343964	0.000457
C18	C	-0.317249	-1.346442	-0.000092
C19	C	-0.293004	-1.485691	-0.000096
C20	C	-0.333688	-1.553410	-0.139205
C21	C	-0.430344	-1.549961	-0.139322
C22	C	-0.430686	-1.552814	0.137696
C23	C	-0.333741	-1.552782	0.139534
C24	C	-0.198292	-1.488192	-0.000100
C25	C	-0.555303	-1.478780	-0.000106
C26	C	0.276232	-1.474316	-0.000102
C27	C	0.369197	-1.476793	-0.000101
C28	C	0.118423	-1.713084	-0.000118
C29	C	0.120885	-1.852495	-0.000118
C30	C	0.200551	-1.034008	-0.000080
C31	C	0.198233	-0.903017	-0.000106
C32	C	0.045849	-0.932971	-0.000120
C33	C	0.048168	-1.063959	-0.000105
C34	C	0.174459	-1.559634	-0.423420
C35	C	0.174454	-1.559654	-0.576757
C36	C	0.071935	-1.407341	-0.576778
C37	C	0.071936	-1.407328	-0.423444
N38	N	0.123197	-1.483506	0.346560
H39	H	-0.289136	-1.293209	0.099627
H40	H	0.259330	-0.837506	-0.000111
H41	H	-0.448932	-1.500567	-0.243305
H42	H	0.216203	-1.621636	-0.360996
C43	C	0.285641	-1.089568	-0.000069
N44	N	0.349734	-1.131413	-0.000068
H45	H	-0.017129	-0.891826	-0.000150
H46	H	-0.451486	-1.507926	0.243132
C47	C	-0.034375	-1.152478	-0.000102
N48	N	-0.096544	-1.219149	-0.000103
H49	H	-0.305580	-1.506364	-0.242723
H50	H	0.216191	-1.621674	-0.639160
C51	C	0.015553	-1.323573	-0.661134
N52	N	-0.026911	-1.260473	-0.724670
C53	C	0.015548	-1.323539	-0.339122
N54	N	-0.026923	-1.260433	-0.275611
C55	C	-0.473121	-1.686152	-0.147875
N56	N	-0.505337	-1.788729	-0.154327
C57	C	-0.439428	-1.269816	0.135215
N58	N	-0.458624	-1.213966	0.236717
H59	H	-0.318968	-1.655713	-0.144382
C60	C	-0.280022	-1.274032	-0.135033
N61	N	-0.251984	-1.219491	-0.236677
C62	C	-0.297269	-1.485957	0.278566
N63	N	-0.269801	-1.435612	0.383282
C64	C	-0.312198	-1.689973	0.150873
N65	N	-0.295975	-1.793312	0.159399
C66	C	-0.440826	-1.270153	-0.133581
N67	N	-0.461060	-1.214567	-0.234552
H68	H	-0.461859	-1.654055	0.138627
