data_functionalizedCrystal
_audit_creation_method	'MofGen! by Chris Wilmer'
_symmetry_space_group_name_H-M	'P1'
_symmetry_Int_Tables_number	1
_symmetry_cell_setting	triclinic
loop_
_symmetry_equiv_pos_as_xyz
  x,y,z
_cell_length_a	18.215407
_cell_length_b	18.215405
_cell_length_c	18.215399
_cell_angle_alpha	90.032960
_cell_angle_beta	90.017587
_cell_angle_gamma	90.024806
loop_
_atom_site_label
_atom_site_type_symbol
_atom_site_fract_x
_atom_site_fract_y
_atom_site_fract_z
Zn1	Zn	-1.125050	0.292976	-0.416118
Zn2	Zn	-1.124965	0.416052	-0.293046
Zn3	Zn	-1.001989	0.293004	-0.293063
Zn4	Zn	-1.001949	0.416005	-0.416069
O5	O	-1.063488	0.354509	-0.354574
O6	O	-1.228023	0.309310	-0.399805
O7	O	-1.108633	0.399761	-0.190064
O8	O	-1.018366	0.190016	-0.309414
O9	O	-1.227961	0.399734	-0.309384
O10	O	-1.108778	0.189995	-0.399822
O11	O	-1.018283	0.309358	-0.190077
O12	O	-0.898999	0.309312	-0.309367
O13	O	-1.018297	0.399653	-0.519060
O14	O	-0.898970	0.399681	-0.399739
O15	O	-1.108739	0.309264	-0.519095
O16	O	-1.108594	0.519030	-0.309337
O17	O	-1.018214	0.518996	-0.399722
C18	C	-0.872282	0.354495	-0.354550
C19	C	-0.790483	0.354507	-0.354558
C20	C	-1.063410	0.545716	-0.354538
C21	C	-1.063445	0.627515	-0.354548
C22	C	-0.602293	0.401634	-0.401553
C23	C	-0.525434	0.401635	-0.401561
C24	C	-0.525436	0.307389	-0.307598
C25	C	-0.602293	0.307384	-0.307594
C26	C	-0.640720	0.354511	-0.354570
C27	C	-0.487003	0.354517	-0.354582
C28	C	-0.403670	0.354519	-0.354591
C29	C	-0.724059	0.354509	-0.354563
C30	C	-1.063523	0.354451	-0.546527
C31	C	-1.063538	0.354425	-0.628326
C32	C	-0.255441	0.354522	-0.354595
C33	C	-0.337240	0.354521	-0.354595
C34	C	-1.063586	0.162556	-0.354625
C35	C	-1.063628	0.080757	-0.354648
C36	C	-1.110616	0.815702	-0.307571
C37	C	-1.110649	0.892561	-0.307589
C38	C	-1.016455	0.892565	-0.401629
C39	C	-1.016426	0.815707	-0.401615
C40	C	-1.063506	0.777278	-0.354581
C41	C	-1.063567	0.930994	-0.354614
C42	C	-1.063602	1.014328	-0.354634
C43	C	-1.063471	0.693939	-0.354563
C44	C	-1.016532	0.307321	-0.816527
C45	C	-1.016545	0.307306	-0.893386
C46	C	-1.110631	0.401442	-0.893362
C47	C	-1.110614	0.401460	-0.816505
C48	C	-1.063566	0.354395	-0.778089
C49	C	-1.063596	0.354363	-0.931806
C50	C	-1.063610	0.354347	-1.015139
C51	C	-1.063550	0.354412	-0.694750
C52	C	-1.063496	0.354515	-0.163368
C53	C	-1.063624	0.354333	-0.081569
H54	H	-0.633578	0.440005	-0.439805
C55	C	-0.917530	0.297116	-0.730086
C56	C	-0.964813	0.255596	-0.774298
H57	H	-0.885602	0.265182	-0.704014
H58	H	-0.889374	0.329166	-0.760056
H59	H	-0.945549	0.325150	-0.696196
H60	H	-0.936794	0.227565	-0.808192
H61	H	-0.992971	0.223533	-0.744325
C62	C	-0.923553	0.214252	-0.885685
C63	C	-0.964848	0.255556	-0.935637
H64	H	-0.891639	0.182300	-0.911770
H65	H	-0.895381	0.246320	-0.855695
H66	H	-0.955635	0.186113	-0.855720
H67	H	-0.932766	0.283699	-0.965599
H68	H	-0.993022	0.223484	-0.965640
H69	H	-1.149012	0.923842	-0.269310
H70	H	-1.148937	0.439760	-0.924649
H71	H	-0.978063	0.784420	-0.439900
C72	C	-1.146404	0.526085	-0.792802
C73	C	-1.162319	0.453209	-0.774249
H74	H	-1.178325	0.558031	-0.766717
H75	H	-1.096955	0.536850	-0.780196
H76	H	-1.153152	0.532800	-0.844074
H77	H	-1.155565	0.446493	-0.722977
H78	H	-1.211779	0.442440	-0.786850
C79	C	-0.533158	0.494799	-0.494429
C80	C	-0.483196	0.453438	-0.453202
H81	H	-0.507080	0.526783	-0.526309
H82	H	-0.563156	0.462769	-0.522634
H83	H	-0.563113	0.522905	-0.462303
H84	H	-0.453244	0.425327	-0.485329
H85	H	-0.453184	0.485472	-0.424995
H86	H	-0.494139	0.269022	-0.269351
H87	H	-0.633581	0.269007	-0.269335
H88	H	-1.148952	0.784415	-0.269275
H89	H	-0.978123	0.923863	-0.439921
