data_functionalizedCrystal
_audit_creation_method	'MofGen! by Chris Wilmer'
_symmetry_space_group_name_H-M	'P1'
_symmetry_Int_Tables_number	1
_symmetry_cell_setting	triclinic
loop_
_symmetry_equiv_pos_as_xyz
  x,y,z
_cell_length_a	23.532407
_cell_length_b	22.610064
_cell_length_c	23.532407
_cell_angle_alpha	89.999397
_cell_angle_beta	97.151322
_cell_angle_gamma	90.002839
loop_
_atom_site_label
_atom_site_type_symbol
_atom_site_fract_x
_atom_site_fract_y
_atom_site_fract_z
O1	O	0.755263	0.049117	-0.069127
O2	O	0.589400	0.049135	-0.079130
O3	O	0.677333	0.049114	0.008803
O4	O	0.667330	0.049137	-0.157060
O5	O	0.677318	-0.049255	0.008790
O6	O	0.589385	-0.049234	-0.079143
O7	O	0.755248	-0.049252	-0.069140
Zn8	Zn	0.672314	-0.064862	-0.074144
Zn9	Zn	0.672334	0.064744	-0.074127
O10	O	0.667315	-0.049232	-0.157073
C11	C	0.568176	-0.000048	-0.078882
C12	C	0.504959	-0.000041	-0.078116
N13	N	0.672304	-0.153314	-0.074155
C14	C	0.105856	-0.000061	-0.125350
C15	C	0.046456	-0.000065	-0.124638
O16	O	0.009711	-0.000081	-0.168424
N17	N	0.023830	-0.000071	-0.072362
C18	C	0.060607	-0.000080	-0.020794
O19	O	0.035908	-0.000086	0.023737
C20	C	0.120006	-0.000080	-0.021506
C21	C	0.142629	-0.000068	-0.073785
C22	C	0.128479	-0.000050	-0.177625
C23	C	0.187876	-0.000045	-0.178336
C24	C	0.224649	-0.000052	-0.126772
C25	C	0.202025	-0.000063	-0.074497
C26	C	0.156783	-0.000093	0.030062
C27	C	0.216185	-0.000094	0.029345
C28	C	0.238808	-0.000082	-0.022934
C29	C	0.298194	-0.000065	-0.023643
N30	N	0.320820	-0.000059	-0.075920
C31	C	0.284048	-0.000052	-0.127484
C32	C	-0.064135	-0.000080	-0.019302
C33	C	-0.123533	-0.000075	-0.018589
C34	C	-0.137680	-0.000061	-0.122434
C35	C	-0.078281	-0.000062	-0.123146
C36	C	-0.041509	-0.000074	-0.071578
C37	C	0.408784	-0.000042	-0.128974
C38	C	0.468186	-0.000034	-0.129680
C39	C	0.482329	-0.000051	-0.025836
C40	C	0.422932	-0.000055	-0.025129
C41	C	0.386160	-0.000052	-0.076702
O42	O	0.334974	-0.000052	0.020119
O43	O	0.308755	-0.000054	-0.172007
C44	C	0.711273	-0.561965	-0.035196
C45	C	0.711276	-0.623884	-0.035192
O46	O	0.744384	-0.655911	-0.002076
N47	N	0.672334	-0.654851	-0.074115
C48	C	0.633383	-0.623895	-0.113041
O49	O	0.600259	-0.655920	-0.146147
C50	C	0.633377	-0.561976	-0.113042
C51	C	0.672326	-0.531013	-0.074120
C52	C	0.750218	-0.531001	0.003724
C53	C	0.750215	-0.469085	0.003719
C54	C	0.711268	-0.438133	-0.035206
C55	C	0.672323	-0.469097	-0.074125
C56	C	0.594424	-0.531021	-0.151965
C57	C	0.594422	-0.469098	-0.151962
C58	C	0.633370	-0.438134	-0.113040
C59	C	0.633374	-0.376229	-0.113054
N60	N	0.672316	-0.345262	-0.074131
C61	C	0.711263	-0.376214	-0.035207
C62	C	0.633396	-0.753928	-0.113035
C63	C	0.633403	-0.815846	-0.113037
C64	C	0.711296	-0.815831	-0.035187
C65	C	0.711291	-0.753913	-0.035188
C66	C	0.672338	-0.722962	-0.074112
C67	C	0.711255	-0.246187	-0.035220
C68	C	0.711251	-0.184266	-0.035230
C69	C	0.633357	-0.184286	-0.113078
C70	C	0.633363	-0.246202	-0.113071
C71	C	0.672314	-0.277151	-0.074137
O72	O	0.600281	-0.344163	-0.146152
O73	O	0.744376	-0.344182	-0.002101
C74	C	0.776472	-0.000069	-0.069388
C75	C	0.839689	-0.000071	-0.070154
C76	C	0.677071	-0.000072	0.030013
C77	C	0.676305	-0.000076	0.093230
N78	N	0.672349	0.153196	-0.074111
C79	C	0.667577	-0.000045	-0.178283
C80	C	0.668343	-0.000036	-0.241500
C81	C	0.723539	-0.000049	0.492333
C82	C	0.722827	-0.000044	0.551733
O83	O	0.766613	-0.000027	0.588478
N84	N	0.670551	-0.000039	0.574359
C85	C	0.618983	-0.000032	0.537582
O86	O	0.574452	-0.000027	0.562281
C87	C	0.619695	-0.000033	0.478182
C88	C	0.671974	-0.000044	0.455560
C89	C	0.775814	-0.000060	0.469710
C90	C	0.776525	-0.000065	0.410313
C91	C	0.724961	-0.000060	0.373540
C92	C	0.672685	-0.000050	0.396164
C93	C	0.568127	-0.000022	0.441406
C94	C	0.568844	-0.000021	0.382004
C95	C	0.621123	-0.000033	0.359381
C96	C	0.621832	-0.000050	0.299995
N97	N	0.674109	-0.000056	0.277368
C98	C	0.725673	-0.000061	0.314141
C99	C	0.617491	-0.000031	0.662324
C100	C	0.616778	-0.000034	0.721722
C101	C	0.720623	-0.000045	0.735869
C102	C	0.721335	-0.000046	0.676470
C103	C	0.669767	-0.000036	0.639698
C104	C	0.727163	-0.000073	0.189405
C105	C	0.727869	-0.000081	0.130003
C106	C	0.624025	-0.000067	0.115860
C107	C	0.623318	-0.000062	0.175257
C108	C	0.674891	-0.000063	0.212029
O109	O	0.578070	-0.000065	0.263215
O110	O	0.770196	-0.000058	0.289433
H111	H	0.486602	-0.000024	-0.172255
Br112	Br	0.358890	-0.000039	-0.198967
Br113	Br	-0.047586	-0.000046	-0.194099
Br114	Br	0.218568	-0.000031	-0.249291
Br115	Br	0.126097	-0.000097	0.101018
Br116	Br	0.266088	-0.000113	0.099335
H117	H	-0.167632	-0.000059	-0.164421
Br118	Br	-0.154227	-0.000074	0.052364
Br119	Br	-0.014235	-0.000090	0.050690
Br120	Br	0.078583	-0.000041	-0.247615
H121	H	0.562700	-0.443901	-0.183658
Br122	Br	0.580510	-0.288222	-0.165902
Br123	Br	0.392228	-0.000074	0.045822
H124	H	0.770443	-0.000092	0.111587
Br125	Br	0.498854	-0.000005	0.332101
Br126	Br	0.552367	-0.000060	0.205961
Br127	Br	0.803080	-0.572997	0.056557
H128	H	0.512280	-0.000054	0.016146
Br129	Br	0.764115	-0.142247	0.017593
H130	H	0.742973	-0.271379	-0.003516
H131	H	0.762610	-0.000047	0.765821
H132	H	0.817806	-0.000061	0.499645
H133	H	0.743005	-0.728706	-0.003494
Br134	Br	0.803072	-0.427070	0.056546
Br135	Br	0.797156	-0.000074	0.239299
H136	H	0.819097	-0.000072	0.391900
H137	H	0.582043	-0.000065	0.085909
H138	H	0.743008	-0.841044	-0.003492
H139	H	0.763906	-0.000054	0.658056
H140	H	0.601694	-0.841052	-0.144737
Br141	Br	0.580530	-0.711929	-0.165869
Br142	Br	0.541563	-0.573030	-0.204790
H143	H	0.574207	-0.000035	0.740136
H144	H	0.601648	-0.159075	-0.144772
H145	H	0.575496	-0.000028	0.632386
H146	H	0.525555	-0.000009	0.459814
