data_functionalizedCrystal
_audit_creation_method	'MofGen! by Chris Wilmer'
_symmetry_space_group_name_H-M	'P1'
_symmetry_Int_Tables_number	1
_symmetry_cell_setting	triclinic
loop_
_symmetry_equiv_pos_as_xyz
  x,y,z
_cell_length_a	15.537862
_cell_length_b	19.188924
_cell_length_c	14.185569
_cell_angle_alpha	76.888872
_cell_angle_beta	97.877082
_cell_angle_gamma	65.203199
loop_
_atom_site_label
_atom_site_type_symbol
_atom_site_fract_x
_atom_site_fract_y
_atom_site_fract_z
O1	O	1.229479	-0.205827	-0.083353
O2	O	1.729479	0.294173	0.416647
O3	O	0.954866	-0.125103	-0.083371
O4	O	1.454866	0.374897	0.416629
O5	O	1.100104	-0.269116	-0.083349
O6	O	1.600104	0.230884	0.416651
O7	O	1.084241	-0.061814	-0.083374
O8	O	1.584241	0.438186	0.416626
O9	O	1.143008	-0.311655	0.083492
O10	O	1.643008	0.188345	0.583492
O11	O	0.997770	-0.167642	0.083470
O12	O	1.497770	0.332358	0.583470
O13	O	1.272383	-0.248366	0.083488
O14	O	1.772383	0.251634	0.583488
Cu15	Cu	1.138994	-0.211889	0.098713
Cu16	Cu	1.638994	0.288111	0.598713
Cu17	Cu	1.088255	-0.161581	-0.098596
Cu18	Cu	1.588255	0.338419	0.401404
O19	O	1.127146	-0.104354	0.083467
O20	O	1.627146	0.395646	0.583467
C21	C	0.941185	-0.137926	0.000047
C22	C	1.441185	0.362074	0.500047
C23	C	0.836500	-0.112767	0.000041
C24	C	1.336500	0.387233	0.500041
C25	C	1.121044	-0.316268	0.000072
C26	C	1.621044	0.183732	0.500072
C27	C	1.119506	-0.393387	0.000075
C28	C	1.619506	0.106613	0.500075
C29	C	0.677443	-0.010791	0.000024
C30	C	1.177443	0.489209	0.500024
C31	C	0.775812	-0.034439	0.000030
C32	C	1.275812	0.465561	0.500030
C33	C	0.798836	-0.167480	0.000051
C34	C	1.298836	0.332520	0.500051
C35	C	0.700468	-0.143845	0.000050
C36	C	1.200468	0.356155	0.500050
C37	C	0.639779	-0.065498	0.000035
C38	C	1.139779	0.434502	0.500035
C39	C	0.662804	-0.198553	0.000061
C40	C	1.162804	0.301447	0.500061
C41	C	0.564443	-0.174917	0.000055
C42	C	1.064443	0.325083	0.500055
C43	C	0.503747	-0.096573	0.000038
C44	C	1.003747	0.403427	0.500038
C45	C	0.541418	-0.041863	0.000029
C46	C	1.041418	0.458137	0.500029
C47	C	0.723493	-0.276897	0.000068
C48	C	1.223493	0.223103	0.500068
C49	C	0.685829	-0.331604	0.000079
C50	C	1.185829	0.168396	0.500079
C51	C	0.587468	-0.307971	0.000080
C52	C	1.087468	0.192029	0.500080
C53	C	0.526772	-0.229628	0.000063
C54	C	1.026772	0.270372	0.500063
C55	C	0.549797	-0.362682	0.000088
C56	C	1.049797	0.137318	0.500088
C57	C	0.451437	-0.339046	0.000082
C58	C	0.951437	0.160954	0.500082
C59	C	0.428412	-0.205992	0.000057
C60	C	0.928412	0.294008	0.500057
C61	C	1.095401	-0.406418	-0.090871
C62	C	1.595401	0.093582	0.409129
C63	C	1.093940	-0.478872	-0.090878
C64	C	1.593940	0.021128	0.409122
C65	C	1.116605	-0.538301	0.000064
C66	C	1.616605	-0.038301	0.500064
C67	C	1.140708	-0.525263	0.091022
C68	C	1.640708	-0.025263	0.591022
C69	C	1.142159	-0.452806	0.091027
C70	C	1.642159	0.047194	0.591027
N71	N	1.185403	-0.688133	0.067754
N72	N	1.685403	-0.188133	0.567754
N73	N	1.184025	-0.756963	0.067743
N74	N	1.684025	-0.256963	0.567743
C75	C	1.112235	-0.756610	0.000054
C76	C	1.612235	-0.256610	0.500054
N77	N	1.041881	-0.684827	-0.067638
N78	N	1.541881	-0.184827	0.432362
N79	N	1.043262	-0.615991	-0.067630
N80	N	1.543262	-0.115991	0.432370
C81	C	1.115035	-0.616871	0.000069
C82	C	1.615035	-0.116871	0.500069
C83	C	1.086543	-0.848202	-0.090906
C84	C	1.586543	-0.348202	0.409094
C85	C	1.085077	-0.920656	-0.090910
C86	C	1.585077	-0.420656	0.409090
C87	C	1.131855	-0.967050	0.090993
C88	C	1.631855	-0.467050	0.590993
C89	C	1.133311	-0.894593	0.090994
C90	C	1.633311	-0.394593	0.590994
C91	C	1.110658	-0.835174	0.000042
C92	C	1.610658	-0.335174	0.500042
C93	C	1.286064	-0.235543	0.000068
C94	C	1.786064	0.264457	0.500068
C95	C	1.390747	-0.260700	0.000068
C96	C	1.890747	0.239300	0.500068
C97	C	1.106205	-0.057201	0.000043
C98	C	1.606205	0.442799	0.500043
C99	C	1.107741	0.019920	0.000034
C100	C	1.607741	0.519920	0.500034
N101	N	1.174689	-0.247274	0.237489
N102	N	1.674689	0.252726	0.737489
N103	N	1.052568	-0.126203	-0.237372
N104	N	1.552568	0.373797	0.262628
C105	C	0.947698	-0.022269	0.605106
C106	C	1.447698	0.477731	1.105106
C107	C	0.974743	-0.049071	0.710131
C108	C	1.474743	0.450929	1.210131
C109	C	1.103377	-0.176565	0.710111
C110	C	1.603377	0.323435	1.210111
C111	C	1.076340	-0.149776	0.605084
C112	C	1.576340	0.350224	1.105084
C113	C	0.998501	-0.072627	0.552589
C114	C	1.498501	0.427373	1.052589
C115	C	1.127142	-0.200134	0.552567
C116	C	1.627142	0.299866	1.052567
C117	C	1.100110	-0.173345	0.447548
C118	C	1.600110	0.326655	0.947548
C119	C	1.022276	-0.096199	0.395047
C120	C	1.522276	0.403801	0.895047
C121	C	0.971469	-0.045839	0.447570
C122	C	1.471469	0.454161	0.947570
C123	C	1.204985	-0.277281	0.605064
C124	C	1.704985	0.222719	1.105064
C125	C	1.255788	-0.327638	0.552547
C126	C	1.755788	0.172362	1.052547
C127	C	1.228752	-0.300852	0.447526
C128	C	1.728752	0.199148	0.947526
C129	C	1.150918	-0.223705	0.395025
C130	C	1.650918	0.276295	0.895025
C131	C	1.279559	-0.351212	0.395003
C132	C	1.779559	0.148788	0.895003
C133	C	1.252528	-0.324423	0.289984
C134	C	1.752528	0.175577	0.789984
C135	C	1.123886	-0.196916	0.290006
C136	C	1.623886	0.303084	0.790006
H137	H	0.378998	-0.142198	0.000059
H138	H	0.878998	0.357802	0.500059
H139	H	1.161785	-0.442199	0.165088
H140	H	1.661785	0.057801	0.665088
H141	H	0.803579	-0.296133	0.000054
H142	H	1.303579	0.203867	0.500054
Br143	Br	0.459052	0.064459	0.000036
Br144	Br	0.959052	0.564459	0.500036
H145	H	1.068092	-0.799818	-0.164964
H146	H	1.568092	-0.299818	0.335036
H147	H	0.628029	0.053003	0.000026
H148	H	1.128029	0.553003	0.500026
Br149	Br	1.052349	-0.938336	-0.214347
Br150	Br	1.552349	-0.438336	0.285653
H151	H	0.423655	-0.077330	0.000029
H152	H	0.923655	0.422670	0.500029
H153	H	0.806476	0.010114	0.000033
H154	H	1.306476	0.510114	0.500033
H155	H	0.848261	-0.231269	0.000059
H156	H	1.348261	0.268731	0.500059
Br157	Br	0.768200	-0.437927	0.000097
Br158	Br	1.268200	0.062073	0.500097
H159	H	1.152948	-0.883989	0.165052
H160	H	1.652948	-0.383989	0.665052
Br161	Br	1.018232	-0.092218	0.218758
Br162	Br	1.518232	0.407782	0.718758
H163	H	1.000271	-0.074387	0.309534
H164	H	1.500271	0.425613	0.809534
H165	H	0.908078	0.016981	0.404827
H166	H	1.408078	0.516981	0.904827
H167	H	0.599222	-0.426468	0.000090
H168	H	1.099222	0.073532	0.500090
H169	H	0.420770	-0.383594	0.000090
H170	H	0.920770	0.116406	0.500090
Br171	Br	1.064654	-0.325779	-0.214305
Br172	Br	1.564654	0.174221	0.285695
H173	H	1.074305	-0.489481	-0.164939
H174	H	1.574305	0.010519	0.335061
H175	H	1.150302	-1.015435	0.165040
H176	H	1.650302	-0.515435	0.665040
H177	H	1.159160	-0.573654	0.165068
H178	H	1.659160	-0.073654	0.665068
H179	H	0.884307	0.040550	0.562362
H180	H	1.384307	0.540550	1.062362
H181	H	1.166757	-0.239380	0.752864
H182	H	1.666757	0.260620	1.252864
H183	H	0.933367	-0.008056	0.752885
H184	H	1.433367	0.491944	1.252885
Br185	Br	1.241675	-0.313631	0.747591
Br186	Br	1.741675	0.186369	1.247591
H187	H	1.319168	-0.390453	0.595300
H188	H	1.819168	0.109547	1.095300
H189	H	1.342943	-0.414025	0.437757
H190	H	1.842943	0.085975	0.937757
Br191	Br	1.321481	-0.392765	0.218708
Br192	Br	1.821481	0.107235	0.718708
