data_functionalizedCrystal
_audit_creation_method	'MofGen! by Chris Wilmer'
_symmetry_space_group_name_H-M	'P1'
_symmetry_Int_Tables_number	1
_symmetry_cell_setting	triclinic
loop_
_symmetry_equiv_pos_as_xyz
  x,y,z
_cell_length_a	10.268362
_cell_length_b	10.654550
_cell_length_c	10.654550
_cell_angle_alpha	95.515069
_cell_angle_beta	90.005126
_cell_angle_gamma	89.998669
loop_
_atom_site_label
_atom_site_type_symbol
_atom_site_fract_x
_atom_site_fract_y
_atom_site_fract_z
O1	O	0.108203	-1.667841	0.176400
O2	O	0.108227	-1.302363	0.193206
O3	O	0.108206	-1.493505	0.002064
O4	O	0.108223	-1.476699	0.367542
O5	O	-0.108395	-1.493488	0.002056
O6	O	-0.108374	-1.302346	0.193198
O7	O	-0.108398	-1.667824	0.176392
Cu8	Cu	-0.128163	-1.485084	0.184794
Cu9	Cu	0.127992	-1.485104	0.184804
O10	O	-0.108377	-1.476682	0.367534
C11	C	-0.000071	-1.255556	0.191968
C12	C	-0.000062	-1.116113	0.188276
N13	N	-0.308329	-1.485079	0.184787
C14	C	-0.000094	-1.492263	-0.044738
C15	C	-0.000091	-1.488571	-0.184181
C16	C	-0.574000	-1.485097	0.184801
C17	C	-0.426162	-1.485083	0.184797
N18	N	0.308158	-1.485118	0.184801
C19	C	-0.000098	-1.714631	0.177630
C20	C	-0.000098	-1.854074	0.181322
C21	C	-0.000060	-1.036628	0.300818
C22	C	-0.000083	-0.905607	0.297341
C23	C	-0.000104	-0.933570	0.068772
C24	C	-0.000090	-1.064588	0.072250
C25	C	-0.000098	-1.601112	-0.263667
C26	C	-0.000082	-1.597636	-0.394688
C27	C	-0.000058	-1.369066	-0.366725
C28	C	-0.000065	-1.372544	-0.235706
C29	C	-0.000075	-1.477925	0.414336
C30	C	-0.000069	-1.481616	0.553779
H31	H	-0.000084	-0.840894	0.388984
C32	C	-0.111398	-1.243844	-0.072139
C33	C	-0.000055	-1.248832	-0.148320
H34	H	-0.111380	-1.167477	-0.018186
H35	H	-0.186917	-1.247216	-0.123838
H36	H	-0.111394	-1.313450	-0.022712
H37	H	-0.000064	-1.179230	-0.197753
H38	H	0.075484	-1.245448	-0.096615
H39	H	-0.000135	-0.891602	-0.025693
H40	H	-0.000095	-1.129309	-0.019401
C41	C	0.111242	-1.797003	-0.247142
C42	C	-0.000106	-1.728644	-0.207024
H43	H	0.111243	-1.875733	-0.212168
H44	H	0.111235	-1.811036	-0.336536
H45	H	0.186766	-1.750603	-0.219908
H46	H	-0.075630	-1.775039	-0.234266
H47	H	-0.000111	-1.714615	-0.117611
C48	C	-0.000058	-0.995823	0.526397
C49	C	-0.000047	-1.093265	0.428352
H50	H	-0.000061	-1.030788	0.605132
H51	H	0.075466	-0.945300	0.520292
H52	H	-0.075602	-0.945307	0.520271
H53	H	0.075502	-1.143776	0.434473
H54	H	-0.075578	-1.143809	0.434461
C55	C	0.111268	-1.726346	-0.558219
C56	C	-0.000088	-1.721347	-0.482056
H57	H	0.111268	-1.802729	-0.612149
H58	H	0.111272	-1.656764	-0.607658
H59	H	0.186786	-1.722957	-0.506497
H60	H	-0.075607	-1.724728	-0.533777
H61	H	-0.000104	-1.790949	-0.432612
C62	C	0.111319	-1.173192	-0.383230
C63	C	-0.000036	-1.241536	-0.423370
H64	H	0.111331	-1.094463	-0.418207
H65	H	0.111307	-1.159156	-0.293836
H66	H	0.186838	-1.219603	-0.410446
H67	H	-0.075556	-1.195130	-0.396146
H68	H	-0.000036	-1.255568	-0.512784
