data_functionalizedCrystal
_audit_creation_method	'MofGen! by Chris Wilmer'
_symmetry_space_group_name_H-M	'P1'
_symmetry_Int_Tables_number	1
_symmetry_cell_setting	triclinic
loop_
_symmetry_equiv_pos_as_xyz
  x,y,z
_cell_length_a	14.044220
_cell_length_b	10.654550
_cell_length_c	12.503572
_cell_angle_alpha	93.557511
_cell_angle_beta	93.835250
_cell_angle_gamma	91.163096
loop_
_atom_site_label
_atom_site_type_symbol
_atom_site_fract_x
_atom_site_fract_y
_atom_site_fract_z
O1	O	1.265114	-0.296337	0.089205
O2	O	0.989074	-0.285402	0.089233
O3	O	1.133440	-0.108769	0.089212
O4	O	1.120748	-0.472970	0.089226
O5	O	1.122583	-0.122077	-0.089429
O6	O	0.978217	-0.298710	-0.089408
O7	O	1.254257	-0.309645	-0.089435
Cu8	Cu	1.115246	-0.305393	-0.105733
Cu9	Cu	1.128085	-0.289654	0.105530
O10	O	1.109891	-0.486278	-0.089414
C11	C	0.948300	-0.287270	-0.000084
C12	C	0.842981	-0.272993	-0.000074
C13	C	1.127080	-0.068531	-0.000108
C14	C	1.124291	0.071193	-0.000106
N15	N	1.106222	-0.316462	-0.254324
C16	C	0.650147	-0.246896	-0.000096
C17	C	0.593179	-0.348144	-0.000097
C18	C	0.485880	-0.333624	-0.000109
C19	C	0.757456	-0.261415	-0.000084
C20	C	1.295031	-0.307777	-0.000116
C21	C	1.400351	-0.322053	-0.000119
C22	C	1.116251	-0.526516	-0.000092
C23	C	1.119040	-0.666239	-0.000087
C24	C	1.209292	0.142136	-0.000114
C25	C	1.206667	0.273422	-0.000101
C26	C	1.034033	0.262808	-0.000076
C27	C	1.036660	0.131526	-0.000081
C28	C	1.310582	0.463868	0.062481
C29	C	1.395586	0.534815	0.062455
C30	C	1.468841	0.492235	-0.000155
C31	C	1.457093	0.378709	-0.062765
C32	C	1.372087	0.307768	-0.062748
C33	C	1.298837	0.350348	-0.000113
C34	C	0.932751	-0.058924	-0.062672
C35	C	0.847743	-0.129867	-0.062663
C36	C	0.774480	-0.087291	-0.000059
C37	C	0.786217	0.026238	0.062534
C38	C	0.871224	0.097181	0.062525
C39	C	0.944488	0.054596	-0.000076
C40	C	1.092947	-0.332756	-0.473437
C41	C	1.150388	-0.262286	-0.526772
C42	C	1.143002	-0.271352	-0.648694
C43	C	1.100332	-0.323691	-0.351504
N44	N	1.137117	-0.278576	0.254121
H45	H	0.618335	-0.149318	-0.000106
C46	C	1.020083	-0.422256	-0.534830
C47	C	1.027180	-0.413601	-0.645304
C48	C	0.960087	-0.496045	-0.701906
H49	H	0.957702	-0.400367	-0.516603
H50	H	1.032152	-0.505953	-0.516524
H51	H	1.015105	-0.329923	-0.663603
H52	H	1.089547	-0.435502	-0.663563
H53	H	0.972155	-0.579741	-0.683601
H54	H	0.897710	-0.474148	-0.683671
H55	H	0.964899	-0.490192	-0.776869
C56	C	0.938985	0.328544	-0.000116
C57	C	0.954873	0.458699	-0.000145
C58	C	0.867334	0.519290	-0.000200
H59	H	0.907660	0.309632	0.062166
H60	H	0.900153	0.300281	-0.062434
H61	H	0.993689	0.486952	0.062167
H62	H	0.986183	0.477648	-0.062422
H63	H	0.828502	0.491027	-0.062518
H64	H	0.836016	0.500368	0.062083
H65	H	0.878102	0.607605	-0.000230
H66	H	0.880782	0.189615	0.113508
H67	H	1.538053	0.550009	-0.000175
C68	C	0.635778	-0.478155	0.000003
C69	C	0.735282	-0.466898	0.000054
C70	C	0.774563	-0.586629	0.000175
H71	H	0.611616	-0.527295	-0.062265
H72	H	0.619100	-0.517864	0.062335
H73	H	0.751952	-0.427208	-0.062273
H74	H	0.759471	-0.417781	0.062316
H75	H	0.757885	-0.626338	0.062507
H76	H	0.750393	-0.635760	-0.062094
H77	H	0.842080	-0.579007	0.000219
C78	C	1.304474	0.076714	0.000096
C79	C	1.361482	0.118664	0.092015
C80	C	1.449166	0.058417	0.092257
H81	H	1.335845	0.095733	-0.062128
H82	H	1.293909	-0.011640	0.000151
H83	H	1.372048	0.206998	0.091950
H84	H	1.330140	0.099644	0.154253
H85	H	1.438602	-0.029937	0.092312
H86	H	1.480529	0.077440	0.030030
H87	H	1.487854	0.086863	0.154628
C88	C	1.359398	0.184636	-0.130891
C89	C	1.366982	0.207680	-0.239061
C90	C	1.355315	0.094273	-0.301860
H91	H	1.298299	0.148382	-0.122046
H92	H	1.407454	0.128333	-0.108968
H93	H	1.318928	0.263962	-0.260977
H94	H	1.428076	0.243916	-0.247940
H95	H	1.403372	0.037970	-0.279936
H96	H	1.294216	0.058027	-0.293005
H97	H	1.360468	0.109891	-0.375258
C98	C	1.223394	-0.172646	-0.465767
C99	C	1.274926	-0.109393	-0.538940
C100	C	1.342178	-0.026804	-0.482777
H101	H	1.265943	-0.218876	-0.421891
H102	H	1.191502	-0.113279	-0.421918
H103	H	1.306817	-0.168752	-0.582770
H104	H	1.232403	-0.063139	-0.582817
H105	H	1.310286	0.032563	-0.438928
H106	H	1.384720	-0.073043	-0.438903
H107	H	1.377145	0.016132	-0.532415
H108	H	1.516743	0.344056	-0.113756
H109	H	1.405145	0.627248	0.113440
C110	C	0.834863	-0.253014	-0.130768
C111	C	0.756220	-0.245409	-0.204841
C112	C	0.744333	-0.358821	-0.267601
H113	H	0.824375	-0.319869	-0.085765
H114	H	0.890636	-0.268237	-0.168117
H115	H	0.700460	-0.230200	-0.167495
H116	H	0.766689	-0.178577	-0.249867
H117	H	0.800105	-0.374045	-0.304949
H118	H	0.733848	-0.425668	-0.222589
H119	H	0.690979	-0.353673	-0.317872
C120	C	1.231188	0.510152	0.130651
C121	C	1.264986	0.521646	0.238808
C122	C	1.191879	0.564303	0.301635
H123	H	1.178837	0.451724	0.121845
H124	H	1.211030	0.589739	0.108718
H125	H	1.285130	0.442071	0.260734
H126	H	1.317327	0.580080	0.247647
H127	H	1.171721	0.643889	0.279702
H128	H	1.139533	0.505870	0.292820
H129	H	1.214804	0.572118	0.375024
H130	H	0.726550	0.060922	0.113489
H131	H	0.705257	-0.145057	-0.000071
H132	H	0.992415	-0.093619	-0.113630
