data_functionalizedCrystal
_audit_creation_method	'MofGen! by Chris Wilmer'
_symmetry_space_group_name_H-M	'P1'
_symmetry_Int_Tables_number	1
_symmetry_cell_setting	triclinic
loop_
_symmetry_equiv_pos_as_xyz
  x,y,z
_cell_length_a	29.839131
_cell_length_b	29.839135
_cell_length_c	29.839126
_cell_angle_alpha	90.023409
_cell_angle_beta	89.975848
_cell_angle_gamma	89.956753
loop_
_atom_site_label
_atom_site_type_symbol
_atom_site_fract_x
_atom_site_fract_y
_atom_site_fract_z
Zn1	Zn	-0.178866	-0.686754	-0.254050
Zn2	Zn	0.071134	-0.436754	-0.004050
Zn3	Zn	0.321134	-0.186754	0.245950
Zn4	Zn	0.571134	0.063246	0.495950
Zn5	Zn	-0.253986	-0.686676	-0.178920
Zn6	Zn	-0.003986	-0.436676	0.071080
Zn7	Zn	0.246014	-0.186676	0.321080
Zn8	Zn	0.496014	0.063324	0.571080
Zn9	Zn	-0.178874	-0.611626	-0.178928
Zn10	Zn	0.071126	-0.361626	0.071072
Zn11	Zn	0.321126	-0.111626	0.321072
Zn12	Zn	0.571126	0.138374	0.571072
Zn13	Zn	-0.253972	-0.611584	-0.254017
Zn14	Zn	-0.003972	-0.361584	-0.004017
Zn15	Zn	0.246028	-0.111584	0.245983
Zn16	Zn	0.496028	0.138416	0.495983
O17	O	-0.216424	-0.649160	-0.216479
O18	O	0.033576	-0.399160	0.033521
O19	O	0.283576	-0.149160	0.283521
O20	O	0.533576	0.100840	0.533521
O21	O	-0.188834	-0.749610	-0.244095
O22	O	0.061166	-0.499610	0.005905
O23	O	0.311166	-0.249610	0.255905
O24	O	0.561166	0.000390	0.505905
O25	O	-0.244032	-0.676705	-0.116054
O26	O	0.005968	-0.426705	0.133946
O27	O	0.255968	-0.176705	0.383946
O28	O	0.505968	0.073295	0.633946
O29	O	-0.116005	-0.621642	-0.188911
O30	O	0.133995	-0.371642	0.061089
O31	O	0.383995	-0.121642	0.311089
O32	O	0.633995	0.128358	0.561089
O33	O	-0.244024	-0.749553	-0.188897
O34	O	0.005976	-0.499553	0.061103
O35	O	0.255976	-0.249553	0.311103
O36	O	0.505976	0.000447	0.561103
O37	O	-0.116000	-0.676838	-0.244103
O38	O	0.134000	-0.426838	0.005897
O39	O	0.384000	-0.176838	0.255897
O40	O	0.634000	0.073162	0.505897
O41	O	-0.188847	-0.621567	-0.116060
O42	O	0.061153	-0.371567	0.133940
O43	O	0.311153	-0.121567	0.383940
O44	O	0.561153	0.128433	0.633940
O45	O	-0.188833	-0.548754	-0.188878
O46	O	0.061167	-0.298754	0.061122
O47	O	0.311167	-0.048754	0.311122
O48	O	0.561167	0.201246	0.561122
O49	O	-0.244000	-0.621570	-0.316888
O50	O	0.006000	-0.371570	-0.066888
O51	O	0.256000	-0.121570	0.183112
O52	O	0.506000	0.128430	0.433112
O53	O	-0.244007	-0.548723	-0.244045
O54	O	0.005993	-0.298723	0.005955
O55	O	0.255993	-0.048723	0.255955
O56	O	0.505993	0.201277	0.505955
O57	O	-0.188820	-0.676797	-0.316913
O58	O	0.061180	-0.426797	-0.066913
O59	O	0.311180	-0.176797	0.183087
O60	O	0.561180	0.073203	0.433087
O61	O	-0.316852	-0.676664	-0.188865
O62	O	-0.066852	-0.426664	0.061135
O63	O	0.183148	-0.176664	0.311135
O64	O	0.433148	0.073336	0.561135
O65	O	-0.316841	-0.621495	-0.244038
O66	O	-0.066841	-0.371495	0.005962
O67	O	0.183159	-0.121495	0.255962
O68	O	0.433159	0.128505	0.505962
C69	C	-0.216420	-0.532437	-0.216459
C70	C	0.033580	-0.282437	0.033541
C71	C	0.283580	-0.032437	0.283541
C72	C	0.533580	0.217563	0.533541
C73	C	-0.216428	-0.482503	-0.216461
C74	C	0.033572	-0.232503	0.033539
C75	C	0.283572	0.017497	0.283539
C76	C	0.533572	0.267497	0.533539
C77	C	-0.187724	-0.172886	-0.245261
C78	C	0.062276	0.077114	0.004739
C79	C	0.312276	0.327114	0.254739
C80	C	0.562276	0.577114	0.504739
C81	C	-0.187725	0.014787	-0.245272
C82	C	0.062275	0.264787	0.004728
C83	C	0.312275	0.514787	0.254728
C84	C	0.562275	0.764787	0.504728
O85	O	-0.163313	0.039029	-0.269738
O86	O	0.086687	0.289029	-0.019738
O87	O	0.336687	0.539029	0.230262
O88	O	0.586687	0.789029	0.480262
N89	N	-0.216416	0.038282	-0.216492
N90	N	0.033584	0.288282	0.033508
N91	N	0.283584	0.538282	0.283508
N92	N	0.533584	0.788282	0.533508
C93	C	-0.245108	0.014856	-0.187705
C94	C	0.004892	0.264856	0.062295
C95	C	0.254892	0.514856	0.312295
C96	C	0.504892	0.764856	0.562295
O97	O	-0.269508	0.039147	-0.163223
O98	O	-0.019508	0.289147	0.086777
O99	O	0.230492	0.539147	0.336777
O100	O	0.480492	0.789147	0.586777
C101	C	-0.245104	-0.172816	-0.187691
C102	C	0.004896	0.077184	0.062309
C103	C	0.254896	0.327184	0.312309
C104	C	0.504896	0.577184	0.562309
C105	C	-0.216414	-0.196309	-0.216476
C106	C	0.033586	0.053691	0.033524
C107	C	0.283586	0.303691	0.283524
C108	C	0.533586	0.553691	0.533524
C109	C	-0.159036	-0.196379	-0.274043
C110	C	0.090964	0.053621	-0.024043
C111	C	0.340964	0.303621	0.225957
C112	C	0.590964	0.553621	0.475957
C113	C	-0.159038	-0.243295	-0.274042
C114	C	0.090962	0.006705	-0.024042
C115	C	0.340962	0.256705	0.225958
C116	C	0.590962	0.506705	0.475958
C117	C	-0.187728	-0.266717	-0.245257
C118	C	0.062272	-0.016717	0.004743
C119	C	0.312272	0.233283	0.254743
C120	C	0.562272	0.483283	0.504743
C121	C	-0.216416	-0.243224	-0.216475
C122	C	0.033584	0.006776	0.033525
C123	C	0.283584	0.256776	0.283525
C124	C	0.533584	0.506776	0.533525
C125	C	-0.273793	-0.196241	-0.158902
C126	C	-0.023793	0.053759	0.091098
C127	C	0.226207	0.303759	0.341098
C128	C	0.476207	0.553759	0.591098
C129	C	-0.273788	-0.243162	-0.158900
C130	C	-0.023788	0.006838	0.091100
C131	C	0.226212	0.256838	0.341100
C132	C	0.476212	0.506838	0.591100
C133	C	-0.245098	-0.266655	-0.187685
C134	C	0.004902	-0.016655	0.062315
C135	C	0.254902	0.233345	0.312315
C136	C	0.504902	0.483345	0.562315
C137	C	-0.245108	-0.313562	-0.187689
C138	C	0.004892	-0.063562	0.062311
C139	C	0.254892	0.186438	0.312311
C140	C	0.504892	0.436438	0.562311
N141	N	-0.216416	-0.337058	-0.216469
N142	N	0.033584	-0.087058	0.033531
N143	N	0.283584	0.162942	0.283531
N144	N	0.533584	0.412942	0.533531
C145	C	-0.187726	-0.313635	-0.245254
C146	C	0.062274	-0.063635	0.004746
C147	C	0.312274	0.186365	0.254746
C148	C	0.562274	0.436365	0.504746
C149	C	-0.245108	0.113387	-0.187715
C150	C	0.004892	0.363387	0.062285
C151	C	0.254892	0.613387	0.312285
C152	C	0.504892	0.863387	0.562285
C153	C	-0.245109	0.160305	-0.187719
C154	C	0.004891	0.410305	0.062281
C155	C	0.254891	0.660305	0.312281
C156	C	0.504891	0.910305	0.562281
C157	C	-0.187726	0.160232	-0.245286
C158	C	0.062274	0.410232	0.004714
C159	C	0.312274	0.660232	0.254714
C160	C	0.562274	0.910232	0.504714
C161	C	-0.187727	0.113313	-0.245284
C162	C	0.062273	0.363313	0.004716
C163	C	0.312273	0.613313	0.254716
C164	C	0.562273	0.863313	0.504716
C165	C	-0.216417	0.089892	-0.216495
C166	C	0.033583	0.339892	0.033505
C167	C	0.283583	0.589892	0.283505
C168	C	0.533583	0.839892	0.533505
C169	C	-0.187733	-0.412161	-0.245248
C170	C	0.062267	-0.162161	0.004752
C171	C	0.312267	0.087839	0.254752
C172	C	0.562267	0.337839	0.504752
C173	C	-0.187738	-0.459081	-0.245246
C174	C	0.062262	-0.209081	0.004754
C175	C	0.312262	0.040919	0.254754
C176	C	0.562262	0.290919	0.504754
C177	C	-0.245120	-0.459003	-0.187677
C178	C	0.004880	-0.209003	0.062323
C179	C	0.254880	0.040997	0.312323
C180	C	0.504880	0.290997	0.562323
C181	C	-0.245116	-0.412088	-0.187681
C182	C	0.004884	-0.162088	0.062319
C183	C	0.254884	0.087912	0.312319
C184	C	0.504884	0.337912	0.562319
C185	C	-0.216419	-0.388668	-0.216468
C186	C	0.033581	-0.138668	0.033532
C187	C	0.283581	0.111332	0.283532
C188	C	0.533581	0.361332	0.533532
O189	O	-0.269504	-0.337833	-0.163233
O190	O	-0.019504	-0.087833	0.086767
O191	O	0.230496	0.162167	0.336767
O192	O	0.480496	0.412167	0.586767
O193	O	-0.163323	-0.337934	-0.269725
O194	O	0.086677	-0.087934	-0.019725
O195	O	0.336677	0.162066	0.230275
O196	O	0.586677	0.412066	0.480275
C197	C	-0.187722	-0.125971	-0.245262
C198	C	0.062278	0.124029	0.004738
C199	C	0.312278	0.374029	0.254738
C200	C	0.562278	0.624029	0.504738
C201	C	-0.216411	-0.102478	-0.216480
C202	C	0.033589	0.147522	0.033520
C203	C	0.283589	0.397522	0.283520
C204	C	0.533589	0.647522	0.533520
C205	C	-0.245100	-0.125900	-0.187695
C206	C	0.004900	0.124100	0.062305
C207	C	0.254900	0.374100	0.312305
C208	C	0.504900	0.624100	0.562305
C209	C	-0.216412	-0.055560	-0.216483
C210	C	0.033588	0.194440	0.033517
C211	C	0.283588	0.444440	0.283517
C212	C	0.533588	0.694440	0.533517
C213	C	-0.187722	-0.032138	-0.245268
C214	C	0.062278	0.217862	0.004732
C215	C	0.312278	0.467862	0.254732
C216	C	0.562278	0.717862	0.504732
C217	C	-0.159031	-0.055633	-0.274048
C218	C	0.090969	0.194367	-0.024048
C219	C	0.340969	0.444367	0.225952
C220	C	0.590969	0.694367	0.475952
C221	C	-0.159033	-0.102549	-0.274046
C222	C	0.090967	0.147451	-0.024046
C223	C	0.340967	0.397451	0.225954
C224	C	0.590967	0.647451	0.475954
C225	C	-0.273792	-0.102405	-0.158915
C226	C	-0.023792	0.147595	0.091085
C227	C	0.226208	0.397595	0.341085
C228	C	0.476208	0.647595	0.591085
C229	C	-0.273788	-0.055489	-0.158919
C230	C	-0.023788	0.194511	0.091081
C231	C	0.226212	0.444511	0.341081
C232	C	0.476212	0.694511	0.591081
C233	C	-0.245098	-0.032067	-0.187704
C234	C	0.004902	0.217933	0.062296
C235	C	0.254902	0.467933	0.312296
C236	C	0.504902	0.717933	0.562296
C237	C	-0.333147	-0.649079	-0.216457
C238	C	-0.083147	-0.399079	0.033543
C239	C	0.166853	-0.149079	0.283543
C240	C	0.416853	0.100921	0.533543
C241	C	-0.383081	-0.649085	-0.216462
C242	C	-0.133081	-0.399085	0.033538
C243	C	0.116919	-0.149085	0.283538
C244	C	0.366919	0.100915	0.533538
C245	C	-0.692718	-0.677939	-0.187792
C246	C	-0.442718	-0.427939	0.062208
C247	C	-0.192718	-0.177939	0.312208
C248	C	0.057282	0.072061	0.562208
C249	C	-0.880391	-0.677994	-0.187810
C250	C	-0.630391	-0.427994	0.062190
C251	C	-0.380391	-0.177994	0.312190
C252	C	-0.130391	0.072006	0.562190
O253	O	-0.904649	-0.702462	-0.163416
O254	O	-0.654649	-0.452462	0.086584
O255	O	-0.404649	-0.202462	0.336584
O256	O	-0.154649	0.047538	0.586584
N257	N	-0.903866	-0.649253	-0.216513
N258	N	-0.653866	-0.399253	0.033487
N259	N	-0.403866	-0.149253	0.283487
N260	N	-0.153866	0.100747	0.533487
C261	C	-0.880421	-0.620498	-0.245216
C262	C	-0.630421	-0.370498	0.004784
C263	C	-0.380421	-0.120498	0.254784
C264	C	-0.130421	0.129502	0.504784
O265	O	-0.904695	-0.596056	-0.269633
O266	O	-0.654695	-0.346056	-0.019633
O267	O	-0.404695	-0.096056	0.230367
O268	O	-0.154695	0.153944	0.480367
C269	C	-0.692749	-0.620445	-0.245200
C270	C	-0.442749	-0.370445	0.004800
C271	C	-0.192749	-0.120445	0.254800
C272	C	0.057251	0.129555	0.504800
C273	C	-0.669276	-0.649185	-0.216492
C274	C	-0.419276	-0.399185	0.033508
C275	C	-0.169276	-0.149185	0.283508
C276	C	0.080724	0.100815	0.533508
C277	C	-0.669244	-0.706677	-0.159087
C278	C	-0.419244	-0.456677	0.090913
C279	C	-0.169244	-0.206677	0.340913
C280	C	0.080756	0.043323	0.590913
C281	C	-0.622329	-0.706661	-0.159081
C282	C	-0.372329	-0.456661	0.090919
C283	C	-0.122329	-0.206661	0.340919
C284	C	0.127671	0.043339	0.590919
C285	C	-0.598887	-0.677907	-0.187781
C286	C	-0.348887	-0.427907	0.062219
C287	C	-0.098887	-0.177907	0.312219
C288	C	0.151113	0.072093	0.562219
C289	C	-0.622360	-0.649169	-0.216486
C290	C	-0.372360	-0.399169	0.033514
C291	C	-0.122360	-0.149169	0.283514
C292	C	0.127640	0.100831	0.533514
C293	C	-0.669304	-0.591693	-0.273905
C294	C	-0.419304	-0.341693	-0.023905
C295	C	-0.169304	-0.091693	0.226095
C296	C	0.080696	0.158307	0.476095
C297	C	-0.622383	-0.591683	-0.273899
C298	C	-0.372383	-0.341683	-0.023899
C299	C	-0.122383	-0.091683	0.226101
C300	C	0.127617	0.158317	0.476101
C301	C	-0.598910	-0.620423	-0.245191
C302	C	-0.348910	-0.370423	0.004809
C303	C	-0.098910	-0.120423	0.254809
C304	C	0.151090	0.129577	0.504809
C305	C	-0.552003	-0.620399	-0.245180
C306	C	-0.302003	-0.370399	0.004820
C307	C	-0.052003	-0.120399	0.254820
C308	C	0.197997	0.129601	0.504820
N309	N	-0.528527	-0.649141	-0.216477
N310	N	-0.278527	-0.399141	0.033523
N311	N	-0.028527	-0.149141	0.283523
N312	N	0.221473	0.100859	0.533523
C313	C	-0.551969	-0.677895	-0.187777
C314	C	-0.301969	-0.427895	0.062223
C315	C	-0.051969	-0.177895	0.312223
C316	C	0.198031	0.072105	0.562223
C317	C	-0.978952	-0.620527	-0.245221
C318	C	-0.728952	-0.370527	0.004779
C319	C	-0.478952	-0.120527	0.254779
C320	C	-0.228952	0.129473	0.504779
C321	C	-1.025869	-0.620540	-0.245225
C322	C	-0.775869	-0.370540	0.004775
C323	C	-0.525869	-0.120540	0.254775
C324	C	-0.275869	0.129460	0.504775
C325	C	-1.025836	-0.678037	-0.187819
C326	C	-0.775836	-0.428037	0.062181
C327	C	-0.525836	-0.178037	0.312181
C328	C	-0.275836	0.071963	0.562181
C329	C	-0.978917	-0.678022	-0.187814
C330	C	-0.728917	-0.428022	0.062186
C331	C	-0.478917	-0.178022	0.312186
C332	C	-0.228917	0.071978	0.562186
C333	C	-0.955476	-0.649268	-0.216518
C334	C	-0.705476	-0.399268	0.033482
C335	C	-0.455476	-0.149268	0.283482
C336	C	-0.205476	0.100732	0.533482
C337	C	-0.453443	-0.677859	-0.187767
C338	C	-0.203443	-0.427859	0.062233
C339	C	0.046557	-0.177859	0.312233
C340	C	0.296557	0.072141	0.562233
C341	C	-0.406524	-0.677839	-0.187762
C342	C	-0.156524	-0.427839	0.062238
C343	C	0.093476	-0.177839	0.312238
C344	C	0.343476	0.072161	0.562238
C345	C	-0.406561	-0.620344	-0.245169
C346	C	-0.156561	-0.370344	0.004831
C347	C	0.093439	-0.120344	0.254831
C348	C	0.343439	0.129656	0.504831
C349	C	-0.453477	-0.620362	-0.245173
C350	C	-0.203477	-0.370362	0.004827
C351	C	0.046523	-0.120362	0.254827
C352	C	0.296523	0.129638	0.504827
C353	C	-0.476917	-0.649123	-0.216470
C354	C	-0.226917	-0.399123	0.033530
C355	C	0.023083	-0.149123	0.283530
C356	C	0.273083	0.100877	0.533530
O357	O	-0.527715	-0.595948	-0.269564
O358	O	-0.277715	-0.345948	-0.019564
O359	O	-0.027715	-0.095948	0.230436
O360	O	0.222285	0.154052	0.480436
O361	O	-0.527687	-0.702340	-0.163371
O362	O	-0.277687	-0.452340	0.086629
O363	O	-0.027687	-0.202340	0.336629
O364	O	0.222313	0.047660	0.586629
C365	C	-0.739633	-0.677955	-0.187798
C366	C	-0.489633	-0.427955	0.062202
C367	C	-0.239633	-0.177955	0.312202
C368	C	0.010367	0.072045	0.562202
C369	C	-0.763106	-0.649217	-0.216504
C370	C	-0.513106	-0.399217	0.033496
C371	C	-0.263106	-0.149217	0.283496
C372	C	-0.013106	0.100783	0.533496
C373	C	-0.739664	-0.620463	-0.245203
C374	C	-0.489664	-0.370463	0.004797
C375	C	-0.239664	-0.120463	0.254797
C376	C	0.010336	0.129537	0.504797
C377	C	-0.810024	-0.649229	-0.216507
C378	C	-0.560024	-0.399229	0.033493
C379	C	-0.310024	-0.149229	0.283493
C380	C	-0.060024	0.100771	0.533493
C381	C	-0.833466	-0.677983	-0.187807
C382	C	-0.583466	-0.427983	0.062193
C383	C	-0.333466	-0.177983	0.312193
C384	C	-0.083466	0.072017	0.562193
C385	C	-0.809991	-0.706725	-0.159104
C386	C	-0.559991	-0.456725	0.090896
C387	C	-0.309991	-0.206725	0.340896
C388	C	-0.059991	0.043275	0.590896
C389	C	-0.763075	-0.706709	-0.159098
C390	C	-0.513075	-0.456709	0.090902
C391	C	-0.263075	-0.206709	0.340902
C392	C	-0.013075	0.043291	0.590902
C393	C	-0.763140	-0.591722	-0.273906
C394	C	-0.513140	-0.341722	-0.023906
C395	C	-0.263140	-0.091722	0.226094
C396	C	-0.013140	0.158278	0.476094
C397	C	-0.810056	-0.591740	-0.273910
C398	C	-0.560056	-0.341740	-0.023910
C399	C	-0.310056	-0.091740	0.226090
C400	C	-0.060056	0.158260	0.476090
C401	C	-0.833498	-0.620493	-0.245210
C402	C	-0.583498	-0.370493	0.004790
C403	C	-0.333498	-0.120493	0.254790
C404	C	-0.083498	0.129507	0.504790
C405	C	-0.099246	-0.649254	-0.216511
C406	C	0.150754	-0.399254	0.033489
C407	C	0.400754	-0.149254	0.283489
C408	C	0.650754	0.100746	0.533489
C409	C	-0.049312	-0.649294	-0.216525
C410	C	0.200688	-0.399294	0.033475
C411	C	0.450688	-0.149294	0.283475
C412	C	0.700688	0.100706	0.533475
C413	C	-0.216407	-0.649188	-0.333657
C414	C	0.033593	-0.399188	-0.083657
C415	C	0.283593	-0.149188	0.166343
C416	C	0.533593	0.100812	0.416343
C417	C	-0.216400	-0.649200	-0.383592
C418	C	0.033600	-0.399200	-0.133592
C419	C	0.283600	-0.149200	0.116408
C420	C	0.533600	0.100800	0.366408
C421	C	-0.216427	0.233662	-0.216498
C422	C	0.033573	0.483662	0.033502
C423	C	0.283573	0.733662	0.283502
C424	C	0.533573	0.983662	0.533502
C425	C	-0.216420	0.183727	-0.216503
C426	C	0.033580	0.433727	0.033497
C427	C	0.283580	0.683727	0.283497
C428	C	0.533580	0.933727	0.533497
C429	C	-0.187620	-0.620498	-0.693241
C430	C	0.062380	-0.370498	-0.443241
C431	C	0.312380	-0.120498	-0.193241
C432	C	0.562380	0.129502	0.056759
C433	C	-0.187589	-0.620511	-0.880914
C434	C	0.062411	-0.370511	-0.630914
C435	C	0.312411	-0.120511	-0.380914
C436	C	0.562411	0.129489	-0.130914
O437	O	-0.163164	-0.596085	-0.905184
O438	O	0.086836	-0.346085	-0.655184
O439	O	0.336836	-0.096085	-0.405184
O440	O	0.586836	0.153915	-0.155184
N441	N	-0.216316	-0.649221	-0.904377
N442	N	0.033684	-0.399221	-0.654377
N443	N	0.283684	-0.149221	-0.404377
N444	N	0.533684	0.100779	-0.154377
C445	C	-0.245054	-0.677928	-0.880919
C446	C	0.004946	-0.427928	-0.630919
C447	C	0.254946	-0.177928	-0.380919
C448	C	0.504946	0.072072	-0.130919
O449	O	-0.269491	-0.702345	-0.905182
O450	O	-0.019491	-0.452345	-0.655182
O451	O	0.230509	-0.202345	-0.405182
O452	O	0.480509	0.047655	-0.155182
C453	C	-0.245087	-0.677913	-0.693246
C454	C	0.004913	-0.427913	-0.443246
C455	C	0.254913	-0.177913	-0.193246
C456	C	0.504913	0.072087	0.056754
C457	C	-0.216356	-0.649204	-0.669786
C458	C	0.033644	-0.399204	-0.419786
C459	C	0.283644	-0.149204	-0.169786
C460	C	0.533644	0.100796	0.080214
C461	C	-0.158891	-0.591791	-0.669781
C462	C	0.091109	-0.341791	-0.419781
C463	C	0.341109	-0.091791	-0.169781
C464	C	0.591109	0.158209	0.080219
C465	C	-0.158897	-0.591790	-0.622865
C466	C	0.091103	-0.341790	-0.372865
C467	C	0.341103	-0.091790	-0.122865
C468	C	0.591103	0.158210	0.127135
C469	C	-0.187633	-0.620496	-0.599410
C470	C	0.062367	-0.370496	-0.349410
C471	C	0.312367	-0.120496	-0.099410
C472	C	0.562367	0.129504	0.150590
C473	C	-0.216362	-0.649203	-0.622871
C474	C	0.033638	-0.399203	-0.372871
C475	C	0.283638	-0.149203	-0.122871
C476	C	0.533638	0.100797	0.127129
C477	C	-0.273828	-0.706617	-0.669789
C478	C	-0.023828	-0.456617	-0.419789
C479	C	0.226172	-0.206617	-0.169789
C480	C	0.476172	0.043383	0.080211
C481	C	-0.273834	-0.706610	-0.622868
C482	C	-0.023834	-0.456610	-0.372868
C483	C	0.226166	-0.206610	-0.122868
C484	C	0.476166	0.043390	0.127132
C485	C	-0.245103	-0.677901	-0.599408
C486	C	0.004897	-0.427901	-0.349408
C487	C	0.254897	-0.177901	-0.099408
C488	C	0.504897	0.072099	0.150592
C489	C	-0.245104	-0.677907	-0.552500
C490	C	0.004896	-0.427907	-0.302500
C491	C	0.254896	-0.177907	-0.052500
C492	C	0.504896	0.072093	0.197500
N493	N	-0.216377	-0.649197	-0.529037
N494	N	0.033623	-0.399197	-0.279037
N495	N	0.283623	-0.149197	-0.029037
N496	N	0.533623	0.100803	0.220963
C497	C	-0.187642	-0.620491	-0.552492
C498	C	0.062358	-0.370491	-0.302492
C499	C	0.312358	-0.120491	-0.052492
C500	C	0.562358	0.129509	0.197508
C501	C	-0.245034	-0.677935	-0.979449
C502	C	0.004966	-0.427935	-0.729449
C503	C	0.254966	-0.177935	-0.479449
C504	C	0.504966	0.072065	-0.229449
C505	C	-0.245025	-0.677939	-1.026367
C506	C	0.004975	-0.427939	-0.776367
C507	C	0.254975	-0.177939	-0.526367
C508	C	0.504975	0.072061	-0.276367
C509	C	-0.187561	-0.620521	-1.026360
C510	C	0.062439	-0.370521	-0.776360
C511	C	0.312439	-0.120521	-0.526360
C512	C	0.562439	0.129479	-0.276360
C513	C	-0.187567	-0.620519	-0.979441
C514	C	0.062433	-0.370519	-0.729441
C515	C	0.312433	-0.120519	-0.479441
C516	C	0.562433	0.129481	-0.229441
C517	C	-0.216307	-0.649224	-0.955987
C518	C	0.033693	-0.399224	-0.705987
C519	C	0.283693	-0.149224	-0.455987
C520	C	0.533693	0.100776	-0.205987
C521	C	-0.187657	-0.620491	-0.453966
C522	C	0.062343	-0.370491	-0.203966
C523	C	0.312343	-0.120491	0.046034
C524	C	0.562343	0.129509	0.296034
C525	C	-0.187664	-0.620494	-0.407047
C526	C	0.062336	-0.370494	-0.157047
C527	C	0.312336	-0.120494	0.092953
C528	C	0.562336	0.129506	0.342953
C529	C	-0.245131	-0.677910	-0.407059
C530	C	0.004869	-0.427910	-0.157059
C531	C	0.254869	-0.177910	0.092941
C532	C	0.504869	0.072090	0.342941
C533	C	-0.245122	-0.677909	-0.453974
C534	C	0.004878	-0.427909	-0.203974
C535	C	0.254878	-0.177909	0.046026
C536	C	0.504878	0.072091	0.296026
C537	C	-0.216383	-0.649196	-0.477427
C538	C	0.033617	-0.399196	-0.227427
C539	C	0.283617	-0.149196	0.022573
C540	C	0.533617	0.100804	0.272573
O541	O	-0.269519	-0.702316	-0.528201
O542	O	-0.019519	-0.452316	-0.278201
O543	O	0.230481	-0.202316	-0.028201
O544	O	0.480481	0.047684	0.221799
O545	O	-0.163216	-0.596071	-0.528221
O546	O	0.086784	-0.346071	-0.278221
O547	O	0.336784	-0.096071	-0.028221
O548	O	0.586784	0.153929	0.221779
C549	C	-0.187614	-0.620499	-0.740157
C550	C	0.062386	-0.370499	-0.490157
C551	C	0.312386	-0.120499	-0.240157
C552	C	0.562386	0.129501	0.009843
C553	C	-0.216343	-0.649206	-0.763617
C554	C	0.033657	-0.399206	-0.513617
C555	C	0.283657	-0.149206	-0.263617
C556	C	0.533657	0.100794	-0.013617
C557	C	-0.245078	-0.677912	-0.740162
C558	C	0.004922	-0.427912	-0.490162
C559	C	0.254922	-0.177912	-0.240162
C560	C	0.504922	0.072088	0.009838
C561	C	-0.216334	-0.649211	-0.810535
C562	C	0.033666	-0.399211	-0.560535
C563	C	0.283666	-0.149211	-0.310535
C564	C	0.533666	0.100789	-0.060535
C565	C	-0.187599	-0.620505	-0.833990
C566	C	0.062401	-0.370505	-0.583990
C567	C	0.312401	-0.120505	-0.333990
C568	C	0.562401	0.129495	-0.083990
C569	C	-0.158872	-0.591795	-0.810527
C570	C	0.091128	-0.341795	-0.560527
C571	C	0.341128	-0.091795	-0.310527
C572	C	0.591128	0.158205	-0.060527
C573	C	-0.158878	-0.591793	-0.763612
C574	C	0.091122	-0.341793	-0.513612
C575	C	0.341122	-0.091793	-0.263612
C576	C	0.591122	0.158207	-0.013612
C577	C	-0.273805	-0.706622	-0.763625
C578	C	-0.023805	-0.456622	-0.513625
C579	C	0.226195	-0.206622	-0.263625
C580	C	0.476195	0.043378	-0.013625
C581	C	-0.273796	-0.706621	-0.810540
C582	C	-0.023796	-0.456621	-0.560540
C583	C	0.226204	-0.206621	-0.310540
C584	C	0.476204	0.043379	-0.060540
C585	C	-0.245060	-0.677915	-0.833995
C586	C	0.004940	-0.427915	-0.583995
C587	C	0.254940	-0.177915	-0.333995
C588	C	0.504940	0.072085	-0.083995
C589	C	-0.216409	-0.649158	-0.099756
C590	C	0.033591	-0.399158	0.150244
C591	C	0.283591	-0.149158	0.400244
C592	C	0.533591	0.100842	0.650244
C593	C	-0.216290	-0.649233	-0.049822
C594	C	0.033710	-0.399233	0.200178
C595	C	0.283710	-0.149233	0.450178
C596	C	0.533710	0.100767	0.700178
H597	H	-0.135672	-0.036554	-0.297486
H598	H	0.114328	0.213446	-0.047486
H599	H	0.364328	0.463446	0.202514
H600	H	0.614328	0.713446	0.452514
H601	H	-0.164364	0.094188	-0.268722
H602	H	0.085636	0.344188	-0.018722
H603	H	0.335636	0.594188	0.231278
H604	H	0.585636	0.844188	0.481278
H605	H	-0.268525	-0.701283	-0.387953
H606	H	-0.018525	-0.451283	-0.137953
H607	H	0.231475	-0.201283	0.112047
H608	H	0.481475	0.048717	0.362047
H609	H	-0.135473	-0.568423	-0.829632
H610	H	0.114527	-0.318423	-0.579632
H611	H	0.364527	-0.068423	-0.329632
H612	H	0.614527	0.181577	-0.079632
Cl613	Cl	-0.839470	-0.742871	-0.123024
Cl614	Cl	-0.589470	-0.492871	0.126976
Cl615	Cl	-0.339470	-0.242871	0.376976
Cl616	Cl	-0.089470	0.007129	0.626976
Cl617	Cl	-0.733573	-0.742843	-0.123008
Cl618	Cl	-0.483573	-0.492843	0.126992
Cl619	Cl	-0.233573	-0.242843	0.376992
Cl620	Cl	0.016427	0.007157	0.626992
H621	H	-0.268477	0.179429	-0.164284
H622	H	-0.018477	0.429429	0.085716
H623	H	0.231523	0.679429	0.335716
H624	H	0.481523	0.929429	0.585716
H625	H	-0.268472	0.094322	-0.164270
H626	H	-0.018472	0.344322	0.085730
H627	H	0.231528	0.594322	0.335730
H628	H	0.481528	0.844322	0.585730
Cl629	Cl	-0.281197	-0.382553	-0.151507
Cl630	Cl	-0.031197	-0.132553	0.098493
Cl631	Cl	0.218803	0.117447	0.348493
Cl632	Cl	0.468803	0.367447	0.598493
H633	H	-0.744057	-0.568307	-0.297278
H634	H	-0.494057	-0.318307	-0.047278
H635	H	-0.244057	-0.068307	0.202722
H636	H	0.005943	0.181693	0.452722
Cl637	Cl	-0.309858	-0.025961	-0.122727
Cl638	Cl	-0.059858	0.224039	0.127273
Cl639	Cl	0.190142	0.474039	0.377273
Cl640	Cl	0.440142	0.724039	0.627273
Cl641	Cl	-0.151656	-0.382726	-0.281439
Cl642	Cl	0.098344	-0.132726	-0.031439
Cl643	Cl	0.348344	0.117274	0.218561
Cl644	Cl	0.598344	0.367274	0.468561
Cl645	Cl	-0.281185	-0.488457	-0.151493
Cl646	Cl	-0.031185	-0.238457	0.098507
Cl647	Cl	0.218815	0.011543	0.348507
Cl648	Cl	0.468815	0.261543	0.598507
Cl649	Cl	-0.151447	-0.584426	-0.949953
Cl650	Cl	0.098553	-0.334426	-0.699953
Cl651	Cl	0.348553	-0.084426	-0.449953
Cl652	Cl	0.598553	0.165574	-0.199953
Cl653	Cl	-0.377017	-0.713972	-0.151670
Cl654	Cl	-0.127017	-0.463972	0.098330
Cl655	Cl	0.122983	-0.213972	0.348330
Cl656	Cl	0.372983	0.036028	0.598330
Cl657	Cl	-0.151437	-0.584433	-1.055854
Cl658	Cl	0.098563	-0.334433	-0.805854
Cl659	Cl	0.348563	-0.084433	-0.555854
Cl660	Cl	0.598563	0.165567	-0.305854
H661	H	-0.164265	-0.597116	-0.387948
H662	H	0.085735	-0.347116	-0.137948
H663	H	0.335735	-0.097116	0.112052
H664	H	0.585735	0.152884	0.362052
Cl665	Cl	-0.151658	0.189686	-0.281470
Cl666	Cl	0.098342	0.439686	-0.031470
Cl667	Cl	0.348342	0.689686	0.218530
Cl668	Cl	0.598342	0.939686	0.468530
H669	H	-0.829164	-0.568332	-0.297287
H670	H	-0.579164	-0.318332	-0.047287
H671	H	-0.329164	-0.068332	0.202713
H672	H	-0.079164	0.181668	0.452713
H673	H	-0.135675	-0.262419	-0.297481
H674	H	0.114325	-0.012419	-0.047481
H675	H	0.364325	0.237581	0.202519
H676	H	0.614325	0.487581	0.452519
Cl677	Cl	-0.592826	-0.742800	-0.122995
Cl678	Cl	-0.342826	-0.492800	0.127005
Cl679	Cl	-0.092826	-0.242800	0.377005
Cl680	Cl	0.157174	0.007200	0.627005
H681	H	-0.959808	-0.701424	-0.164437
H682	H	-0.709808	-0.451424	0.085563
H683	H	-0.459808	-0.201424	0.335563
H684	H	-0.209808	0.048576	0.585563
Cl685	Cl	-0.151525	-0.584398	-0.483443
Cl686	Cl	0.098475	-0.334398	-0.233443
Cl687	Cl	0.348475	-0.084398	0.016557
Cl688	Cl	0.598475	0.165602	0.266557
Cl689	Cl	-0.122963	-0.132076	-0.310235
Cl690	Cl	0.127037	0.117924	-0.060235
Cl691	Cl	0.377037	0.367924	0.189765
Cl692	Cl	0.627037	0.617924	0.439765
H693	H	-1.044978	-0.597133	-0.268598
H694	H	-0.794978	-0.347133	-0.018598
H695	H	-0.544978	-0.097133	0.231402
H696	H	-0.294978	0.152867	0.481402
Cl697	Cl	-1.055314	-0.714184	-0.151739
Cl698	Cl	-0.805314	-0.464184	0.098261
Cl699	Cl	-0.555314	-0.214184	0.348261
Cl700	Cl	-0.305314	0.035816	0.598261
H701	H	-0.603300	-0.568269	-0.297275
H702	H	-0.353300	-0.318269	-0.047275
H703	H	-0.103300	-0.068269	0.202725
H704	H	0.146700	0.181731	0.452725
H705	H	-0.135503	-0.568410	-0.603768
H706	H	0.114497	-0.318410	-0.353768
H707	H	0.364497	-0.068410	-0.103768
H708	H	0.614497	0.181590	0.146232
H709	H	-0.387467	-0.596931	-0.268535
H710	H	-0.137467	-0.346931	-0.018535
H711	H	0.112533	-0.096931	0.231465
H712	H	0.362533	0.153069	0.481465
Cl713	Cl	-0.482987	-0.584222	-0.281254
Cl714	Cl	-0.232987	-0.334222	-0.031254
Cl715	Cl	0.017013	-0.084222	0.218746
Cl716	Cl	0.267013	0.165778	0.468746
Cl717	Cl	-0.309858	-0.131843	-0.122721
Cl718	Cl	-0.059858	0.118157	0.127279
Cl719	Cl	0.190142	0.368157	0.377279
Cl720	Cl	0.440142	0.618157	0.627279
H721	H	-0.135671	-0.177314	-0.297483
H722	H	0.114329	0.072686	-0.047483
H723	H	0.364329	0.322686	0.202517
H724	H	0.614329	0.572686	0.452517
Cl725	Cl	-0.482903	-0.714015	-0.151682
Cl726	Cl	-0.232903	-0.464015	0.098318
Cl727	Cl	0.017097	-0.214015	0.348318
Cl728	Cl	0.267097	0.035985	0.598318
Cl729	Cl	-0.309968	-0.742698	-0.593385
Cl730	Cl	-0.059968	-0.492698	-0.343385
Cl731	Cl	0.190032	-0.242698	-0.093385
Cl732	Cl	0.440032	0.007302	0.156615
H733	H	-0.959869	-0.597112	-0.268596
H734	H	-0.709869	-0.347112	-0.018596
H735	H	-0.459869	-0.097112	0.231404
H736	H	-0.209869	0.152888	0.481404
H737	H	-0.688326	-0.730094	-0.135716
H738	H	-0.438326	-0.480094	0.114284
H739	H	-0.188326	-0.230094	0.364284
H740	H	0.061674	0.019906	0.614284
Cl741	Cl	-0.309853	-0.166718	-0.122703
Cl742	Cl	-0.059853	0.083282	0.127297
Cl743	Cl	0.190147	0.333282	0.377297
Cl744	Cl	0.440147	0.583282	0.627297
Cl745	Cl	-0.281166	-0.714027	-0.949971
Cl746	Cl	-0.031166	-0.464027	-0.699971
Cl747	Cl	0.218834	-0.214027	-0.449971
Cl748	Cl	0.468834	0.035973	-0.199971
Cl749	Cl	-0.309919	-0.742717	-0.840027
Cl750	Cl	-0.059919	-0.492717	-0.590027
Cl751	Cl	0.190081	-0.242717	-0.340027
Cl752	Cl	0.440081	0.007283	-0.090027
H753	H	-0.135491	-0.568413	-0.688873
H754	H	0.114509	-0.318413	-0.438873
H755	H	0.364509	-0.068413	-0.188873
H756	H	0.614509	0.181587	0.061127
Cl757	Cl	-0.698802	-0.555565	-0.310003
Cl758	Cl	-0.448802	-0.305565	-0.060003
Cl759	Cl	-0.198802	-0.055565	0.189997
Cl760	Cl	0.051198	0.194435	0.439997
H761	H	-0.268417	-0.701322	-1.045465
H762	H	-0.018417	-0.451322	-0.795465
H763	H	0.231583	-0.201322	-0.545465
H764	H	0.481583	0.048678	-0.295465
H765	H	-0.297225	-0.729994	-0.688882
H766	H	-0.047225	-0.479994	-0.438882
H767	H	0.202775	-0.229994	-0.188882
H768	H	0.452775	0.020006	0.061118
Cl769	Cl	-0.281234	-0.714008	-0.483468
Cl770	Cl	-0.031234	-0.464008	-0.233468
Cl771	Cl	0.218766	-0.214008	0.016532
Cl772	Cl	0.468766	0.035992	0.266532
H773	H	-0.297207	-0.729996	-0.744532
H774	H	-0.047207	-0.479996	-0.494532
H775	H	0.202793	-0.229996	-0.244532
H776	H	0.452793	0.020004	0.005468
Cl777	Cl	-0.122757	-0.555700	-0.734126
Cl778	Cl	0.127243	-0.305700	-0.484126
Cl779	Cl	0.377243	-0.055700	-0.234126
Cl780	Cl	0.627243	0.194300	0.015874
Cl781	Cl	-0.151669	-0.488612	-0.281437
Cl782	Cl	0.098331	-0.238612	-0.031437
Cl783	Cl	0.348331	0.011388	0.218563
Cl784	Cl	0.598331	0.261388	0.468563
Cl785	Cl	-0.309858	-0.272603	-0.122707
Cl786	Cl	-0.059858	-0.022603	0.127293
Cl787	Cl	0.190142	0.227397	0.377293
Cl788	Cl	0.440142	0.477397	0.627293
