data_functionalizedCrystal
_audit_creation_method	'MofGen! by Chris Wilmer'
_symmetry_space_group_name_H-M	'P1'
_symmetry_Int_Tables_number	1
_symmetry_cell_setting	triclinic
loop_
_symmetry_equiv_pos_as_xyz
  x,y,z
_cell_length_a	19.288864
_cell_length_b	10.489741
_cell_length_c	18.366186
_cell_angle_alpha	89.994090
_cell_angle_beta	89.977106
_cell_angle_gamma	83.837710
loop_
_atom_site_label
_atom_site_type_symbol
_atom_site_fract_x
_atom_site_fract_y
_atom_site_fract_z
O1	O	0.922420	0.159110	-0.060783
O2	O	1.422420	0.659110	0.439217
O3	O	0.720303	0.180573	-0.060733
O4	O	1.220303	0.680573	0.439267
O5	O	0.825960	-0.015860	-0.060755
O6	O	1.325960	0.484140	0.439245
O7	O	0.816762	0.355543	-0.060761
O8	O	1.316762	0.855543	0.439239
O9	O	0.825942	-0.015870	0.060344
O10	O	1.325942	0.484130	0.560344
O11	O	0.720285	0.180564	0.060366
O12	O	1.220285	0.680564	0.560366
O13	O	0.922402	0.159100	0.060316
O14	O	1.422402	0.659100	0.560316
Zn15	Zn	0.821340	0.169830	0.079568
Zn16	Zn	1.321340	0.669830	0.579568
Zn17	Zn	0.821364	0.169843	-0.079985
Zn18	Zn	1.321364	0.669843	0.420015
O19	O	0.816744	0.355534	0.060338
O20	O	1.316744	0.855534	0.560338
C21	C	0.694413	0.179878	-0.000177
C22	C	1.194413	0.679878	0.499823
C23	C	0.617295	0.177805	-0.000158
C24	C	1.117295	0.677805	0.499842
C25	C	0.573372	0.293063	-0.000171
C26	C	1.073372	0.793063	0.499829
C27	C	0.500912	0.291115	-0.000179
C28	C	1.000912	0.791115	0.499821
C29	C	0.472378	0.173903	-0.000189
C30	C	0.972378	0.673903	0.499811
C31	C	0.516311	0.058629	-0.000171
C32	C	1.016311	0.558629	0.499829
C33	C	0.588770	0.060580	-0.000156
C34	C	1.088770	0.560580	0.499844
C35	C	0.363505	0.081764	-0.042638
C36	C	0.863505	0.581764	0.457362
C37	C	0.291047	0.079818	-0.042658
C38	C	0.791047	0.579818	0.457342
C39	C	0.248892	0.167880	-0.000233
C40	C	0.748892	0.667880	0.499767
C41	C	0.279202	0.257911	0.042203
C42	C	0.779202	0.757911	0.542203
C43	C	0.351661	0.259862	0.042218
C44	C	0.851661	0.759862	0.542218
C45	C	0.393810	0.171774	-0.000205
C46	C	0.893810	0.671774	0.499795
C47	C	0.126399	0.281035	-0.000254
C48	C	0.626399	0.781035	0.499746
C49	C	0.053938	0.279082	-0.000257
C50	C	0.553938	0.779082	0.499743
C51	C	0.069339	0.046593	-0.000256
C52	C	0.569339	0.546593	0.499744
C53	C	0.141798	0.048549	-0.000245
C54	C	0.641798	0.548549	0.499755
C55	C	0.170324	0.165773	-0.000248
C56	C	0.670324	0.665773	0.499752
C57	C	0.825257	-0.063381	-0.000205
C58	C	1.325257	0.436619	0.499795
C59	C	0.823178	-0.204964	-0.000206
C60	C	1.323178	0.295036	0.499794
C61	C	0.755951	-0.271583	-0.000195
C62	C	1.255951	0.228417	0.499805
C63	C	0.787700	-0.364429	0.059505
C64	C	1.287700	0.135571	0.559505
C65	C	0.787734	-0.364394	-0.059889
C66	C	1.287734	0.135606	0.440111
C67	C	0.854954	-0.295944	0.059543
C68	C	1.354954	0.204056	0.559543
C69	C	0.854979	-0.295900	-0.059905
C70	C	1.354979	0.204100	0.440095
C71	C	0.886776	-0.388719	-0.000190
C72	C	1.386776	0.111281	0.499810
C73	C	0.948292	0.159796	-0.000241
C74	C	1.448292	0.659796	0.499759
C75	C	1.025409	0.161869	-0.000265
C76	C	1.525409	0.661869	0.499735
C77	C	0.817448	0.403055	-0.000213
C78	C	1.317448	0.903055	0.499787
C79	C	0.819526	0.544637	-0.000217
C80	C	1.319526	1.044637	0.499783
N81	N	0.821329	0.169821	0.188460
N82	N	1.321329	0.669821	0.688460
N83	N	0.821381	0.169842	-0.188876
N84	N	1.321381	0.669842	0.311124
C85	C	0.868130	0.082883	0.226550
C86	C	1.368130	0.582883	0.726550
C87	C	0.868134	0.082877	0.302778
C88	C	1.368134	0.582877	0.802778
C89	C	0.821344	0.169831	0.340912
C90	C	1.321344	0.669831	0.840912
C91	C	0.774535	0.256776	0.302812
C92	C	1.274535	0.756776	0.802812
C93	C	0.774527	0.256771	0.226586
C94	C	1.274527	0.756771	0.726586
C95	C	0.812826	0.286045	0.461672
C96	C	1.312826	0.786045	0.961672
C97	C	0.812838	0.286052	0.537897
C98	C	1.312838	0.786052	1.037897
C99	C	0.821364	0.169847	0.576020
C100	C	1.321364	0.669847	1.076020
C101	C	0.829893	0.053631	0.537908
C102	C	1.329893	0.553631	1.037908
C103	C	0.829885	0.053626	0.461682
C104	C	1.329885	0.553626	0.961682
C105	C	0.821347	0.169846	0.423567
C106	C	1.321347	0.669846	0.923567
C107	C	0.868172	0.082896	0.696766
C108	C	1.368172	0.582896	1.196766
C109	C	0.868172	0.082888	0.772995
C110	C	1.368172	0.582888	1.272995
C111	C	0.774576	0.256799	0.773027
C112	C	1.274576	0.756799	1.273027
C113	C	0.774573	0.256795	0.696800
C114	C	1.274573	0.756795	1.196800
C115	C	0.821375	0.169845	0.658673
C116	C	1.321375	0.669845	1.158673
H117	H	0.018175	0.372944	-0.000264
H118	H	0.518175	0.872944	0.499736
H119	H	0.700678	-0.220682	-0.000121
H120	H	1.200678	0.279318	0.499879
H121	H	0.759247	-0.394801	0.109991
H122	H	1.259247	0.105199	0.609991
H123	H	0.759288	-0.394711	-0.110366
H124	H	1.259288	0.105289	0.389634
H125	H	0.046108	-0.048844	-0.000309
H126	H	0.546108	0.451156	0.499691
H127	H	0.177562	-0.045307	-0.000238
H128	H	0.677562	0.454693	0.499762
H129	H	0.736476	0.327594	0.804076
H130	H	1.236476	0.827594	1.304076
H131	H	0.266374	0.006515	-0.077214
H132	H	0.766374	0.506515	0.422786
H133	H	0.883367	-0.265759	0.110072
H134	H	1.383367	0.234241	0.610072
H135	H	0.736415	0.327568	0.195572
H136	H	1.236415	0.827568	0.695572
H137	H	0.942099	-0.439394	-0.000170
H138	H	1.442099	0.060606	0.499830
H139	H	0.149625	0.376486	-0.000245
H140	H	0.649625	0.876486	0.499755
H141	H	0.493075	-0.036806	-0.000189
H142	H	0.993075	0.463194	0.499811
H143	H	0.906237	0.012080	0.195510
H144	H	1.406237	0.512080	0.695510
H145	H	0.596592	0.388516	-0.000175
H146	H	1.096592	0.888516	0.499825
H147	H	0.883407	-0.265494	-0.110393
H148	H	1.383407	0.234506	0.389607
H149	H	0.397822	0.010050	-0.077190
H150	H	0.897822	0.510050	0.422810
H151	H	0.906281	0.012086	0.804009
H152	H	1.406281	0.512086	1.304009
H153	H	0.805898	0.380681	0.568921
H154	H	1.305898	0.880681	1.068921
H155	H	0.465143	0.384976	-0.000188
H156	H	0.965143	0.884976	0.499812
H157	H	0.624533	-0.033280	-0.000145
H158	H	1.124533	0.466720	0.499855
H159	H	0.244881	0.329619	0.076750
H160	H	0.744881	0.829619	0.576750
H161	H	0.836827	-0.041001	0.430655
H162	H	1.336827	0.458999	0.930655
H163	H	0.376337	0.333164	0.076773
H164	H	0.876337	0.833164	0.576773
H165	H	0.906246	0.012079	0.333797
H166	H	1.406246	0.512079	0.833797
H167	H	0.836835	-0.040993	0.568946
H168	H	1.336835	0.459007	1.068946
H169	H	0.906279	0.012092	0.665722
H170	H	1.406279	0.512092	1.165722
H171	H	0.736466	0.327594	0.665784
H172	H	1.236466	0.827594	1.165784
H173	H	0.805871	0.380678	0.430639
H174	H	1.305871	0.880678	0.930639
H175	H	0.736437	0.327574	0.333865
H176	H	1.236437	0.827574	0.833865
