data_functionalizedCrystal
_audit_creation_method	'MofGen! by Chris Wilmer'
_symmetry_space_group_name_H-M	'P1'
_symmetry_Int_Tables_number	1
_symmetry_cell_setting	triclinic
loop_
_symmetry_equiv_pos_as_xyz
  x,y,z
_cell_length_a	18.050591
_cell_length_b	18.050589
_cell_length_c	14.908308
_cell_angle_alpha	93.269302
_cell_angle_beta	93.282435
_cell_angle_gamma	90.027061
loop_
_atom_site_label
_atom_site_type_symbol
_atom_site_fract_x
_atom_site_fract_y
_atom_site_fract_z
Zn1	Zn	1.111085	-0.319897	-0.510010
Zn2	Zn	1.118156	-0.436932	-0.359162
Zn3	Zn	0.994064	-0.312759	-0.359179
Zn4	Zn	0.986854	-0.444046	-0.509983
O5	O	1.052540	-0.378408	-0.434583
O6	O	1.215948	-0.335432	-0.490004
O7	O	1.107671	-0.414496	-0.232922
O8	O	1.009645	-0.209782	-0.379206
O9	O	1.221142	-0.421417	-0.379177
O10	O	1.095620	-0.215026	-0.490021
O11	O	1.016501	-0.323266	-0.232935
O12	O	0.889183	-0.330164	-0.379179
O13	O	0.997357	-0.433541	-0.636229
O14	O	0.883886	-0.426620	-0.489974
O15	O	1.088629	-0.342330	-0.636249
O16	O	1.100680	-0.541799	-0.379150
O17	O	1.004213	-0.547026	-0.489957
C18	C	0.859588	-0.378390	-0.434576
C19	C	0.777041	-0.378401	-0.434594
C20	C	1.052451	-0.571360	-0.434568
C21	C	1.052479	-0.653907	-0.434592
C22	C	0.525360	-0.430952	-0.494762
C23	C	0.578639	-0.445121	-0.412421
C24	C	0.479921	-0.378424	-0.434593
C25	C	0.573724	-0.364278	-0.516930
C26	C	0.625906	-0.378415	-0.434598
C27	C	0.532114	-0.392626	-0.352208
C28	C	0.527193	-0.311754	-0.456772
C29	C	0.580451	-0.325895	-0.374374
C30	C	0.395823	-0.378431	-0.434591
C31	C	0.710003	-0.378407	-0.434590
C32	C	1.000070	-0.856225	-0.494828
C33	C	0.985879	-0.901758	-0.412510
C34	C	1.052551	-0.805037	-0.434604
C35	C	1.066778	-0.906587	-0.516932
C36	C	1.052620	-0.951023	-0.434623
C37	C	1.038327	-0.849481	-0.352242
C38	C	1.119255	-0.854308	-0.456720
C39	C	1.105093	-0.899816	-0.374344
C40	C	1.052510	-0.720939	-0.434594
C41	C	1.052661	-1.035120	-0.434623
C42	C	1.246245	-0.378427	-0.434591
C43	C	1.328790	-0.378435	-0.434595
C44	C	1.041400	-0.389525	-0.669887
C45	C	1.036653	-0.394263	-0.770159
C46	C	1.052648	-0.184704	-0.434618
C47	C	1.052694	-0.102159	-0.434633
C48	C	1.122773	-0.308169	-0.958605
C49	C	1.118315	-0.312617	-1.052819
C50	C	1.023276	-0.407604	-1.052806
C51	C	1.027734	-0.403156	-0.958591
C52	C	1.077485	-0.353437	-0.911494
C53	C	1.081946	-0.348993	-0.817277
C54	C	0.986904	-0.443975	-0.817265
C55	C	0.982446	-0.448424	-0.911480
C56	C	1.063678	-0.367281	-0.200195
C57	C	1.068569	-0.362334	-0.099923
H58	H	0.501268	-0.475407	-0.545580
O59	O	1.171019	-0.259775	-0.912888
C60	C	1.153756	-0.186843	-0.935934
H61	H	1.093205	-0.184307	-0.961836
H62	H	1.190998	-0.170016	-0.990623
C63	C	1.240757	-0.136446	-0.820432
C64	C	1.166385	-0.133330	-0.852238
H65	H	1.248550	-0.103436	-0.768805
H66	H	1.252390	-0.185581	-0.804907
H67	H	1.271783	-0.122425	-0.866013
H68	H	1.135361	-0.147360	-0.806661
H69	H	1.154747	-0.084196	-0.867753
H70	H	0.513799	-0.404656	-0.282559
H71	H	0.950029	-0.480838	-0.778897
H72	H	0.604412	-0.281466	-0.323434
H73	H	0.592131	-0.352317	-0.586559
O74	O	0.946962	-0.833298	-0.555399
C75	C	0.876762	-0.857443	-0.531760
H76	H	0.878961	-0.867778	-0.456931
H77	H	0.860906	-0.911054	-0.572476
C78	C	0.815830	-0.784741	-0.643926
C79	C	0.818528	-0.797429	-0.552018
H80	H	0.779907	-0.747724	-0.656425
H81	H	0.863124	-0.768476	-0.659855
H82	H	0.802619	-0.829422	-0.677845
H83	H	0.831748	-0.752751	-0.518101
H84	H	0.771234	-0.813685	-0.536083
H85	H	1.026256	-0.824615	-0.282606
H86	H	1.155191	-0.275753	-1.091174
H87	H	0.929502	-0.922652	-0.393821
H88	H	0.941939	-0.488902	-0.949839
H89	H	0.504611	-0.255395	-0.475560
O90	O	0.605520	-0.512429	-0.390181
C91	C	0.577332	-0.567659	-0.453767
H92	H	0.560375	-0.541317	-0.519518
H93	H	0.526918	-0.595183	-0.426878
C94	C	0.658375	-0.658749	-0.389976
C95	C	0.637554	-0.626395	-0.470734
H96	H	0.695520	-0.694982	-0.400440
H97	H	0.677363	-0.621540	-0.347134
H98	H	0.616357	-0.681679	-0.367576
H99	H	0.679568	-0.603458	-0.493127
H100	H	0.618573	-0.663602	-0.513581
H101	H	1.149507	-0.918911	-0.323364
H102	H	1.175617	-0.833418	-0.475448
H103	H	1.078784	-0.931542	-0.586548
O104	O	1.130189	-0.300591	-0.771566
C105	C	1.112912	-0.227665	-0.794619
H106	H	1.052358	-0.225141	-0.820517
H107	H	1.150147	-0.210836	-0.849313
C108	C	1.199910	-0.177246	-0.679128
C109	C	1.125536	-0.174145	-0.710929
H110	H	1.207700	-0.144231	-0.627506
H111	H	1.211553	-0.226378	-0.663599
H112	H	1.230931	-0.163223	-0.724714
H113	H	1.094517	-0.188176	-0.665347
H114	H	1.113888	-0.125013	-0.726449
O115	O	0.975005	-0.455868	-1.098704
C116	C	0.980763	-0.450062	-1.191961
H117	H	1.037484	-0.426362	-1.204833
H118	H	0.935476	-0.411759	-1.218688
C119	C	0.901942	-0.556587	-1.224531
C120	C	0.971610	-0.527484	-1.240341
H121	H	0.896293	-0.604343	-1.254376
H122	H	0.898059	-0.560498	-1.161702
H123	H	0.864210	-0.524660	-1.246804
H124	H	1.009340	-0.559406	-1.218059
H125	H	0.975499	-0.523580	-1.303168
