data_functionalizedCrystal
_audit_creation_method	'MofGen! by Chris Wilmer'
_symmetry_space_group_name_H-M	'P1'
_symmetry_Int_Tables_number	1
_symmetry_cell_setting	triclinic
loop_
_symmetry_equiv_pos_as_xyz
  x,y,z
_cell_length_a	10.686220
_cell_length_b	12.759400
_cell_length_c	12.759393
_cell_angle_alpha	89.974455
_cell_angle_beta	94.350786
_cell_angle_gamma	94.384245
loop_
_atom_site_label
_atom_site_type_symbol
_atom_site_fract_x
_atom_site_fract_y
_atom_site_fract_z
Zn1	Zn	1.929181	-0.294829	-0.471022
Zn2	Zn	1.929101	-0.470553	-0.295366
Zn3	Zn	1.718174	-0.308378	-0.308815
Zn4	Zn	1.718199	-0.483959	-0.484455
O5	O	1.823663	-0.389430	-0.389914
O6	O	2.105740	-0.306858	-0.436470
O7	O	1.901077	-0.449101	-0.150132
O8	O	1.746187	-0.159558	-0.330339
O9	O	2.105682	-0.435962	-0.307417
O10	O	1.901213	-0.149604	-0.449511
O11	O	1.746110	-0.329951	-0.160013
O12	O	1.541607	-0.342950	-0.343364
O13	O	1.746230	-0.458810	-0.629691
O14	O	1.541625	-0.471948	-0.472406
O15	O	1.901237	-0.319857	-0.619822
O16	O	1.901101	-0.619354	-0.320442
O17	O	1.746152	-0.629203	-0.459365
C18	C	1.495833	-0.410375	-0.410803
C19	C	1.355586	-0.419360	-0.419764
C20	C	1.823706	-0.115394	-0.389927
C21	C	1.823724	0.001384	-0.389932
C22	C	1.823655	-0.662398	-0.389923
C23	C	1.823767	-0.779167	-0.389954
C24	C	2.152774	-0.368404	-0.368945
C25	C	2.293021	-0.359444	-0.360009
C26	C	1.823745	-0.389317	-0.663942
C27	C	1.823780	-0.389270	-0.780717
C28	C	1.743026	0.051066	-0.327888
C29	C	1.743044	0.160791	-0.327901
C30	C	1.904469	0.171144	-0.452005
C31	C	1.904444	0.061420	-0.451997
C32	C	1.649833	0.045090	-0.256234
C33	C	1.649850	0.154815	-0.256247
C34	C	1.743123	-0.327214	-0.840728
C35	C	1.743161	-0.327180	-0.950450
C36	C	1.904525	-0.451260	-0.940139
C37	C	1.904479	-0.451299	-0.830420
C38	C	1.649965	-0.255574	-0.846681
C39	C	1.650003	-0.255540	-0.956403
C40	C	1.823654	-0.389461	-0.116947
C41	C	1.823864	-0.389197	-0.000158
H42	H	1.301850	-0.477542	-0.477775
C43	C	1.333734	-0.305488	-0.179616
C44	C	1.365548	-0.280911	-0.281689
H45	H	1.378523	-0.257008	-0.131265
H46	H	1.245850	-0.301421	-0.175571
H47	H	1.355275	-0.374700	-0.162783
H48	H	1.343998	-0.211702	-0.298525
H49	H	1.453451	-0.284968	-0.285738
H50	H	1.552222	-0.283613	-0.823138
H51	H	1.970149	0.020973	-0.502525
H52	H	1.970187	0.220036	-0.502538
C53	C	1.728287	-0.077693	-0.877482
C54	C	1.697211	-0.148230	-0.797726
H55	H	1.757450	-0.011424	-0.847256
H56	H	1.792547	-0.103983	-0.915272
H57	H	1.655931	-0.069823	-0.923999
H58	H	1.769570	-0.156107	-0.751214
H59	H	1.632947	-0.121934	-0.759919
C60	C	1.442234	0.105802	-0.334618
C61	C	1.524547	0.192780	-0.303558
H62	H	1.364877	0.129244	-0.363818
H63	H	1.478748	0.066260	-0.385789
H64	H	1.427236	0.062924	-0.275303
H65	H	1.539551	0.235654	-0.362874
H66	H	1.488025	0.232339	-0.252382
C67	C	1.502485	-0.407023	-0.977818
C68	C	1.524691	-0.302870	-1.010329
H69	H	1.425121	-0.436241	-1.011105
H70	H	1.569048	-0.446820	-0.996565
H71	H	1.498205	-0.408638	-0.903736
H72	H	1.528980	-0.301255	-1.084411
H73	H	1.458111	-0.263063	-0.991590
H74	H	1.676185	-0.172484	-0.984522
C75	C	1.728069	0.085800	-0.078387
C76	C	1.697039	0.002113	-0.148881
H77	H	1.757206	0.059264	-0.012112
H78	H	1.792335	0.131806	-0.104705
H79	H	1.655699	0.123075	-0.070523
H80	H	1.769411	-0.035157	-0.156751
H81	H	1.632768	-0.043911	-0.122557
C82	C	2.063981	-0.573942	-0.831254
C83	C	1.993137	-0.519515	-0.764455
H84	H	2.118722	-0.616051	-0.790527
H85	H	2.009013	-0.617623	-0.877547
H86	H	2.112270	-0.525060	-0.870979
H87	H	1.944841	-0.568397	-0.724736
H88	H	2.048113	-0.475830	-0.718144
H89	H	1.552108	0.009084	-0.284249
H90	H	1.970228	-0.501761	-0.980621
H91	H	1.676014	0.186236	-0.173214
