data_functionalizedCrystal
_audit_creation_method	'MofGen! by Chris Wilmer'
_symmetry_space_group_name_H-M	'P1'
_symmetry_Int_Tables_number	1
_symmetry_cell_setting	triclinic
loop_
_symmetry_equiv_pos_as_xyz
  x,y,z
_cell_length_a	15.297327
_cell_length_b	13.032951
_cell_length_c	13.033429
_cell_angle_alpha	90.910449
_cell_angle_beta	91.279548
_cell_angle_gamma	86.260329
loop_
_atom_site_label
_atom_site_type_symbol
_atom_site_fract_x
_atom_site_fract_y
_atom_site_fract_z
Zn1	Zn	-0.419870	-1.405130	-0.853176
Zn2	Zn	-0.584859	-1.390147	-0.709580
Zn3	Zn	-0.424475	-1.253946	-0.660194
Zn4	Zn	-0.548617	-1.204474	-0.853471
O5	O	-0.494455	-1.313424	-0.769105
O6	O	-0.454996	-1.544119	-0.854672
O7	O	-0.580679	-1.386514	-0.562046
O8	O	-0.302862	-1.300976	-0.665003
O9	O	-0.576213	-1.533111	-0.749172
O10	O	-0.299479	-1.412050	-0.806786
O11	O	-0.462846	-1.286447	-0.525763
O12	O	-0.427703	-1.106408	-0.665289
O13	O	-0.514443	-1.216657	-0.994415
O14	O	-0.518909	-1.070061	-0.807288
O15	O	-0.419854	-1.364079	-0.994198
O16	O	-0.701054	-1.338543	-0.749458
O17	O	-0.674427	-1.202129	-0.855175
C18	C	-0.719115	-1.263367	-0.807734
C19	C	-0.815229	-1.242041	-0.824306
C20	C	-0.469873	-1.051680	-0.730962
C21	C	-0.459375	-0.939698	-0.714672
C22	C	-0.462592	-1.286521	-1.031884
C23	C	-0.449014	-1.275056	-1.143864
C24	C	-1.141489	-1.466225	-0.651064
C25	C	-1.051185	-1.486262	-0.635488
C26	C	-0.992192	-1.425209	-0.682691
C27	C	-1.023511	-1.344115	-0.745473
C28	C	-1.113824	-1.324071	-0.761044
C29	C	-0.964527	-1.283054	-0.792671
C30	C	-0.995846	-1.201960	-0.855453
C31	C	-1.086151	-1.181921	-0.871022
C32	C	-1.145144	-1.242974	-0.823818
C33	C	-0.874214	-1.303098	-0.777100
C34	C	-0.846549	-1.160944	-0.887080
C35	C	-0.936853	-1.140907	-0.902656
C36	C	-0.268919	-1.363702	-0.730352
C37	C	-0.172809	-1.385128	-0.713838
C38	C	-0.499917	-0.871807	-0.777591
C39	C	-0.489067	-0.756067	-0.760755
C40	C	-0.519125	-0.576193	-0.807390
C41	C	-0.529615	-0.688177	-0.823683
C42	C	-0.487241	-1.307610	-1.327478
C43	C	-0.501271	-1.319461	-1.211739
C44	C	-0.526138	-1.340295	-0.507347
C45	C	-0.539491	-1.352009	-0.395353
H46	H	-0.918663	-1.441527	-0.670005
H47	H	-1.025688	-1.552287	-0.584371
H48	H	-0.416629	-0.912136	-0.648345
O49	O	-0.375991	-1.213081	-1.180365
H50	H	-0.376430	-1.213494	-1.265541
O51	O	-0.414213	-1.245663	-1.363999
H52	H	-0.442316	-1.180902	-1.411136
H53	H	-0.556390	-1.366254	-1.184171
H54	H	-0.962367	-1.074879	-0.953773
H55	H	-0.446319	-0.728511	-0.694423
H56	H	-0.594607	-1.398798	-1.367780
O57	O	-0.782936	-1.095073	-0.937989
H58	H	-0.792260	-1.100336	-1.022564
O59	O	-0.556531	-0.908309	-0.865459
H60	H	-0.584573	-0.840972	-0.908993
H61	H	-0.572354	-0.715733	-0.890023
O62	O	-1.242547	-1.221349	-0.840610
H63	H	-1.278302	-1.277425	-0.797234
O64	O	-1.205111	-1.532092	-0.600184
H65	H	-1.273167	-1.504540	-0.621575
O66	O	-0.840433	-1.390570	-0.709408
H67	H	-0.865779	-1.377609	-0.630810
O68	O	-1.119937	-1.094452	-0.938728
H69	H	-1.063747	-1.055370	-0.968943
