data_functionalizedCrystal
_audit_creation_method	'MofGen! by Chris Wilmer'
_symmetry_space_group_name_H-M	'P1'
_symmetry_Int_Tables_number	1
_symmetry_cell_setting	triclinic
loop_
_symmetry_equiv_pos_as_xyz
  x,y,z
_cell_length_a	19.288864
_cell_length_b	16.992695
_cell_length_c	17.766277
_cell_angle_alpha	89.993690
_cell_angle_beta	89.976791
_cell_angle_gamma	86.902234
loop_
_atom_site_label
_atom_site_type_symbol
_atom_site_fract_x
_atom_site_fract_y
_atom_site_fract_z
O1	O	0.927053	0.097795	-0.062838
O2	O	1.260386	0.431129	0.270495
O3	O	1.593719	0.764462	0.603829
O4	O	0.725561	0.110988	-0.062787
O5	O	1.058894	0.444321	0.270547
O6	O	1.392228	0.777654	0.603880
O7	O	0.825499	-0.009748	-0.062806
O8	O	1.158832	0.323585	0.270527
O9	O	1.492166	0.656918	0.603861
O10	O	0.827114	0.218531	-0.062819
O11	O	1.160448	0.551865	0.270515
O12	O	1.493781	0.885198	0.603848
O13	O	0.825480	-0.009754	0.062382
O14	O	1.158813	0.323579	0.395716
O15	O	1.492147	0.656912	0.729049
O16	O	0.725542	0.110982	0.062402
O17	O	1.058875	0.444315	0.395735
O18	O	1.392208	0.777648	0.729068
O19	O	0.927034	0.097789	0.062351
O20	O	1.260367	0.431123	0.395684
O21	O	1.593700	0.764456	0.729017
Cu22	Cu	0.826286	0.104385	0.073807
Cu23	Cu	1.159619	0.437718	0.407140
Cu24	Cu	1.492953	0.771052	0.740474
Cu25	Cu	0.826308	0.104392	-0.074243
Cu26	Cu	1.159642	0.437725	0.259090
Cu27	Cu	1.492975	0.771059	0.592424
O28	O	0.827095	0.218525	0.062370
O29	O	1.160429	0.551859	0.395703
O30	O	1.493762	0.885192	0.729037
C31	C	0.699650	0.110560	-0.000186
C32	C	1.032983	0.443893	0.333147
C33	C	1.366317	0.777227	0.666481
C34	C	0.622472	0.109286	-0.000166
C35	C	0.955806	0.442619	0.333167
C36	C	1.289139	0.775953	0.666501
C37	C	0.581905	0.180128	-0.000182
C38	C	0.915238	0.513462	0.333152
C39	C	1.248571	0.846795	0.666485
C40	C	0.509388	0.178931	-0.000190
C41	C	0.842721	0.512265	0.333143
C42	C	1.176055	0.845598	0.666477
C43	C	0.477442	0.106888	-0.000198
C44	C	0.810775	0.440221	0.333136
C45	C	1.144108	0.773554	0.666469
C46	C	0.518018	0.036036	-0.000178
C47	C	0.851352	0.369369	0.333156
C48	C	1.184685	0.702703	0.666489
C49	C	0.590534	0.037235	-0.000162
C50	C	0.923867	0.370568	0.333171
C51	C	1.257200	0.703902	0.666505
C52	C	0.365886	0.050256	-0.044079
C53	C	0.699219	0.383589	0.289254
C54	C	1.032552	0.716922	0.622588
C55	C	0.293371	0.049059	-0.044099
C56	C	0.626705	0.382393	0.289234
C57	C	0.960038	0.715726	0.622567
C58	C	0.253780	0.103186	-0.000243
C59	C	0.587114	0.436519	0.333090
C60	C	0.920447	0.769853	0.666424
C61	C	0.286711	0.158522	0.043624
C62	C	0.620045	0.491856	0.376957
C63	C	0.953378	0.825189	0.710291
C64	C	0.359227	0.159722	0.043640
C65	C	0.692560	0.493055	0.376973
C66	C	1.025893	0.826388	0.710307
C67	C	0.398811	0.105579	-0.000214
C68	C	0.732145	0.438913	0.333119
C69	C	1.065478	0.772246	0.666452
C70	C	0.134581	0.172735	-0.000267
C71	C	0.467915	0.506069	0.333067
C72	C	0.801248	0.839402	0.666400
C73	C	0.062063	0.171535	-0.000270
C74	C	0.395397	0.504869	0.333063
C75	C	0.728730	0.838202	0.666396
C76	C	0.070695	0.028638	-0.000266
C77	C	0.404029	0.361971	0.333068
C78	C	0.737362	0.695305	0.666401
C79	C	0.143212	0.029840	-0.000254
C80	C	0.476545	0.363173	0.333079
C81	C	0.809879	0.696507	0.666412
C82	C	0.175150	0.101891	-0.000259
C83	C	0.508484	0.435224	0.333075
C84	C	0.841817	0.768558	0.666408
C85	C	0.823411	-0.038957	-0.000211
C86	C	1.156745	0.294377	0.333122
C87	C	1.490078	0.627710	0.666455
C88	C	0.817211	-0.125979	-0.000210
C89	C	1.150544	0.207355	0.333123
C90	C	1.483877	0.540688	0.666457
C91	C	0.877039	-0.176431	-0.000224
C92	C	1.210372	0.156903	0.333109
C93	C	1.543705	0.490236	0.666442
C94	C	0.871208	-0.258197	-0.000230
C95	C	1.204542	0.075137	0.333103
C96	C	1.537875	0.408470	0.666437
C97	C	0.805549	-0.289509	-0.000216
C98	C	1.138883	0.043824	0.333117
C99	C	1.472216	0.377157	0.666451
C100	C	0.745717	-0.239051	-0.000204
C101	C	1.079050	0.094282	0.333129
C102	C	1.412383	0.427616	0.666463
C103	C	0.751548	-0.157287	-0.000204
C104	C	1.084881	0.176047	0.333130
C105	C	1.418214	0.509380	0.666463
C106	C	0.781382	-0.533022	-0.000220
C107	C	1.114715	-0.199688	0.333113
C108	C	1.448049	0.133645	0.666446
C109	C	0.775556	-0.614793	-0.000218
C110	C	1.108889	-0.281459	0.333115
C111	C	1.442222	0.051874	0.666448
C112	C	0.901048	-0.633933	-0.000246
C113	C	1.234381	-0.300599	0.333087
C114	C	1.567715	0.032734	0.666421
C115	C	0.906873	-0.552166	-0.000241
C116	C	1.240207	-0.218832	0.333092
C117	C	1.573540	0.114501	0.666426
C118	C	0.847041	-0.501715	-0.000233
C119	C	1.180374	-0.168381	0.333100
C120	C	1.513707	0.164952	0.666434
N121	N	0.799588	-0.373087	-0.000219
N122	N	1.132922	-0.039754	0.333114
N123	N	1.466255	0.293580	0.666447
N124	N	0.853002	-0.418138	-0.000235
N125	N	1.186336	-0.084805	0.333098
N126	N	1.519669	0.248528	0.666432
C127	C	0.952944	0.098217	-0.000252
C128	C	1.286278	0.431550	0.333081
C129	C	1.619611	0.764883	0.666415
C130	C	1.030122	0.099491	-0.000277
C131	C	1.363455	0.432824	0.333057
C132	C	1.696789	0.766158	0.666390
C133	C	0.829183	0.247733	-0.000226
C134	C	1.162516	0.581067	0.333107
C135	C	1.495850	0.914400	0.666440
C136	C	0.835384	0.334756	-0.000233
C137	C	1.168717	0.668089	0.333101
C138	C	1.502051	1.001422	0.666434
N139	N	0.826275	0.104379	0.177937
N140	N	1.159608	0.437713	0.511271
N141	N	1.492942	0.771046	0.844604
N142	N	0.826324	0.104391	-0.178373
N143	N	1.159658	0.437725	0.154960
N144	N	1.492991	0.771058	0.488293
C145	C	0.870544	0.050944	0.217316
C146	C	1.203878	0.384277	0.550649
C147	C	1.537211	0.717610	0.883982
C148	C	0.870548	0.050940	0.296117
C149	C	1.203882	0.384273	0.629451
C150	C	1.537215	0.717607	0.962784
C151	C	0.826290	0.104385	0.335538
C152	C	1.159623	0.437719	0.668871
C153	C	1.492957	0.771052	1.002204
C154	C	0.782012	0.157825	0.296150
C155	C	1.115345	0.491159	0.629483
C156	C	1.448679	0.824492	0.962817
C157	C	0.782005	0.157822	0.217350
C158	C	1.115338	0.491156	0.550683
C159	C	1.448671	0.824489	0.884016
C160	C	0.821154	0.175815	0.460373
C161	C	1.154488	0.509148	0.793707
C162	C	1.487821	0.842481	1.127040
C163	C	0.821167	0.175819	0.539172
C164	C	1.154500	0.509152	0.872506
C165	C	1.487833	0.842485	1.205839
C166	C	0.826309	0.104395	0.578584
C167	C	1.159642	0.437728	0.911917
C168	C	1.492976	0.771062	1.245251
C169	C	0.831454	0.032964	0.539188
C170	C	1.164787	0.366297	0.872521
C171	C	1.498121	0.699631	1.205854
C172	C	0.831446	0.032961	0.460387
C173	C	1.164780	0.366294	0.793721
C174	C	1.498113	0.699627	1.127054
C175	C	0.826293	0.104394	0.420983
C176	C	1.159626	0.437728	0.754317
C177	C	1.492960	0.771061	1.087650
C178	C	0.870585	0.050951	0.703408
C179	C	1.203918	0.384284	1.036742
C180	C	1.537252	0.717617	1.370075
C181	C	0.870584	0.050946	0.782212
C182	C	1.203917	0.384279	1.115545
C183	C	1.537251	0.717613	1.448878
C184	C	0.782051	0.157838	0.782243
C185	C	1.115385	0.491172	1.115576
C186	C	1.448718	0.824505	1.448909
C187	C	0.782049	0.157836	0.703441
C188	C	1.115382	0.491170	1.036774
C189	C	1.448715	0.824503	1.370108
C190	C	0.826319	0.104393	0.664029
C191	C	1.159653	0.437727	0.997362
C192	C	1.492986	0.771060	1.330695
H193	H	0.266564	0.004004	-0.079822
H194	H	0.599898	0.337338	0.253512
H195	H	0.933231	0.670671	0.586845
Br196	Br	0.930663	-0.021581	0.649918
Br197	Br	1.263996	0.311753	0.983251
Br198	Br	1.597330	0.645086	1.316585
H199	H	0.398115	0.006177	-0.079797
H200	H	0.731449	0.339511	0.253537
H201	H	1.064782	0.672844	0.586870
Br202	Br	0.656606	-0.281546	-0.000197
Br203	Br	0.989940	0.051788	0.333136
Br204	Br	1.323273	0.385121	0.666469
Br205	Br	0.995985	-0.509676	-0.000284
Br206	Br	1.329319	-0.176343	0.333049
Br207	Br	1.662652	0.156991	0.666382
Br208	Br	0.474665	-0.061738	-0.000181
Br209	Br	0.807998	0.271595	0.333153
Br210	Br	1.141332	0.604928	0.666486
Br211	Br	0.982245	-0.702405	-0.000257
Br212	Br	1.315578	-0.369072	0.333076
Br213	Br	1.648912	-0.035738	0.666410
Br214	Br	0.930662	-0.021586	0.835658
Br215	Br	1.263995	0.311747	1.168991
Br216	Br	1.597329	0.645080	1.502325
Br217	Br	0.721978	0.230364	0.835735
Br218	Br	1.055312	0.563697	1.169069
Br219	Br	1.388645	0.897031	1.502402
H220	H	0.254478	0.202597	0.079337
H221	H	0.587811	0.535931	0.412670
H222	H	0.921144	0.869264	0.746003
H223	H	0.746003	0.201352	0.671377
H224	H	1.079337	0.534685	1.004710
H225	H	1.412670	0.868019	1.338044
Br226	Br	0.930621	-0.021587	0.163827
Br227	Br	1.263955	0.311747	0.497160
Br228	Br	1.597288	0.645080	0.830493
Br229	Br	0.952408	-0.326665	-0.000250
Br230	Br	1.285741	0.006668	0.333083
Br231	Br	1.619075	0.340002	0.666417
H232	H	0.176243	-0.027848	-0.000246
H233	H	0.509576	0.305486	0.333088
H234	H	0.842910	0.638819	0.666421
H235	H	0.745975	0.201340	0.328250
H236	H	1.079308	0.534674	0.661583
H237	H	1.412642	0.868007	0.994917
H238	H	0.732662	-0.491954	-0.000213
H239	H	1.065995	-0.158620	0.333120
H240	H	1.399328	0.174713	0.666453
H241	H	0.722085	-0.640283	-0.000195
H242	H	1.055419	-0.306950	0.333139
H243	H	1.388752	0.026383	0.666472
Br244	Br	0.838442	-0.063976	0.592665
Br245	Br	1.171775	0.269358	0.925998
Br246	Br	1.505109	0.602691	1.259331
Br247	Br	0.645594	-0.058916	-0.000139
Br248	Br	0.978927	0.274417	0.333194
Br249	Br	1.312261	0.607751	0.666528
Br250	Br	0.930632	-0.021587	0.349569
Br251	Br	1.263966	0.311746	0.682902
Br252	Br	1.597299	0.645079	1.016236
H253	H	0.745954	0.201337	0.185287
H254	H	1.079288	0.534670	0.518620
H255	H	1.412621	0.868003	0.851954
H256	H	0.816982	0.233982	0.571243
H257	H	1.150315	0.567315	0.904576
H258	H	1.483649	0.900649	1.237909
H259	H	0.816955	0.233980	0.428291
H260	H	1.150288	0.567313	0.761624
H261	H	1.483621	0.900647	1.094957
H262	H	0.702829	-0.116209	-0.000192
H263	H	1.036162	0.217125	0.333141
H264	H	1.369496	0.550458	0.666475
Br265	Br	0.966152	-0.133944	-0.000233
Br266	Br	1.299485	0.199390	0.333101
Br267	Br	1.632819	0.532723	0.666434
Br268	Br	0.838422	-0.063976	0.406922
Br269	Br	1.171755	0.269358	0.740256
Br270	Br	1.505088	0.602691	1.073589
H271	H	0.607904	0.238798	-0.000187
H272	H	0.941238	0.572131	0.333147
H273	H	1.274571	0.905464	0.666480
H274	H	0.160587	0.231403	-0.000259
H275	H	0.493920	0.564737	0.333074
H276	H	0.827254	0.898070	0.666408
Br277	Br	0.027348	-0.069138	-0.000263
Br278	Br	0.360681	0.264196	0.333070
Br279	Br	0.694015	0.597529	0.666403
H280	H	0.386036	0.204776	0.079360
H281	H	0.719370	0.538109	0.412694
H282	H	1.052703	0.871442	0.746027
H283	H	0.476351	0.236621	-0.000201
H284	H	0.809685	0.569955	0.333133
H285	H	1.143018	0.903288	0.666466
H286	H	0.029034	0.229226	-0.000279
H287	H	0.362367	0.562559	0.333055
H288	H	0.695700	0.895893	0.666388
