data_functionalizedCrystal
_audit_creation_method	'MofGen! by Chris Wilmer'
_symmetry_space_group_name_H-M	'P1'
_symmetry_Int_Tables_number	1
_symmetry_cell_setting	triclinic
loop_
_symmetry_equiv_pos_as_xyz
  x,y,z
_cell_length_a	17.077404
_cell_length_b	13.897447
_cell_length_c	17.077396
_cell_angle_alpha	89.973905
_cell_angle_beta	89.980499
_cell_angle_gamma	90.019755
loop_
_atom_site_label
_atom_site_type_symbol
_atom_site_fract_x
_atom_site_fract_y
_atom_site_fract_z
Zn1	Zn	1.200073	-0.384009	-0.443856
Zn2	Zn	1.199988	-0.545322	-0.312595
Zn3	Zn	1.068805	-0.384043	-0.312604
Zn4	Zn	1.068780	-0.545264	-0.443819
O5	O	1.134411	-0.464660	-0.378218
O6	O	1.309909	-0.405417	-0.426456
O7	O	1.182561	-0.523966	-0.202749
O8	O	1.086264	-0.249057	-0.330034
O9	O	1.309846	-0.523933	-0.330019
O10	O	1.182706	-0.249032	-0.426464
O11	O	1.086181	-0.405475	-0.202756
O12	O	0.958955	-0.405420	-0.329998
O13	O	1.086222	-0.523835	-0.553671
O14	O	0.958937	-0.523868	-0.426401
O15	O	1.182682	-0.405362	-0.553698
O16	O	1.182537	-0.680296	-0.329983
O17	O	1.086139	-0.680254	-0.426393
C18	C	0.930464	-0.464642	-0.378197
C19	C	0.843214	-0.464658	-0.378206
C20	C	0.802235	-0.526427	-0.428323
C21	C	0.720254	-0.526429	-0.428335
C22	C	0.679254	-0.464666	-0.378227
C23	C	0.720239	-0.402890	-0.328108
C24	C	0.802218	-0.402884	-0.328100
C25	C	0.549369	-0.402909	-0.328127
C26	C	0.467384	-0.402916	-0.328133
C27	C	0.467405	-0.526454	-0.428362
C28	C	0.549384	-0.526448	-0.428354
C29	C	0.590363	-0.464673	-0.378234
C30	C	1.134348	-0.715274	-0.378200
C31	C	1.134392	-0.822488	-0.378219
C32	C	1.134430	-0.909558	-0.378237
C33	C	1.134485	-1.018790	-0.378257
C34	C	1.339156	-0.464678	-0.378241
C35	C	1.426405	-0.464686	-0.378250
C36	C	1.134459	-0.464588	-0.582963
C37	C	1.134479	-0.464558	-0.670213
C38	C	1.134497	-0.213067	-0.378254
C39	C	1.134533	-0.105853	-0.378269
C40	C	1.184708	-0.402864	-0.711218
C41	C	1.184717	-0.402832	-0.793199
C42	C	1.134501	-0.464500	-0.834172
C43	C	1.084267	-0.526197	-0.793161
C44	C	1.084255	-0.526223	-0.711182
C45	C	1.084299	-0.526139	-0.964031
C46	C	1.084313	-0.526114	-1.046016
C47	C	1.184762	-0.402747	-1.046048
C48	C	1.184749	-0.402774	-0.964069
C49	C	1.134516	-0.464472	-0.923063
C50	C	1.134409	-0.464661	-0.174271
C51	C	1.134541	-0.464419	-0.087021
H52	H	0.686850	-0.352597	-0.287312
C53	C	1.029040	-0.594041	-0.838235
C54	C	1.035419	-0.703699	-0.826944
C55	C	0.980199	-0.771551	-0.872020
C56	C	0.918599	-0.729746	-0.928387
C57	C	0.912217	-0.620082	-0.939681
C58	C	0.967438	-0.552230	-0.894605
H59	H	1.081022	-0.734651	-0.785216
H60	H	0.984923	-0.852732	-0.863659
H61	H	0.877721	-0.779974	-0.961754
H62	H	0.866615	-0.589130	-0.981409
H63	H	0.962713	-0.471049	-0.902966
C64	C	1.029006	-0.594090	-0.666069
C65	C	0.939774	-0.586209	-0.677324
C66	C	0.884522	-0.654075	-0.632211
C67	C	0.918503	-0.729821	-0.575843
C68	C	1.007741	-0.737705	-0.564586
C69	C	1.062992	-0.669839	-0.609699
H70	H	0.914615	-0.530135	-0.719053
H71	H	0.818463	-0.648238	-0.640544
H72	H	0.877603	-0.780059	-0.542448
H73	H	1.032900	-0.793779	-0.522857
H74	H	1.129052	-0.675676	-0.601365
H75	H	1.225620	-0.352596	-0.826582
H76	H	0.434004	-0.352612	-0.287340
H77	H	0.582732	-0.352597	-0.287321
H78	H	1.043421	-0.576327	-1.079374
H79	H	1.043381	-0.576365	-0.930647
H80	H	0.835611	-0.576725	-0.469124
H81	H	1.225643	-0.352564	-0.930710
H82	H	0.686893	-0.576729	-0.469144
C83	C	0.594488	-0.594389	-0.483470
C84	C	0.650888	-0.552680	-0.545146
C85	C	0.695993	-0.620620	-0.600264
C86	C	0.684699	-0.730267	-0.593705
C87	C	0.628297	-0.771980	-0.532027
C88	C	0.583192	-0.704041	-0.476909
H89	H	0.659251	-0.471508	-0.550004
H90	H	0.737746	-0.589740	-0.645922
H91	H	0.718088	-0.780559	-0.634506
H92	H	0.619934	-0.853153	-0.527169
H93	H	0.541439	-0.734921	-0.431251
H94	H	0.434036	-0.576751	-0.469174
C95	C	0.847300	-0.334938	-0.272970
C96	C	0.903688	-0.259258	-0.307091
C97	C	0.948769	-0.191307	-0.251963
C98	C	0.937463	-0.199036	-0.162716
C99	C	0.881073	-0.274720	-0.128591
C100	C	0.835991	-0.342671	-0.183718
H101	H	0.912060	-0.253533	-0.373161
H102	H	0.990513	-0.135281	-0.277225
H103	H	0.970835	-0.148735	-0.121907
H104	H	0.872701	-0.280444	-0.062520
H105	H	0.794247	-0.398697	-0.158456
C106	C	1.239947	-0.335027	-0.666151
C107	C	1.233577	-0.225367	-0.677438
C108	C	1.288815	-0.157526	-0.632372
C109	C	1.350423	-0.199344	-0.576020
C110	C	1.356796	-0.309009	-0.564731
C111	C	1.301557	-0.376851	-0.609796
H112	H	1.187969	-0.194406	-0.719155
H113	H	1.284098	-0.076344	-0.640730
H114	H	1.391314	-0.149124	-0.542661
H115	H	1.402404	-0.339971	-0.523014
H116	H	1.306275	-0.458033	-0.601439
C117	C	1.240018	-0.334875	-1.091150
C118	C	1.240034	-0.334836	-1.181324
C119	C	1.295292	-0.266971	-1.226429
C120	C	1.350534	-0.199146	-1.181362
C121	C	1.350520	-0.199182	-1.091183
C122	C	1.295262	-0.267047	-1.046077
H123	H	1.199138	-0.385047	-1.214690
H124	H	1.295301	-0.266945	-1.293186
H125	H	1.391439	-0.148908	-1.214752
H126	H	1.391416	-0.148971	-1.057816
H127	H	1.295253	-0.267073	-0.979320
