data_functionalizedCrystal
_audit_creation_method	'MofGen! by Chris Wilmer'
_symmetry_space_group_name_H-M	'P1'
_symmetry_Int_Tables_number	1
_symmetry_cell_setting	triclinic
loop_
_symmetry_equiv_pos_as_xyz
  x,y,z
_cell_length_a	27.731993
_cell_length_b	27.732048
_cell_length_c	9.130313
_cell_angle_alpha	90.004788
_cell_angle_beta	89.991446
_cell_angle_gamma	82.631525
loop_
_atom_site_label
_atom_site_type_symbol
_atom_site_fract_x
_atom_site_fract_y
_atom_site_fract_z
O1	O	0.640944	0.057388	0.121421
O2	O	0.500147	0.066161	0.121513
O3	O	0.574918	-0.008623	0.121436
O4	O	0.566172	0.132172	0.121497
O5	O	0.574913	-0.008619	-0.122163
O6	O	0.500141	0.066166	-0.122086
O7	O	0.640939	0.057393	-0.122178
Cu8	Cu	0.570540	0.061779	-0.144375
Cu9	Cu	0.570546	0.061774	0.143709
O10	O	0.566167	0.132177	-0.122101
C11	C	0.482137	0.065983	-0.000276
C12	C	0.428480	0.065441	-0.000242
C13	C	0.045323	0.061508	0.132471
C14	C	0.246980	0.063575	0.132512
O15	O	0.273056	0.063821	0.245444
N16	N	0.272198	0.063836	-0.000271
C17	C	0.246998	0.063577	-0.133073
O18	O	0.273075	0.063842	-0.246012
C19	C	0.045342	0.061507	-0.133112
C20	C	0.020127	0.061251	-0.000321
C21	C	0.020107	0.061251	0.265252
C22	C	-0.030304	0.060737	0.265240
C23	C	-0.055500	0.060480	0.132448
C24	C	-0.030285	0.060736	-0.000332
C25	C	0.020144	0.061244	-0.265913
C26	C	-0.030273	0.060725	-0.265911
C27	C	-0.055488	0.060469	-0.133120
C28	C	-0.105893	0.059965	-0.133136
N29	N	-0.131110	0.059704	-0.000353
C30	C	-0.105914	0.059961	0.132439
C31	C	0.352870	0.064665	-0.133043
C32	C	0.403284	0.065184	-0.133034
C33	C	0.403263	0.065181	0.132552
C34	C	0.352848	0.064666	0.132541
C35	C	0.327653	0.064404	-0.000261
C36	C	-0.211782	0.058882	0.132405
C37	C	-0.262199	0.058370	0.132381
C38	C	-0.262173	0.058371	-0.133203
C39	C	-0.211761	0.058885	-0.133181
C40	C	-0.186567	0.059139	-0.000365
O41	O	-0.131999	0.059713	-0.246009
O42	O	-0.131998	0.059686	0.245361
C43	C	0.095735	0.062022	0.132483
C44	C	0.120950	0.062279	-0.000298
C45	C	0.095754	0.062021	-0.133090
C46	C	0.171364	0.062797	-0.000289
C47	C	0.196560	0.063055	0.132503
C48	C	0.171343	0.062794	0.265286
C49	C	0.120931	0.062279	0.265275
C50	C	0.120971	0.062282	-0.265872
C51	C	0.171383	0.062797	-0.265850
C52	C	0.196579	0.063054	-0.133058
C53	C	0.574732	-0.026628	-0.000367
C54	C	0.574179	-0.080282	-0.000379
C55	C	0.614884	-0.419105	-0.000330
C56	C	0.612833	-0.620765	-0.000309
O57	O	0.650055	-0.652028	-0.000269
N58	N	0.568497	-0.639880	-0.000281
C59	C	0.524670	-0.608576	-0.000249
O60	O	0.486912	-0.629462	-0.000211
C61	C	0.526721	-0.406918	-0.000261
C62	C	0.571061	-0.387806	-0.000303
C63	C	0.659220	-0.399993	-0.000371
C64	C	0.659732	-0.349581	-0.000384
C65	C	0.615909	-0.318282	-0.000357
C66	C	0.571573	-0.337394	-0.000316
C67	C	0.482895	-0.375616	-0.000219
C68	C	0.483412	-0.325199	-0.000218
C69	C	0.527751	-0.306087	-0.000260
C70	C	0.528262	-0.255683	-0.000303
N71	N	0.572598	-0.236568	-0.000330
C72	C	0.616422	-0.267867	-0.000357
C73	C	0.523596	-0.714450	-0.000246
C74	C	0.523083	-0.764865	-0.000246
C75	C	0.611246	-0.777049	-0.000303
C76	C	0.611759	-0.726634	-0.000313
C77	C	0.567932	-0.695335	-0.000274
C78	C	0.617494	-0.161998	-0.000387
C79	C	0.618003	-0.111582	-0.000406
C80	C	0.529839	-0.099401	-0.000342
C81	C	0.529331	-0.149814	-0.000330
C82	C	0.573162	-0.181112	-0.000348
O83	O	0.491060	-0.224392	-0.000326
O84	O	0.654174	-0.246972	-0.000364
C85	C	0.614372	-0.469517	-0.000317
C86	C	0.570036	-0.488630	-0.000276
C87	C	0.526213	-0.457331	-0.000249
C88	C	0.569523	-0.539044	-0.000276
C89	C	0.613346	-0.570343	-0.000303
C90	C	0.657683	-0.551228	-0.000331
C91	C	0.658195	-0.500817	-0.000344
C92	C	0.481876	-0.476446	-0.000221
C93	C	0.481368	-0.526858	-0.000210
C94	C	0.525191	-0.558157	-0.000237
C95	C	0.658949	0.057570	-0.000387
C96	C	0.712605	0.058113	-0.000411
C97	C	0.566353	0.150181	-0.000295
C98	C	0.566906	0.203836	-0.000274
N99	N	0.570539	0.061783	-0.346997
C100	C	0.599636	0.090891	-0.423670
C101	C	0.599643	0.090882	-0.577007
C102	C	0.541452	0.032655	-0.576985
C103	C	0.541448	0.032662	-0.423651
C104	C	0.633231	0.124510	-0.423684
C105	C	0.633238	0.124501	-0.577021
N106	N	0.570550	0.061767	0.346332
H107	H	0.040617	0.061459	0.373393
O108	O	0.612292	0.173057	-0.360660
H109	H	0.634213	0.201489	-0.398250
H110	H	0.100462	0.062070	-0.374010
O111	O	0.681798	0.103596	-0.640046
H112	H	0.707538	0.092521	-0.549456
H113	H	0.694908	-0.425472	-0.000388
O114	O	0.476323	-0.680694	-0.000213
H115	H	0.474447	-0.657435	-0.099495
H116	H	0.694301	-0.485261	-0.000378
O117	O	0.430474	0.065468	-0.276264
H118	H	0.469764	0.065876	-0.253965
O119	O	0.683990	0.107937	-0.368576
H120	H	0.683711	0.074694	-0.301049
O121	O	0.198522	0.063071	0.408518
H122	H	0.193397	0.030014	0.472179
H123	H	-0.282697	0.058163	-0.241319
H124	H	0.332321	0.064457	0.240671
O125	O	0.704951	-0.584991	-0.000361
H126	H	0.697141	-0.623256	-0.000336
H127	H	0.517767	0.008946	-0.639415
H128	H	0.620713	0.162818	-0.618639
O129	O	0.433542	-0.547470	-0.000167
H130	H	0.403157	-0.517231	-0.000137
O131	O	0.659581	-0.706021	-0.000332
H132	H	0.689965	-0.736259	-0.000339
O133	O	0.658515	-0.810811	-0.000331
H134	H	0.660388	-0.834065	0.098964
O135	O	0.510067	0.001265	-0.340946
H136	H	0.489837	-0.018981	-0.420013
H137	H	0.446189	-0.450966	-0.000196
H138	H	0.654110	-0.096024	-0.000445
O139	O	0.093734	0.061999	0.408494
H140	H	0.075322	0.028806	0.414817
H141	H	0.040666	0.061451	-0.374046
H142	H	-0.050784	0.060517	-0.374056
O143	O	-0.289395	0.058078	0.275610
H144	H	-0.263400	0.058333	0.367947
O145	O	-0.184610	0.059157	0.275647
H146	H	-0.198847	0.092020	0.339318
H147	H	0.653186	-0.187476	-0.000395
O148	O	-0.057495	0.060434	0.408465
H149	H	-0.031496	0.060687	0.500792
H150	H	0.486977	-0.780421	-0.000237
H151	H	-0.191231	0.059103	-0.241310
H152	H	0.423786	0.065392	0.240676
O153	O	0.198577	0.063085	-0.409084
H154	H	0.172582	0.062818	-0.501416
H155	H	0.332362	0.064451	-0.241192
H156	H	0.695838	-0.334025	-0.000413
O157	O	0.435072	-0.396223	-0.000168
H158	H	0.404690	-0.365982	-0.000131
H159	H	0.493226	-0.165375	-0.000337
O160	O	0.436141	-0.291440	-0.000193
H161	H	0.405227	-0.313203	-0.000178
O162	O	0.482573	-0.065639	-0.000311
H163	H	0.490383	-0.027373	-0.000310
