data_functionalizedCrystal
_audit_creation_method	'MofGen! by Chris Wilmer'
_symmetry_space_group_name_H-M	'P1'
_symmetry_Int_Tables_number	1
_symmetry_cell_setting	triclinic
loop_
_symmetry_equiv_pos_as_xyz
  x,y,z
_cell_length_a	19.805406
_cell_length_b	19.805407
_cell_length_c	19.805399
_cell_angle_alpha	90.021725
_cell_angle_beta	89.982961
_cell_angle_gamma	89.998138
loop_
_atom_site_label
_atom_site_type_symbol
_atom_site_fract_x
_atom_site_fract_y
_atom_site_fract_z
Zn1	Zn	-0.269457	-1.034857	-0.382808
Zn2	Zn	-0.019457	-0.784857	-0.132808
Zn3	Zn	0.230543	-0.534857	0.117192
Zn4	Zn	0.480543	-0.284857	0.367192
Zn5	Zn	-0.382645	-1.034823	-0.269641
Zn6	Zn	-0.132645	-0.784823	-0.019641
Zn7	Zn	0.117355	-0.534823	0.230359
Zn8	Zn	0.367355	-0.284823	0.480359
Zn9	Zn	-0.269478	-0.921672	-0.269628
Zn10	Zn	-0.019478	-0.671672	-0.019628
Zn11	Zn	0.230522	-0.421672	0.230372
Zn12	Zn	0.480522	-0.171672	0.480372
Zn13	Zn	-0.382611	-0.921686	-0.382783
Zn14	Zn	-0.132611	-0.671686	-0.132783
Zn15	Zn	0.117389	-0.421686	0.117217
Zn16	Zn	0.367389	-0.171686	0.367217
O17	O	-0.326048	-0.978259	-0.326215
O18	O	-0.076048	-0.728259	-0.076215
O19	O	0.173952	-0.478259	0.173785
O20	O	0.423952	-0.228259	0.423785
O21	O	-0.284476	-1.129569	-0.367812
O22	O	-0.034476	-0.879569	-0.117812
O23	O	0.215524	-0.629569	0.132188
O24	O	0.465524	-0.379569	0.382188
O25	O	-0.367656	-1.019793	-0.174922
O26	O	-0.117656	-0.769793	0.075078
O27	O	0.132344	-0.519793	0.325078
O28	O	0.382344	-0.269793	0.575078
O29	O	-0.174758	-0.936694	-0.284647
O30	O	0.075242	-0.686694	-0.034647
O31	O	0.325242	-0.436694	0.215353
O32	O	0.575242	-0.186694	0.465353
O33	O	-0.367635	-1.129544	-0.284668
O34	O	-0.117635	-0.879544	-0.034668
O35	O	0.132365	-0.629544	0.215332
O36	O	0.382365	-0.379544	0.465332
O37	O	-0.174743	-1.019851	-0.367800
O38	O	0.075257	-0.769851	-0.117800
O39	O	0.325257	-0.519851	0.132200
O40	O	0.575257	-0.269851	0.382200
O41	O	-0.284512	-0.936661	-0.174913
O42	O	-0.034512	-0.686661	0.075087
O43	O	0.215488	-0.436661	0.325087
O44	O	0.465488	-0.186661	0.575087
O45	O	-0.284480	-0.826957	-0.284623
O46	O	-0.034480	-0.576957	-0.034623
O47	O	0.215520	-0.326957	0.215377
O48	O	0.465520	-0.076957	0.465377
O49	O	-0.367578	-0.936719	-0.477503
O50	O	-0.117578	-0.686719	-0.227503
O51	O	0.132422	-0.436719	0.022497
O52	O	0.382422	-0.186719	0.272497
O53	O	-0.367599	-0.826968	-0.367757
O54	O	-0.117599	-0.576968	-0.117757
O55	O	0.132401	-0.326968	0.132243
O56	O	0.382401	-0.076968	0.382243
O57	O	-0.284444	-1.019865	-0.477521
O58	O	-0.034444	-0.769865	-0.227521
O59	O	0.215556	-0.519865	0.022479
O60	O	0.465556	-0.269865	0.272479
O61	O	-0.477357	-1.019807	-0.284644
O62	O	-0.227357	-0.769807	-0.034644
O63	O	0.022643	-0.519807	0.215356
O64	O	0.272643	-0.269807	0.465356
O65	O	-0.477332	-0.936686	-0.367769
O66	O	-0.227332	-0.686686	-0.117769
O67	O	0.022668	-0.436686	0.132231
O68	O	0.272668	-0.186686	0.382231
C69	C	-0.326038	-0.802403	-0.326187
C70	C	-0.076038	-0.552403	-0.076187
C71	C	0.173962	-0.302403	0.173813
C72	C	0.423962	-0.052403	0.423813
C73	C	-0.326051	-0.727171	-0.326191
C74	C	-0.076051	-0.477171	-0.076191
C75	C	0.173949	-0.227171	0.173809
C76	C	0.423949	0.022829	0.423809
C77	C	-0.149505	-0.978275	-0.326225
C78	C	0.100495	-0.728275	-0.076225
C79	C	0.350495	-0.478275	0.173775
C80	C	0.600495	-0.228275	0.423775
C81	C	-0.074273	-0.978281	-0.326229
C82	C	0.175727	-0.728281	-0.076229
C83	C	0.425727	-0.478281	0.173771
C84	C	0.675727	-0.228281	0.423771
C85	C	-0.282819	-0.265397	-0.369584
C86	C	-0.032819	-0.015397	-0.119584
C87	C	0.217181	0.234603	0.130416
C88	C	0.467181	0.484603	0.380416
C89	C	-0.282821	-0.336085	-0.369581
C90	C	-0.032821	-0.086085	-0.119581
C91	C	0.217179	0.163915	0.130419
C92	C	0.467179	0.413915	0.380419
C93	C	-0.326050	-0.371410	-0.326223
C94	C	-0.076050	-0.121410	-0.076223
C95	C	0.173950	0.128590	0.173777
C96	C	0.423950	0.378590	0.423777
C97	C	-0.369285	-0.336042	-0.282871
C98	C	-0.119285	-0.086042	-0.032871
C99	C	0.130715	0.163958	0.217129
C100	C	0.380715	0.413958	0.467129
C101	C	-0.369286	-0.265355	-0.282878
C102	C	-0.119286	-0.015355	-0.032878
C103	C	0.130714	0.234645	0.217122
C104	C	0.380714	0.484645	0.467122
C105	C	-0.369284	-0.621115	-0.282841
C106	C	-0.119284	-0.371115	-0.032841
C107	C	0.130716	-0.121115	0.217159
C108	C	0.380716	0.128885	0.467159
C109	C	-0.369278	-0.691807	-0.282836
C110	C	-0.119278	-0.441807	-0.032836
C111	C	0.130722	-0.191807	0.217164
C112	C	0.380722	0.058193	0.467164
C113	C	-0.282819	-0.691846	-0.369544
C114	C	-0.032819	-0.441846	-0.119544
C115	C	0.217181	-0.191846	0.130456
C116	C	0.467181	0.058154	0.380456
C117	C	-0.282819	-0.621159	-0.369552
C118	C	-0.032819	-0.371159	-0.119552
C119	C	0.217181	-0.121159	0.130448
C120	C	0.467181	0.128841	0.380448
C121	C	-0.326057	-0.585797	-0.326202
C122	C	-0.076057	-0.335797	-0.076202
C123	C	0.173943	-0.085797	0.173798
C124	C	0.423943	0.164203	0.423798
C125	C	-0.326055	-0.509149	-0.326207
C126	C	-0.076055	-0.259149	-0.076207
C127	C	0.173945	-0.009149	0.173793
C128	C	0.423945	0.240851	0.423793
C129	C	-0.326049	-0.448057	-0.326214
C130	C	-0.076049	-0.198057	-0.076214
C131	C	0.173951	0.051943	0.173786
C132	C	0.423951	0.301943	0.423786
C133	C	-0.501904	-0.978262	-0.326220
C134	C	-0.251904	-0.728262	-0.076220
C135	C	-0.001904	-0.478262	0.173780
C136	C	0.248096	-0.228262	0.423780
C137	C	-0.577136	-0.978325	-0.326245
C138	C	-0.327136	-0.728325	-0.076245
C139	C	-0.077136	-0.478325	0.173755
C140	C	0.172864	-0.228325	0.423755
C141	C	-0.038918	-0.935007	-0.369507
C142	C	0.211082	-0.685007	-0.119507
C143	C	0.461082	-0.435007	0.130493
C144	C	0.711082	-0.185007	0.380493
C145	C	0.031771	-0.935015	-0.369512
C146	C	0.281771	-0.685015	-0.119512
C147	C	0.531771	-0.435015	0.130488
C148	C	0.781771	-0.185015	0.380488
C149	C	0.067103	-0.978295	-0.326235
C150	C	0.317103	-0.728295	-0.076235
C151	C	0.567103	-0.478295	0.173765
C152	C	0.817103	-0.228295	0.423765
C153	C	0.031743	-1.021574	-0.282955
C154	C	0.281743	-0.771574	-0.032955
C155	C	0.531743	-0.521574	0.217045
C156	C	0.781743	-0.271574	0.467045
C157	C	-0.038945	-1.021569	-0.282954
C158	C	0.211055	-0.771569	-0.032954
C159	C	0.461055	-0.521569	0.217046
C160	C	0.711055	-0.271569	0.467046
C161	C	0.316816	-1.021597	-0.282960
C162	C	0.566816	-0.771597	-0.032960
C163	C	0.816816	-0.521597	0.217040
C164	C	1.066816	-0.271597	0.467040
C165	C	0.387508	-1.021597	-0.282963
C166	C	0.637508	-0.771597	-0.032963
C167	C	0.887508	-0.521597	0.217037
C168	C	1.137508	-0.271597	0.467037
C169	C	0.387531	-0.935043	-0.369518
C170	C	0.637531	-0.685043	-0.119518
C171	C	0.887531	-0.435043	0.130482
C172	C	1.137531	-0.185043	0.380482
C173	C	0.316844	-0.935038	-0.369517
C174	C	0.566844	-0.685038	-0.119517
C175	C	0.816844	-0.435038	0.130483
C176	C	1.066844	-0.185038	0.380483
C177	C	0.281490	-0.978319	-0.326240
C178	C	0.531490	-0.728319	-0.076240
C179	C	0.781490	-0.478319	0.173760
C180	C	1.031490	-0.228319	0.423760
C181	C	0.204842	-0.978311	-0.326235
C182	C	0.454842	-0.728311	-0.076235
C183	C	0.704842	-0.478311	0.173765
C184	C	0.954842	-0.228311	0.423765
C185	C	0.143750	-0.978300	-0.326236
C186	C	0.393750	-0.728300	-0.076236
C187	C	0.643750	-0.478300	0.173764
C188	C	0.893750	-0.228300	0.423764
C189	C	-0.326005	-0.978297	-0.502758
C190	C	-0.076005	-0.728297	-0.252758
C191	C	0.173995	-0.478297	-0.002758
C192	C	0.423995	-0.228297	0.247242
C193	C	-0.325987	-0.978313	-0.577990
C194	C	-0.075987	-0.728313	-0.327990
C195	C	0.174013	-0.478313	-0.077990
C196	C	0.424013	-0.228313	0.172010
C197	C	-0.326054	-0.154802	-0.326238
C198	C	-0.076054	0.095198	-0.076238
C199	C	0.173946	0.345198	0.173762
C200	C	0.423946	0.595198	0.423762
C201	C	-0.326049	-0.230034	-0.326234
C202	C	-0.076049	0.019966	-0.076234
C203	C	0.173951	0.269966	0.173766
C204	C	0.423951	0.519966	0.423766
C205	C	-0.282697	-1.021609	-0.613345
C206	C	-0.032697	-0.771609	-0.363345
C207	C	0.217303	-0.521609	-0.113345
C208	C	0.467303	-0.271609	0.136655
C209	C	-0.282677	-1.021616	-0.684033
C210	C	-0.032677	-0.771616	-0.434033
C211	C	0.217323	-0.521616	-0.184033
C212	C	0.467323	-0.271616	0.065967
C213	C	-0.325952	-0.978330	-0.719366
C214	C	-0.075952	-0.728330	-0.469366
C215	C	0.174048	-0.478330	-0.219366
C216	C	0.424048	-0.228330	0.030634
C217	C	-0.369244	-0.935030	-0.684006
C218	C	-0.119244	-0.685030	-0.434006
C219	C	0.130756	-0.435030	-0.184006
C220	C	0.380756	-0.185030	0.065994
C221	C	-0.369259	-0.935020	-0.613319
C222	C	-0.119259	-0.685020	-0.363319
C223	C	0.130741	-0.435020	-0.113319
C224	C	0.380741	-0.185020	0.136681
C225	C	-0.369181	-0.935068	-0.969079
C226	C	-0.119181	-0.685068	-0.719079
C227	C	0.130819	-0.435068	-0.469079
C228	C	0.380819	-0.185068	-0.219079
C229	C	-0.369163	-0.935083	-1.039771
C230	C	-0.119163	-0.685083	-0.789771
C231	C	0.130837	-0.435083	-0.539771
C232	C	0.380837	-0.185083	-0.289771
C233	C	-0.282598	-1.021664	-1.039794
C234	C	-0.032598	-0.771664	-0.789794
C235	C	0.217402	-0.521664	-0.539794
C236	C	0.467402	-0.271664	-0.289794
C237	C	-0.282614	-1.021654	-0.969107
C238	C	-0.032614	-0.771654	-0.719107
C239	C	0.217386	-0.521654	-0.469107
C240	C	0.467386	-0.271654	-0.219107
C241	C	-0.325903	-0.978352	-0.933753
C242	C	-0.075903	-0.728352	-0.683753
C243	C	0.174097	-0.478352	-0.433753
C244	C	0.424097	-0.228352	-0.183753
C245	C	-0.325923	-0.978344	-0.857105
C246	C	-0.075923	-0.728344	-0.607105
C247	C	0.174077	-0.478344	-0.357105
C248	C	0.424077	-0.228344	-0.107105
C249	C	-0.325936	-0.978341	-0.796013
C250	C	-0.075936	-0.728341	-0.546013
C251	C	0.174064	-0.478341	-0.296013
C252	C	0.424064	-0.228341	-0.046013
C253	C	-0.326041	-0.978260	-0.150359
C254	C	-0.076041	-0.728260	0.099641
C255	C	0.173959	-0.478260	0.349641
C256	C	0.423959	-0.228260	0.599641
C257	C	-0.325869	-0.978375	-0.075128
C258	C	-0.075869	-0.728375	0.174872
C259	C	0.174131	-0.478375	0.424872
C260	C	0.424131	-0.228375	0.674872
H261	H	-0.247612	-0.236641	-0.404887
H262	H	0.002388	0.013359	-0.154887
H263	H	0.252388	0.263359	0.095113
H264	H	0.502388	0.513359	0.345113
H265	H	-0.404439	-0.899819	-0.940303
H266	H	-0.154439	-0.649819	-0.690303
H267	H	0.095561	-0.399819	-0.440303
H268	H	0.345561	-0.149819	-0.190303
F269	F	-0.236641	-1.067683	-0.575748
F270	F	0.013359	-0.817683	-0.325748
F271	F	0.263359	-0.567683	-0.075748
F272	F	0.513359	-0.317683	0.174252
H273	H	-0.404504	-0.899758	-0.584534
H274	H	-0.154504	-0.649758	-0.334534
H275	H	0.095496	-0.399758	-0.084534
H276	H	0.345496	-0.149758	0.165466
H277	H	-0.247615	-0.720646	-0.404844
H278	H	0.002385	-0.470646	-0.154844
H279	H	0.252385	-0.220646	0.095156
H280	H	0.502385	0.029354	0.345156
F281	F	0.425163	-0.888981	-0.415581
F282	F	0.675163	-0.638981	-0.165581
F283	F	0.925163	-0.388981	0.084419
F284	F	1.175163	-0.138981	0.334419
H285	H	-0.247427	-1.056872	-0.712816
H286	H	0.002573	-0.806872	-0.462816
H287	H	0.252573	-0.556872	-0.212816
H288	H	0.502573	-0.306872	0.037184
F289	F	-0.236812	-0.373718	-0.415724
F290	F	0.013188	-0.123718	-0.165724
F291	F	0.263188	0.126282	0.084276
F292	F	0.513188	0.376282	0.334276
F293	F	-0.415291	-0.729400	-0.236686
F294	F	-0.165291	-0.479400	0.013314
F295	F	0.084709	-0.229400	0.263314
F296	F	0.334709	0.020600	0.513314
H297	H	0.288039	-1.056837	-0.247718
H298	H	0.538039	-0.806837	0.002282
H299	H	0.788039	-0.556837	0.252282
H300	H	1.038039	-0.306837	0.502282
F301	F	-0.415285	-0.583489	-0.236689
F302	F	-0.165285	-0.333489	0.013311
F303	F	0.084715	-0.083489	0.263311
F304	F	0.334715	0.166511	0.513311
H305	H	0.060514	-1.056817	-0.247721
H306	H	0.310514	-0.806817	0.002279
H307	H	0.560514	-0.556817	0.252279
H308	H	0.810514	-0.306817	0.502279
H309	H	-0.067730	-1.056809	-0.247714
H310	H	0.182270	-0.806809	0.002286
H311	H	0.432270	-0.556809	0.252286
H312	H	0.682270	-0.306809	0.502286
H313	H	-0.404476	-0.899784	-0.712779
H314	H	-0.154476	-0.649784	-0.462779
H315	H	0.095524	-0.399784	-0.212779
H316	H	0.345524	-0.149784	0.037221
F317	F	-0.415297	-0.373638	-0.236729
F318	F	-0.165297	-0.123638	0.013271
F319	F	0.084703	0.126362	0.263271
F320	F	0.334703	0.376362	0.513271
H321	H	-0.247615	-0.592401	-0.404856
H322	H	0.002385	-0.342401	-0.154856
H323	H	0.252385	-0.092401	0.095144
H324	H	0.502385	0.157599	0.345144
F325	F	-0.236523	-1.067748	-1.077425
F326	F	0.013477	-0.817748	-0.827425
F327	F	0.263477	-0.567748	-0.577425
F328	F	0.513477	-0.317748	-0.327425
H329	H	-0.404404	-0.899832	-1.068537
H330	H	-0.154404	-0.649832	-0.818537
H331	H	0.095596	-0.399832	-0.568537
H332	H	0.345596	-0.149832	-0.318537
H333	H	-0.247378	-1.056903	-0.940342
H334	H	0.002622	-0.806903	-0.690342
H335	H	0.252622	-0.556903	-0.440342
H336	H	0.502622	-0.306903	-0.190342
H337	H	-0.404490	-0.236563	-0.247578
H338	H	-0.154490	0.013437	0.002422
H339	H	0.095510	0.263437	0.252422
H340	H	0.345510	0.513437	0.502422
F341	F	0.069395	-0.888958	-0.415577
F342	F	0.319395	-0.638958	-0.165577
F343	F	0.569395	-0.388958	0.084423
F344	F	0.819395	-0.138958	0.334423
F345	F	-0.076515	-0.888938	-0.415565
F346	F	0.173485	-0.638938	-0.165565
F347	F	0.423485	-0.388938	0.084435
F348	F	0.673485	-0.138938	0.334435
F349	F	0.279245	-0.888973	-0.415577
F350	F	0.529245	-0.638973	-0.165577
F351	F	0.779245	-0.388973	0.084423
F352	F	1.029245	-0.138973	0.334423
H353	H	0.416274	-1.056843	-0.247720
H354	H	0.666274	-0.806843	0.002280
H355	H	0.916274	-0.556843	0.252280
H356	H	1.166274	-0.306843	0.502280
