data_functionalizedCrystal
_audit_creation_method	'MofGen! by Chris Wilmer'
_symmetry_space_group_name_H-M	'P1'
_symmetry_Int_Tables_number	1
_symmetry_cell_setting	triclinic
loop_
_symmetry_equiv_pos_as_xyz
  x,y,z
_cell_length_a	16.109301
_cell_length_b	14.519731
_cell_length_c	15.186229
_cell_angle_alpha	90.004730
_cell_angle_beta	90.000994
_cell_angle_gamma	83.575218
loop_
_atom_site_label
_atom_site_type_symbol
_atom_site_fract_x
_atom_site_fract_y
_atom_site_fract_z
O1	O	1.103344	0.118540	0.073182
O2	O	1.603344	0.618540	0.573182
O3	O	0.861308	0.133291	0.073195
O4	O	1.361308	0.633291	0.573195
O5	O	0.988734	-0.008335	0.073180
O6	O	1.488734	0.491665	0.573180
O7	O	0.975918	0.260166	0.073197
O8	O	1.475918	0.760166	0.573197
O9	O	0.988726	-0.008337	-0.073277
O10	O	1.488726	0.491663	0.426723
O11	O	0.861300	0.133289	-0.073262
O12	O	1.361300	0.633289	0.426738
O13	O	1.103335	0.118538	-0.073275
O14	O	1.603335	0.618538	0.426725
Zn15	Zn	0.982316	0.125913	-0.096522
Zn16	Zn	1.482316	0.625913	0.403478
Zn17	Zn	0.982328	0.125916	0.096442
Zn18	Zn	1.482328	0.625916	0.596442
O19	O	0.975910	0.260164	-0.073260
O20	O	1.475910	0.760164	0.426740
C21	C	0.830328	0.132693	-0.000032
C22	C	1.330328	0.632693	0.499968
C23	C	0.738030	0.130901	-0.000028
C24	C	1.238030	0.630901	0.499972
C25	C	0.429172	0.209083	-0.000038
C26	C	0.929172	0.709083	0.499962
C27	C	0.515895	0.210775	-0.000033
C28	C	1.015895	0.710775	0.499967
C29	C	0.535466	0.042740	-0.000032
C30	C	1.035466	0.542740	0.499968
C31	C	0.448744	0.041049	-0.000031
C32	C	0.948744	0.541049	0.499969
C33	C	0.395599	0.124223	-0.000038
C34	C	0.895599	0.624223	0.499962
C35	C	0.569044	0.127606	-0.000034
C36	C	1.069044	0.627606	0.499966
C37	C	0.663074	0.129440	-0.000029
C38	C	1.163074	0.629440	0.499971
C39	C	0.301564	0.122389	-0.000042
C40	C	0.801564	0.622389	0.499958
C41	C	0.988129	-0.042694	-0.000049
C42	C	1.488129	0.457306	0.499951
C43	C	0.986330	-0.145071	-0.000049
C44	C	1.486330	0.354929	0.499951
C45	C	0.984868	-0.228212	-0.000047
C46	C	1.484868	0.271788	0.499953
C47	C	0.983041	-0.332517	-0.000040
C48	C	1.483041	0.167483	0.499960
C49	C	0.981591	-0.415653	-0.000034
C50	C	1.481591	0.084347	0.499966
C51	C	0.979764	-0.519964	-0.000029
C52	C	1.479764	-0.019964	0.499971
C53	C	1.134316	0.119136	-0.000046
C54	C	1.634316	0.619136	0.499954
C55	C	1.226614	0.120928	-0.000045
C56	C	1.726614	0.620928	0.499955
C57	C	0.976514	0.294524	-0.000030
C58	C	1.476514	0.794524	0.499970
C59	C	0.978314	0.396900	-0.000024
C60	C	1.478314	0.896900	0.499976
N61	N	0.982315	0.125911	-0.228215
N62	N	1.482315	0.625911	0.271785
C63	C	1.038758	0.063220	-0.453944
C64	C	1.538758	0.563220	0.046056
C65	C	1.038761	0.063218	-0.546134
C66	C	1.538761	0.563218	-0.046134
C67	C	0.925886	0.188605	-0.546130
C68	C	1.425886	0.688605	-0.046130
C69	C	0.925880	0.188602	-0.453942
C70	C	1.425880	0.688602	0.046058
C71	C	0.982321	0.125911	-0.407851
C72	C	1.482321	0.625911	0.092149
C73	C	0.982329	0.125911	-0.592229
C74	C	1.482329	0.625911	-0.092229
C75	C	0.982332	0.125909	-0.692185
C76	C	1.482332	0.625909	-0.192185
C77	C	0.982318	0.125911	-0.307889
C78	C	1.482318	0.625911	0.192111
N79	N	0.982336	0.125911	0.228134
N80	N	1.482336	0.625911	0.728134
H81	H	0.385903	0.276809	-0.000044
H82	H	0.885903	0.776809	0.499956
C83	C	0.487834	0.376698	-0.000048
C84	C	0.987834	0.876698	0.499952
C85	C	0.552798	0.304056	-0.000039
C86	C	1.052798	0.804056	0.499961
H87	H	0.510618	0.434287	-0.000056
H88	H	1.010618	0.934287	0.499944
H89	H	0.454418	0.372551	0.051022
H90	H	0.954418	0.872551	0.551022
H91	H	0.454417	0.372528	-0.051125
H92	H	0.954417	0.872528	0.448875
H93	H	0.586212	0.308222	0.051042
H94	H	1.086212	0.808222	0.551042
H95	H	0.586229	0.308205	-0.051114
H96	H	1.086229	0.808205	0.448886
H97	H	0.879935	0.239649	-0.583666
H98	H	1.379935	0.739649	-0.083666
C99	C	1.088884	0.007539	-0.687450
C100	C	1.588884	0.507539	-0.187450
C101	C	1.100798	-0.005693	-0.596800
C102	C	1.600798	0.494307	-0.096800
H103	H	1.127182	-0.035011	-0.718727
H104	H	1.627182	0.464989	-0.218727
H105	H	1.098010	0.069084	-0.702549
H106	H	1.598010	0.569084	-0.202549
H107	H	1.033382	-0.002497	-0.702553
H108	H	1.533382	0.497503	-0.202553
H109	H	1.156299	0.004350	-0.581696
H110	H	1.656299	0.504350	-0.081696
H111	H	1.091679	-0.067252	-0.581695
H112	H	1.591679	0.432748	-0.081695
C113	C	0.677096	-0.029280	-0.000044
C114	C	1.177096	0.470720	0.499956
C115	C	0.593886	-0.048682	-0.000036
C116	C	1.093886	0.451318	0.499964
H117	H	0.713159	-0.085723	-0.000054
H118	H	1.213159	0.414277	0.499946
H119	H	0.687287	0.005512	0.051027
H120	H	1.187287	0.505512	0.551027
H121	H	0.687275	0.005517	-0.051120
H122	H	1.187275	0.505517	0.448880
H123	H	0.583705	-0.083474	0.051043
H124	H	1.083705	0.416526	0.551043
H125	H	0.583691	-0.083490	-0.051112
H126	H	1.083691	0.416510	0.448888
C127	C	0.476794	-0.124885	-0.000039
C128	C	0.976794	0.375115	0.499961
C129	C	0.411835	-0.052237	-0.000034
C130	C	0.911835	0.447763	0.499966
H131	H	0.454005	-0.182471	-0.000044
H132	H	0.954005	0.317529	0.499956
H133	H	0.510212	-0.120729	0.051030
H134	H	1.010212	0.379271	0.551030
H135	H	0.510212	-0.120730	-0.051116
H136	H	1.010212	0.379270	0.448884
H137	H	0.378421	-0.056388	0.051047
H138	H	0.878421	0.443612	0.551047
H139	H	0.378404	-0.056395	-0.051108
H140	H	0.878404	0.443605	0.448892
H141	H	1.084714	0.012171	-0.416419
H142	H	1.584714	0.512171	0.083581
H143	H	0.879918	0.239653	-0.416411
H144	H	1.379918	0.739653	0.083589
