data_functionalizedCrystal
_audit_creation_method	'MofGen! by Chris Wilmer'
_symmetry_space_group_name_H-M	'P1'
_symmetry_Int_Tables_number	1
_symmetry_cell_setting	triclinic
loop_
_symmetry_equiv_pos_as_xyz
  x,y,z
_cell_length_a	15.995343
_cell_length_b	15.995350
_cell_length_c	13.330367
_cell_angle_alpha	89.992805
_cell_angle_beta	90.002584
_cell_angle_gamma	83.490779
loop_
_atom_site_label
_atom_site_type_symbol
_atom_site_fract_x
_atom_site_fract_y
_atom_site_fract_z
O1	O	1.110994	0.107883	0.083318
O2	O	1.610994	0.607883	0.583318
O3	O	0.867218	0.121218	0.083341
O4	O	1.367218	0.621218	0.583341
O5	O	0.995770	-0.007337	0.083328
O6	O	1.495770	0.492663	0.583328
O7	O	0.982442	0.236438	0.083331
O8	O	1.482442	0.736438	0.583331
O9	O	0.995750	-0.007317	-0.083519
O10	O	1.495750	0.492683	0.416481
O11	O	0.867198	0.121238	-0.083506
O12	O	1.367198	0.621238	0.416494
O13	O	1.110974	0.107904	-0.083529
O14	O	1.610974	0.607904	0.416471
Cu15	Cu	0.989084	0.114573	-0.098752
Cu16	Cu	1.489084	0.614573	0.401248
Cu17	Cu	0.989108	0.114548	0.098564
Cu18	Cu	1.489108	0.614548	0.598564
O19	O	0.982422	0.236459	-0.083516
O20	O	1.482422	0.736459	0.416484
C21	C	0.836013	0.120678	-0.000079
C22	C	1.336013	0.620678	0.499921
C23	C	0.743062	0.119028	-0.000070
C24	C	1.243062	0.619028	0.499930
C25	C	0.572876	0.116035	-0.000084
C26	C	1.072876	0.616035	0.499916
C27	C	0.549530	0.023238	-0.000084
C28	C	1.049530	0.523238	0.499916
C29	C	0.452852	0.021492	-0.000469
C30	C	0.952852	0.521492	0.499531
C31	C	0.405316	0.113086	-0.000096
C32	C	0.905316	0.613086	0.499904
C33	C	0.434396	0.159758	-0.095183
C34	C	0.934396	0.659758	0.404817
C35	C	0.531189	0.160859	-0.095257
C36	C	1.031189	0.660859	0.404743
C37	C	0.531122	0.162194	0.094486
C38	C	1.031122	0.662194	0.594486
C39	C	0.434627	0.158768	0.095730
C40	C	0.934627	0.658768	0.595730
C41	C	0.310618	0.111425	-0.000106
C42	C	0.810618	0.611425	0.499894
C43	C	0.667574	0.117699	-0.000080
C44	C	1.167574	0.617699	0.499920
C45	C	0.995209	-0.038522	-0.000094
C46	C	1.495209	0.461478	0.499906
C47	C	0.993557	-0.131472	-0.000088
C48	C	1.493557	0.368528	0.499912
C49	C	0.987625	-0.469220	-0.000091
C50	C	1.487625	0.030780	0.499909
C51	C	0.896072	-0.421783	0.000292
C52	C	1.396072	0.078217	0.500292
C53	C	0.897725	-0.325093	-0.000084
C54	C	1.397725	0.174907	0.499916
C55	C	0.990567	-0.301659	-0.000089
C56	C	1.490567	0.198341	0.499911
C57	C	1.035713	-0.342726	-0.095369
C58	C	1.535713	0.157274	0.404631
C59	C	1.033413	-0.439362	-0.095449
C60	C	1.533413	0.060638	0.404551
C61	C	1.035327	-0.439743	0.094288
C62	C	1.535327	0.060257	0.594288
C63	C	1.035305	-0.342798	0.095547
C64	C	1.535305	0.157202	0.595547
C65	C	0.992235	-0.206962	-0.000091
C66	C	1.492235	0.293038	0.499909
C67	C	0.985960	-0.563917	-0.000095
C68	C	1.485960	-0.063917	0.499905
C69	C	1.142179	0.108444	-0.000107
C70	C	1.642179	0.608444	0.499893
C71	C	1.235130	0.110093	-0.000109
C72	C	1.735130	0.610093	0.499891
C73	C	0.982983	0.267643	-0.000092
C74	C	1.482983	0.767643	0.499908
C75	C	0.984635	0.360594	-0.000091
C76	C	1.484635	0.860594	0.499909
N77	N	0.989074	0.114589	-0.237534
N78	N	1.489074	0.614589	0.262466
C79	C	1.039898	0.165345	-0.710150
C80	C	1.539898	0.665345	-0.210150
C81	C	0.938342	0.063719	-0.710130
C82	C	1.438342	0.563719	-0.210130
C83	C	0.938330	0.063732	-0.605112
C84	C	1.438330	0.563732	-0.105112
C85	C	0.989104	0.114551	-0.552608
C86	C	1.489104	0.614551	-0.052608
C87	C	1.039889	0.165357	-0.605122
C88	C	1.539889	0.665357	-0.105122
C89	C	0.887552	0.012920	-0.552590
C90	C	1.387552	0.512920	-0.052590
C91	C	0.887538	0.012930	-0.447565
C92	C	1.387538	0.512930	0.052435
C93	C	0.938308	0.063755	-0.395059
C94	C	1.438308	0.563755	0.104941
C95	C	0.989095	0.114564	-0.447580
C96	C	1.489095	0.614564	0.052420
C97	C	1.039869	0.165383	-0.395076
C98	C	1.539869	0.665383	0.104924
C99	C	1.090652	0.216197	-0.447595
C100	C	1.590652	0.716197	0.052405
C101	C	1.090659	0.216182	-0.552616
C102	C	1.590659	0.716182	-0.052616
C103	C	0.938300	0.063770	-0.290038
C104	C	1.438300	0.563770	0.209962
C105	C	1.039860	0.165396	-0.290048
C106	C	1.539860	0.665396	0.209952
N107	N	0.989125	0.114525	0.237346
N108	N	1.489125	0.614525	0.737346
H109	H	0.577546	-0.012739	0.068093
H110	H	1.077546	0.487261	0.568093
H111	H	0.859488	-0.440322	0.068620
H112	H	1.359488	0.059678	0.568620
F113	F	0.833518	-0.041161	-0.608473
F114	F	1.333518	0.458839	-0.108473
H115	H	1.132006	0.257550	-0.595386
H116	H	1.632006	0.757550	-0.095386
F117	F	1.093937	0.219427	-0.766044
F118	F	1.593937	0.719427	-0.266044
F119	F	1.144692	0.270276	-0.391704
F120	F	1.644692	0.770276	0.108296
H121	H	1.081202	0.206784	-0.247306
H122	H	1.581202	0.706784	0.252694
F123	F	0.851003	-0.288655	-0.089500
F124	F	1.351003	0.211345	0.410500
F125	F	0.884270	0.009681	-0.234148
F126	F	1.384270	0.509681	0.265852
H127	H	0.846187	-0.028446	-0.404813
H128	H	1.346187	0.471554	0.095187
F129	F	0.428000	-0.026259	0.088607
F130	F	0.928000	0.473741	0.588607
H131	H	1.005402	-0.460291	0.166504
H132	H	1.505402	0.039709	0.666504
H133	H	0.578507	-0.012137	-0.068172
H134	H	1.078507	0.487863	0.431828
F135	F	0.884311	0.009634	-0.766012
F136	F	1.384311	0.509634	-0.266012
H137	H	0.557966	0.128931	-0.166608
H138	H	1.057966	0.628931	0.333392
F139	F	0.428738	-0.026000	-0.090096
F140	F	0.928738	0.474000	0.409904
H141	H	1.000476	-0.457654	-0.166669
H142	H	1.500476	0.042346	0.333331
F143	F	0.550240	0.249805	-0.100560
F144	F	1.050240	0.749805	0.399440
H145	H	1.102828	-0.471506	0.094924
H146	H	1.602828	0.028494	0.594924
H147	H	1.100629	-0.471611	-0.099775
H148	H	1.600629	0.028389	0.400225
H149	H	0.414296	0.127752	-0.166217
H150	H	0.914296	0.627752	0.333783
F151	F	0.392773	0.247870	-0.099459
F152	F	0.892773	0.747870	0.400541
F153	F	1.124867	-0.324266	-0.100009
F154	F	1.624867	0.175734	0.399991
H155	H	0.559400	0.132907	0.166582
H156	H	1.059400	0.632907	0.666582
F157	F	0.410405	0.114330	0.187680
F158	F	0.910405	0.614330	0.687680
F159	F	0.994708	-0.305620	-0.188044
F160	F	1.494708	0.194380	0.311956
F161	F	0.391558	0.246127	0.103617
F162	F	0.891558	0.746127	0.603617
H163	H	0.545135	0.230498	0.095403
H164	H	1.045135	0.730498	0.595403
H165	H	1.002298	-0.315557	0.166033
H166	H	1.502298	0.184443	0.666033
F167	F	1.123800	-0.322719	0.103068
F168	F	1.623800	0.177281	0.603068
H169	H	0.859634	-0.441368	-0.067648
H170	H	1.359634	0.058632	0.432352
F171	F	0.851339	-0.287950	0.089190
F172	F	1.351339	0.212050	0.589190
