data_functionalizedCrystal
_audit_creation_method	'MofGen! by Chris Wilmer'
_symmetry_space_group_name_H-M	'P1'
_symmetry_Int_Tables_number	1
_symmetry_cell_setting	triclinic
loop_
_symmetry_equiv_pos_as_xyz
  x,y,z
_cell_length_a	14.971486
_cell_length_b	14.044220
_cell_length_c	12.503584
_cell_angle_alpha	93.843789
_cell_angle_beta	86.482262
_cell_angle_gamma	88.401503
loop_
_atom_site_label
_atom_site_type_symbol
_atom_site_fract_x
_atom_site_fract_y
_atom_site_fract_z
O1	O	1.201391	0.118064	-0.089199
O2	O	0.942158	0.132856	-0.089228
O3	O	1.067883	-0.012528	-0.089203
O4	O	1.075666	0.263449	-0.089223
O5	O	1.058429	-0.001575	0.089437
O6	O	0.932704	0.143810	0.089412
O7	O	1.191937	0.129018	0.089442
Cu8	Cu	1.061457	0.137414	0.105738
Cu9	Cu	1.072638	0.124460	-0.105525
O10	O	1.066212	0.274402	0.089417
C11	C	0.904054	0.137671	0.000088
C12	C	0.804602	0.135688	0.000077
C13	C	0.754105	0.221098	0.000073
C14	C	0.660657	0.219230	0.000089
C15	C	0.617709	0.131951	0.000102
C16	C	0.668212	0.046535	0.000110
C17	C	0.761657	0.048404	0.000101
C18	C	0.473442	0.042645	0.000125
C19	C	0.379990	0.040776	0.000132
C20	C	0.372442	0.213472	0.000112
C21	C	0.465888	0.215341	0.000104
C22	C	0.516385	0.129924	0.000110
C23	C	1.059749	-0.042370	0.000117
C24	C	1.049588	-0.147607	0.000117
C25	C	1.031012	-0.340290	0.000100
C26	C	1.103079	-0.397842	0.000105
C27	C	1.092743	-0.505057	0.000095
C28	C	1.041347	-0.233065	0.000109
C29	C	1.230041	0.124203	0.000123
C30	C	1.329494	0.126186	0.000127
C31	C	1.074346	0.304244	0.000094
C32	C	1.084507	0.409480	0.000087
N33	N	1.053600	0.146525	0.254329
C34	C	1.042042	0.159934	0.473442
C35	C	1.092055	0.101945	0.526779
C36	C	1.085624	0.109406	0.648701
C37	C	1.048472	0.152474	0.351509
N38	N	1.080499	0.115352	0.745885
H39	H	0.619547	0.288780	0.000084
H40	H	0.994398	0.215182	0.519340
O41	O	1.185879	-0.360408	0.000172
C42	C	1.177905	-0.260139	0.000153
H43	H	1.108125	-0.235047	0.033959
H44	H	1.188936	-0.237842	-0.085545
C45	C	1.334257	-0.245447	0.028711
C46	C	1.248554	-0.214627	0.070240
H47	H	1.377839	-0.217372	0.071939
H48	H	1.339631	-0.313000	0.028720
H49	H	1.343437	-0.226864	-0.042704
H50	H	1.239371	-0.233221	0.141648
H51	H	1.243180	-0.147076	0.070245
O52	O	1.148708	0.035942	0.471860
C53	C	1.142457	0.042946	0.360589
H54	H	1.116179	0.117458	0.345286
H55	H	1.094646	-0.012455	0.328857
C56	C	1.267983	-0.066735	0.321373
C57	C	1.235716	0.024785	0.302578
H58	H	1.325508	-0.077942	0.285587
H59	H	1.272193	-0.071457	0.396338
H60	H	1.228132	-0.112891	0.294929
H61	H	1.275560	0.070940	0.329033
H62	H	1.231515	0.029514	0.227615
O63	O	0.507510	0.300175	-0.000059
C64	C	0.487275	0.346557	-0.092597
H65	H	0.422130	0.318751	-0.123430
H66	H	0.543810	0.331665	-0.157387
C67	C	0.556814	0.489050	-0.026640
C68	C	0.476798	0.454904	-0.064504
H69	H	0.550356	0.555884	-0.009313
H70	H	0.570450	0.457801	0.035703
H71	H	0.603919	0.476631	-0.080638
H72	H	0.429698	0.467312	-0.010501
H73	H	0.463154	0.486158	-0.126837
O74	O	0.795677	0.305968	0.000106
C75	C	0.731065	0.380949	0.000080
H76	H	0.663777	0.356376	0.033909
H77	H	0.724488	0.402045	-0.085624
C78	C	0.842911	0.497736	0.028577
C79	C	0.760268	0.467556	0.070135
H80	H	0.860926	0.551161	0.071786
H81	H	0.886442	0.447220	0.028591
H82	H	0.837420	0.515309	-0.042842
H83	H	0.765763	0.449973	0.141547
H84	H	0.716738	0.518072	0.070135
H85	H	0.514554	-0.026910	0.000132
H86	H	0.331323	0.283021	0.000112
H87	H	0.802771	-0.021146	0.000105
O88	O	0.626634	-0.038329	0.000167
C89	C	0.691247	-0.113315	0.000142
H90	H	0.754964	-0.084596	0.033960
H91	H	0.706875	-0.144918	-0.085560
C92	C	0.576388	-0.226604	0.028665
C93	C	0.654643	-0.191332	0.070210
H94	H	0.553808	-0.274731	0.071882
H95	H	0.532856	-0.176085	0.028678
H96	H	0.589422	-0.252932	-0.042753
H97	H	0.641606	-0.164994	0.141621
H98	H	0.698172	-0.241848	0.070210
H99	H	0.345024	-0.030295	0.000144
H100	H	0.961557	-0.371539	0.000089
