data_functionalizedCrystal
_audit_creation_method	'MofGen! by Chris Wilmer'
_symmetry_space_group_name_H-M	'P1'
_symmetry_Int_Tables_number	1
_symmetry_cell_setting	triclinic
loop_
_symmetry_equiv_pos_as_xyz
  x,y,z
_cell_length_a	17.699077
_cell_length_b	14.519731
_cell_length_c	16.176319
_cell_angle_alpha	89.992219
_cell_angle_beta	89.993140
_cell_angle_gamma	83.484715
loop_
_atom_site_label
_atom_site_type_symbol
_atom_site_fract_x
_atom_site_fract_y
_atom_site_fract_z
O1	O	1.004423	0.116597	-0.068737
O2	O	0.784088	0.131776	-0.068742
O3	O	0.900089	-0.010076	-0.068732
O4	O	0.888422	0.258448	-0.068747
O5	O	0.900073	-0.010085	0.068761
O6	O	0.784072	0.131767	0.068751
O7	O	1.004407	0.116588	0.068756
Cu8	Cu	0.894238	0.124177	0.081308
Cu9	Cu	0.894257	0.124187	-0.081294
O10	O	0.888406	0.258439	0.068746
C11	C	0.755881	0.131228	0.000004
C12	C	0.671858	0.129599	0.000003
C13	C	0.632380	0.128827	0.074951
C14	C	0.553433	0.127282	0.074952
C15	C	0.513965	0.126516	0.000004
C16	C	0.553449	0.127285	-0.074950
C17	C	0.632395	0.128824	-0.074950
C18	C	0.235068	0.121079	-0.074951
C19	C	0.156116	0.119543	-0.074946
C20	C	0.156105	0.119537	0.074951
C21	C	0.235052	0.121076	0.074951
C22	C	0.274529	0.121840	-0.000002
C23	C	0.360133	0.123514	-0.000003
C24	C	0.428362	0.124849	0.000003
C25	C	0.899534	-0.044437	0.000015
C26	C	0.897896	-0.146811	0.000015
C27	C	0.896565	-0.229949	0.000013
C28	C	0.894902	-0.334251	0.000007
C29	C	0.893582	-0.417384	0.000002
C30	C	0.891919	-0.521692	-0.000003
C31	C	1.032613	0.117136	0.000008
C32	C	1.116636	0.118764	0.000004
C33	C	0.888961	0.292801	-0.000003
C34	C	0.890599	0.395174	-0.000008
N35	N	0.894230	0.124168	0.195673
N36	N	0.894271	0.124188	-0.195659
C37	C	0.945611	0.061382	0.238942
C38	C	0.945615	0.061381	0.325489
C39	C	0.894241	0.124172	0.368766
C40	C	0.842855	0.186961	0.325491
C41	C	0.842848	0.186957	0.238946
C42	C	0.842881	0.186978	0.674519
C43	C	0.842893	0.186979	0.761071
C44	C	0.945648	0.061403	0.761062
C45	C	0.945641	0.061399	0.674517
C46	C	0.894252	0.124184	0.631250
C47	C	0.894248	0.124183	0.537406
C48	C	0.894248	0.124178	0.462608
H49	H	0.123983	0.118919	-0.135981
C50	C	0.277859	0.122105	-0.156355
C51	C	0.250263	0.201055	-0.201567
C52	C	0.289672	0.202037	-0.276560
H53	H	0.270641	0.068160	-0.187243
H54	H	0.330532	0.123176	-0.145666
H55	H	0.197602	0.199975	-0.212259
H56	H	0.257481	0.255013	-0.170704
H57	H	0.342346	0.203109	-0.265870
H58	H	0.282452	0.148089	-0.307440
H59	H	0.270959	0.255608	-0.307242
C60	C	1.001451	-0.006879	0.627681
C61	C	1.046436	-0.061884	0.684099
C62	C	1.097849	-0.124803	0.640985
H63	H	1.033070	0.026136	0.593902
H64	H	0.974187	-0.045278	0.593951
H65	H	1.073698	-0.023490	0.717814
H66	H	1.014838	-0.094919	0.717879
H67	H	1.070585	-0.163202	0.607255
H68	H	1.129463	-0.091780	0.607208
H69	H	1.128372	-0.162137	0.679257
H70	H	0.987489	0.010276	0.796300
C71	C	1.001373	-0.006928	0.372355
C72	C	0.989001	-0.097537	0.351302
C73	C	1.040363	-0.160489	0.394447
H74	H	0.994079	0.001931	0.430110
H75	H	1.051907	0.002967	0.358135
H76	H	0.938479	-0.107429	0.365528
H77	H	0.996301	-0.106425	0.293554
H78	H	1.090896	-0.150594	0.380227
H79	H	1.033064	-0.151622	0.452200
H80	H	1.031980	-0.221974	0.380163
H81	H	0.801055	0.238113	0.796306
H82	H	0.521309	0.126655	-0.135974
H83	H	0.664508	0.129458	0.135983
C84	C	0.787060	0.255252	0.627700
C85	C	0.742089	0.310258	0.684128
C86	C	0.690663	0.373174	0.641025
H87	H	0.755433	0.222234	0.593950
H88	H	0.814314	0.293651	0.593943
H89	H	0.714837	0.271864	0.717871
H90	H	0.773695	0.343296	0.717879
H91	H	0.717917	0.411572	0.607267
H92	H	0.659041	0.340148	0.607276
H93	H	0.660149	0.410509	0.679304
H94	H	0.521295	0.126637	0.135983
C95	C	0.277770	0.121856	0.156411
C96	C	0.226302	0.120823	0.222050
C97	C	0.265627	0.121525	0.297104
H98	H	0.302874	0.176198	0.159642
H99	H	0.314251	0.068675	0.159572
H100	H	0.189834	0.173999	0.218891
H101	H	0.201196	0.066485	0.218846
H102	H	0.302108	0.068344	0.300265
H103	H	0.290729	0.175868	0.300326
H104	H	0.230712	0.120816	0.341649
H105	H	0.664538	0.129455	-0.135981
H106	H	0.801021	0.238083	0.360732
H107	H	0.123953	0.118910	0.135982
C108	C	0.787031	0.255231	0.192114
C109	C	0.742055	0.310240	0.248536
C110	C	0.690631	0.373151	0.205427
H111	H	0.755406	0.222211	0.158363
H112	H	0.814286	0.293629	0.158357
H113	H	0.714801	0.271847	0.282279
H114	H	0.773658	0.343281	0.282289
H115	H	0.717887	0.411549	0.171670
H116	H	0.659012	0.340123	0.171677
H117	H	0.660114	0.410487	0.243702
H118	H	0.987448	0.010255	0.203711
