data_functionalizedCrystal
_audit_creation_method	'MofGen! by Chris Wilmer'
_symmetry_space_group_name_H-M	'P1'
_symmetry_Int_Tables_number	1
_symmetry_cell_setting	triclinic
loop_
_symmetry_equiv_pos_as_xyz
  x,y,z
_cell_length_a	14.908571
_cell_length_b	18.050589
_cell_length_c	14.908308
_cell_angle_alpha	93.269302
_cell_angle_beta	90.175053
_cell_angle_gamma	86.724558
loop_
_atom_site_label
_atom_site_type_symbol
_atom_site_fract_x
_atom_site_fract_y
_atom_site_fract_z
Zn1	Zn	1.345230	-0.387558	-0.587600
Zn2	Zn	1.678564	-0.054225	-0.254266
Zn3	Zn	2.011897	0.279108	0.079067
Zn4	Zn	1.353791	-0.505024	-0.437245
Zn5	Zn	1.687124	-0.171691	-0.103912
Zn6	Zn	2.020458	0.161643	0.229421
Zn7	Zn	1.203548	-0.373294	-0.428597
Zn8	Zn	1.536881	-0.039961	-0.095263
Zn9	Zn	1.870215	0.293373	0.238070
Zn10	Zn	1.194819	-0.504142	-0.578897
Zn11	Zn	1.528152	-0.170808	-0.245563
Zn12	Zn	1.861486	0.162525	0.087770
O13	O	1.274347	-0.442504	-0.508085
O14	O	1.607680	-0.109171	-0.174751
O15	O	1.941014	0.224162	0.158582
O16	O	1.472191	-0.409479	-0.574916
O17	O	1.805524	-0.076146	-0.241583
O18	O	2.138858	0.257187	0.091750
O19	O	1.341097	-0.481949	-0.310273
O20	O	1.674430	-0.148616	0.023060
O21	O	2.007763	0.184717	0.356394
O22	O	1.222413	-0.271266	-0.449712
O23	O	1.555746	0.062067	-0.116378
O24	O	1.889080	0.395401	0.216955
O25	O	1.478480	-0.495781	-0.464452
O26	O	1.811814	-0.162448	-0.131118
O27	O	2.145147	0.170886	0.202215
O28	O	1.326506	-0.281746	-0.566530
O29	O	1.659840	0.051587	-0.233197
O30	O	1.993173	0.384921	0.100136
O31	O	1.230714	-0.385168	-0.303919
O32	O	1.564047	-0.051834	0.029414
O33	O	1.897381	0.281499	0.362748
O34	O	1.076565	-0.384312	-0.441273
O35	O	1.409899	-0.050979	-0.107939
O36	O	1.743232	0.282354	0.225394
O37	O	1.207536	-0.494277	-0.705876
O38	O	1.540869	-0.160944	-0.372543
O39	O	1.874202	0.172390	-0.039209
O40	O	1.070152	-0.480446	-0.551698
O41	O	1.403485	-0.147112	-0.218364
O42	O	1.736819	0.186221	0.114969
O43	O	1.318042	-0.408624	-0.712270
O44	O	1.651376	-0.075290	-0.378937
O45	O	1.984709	0.258043	-0.045603
O46	O	1.332633	-0.608827	-0.456013
O47	O	1.665966	-0.275494	-0.122680
O48	O	1.999299	0.057839	0.210654
O49	O	1.215836	-0.608179	-0.560084
O50	O	1.549170	-0.274846	-0.226750
O51	O	1.882503	0.058488	0.106583
C52	C	1.040734	-0.430736	-0.494603
C53	C	1.374067	-0.097403	-0.161270
C54	C	1.707400	0.235931	0.172064
C55	C	0.940791	-0.425720	-0.488857
C56	C	1.274125	-0.092387	-0.155523
C57	C	1.607458	0.240947	0.177810
C58	C	1.274239	-0.635451	-0.508063
C59	C	1.607573	-0.302117	-0.174730
C60	C	1.940906	0.031216	0.158603
C61	C	1.274274	-0.717999	-0.508089
C62	C	1.607607	-0.384666	-0.174756
C63	C	1.940941	-0.051332	0.158578
C64	C	0.746369	-0.516539	-0.592890
C65	C	1.079702	-0.183206	-0.259556
C66	C	1.413035	0.150128	0.073777
C67	C	0.652464	-0.511829	-0.587494
C68	C	0.985797	-0.178495	-0.254161
C69	C	1.319131	0.154838	0.079173
C70	C	0.659075	-0.411586	-0.472674
C71	C	0.992409	-0.078253	-0.139341
C72	C	1.325742	0.255081	0.193993
C73	C	0.752980	-0.416296	-0.478070
C74	C	1.086313	-0.082963	-0.144737
C75	C	1.419647	0.250370	0.188597
C76	C	0.796623	-0.468775	-0.538179
C77	C	1.129957	-0.135442	-0.204846
C78	C	1.463290	0.197891	0.128488
C79	C	0.890530	-0.473489	-0.543570
C80	C	1.223863	-0.140155	-0.210236
C81	C	1.557197	0.193178	0.123097
C82	C	0.897139	-0.373243	-0.428755
C83	C	1.230473	-0.039910	-0.095422
C84	C	1.563806	0.293424	0.237912
C85	C	0.803235	-0.368533	-0.423359
C86	C	1.136568	-0.035199	-0.090026
C87	C	1.469901	0.298134	0.243308
C88	C	1.210820	-0.917126	-0.564665
C89	C	1.544154	-0.583793	-0.231332
C90	C	1.877487	-0.250460	0.102001
C91	C	1.193639	-0.961795	-0.481356
C92	C	1.526973	-0.628462	-0.148022
C93	C	1.860306	-0.295128	0.185311
C94	C	1.274362	-0.869134	-0.508106
C95	C	1.607695	-0.535801	-0.174773
C96	C	1.941028	-0.202468	0.158561
C97	C	1.291586	-0.971550	-0.591427
C98	C	1.624920	-0.638217	-0.258094
C99	C	1.958253	-0.304883	0.075239
C100	C	1.274444	-1.015125	-0.508129
C101	C	1.607777	-0.681791	-0.174796
C102	C	1.941111	-0.348458	0.158537
C103	C	1.257140	-0.912712	-0.424750
C104	C	1.590473	-0.579379	-0.091417
C105	C	1.923806	-0.246045	0.241916
C106	C	1.355122	-0.922467	-0.534880
C107	C	1.688455	-0.589134	-0.201546
C108	C	2.021788	-0.255800	0.131787
C109	C	1.337975	-0.967112	-0.451515
C110	C	1.671308	-0.633779	-0.118182
C111	C	2.004642	-0.300446	0.215151
C112	C	1.274312	-0.785033	-0.508094
C113	C	1.607645	-0.451700	-0.174760
C114	C	1.940978	-0.118367	0.158573
C115	C	1.274495	-1.099224	-0.508132
C116	C	1.607828	-0.765890	-0.174799
C117	C	1.941161	-0.432557	0.158534
C118	C	1.508873	-0.454320	-0.521619
C119	C	1.842206	-0.120986	-0.188286
C120	C	2.175540	0.212347	0.145047
C121	C	1.608814	-0.459355	-0.527387
C122	C	1.942147	-0.126021	-0.194054
C123	C	2.275480	0.207312	0.139280
C124	C	1.260860	-0.452943	-0.742610
C125	C	1.594194	-0.119610	-0.409277
C126	C	1.927527	0.213724	-0.075944
C127	C	1.255113	-0.457391	-0.842551
C128	C	1.588446	-0.124058	-0.509218
C129	C	1.921780	0.209275	-0.175885
C130	C	1.274479	-0.248807	-0.508127
C131	C	1.607812	0.084526	-0.174794
C132	C	1.941145	0.417860	0.158540
C133	C	1.274535	-0.166265	-0.508145
C134	C	1.607868	0.167068	-0.174812
C135	C	1.941201	0.500402	0.158522
C136	C	1.359381	-0.376542	-1.037010
C137	C	1.692714	-0.043209	-0.703677
C138	C	2.026048	0.290125	-0.370344
C139	C	1.353984	-0.380719	-1.130914
C140	C	1.687317	-0.047386	-0.797581
C141	C	2.020651	0.285947	-0.464247
C142	C	1.238917	-0.469919	-1.124263
C143	C	1.572250	-0.136585	-0.790930
C144	C	1.905584	0.196748	-0.457597
C145	C	1.244314	-0.465741	-1.030360
C146	C	1.577648	-0.132408	-0.697026
C147	C	1.910981	0.200925	-0.363693
C148	C	1.304549	-0.419052	-0.986737
C149	C	1.637883	-0.085719	-0.653403
C150	C	1.971216	0.247614	-0.320070
C151	C	1.309951	-0.414880	-0.892832
C152	C	1.643284	-0.081546	-0.559498
C153	C	1.976617	0.251787	-0.226165
C154	C	1.194880	-0.504075	-0.886183
C155	C	1.528213	-0.170741	-0.552849
C156	C	1.861547	0.162592	-0.219516
C157	C	1.189483	-0.508252	-0.980086
C158	C	1.522816	-0.174918	-0.646753
C159	C	1.856149	0.158415	-0.313420
C160	C	1.287833	-0.432055	-0.274474
C161	C	1.621167	-0.098722	0.058859
C162	C	1.954500	0.234611	0.392192
C163	C	1.293755	-0.427407	-0.174544
C164	C	1.627088	-0.094073	0.158789
C165	C	1.960422	0.239260	0.492123
H166	H	0.926063	-0.516221	-0.592512
H167	H	1.259396	-0.182888	-0.259179
H168	H	1.592730	0.150446	0.074155
Cl169	Cl	1.435112	-0.317858	-0.982167
Cl170	Cl	1.768446	0.015475	-0.648834
Cl171	Cl	2.101779	0.348809	-0.315500
H172	H	0.623524	-0.368856	-0.423742
H173	H	0.956857	-0.035522	-0.090409
H174	H	1.290191	0.297811	0.242925
Cl175	Cl	1.127754	-0.883243	-0.638395
Cl176	Cl	1.461087	-0.549910	-0.305062
Cl177	Cl	1.794421	-0.216577	0.028271
H178	H	1.398631	-0.346101	-1.171843
H179	H	1.731965	-0.012767	-0.838510
H180	H	2.065298	0.320566	-0.505177
H181	H	1.423362	-0.905010	-0.557544
H182	H	1.756695	-0.571676	-0.224210
H183	H	2.090028	-0.238343	0.109123
H184	H	0.938067	-0.334352	-0.384203
H185	H	1.271400	-0.001018	-0.050870
H186	H	1.604734	0.332315	0.282463
Cl187	Cl	1.163194	-0.528602	-1.179119
Cl188	Cl	1.496527	-0.195269	-0.845786
Cl189	Cl	1.829860	0.138064	-0.512452
Cl190	Cl	1.314029	-1.011211	-0.700202
Cl191	Cl	1.647362	-0.677877	-0.366869
Cl192	Cl	1.980696	-0.344544	-0.033535
Cl193	Cl	1.088251	-0.988724	-0.446398
Cl194	Cl	1.421584	-0.655391	-0.113065
Cl195	Cl	1.754918	-0.322058	0.220268
H196	H	1.358998	-0.376864	-0.857315
H197	H	1.692332	-0.043531	-0.523982
H198	H	2.025665	0.289803	-0.190649
H199	H	0.611550	-0.550721	-0.632047
H200	H	0.944883	-0.217388	-0.298714
H201	H	1.278216	0.115945	0.034620
H202	H	1.242524	-0.887110	-0.354272
H203	H	1.575858	-0.553777	-0.020939
H204	H	1.909191	-0.220444	0.312395
Cl205	Cl	1.113762	-0.566942	-1.034935
Cl206	Cl	1.447096	-0.233609	-0.701602
Cl207	Cl	1.780429	0.099724	-0.368269
Cl208	Cl	1.421000	-1.000772	-0.377599
Cl209	Cl	1.754333	-0.667438	-0.044265
Cl210	Cl	2.087666	-0.334105	0.289068
Cl211	Cl	0.801238	-0.582518	-0.668443
Cl212	Cl	1.134572	-0.249184	-0.335110
Cl213	Cl	1.467905	0.084149	-0.001777
Cl214	Cl	0.748360	-0.302560	-0.347802
Cl215	Cl	1.081693	0.030773	-0.014468
Cl216	Cl	1.415026	0.364106	0.318865
Cl217	Cl	1.125954	-0.557528	-0.822977
Cl218	Cl	1.459288	-0.224195	-0.489643
Cl219	Cl	1.792621	0.109139	-0.156310
