data_functionalizedCrystal
_audit_creation_method	'MofGen! by Chris Wilmer'
_symmetry_space_group_name_H-M	'P1'
_symmetry_Int_Tables_number	1
_symmetry_cell_setting	triclinic
loop_
_symmetry_equiv_pos_as_xyz
  x,y,z
_cell_length_a	12.759401
_cell_length_b	12.759400
_cell_length_c	12.759393
_cell_angle_alpha	90.031564
_cell_angle_beta	90.019559
_cell_angle_gamma	90.012834
loop_
_atom_site_label
_atom_site_type_symbol
_atom_site_fract_x
_atom_site_fract_y
_atom_site_fract_z
Zn1	Zn	-1.606255	0.418256	-0.594011
Zn2	Zn	-1.606150	0.593975	-0.418331
Zn3	Zn	-1.430557	0.418305	-0.418347
Zn4	Zn	-1.430546	0.593888	-0.593969
O5	O	-1.518377	0.506106	-0.506165
O6	O	-1.753262	0.441582	-0.570718
O7	O	-1.582818	0.570729	-0.271312
O8	O	-1.453913	0.271278	-0.441674
O9	O	-1.753185	0.570682	-0.441646
O10	O	-1.582998	0.271242	-0.570733
O11	O	-1.453811	0.441665	-0.271324
O12	O	-1.283535	0.441581	-0.441633
O13	O	-1.453894	0.570533	-0.740996
O14	O	-1.283527	0.570581	-0.570662
O15	O	-1.582987	0.441497	-0.741027
O16	O	-1.582807	0.740985	-0.441606
O17	O	-1.453791	0.740921	-0.570647
C18	C	-1.245410	0.506077	-0.506145
C19	C	-1.128633	0.506090	-0.506162
C20	C	-1.518315	0.779073	-0.506143
C21	C	-1.518384	0.895850	-0.506169
C22	C	-1.073794	0.573366	-0.573235
C23	C	-0.964070	0.573375	-0.573245
C24	C	-0.964034	0.438830	-0.439099
C25	C	-1.073756	0.438816	-0.439095
C26	C	-1.073815	0.651048	-0.650680
C27	C	-0.964091	0.651058	-0.650690
C28	C	-1.518451	0.506000	-0.780198
C29	C	-1.518482	0.505955	-0.896975
C30	C	-0.792410	0.506127	-0.506180
C31	C	-0.909187	0.506113	-0.506175
C32	C	-1.518468	0.232073	-0.506210
C33	C	-1.518507	0.115296	-0.506229
C34	C	-1.585637	0.950710	-0.439051
C35	C	-1.585702	1.060435	-0.439084
C36	C	-1.451252	1.060428	-0.573354
C37	C	-1.451193	0.950706	-0.573326
C38	C	-1.663258	0.950715	-0.361529
C39	C	-1.663322	1.060439	-0.361561
C40	C	-1.585710	0.438759	-0.951855
C41	C	-1.585735	0.438722	-1.061579
C42	C	-1.451301	0.573083	-1.061534
C43	C	-1.451272	0.573115	-0.951812
C44	C	-1.663328	0.361190	-0.951881
C45	C	-1.663353	0.361152	-1.061606
C46	C	-1.518364	0.506136	-0.233197
C47	C	-1.518537	0.505885	-0.116421
H48	H	-0.919339	0.384057	-0.384496
C49	C	-1.399986	0.751012	-0.917981
C50	C	-1.377357	0.646966	-0.891491
H51	H	-1.354352	0.796602	-0.880737
H52	H	-1.390389	0.760596	-0.991167
H53	H	-1.470563	0.766406	-0.899986
H54	H	-1.306782	0.631570	-0.909493
H55	H	-1.386946	0.637377	-0.818288
H56	H	-1.641585	1.090301	-0.280180
C57	C	-1.773210	0.390504	-1.211561
C58	C	-1.773197	0.390562	-1.101820
H59	H	-1.841024	0.408650	-1.236385
H60	H	-1.723579	0.440126	-1.236356
H61	H	-1.755052	0.322689	-1.236367
H62	H	-1.791348	0.458379	-1.077014
H63	H	-1.822844	0.340938	-1.077015
H64	H	-1.107829	0.728301	-0.621396
H65	H	-1.103623	0.629350	-0.732088
H66	H	-1.118401	0.384027	-0.384485
C67	C	-1.309808	0.827402	-0.587782
C68	C	-1.377278	0.890396	-0.647108
H69	H	-1.264180	0.790165	-0.633337
H70	H	-1.269662	0.870273	-0.542000
H71	H	-1.349828	0.779035	-0.547788
H72	H	-1.337258	0.938769	-0.687097
H73	H	-1.417428	0.847521	-0.692909
H74	H	-0.930093	0.622012	-0.728041
H75	H	-0.934295	0.732406	-0.628757
H76	H	-1.396548	1.105105	-0.628031
C77	C	-1.839718	0.995696	-0.408969
C78	C	-1.773061	0.910401	-0.391036
H79	H	-1.907501	0.970805	-0.427191
H80	H	-1.844196	1.037095	-0.347243
H81	H	-1.812667	1.037024	-0.464647
H82	H	-1.800108	0.869077	-0.335352
H83	H	-1.768586	0.868985	-0.452769
H84	H	-1.396579	0.627761	-1.106195
C85	C	-1.598198	0.986681	-0.188612
C86	C	-1.623953	0.904875	-0.257140
H87	H	-1.573939	0.958378	-0.124166
H88	H	-1.544706	1.028588	-0.218982
H89	H	-1.658490	1.028545	-0.176201
H90	H	-1.563659	0.863015	-0.269558
H91	H	-1.677450	0.862950	-0.226764
C92	C	-1.616122	0.184711	-0.997076
C93	C	-1.633930	0.251358	-0.911701
H94	H	-1.597966	0.116911	-0.972267
H95	H	-1.677875	0.180280	-1.038434
H96	H	-1.560434	0.211737	-1.038419
H97	H	-1.689623	0.224336	-0.870362
H98	H	-1.572169	0.255786	-0.870326
H99	H	-1.740599	0.390361	-0.917847
H100	H	-1.740626	1.094386	-0.390774
H101	H	-1.634239	0.283842	-1.095653
