data_functionalizedCrystal
_audit_creation_method	'MofGen! by Chris Wilmer'
_symmetry_space_group_name_H-M	'P1'
_symmetry_Int_Tables_number	1
_symmetry_cell_setting	triclinic
loop_
_symmetry_equiv_pos_as_xyz
  x,y,z
_cell_length_a	10.654550
_cell_length_b	15.995350
_cell_length_c	9.730223
_cell_angle_alpha	90.000899
_cell_angle_beta	89.996251
_cell_angle_gamma	83.988639
loop_
_atom_site_label
_atom_site_type_symbol
_atom_site_fract_x
_atom_site_fract_y
_atom_site_fract_z
O1	O	1.666298	0.117599	-0.114395
O2	O	1.300673	0.128803	-0.114373
O3	O	1.493480	0.001371	-0.114383
O4	O	1.473491	0.245031	-0.114385
O5	O	1.493478	0.001375	0.114197
O6	O	1.300671	0.128806	0.114207
O7	O	1.666295	0.117602	0.114185
Zn8	Zn	1.483483	0.123205	0.150488
Zn9	Zn	1.483486	0.123200	-0.150676
O10	O	1.473488	0.245034	0.114195
C11	C	1.253885	0.127982	-0.000080
C12	C	1.114473	0.125521	-0.000071
C13	C	1.034008	0.200551	-0.000092
C14	C	0.903017	0.198233	-0.000116
C15	C	0.932971	0.045849	-0.000104
C16	C	1.063959	0.048168	-0.000071
C17	C	1.016713	0.288528	-0.000104
C18	C	0.885722	0.286211	-0.000128
C19	C	1.492652	-0.029827	-0.000096
C20	C	1.490175	-0.122791	-0.000104
C21	C	1.481278	-0.460591	-0.000098
C22	C	1.343964	-0.413954	-0.000603
C23	C	1.346442	-0.317249	-0.000087
C24	C	1.485691	-0.293004	-0.000102
C25	C	1.553417	-0.333687	0.130422
C26	C	1.549968	-0.430342	0.130531
C27	C	1.552807	-0.430688	-0.129407
C28	C	1.552775	-0.333743	-0.131132
C29	C	1.488192	-0.198292	-0.000099
C30	C	1.478780	-0.555303	-0.000092
C31	C	1.713084	0.118423	-0.000111
C32	C	1.852495	0.120884	-0.000129
C33	C	1.474316	0.276232	-0.000095
C34	C	1.476793	0.369197	-0.000097
N35	N	1.483490	0.123207	0.356024
N36	N	1.483488	0.123191	-0.356212
C37	C	1.568886	0.066800	0.427946
C38	C	1.568883	0.066789	0.571829
C39	C	1.398083	0.179602	0.571856
C40	C	1.398081	0.179607	0.427976
C41	C	1.667501	0.001671	0.427931
C42	C	1.667497	0.001661	0.571814
H43	H	0.891826	-0.017130	-0.000125
H44	H	1.045593	0.322938	0.095561
H45	H	1.646899	-0.062686	0.388879
H46	H	1.503258	-0.306783	-0.227690
H47	H	0.843557	0.319358	-0.095796
H48	H	1.655720	-0.318967	0.135266
C49	C	0.823533	0.322152	0.133156
H50	H	0.735008	0.319325	0.128590
H51	H	0.839896	0.379050	0.143664
H52	H	0.857314	0.290246	0.209439
H53	H	1.763822	0.016006	0.610858
H54	H	1.129471	-0.012929	-0.000034
H55	H	1.052003	0.316540	-0.098792
C56	C	1.790314	0.029218	0.367619
H57	H	1.786121	0.028289	0.270109
H58	H	1.859990	-0.008206	0.397753
H59	H	1.800582	0.084580	0.397771
H60	H	1.637779	-0.059156	0.616432
H61	H	1.289324	-0.433864	0.092484
C62	C	1.686150	-0.473120	0.138545
H63	H	1.743334	-0.431404	0.141730
H64	H	1.703475	-0.507539	0.059837
H65	H	1.695658	-0.506797	0.219041
C66	C	1.304138	0.241650	0.348867
H67	H	1.253283	0.275242	0.412328
H68	H	1.251873	0.211204	0.292738
H69	H	1.349308	0.276795	0.292743
C70	C	1.274506	-0.279267	-0.126468
H71	H	1.243497	-0.322936	-0.178585
H72	H	1.329841	-0.250655	-0.181704
H73	H	1.205772	-0.240787	-0.097076
H74	H	1.507914	-0.451490	-0.228337
C75	C	1.304148	0.241641	0.651007
H76	H	1.316383	0.233563	0.746998
H77	H	1.220340	0.232030	0.627430
H78	H	1.317789	0.297612	0.627436
C79	C	1.269809	-0.439428	-0.127034
H80	H	1.321919	-0.478738	-0.180645
H81	H	1.244554	-0.391000	-0.180785
H82	H	1.197207	-0.464284	-0.097664
H83	H	1.654048	-0.461861	-0.130294
C84	C	1.274056	-0.280020	0.126543
H85	H	1.243029	-0.324009	0.177878
H86	H	1.205331	-0.241448	0.097451
H87	H	1.329168	-0.251647	0.182446
C88	C	1.483235	-0.455455	0.262337
H89	H	1.458478	-0.406606	0.315308
H90	H	1.539337	-0.493099	0.314523
H91	H	1.410693	-0.482139	0.238490
H92	H	1.654321	-0.317791	-0.139024
H93	H	1.506376	-0.305577	0.227563
