data_functionalizedCrystal
_audit_creation_method	'MofGen! by Chris Wilmer'
_symmetry_space_group_name_H-M	'P1'
_symmetry_Int_Tables_number	1
_symmetry_cell_setting	triclinic
loop_
_symmetry_equiv_pos_as_xyz
  x,y,z
_cell_length_a	19.805407
_cell_length_b	18.050589
_cell_length_c	19.805399
_cell_angle_alpha	89.976299
_cell_angle_beta	89.983114
_cell_angle_gamma	90.028221
loop_
_atom_site_label
_atom_site_type_symbol
_atom_site_fract_x
_atom_site_fract_y
_atom_site_fract_z
Zn1	Zn	1.034709	-0.295666	-0.382745
Zn2	Zn	1.534709	0.204334	0.117255
Zn3	Zn	1.034626	-0.419862	-0.269567
Zn4	Zn	1.534626	0.080138	0.230433
Zn5	Zn	0.921529	-0.295690	-0.269569
Zn6	Zn	1.421529	0.204310	0.230431
Zn7	Zn	0.921484	-0.419819	-0.382713
Zn8	Zn	1.421484	0.080181	0.117287
O9	O	0.978087	-0.357759	-0.326148
O10	O	1.478087	0.142241	0.173852
O11	O	1.129415	-0.312149	-0.367743
O12	O	1.629415	0.187851	0.132257
O13	O	1.019607	-0.403418	-0.174850
O14	O	1.519607	0.096582	0.325150
O15	O	0.936597	-0.191762	-0.284596
O16	O	1.436597	0.308238	0.215404
O17	O	1.129353	-0.403395	-0.284592
O18	O	1.629353	0.096605	0.215408
O19	O	1.019750	-0.191745	-0.367746
O20	O	1.519750	0.308255	0.132254
O21	O	0.936516	-0.312189	-0.174852
O22	O	1.436516	0.187811	0.325148
O23	O	0.826807	-0.312148	-0.284566
O24	O	1.326807	0.187852	0.215434
O25	O	0.936519	-0.403322	-0.477434
O26	O	1.436519	0.096678	0.022566
O27	O	0.826773	-0.403345	-0.367693
O28	O	1.326773	0.096655	0.132307
O29	O	1.019706	-0.312108	-0.477457
O30	O	1.519706	0.187892	0.022543
O31	O	1.019563	-0.523781	-0.284562
O32	O	1.519563	-0.023781	0.215438
O33	O	0.936438	-0.523749	-0.367690
O34	O	1.436438	-0.023749	0.132310
C35	C	0.802231	-0.357745	-0.326127
C36	C	1.302231	0.142255	0.173873
C37	C	0.726999	-0.357757	-0.326133
C38	C	1.226999	0.142243	0.173867
C39	C	0.691655	-0.405315	-0.369347
C40	C	1.191655	0.094685	0.130653
C41	C	0.620967	-0.405316	-0.369357
C42	C	1.120967	0.094684	0.130643
C43	C	0.585623	-0.357763	-0.326148
C44	C	1.085623	0.142237	0.173852
C45	C	0.620972	-0.310200	-0.282933
C46	C	1.120972	0.189800	0.217067
C47	C	0.691659	-0.310195	-0.282927
C48	C	1.191659	0.189805	0.217073
C49	C	0.335899	-0.310216	-0.282955
C50	C	0.835899	0.189784	0.217045
C51	C	0.265207	-0.310226	-0.282962
C52	C	0.765207	0.189774	0.217038
C53	C	0.265206	-0.405337	-0.369385
C54	C	0.765206	0.094663	0.130615
C55	C	0.335893	-0.405332	-0.369379
C56	C	0.835893	0.094668	0.130621
C57	C	0.371236	-0.357767	-0.326166
C58	C	0.871236	0.142233	0.173834
C59	C	0.447884	-0.357765	-0.326157
C60	C	0.947884	0.142235	0.173843
C61	C	0.508976	-0.357768	-0.326153
C62	C	1.008976	0.142232	0.173847
C63	C	0.978005	-0.550711	-0.326137
C64	C	1.478005	-0.050711	0.173863
C65	C	0.978032	-0.633257	-0.326155
C66	C	1.478032	-0.133257	0.173845
C67	C	0.932873	-0.832718	-0.371344
C68	C	1.432873	-0.332718	0.128656
C69	C	0.916378	-0.882158	-0.309581
C70	C	1.416378	-0.382158	0.190419
C71	C	0.978099	-0.784387	-0.326164
C72	C	1.478099	-0.284387	0.173836
C73	C	0.994627	-0.882029	-0.387934
C74	C	1.494627	-0.382029	0.112066
C75	C	0.978162	-0.930373	-0.326178
C76	C	1.478162	-0.430373	0.173822
C77	C	0.961571	-0.832741	-0.264368
C78	C	1.461571	-0.332741	0.235632
C79	C	1.039849	-0.832607	-0.342762
C80	C	1.539849	-0.332607	0.157238
C81	C	1.023377	-0.882025	-0.280957
C82	C	1.523377	-0.382025	0.219043
C83	C	0.978061	-0.700289	-0.326157
C84	C	1.478061	-0.200289	0.173843
C85	C	0.978200	-1.014469	-0.326178
C86	C	1.478200	-0.514469	0.173822
C87	C	1.154630	-0.357774	-0.326171
C88	C	1.654630	0.142226	0.173829
C89	C	1.229862	-0.357780	-0.326180
C90	C	1.729862	0.142220	0.173820
C91	C	0.978117	-0.357708	-0.502691
C92	C	1.478117	0.142292	-0.002691
C93	C	0.978129	-0.357686	-0.577923
C94	C	1.478129	0.142314	-0.077923
C95	C	0.978187	-0.164054	-0.326175
C96	C	1.478187	0.335946	0.173825
C97	C	0.978230	-0.081508	-0.326186
C98	C	1.478230	0.418492	0.173814
C99	C	0.934876	-0.310179	-0.613268
C100	C	1.434876	0.189821	-0.113268
C101	C	0.934885	-0.310164	-0.683956
C102	C	1.434885	0.189836	-0.183956
C103	C	0.978152	-0.357654	-0.719299
C104	C	1.478152	0.142346	-0.219299
C105	C	1.021407	-0.405166	-0.683949
C106	C	1.521407	0.094834	-0.183949
C107	C	1.021394	-0.405184	-0.613262
C108	C	1.521394	0.094816	-0.113262
C109	C	1.021461	-0.405096	-0.969023
C110	C	1.521461	0.094904	-0.469023
C111	C	1.021472	-0.405074	-1.039715
C112	C	1.521472	0.094926	-0.539715
C113	C	0.934952	-0.310077	-1.039717
C114	C	1.434952	0.189923	-0.539717
C115	C	0.934939	-0.310095	-0.969030
C116	C	1.434939	0.189905	-0.469030
C117	C	0.978191	-0.357609	-0.933686
C118	C	1.478191	0.142391	-0.433686
C119	C	0.978180	-0.357626	-0.857038
C120	C	1.478180	0.142374	-0.357038
C121	C	0.978167	-0.357634	-0.795946
C122	C	1.478167	0.142366	-0.295946
C123	C	0.978096	-0.357757	-0.150292
C124	C	1.478096	0.142243	0.349708
C125	C	0.978215	-0.357570	-0.075061
C126	C	1.478215	0.142430	0.424939
H127	H	0.364667	-0.444058	-0.404562
H128	H	0.864667	0.055942	0.095438
O129	O	1.063445	-0.451229	-0.578853
O130	O	1.563445	0.048771	-0.078853
C131	C	1.107189	-0.408965	-0.537987
C132	C	1.607189	0.091035	-0.037987
H133	H	1.083347	-0.352684	-0.527402
H134	H	1.583347	0.147316	-0.027402
H135	H	1.157358	-0.400804	-0.565236
H136	H	1.657358	0.099196	-0.065236
C137	C	1.148691	-0.518973	-0.483838
C138	C	1.648691	-0.018973	0.016162
C139	C	1.119405	-0.449850	-0.470833
C140	C	1.619405	0.050150	0.029167
H141	H	1.156229	-0.544194	-0.442416
H142	H	1.656229	-0.044194	0.057584
H143	H	1.119222	-0.547448	-0.511372
H144	H	1.619222	-0.047448	-0.011372
H145	H	1.190495	-0.512163	-0.506547
H146	H	1.690495	-0.012163	-0.006547
H147	H	1.077598	-0.456662	-0.448132
H148	H	1.577598	0.043338	0.051868
H149	H	1.148867	-0.421378	-0.443294
H150	H	1.648867	0.078622	0.056706
H151	H	0.720427	-0.444041	-0.404530
H152	H	1.220427	0.055959	0.095470
O153	O	1.102118	-0.806585	-0.359409
O154	O	1.602118	-0.306585	0.140591
C155	C	1.127731	-0.763625	-0.305768
C156	C	1.627731	-0.263625	0.194232
H157	H	1.101849	-0.780555	-0.256708
H158	H	1.601849	-0.280555	0.243292
H159	H	1.117612	-0.702500	-0.316132
H160	H	1.617612	-0.202500	0.183868
C161	C	1.236128	-0.755602	-0.359700
C162	C	1.736128	-0.255602	0.140300
C163	C	1.204344	-0.776401	-0.299443
C164	C	1.704344	-0.276401	0.200557
H165	H	1.283388	-0.763480	-0.355800
H166	H	1.783388	-0.263480	0.144200
H167	H	1.218872	-0.784543	-0.395841
H168	H	1.718872	-0.284543	0.104159
H169	H	1.227689	-0.704667	-0.368331
H170	H	1.727689	-0.204667	0.131669
H171	H	1.212777	-0.827338	-0.290818
H172	H	1.712777	-0.327338	0.209182
H173	H	1.221603	-0.747469	-0.263301
H174	H	1.721603	-0.247469	0.236699
H175	H	0.899647	-0.271503	-0.584497
H176	H	1.399647	0.228497	-0.084497
O177	O	1.063414	-0.451223	-0.934592
O178	O	1.563414	0.048777	-0.434592
C179	C	1.054140	-0.441050	-0.864622
C180	C	1.554140	0.058950	-0.364622
H181	H	1.001916	-0.416726	-0.854963
H182	H	1.501916	0.083274	-0.354963
H183	H	1.094305	-0.401511	-0.844572
H184	H	1.594305	0.098489	-0.344572
C185	C	1.124440	-0.546079	-0.840188
C186	C	1.624440	-0.046079	-0.340188
C187	C	1.060296	-0.516210	-0.828324
C188	C	1.560296	-0.016210	-0.328324
H189	H	1.128240	-0.592440	-0.817797
H190	H	1.628240	-0.092440	-0.317797
H191	H	1.130691	-0.552931	-0.887328
H192	H	1.630691	-0.052931	-0.387328
H193	H	1.157903	-0.513123	-0.823480
H194	H	1.657903	-0.013123	-0.323480
H195	H	1.026834	-0.549161	-0.845040
H196	H	1.526834	-0.049161	-0.345040
H197	H	1.054039	-0.509365	-0.781186
H198	H	1.554039	-0.009365	-0.281186
H199	H	0.236422	-0.444064	-0.404574
H200	H	0.736422	0.055936	0.095426
H201	H	0.894571	-0.811067	-0.409498
H202	H	1.394571	-0.311067	0.090502
H203	H	0.592190	-0.271478	-0.247754
H204	H	1.092190	0.228522	0.252246
H205	H	0.899661	-0.271482	-0.712731
H206	H	1.399661	0.228518	-0.212731
H207	H	0.899709	-0.271421	-0.940257
H208	H	1.399709	0.228579	-0.440257
O209	O	1.063522	-0.451281	-1.073943
O210	O	1.563522	0.048719	-0.573943
C211	C	1.101707	-0.493212	-1.027592
C212	C	1.601707	0.006788	-0.527592
H213	H	1.073974	-0.495795	-0.977199
H214	H	1.573974	0.004205	-0.477199
H215	H	1.153128	-0.466029	-1.020084
H216	H	1.653128	0.033971	-0.520084
C217	C	1.145480	-0.569071	-1.117067
C218	C	1.645480	-0.069071	-0.617067
C219	C	1.111415	-0.572250	-1.055175
C220	C	1.611415	-0.072250	-0.555175
H221	H	1.151472	-0.617825	-1.134082
H222	H	1.651472	-0.117825	-0.634082
H223	H	1.119756	-0.540821	-1.148296
H224	H	1.619756	-0.040821	-0.648296
H225	H	1.188327	-0.546416	-1.110802
H226	H	1.688327	-0.046416	-0.610802
H227	H	1.068566	-0.594897	-1.061443
H228	H	1.568566	-0.094897	-0.561443
H229	H	1.137132	-0.600506	-1.023948
H230	H	1.637132	-0.100506	-0.523948
H231	H	0.947556	-0.811180	-0.212121
H232	H	1.447556	-0.311180	0.287879
H233	H	0.899732	-0.271390	-1.068502
H234	H	1.399732	0.228610	-0.568502
H235	H	1.056632	-0.443836	-0.712731
H236	H	1.556632	0.056164	-0.212731
H237	H	0.592193	-0.444043	-0.404545
H238	H	1.092193	0.055957	0.095455
H239	H	1.061650	-0.903539	-0.242711
H240	H	1.561650	-0.403539	0.257289
O241	O	0.726023	-0.263920	-0.241043
O242	O	1.226023	0.236080	0.258957
C243	C	0.766957	-0.216017	-0.279648
C244	C	1.266957	0.283983	0.220352
H245	H	0.745677	-0.211507	-0.332965
H246	H	1.245677	0.288493	0.167035
H247	H	0.820522	-0.238977	-0.281938
H248	H	1.320522	0.261023	0.218062
C249	C	0.794195	-0.144306	-0.181214
C250	C	1.294195	0.355694	0.318786
C251	C	0.768055	-0.138761	-0.246699
C252	C	1.268055	0.361239	0.253301
H253	H	0.794875	-0.096652	-0.160889
H254	H	1.294875	0.403348	0.339111
H255	H	0.766619	-0.176580	-0.155204
H256	H	1.266619	0.323420	0.344796
H257	H	0.838830	-0.163442	-0.183132
H258	H	1.338830	0.336558	0.316868
H259	H	0.723418	-0.119635	-0.244779
H260	H	1.223418	0.380365	0.255221
H261	H	0.795623	-0.106481	-0.272707
H262	H	1.295623	0.393519	0.227293
O263	O	0.230978	-0.263956	-0.240969
O264	O	0.730978	0.236044	0.259031
C265	C	0.277329	-0.221983	-0.202816
C266	C	0.777329	0.278017	0.297184
H267	H	0.327729	-0.219446	-0.230537
H268	H	0.827729	0.280554	0.269463
H269	H	0.284817	-0.249099	-0.151365
H270	H	0.784817	0.250901	0.348635
C271	C	0.187859	-0.146049	-0.159145
C272	C	0.687859	0.353951	0.340855
C273	C	0.249760	-0.142927	-0.193196
C274	C	0.749760	0.357073	0.306804
H275	H	0.170853	-0.097284	-0.153208
H276	H	0.670853	0.402716	0.346792
H277	H	0.156631	-0.174328	-0.184847
H278	H	0.656631	0.325672	0.315153
H279	H	0.194108	-0.168649	-0.116273
H280	H	0.694108	0.331351	0.383727
H281	H	0.243510	-0.120336	-0.236070
H282	H	0.743510	0.379664	0.263930
H283	H	0.280987	-0.114642	-0.167500
H284	H	0.780987	0.385358	0.332500
H285	H	0.364666	-0.271491	-0.247763
H286	H	0.864666	0.228509	0.252237
H287	H	0.864187	-0.903940	-0.295555
H288	H	1.364187	-0.403940	0.204445
O289	O	1.011361	-0.907946	-0.450193
O290	O	1.511361	-0.407946	0.049807
C291	C	1.070671	-0.950819	-0.445598
C292	C	1.570671	-0.450819	0.054402
H293	H	1.076712	-0.972138	-0.391750
H294	H	1.576712	-0.472138	0.108250
H295	H	1.116158	-0.915229	-0.459541
H296	H	1.616158	-0.415229	0.040459
C297	C	1.058434	-0.990745	-0.560620
C298	C	1.558434	-0.490745	-0.060620
C299	C	1.065850	-1.016935	-0.494484
C300	C	1.565850	-0.516935	0.005516
H301	H	1.055462	-1.031527	-0.590777
H302	H	1.555462	-0.531527	-0.090777
H303	H	1.018477	-0.961859	-0.563717
H304	H	1.518477	-0.461859	-0.063717
H305	H	1.096341	-0.961087	-0.572230
H306	H	1.596341	-0.461087	-0.072230
H307	H	1.027939	-1.046584	-0.482872
H308	H	1.527939	-0.546584	0.017128
H309	H	1.105801	-1.045828	-0.491386
H310	H	1.605801	-0.545828	0.008614
