data_functionalizedCrystal
_audit_creation_method	'MofGen! by Chris Wilmer'
_symmetry_space_group_name_H-M	'P1'
_symmetry_Int_Tables_number	1
_symmetry_cell_setting	triclinic
loop_
_symmetry_equiv_pos_as_xyz
  x,y,z
_cell_length_a	29.839134
_cell_length_b	19.805405
_cell_length_c	19.805399
_cell_angle_alpha	90.029301
_cell_angle_beta	89.971645
_cell_angle_gamma	89.978729
loop_
_atom_site_label
_atom_site_type_symbol
_atom_site_fract_x
_atom_site_fract_y
_atom_site_fract_z
Zn1	Zn	0.686795	0.269572	-0.382870
Zn2	Zn	1.020128	0.602905	-0.049537
Zn3	Zn	1.353461	0.936238	0.283797
Zn4	Zn	0.686738	0.382760	-0.269678
Zn5	Zn	1.020072	0.716093	0.063655
Zn6	Zn	1.353405	1.049427	0.396988
Zn7	Zn	0.611669	0.269580	-0.269677
Zn8	Zn	0.945003	0.602913	0.063656
Zn9	Zn	1.278336	0.936247	0.396989
Zn10	Zn	0.611645	0.382714	-0.382808
Zn11	Zn	0.944978	0.716047	-0.049475
Zn12	Zn	1.278312	1.049381	0.283859
O13	O	0.649212	0.326156	-0.326258
O14	O	0.982545	0.659490	0.007075
O15	O	1.315878	0.992823	0.340408
O16	O	0.749654	0.284602	-0.367882
O17	O	1.082988	0.617935	-0.034548
O18	O	1.416321	0.951269	0.298785
O19	O	0.676767	0.367769	-0.174962
O20	O	1.010100	0.701103	0.158372
O21	O	1.343433	1.034436	0.491705
O22	O	0.621669	0.174862	-0.284718
O23	O	0.955002	0.508196	0.048615
O24	O	1.288335	0.841529	0.381948
O25	O	0.749613	0.367761	-0.284720
O26	O	1.082946	0.701094	0.048613
O27	O	1.416280	1.034428	0.381947
O28	O	0.676863	0.174856	-0.367880
O29	O	1.010196	0.508189	-0.034547
O30	O	1.343530	0.841523	0.298786
O31	O	0.621614	0.284617	-0.174961
O32	O	0.954947	0.617950	0.158372
O33	O	1.288280	0.951283	0.491706
O34	O	0.548799	0.284572	-0.284658
O35	O	0.882132	0.617905	0.048675
O36	O	1.215466	0.951238	0.382009
O37	O	0.621627	0.367682	-0.477533
O38	O	0.954961	0.701016	-0.144199
O39	O	1.288294	1.034349	0.189134
O40	O	0.548781	0.367691	-0.367774
O41	O	0.882114	0.701024	-0.034441
O42	O	1.215448	1.034357	0.298892
O43	O	0.676840	0.284557	-0.477578
O44	O	1.010173	0.617891	-0.144245
O45	O	1.343506	0.951224	0.189088
O46	O	0.676743	0.477470	-0.284660
O47	O	1.010077	0.810804	0.048674
O48	O	1.343410	1.144137	0.382007
O49	O	0.621572	0.477437	-0.367775
O50	O	0.954906	0.810770	-0.034442
O51	O	1.288239	1.144103	0.298891
C52	C	0.532489	0.326128	-0.326210
C53	C	0.865823	0.659461	0.007124
C54	C	1.199156	0.992794	0.340457
C55	C	0.482555	0.326132	-0.326205
C56	C	0.815888	0.659465	0.007129
C57	C	1.149221	0.992798	0.340462
C58	C	0.649161	0.502012	-0.326226
C59	C	0.982495	0.835346	0.007108
C60	C	1.315828	1.168679	0.340441
C61	C	0.649181	0.577244	-0.326234
C62	C	0.982514	0.910578	0.007099
C63	C	1.315847	1.243911	0.340432
C64	C	0.649237	0.326114	-0.502801
C65	C	0.982570	0.659447	-0.169468
C66	C	1.315904	0.992780	0.163865
C67	C	0.649248	0.326096	-0.578033
C68	C	0.982581	0.659429	-0.244700
C69	C	1.315914	0.992762	0.088633
C70	C	0.172912	0.369500	-0.369484
C71	C	0.506245	0.702834	-0.036151
C72	C	0.839578	1.036167	0.297183
C73	C	-0.014761	0.369519	-0.369514
C74	C	0.318572	0.702853	-0.036181
C75	C	0.651905	1.036186	0.297152
O76	O	-0.039026	0.406361	-0.406283
O77	O	0.294307	0.739695	-0.072950
O78	O	0.627641	1.073028	0.260384
N79	N	-0.038230	0.326181	-0.326309
N80	N	0.295103	0.659515	0.007024
N81	N	0.628436	0.992848	0.340357
C82	C	-0.014778	0.282832	-0.283097
C83	C	0.318555	0.616165	0.050236
C84	C	0.651889	0.949499	0.383570
O85	O	-0.039046	0.245966	-0.246354
O86	O	0.294287	0.579299	0.086979
O87	O	0.627621	0.912632	0.420312
C88	C	0.172894	0.282810	-0.283071
C89	C	0.506228	0.616143	0.050262
C90	C	0.839561	0.949477	0.383596
C91	C	0.196361	0.326156	-0.326274
C92	C	0.529694	0.659489	0.007060
C93	C	0.863027	0.992823	0.340393
C94	C	0.196378	0.412842	-0.412684
C95	C	0.529711	0.746176	-0.079351
C96	C	0.863045	1.079509	0.253983
C97	C	0.243294	0.412840	-0.412673
C98	C	0.576627	0.746173	-0.079340
C99	C	0.909960	1.079506	0.253993
C100	C	0.266743	0.369495	-0.369463
C101	C	0.600076	0.702829	-0.036130
C102	C	0.933409	1.036162	0.297204
C103	C	0.243276	0.326153	-0.326263
C104	C	0.576609	0.659487	0.007070
C105	C	0.909943	0.992820	0.340403
C106	C	0.196346	0.239458	-0.239863
C107	C	0.529679	0.572791	0.093471
C108	C	0.863012	0.906125	0.426804
C109	C	0.243267	0.239455	-0.239861
C110	C	0.576600	0.572788	0.093472
C111	C	0.909933	0.906122	0.426806
C112	C	0.266733	0.282801	-0.283064
C113	C	0.600066	0.616134	0.050269
C114	C	0.933400	0.949468	0.383603
C115	C	0.313641	0.282806	-0.283042
C116	C	0.646974	0.616140	0.050291
C117	C	0.980307	0.949473	0.383624
N118	N	0.337109	0.326144	-0.326247
N119	N	0.670443	0.659478	0.007086
N120	N	1.003776	0.992811	0.340420
C121	C	0.313660	0.369489	-0.369457
C122	C	0.646994	0.702822	-0.036124
C123	C	0.980327	1.036156	0.297209
C124	C	-0.113309	0.282848	-0.283113
C125	C	0.220025	0.616181	0.050220
C126	C	0.553358	0.949514	0.383554
C127	C	-0.160226	0.282854	-0.283119
C128	C	0.173107	0.616187	0.050215
C129	C	0.506440	0.949520	0.383548
C130	C	-0.160207	0.369541	-0.369537
C131	C	0.173127	0.702874	-0.036203
C132	C	0.506460	1.036207	0.297130
C133	C	-0.113288	0.369537	-0.369527
C134	C	0.220045	0.702871	-0.036194
C135	C	0.553379	1.036204	0.297139
C136	C	-0.089840	0.326186	-0.326318
C137	C	0.243494	0.659519	0.007016
C138	C	0.576827	0.992852	0.340349
C139	C	0.412186	0.369481	-0.369432
C140	C	0.745520	0.702814	-0.036098
C141	C	1.078853	1.036147	0.297235
C142	C	0.459106	0.369476	-0.369415
C143	C	0.792439	0.702809	-0.036082
C144	C	1.125772	1.036143	0.297251
C145	C	0.459082	0.282787	-0.283000
C146	C	0.792415	0.616121	0.050334
C147	C	1.125749	0.949454	0.383667
C148	C	0.412166	0.282794	-0.283013
C149	C	0.745500	0.616127	0.050320
C150	C	1.078833	0.949461	0.383653
C151	C	0.388720	0.326143	-0.326235
C152	C	0.722053	0.659476	0.007099
C153	C	1.055386	0.992810	0.340432
O154	O	0.337934	0.245978	-0.246298
O155	O	0.671267	0.579312	0.087035
O156	O	1.004601	0.912645	0.420369
O157	O	0.337936	0.406339	-0.406205
O158	O	0.671270	0.739673	-0.072872
O159	O	1.004603	1.073006	0.260461
C160	C	0.125996	0.369503	-0.369495
C161	C	0.459330	0.702836	-0.036161
C162	C	0.792663	1.036170	0.297172
C163	C	0.102530	0.326161	-0.326295
C164	C	0.435863	0.659494	0.007038
C165	C	0.769196	0.992828	0.340372
C166	C	0.125979	0.282817	-0.283084
C167	C	0.459312	0.616150	0.050249
C168	C	0.792645	0.949483	0.383582
C169	C	0.055612	0.326167	-0.326300
C170	C	0.388945	0.659501	0.007033
C171	C	0.722279	0.992834	0.340366
C172	C	0.032163	0.369512	-0.369511
C173	C	0.365496	0.702845	-0.036178
C174	C	0.698830	1.036178	0.297156
C175	C	0.055632	0.412850	-0.412716
C176	C	0.388965	0.746183	-0.079382
C177	C	0.722298	1.079517	0.253951
C178	C	0.102547	0.412847	-0.412705
C179	C	0.435881	0.746181	-0.079372
C180	C	0.769214	1.079514	0.253962
C181	C	0.102510	0.239478	-0.239880
C182	C	0.435843	0.572812	0.093454
C183	C	0.769177	0.906145	0.426787
C184	C	0.055594	0.239485	-0.239893
C185	C	0.388928	0.572818	0.093440
C186	C	0.722261	0.906152	0.426773
C187	C	0.032145	0.282830	-0.283104
C188	C	0.365479	0.616163	0.050230
C189	C	0.698812	0.949496	0.383563
C190	C	0.766390	0.326186	-0.326308
C191	C	1.099723	0.659519	0.007025
C192	C	1.433057	0.992852	0.340359
C193	C	0.816325	0.326198	-0.326329
C194	C	1.149658	0.659532	0.007004
C195	C	1.482991	0.992865	0.340338
C196	C	0.649275	0.149614	-0.326306
C197	C	0.982608	0.482947	0.007027
C198	C	1.315941	0.816280	0.340361
C199	C	0.649302	0.074382	-0.326326
C200	C	0.982635	0.407715	0.007007
C201	C	1.315968	0.741048	0.340340
C202	C	0.677936	0.612584	-0.283001
C203	C	1.011269	0.945917	0.050332
C204	C	1.344603	1.279250	0.383665
C205	C	0.677955	0.683272	-0.283016
C206	C	1.011288	1.016605	0.050317
C207	C	1.344622	1.349939	0.383650
C208	C	0.649216	0.718620	-0.326261
C209	C	0.982550	1.051953	0.007072
C210	C	1.315883	1.385287	0.340405
C211	C	0.620460	0.683276	-0.369499
C212	C	0.953793	1.016609	-0.036166
C213	C	1.287126	1.349942	0.297168
C214	C	0.620443	0.612589	-0.369487
C215	C	0.953777	0.945922	-0.036154
C216	C	1.287110	1.279255	0.297180
C217	C	0.620526	0.968349	-0.369549
C218	C	0.953859	1.301682	-0.036216
C219	C	1.287193	1.635016	0.297117
C220	C	0.620544	1.039041	-0.369557
C221	C	0.953877	1.372374	-0.036223
C222	C	1.287210	1.705708	0.297110
C223	C	0.678038	1.039033	-0.283079
C224	C	1.011371	1.372366	0.050255
C225	C	1.344704	1.705699	0.383588
C226	C	0.678021	0.968345	-0.283066
C227	C	1.011355	1.301679	0.050267
C228	C	1.344688	1.635012	0.383600
C229	C	0.649267	0.933007	-0.326306
C230	C	0.982600	1.266341	0.007027
C231	C	1.315933	1.599674	0.340360
C232	C	0.649247	0.856359	-0.326291
C233	C	0.982580	1.189692	0.007043
C234	C	1.315914	1.523026	0.340376
C235	C	0.649233	0.795267	-0.326274
C236	C	0.982567	1.128600	0.007059
C237	C	1.315900	1.461934	0.340392
C238	C	0.677997	0.282810	-0.613402
C239	C	1.011331	0.616144	-0.280069
C240	C	1.344664	0.949477	0.053264
C241	C	0.678002	0.282791	-0.684091
C242	C	1.011335	0.616124	-0.350757
C243	C	1.344669	0.949457	-0.017424
C244	C	0.649259	0.326060	-0.719409
C245	C	0.982592	0.659394	-0.386076
C246	C	1.315926	0.992727	-0.052742
C247	C	0.620506	0.369348	-0.684035
C248	C	0.953839	0.702681	-0.350702
C249	C	1.287173	1.036014	-0.017368
C250	C	0.620500	0.369363	-0.613348
C251	C	0.953833	0.702697	-0.280014
C252	C	1.287166	1.036030	0.053319
C253	C	0.620531	0.369284	-0.969108
C254	C	0.953865	0.702618	-0.635775
C255	C	1.287198	1.035951	-0.302442
C256	C	0.620541	0.369267	-1.039801
C257	C	0.953874	0.702600	-0.706467
C258	C	1.287208	1.035934	-0.373134
C259	C	0.678034	0.282712	-1.039851
C260	C	1.011367	0.616045	-0.706518
C261	C	1.344701	0.949378	-0.373185
C262	C	0.678027	0.282727	-0.969164
C263	C	1.011361	0.616061	-0.635831
C264	C	1.344694	0.949394	-0.302498
C265	C	0.649273	0.326012	-0.933796
C266	C	0.982606	0.659345	-0.600463
C267	C	1.315940	0.992679	-0.267130
C268	C	0.649268	0.326032	-0.857148
C269	C	0.982601	0.659365	-0.523815
C270	C	1.315934	0.992698	-0.190481
C271	C	0.649266	0.326044	-0.796056
C272	C	0.982599	0.659378	-0.462723
C273	C	1.315933	0.992711	-0.129389
C274	C	0.649213	0.326150	-0.150402
C275	C	0.982546	0.659483	0.182931
C276	C	1.315879	0.992817	0.516264
C277	C	0.649289	0.325978	-0.075171
C278	C	0.982622	0.659311	0.258162
C279	C	1.315956	0.992644	0.591496
H280	H	0.393101	0.404778	-0.404628
H281	H	0.726435	0.738111	-0.071295
H282	H	1.059768	1.071445	0.262039
H283	H	0.177291	0.448139	-0.447875
H284	H	0.510624	0.781472	-0.114541
H285	H	0.843958	1.114805	0.218792
O286	O	0.592487	0.578185	-0.411390
O287	O	0.925821	0.911518	-0.078056
O288	O	1.259154	1.244852	0.255277
C289	C	0.563468	0.537365	-0.372804
C290	C	0.896801	0.870698	-0.039470
C291	C	1.230135	1.204032	0.293863
H292	H	0.579329	0.526790	-0.321533
H293	H	0.912662	0.860123	0.011800
H294	H	1.245995	1.193457	0.345133
H295	H	0.557426	0.487647	-0.400358
H296	H	0.890759	0.820980	-0.067025
H297	H	1.224093	1.154314	0.266308
H298	H	0.530184	0.564648	-0.365318
H299	H	0.863518	0.897981	-0.031985
H300	H	1.196851	1.231315	0.301349
H301	H	0.036531	0.448145	-0.447897
H302	H	0.369865	0.781478	-0.114564
H303	H	0.703198	1.114811	0.218769
H304	H	0.393059	0.247499	-0.247833
H305	H	0.726392	0.580833	0.085501
H306	H	1.059726	0.914166	0.418834
O307	O	0.266064	0.454869	-0.454745
O308	O	0.599398	0.788202	-0.121411
O309	O	0.932731	1.121536	0.211922
C310	C	0.254613	0.440169	-0.522227
C311	C	0.587947	0.773502	-0.188894
C312	C	0.921280	1.106835	0.144440
H313	H	0.241732	0.386099	-0.525736
H314	H	0.575065	0.719433	-0.192403
H315	H	0.908399	1.052766	0.140931
H316	H	0.285476	0.446042	-0.555661
H317	H	0.618809	0.779376	-0.222327
H318	H	0.952142	1.112709	0.111006
H319	H	0.227374	0.476476	-0.539853
H320	H	0.560707	0.809809	-0.206520
H321	H	0.894040	1.143143	0.126813
O322	O	0.592626	0.411513	-0.579014
O323	O	0.925959	0.744846	-0.245681
O324	O	1.259292	1.078180	0.087652
C325	C	0.602418	0.478969	-0.596285
C326	C	0.935751	0.812302	-0.262952
C327	C	1.269085	1.145636	0.070382
H328	H	0.638307	0.482385	-0.615742
H329	H	0.971640	0.815719	-0.282408
H330	H	1.304974	1.149052	0.050925
H331	H	0.598538	0.512417	-0.549785
H332	H	0.931872	0.845750	-0.216451
H333	H	1.265205	1.179084	0.116882
H334	H	0.578328	0.496652	-0.637293
H335	H	0.911661	0.829986	-0.303960
H336	H	1.244994	1.163319	0.029374
H337	H	0.701453	1.067813	-0.247873
H338	H	1.034786	1.401147	0.085460
H339	H	1.368120	1.734480	0.418794
H340	H	0.262356	0.204148	-0.204678
H341	H	0.595689	0.537481	0.128655
H342	H	0.929022	0.870815	0.461989
H343	H	0.597112	0.939582	-0.404755
H344	H	0.930445	1.272916	-0.071422
H345	H	1.263779	1.606249	0.261911
O346	O	0.705934	0.240714	-0.579202
O347	O	1.039267	0.574047	-0.245869
O348	O	1.372600	0.907380	0.087465
C349	C	0.731317	0.202516	-0.625581
C350	C	1.064650	0.535850	-0.292248
C351	C	1.397983	0.869183	0.041085
H352	H	0.712920	0.200158	-0.675960
H353	H	1.046254	0.533491	-0.342627
H354	H	1.379587	0.866825	-0.009294
H355	H	0.736126	0.149193	-0.605177
H356	H	1.069459	0.482526	-0.271843
H357	H	1.402793	0.815860	0.061490
H358	H	0.765429	0.227309	-0.633111
H359	H	1.098762	0.560642	-0.299778
H360	H	1.432095	0.893975	0.033556
H361	H	0.597062	0.712062	-0.404713
H362	H	0.930395	1.045395	-0.071380
H363	H	1.263729	1.378728	0.261954
H364	H	0.597124	0.404539	-0.940320
H365	H	0.930458	0.737873	-0.606987
H366	H	1.263791	1.071206	-0.273654
O367	O	0.592613	1.073274	-0.411635
O368	O	0.925947	1.406608	-0.078302
O369	O	1.259280	1.739941	0.255031
C370	C	0.567223	1.026927	-0.449788
C371	C	0.900556	1.360261	-0.116454
C372	C	1.233890	1.693594	0.216879
H373	H	0.585610	0.976516	-0.452154
H374	H	0.918944	1.309850	-0.118820
H375	H	1.252277	1.643183	0.214513
H376	H	0.562419	1.047325	-0.503111
H377	H	0.895752	1.380658	-0.169777
H378	H	1.229086	1.713991	0.163556
H379	H	0.533109	1.019464	-0.424951
H380	H	0.866442	1.352797	-0.091617
H381	H	1.199776	1.686130	0.241716
O382	O	0.481796	0.240665	-0.240960
O383	O	0.815129	0.573999	0.092373
O384	O	1.148462	0.907332	0.425706
C385	C	0.451026	0.202395	-0.202839
C386	C	0.784360	0.535728	0.130495
C387	C	1.117693	0.869062	0.463828
H388	H	0.417573	0.230112	-0.200447
H389	H	0.750906	0.563445	0.132887
H390	H	1.084239	0.896779	0.466220
H391	H	0.464565	0.195106	-0.149522
H392	H	0.797899	0.528440	0.183811
H393	H	1.131232	0.861773	0.517144
H394	H	0.446060	0.151022	-0.227719
H395	H	0.779394	0.484355	0.105614
H396	H	1.112727	0.817688	0.438948
O397	O	-0.182940	0.411610	-0.411609
O398	O	0.150393	0.744943	-0.078276
O399	O	0.483727	1.078277	0.255057
C400	C	-0.171457	0.396885	-0.479094
C401	C	0.161876	0.730218	-0.145761
C402	C	0.495210	1.063552	0.187573
H403	H	-0.137384	0.370870	-0.480539
H404	H	0.195950	0.704203	-0.147206
H405	H	0.529283	1.037537	0.186127
H406	H	-0.169855	0.445769	-0.509363
H407	H	0.163478	0.779102	-0.176030
H408	H	0.496811	1.112435	0.157304
H409	H	-0.197845	0.362110	-0.501949
H410	H	0.135488	0.695444	-0.168616
H411	H	0.468821	1.028777	0.164718
H412	H	0.036492	0.204188	-0.204706
H413	H	0.369825	0.537522	0.128627
H414	H	0.703159	0.870855	0.461961
O415	O	0.481831	0.411605	-0.411450
O416	O	0.815164	0.744938	-0.078117
O417	O	1.148498	1.078271	0.255217
C418	C	0.451070	0.449870	-0.449579
C419	C	0.784403	0.783204	-0.116246
C420	C	1.117736	1.116537	0.217088
H421	H	0.417633	0.422149	-0.451977
H422	H	0.750966	0.755483	-0.118644
H423	H	1.084300	1.088816	0.214690
H424	H	0.464645	0.457160	-0.502893
H425	H	0.797978	0.790493	-0.169559
H426	H	1.131311	1.123826	0.163774
H427	H	0.446057	0.501244	-0.424701
H428	H	0.779390	0.834577	-0.091367
H429	H	1.112724	1.167911	0.241966
H430	H	0.701414	0.247545	-0.712885
H431	H	1.034747	0.580878	-0.379552
H432	H	1.368081	0.914212	-0.046219
O433	O	0.705962	0.240631	-0.934962
O434	O	1.039296	0.573964	-0.601628
O435	O	1.372629	0.907298	-0.268295
C436	C	0.731347	0.202432	-0.981338
C437	C	1.064680	0.535765	-0.648005
C438	C	1.398014	0.869099	-0.314672
H439	H	0.712952	0.200073	-1.031718
H440	H	1.046286	0.533406	-0.698385
H441	H	1.379619	0.866740	-0.365052
H442	H	0.736155	0.149109	-0.960932
H443	H	1.069488	0.482442	-0.627598
H444	H	1.402822	0.815776	-0.294265
H445	H	0.765459	0.227223	-0.988866
H446	H	1.098793	0.560557	-0.655532
H447	H	1.432126	0.893890	-0.322199
H448	H	0.701370	0.712042	-0.247811
H449	H	1.034704	1.045376	0.085522
H450	H	1.368037	1.378709	0.418856
H451	H	0.701445	0.247465	-1.068656
H452	H	1.034779	0.580798	-0.735323
H453	H	1.368112	0.914132	-0.401990
O454	O	-0.182949	0.240689	-0.241124
O455	O	0.150384	0.574022	0.092209
O456	O	0.483717	0.907356	0.425542
C457	C	-0.152186	0.202445	-0.202977
C458	C	0.181147	0.535779	0.130356
C459	C	0.514481	0.869112	0.463690
H460	H	-0.118731	0.200139	-0.230704
H461	H	0.214602	0.533473	0.102629
H462	H	0.547935	0.866806	0.435963
H463	H	-0.165731	0.149107	-0.195855
H464	H	0.167602	0.482440	0.137478
H465	H	0.500936	0.815774	0.470812
H466	H	-0.147220	0.227163	-0.151526
H467	H	0.186113	0.560497	0.181808
H468	H	0.519447	0.893830	0.515141
O469	O	0.592574	0.411320	-1.074005
O470	O	0.925907	0.744653	-0.740672
O471	O	1.259240	1.077987	-0.407338
C472	C	0.567200	0.449539	-1.027632
C473	C	0.900533	0.782872	-0.694298
C474	C	1.233867	1.116205	-0.360965
H475	H	0.565648	0.421827	-0.977250
H476	H	0.898982	0.755161	-0.643916
H477	H	1.232315	1.088494	-0.310583
H478	H	0.531804	0.456739	-1.048040
H479	H	0.865137	0.790073	-0.714706
H480	H	1.198470	1.123406	-0.381373
H481	H	0.583628	0.500953	-1.020108
H482	H	0.916962	0.834286	-0.686774
H483	H	1.250295	1.167619	-0.353441
O484	O	0.592649	0.411451	-0.718372
O485	O	0.925982	0.744784	-0.385039
O486	O	1.259315	1.078118	-0.051705
C487	C	0.618213	0.455155	-0.759273
C488	C	0.951547	0.788488	-0.425940
C489	C	1.284880	1.121821	-0.092606
H490	H	0.653593	0.459351	-0.737987
H491	H	0.986926	0.792684	-0.404654
H492	H	1.320259	1.126017	-0.071320
H493	H	0.601946	0.507239	-0.760052
H494	H	0.935279	0.840572	-0.426718
H495	H	1.268612	1.173905	-0.093385
H496	H	0.619775	0.434216	-0.812852
H497	H	0.953108	0.767549	-0.479519
H498	H	1.286441	1.100882	-0.146186
O499	O	-0.090445	0.411545	-0.411532
O500	O	0.242888	0.744878	-0.078198
O501	O	0.576222	1.078211	0.255135
C502	C	-0.063293	0.373063	-0.455331
C503	C	0.270040	0.706397	-0.121997
C504	C	0.603374	1.039730	0.211336
H505	H	-0.056260	0.321738	-0.431552
H506	H	0.277073	0.655071	-0.098218
H507	H	0.610407	0.988405	0.235115
H508	H	-0.030303	0.400643	-0.464354
H509	H	0.303030	0.733976	-0.131020
H510	H	0.636363	1.067309	0.202313
H511	H	-0.081358	0.365693	-0.505502
H512	H	0.251975	0.699026	-0.172169
H513	H	0.585309	1.032359	0.161165
H514	H	-0.094221	0.247545	-0.247923
H515	H	0.239112	0.580878	0.085410
H516	H	0.572445	0.914212	0.418743
O517	O	0.173627	0.197283	-0.197877
O518	O	0.506961	0.530617	0.135457
O519	O	0.840294	0.863950	0.468790
C520	C	0.204394	0.159040	-0.159735
C521	C	0.537727	0.492373	0.173598
C522	C	0.871061	0.825706	0.506931
H523	H	0.237849	0.156743	-0.187463
H524	H	0.571182	0.490077	0.145870
H525	H	0.904515	0.823410	0.479203
H526	H	0.190853	0.105698	-0.152621
H527	H	0.524187	0.439031	0.180713
H528	H	0.857520	0.772365	0.514046
H529	H	0.209359	0.183751	-0.108281
H530	H	0.542692	0.517085	0.225053
H531	H	0.876025	0.850418	0.558386
O532	O	0.125270	0.454972	-0.454740
O533	O	0.458603	0.788306	-0.121406
O534	O	0.791936	1.121639	0.211927
C535	C	0.094504	0.493236	-0.492863
C536	C	0.427837	0.826570	-0.159530
C537	C	0.761171	1.159903	0.173803
H538	H	0.061068	0.465513	-0.495255
H539	H	0.394401	0.798846	-0.161922
H540	H	0.727735	1.132180	0.171411
H541	H	0.108075	0.500526	-0.546179
H542	H	0.441408	0.833859	-0.212846
H543	H	0.774741	1.167193	0.120487
H544	H	0.089492	0.544610	-0.467985
H545	H	0.422826	0.877943	-0.134651
H546	H	0.756159	1.211276	0.198682
H547	H	0.701336	0.583808	-0.247783
H548	H	1.034670	0.917142	0.085550
H549	H	1.368003	1.250475	0.418883
O550	O	0.125215	0.197351	-0.197838
O551	O	0.458548	0.530684	0.135496
O552	O	0.791882	0.864018	0.468829
C553	C	0.094435	0.159092	-0.159724
C554	C	0.427768	0.492425	0.173609
C555	C	0.761102	0.825759	0.506942
H556	H	0.060985	0.186819	-0.157346
H557	H	0.394318	0.520153	0.175988
H558	H	0.727651	0.853486	0.509321
H559	H	0.107965	0.151802	-0.106403
H560	H	0.441298	0.485135	0.226930
H561	H	0.774632	0.818469	0.560264
H562	H	0.089466	0.107719	-0.184603
H563	H	0.422799	0.441052	0.148730
H564	H	0.756133	0.774385	0.482063
H565	H	0.701422	0.939567	-0.247850
H566	H	1.034755	1.272901	0.085483
H567	H	1.368088	1.606234	0.418817
