data_functionalizedCrystal
_audit_creation_method	'MofGen! by Chris Wilmer'
_symmetry_space_group_name_H-M	'P1'
_symmetry_Int_Tables_number	1
_symmetry_cell_setting	triclinic
loop_
_symmetry_equiv_pos_as_xyz
  x,y,z
_cell_length_a	12.645331
_cell_length_b	18.050589
_cell_length_c	12.645323
_cell_angle_alpha	89.972583
_cell_angle_beta	89.978207
_cell_angle_gamma	90.027200
loop_
_atom_site_label
_atom_site_type_symbol
_atom_site_fract_x
_atom_site_fract_y
_atom_site_fract_z
Zn1	Zn	1.620644	-0.295659	-0.599442
Zn2	Zn	2.120644	0.204341	-0.099442
Zn3	Zn	1.620496	-0.419863	-0.422180
Zn4	Zn	2.120496	0.080137	0.077820
Zn5	Zn	1.443362	-0.295689	-0.422186
Zn6	Zn	1.943362	0.204311	0.077814
Zn7	Zn	1.443308	-0.419810	-0.599396
Zn8	Zn	1.943308	0.080190	-0.099396
O9	O	1.531953	-0.357755	-0.510801
O10	O	2.031953	0.142245	-0.010801
O11	O	1.768972	-0.312145	-0.575945
O12	O	2.268972	0.187855	-0.075945
O13	O	1.596959	-0.403425	-0.273834
O14	O	2.096959	0.096575	0.226166
O15	O	1.466963	-0.191760	-0.445722
O16	O	1.966963	0.308240	0.054278
O17	O	1.768863	-0.403397	-0.445711
O18	O	2.268863	0.096603	0.054289
O19	O	1.597212	-0.191739	-0.575951
O20	O	2.097212	0.308261	-0.075951
O21	O	1.466819	-0.312195	-0.273838
O22	O	1.966819	0.187805	0.226162
O23	O	1.295007	-0.312144	-0.445677
O24	O	1.795007	0.187856	0.054323
O25	O	1.466872	-0.403307	-0.747749
O26	O	1.966872	0.096693	-0.247749
O27	O	1.294968	-0.403335	-0.575872
O28	O	1.794968	0.096665	-0.075872
O29	O	1.597160	-0.312094	-0.747783
O30	O	2.097160	0.187906	-0.247783
O31	O	1.596907	-0.523780	-0.445666
O32	O	2.096907	-0.023780	0.054334
O33	O	1.466728	-0.523741	-0.575866
O34	O	1.966728	-0.023741	-0.075866
C35	C	1.256523	-0.357737	-0.510770
C36	C	1.756523	0.142263	-0.010770
C37	C	1.138693	-0.357748	-0.510783
C38	C	1.638693	0.142252	-0.010783
C39	C	0.971118	-0.300116	-0.429329
C40	C	1.471118	0.199884	0.070671
C41	C	1.093678	-0.300265	-0.428970
C42	C	1.593678	0.199735	0.071030
C43	C	1.094153	-0.435982	-0.480267
C44	C	1.594153	0.064018	0.019733
C45	C	0.971554	-0.435667	-0.479711
C46	C	1.471554	0.064333	0.020289
C47	C	0.971547	-0.337891	-0.623067
C48	C	1.471547	0.162109	-0.123067
C49	C	1.094153	-0.336143	-0.622443
C50	C	1.594153	0.163857	-0.122443
C51	C	1.531825	-0.550707	-0.510784
C52	C	2.031825	-0.050707	-0.010784
C53	C	1.531867	-0.633253	-0.510811
C54	C	2.031867	-0.133253	-0.010811
C55	C	1.461145	-0.832710	-0.581589
C56	C	1.961145	-0.332710	-0.081589
C57	C	1.435300	-0.882154	-0.484854
C58	C	1.935300	-0.382154	0.015146
C59	C	1.531971	-0.784383	-0.510825
C60	C	2.031971	-0.284383	-0.010825
C61	C	1.557868	-0.882021	-0.607571
C62	C	2.057868	-0.382021	-0.107571
C63	C	1.532070	-0.930368	-0.510847
C64	C	2.032070	-0.430368	-0.010847
C65	C	1.506075	-0.832741	-0.414039
C66	C	2.006075	-0.332741	0.085961
C67	C	1.628688	-0.832603	-0.536821
C68	C	2.128688	-0.332603	-0.036821
C69	C	1.602880	-0.882025	-0.440020
C70	C	2.102880	-0.382025	0.059980
C71	C	1.531912	-0.700285	-0.510814
C72	C	2.031912	-0.200285	-0.010814
C73	C	1.532129	-1.014465	-0.510847
C74	C	2.032129	-0.514465	-0.010847
C75	C	1.808458	-0.357773	-0.510832
C76	C	2.308458	0.142227	-0.010832
C77	C	1.926288	-0.357781	-0.510846
C78	C	2.426288	0.142219	-0.010846
C79	C	1.532027	-0.357691	-0.787307
C80	C	2.032027	0.142309	-0.287307
C81	C	1.532058	-0.357664	-0.905137
C82	C	2.032058	0.142336	-0.405137
C83	C	1.532110	-0.164049	-0.510842
C84	C	2.032110	0.335951	-0.010842
C85	C	1.532177	-0.081504	-0.510859
C86	C	2.032177	0.418496	-0.010859
C87	C	1.450099	-0.415034	-0.949997
C88	C	1.950099	0.084966	-0.449997
C89	C	1.449810	-0.414818	-1.072557
C90	C	1.949810	0.085182	-0.572557
C91	C	1.502209	-0.279273	-1.073040
C92	C	2.002209	0.220727	-0.573040
C93	C	1.501582	-0.279651	-0.950442
C94	C	2.001582	0.220349	-0.450442
C95	C	1.644141	-0.377902	-0.950327
C96	C	2.144141	0.122098	-0.450327
C97	C	1.643572	-0.379582	-1.072934
C98	C	2.143572	0.120418	-0.572934
C99	C	1.531940	-0.357765	-0.235371
C100	C	2.031940	0.142235	0.264629
C101	C	1.532114	-0.357583	-0.117542
C102	C	2.032114	0.142417	0.382458
H103	H	0.941669	-0.241928	-0.448251
H104	H	1.441669	0.258072	0.051749
Cl105	Cl	0.923469	-0.320172	-0.301693
Cl106	Cl	1.423469	0.179828	0.198307
H107	H	1.367519	-0.401782	-0.919185
H108	H	1.867519	0.098218	-0.419185
H109	H	1.558703	-0.235432	-0.920765
H110	H	2.058703	0.264568	-0.420765
Cl111	Cl	1.377149	-0.252341	-1.120435
Cl112	Cl	1.877149	0.247659	-0.620435
H113	H	1.419665	-0.262527	-0.921844
H114	H	1.919665	0.237473	-0.421844
H115	H	1.122954	-0.313411	-0.345809
H116	H	1.622954	0.186589	0.154191
Cl117	Cl	1.678403	-0.468564	-1.117839
Cl118	Cl	2.178403	0.031436	-0.617839
Cl119	Cl	1.309087	-0.915757	-0.450909
Cl120	Cl	1.809087	-0.415757	0.049091
H121	H	1.468478	-0.472879	-1.102646
H122	H	1.968478	0.027121	-0.602646
Cl123	Cl	1.695422	-0.915248	-0.347540
Cl124	Cl	2.195422	-0.415248	0.152460
Cl125	Cl	0.927318	-0.461705	-0.353048
Cl126	Cl	1.427318	0.038295	0.146952
Cl127	Cl	1.686257	-0.464611	-0.902605
Cl128	Cl	2.186257	0.035389	-0.402605
Cl129	Cl	1.591625	-0.915445	-0.733874
Cl130	Cl	2.091625	-0.415445	-0.233874
H131	H	1.707891	-0.340845	-1.103559
H132	H	2.207891	0.159155	-0.603559
H133	H	1.468530	-0.473299	-0.920520
H134	H	1.968530	0.026701	-0.420520
Cl135	Cl	1.140179	-0.210696	-0.458497
Cl136	Cl	1.640179	0.289304	0.041503
H137	H	1.705201	-0.336114	-0.921324
H138	H	2.205201	0.163886	-0.421324
Cl139	Cl	0.925761	-0.504251	-0.567371
Cl140	Cl	1.425761	-0.004251	-0.067371
Cl141	Cl	1.139153	-0.504092	-0.569063
Cl142	Cl	1.639153	-0.004092	-0.069063
Cl143	Cl	1.472173	-0.799463	-0.287697
Cl144	Cl	1.972173	-0.299463	0.212303
Cl145	Cl	1.139129	-0.247264	-0.657986
Cl146	Cl	1.639129	0.252736	-0.157986
H147	H	1.710414	-0.810823	-0.558835
H148	H	2.210414	-0.310823	-0.058835
H149	H	1.560093	-0.235335	-1.102177
H150	H	2.060093	0.264665	-0.602177
Cl151	Cl	0.923873	-0.251348	-0.665913
Cl152	Cl	1.423873	0.248652	-0.165913
Cl153	Cl	1.141470	-0.462473	-0.354962
Cl154	Cl	1.641470	0.037527	0.145038
Cl155	Cl	1.141459	-0.396262	-0.721234
Cl156	Cl	1.641459	0.103738	-0.221234
Cl157	Cl	0.926787	-0.402735	-0.716842
Cl158	Cl	1.426787	0.097265	-0.216842
H159	H	1.401162	-0.811055	-0.641347
H160	H	1.901162	-0.311055	-0.141347
Cl161	Cl	1.321600	-0.394097	-1.117843
Cl162	Cl	1.821600	0.105903	-0.617843
