data_functionalizedCrystal
_audit_creation_method	'MofGen! by Chris Wilmer'
_symmetry_space_group_name_H-M	'P1'
_symmetry_Int_Tables_number	1
_symmetry_cell_setting	triclinic
loop_
_symmetry_equiv_pos_as_xyz
  x,y,z
_cell_length_a	16.992694
_cell_length_b	16.992695
_cell_length_c	15.455313
_cell_angle_alpha	92.847427
_cell_angle_beta	87.142206
_cell_angle_gamma	90.668223
loop_
_atom_site_label
_atom_site_type_symbol
_atom_site_fract_x
_atom_site_fract_y
_atom_site_fract_z
O1	O	1.054080	0.163694	-0.072023
O2	O	1.554080	0.663694	0.427977
O3	O	0.825681	0.161862	-0.072048
O4	O	1.325681	0.661862	0.427952
O5	O	0.938965	0.048579	-0.072029
O6	O	1.438965	0.548579	0.427971
O7	O	0.940797	0.276978	-0.072042
O8	O	1.440797	0.776978	0.427958
O9	O	0.932485	0.055028	0.072232
O10	O	1.432485	0.555028	0.572232
O11	O	0.819202	0.168312	0.072213
O12	O	1.319202	0.668312	0.572213
O13	O	1.047601	0.170144	0.072238
O14	O	1.547601	0.670144	0.572238
Cu15	Cu	0.932809	0.169817	0.085398
Cu16	Cu	1.432809	0.669817	0.585398
Cu17	Cu	0.940473	0.162189	-0.085207
Cu18	Cu	1.440473	0.662189	0.414793
O19	O	0.934317	0.283428	0.072219
O20	O	1.434317	0.783428	0.572219
C21	C	0.793081	0.162731	0.000079
C22	C	1.293081	0.662731	0.500079
C23	C	0.705597	0.155702	0.000070
C24	C	1.205597	0.655702	0.500070
C25	C	0.933369	0.022443	0.000102
C26	C	1.433369	0.522443	0.500102
C27	C	0.926341	-0.065041	0.000101
C28	C	1.426341	0.434959	0.500101
C29	C	0.659607	0.223520	0.000066
C30	C	1.159607	0.723520	0.500066
C31	C	0.577405	0.216911	0.000079
C32	C	1.077405	0.716911	0.500079
C33	C	0.541197	0.142484	0.000088
C34	C	1.041197	0.642484	0.500088
C35	C	0.587193	0.074661	0.000094
C36	C	1.087193	0.574661	0.500094
C37	C	0.669393	0.081271	0.000088
C38	C	1.169393	0.581271	0.500088
C39	C	0.295881	0.115091	0.000113
C40	C	0.795881	0.615091	0.500113
C41	C	0.213676	0.108486	0.000116
C42	C	0.713676	0.608486	0.500116
C43	C	0.203893	0.250737	0.000103
C44	C	0.703893	0.750737	0.500103
C45	C	0.286095	0.257340	0.000091
C46	C	0.786095	0.757340	0.500091
C47	C	0.332084	0.189517	0.000102
C48	C	0.832084	0.689517	0.500102
N49	N	0.457174	0.135727	0.000098
N50	N	0.957174	0.635727	0.500098
N51	N	0.416105	0.196275	0.000098
N52	N	0.916105	0.696275	0.500098
C53	C	0.994158	-0.111032	0.000109
C54	C	1.494158	0.388968	0.500109
C55	C	0.987550	-0.193233	0.000100
C56	C	1.487550	0.306767	0.500100
C57	C	0.913123	-0.229442	0.000089
C58	C	1.413123	0.270558	0.500089
C59	C	0.845300	-0.183445	0.000078
C60	C	1.345300	0.316555	0.500078
C61	C	0.851910	-0.101246	0.000081
C62	C	1.351910	0.398754	0.500081
C63	C	0.885729	-0.474757	0.000074
C64	C	1.385729	0.025243	0.500074
C65	C	0.879124	-0.556962	0.000074
C66	C	1.379124	-0.056962	0.500074
C67	C	1.021375	-0.566744	0.000094
C68	C	1.521375	-0.066744	0.500094
C69	C	1.027977	-0.484543	0.000102
C70	C	1.527977	0.015457	0.500102
C71	C	0.960155	-0.438554	0.000087
C72	C	1.460155	0.061446	0.500087
N73	N	0.906366	-0.313464	0.000082
N74	N	1.406366	0.186536	0.500082
N75	N	0.966913	-0.354533	0.000087
N76	N	1.466913	0.145467	0.500087
C77	C	1.080201	0.169275	0.000109
C78	C	1.580201	0.669275	0.500109
C79	C	1.167685	0.176304	0.000113
C80	C	1.667685	0.676304	0.500113
C81	C	0.939913	0.309563	0.000087
C82	C	1.439913	0.809563	0.500087
C83	C	0.946942	0.397047	0.000082
C84	C	1.446942	0.897047	0.500082
N85	N	0.927425	0.175181	0.205392
N86	N	1.427425	0.675181	0.705392
N87	N	0.945863	0.156819	-0.205202
N88	N	1.445863	0.656819	0.294798
C89	C	0.975571	0.127074	0.250795
C90	C	1.475571	0.627074	0.750795
C91	C	0.971507	0.131139	0.341602
C92	C	1.471507	0.631139	0.841602
C93	C	0.919301	0.183315	0.387005
C94	C	1.419301	0.683315	0.887005
C95	C	0.871149	0.231424	0.341596
C96	C	1.371149	0.731424	0.841596
C97	C	0.875210	0.227355	0.250791
C98	C	1.375210	0.727355	0.750791
C99	C	0.901772	0.200858	0.658584
C100	C	1.401772	0.700858	1.158584
C101	C	0.897717	0.204926	0.749395
C102	C	1.397717	0.704926	1.249395
C103	C	0.998074	0.104639	0.749395
C104	C	1.498074	0.604639	1.249395
C105	C	1.002133	0.100578	0.658588
C106	C	1.502133	0.600578	1.158588
C107	C	0.953979	0.148684	0.613187
C108	C	1.453979	0.648684	1.113187
N109	N	0.915147	0.187473	0.479825
N110	N	1.415147	0.687473	0.979825
N111	N	0.958129	0.144522	0.520369
N112	N	1.458129	0.644522	1.020369
H113	H	0.689081	0.284126	0.000058
H114	H	1.189081	0.784126	0.500058
H115	H	0.830503	-0.437322	0.000061
H116	H	1.330503	0.062678	0.500061
C117	C	0.763429	-0.223278	0.000073
C118	C	1.263429	0.276722	0.500073
N119	N	0.701761	-0.253278	0.000075
N120	N	1.201761	0.246722	0.500075
H121	H	0.796685	-0.063801	0.000073
H122	H	1.296685	0.436199	0.500073
C123	C	0.848909	0.253885	0.608655
C124	C	1.348909	0.753885	1.108655
N125	N	0.809129	0.293867	0.571045
N126	N	1.309129	0.793867	1.071045
H127	H	0.836004	0.266527	0.213825
H128	H	1.336004	0.766527	0.713825
C129	C	1.051033	0.051720	0.799343
C130	C	1.551033	0.551720	1.299343
N131	N	1.090921	0.011856	0.836964
N132	N	1.590921	0.511856	1.336964
H133	H	0.539963	0.272136	0.000075
H134	H	1.039963	0.772136	0.500075
C135	C	1.033002	0.069676	0.200860
C136	C	1.533002	0.569676	0.700860
N137	N	1.076259	0.026439	0.163251
N138	N	1.576259	0.526439	0.663251
H139	H	1.088584	-0.455068	0.000112
H140	H	1.588584	0.044932	0.500112
H141	H	1.010711	0.091966	0.378568
H142	H	1.510711	0.591966	0.878568
C143	C	1.076034	-0.071210	0.000122
C144	C	1.576034	0.428790	0.500122
N145	N	1.137706	-0.041219	0.000127
N146	N	1.637706	0.458781	0.500127
C147	C	0.325917	0.339216	0.000095
C148	C	0.825917	0.839216	0.500095
N149	N	0.355912	0.400886	0.000099
N150	N	0.855912	0.900886	0.500099
H151	H	1.076591	-0.604197	0.000106
H152	H	1.576591	-0.104197	0.500106
H153	H	1.044644	0.058092	0.621622
H154	H	1.544644	0.558092	1.121622
C155	C	0.797245	-0.596790	0.000055
C156	C	1.297245	-0.096790	0.500055
N157	N	0.735577	-0.626788	0.000040
N158	N	1.235577	-0.126788	0.500040
C159	C	0.813714	0.288811	0.391543
C160	C	1.313714	0.788811	0.891543
N161	N	0.770452	0.332035	0.429162
N162	N	1.270452	0.832035	0.929162
C163	C	0.840281	0.262323	0.799337
C164	C	1.340281	0.762323	1.299337
N165	N	0.797022	0.305554	0.836953
N166	N	1.297022	0.805554	1.336953
C167	C	0.346459	0.040482	0.000119
C168	C	0.846459	0.540482	0.500119
N169	N	0.384558	-0.015716	0.000122
N170	N	0.884558	0.484284	0.500122
H171	H	0.184198	0.047876	0.000123
H172	H	0.684198	0.547876	0.500123
C173	C	1.062154	-0.243819	0.000124
C174	C	1.562154	0.256181	0.500124
N175	N	1.118350	-0.281919	0.000145
N176	N	1.618350	0.218081	0.500145
H177	H	0.166440	0.305954	0.000096
H178	H	0.666440	0.805954	0.500096
H179	H	0.557705	0.014061	0.000114
H180	H	1.057705	0.514061	0.500114
H181	H	0.706838	0.026046	0.000090
H182	H	1.206838	0.526046	0.500090
