data_functionalizedCrystal
_audit_creation_method	'MofGen! by Chris Wilmer'
_symmetry_space_group_name_H-M	'P1'
_symmetry_Int_Tables_number	1
_symmetry_cell_setting	triclinic
loop_
_symmetry_equiv_pos_as_xyz
  x,y,z
_cell_length_a	14.519709
_cell_length_b	8.559649
_cell_length_c	13.596369
_cell_angle_alpha	89.998228
_cell_angle_beta	90.012081
_cell_angle_gamma	76.729405
loop_
_atom_site_label
_atom_site_type_symbol
_atom_site_fract_x
_atom_site_fract_y
_atom_site_fract_z
O1	O	-1.208821	-0.209416	0.081660
O2	O	-0.708821	0.290584	0.581660
O3	O	-0.938574	-0.234077	0.081690
O4	O	-0.438574	0.265923	0.581690
O5	O	-1.097507	0.010787	0.081671
O6	O	-0.597507	0.510787	0.581671
O7	O	-1.049889	-0.454281	0.081679
O8	O	-0.549889	0.045719	0.581679
O9	O	-1.097525	0.010801	-0.081912
O10	O	-0.597525	0.510801	0.418088
O11	O	-0.938593	-0.234064	-0.081893
O12	O	-0.438593	0.265936	0.418107
O13	O	-1.208840	-0.209403	-0.081923
O14	O	-0.708840	0.290597	0.418077
Zn15	Zn	-1.073719	-0.221731	-0.107880
Zn16	Zn	-0.573719	0.278269	0.392120
Zn17	Zn	-1.073695	-0.221749	0.107647
Zn18	Zn	-0.573695	0.278251	0.607647
O19	O	-1.049907	-0.454267	-0.081904
O20	O	-0.549907	0.045733	0.418096
C21	C	-0.904306	-0.232921	-0.000098
C22	C	-0.404306	0.267079	0.499902
C23	C	-0.802172	-0.229477	-0.000087
C24	C	-0.302172	0.270523	0.499913
C25	C	-1.101125	0.070313	-0.000119
C26	C	-0.601125	0.570313	0.499881
C27	C	-1.111866	0.247663	-0.000114
C28	C	-0.611866	0.747663	0.499886
C29	C	-1.243108	-0.210559	-0.000133
C30	C	-0.743108	0.289441	0.499867
C31	C	-1.345242	-0.214003	-0.000138
C32	C	-0.845242	0.285997	0.499862
C33	C	-0.428186	-0.216798	-0.000131
C34	C	0.071814	0.283202	0.499869
C35	C	-0.532242	-0.220319	-0.000119
C36	C	-0.032242	0.279681	0.499881
C37	C	-0.615176	-0.223137	-0.000108
C38	C	-0.115176	0.276863	0.499892
C39	C	-0.719238	-0.226659	-0.000097
C40	C	-0.219238	0.273341	0.499903
C41	C	-1.046289	-0.513793	-0.000112
C42	C	-0.546289	-0.013793	0.499888
C43	C	-1.035548	-0.691143	-0.000110
C44	C	-0.535548	-0.191143	0.499890
N45	N	-1.073742	-0.221718	-0.254972
N46	N	-0.573742	0.278282	0.245028
N47	N	-1.073680	-0.221749	0.254739
N48	N	-0.573680	0.278251	0.754739
C49	C	-1.073683	-0.221751	0.343737
C50	C	-0.573683	0.278249	0.843737
C51	C	-1.073696	-0.221747	0.455388
C52	C	-0.573696	0.278253	0.955388
C53	C	-1.073713	-0.221736	0.544379
C54	C	-0.573713	0.278264	1.044379
C55	C	-1.073726	-0.221729	0.656037
C56	C	-0.573726	0.278271	1.156037
H57	H	-0.961991	0.225570	-0.000105
H58	H	-0.461991	0.725570	0.499895
H59	H	-1.185428	0.330959	-0.000130
H60	H	-0.685428	0.830959	0.499870
