data_functionalizedCrystal
_audit_creation_method	'MofGen! by Chris Wilmer'
_symmetry_space_group_name_H-M	'P1'
_symmetry_Int_Tables_number	1
_symmetry_cell_setting	triclinic
loop_
_symmetry_equiv_pos_as_xyz
  x,y,z
_cell_length_a	38.066869
_cell_length_b	38.072482
_cell_length_c	38.072252
_cell_angle_alpha	89.984416
_cell_angle_beta	60.013967
_cell_angle_gamma	119.986330
loop_
_atom_site_label
_atom_site_type_symbol
_atom_site_fract_x
_atom_site_fract_y
_atom_site_fract_z
O1	O	0.309896	-0.240948	-0.010444
O2	O	0.237960	-0.189872	0.010401
O3	O	0.309868	-0.189874	-0.061512
O4	O	0.237989	-0.240947	0.061469
O5	O	0.251455	-0.248282	-0.061512
O6	O	0.179547	-0.248281	0.010401
O7	O	0.251483	-0.299357	-0.010443
Cu8	Cu	0.210181	-0.279152	-0.000021
Cu9	Cu	0.279262	-0.210077	-0.000022
O10	O	0.179575	-0.299355	0.061469
C11	C	0.057611	-0.088954	0.031601
C12	C	0.078540	-0.046688	0.031897
C13	C	-0.006003	-0.088956	0.031598
C14	C	0.015023	-0.046690	0.031895
C15	C	0.057591	-0.025359	0.031599
C16	C	0.015042	-0.110188	0.031897
C17	C	0.108000	-0.191963	0.020093
C18	C	0.131284	-0.212119	0.016839
C19	C	0.174807	-0.190387	0.015206
C20	C	0.200060	-0.212238	0.011670
C21	C	0.195042	-0.148499	0.016830
C22	C	0.171754	-0.128347	0.020090
C23	C	0.128232	-0.150081	0.021721
C24	C	0.172100	0.128002	0.020084
C25	C	0.195505	0.171432	0.016828
C26	C	0.175400	0.193219	0.015190
C27	C	0.200777	0.240309	0.011654
C28	C	0.131881	0.171570	0.016814
C29	C	0.108472	0.128140	0.020078
C30	C	0.128588	0.106359	0.021710
C31	C	-0.147860	-0.191973	0.020083
C32	C	-0.188037	-0.212130	0.016821
C33	C	-0.208202	-0.190401	0.015185
C34	C	-0.251763	-0.212254	0.011647
C35	C	-0.188187	-0.148514	0.016807
C36	C	-0.148010	-0.128358	0.020067
C37	C	-0.127852	-0.150093	0.021709
C38	C	0.102986	-0.128225	0.025251
C39	C	0.082860	-0.110806	0.028067
C40	C	-0.049564	-0.110811	0.028062
C41	C	-0.084288	-0.128233	0.025244
C42	C	0.082972	0.021731	0.028062
C43	C	0.103204	0.059267	0.025245
O44	O	-0.266055	-0.189893	-0.061531
O45	O	-0.368179	-0.240962	0.061450
O46	O	-0.368198	-0.240965	-0.010461
O47	O	-0.266036	-0.189890	0.010381
O48	O	-0.368181	-0.299375	-0.010459
O49	O	-0.368162	-0.299372	0.061452
O50	O	-0.266038	-0.248303	-0.061529
Cu51	Cu	-0.317098	-0.279171	-0.000038
Cu52	Cu	-0.317118	-0.210094	-0.000041
O53	O	-0.266019	-0.248300	0.010383
C54	C	0.057478	-0.025650	-0.406320
C55	C	0.078421	-0.046979	-0.427552
C56	C	-0.006099	-0.089245	-0.342724
C57	C	0.014940	-0.110477	-0.364053
C58	C	0.057498	-0.089244	-0.406318
C59	C	0.014921	-0.046980	-0.364054
C60	C	0.107783	0.127707	-0.445155
C61	C	0.131043	0.171137	-0.465172
C62	C	0.174556	0.192923	-0.507055
C63	C	0.199783	0.240014	-0.528758
C64	C	0.194804	0.171276	-0.528920
C65	C	0.171540	0.127849	-0.508905
C66	C	0.128028	0.106064	-0.467021
C67	C	0.172041	-0.128077	-0.509328
C68	C	0.195462	-0.148093	-0.529485
C69	C	0.175381	-0.189974	-0.507755
C70	C	0.200775	-0.211678	-0.529604
C71	C	0.131873	-0.211840	-0.465867
C72	C	0.108449	-0.191827	-0.445714
C73	C	0.128540	-0.149941	-0.467449
C74	C	-0.147934	-0.128078	-0.189367
C75	C	-0.188099	-0.148093	-0.145935
C76	C	-0.208239	-0.189975	-0.124148
C77	C	-0.251786	-0.211677	-0.077057
C78	C	-0.188209	-0.211839	-0.145793
C79	C	-0.148045	-0.191823	-0.189222
C80	C	-0.127912	-0.149942	-0.211008
C81	C	0.102807	0.058975	-0.445319
C82	C	0.082702	0.021439	-0.428021
C83	C	-0.049647	-0.110945	-0.295635
C84	C	-0.084361	-0.128243	-0.258099
C85	C	0.082895	-0.110945	-0.428171
C86	C	0.103139	-0.128243	-0.445591
C87	C	0.450064	-0.361018	-0.025313
C88	C	0.429035	-0.403283	-0.025611
C89	C	0.386450	-0.361015	-0.025310
C90	C	0.365518	-0.403280	-0.025608
C91	C	0.386466	-0.424611	-0.025313
C92	C	0.429020	-0.339784	-0.025608
C93	C	0.513641	-0.297282	-0.020153
C94	C	0.553823	-0.277128	-0.016897
C95	C	0.573983	-0.298860	-0.015265
C96	C	0.617550	-0.277010	-0.011732
C97	C	0.553968	-0.340746	-0.016892
C98	C	0.513790	-0.360899	-0.020150
C99	C	0.493626	-0.339167	-0.021779
C100	C	0.381487	-0.493346	-0.020155
C101	C	0.358216	-0.536778	-0.016898
C102	C	0.314696	-0.558559	-0.015263
C103	C	0.289460	-0.605650	-0.011730
C104	C	0.294443	-0.536912	-0.016888
C105	C	0.317714	-0.493482	-0.020146
C106	C	0.361234	-0.471701	-0.021778
C107	C	0.381440	-0.297276	-0.020147
C108	C	0.358150	-0.277120	-0.016882
C109	C	0.314630	-0.298849	-0.015247
C110	C	0.289379	-0.276996	-0.011711
C111	C	0.294392	-0.340734	-0.016872
C112	C	0.317679	-0.360891	-0.020135
C113	C	0.361202	-0.339160	-0.021772
O114	O	0.251560	0.378819	-0.010459
O115	O	0.179671	0.255836	0.010382
O116	O	0.251562	0.327746	-0.061529
O117	O	0.179668	0.306909	0.061453
O118	O	0.309988	0.327748	-0.061527
O119	O	0.238097	0.255838	0.010385
O120	O	0.309986	0.378821	-0.010456
Cu121	Cu	0.279377	0.317330	-0.000036
Cu122	Cu	0.210280	0.317327	-0.000038
O123	O	0.238095	0.306911	0.061455
O124	O	0.251618	-0.299376	-0.558301
O125	O	0.179689	-0.248301	-0.507237
O126	O	0.251618	-0.248301	-0.507232
O127	O	0.179689	-0.299376	-0.558306
O128	O	0.310014	-0.189893	-0.565644
O129	O	0.238085	-0.189893	-0.565649
O130	O	0.310014	-0.240968	-0.616713
Cu131	Cu	0.279382	-0.210097	-0.596515
Cu132	Cu	0.210321	-0.279171	-0.527436
O133	O	0.238085	-0.240967	-0.616718
O134	O	0.309563	0.378526	-0.616448
O135	O	0.237674	0.255543	-0.565382
O136	O	0.309583	0.327449	-0.565375
O137	O	0.237654	0.306620	-0.616455
O138	O	0.251171	0.327449	-0.506966
O139	O	0.179262	0.255542	-0.506972
O140	O	0.251150	0.378526	-0.558039
Cu141	Cu	0.209873	0.317034	-0.527173
Cu142	Cu	0.278952	0.317034	-0.596248
O143	O	0.179241	0.306619	-0.558046
C144	C	0.039541	-0.424610	0.321631
C145	C	0.060581	-0.403282	0.342864
C146	C	0.103119	-0.361014	0.258037
C147	C	0.124062	-0.339783	0.279367
C148	C	0.103138	-0.361017	0.321632
C149	C	0.060562	-0.403278	0.279366
C150	C	-0.024033	-0.493340	0.321464
C151	C	-0.064202	-0.536771	0.341481
C152	C	-0.084338	-0.558556	0.383360
C153	C	-0.127891	-0.605647	0.405065
C154	C	-0.064313	-0.536913	0.405228
C155	C	-0.024148	-0.493483	0.385213
C156	C	-0.004007	-0.471699	0.343330
C157	C	0.108154	-0.361187	0.385369
C158	C	0.131438	-0.341170	0.405525
C159	C	0.174947	-0.299292	0.383796
C160	C	0.200195	-0.277588	0.405647
C161	C	0.195176	-0.277422	0.341910
C162	C	0.171892	-0.297436	0.321755
C163	C	0.128384	-0.339319	0.343485
C164	C	0.108096	-0.361175	0.189304
C165	C	0.131364	-0.341157	0.145871
C166	C	0.174873	-0.299278	0.124089
C167	C	0.200101	-0.277570	0.076997
C168	C	0.195121	-0.277414	0.145732
C169	C	0.171856	-0.297431	0.189164
C170	C	0.128344	-0.339311	0.210947
C171	C	-0.613453	-0.361024	0.321615
C172	C	-0.634377	-0.403289	0.342848
C173	C	-0.549856	-0.361023	0.258020
C174	C	-0.570876	-0.403288	0.279350
C175	C	-0.613433	-0.424618	0.321615
C176	C	-0.570896	-0.339791	0.279349
C177	C	-0.618470	-0.297287	0.321449
C178	C	-0.641754	-0.277132	0.341467
C179	C	-0.685262	-0.298863	0.383346
C180	C	-0.710511	-0.277012	0.405052
C181	C	-0.705491	-0.340749	0.405214
C182	C	-0.682207	-0.360903	0.385198
C183	C	-0.638699	-0.339172	0.343315
C184	C	-0.682314	-0.493351	0.385353
C185	C	-0.705715	-0.536782	0.405509
C186	C	-0.685612	-0.558565	0.383779
C187	C	-0.710984	-0.605656	0.405630
C188	C	-0.642103	-0.536919	0.341892
C189	C	-0.618702	-0.493490	0.321738
C190	C	-0.638809	-0.471708	0.343468
C191	C	-0.486303	-0.297286	0.189287
C192	C	-0.446138	-0.277132	0.145854
C193	C	-0.425982	-0.298862	0.124071
C194	C	-0.382431	-0.277010	0.076980
C195	C	-0.445988	-0.340746	0.145715
C196	C	-0.486153	-0.360902	0.189146
C197	C	-0.506308	-0.339170	0.210931
C198	C	0.103228	0.292088	0.321611
C199	C	0.060661	0.291794	0.342842
C200	C	0.103207	0.292079	0.258017
C201	C	0.060640	0.291785	0.279344
C202	C	0.039616	0.292088	0.321608
C203	C	0.124155	0.291785	0.279348
C204	C	0.172143	0.297249	0.321449
C205	C	0.195569	0.300509	0.341467
C206	C	0.175480	0.302149	0.383345
C207	C	0.200878	0.305686	0.405052
C208	C	0.131963	0.300525	0.405210
C209	C	0.108538	0.297263	0.385193
C210	C	0.128630	0.295627	0.343313
C211	C	-0.023953	0.297258	0.385341
C212	C	-0.064132	0.300518	0.405494
C213	C	-0.084294	0.302149	0.383763
C214	C	-0.127856	0.305686	0.405611
C215	C	-0.064283	0.300517	0.341878
C216	C	-0.024108	0.297255	0.321727
C217	C	-0.003943	0.295627	0.343458
C218	C	0.172100	0.297230	0.189288
C219	C	0.195509	0.300487	0.145856
C220	C	0.175400	0.302118	0.124072
C221	C	0.200776	0.305646	0.076982
C222	C	0.131886	0.300497	0.145713
C223	C	0.108478	0.297242	0.189143
C224	C	0.128587	0.295608	0.210929
C225	C	0.431906	-0.088938	-0.406299
C226	C	0.474464	-0.046673	-0.427532
C227	C	0.431926	-0.088941	-0.342705
C228	C	0.474484	-0.046676	-0.364034
C229	C	0.495504	-0.025345	-0.406299
C230	C	0.410983	-0.110172	-0.364034
C231	C	0.317362	-0.191943	-0.445133
C232	C	0.293940	-0.212099	-0.465149
C233	C	0.314024	-0.190367	-0.507032
C234	C	0.288627	-0.212217	-0.528734
C235	C	0.357533	-0.148479	-0.528897
C236	C	0.380954	-0.128329	-0.508883
C237	C	0.360867	-0.150063	-0.466999
C238	C	0.637321	0.128013	-0.509308
C239	C	0.677491	0.171443	-0.529465
C240	C	0.697650	0.193229	-0.507736
C241	C	0.741198	0.240319	-0.529585
C242	C	0.677640	0.171581	-0.465848
C243	C	0.637478	0.128151	-0.445695
C244	C	0.617319	0.106371	-0.467429
C245	C	0.317441	-0.191956	-0.189347
C246	C	0.294035	-0.212113	-0.145916
C247	C	0.314139	-0.190384	-0.124130
C248	C	0.288763	-0.212237	-0.077038
C249	C	0.357644	-0.148498	-0.145775
C250	C	0.381046	-0.128343	-0.189204
C251	C	0.360942	-0.150077	-0.210988
C252	C	0.386264	-0.128208	-0.445298
C253	C	0.406509	-0.110789	-0.428000
C254	C	0.406550	-0.110796	-0.295615
C255	C	0.386322	-0.128217	-0.258080
C256	C	0.539053	0.021744	-0.428151
C257	C	0.573767	0.059279	-0.445571
O258	O	-0.244264	-0.744159	0.492756
O259	O	-0.142138	-0.621178	0.441687
O260	O	-0.142121	-0.693091	0.441684
O261	O	-0.244281	-0.672247	0.492760
O262	O	-0.142139	-0.693088	0.383274
O263	O	-0.142156	-0.621176	0.383277
O264	O	-0.244282	-0.744157	0.434347
Cu265	Cu	-0.193221	-0.682666	0.403479
Cu266	Cu	-0.193199	-0.682669	0.472555
O267	O	-0.244299	-0.672245	0.434350
C268	C	0.495377	0.348911	-0.406305
C269	C	0.474331	0.349204	-0.427539
C270	C	0.431785	0.348919	-0.342714
C271	C	0.410836	0.349212	-0.364044
C272	C	0.431764	0.348909	-0.406308
C273	C	0.474352	0.349214	-0.364042
C274	C	0.637252	0.337397	-0.445131
C275	C	0.677432	0.334140	-0.465145
C276	C	0.697577	0.332499	-0.507026
C277	C	0.741137	0.328960	-0.528726
C278	C	0.677541	0.334120	-0.528893
C279	C	0.637369	0.337383	-0.508880
C280	C	0.617224	0.339021	-0.466998
C281	C	0.381370	0.337377	-0.509318
C282	C	0.358086	0.334118	-0.529476
C283	C	0.314564	0.332484	-0.507749
C284	C	0.289310	0.328943	-0.529598
C285	C	0.294330	0.334114	-0.465862
C286	C	0.317619	0.337381	-0.445708
C287	C	0.361141	0.339010	-0.467441
C288	C	0.381477	0.337428	-0.189359
C289	C	0.358210	0.334173	-0.145929
C290	C	0.314688	0.332540	-0.124144
C291	C	0.289457	0.329009	-0.077054
C292	C	0.294434	0.334159	-0.145790
C293	C	0.317701	0.337412	-0.189219
C294	C	0.361226	0.339050	-0.211001
C295	C	0.573660	0.342555	-0.445299
C296	C	0.538937	0.345374	-0.428004
C297	C	0.406558	0.345390	-0.295626
C298	C	0.386450	0.342578	-0.258091
C299	C	0.406513	0.345369	-0.428161
C300	C	0.386387	0.342548	-0.445582
H301	H	0.230476	-0.130809	0.015503
H302	H	0.621060	0.338704	-0.526687
H303	H	0.374704	0.332852	-0.128307
H304	H	0.072665	-0.395276	0.207039
H305	H	0.497228	-0.279583	-0.021482
H306	H	0.693778	0.189066	-0.563568
H307	H	-0.204330	-0.246235	0.015498
H308	H	0.188027	0.110227	-0.526711
H309	H	0.416379	-0.094226	-0.526689
H310	H	0.620856	0.338732	-0.411029
H311	H	0.115519	-0.245943	-0.448176
H312	H	0.416920	0.338764	-0.207093
H313	H	0.416808	0.338706	-0.527016
H314	H	0.258607	-0.246215	-0.128294
H315	H	0.072725	-0.395288	0.403067
H316	H	0.114554	0.188758	-0.447367
H317	H	0.230938	0.189054	0.015505
H318	H	0.188480	0.110269	0.021415
H319	H	0.374711	-0.554397	-0.015576
H320	H	0.446619	-0.305058	-0.026083
H321	H	0.258897	0.332789	-0.448173
H322	H	0.072563	-0.209664	0.021421
H323	H	0.230887	-0.130286	-0.563588
H324	H	0.301197	-0.394996	-0.021456
H325	H	0.331262	-0.420403	-0.026083
H326	H	-0.080504	-0.554389	0.323674
H327	H	0.497495	-0.395003	-0.021476
H328	H	-0.002553	-0.144915	0.032375
H329	H	-0.007816	0.295925	0.287624
H330	H	0.073024	-0.209634	-0.411610
H331	H	0.114807	-0.246224	0.015517
H332	H	0.188230	-0.094243	0.021414
H333	H	0.115513	0.301828	0.127972
H334	H	-0.429850	-0.243027	0.128236
H335	H	0.491932	0.349682	-0.462266
H336	H	0.301066	-0.209655	-0.207082
H337	H	-0.583276	-0.475866	0.287635
H338	H	0.301143	0.338710	-0.411605
H339	H	0.042950	-0.420402	0.262243
H340	H	0.188401	-0.093974	-0.527028
H341	H	-0.502442	-0.395007	0.206767
H342	H	0.258993	0.332828	-0.128050
H343	H	0.114873	-0.358963	0.128252
H344	H	0.374011	-0.130804	-0.128032
H345	H	0.301002	-0.209645	-0.411030
H346	H	0.492087	-0.029553	-0.346905
H347	H	0.230999	0.301830	0.323662
H348	H	0.259001	-0.554654	-0.015552
H349	H	0.693736	0.332813	-0.447336
H350	H	-0.131718	-0.094254	0.021391
H351	H	-0.131552	-0.093981	-0.207105
H352	H	0.043030	0.291306	0.262217
H353	H	0.258951	-0.358428	-0.015537
H354	H	0.043065	0.291317	0.377569
H355	H	0.188505	0.295914	0.287348
H356	H	0.230230	0.189018	-0.563021
H357	H	-0.625280	-0.243029	0.323659
H358	H	-0.698688	-0.475617	0.403050
H359	H	0.416925	-0.475613	-0.021486
H360	H	0.158415	0.291315	0.262223
H361	H	-0.007848	-0.475861	0.403021
H362	H	-0.007639	-0.475604	0.287362
H363	H	0.114960	-0.358981	0.439630
H364	H	0.115506	0.189309	0.015487
H365	H	0.446648	-0.420408	-0.026090
H366	H	-0.740921	-0.358441	0.439317
H367	H	0.416469	-0.094238	-0.206824
H368	H	0.258516	-0.246203	-0.447343
H369	H	0.073038	0.110517	0.021402
H370	H	-0.131449	-0.209673	0.021418
H371	H	0.115608	0.301861	0.439312
H372	H	0.373883	-0.130790	-0.562998
H373	H	0.620912	0.110281	-0.527008
H374	H	0.621191	0.110528	-0.411591
H375	H	0.158308	-0.305056	0.262241
H376	H	-0.204609	-0.130821	0.015477
H377	H	-0.080716	-0.554656	0.439332
H378	H	0.072354	0.109974	-0.411052
H379	H	0.230605	-0.243319	0.324219
H380	H	-0.002658	-0.145206	-0.346929
H381	H	0.112670	-0.029851	-0.462277
H382	H	0.374562	0.332789	-0.563578
H383	H	0.694059	0.189319	-0.448158
H384	H	0.301204	0.338728	-0.206839
H385	H	-0.429575	-0.358441	0.127975
H386	H	-0.698682	-0.395009	0.403001
H387	H	-0.002685	-0.029853	-0.346932
H388	H	0.073104	0.295938	0.402999
H389	H	0.376580	0.349688	-0.346919
H390	H	-0.204402	-0.130286	-0.128314
H391	H	-0.131740	-0.209628	-0.206843
H392	H	0.188476	0.295898	0.207024
H393	H	-0.741139	-0.554401	0.439613
H394	H	0.491966	0.349694	-0.346918
H395	H	-0.007542	0.295926	0.403041
H396	H	0.230937	0.301806	0.128240
H397	H	-0.204612	-0.245944	-0.128052
H398	H	-0.625736	-0.554661	0.324201
H399	H	0.374633	-0.243016	-0.015560
H400	H	-0.553266	-0.420411	0.262224
H401	H	0.376729	-0.144895	-0.346907
H402	H	0.416881	-0.279578	-0.021482
H403	H	-0.002594	-0.029570	0.032375
H404	H	0.570115	-0.243025	-0.015571
H405	H	0.112791	-0.029565	0.032380
H406	H	0.570389	-0.358439	-0.015562
H407	H	0.301221	-0.475859	-0.021466
H408	H	0.042981	-0.420407	0.377593
H409	H	0.188361	-0.279628	0.287653
H410	H	0.188346	-0.279626	0.206785
H411	H	0.230553	-0.243313	0.127993
H412	H	-0.668621	-0.420412	0.377575
H413	H	-0.080421	0.301845	0.439597
H414	H	-0.553328	-0.305075	0.262215
H415	H	-0.502710	-0.279587	0.207023
H416	H	-0.080707	0.301843	0.324186
H417	H	-0.583041	-0.279589	0.287347
H418	H	0.073047	0.295921	0.206763
H419	H	0.492056	-0.029550	-0.462259
H420	H	0.693948	0.332788	-0.562993
