data_functionalizedCrystal
_audit_creation_method	'MofGen! by Chris Wilmer'
_symmetry_space_group_name_H-M	'P1'
_symmetry_Int_Tables_number	1
_symmetry_cell_setting	triclinic
loop_
_symmetry_equiv_pos_as_xyz
  x,y,z
_cell_length_a	15.944551
_cell_length_b	14.971486
_cell_length_c	13.448316
_cell_angle_alpha	90.001801
_cell_angle_beta	89.992444
_cell_angle_gamma	96.443566
loop_
_atom_site_label
_atom_site_type_symbol
_atom_site_fract_x
_atom_site_fract_y
_atom_site_fract_z
O1	O	0.109463	-1.186829	-0.082580
O2	O	0.122572	-0.926415	-0.082607
O3	O	-0.006250	-1.063733	-0.082584
O4	O	0.238286	-1.049511	-0.082603
O5	O	-0.006258	-1.063716	0.082800
O6	O	0.122564	-0.926398	0.082777
O7	O	0.109456	-1.186812	0.082804
Cu8	Cu	0.116009	-1.056603	0.097891
Cu9	Cu	0.116018	-1.056624	-0.097694
O10	O	0.238278	-1.049494	0.082781
C11	C	0.121982	-0.893082	0.000081
C12	C	0.120225	-0.793787	0.000071
C13	C	-0.037549	-1.063134	0.000108
C14	C	-0.130797	-1.061364	0.000109
N15	N	0.116002	-1.056595	0.235456
C16	C	-0.345738	-0.972017	0.000086
C17	C	-0.406720	-1.013498	0.081634
C18	C	-0.301526	-1.058162	0.000101
C19	C	-0.406696	-1.013536	-0.081421
C20	C	-0.466441	-1.055062	0.000089
C21	C	-0.361279	-1.099667	0.081717
C22	C	-0.361248	-1.099692	-0.081412
C23	C	-0.422212	-1.141236	0.000156
C24	C	-0.206522	-1.059945	0.000109
C25	C	-0.561444	-1.053286	0.000088
C26	C	0.269576	-1.050093	0.000087
C27	C	0.362824	-1.051863	0.000080
C28	C	0.110046	-1.220145	0.000113
C29	C	0.111802	-1.319440	0.000117
C30	C	0.195904	-0.736480	0.000067
C31	C	0.194249	-0.643182	0.000082
C32	C	0.116913	-0.607194	0.000094
C33	C	0.041227	-0.664508	0.000102
C34	C	0.042884	-0.757804	0.000094
C35	C	0.037780	-0.470049	0.000116
C36	C	0.036123	-0.376747	0.000122
C37	C	0.189145	-0.355428	0.000104
C38	C	0.190801	-0.448724	0.000096
C39	C	0.115116	-0.506032	0.000101
N40	N	0.116019	-1.056639	-0.235258
C41	C	0.058983	-1.117419	0.287506
C42	C	0.058982	-1.117425	0.391610
C43	C	0.116005	-1.056610	0.443660
C44	C	0.173027	-0.995780	0.391602
C45	C	0.173023	-0.995771	0.287501
C46	C	0.173033	-0.995805	0.608582
C47	C	0.173038	-0.995815	0.712691
C48	C	0.058992	-1.117459	0.712691
C49	C	0.058988	-1.117449	0.608590
C50	C	0.116011	-1.056620	0.556539
H51	H	-0.312499	-0.900512	0.000160
H52	H	-0.341080	-1.136104	-0.150351
O53	O	-0.002527	-1.182999	0.231359
H54	H	0.008269	-1.252731	0.251322
H55	H	0.258881	-0.765774	0.000056
O56	O	0.270778	-0.293619	0.000111
H57	H	0.307783	-0.306401	-0.067307
O58	O	-0.047289	-0.337928	0.000156
H59	H	-0.051713	-0.295934	-0.067249
H60	H	-0.023852	-0.516708	0.000122
H61	H	-0.341257	-1.136065	0.150735
O62	O	0.234540	-0.930220	0.768830
H63	H	0.224968	-0.940457	0.849962
O64	O	-0.042189	-0.625698	0.000124
H65	H	-0.046608	-0.583706	-0.067284
H66	H	0.219464	-0.946269	0.566206
H67	H	-0.018742	-0.804463	0.000097
H68	H	0.012552	-1.166951	0.433989
H69	H	0.012560	-1.166973	0.566210
O70	O	0.274217	-0.487534	0.000086
H71	H	0.278640	-0.529521	-0.067330
O72	O	-0.433354	-0.965274	-0.172743
H73	H	-0.376808	-0.941988	-0.217865
H74	H	-0.455303	-1.212804	0.000210
O75	O	-0.002520	-1.183064	0.768822
H76	H	0.007052	-1.172848	0.849955
O77	O	0.234539	-0.930192	0.447735
H78	H	0.199122	-0.886728	0.495190
H79	H	0.255875	-0.596526	0.000077
H80	H	0.219452	-0.946241	0.245122
H81	H	-0.426866	-0.977055	0.150570
