data_functionalizedCrystal
_audit_creation_method	'MofGen! by Chris Wilmer'
_symmetry_space_group_name_H-M	'P1'
_symmetry_Int_Tables_number	1
_symmetry_cell_setting	triclinic
loop_
_symmetry_equiv_pos_as_xyz
  x,y,z
_cell_length_a	23.532407
_cell_length_b	17.038272
_cell_length_c	15.500227
_cell_angle_alpha	93.043705
_cell_angle_beta	92.805592
_cell_angle_gamma	93.019883
loop_
_atom_site_label
_atom_site_type_symbol
_atom_site_fract_x
_atom_site_fract_y
_atom_site_fract_z
O1	O	0.121159	-1.040103	-0.071851
O2	O	0.119196	-0.812488	-0.071876
O3	O	0.037607	-0.933158	-0.071847
O4	O	0.202748	-0.919432	-0.071880
O5	O	0.042537	-0.925836	0.072040
O6	O	0.124126	-0.805165	0.072011
O7	O	0.126090	-1.032780	0.072036
Cu8	Cu	0.125558	-0.918304	0.085162
Cu9	Cu	0.119727	-0.926964	-0.085001
O10	O	0.207678	-0.912110	0.072007
C11	C	0.119875	-0.779712	0.000065
C12	C	0.114548	-0.692959	0.000056
C13	C	0.018838	-0.929147	0.000099
C14	C	-0.044434	-0.928096	0.000105
N15	N	0.129659	-0.912219	0.204845
C16	C	-0.440131	-0.992917	0.000065
C17	C	-0.499583	-0.991941	0.000058
O18	O	-0.533169	-1.052030	0.000033
N19	N	-0.525981	-0.920202	0.000051
C20	C	-0.492924	-0.849435	0.000042
O21	O	-0.520836	-0.788325	0.000034
C22	C	-0.433473	-0.850412	0.000042
C23	C	-0.407078	-0.922155	0.000058
C24	C	-0.413736	-1.064654	0.000080
C25	C	-0.354288	-1.065630	0.000089
C26	C	-0.321235	-0.994868	0.000082
C27	C	-0.347631	-0.923131	0.000067
C28	C	-0.400418	-0.779646	0.000027
C29	C	-0.340963	-0.780629	0.000026
C30	C	-0.314569	-0.852372	0.000043
C31	C	-0.255130	-0.853344	0.000068
N32	N	-0.228732	-0.925083	0.000075
C33	C	-0.261785	-0.995845	0.000082
C34	C	-0.617774	-0.847388	0.000039
C35	C	-0.677223	-0.846410	0.000045
C36	C	-0.683878	-0.988916	0.000060
C37	C	-0.624428	-0.989894	0.000061
C38	C	-0.591376	-0.919127	0.000047
C39	C	-0.136940	-0.997889	0.000100
C40	C	-0.077487	-0.998858	0.000112
C41	C	-0.070837	-0.856352	0.000093
C42	C	-0.130285	-0.855382	0.000085
C43	C	-0.163336	-0.926157	0.000086
O44	O	-0.221508	-0.793287	0.000090
O45	O	-0.233865	-1.056945	0.000078
C46	C	0.226447	-0.916121	0.000059
C47	C	0.289719	-0.917172	0.000047
C48	C	0.125410	-1.065556	0.000094
C49	C	0.130737	-1.152310	0.000097
C50	C	0.163453	-0.642483	0.000046
C51	C	0.158445	-0.560969	0.000059
C52	C	0.104532	-0.529932	0.000075
C53	C	0.055624	-0.580414	0.000087
C54	C	0.060632	-0.661927	0.000080
C55	C	0.086837	-0.284304	0.000102
C56	C	0.081832	-0.202786	0.000106
C57	C	0.184654	-0.183345	0.000080
C58	C	0.189658	-0.264860	0.000068
C59	C	0.140750	-0.315335	0.000084
C60	C	0.099412	-0.446612	0.000086
C61	C	0.145871	-0.398653	0.000080
N62	N	0.115622	-0.933055	-0.204685
C63	C	0.095101	-0.963369	0.250134
C64	C	0.098208	-0.958774	0.340706
C65	C	0.135876	-0.903033	0.385987
C66	C	0.170435	-0.851877	0.340691
C67	C	0.167324	-0.856469	0.250121
C68	C	0.147071	-0.886491	0.659450
C69	C	0.150180	-0.881905	0.750026
C70	C	0.077952	-0.988801	0.750034
C71	C	0.074848	-0.993391	0.659462
C72	C	0.109404	-0.942233	0.614175
C73	C	0.139054	-0.898336	0.478566
C74	C	0.106223	-0.946927	0.521598
H75	H	-0.055999	-1.057282	0.000128
C76	C	0.053666	-1.024684	0.200333
H77	H	0.033526	-1.054483	0.240280
H78	H	0.074519	-1.058849	0.164987
H79	H	0.027378	-0.998541	0.165017
H80	H	0.195464	-0.814816	0.213248
H81	H	0.224472	-0.142240	0.000069
H82	H	0.020809	-0.703024	0.000087
H83	H	0.047013	-0.325391	0.000116
H84	H	0.175209	-0.844838	0.622584
C85	C	-0.325262	-1.144549	0.000090
H86	H	-0.353468	-1.186546	0.000083
H87	H	-0.300492	-1.145352	0.050264
H88	H	-0.303927	-1.150444	-0.050095
H89	H	0.011727	-0.555138	0.000112
C90	C	0.191584	-0.820546	0.799834
H91	H	0.211706	-0.790719	0.759892
H92	H	0.217880	-0.846641	0.835175
H93	H	0.170693	-0.786403	0.835156
C94	C	-0.173287	-1.075739	0.000109
H95	H	-0.149045	-1.118597	0.000127
H96	H	-0.198332	-1.080884	-0.050068
H97	H	-0.194901	-1.075766	0.050292
H98	H	-0.710801	-1.046535	0.000062
C99	C	0.248960	-0.298998	0.000047
H100	H	0.244938	-0.354774	0.000034
H101	H	0.270988	-0.279102	0.050216
H102	H	0.267538	-0.284190	-0.050143
H103	H	0.169725	-0.852952	0.515441
C104	C	0.022525	-0.168647	0.000125
H105	H	-0.005885	-0.210382	0.000141
H106	H	0.016715	-0.139802	-0.050050
H107	H	0.020158	-0.134704	0.050310
H108	H	0.198268	-0.519874	0.000051
C109	C	0.040109	-0.412473	0.000093
H110	H	0.011697	-0.454207	0.000099
H111	H	0.034303	-0.383623	-0.050080
H112	H	0.037738	-0.378535	0.050280
H113	H	0.189767	-0.423926	0.000072
H114	H	0.049817	-1.030451	0.786915
C115	C	-0.450085	-1.142499	0.000095
H116	H	-0.425842	-1.185356	0.000110
H117	H	-0.475133	-1.147647	-0.050078
H118	H	-0.471695	-1.142526	0.050282
C119	C	0.211851	-0.790538	0.390494
H120	H	0.231978	-0.760722	0.350547
H121	H	0.238143	-0.816650	0.425826
H122	H	0.190975	-0.756383	0.425824
C123	C	0.222757	-0.676615	0.000028
H124	H	0.251165	-0.634876	0.000033
H125	H	0.225130	-0.710555	-0.050151
H126	H	0.228568	-0.705461	0.050209
H127	H	0.070069	-1.000424	0.377580
C128	C	-0.429439	-0.700727	0.000002
H129	H	-0.401233	-0.658732	-0.000014
H130	H	-0.450780	-0.694816	0.050173
H131	H	-0.454203	-0.699940	-0.050186
H132	H	-0.314056	-0.723001	0.000014
C133	C	0.033410	-1.054702	0.609659
H134	H	0.013269	-1.084503	0.649604
H135	H	0.054264	-1.088865	0.574313
H136	H	0.007123	-1.028558	0.574344
C137	C	0.064790	-1.008240	0.471796
H138	H	0.044650	-1.038047	0.511736
H139	H	0.085648	-1.042397	0.436449
H140	H	0.038503	-0.982097	0.436480
H141	H	-0.602941	-1.048313	0.000073
H142	H	-0.590866	-0.789757	0.000035
C143	C	-0.706253	-0.767494	0.000037
H144	H	-0.746395	-0.777039	0.000040
H145	H	-0.696852	-0.740932	-0.050141
H146	H	-0.693428	-0.735828	0.050219
C147	C	-0.159321	-0.776467	0.000066
H148	H	-0.131119	-0.734465	0.000057
H149	H	-0.180668	-0.770563	0.050232
H150	H	-0.184081	-0.775685	-0.050128
H151	H	-0.043915	-0.798739	0.000090
