data_functionalizedCrystal
_audit_creation_method	'MofGen! by Chris Wilmer'
_symmetry_space_group_name_H-M	'P1'
_symmetry_Int_Tables_number	1
_symmetry_cell_setting	triclinic
loop_
_symmetry_equiv_pos_as_xyz
  x,y,z
_cell_length_a	13.897449
_cell_length_b	13.897447
_cell_length_c	18.215399
_cell_angle_alpha	90.025056
_cell_angle_beta	90.021193
_cell_angle_gamma	90.020357
loop_
_atom_site_label
_atom_site_type_symbol
_atom_site_fract_x
_atom_site_fract_y
_atom_site_fract_z
Zn1	Zn	1.474669	-0.384003	0.416157
Zn2	Zn	1.724669	-0.134003	0.666157
Zn3	Zn	1.974669	0.115997	0.916157
Zn4	Zn	2.224669	0.365997	1.166157
Zn5	Zn	1.474564	-0.545313	0.293097
Zn6	Zn	1.724564	-0.295313	0.543097
Zn7	Zn	1.974564	-0.045313	0.793097
Zn8	Zn	2.224564	0.204687	1.043097
Zn9	Zn	1.313365	-0.384036	0.293102
Zn10	Zn	1.563365	-0.134036	0.543102
Zn11	Zn	1.813365	0.115964	0.793102
Zn12	Zn	2.063365	0.365964	1.043102
Zn13	Zn	1.313335	-0.545261	0.416119
Zn14	Zn	1.563335	-0.295261	0.666119
Zn15	Zn	1.813335	-0.045261	0.916119
Zn16	Zn	2.063335	0.204739	1.166119
O17	O	1.393983	-0.464653	0.354619
O18	O	1.643983	-0.214653	0.604619
O19	O	1.893983	0.035347	0.854619
O20	O	2.143983	0.285347	1.104619
O21	O	1.609637	-0.405410	0.399847
O22	O	1.859637	-0.155410	0.649847
O23	O	2.109637	0.094590	0.899847
O24	O	2.359637	0.344590	1.149847
O25	O	1.453149	-0.523955	0.190114
O26	O	1.703149	-0.273955	0.440114
O27	O	1.953149	-0.023955	0.690114
O28	O	2.203149	0.226045	0.940114
O29	O	1.334818	-0.249050	0.309443
O30	O	1.584818	0.000950	0.559443
O31	O	1.834818	0.250950	0.809443
O32	O	2.084818	0.500950	1.059443
O33	O	1.609560	-0.523923	0.309436
O34	O	1.859560	-0.273923	0.559436
O35	O	2.109560	-0.023923	0.809436
O36	O	2.359560	0.226077	1.059436
O37	O	1.453328	-0.249026	0.399852
O38	O	1.703328	0.000974	0.649852
O39	O	1.953328	0.250974	0.899852
O40	O	2.203328	0.500974	1.149852
O41	O	1.334717	-0.405466	0.190117
O42	O	1.584717	-0.155466	0.440117
O43	O	1.834717	0.094534	0.690117
O44	O	2.084717	0.344534	0.940117
O45	O	1.178379	-0.405415	0.309406
O46	O	1.428379	-0.155415	0.559406
O47	O	1.678379	0.094585	0.809406
O48	O	1.928379	0.344585	1.059406
O49	O	1.334768	-0.523834	0.519109
O50	O	1.584768	-0.273834	0.769109
O51	O	1.834768	-0.023834	1.019109
O52	O	2.084768	0.226166	1.269109
O53	O	1.178357	-0.523865	0.399787
O54	O	1.428357	-0.273865	0.649787
O55	O	1.678357	-0.023865	0.899787
O56	O	1.928357	0.226135	1.149787
O57	O	1.453300	-0.405359	0.519137
O58	O	1.703300	-0.155359	0.769137
O59	O	1.953300	0.094641	1.019137
O60	O	2.203300	0.344641	1.269137
O61	O	1.453121	-0.680288	0.309399
O62	O	1.703121	-0.430288	0.559399
O63	O	1.953121	-0.180288	0.809399
O64	O	2.203121	0.069712	1.059399
O65	O	1.334666	-0.680249	0.399782
O66	O	1.584666	-0.430249	0.649782
O67	O	1.834666	-0.180249	0.899782
O68	O	2.084666	0.069751	1.149782
C69	C	1.143369	-0.464638	0.354593
C70	C	1.393369	-0.214638	0.604593
C71	C	1.643369	0.035362	0.854593
C72	C	1.893369	0.285362	1.104593
C73	C	1.036155	-0.464655	0.354600
C74	C	1.286155	-0.214655	0.604600
C75	C	1.536155	0.035345	0.854600
C76	C	1.786155	0.285345	1.104600
C77	C	0.949085	-0.464659	0.354612
C78	C	1.199085	-0.214659	0.604612
C79	C	1.449085	0.035341	0.854612
C80	C	1.699085	0.285341	1.104612
C81	C	0.839853	-0.464665	0.354634
C82	C	1.089853	-0.214665	0.604634
C83	C	1.339853	0.035335	0.854634
C84	C	1.589853	0.285335	1.104634
C85	C	1.393905	-0.715268	0.354602
C86	C	1.643905	-0.465268	0.604602
C87	C	1.893905	-0.215268	0.854602
C88	C	2.143905	0.034732	1.104602
C89	C	1.393960	-0.822482	0.354619
C90	C	1.643960	-0.572482	0.604619
C91	C	1.893960	-0.322482	0.854619
C92	C	2.143960	-0.072482	1.104619
C93	C	1.394006	-0.909551	0.354636
C94	C	1.644006	-0.659551	0.604636
C95	C	1.894006	-0.409551	0.854636
C96	C	2.144006	-0.159551	1.104636
C97	C	1.394074	-1.018784	0.354655
C98	C	1.644074	-0.768784	0.604655
C99	C	1.894074	-0.518784	0.854655
C100	C	2.144074	-0.268784	1.104655
C101	C	1.645576	-0.464669	0.354645
C102	C	1.895576	-0.214669	0.604645
C103	C	2.145576	0.035331	0.854645
C104	C	2.395576	0.285331	1.104645
C105	C	1.752790	-0.464676	0.354656
C106	C	2.002790	-0.214676	0.604656
C107	C	2.252790	0.035324	0.854656
C108	C	2.502790	0.285324	1.104656
C109	C	1.394042	-0.464587	0.546572
C110	C	1.644042	-0.214587	0.796572
C111	C	1.894042	0.035413	1.046572
C112	C	2.144042	0.285413	1.296572
C113	C	1.394067	-0.464558	0.628371
C114	C	1.644067	-0.214558	0.878371
C115	C	1.894067	0.035442	1.128371
C116	C	2.144067	0.285442	1.378371
C117	C	1.394088	-0.213060	0.354652
C118	C	1.644088	0.036940	0.604652
C119	C	1.894088	0.286940	0.854652
C120	C	2.144088	0.536940	1.104652
C121	C	1.394133	-0.105846	0.354666
C122	C	1.644133	0.144154	0.604666
C123	C	1.894133	0.394154	0.854666
C124	C	2.144133	0.644154	1.104666
C125	C	1.393980	-0.464650	0.163413
C126	C	1.643980	-0.214650	0.413413
C127	C	1.893980	0.035350	0.663413
C128	C	2.143980	0.285350	0.913413
C129	C	1.394142	-0.464407	0.081614
C130	C	1.644142	-0.214407	0.331614
C131	C	1.894142	0.035593	0.581614
C132	C	2.144142	0.285593	0.831614
C133	C	1.455809	-0.402811	0.816581
C134	C	1.705809	-0.152811	1.066581
C135	C	1.955809	0.097189	1.316581
C136	C	2.205809	0.347189	1.566581
C137	C	1.455820	-0.402783	0.893439
C138	C	1.705820	-0.152783	1.143439
C139	C	1.955820	0.097217	1.393439
C140	C	2.205820	0.347217	1.643439
C141	C	1.332394	-0.526157	0.893399
C142	C	1.582394	-0.276157	1.143399
C143	C	1.832394	-0.026157	1.393399
C144	C	2.082394	0.223843	1.643399
C145	C	1.332378	-0.526179	0.816542
C146	C	1.582378	-0.276179	1.066542
C147	C	1.832378	-0.026179	1.316542
C148	C	2.082378	0.223821	1.566542
C149	C	1.394091	-0.464508	0.778134
C150	C	1.644091	-0.214508	1.028134
C151	C	1.894091	0.035492	1.278134
C152	C	2.144091	0.285492	1.528134
C153	C	1.394118	-0.464457	0.931851
C154	C	1.644118	-0.214457	1.181851
C155	C	1.894118	0.035543	1.431851
C156	C	2.144118	0.285543	1.681851
C157	C	1.394130	-0.464427	1.015184
C158	C	1.644130	-0.214427	1.265184
C159	C	1.894130	0.035573	1.515184
C160	C	2.144130	0.285573	1.765184
C161	C	1.394078	-0.464536	0.694795
C162	C	1.644078	-0.214536	0.944795
C163	C	1.894078	0.035464	1.194795
C164	C	2.144078	0.285464	1.444795
H165	H	1.506057	-0.352591	0.785312
H166	H	1.756057	-0.102591	1.035312
H167	H	2.006057	0.147409	1.285312
H168	H	2.256057	0.397409	1.535312
F169	F	1.521515	-0.337123	0.934353
F170	F	1.771515	-0.087123	1.184353
F171	F	2.021515	0.162877	1.434353
F172	F	2.271515	0.412877	1.684353
H173	H	1.282113	-0.576420	0.785238
H174	H	1.532113	-0.326420	1.035238
H175	H	1.782113	-0.076420	1.285238
H176	H	2.032113	0.173580	1.535238
H177	H	1.282151	-0.576370	0.924680
H178	H	1.532151	-0.326370	1.174680
H179	H	1.782151	-0.076370	1.424680
H180	H	2.032151	0.173630	1.674680
