data_functionalizedCrystal
_audit_creation_method	'MofGen! by Chris Wilmer'
_symmetry_space_group_name_H-M	'P1'
_symmetry_Int_Tables_number	1
_symmetry_cell_setting	triclinic
loop_
_symmetry_equiv_pos_as_xyz
  x,y,z
_cell_length_a	19.077105
_cell_length_b	13.897447
_cell_length_c	19.076919
_cell_angle_alpha	87.725848
_cell_angle_beta	89.923776
_cell_angle_gamma	87.715989
loop_
_atom_site_label
_atom_site_type_symbol
_atom_site_fract_x
_atom_site_fract_y
_atom_site_fract_z
Zn1	Zn	1.058299	-0.466652	0.440432
Zn2	Zn	1.062948	-0.621745	0.322930
Zn3	Zn	0.945516	-0.453730	0.318225
Zn4	Zn	0.940770	-0.621163	0.435682
O5	O	1.001883	-0.540823	0.379317
O6	O	1.157248	-0.492877	0.428802
O7	O	1.051303	-0.594293	0.223974
O8	O	0.960517	-0.320466	0.334455
O9	O	1.160664	-0.606823	0.342473
O10	O	1.043378	-0.329959	0.424240
O11	O	0.965026	-0.470853	0.220518
O12	O	0.846554	-0.470289	0.329849
O13	O	0.952429	-0.605831	0.534644
O14	O	0.843068	-0.593302	0.416145
O15	O	1.038777	-0.492313	0.538133
O16	O	1.046701	-0.756646	0.337868
O17	O	0.956937	-0.756219	0.420707
C18	C	0.819315	-0.530331	0.371971
C19	C	0.741210	-0.525867	0.368845
C20	C	1.001827	-0.791433	0.379299
C21	C	1.001866	-0.898650	0.379317
C22	C	0.702722	-0.587905	0.412236
C23	C	0.629335	-0.583697	0.409302
C24	C	0.594436	-0.517456	0.362974
C25	C	0.632929	-0.455412	0.319582
C26	C	0.706316	-0.459615	0.322520
C27	C	0.375148	-0.498003	0.349381
C28	C	0.301757	-0.493807	0.346445
C29	C	0.298167	-0.622092	0.436166
C30	C	0.371555	-0.626293	0.439097
C31	C	0.410041	-0.564245	0.395707
N32	N	0.519423	-0.513156	0.359972
N33	N	0.485054	-0.568541	0.398713
C34	C	1.001899	-0.985722	0.379334
C35	C	1.001948	-1.094959	0.379354
C36	C	1.185165	-0.551356	0.386692
C37	C	1.263269	-0.555845	0.389835
C38	C	0.994555	-0.550448	0.562598
C39	C	0.991431	-0.554550	0.640701
C40	C	1.001959	-0.289236	0.379352
C41	C	1.001991	-0.182024	0.379367
C42	C	1.009224	-0.531167	0.196751
C43	C	1.012483	-0.526801	0.118654
C44	C	1.034919	-0.497377	0.679212
C45	C	1.031976	-0.501227	0.752598
C46	C	0.985548	-0.562256	0.787472
C47	C	0.942056	-0.619432	0.748955
C48	C	0.944996	-0.615576	0.675571
C49	C	0.971932	-0.580121	1.006753
C50	C	0.968996	-0.583974	1.080143
C51	C	1.058915	-0.465768	1.083780
C52	C	1.061854	-0.461922	1.010394
C53	C	1.018359	-0.519094	0.971884
N54	N	0.982541	-0.566195	0.862484
N55	N	1.021364	-0.515149	0.896873
H56	H	0.598001	-0.634216	0.444634
H57	H	0.399964	-0.680236	0.476820
H58	H	0.904252	-0.669120	0.777355
C59	C	0.263993	-0.421781	0.296123
C60	C	0.313404	-0.368323	0.258766
C61	C	0.278641	-0.301962	0.212412
H62	H	0.236579	-0.455253	0.264250
H63	H	0.234316	-0.379540	0.321898
H64	H	0.343069	-0.410558	0.232992
H65	H	0.340820	-0.334830	0.290621
H66	H	0.248964	-0.259721	0.238187
H67	H	0.251229	-0.335442	0.180544
H68	H	0.312161	-0.265677	0.187065
C69	C	0.918628	-0.650385	1.117924
C70	C	0.934594	-0.745764	1.100665
C71	C	0.888209	-0.806963	1.135450
H72	H	0.923068	-0.644619	1.167153
H73	H	0.871889	-0.632974	1.103987
H74	H	0.981322	-0.763170	1.114607
H75	H	0.930150	-0.751561	1.051443
H76	H	0.841470	-0.789552	1.121513
H77	H	0.892652	-0.801188	1.184677
H78	H	0.899031	-0.871682	1.123740
C79	C	1.085348	-0.431018	0.641480
C80	C	1.122788	-0.381752	0.690917
C81	C	1.169242	-0.320601	0.656186
H82	H	1.117165	-0.468065	0.614081
H83	H	1.059642	-0.385891	0.611791
H84	H	1.148493	-0.426873	0.720593
H85	H	1.090990	-0.344687	0.718318
H86	H	1.143536	-0.275474	0.626498
H87	H	1.201054	-0.357655	0.628788
H88	H	1.194646	-0.287160	0.689723
H89	H	0.936525	-0.626689	0.975408
C90	C	1.079070	-0.439017	0.794436
C91	C	1.037611	-0.377095	0.834948
C92	C	1.080968	-0.319755	0.873488
H93	H	1.108543	-0.479058	0.824355
H94	H	1.107126	-0.402067	0.763172
H95	H	1.009567	-0.414042	0.866208
H96	H	1.008138	-0.337034	0.805047
H97	H	1.109024	-0.282805	0.842225
H98	H	1.110440	-0.359803	0.903403
H99	H	1.052845	-0.277728	0.900976
H100	H	1.099662	-0.412228	0.982005
H101	H	0.731131	-0.641848	0.449959
C102	C	0.897760	-0.677776	0.633882
C103	C	0.856489	-0.732075	0.680129
C104	C	0.812973	-0.789398	0.641752
H105	H	0.868236	-0.637729	0.604017
H106	H	0.925766	-0.719893	0.606351
H107	H	0.828485	-0.689963	0.707648
H108	H	0.885994	-0.772141	0.709995
H109	H	0.840979	-0.831514	0.614220
H110	H	0.783454	-0.749343	0.611888
H111	H	0.784971	-0.826252	0.673124
C112	C	1.106011	-0.403566	1.125624
C113	C	1.064553	-0.341652	1.166144
C114	C	1.107912	-0.284323	1.204692
H115	H	1.135483	-0.443615	1.155539
H116	H	1.134067	-0.366611	1.094365
H117	H	1.036508	-0.378604	1.197400
H118	H	1.035081	-0.301583	1.136247
H119	H	1.135969	-0.247368	1.173433
H120	H	1.137383	-0.324380	1.234602
H121	H	1.079790	-0.242302	1.232184
C122	C	0.256255	-0.689334	0.483246
C123	C	0.184517	-0.671462	0.470774
C124	C	0.145887	-0.733378	0.514141
H125	H	0.268595	-0.754303	0.473405
H126	H	0.266367	-0.678473	0.530971
H127	H	0.174410	-0.682330	0.423059
H128	H	0.172156	-0.606505	0.480619
H129	H	0.155998	-0.722517	0.561867
H130	H	0.158232	-0.798343	0.504296
H131	H	0.097208	-0.721254	0.505689
H132	H	0.604509	-0.401473	0.281864
C133	C	0.416963	-0.430537	0.302389
C134	C	0.457506	-0.373285	0.343940
C135	C	0.496033	-0.311115	0.300673
H136	H	0.446863	-0.467290	0.272861
H137	H	0.385692	-0.390433	0.274387
H138	H	0.488775	-0.413385	0.371929
H139	H	0.427625	-0.336512	0.373466
H140	H	0.464762	-0.271010	0.272672
H141	H	0.525928	-0.347875	0.271148
H142	H	0.523541	-0.272256	0.328859
C143	C	0.747982	-0.392217	0.275323
C144	C	0.701715	-0.333325	0.234106
C145	C	0.740071	-0.271232	0.190614
H146	H	0.775554	-0.353210	0.303322
H147	H	0.777807	-0.429058	0.245768
H148	H	0.671901	-0.296487	0.263658
H149	H	0.674142	-0.372305	0.206093
H150	H	0.769897	-0.308073	0.161059
H151	H	0.767642	-0.232232	0.218619
H152	H	0.708685	-0.231273	0.162639
