data_functionalizedCrystal
_audit_creation_method	'MofGen! by Chris Wilmer'
_symmetry_space_group_name_H-M	'P1'
_symmetry_Int_Tables_number	1
_symmetry_cell_setting	triclinic
loop_
_symmetry_equiv_pos_as_xyz
  x,y,z
_cell_length_a	12.759400
_cell_length_b	29.839134
_cell_length_c	12.759393
_cell_angle_alpha	90.034807
_cell_angle_beta	90.030452
_cell_angle_gamma	90.007318
loop_
_atom_site_label
_atom_site_type_symbol
_atom_site_fract_x
_atom_site_fract_y
_atom_site_fract_z
Zn1	Zn	-0.418419	0.686850	0.594409
Zn2	Zn	0.081581	1.186850	1.094409
Zn3	Zn	-0.594134	0.686804	0.418729
Zn4	Zn	-0.094134	1.186804	0.918729
Zn5	Zn	-0.418448	0.611719	0.418702
Zn6	Zn	0.081552	1.111719	0.918702
Zn7	Zn	-0.594034	0.611716	0.594324
Zn8	Zn	-0.094034	1.111716	1.094324
O9	O	-0.506259	0.649272	0.506541
O10	O	-0.006259	1.149272	1.006541
O11	O	-0.441757	0.749711	0.571152
O12	O	0.058243	1.249711	1.071152
O13	O	-0.570883	0.676825	0.271705
O14	O	-0.070883	1.176825	0.771705
O15	O	-0.271423	0.621706	0.442034
O16	O	0.228577	1.121706	0.942034
O17	O	-0.570855	0.749677	0.442081
O18	O	-0.070855	1.249677	0.942081
O19	O	-0.271401	0.676905	0.571125
O20	O	0.228599	1.176905	1.071125
O21	O	-0.441807	0.621661	0.271684
O22	O	0.058193	1.121661	0.771684
O23	O	-0.441710	0.548852	0.441951
O24	O	0.058290	1.048852	0.941951
O25	O	-0.570684	0.621701	0.741356
O26	O	-0.070684	1.121701	1.241356
O27	O	-0.570712	0.548849	0.570980
O28	O	-0.070712	1.048849	1.070980
O29	O	-0.441660	0.676901	0.741419
O30	O	0.058340	1.176901	1.241419
O31	O	-0.741142	0.676822	0.441998
O32	O	-0.241142	1.176822	0.941998
O33	O	-0.741068	0.621656	0.571007
O34	O	-0.241068	1.121656	1.071007
C35	C	-0.506204	0.532550	0.506454
C36	C	-0.006204	1.032550	1.006454
C37	C	-0.506206	0.482615	0.506442
C38	C	-0.006206	0.982615	1.006442
C39	C	-0.779226	0.649246	0.506519
C40	C	-0.279226	1.149246	1.006519
C41	C	-0.896003	0.649275	0.506545
C42	C	-0.396003	1.149275	1.006545
C43	C	-0.438988	0.126017	0.439493
C44	C	0.061012	0.626017	0.939493
C45	C	-0.438958	0.313690	0.439429
C46	C	0.061042	0.813690	0.939429
O47	O	-0.381718	0.337945	0.382409
O48	O	0.118282	0.837945	0.882409
N49	N	-0.506223	0.337170	0.506495
N50	N	-0.006223	0.837170	1.006495
C51	C	-0.573495	0.313729	0.573586
C52	C	-0.073495	0.813729	1.073586
O53	O	-0.630700	0.338007	0.630636
O54	O	-0.130700	0.838007	1.130636
C55	C	-0.573519	0.126057	0.573654
C56	C	-0.073519	0.626057	1.073654
C57	C	-0.506257	0.102579	0.506577
C58	C	-0.006257	0.602579	1.006577
C59	C	-0.371731	0.102539	0.372422
C60	C	0.128269	0.602539	0.872422
C61	C	-0.371743	0.055623	0.372434
C62	C	0.128257	0.555623	0.872434
C63	C	-0.439012	0.032186	0.439518
C64	C	0.060988	0.532186	0.939518
C65	C	-0.506269	0.055664	0.506589
C66	C	-0.006269	0.555664	1.006589
C67	C	-0.640785	0.102617	0.640750
C68	C	-0.140785	0.602617	1.140750
C69	C	-0.640783	0.055696	0.640763
C70	C	-0.140783	0.555696	1.140763
C71	C	-0.573521	0.032218	0.573686
C72	C	-0.073521	0.532218	1.073686
C73	C	-0.573550	-0.014689	0.573686
C74	C	-0.073550	0.485311	1.073686
N75	N	-0.506286	-0.038170	0.506620
N76	N	-0.006286	0.461830	1.006620
C77	C	-0.439016	-0.014732	0.439536
C78	C	0.060984	0.485268	0.939536
C79	C	-0.573479	0.412260	0.573544
C80	C	-0.073479	0.912260	1.073544
C81	C	-0.573475	0.459177	0.573526
C82	C	-0.073475	0.959177	1.073526
C83	C	-0.438936	0.459135	0.439370
C84	C	0.061064	0.959135	0.939370
C85	C	-0.438947	0.412216	0.439384
C86	C	0.061053	0.912216	0.939384
C87	C	-0.506215	0.388779	0.506478
C88	C	-0.006215	0.888779	1.006478
C89	C	-0.439047	-0.113258	0.439567
C90	C	0.060953	0.386742	0.939567
C91	C	-0.439069	-0.160177	0.439583
C92	C	0.060931	0.339823	0.939583
C93	C	-0.573603	-0.160131	0.573742
C94	C	-0.073603	0.339869	1.073742
C95	C	-0.573586	-0.113215	0.573723
C96	C	-0.073586	0.386785	1.073723
C97	C	-0.506300	-0.089780	0.506632
C98	C	-0.006300	0.410220	1.006632
O99	O	-0.630753	-0.038973	0.630684
O100	O	-0.130753	0.461027	1.130684
O101	O	-0.381804	-0.039018	0.382512
O102	O	0.118196	0.460982	0.882512
C103	C	-0.438976	0.172932	0.439480
C104	C	0.061024	0.672932	0.939480
C105	C	-0.506233	0.196410	0.506552
C106	C	-0.006233	0.696410	1.006552
C107	C	-0.573502	0.172972	0.573635
C108	C	-0.073502	0.672972	1.073635
C109	C	-0.506228	0.243328	0.506533
C110	C	-0.006228	0.743328	1.006533
C111	C	-0.438959	0.266765	0.439450
C112	C	0.061041	0.766765	0.939450
C113	C	-0.371694	0.243285	0.372384
C114	C	0.128306	0.743285	0.872384
C115	C	-0.371706	0.196370	0.372396
C116	C	0.128294	0.696370	0.872396
C117	C	-0.640767	0.196453	0.640701
C118	C	-0.140767	0.696453	1.140701
C119	C	-0.640750	0.243368	0.640682
C120	C	-0.140750	0.743368	1.140682
C121	C	-0.573481	0.266806	0.573598
C122	C	-0.073481	0.766806	1.073598
C123	C	-1.060599	0.678060	0.439478
C124	C	-0.560599	1.178060	0.939478
C125	C	-0.950875	0.678033	0.439445
C126	C	-0.450875	1.178033	0.939445
C127	C	-0.950860	0.620540	0.573675
C128	C	-0.450860	1.120540	1.073675
C129	C	-1.060582	0.620565	0.573702
C130	C	-0.560582	1.120565	1.073702
C131	C	-0.232225	0.649311	0.506586
C132	C	0.267775	1.149311	1.006586
C133	C	-0.115449	0.649327	0.506605
C134	C	0.384551	1.149327	1.006605
C135	C	-0.506158	0.649306	0.780575
C136	C	-0.006158	1.149306	1.280575
C137	C	-0.506115	0.649320	0.897351
C138	C	-0.006115	1.149320	1.397351
C139	C	-0.506314	0.766450	0.506629
C140	C	-0.006314	1.266450	1.006629
C141	C	-0.506338	0.816385	0.506666
C142	C	-0.006338	1.316385	1.006666
C143	C	-0.506283	0.649264	0.233574
C144	C	-0.006283	1.149264	0.733574
C145	C	-0.506030	0.649337	0.116798
C146	C	-0.006030	1.149337	0.616798
C147	C	-0.438921	0.678065	0.952248
C148	C	0.061079	1.178065	1.452248
C149	C	-0.438876	0.678073	1.061972
C150	C	0.061124	1.178073	1.561972
C151	C	-0.573227	0.620589	1.061894
C152	C	-0.073227	1.120589	1.561894
C153	C	-0.573266	0.620579	0.952172
C154	C	-0.073266	1.120579	1.452172
H155	H	-0.384294	-0.179291	0.384957
H156	H	0.115706	0.320709	0.884957
H157	H	-0.316971	0.036512	0.317813
H158	H	0.183029	0.536512	0.817813
H159	H	-0.384159	0.701479	1.106663
H160	H	0.115841	1.201479	1.606663
H161	H	-0.906220	0.701429	0.384783
H162	H	-0.406220	1.201429	0.884783
C163	C	-0.647180	0.588959	0.891777
C164	C	-0.147180	1.088959	1.391777
H165	H	-0.637576	0.593066	0.818579
H166	H	-0.137576	1.093066	1.318579
H167	H	-0.717769	0.595522	0.909748
H168	H	-0.217769	1.095522	1.409748
H169	H	-0.631772	0.558776	0.909732
H170	H	-0.131772	1.058776	1.409732
C171	C	-0.647097	0.588979	1.122194
C172	C	-0.147097	1.088979	1.622194
H173	H	-0.687114	0.571855	1.073782
H174	H	-0.187114	1.071855	1.573782
H175	H	-0.692867	0.606162	1.165005
H176	H	-0.192867	1.106162	1.665005
H177	H	-0.606877	0.569413	1.164985
H178	H	-0.106877	1.069413	1.664985
C179	C	-1.120925	0.588959	0.647546
C180	C	-0.620925	1.088959	1.147546
H181	H	-1.194129	0.593091	0.637943
H182	H	-0.694129	1.093091	1.137943
H183	H	-1.102882	0.595513	0.718150
H184	H	-0.602882	1.095513	1.218150
H185	H	-1.103004	0.558772	0.632080
H186	H	-0.603004	1.058772	1.132080
C187	C	-0.890503	0.588908	0.647485
C188	C	-0.390503	1.088908	1.147485
H189	H	-0.817300	0.593011	0.637864
H190	H	-0.317300	1.093011	1.137864
H191	H	-0.908540	0.558730	0.632039
H192	H	-0.408540	1.058730	1.132039
H193	H	-0.908423	0.595475	0.718100
H194	H	-0.408423	1.095475	1.218100
C195	C	-0.365053	0.709675	0.891944
C196	C	0.134947	1.209675	1.391944
H197	H	-0.374705	0.705556	0.818734
H198	H	0.125295	1.205556	1.318734
H199	H	-0.294454	0.703112	0.909932
H200	H	0.205546	1.203112	1.409932
H201	H	-0.380445	0.739860	0.909953
H202	H	0.119555	1.239860	1.409953
H203	H	-0.316946	0.121617	0.317794
H204	H	0.183054	0.621617	0.817794
C205	C	-0.365037	-0.087486	0.365767
C206	C	0.134963	0.412514	0.865767
H207	H	-0.324994	-0.108193	0.325823
H208	H	0.175006	0.391807	0.825823
H209	H	-0.319296	-0.069169	0.406019
H210	H	0.180704	0.430831	0.906019
H211	H	-0.405174	-0.069199	0.319909
H212	H	0.094826	0.430801	0.819909
H213	H	-0.628261	0.393182	0.628183
H214	H	-0.128261	0.893182	1.128183
C215	C	-0.714765	0.128432	0.714546
C216	C	-0.214765	0.628432	1.214546
H217	H	-0.754811	0.107748	0.754505
H218	H	-0.254811	0.607748	1.254505
H219	H	-0.760504	0.146723	0.674293
H220	H	-0.260504	0.646723	1.174293
H221	H	-0.674613	0.146747	0.760389
H222	H	-0.174613	0.646747	1.260389
H223	H	-0.384173	0.393104	0.384767
H224	H	0.115827	0.893104	0.884767
H225	H	-1.105268	0.701480	0.384843
H226	H	-0.605268	1.201480	0.884843
C227	C	-0.714758	0.269191	0.714454
C228	C	-0.214758	0.769191	1.214454
H229	H	-0.705133	0.300491	0.704838
H230	H	-0.205133	0.800491	1.204838
H231	H	-0.699474	0.261523	0.785074
H232	H	-0.199474	0.761523	1.285074
H233	H	-0.785332	0.261492	0.698944
H234	H	-0.285332	0.761492	1.198944
H235	H	-0.384164	0.478226	0.384747
H236	H	0.115836	0.978226	0.884747
H237	H	-0.628376	-0.179222	0.628356
H238	H	-0.128376	0.320778	1.128356
C239	C	-0.647484	0.485000	0.647285
C240	C	-0.147484	0.985000	1.147285
H241	H	-0.637864	0.516300	0.637664
H242	H	-0.137864	1.016300	1.137664
H243	H	-0.632203	0.477336	0.717907
H244	H	-0.132203	0.977336	1.217907
H245	H	-0.718056	0.477298	0.631772
H246	H	-0.218056	0.977298	1.131772
H247	H	-0.628364	-0.094099	0.628335
H248	H	-0.128364	0.405901	1.128335
C249	C	-0.714740	0.029918	0.714609
C250	C	-0.214740	0.529918	1.214609
H251	H	-0.754785	0.050623	0.754557
H252	H	-0.254785	0.550623	1.254557
H253	H	-0.674569	0.011639	0.760443
H254	H	-0.174569	0.511639	1.260443
H255	H	-0.760498	0.011594	0.674385
H256	H	-0.260498	0.511594	1.174385
H257	H	-0.316925	0.262376	0.317758
H258	H	0.183075	0.762376	0.817758
C259	C	-0.297710	0.170550	0.298619
C260	C	0.202290	0.670550	0.798619
H261	H	-0.257644	0.191234	0.258677
H262	H	0.242356	0.691234	0.758677
H263	H	-0.337839	0.152231	0.252774
H264	H	0.162161	0.652231	0.752774
H265	H	-0.251973	0.152264	0.338896
H266	H	0.248027	0.652264	0.838896
H267	H	-0.695546	0.177374	0.695331
H268	H	-0.195546	0.677374	1.195331
