data_functionalizedCrystal
_audit_creation_method	'MofGen! by Chris Wilmer'
_symmetry_space_group_name_H-M	'P1'
_symmetry_Int_Tables_number	1
_symmetry_cell_setting	triclinic
loop_
_symmetry_equiv_pos_as_xyz
  x,y,z
_cell_length_a	16.120490
_cell_length_b	13.031981
_cell_length_c	16.120256
_cell_angle_alpha	94.686373
_cell_angle_beta	89.870193
_cell_angle_gamma	93.935019
loop_
_atom_site_label
_atom_site_type_symbol
_atom_site_fract_x
_atom_site_fract_y
_atom_site_fract_z
Zn1	Zn	1.197361	-0.522910	0.478982
Zn2	Zn	1.697361	-0.022910	0.978982
Zn3	Zn	1.188577	-0.687181	0.322471
Zn4	Zn	1.688577	-0.187181	0.822471
Zn5	Zn	1.067022	-0.505458	0.334756
Zn6	Zn	1.567022	-0.005458	0.834756
Zn7	Zn	1.042624	-0.686226	0.454545
Zn8	Zn	1.542624	-0.186226	0.954545
O9	O	1.123896	-0.600444	0.397688
O10	O	1.623896	-0.100444	0.897688
O11	O	1.311825	-0.552404	0.463305
O12	O	1.811825	-0.052404	0.963305
O13	O	1.178987	-0.656171	0.208468
O14	O	1.678987	-0.156171	0.708468
O15	O	1.098198	-0.363372	0.369256
O16	O	1.598198	0.136628	0.869256
O17	O	1.305371	-0.673094	0.348317
O18	O	1.805371	-0.173094	0.848317
O19	O	1.193957	-0.376194	0.475218
O20	O	1.693957	0.123806	0.975218
O21	O	1.089681	-0.522660	0.217494
O22	O	1.589681	-0.022660	0.717494
O23	O	0.948157	-0.521733	0.345562
O24	O	1.448157	-0.021733	0.845562
O25	O	1.056616	-0.671466	0.573419
O26	O	1.556616	-0.171466	1.073419
O27	O	0.930232	-0.654543	0.433570
O28	O	1.430232	-0.154543	0.933570
O29	O	1.170300	-0.551478	0.591373
O30	O	1.670300	-0.051478	1.091373
O31	O	1.155330	-0.831455	0.324622
O32	O	1.655330	-0.331455	0.824622
O33	O	1.048099	-0.830753	0.421657
O34	O	1.548099	-0.330753	0.921657
C35	C	1.098135	-0.868548	0.369174
C36	C	1.598135	-0.368548	0.869174
C37	C	1.087188	-0.983251	0.357006
C38	C	1.587188	-0.483251	0.857006
C39	C	0.909213	-0.586142	0.388248
C40	C	1.409213	-0.086142	0.888248
C41	C	0.817367	-0.580049	0.384226
C42	C	1.317367	-0.080049	0.884226
C43	C	1.129652	-1.040651	0.404057
C44	C	1.629652	-0.540651	0.904057
C45	C	1.118339	-1.159202	0.391483
C46	C	1.618339	-0.659202	0.891483
C47	C	0.599425	-0.632038	0.418552
C48	C	1.099425	-0.132038	0.918552
C49	C	0.649206	-0.568935	0.376881
C50	C	1.149206	-0.068935	0.876881
C51	C	0.742779	-0.575121	0.380969
C52	C	1.242779	-0.075121	0.880969
C53	C	0.505843	-0.625854	0.414465
C54	C	1.005843	-0.125854	0.914465
C55	C	1.339417	-0.614802	0.407166
C56	C	1.839417	-0.114802	0.907166
C57	C	1.431260	-0.620921	0.411205
C58	C	1.931260	-0.120921	0.911205
C59	C	1.111716	-0.613312	0.613217
C60	C	1.611716	-0.113312	1.113217
C61	C	1.106526	-0.618796	0.705062
C62	C	1.606526	-0.118796	1.205062
C63	C	1.149779	-0.331295	0.426333
C64	C	1.649779	0.168705	0.926333
C65	C	1.160809	-0.216600	0.438540
C66	C	1.660809	0.283400	0.938540
C67	C	1.136083	-0.587554	0.183009
C68	C	1.636083	-0.087554	0.683009
C69	C	1.141462	-0.581790	0.091202
C70	C	1.641462	-0.081790	0.591202
C71	C	1.150964	-0.571820	0.923036
C72	C	1.650964	-0.071820	1.423036
C73	C	1.097026	-0.628763	0.873223
C74	C	1.597026	-0.128763	1.373223
C75	C	1.102313	-0.623216	0.779650
C76	C	1.602313	-0.123216	1.279650
C77	C	1.145678	-0.577366	1.016618
C78	C	1.645678	-0.077366	1.516618
H79	H	1.174379	-1.002028	0.453652
H80	H	1.674379	-0.502028	0.953652
Br81	Br	1.043772	-1.223564	0.308826
Br82	Br	1.543772	-0.723564	0.808826
H83	H	1.046873	-0.681674	0.900854
H84	H	1.546873	-0.181674	1.400854
H85	H	1.205539	-1.177980	0.488138
H86	H	1.705539	-0.677980	0.988138
Br87	Br	1.234533	-0.483608	0.876987
Br88	Br	1.734533	0.016392	1.376987
H89	H	1.042454	-1.021876	0.307419
H90	H	1.542454	-0.521876	0.807419
Br91	Br	0.603116	-0.471151	0.312298
Br92	Br	1.103116	0.028849	0.812298
H93	H	0.627080	-0.690704	0.457295
H94	H	1.127080	-0.190704	0.957295
