data_functionalizedCrystal
_audit_creation_method	'MofGen! by Chris Wilmer'
_symmetry_space_group_name_H-M	'P1'
_symmetry_Int_Tables_number	1
_symmetry_cell_setting	triclinic
loop_
_symmetry_equiv_pos_as_xyz
  x,y,z
_cell_length_a	15.944551
_cell_length_b	10.654550
_cell_length_c	9.730223
_cell_angle_alpha	90.000043
_cell_angle_beta	89.994648
_cell_angle_gamma	96.008166
loop_
_atom_site_label
_atom_site_type_symbol
_atom_site_fract_x
_atom_site_fract_y
_atom_site_fract_z
O1	O	0.117976	-1.666313	-0.114191
O2	O	0.129216	-1.300689	-0.114216
O3	O	0.001379	-1.493485	-0.114190
O4	O	0.245813	-1.473516	-0.114216
O5	O	0.001376	-1.493473	0.114390
O6	O	0.129213	-1.300676	0.114364
O7	O	0.117973	-1.666300	0.114389
Zn8	Zn	0.123592	-1.483486	0.150669
Zn9	Zn	0.123597	-1.483503	-0.150495
O10	O	0.245810	-1.473504	0.114363
C11	C	-0.029921	-1.492650	0.000100
C12	C	-0.123182	-1.490165	0.000100
C13	C	0.128389	-1.253895	0.000071
C14	C	0.125920	-1.114484	0.000061
C15	C	0.118800	-1.713094	0.000099
C16	C	0.121269	-1.852505	0.000100
C17	C	-0.338764	-1.364720	0.000073
C18	C	-0.399446	-1.422966	0.112781
C19	C	-0.293933	-1.485668	0.000090
C20	C	-0.399426	-1.423007	-0.112581
C21	C	-0.458871	-1.481317	0.000073
C22	C	-0.353387	-1.543948	0.112890
C23	C	-0.353360	-1.543972	-0.112573
C24	C	-0.414024	-1.602306	0.000163
C25	C	-0.198917	-1.488172	0.000100
C26	C	-0.553887	-1.478822	0.000072
C27	C	0.277110	-1.474339	0.000070
C28	C	0.370371	-1.476824	0.000061
N29	N	0.123589	-1.483484	0.356205
C30	C	0.201189	-1.034024	0.000057
C31	C	0.198863	-0.903034	0.000081
C32	C	0.045995	-0.932975	0.000108
C33	C	0.048321	-1.063963	0.000094
N34	N	0.123594	-1.483514	-0.356032
C35	C	0.067007	-1.568883	0.428142
C36	C	0.067007	-1.568896	0.572025
C37	C	0.180179	-1.398106	0.572021
C38	C	0.180174	-1.398089	0.428140
H39	H	-0.306038	-1.264327	0.000178
O40	O	-0.423882	-1.361957	-0.226154
C41	C	-0.512275	-1.361488	-0.225245
H42	H	-0.536590	-1.373939	-0.115394
H43	H	-0.529507	-1.267906	-0.267941
H44	H	-0.542204	-1.442237	-0.291665
O45	O	-0.329006	-1.604772	-0.226381
C46	C	-0.352230	-1.540700	-0.344983
H47	H	-0.359589	-1.438314	-0.317988
H48	H	-0.301285	-1.543773	-0.426767
H49	H	-0.414595	-1.588201	-0.386099
O50	O	-0.029360	-0.883833	-0.000117
C51	C	-0.035268	-0.808928	-0.118477
H52	H	0.008807	-0.839903	-0.201229
H53	H	-0.102895	-0.820677	-0.158205
H54	H	-0.016495	-0.705634	-0.091707
O55	O	-0.024878	-1.141951	0.000035
C56	C	-0.093868	-1.069275	0.000089
H57	H	-0.073124	-0.971509	-0.043182
H58	H	-0.146652	-1.117593	-0.066267
H59	H	-0.117616	-1.059957	0.109756
H60	H	0.020930	-1.638416	0.369576
O61	O	0.011961	-1.651683	0.641966
C62	C	-0.040268	-1.584447	0.725237
H63	H	-0.042307	-1.485410	0.681892
H64	H	-0.106712	-1.635688	0.726875
H65	H	-0.014020	-1.577876	0.834277
O66	O	0.235027	-1.315008	0.358188
C67	C	0.189556	-1.237552	0.274958
H68	H	0.123302	-1.235433	0.318341
H69	H	0.223206	-1.137740	0.273320
H70	H	0.185390	-1.276848	0.165912
O71	O	-0.452910	-1.722164	-0.000028
C72	C	-0.503134	-1.741341	-0.118951
H73	H	-0.478512	-1.671192	-0.201701
H74	H	-0.500328	-1.841630	-0.158200
H75	H	-0.571171	-1.726710	-0.093118
O76	O	0.235031	-1.315114	0.642057
C77	C	0.189566	-1.237637	0.725285
H78	H	0.124149	-1.287656	0.746846
H79	H	0.224505	-1.217787	0.826457
H80	H	0.183280	-1.144818	0.669855
O81	O	-0.423888	-1.361817	0.226301
C82	C	-0.465207	-1.257095	0.185839
H83	H	-0.491006	-1.272894	0.077248
H84	H	-0.519416	-1.245380	0.259556
H85	H	-0.418615	-1.168331	0.187995
O86	O	-0.329104	-1.605038	0.226552
C87	C	-0.288457	-1.710493	0.186345
H88	H	-0.262786	-1.695394	0.077579
H89	H	-0.234230	-1.722600	0.259878
H90	H	-0.335483	-1.798758	0.189064
O91	O	0.276617	-1.082952	-0.000146
C92	C	0.322539	-1.041847	-0.118547
H93	H	0.299115	-0.950996	-0.158002
H94	H	0.392381	-1.023668	-0.091929
H95	H	0.313257	-1.117636	-0.201452
O96	O	0.271924	-0.824750	-0.000114
C97	C	0.275159	-0.748094	-0.118506
H98	H	0.208448	-0.741460	-0.157953
H99	H	0.305877	-0.649652	-0.091876
H100	H	0.313769	-0.791183	-0.201420
