data_functionalizedCrystal
_audit_creation_method	'MofGen! by Chris Wilmer'
_symmetry_space_group_name_H-M	'P1'
_symmetry_Int_Tables_number	1
_symmetry_cell_setting	triclinic
loop_
_symmetry_equiv_pos_as_xyz
  x,y,z
_cell_length_a	23.532361
_cell_length_b	23.532407
_cell_length_c	22.010155
_cell_angle_alpha	90.010545
_cell_angle_beta	89.988583
_cell_angle_gamma	97.160831
loop_
_atom_site_label
_atom_site_type_symbol
_atom_site_fract_x
_atom_site_fract_y
_atom_site_fract_z
O1	O	0.755286	-0.069007	-0.050472
O2	O	0.589419	-0.079038	-0.050488
O3	O	0.677354	0.008910	-0.050466
O4	O	0.667351	-0.156955	-0.050494
O5	O	0.677328	0.008910	0.050584
O6	O	0.589393	-0.079038	0.050563
O7	O	0.755260	-0.069007	0.050578
Cu8	Cu	0.672324	-0.074023	0.059797
Cu9	Cu	0.672355	-0.074023	-0.059707
O10	O	0.667324	-0.156955	0.050557
C11	C	0.568189	-0.078787	0.000036
C12	C	0.504971	-0.078032	0.000030
C13	C	0.231741	-0.074728	-0.055048
C14	C	0.291141	-0.075443	-0.055050
O15	O	0.321879	-0.075793	-0.101894
N16	N	0.320832	-0.075804	0.000033
C17	C	0.291122	-0.075445	0.055121
O18	O	0.321831	-0.075817	0.101973
C19	C	0.231724	-0.074726	0.055122
C20	C	0.202035	-0.074370	0.000036
C21	C	0.202052	-0.074372	-0.110130
C22	C	0.142657	-0.073658	-0.110128
C23	C	0.112950	-0.073301	-0.055044
C24	C	0.142639	-0.073657	0.000037
C25	C	0.202015	-0.074362	0.110209
C26	C	0.142612	-0.073642	0.110205
C27	C	0.112923	-0.073287	0.055119
C28	C	0.053536	-0.072585	0.055123
N29	N	0.023845	-0.072224	0.000040
C30	C	0.053552	-0.072582	-0.055043
C31	C	0.415862	-0.076954	0.055115
C32	C	0.475258	-0.077677	0.055114
C33	C	0.475274	-0.077674	-0.055057
C34	C	0.415876	-0.076955	-0.055056
C35	C	0.386171	-0.076593	0.000032
C36	C	-0.071184	-0.071083	-0.055035
C37	C	-0.130585	-0.070372	-0.055029
C38	C	-0.130595	-0.070371	0.055142
C39	C	-0.071199	-0.071086	0.055135
C40	C	-0.041495	-0.071440	0.000042
O41	O	0.022761	-0.072232	0.101944
O42	O	0.022836	-0.072202	-0.101888
C43	C	0.677086	0.030126	0.000061
C44	C	0.676320	0.093343	0.000067
C45	C	0.723555	0.492454	0.000048
C46	C	0.722844	0.551854	0.000045
O47	O	0.766630	0.588606	0.000028
N48	N	0.670566	0.574471	0.000041
C49	C	0.618997	0.537685	0.000034
O50	O	0.574465	0.562377	0.000030
C51	C	0.619709	0.478286	0.000033
C52	C	0.671990	0.455672	0.000043
C53	C	0.775832	0.469839	0.000058
C54	C	0.776543	0.410443	0.000062
C55	C	0.724977	0.373662	0.000057
C56	C	0.672701	0.396276	0.000048
C57	C	0.568140	0.441501	0.000022
C58	C	0.568857	0.382099	0.000020
C59	C	0.621137	0.359485	0.000030
C60	C	0.621847	0.300099	0.000047
N61	N	0.674124	0.277481	0.000051
C62	C	0.725690	0.314263	0.000056
C63	C	0.617505	0.662427	0.000036
C64	C	0.616793	0.721825	0.000041
C65	C	0.720640	0.735990	0.000051
C66	C	0.721352	0.676591	0.000050
C67	C	0.669783	0.639810	0.000040
C68	C	0.727179	0.189526	0.000065
C69	C	0.727886	0.130124	0.000072
C70	C	0.624039	0.115965	0.000059
C71	C	0.623332	0.175361	0.000056
C72	C	0.674907	0.212141	0.000057
O73	O	0.578083	0.263312	0.000062
O74	O	0.770214	0.289562	0.000052
C75	C	0.776489	-0.069258	0.000054
C76	C	0.839708	-0.070014	0.000055
C77	C	0.667592	0.821829	0.000034
C78	C	0.668358	0.758612	0.000043
N79	N	0.672306	-0.074022	0.143850
N80	N	0.672377	-0.074018	-0.143759
C81	C	0.706701	-0.108377	0.563627
C82	C	0.706708	-0.108376	0.627234
O83	O	0.735932	-0.137582	0.660123
N84	N	0.672366	-0.074016	0.659057
C85	C	0.638020	-0.039651	0.627268
O86	O	0.608810	-0.010425	0.660177
C87	C	0.638016	-0.039650	0.563662
C88	C	0.672356	-0.074016	0.531843
C89	C	0.741039	-0.142741	0.531807
C90	C	0.741031	-0.142743	0.468204
C91	C	0.706686	-0.108382	0.436420
C92	C	0.672348	-0.074018	0.468239
C93	C	0.603673	-0.005282	0.531875
C94	C	0.603673	-0.005284	0.468264
C95	C	0.638013	-0.039650	0.436445
C96	C	0.637996	-0.039659	0.372852
N97	N	0.672338	-0.074019	0.341030
C98	C	0.706683	-0.108380	0.372814
C99	C	0.638030	-0.039656	0.760846
C100	C	0.638030	-0.039659	0.824452
C101	C	0.706719	-0.108384	0.824413
C102	C	0.706716	-0.108382	0.760806
C103	C	0.672372	-0.074015	0.729024
C104	C	0.706664	-0.108383	0.239242
C105	C	0.706651	-0.108383	0.175633
C106	C	0.637964	-0.039657	0.175678
C107	C	0.637974	-0.039658	0.239281
C108	C	0.672329	-0.074023	0.271062
O109	O	0.608789	-0.010466	0.339923
O110	O	0.735893	-0.137596	0.339898
H111	H	-0.047027	-0.071386	0.099991
H112	H	0.734638	-0.136365	0.265111
H113	H	0.574220	0.740232	0.000044
H114	H	0.580761	0.193774	0.000065
C115	C	0.832563	0.510291	0.000070
N116	N	0.875297	0.540756	0.000085
H117	H	0.770461	0.111716	0.000082
H118	H	0.769176	0.219466	0.000064
C119	C	0.778864	0.651722	0.000055
N120	N	0.822185	0.632993	0.000057
C121	C	0.109940	-0.073247	0.170808
N122	N	0.085332	-0.072952	0.216453
H123	H	0.525567	0.459902	0.000010
H124	H	0.226177	-0.074649	0.155066
C125	C	-0.163284	-0.069976	0.115731
N126	N	-0.187906	-0.069673	0.161367
C127	C	0.567320	0.075494	0.000050
N128	N	0.524599	0.045010	0.000036
C129	C	0.600279	-0.001769	0.140703
N130	N	0.571931	0.026804	0.114359
H131	H	0.819115	0.392037	0.000068
H132	H	0.734614	-0.136371	0.149729
C133	C	0.512125	0.341642	0.000012
N134	N	0.469395	0.311172	0.000007
C135	C	0.507909	-0.078074	0.115714
N136	N	0.532499	-0.078369	0.161359
H137	H	0.768996	-0.170725	0.442302
H138	H	0.391679	-0.076666	0.099976
C139	C	0.777363	0.776461	0.000050
N140	N	0.820084	0.806946	0.000048
H141	H	0.769010	-0.170722	0.557679
C142	C	0.560771	0.621972	0.000033
N143	N	0.518039	0.591505	0.000030
H144	H	0.734678	-0.136367	0.734903
C145	C	0.565889	0.032522	0.433307
N146	N	0.537429	0.060995	0.406979
H147	H	0.734684	-0.136363	0.850303
H148	H	0.610060	-0.011682	0.850353
H149	H	0.610057	-0.011672	0.734973
H150	H	0.575711	0.022703	0.557771
C151	C	0.600198	-0.001855	0.274283
N152	N	0.571749	0.026624	0.300643
H153	H	0.118489	-0.073367	-0.154985
H154	H	-0.154756	-0.070084	-0.099889
H155	H	-0.047006	-0.071372	-0.099898
H156	H	0.499472	-0.077965	-0.099909
C157	C	0.234721	-0.074765	-0.170732
N158	N	0.259322	-0.075064	-0.216381
H159	H	0.391707	-0.076666	-0.099912
