data_functionalizedCrystal
_audit_creation_method	'MofGen! by Chris Wilmer'
_symmetry_space_group_name_H-M	'P1'
_symmetry_Int_Tables_number	1
_symmetry_cell_setting	triclinic
loop_
_symmetry_equiv_pos_as_xyz
  x,y,z
_cell_length_a	6.817900
_cell_length_b	9.582860
_cell_length_c	16.418042
_cell_angle_alpha	93.122023
_cell_angle_beta	103.389568
_cell_angle_gamma	111.206767
loop_
_atom_site_label
_atom_site_type_symbol
_atom_site_fract_x
_atom_site_fract_y
_atom_site_fract_z
V1	V	-4.065734	-0.208271	-0.260999
V2	V	-3.815734	0.041729	-0.010999
V3	V	-3.565734	0.291729	0.239001
V4	V	-3.315734	0.541729	0.489001
O5	O	-4.011405	0.008757	-0.256189
O6	O	-3.761405	0.258757	-0.006189
O7	O	-3.511405	0.508757	0.243811
O8	O	-3.261405	0.758757	0.493811
O9	O	-4.056512	-0.411763	-0.259062
O10	O	-3.806512	-0.161763	-0.009062
O11	O	-3.556512	0.088237	0.240938
O12	O	-3.306512	0.338237	0.490938
O13	O	-4.016296	-0.205617	-0.374899
O14	O	-3.766296	0.044383	-0.124899
O15	O	-3.516296	0.294383	0.125101
O16	O	-3.266296	0.544383	0.375101
O17	O	-4.051900	-0.198817	-0.139550
O18	O	-3.801900	0.051183	0.110450
O19	O	-3.551900	0.301183	0.360450
O20	O	-3.301900	0.551183	0.610450
V21	V	-4.544419	-0.182247	-0.246491
V22	V	-4.294419	0.067753	0.003509
V23	V	-4.044419	0.317753	0.253509
V24	V	-3.794419	0.567753	0.503509
O25	O	-4.337603	-0.265357	-0.292823
O26	O	-4.087603	-0.015357	-0.042823
O27	O	-3.837603	0.234643	0.207177
O28	O	-3.587603	0.484643	0.457177
O29	O	-4.722747	-0.125162	-0.214667
O30	O	-4.472747	0.124838	0.035333
O31	O	-4.222747	0.374838	0.285333
O32	O	-3.972747	0.624838	0.535333
O33	O	-4.330434	0.021245	-0.248428
O34	O	-4.080434	0.271245	0.001572
O35	O	-3.830434	0.521245	0.251572
O36	O	-3.580434	0.771245	0.501572
O37	O	-4.716145	-0.399275	-0.251302
O38	O	-4.466145	-0.149275	-0.001302
O39	O	-4.216145	0.100725	0.248698
O40	O	-3.966145	0.350725	0.498698
O41	O	-4.675650	-0.191702	-0.367941
O42	O	-4.425650	0.058298	-0.117941
O43	O	-4.175650	0.308298	0.132059
O44	O	-3.925650	0.558298	0.382059
O45	O	-4.370650	-0.184902	-0.132591
O46	O	-4.120650	0.065098	0.117409
O47	O	-3.870650	0.315098	0.367409
O48	O	-3.620650	0.565098	0.617409
C49	C	-3.911078	-0.461353	-0.254906
C50	C	-3.661078	-0.211353	-0.004906
C51	C	-3.411078	0.038647	0.245094
C52	C	-3.161078	0.288647	0.495094
C53	C	-3.984818	-0.627714	-0.254081
C54	C	-3.734818	-0.377714	-0.004081
C55	C	-3.484818	-0.127714	0.245919
C56	C	-3.234818	0.122286	0.495919
C57	C	-3.859777	-0.198391	-0.402666
C58	C	-3.609777	0.051609	-0.152666
C59	C	-3.359777	0.301609	0.097334
C60	C	-3.109777	0.551609	0.347334
C61	C	-3.900899	-0.197567	-0.495779
C62	C	-3.650899	0.052433	-0.245779
C63	C	-3.400899	0.302433	0.004221
C64	C	-3.150899	0.552433	0.254221
C65	C	-4.178993	-0.203134	-0.714261
C66	C	-3.928993	0.046866	-0.464261
C67	C	-3.678993	0.296866	-0.214261
C68	C	-3.428993	0.546866	0.035739
C69	C	-4.217610	-0.202347	-0.801749
C70	C	-3.967610	0.047653	-0.551749
C71	C	-3.717610	0.297653	-0.301749
C72	C	-3.467610	0.547653	-0.051749
C73	C	-3.850514	-0.187377	-0.793218
C74	C	-3.600514	0.062623	-0.543218
C75	C	-3.350514	0.312623	-0.293218
C76	C	-3.100514	0.562623	-0.043218
C77	C	-3.811895	-0.188153	-0.705730
C78	C	-3.561895	0.061847	-0.455730
C79	C	-3.311895	0.311847	-0.205730
C80	C	-3.061895	0.561847	0.044270
C81	C	-3.976145	-0.196040	-0.666255
C82	C	-3.726145	0.053960	-0.416255
C83	C	-3.476145	0.303960	-0.166255
C84	C	-3.226145	0.553960	0.083745
C85	C	-4.053381	-0.194476	-0.841230
C86	C	-3.803381	0.055524	-0.591230
C87	C	-3.553381	0.305524	-0.341230
C88	C	-3.303381	0.555524	-0.091230
C89	C	-4.095250	-0.193623	-0.936089
C90	C	-3.845250	0.056377	-0.686089
C91	C	-3.595250	0.306377	-0.436089
C92	C	-3.345250	0.556377	-0.186089
C93	C	-3.934273	-0.196890	-0.571390
C94	C	-3.684273	0.053110	-0.321390
C95	C	-3.434273	0.303110	-0.071390
C96	C	-3.184273	0.553110	0.178610
C97	C	-4.139212	0.070826	-0.252583
C98	C	-3.889212	0.320826	-0.002583
C99	C	-3.639212	0.570826	0.247417
C100	C	-3.389212	0.820826	0.497417
C101	C	-4.044710	0.237186	-0.253413
C102	C	-3.794710	0.487186	-0.003413
C103	C	-3.544710	0.737186	0.246587
C104	C	-3.294710	0.987186	0.496587
C105	C	-4.190513	-0.192133	-0.104820
C106	C	-3.940513	0.057867	0.145180
C107	C	-3.690513	0.307867	0.395180
C108	C	-3.440513	0.557867	0.645180
C109	C	-4.128628	-0.192949	-0.011706
C110	C	-3.878628	0.057051	0.238294
C111	C	-3.628628	0.307051	0.488294
C112	C	-3.378628	0.557051	0.738294
H113	H	-4.382785	-0.208122	-0.840832
H114	H	-4.132785	0.041878	-0.590832
H115	H	-3.882785	0.291878	-0.340832
H116	H	-3.632785	0.541878	-0.090832
H117	H	-3.716795	-0.180960	-0.825369
H118	H	-3.466795	0.069040	-0.575369
H119	H	-3.216795	0.319040	-0.325369
H120	H	-2.966795	0.569040	-0.075369
H121	H	-3.646699	-0.182364	-0.666641
H122	H	-3.396699	0.067636	-0.416641
H123	H	-3.146699	0.317636	-0.166641
H124	H	-2.896699	0.567636	0.083359
H125	H	-4.312738	-0.209553	-0.682123
H126	H	-4.062738	0.040447	-0.432123
H127	H	-3.812738	0.290447	-0.182123
H128	H	-3.562738	0.540447	0.067877
