data_functionalizedCrystal
_audit_creation_method	'MofGen! by Chris Wilmer'
_symmetry_space_group_name_H-M	'P1'
_symmetry_Int_Tables_number	1
_symmetry_cell_setting	triclinic
loop_
_symmetry_equiv_pos_as_xyz
  x,y,z
_cell_length_a	16.992695
_cell_length_b	17.699083
_cell_length_c	16.176319
_cell_angle_alpha	90.007696
_cell_angle_beta	89.994685
_cell_angle_gamma	93.024381
loop_
_atom_site_label
_atom_site_type_symbol
_atom_site_fract_x
_atom_site_fract_y
_atom_site_fract_z
O1	O	1.040089	-0.160469	-0.068717
O2	O	1.540089	0.339531	0.431283
O3	O	0.811807	-0.158709	-0.068725
O4	O	1.311807	0.341291	0.431275
O5	O	0.932397	-0.049802	-0.068713
O6	O	1.432397	0.450198	0.431287
O7	O	0.919498	-0.269377	-0.068728
O8	O	1.419498	0.230623	0.431272
O9	O	0.932381	-0.049793	0.068780
O10	O	1.432381	0.450207	0.568780
O11	O	0.811790	-0.158701	0.068768
O12	O	1.311790	0.341299	0.568768
O13	O	1.040072	-0.160461	0.068777
O14	O	1.540072	0.339539	0.568777
Cu15	Cu	0.925930	-0.159580	0.081326
Cu16	Cu	1.425930	0.340420	0.581326
Cu17	Cu	0.925949	-0.159590	-0.081275
Cu18	Cu	1.425949	0.340410	0.418725
O19	O	0.919482	-0.269368	0.068765
O20	O	1.419482	0.230632	0.568765
C21	C	0.782590	-0.156440	0.000020
C22	C	1.282590	0.343560	0.500020
C23	C	0.695559	-0.149683	0.000017
C24	C	1.195559	0.350317	0.500017
C25	C	1.069289	-0.162730	0.000029
C26	C	1.569289	0.337270	0.500029
C27	C	1.156320	-0.169487	0.000027
C28	C	1.656320	0.330513	0.500027
C29	C	0.931927	-0.021572	0.000033
C30	C	1.431927	0.478428	0.500033
C31	C	0.930540	0.062533	0.000034
C32	C	1.430540	0.562533	0.500034
C33	C	1.206685	-0.104290	0.000029
C34	C	1.706685	0.395710	0.500029
C35	C	1.288459	-0.110643	0.000031
C36	C	1.788459	0.389357	0.500031
C37	C	1.319867	-0.182195	0.000026
C38	C	1.819867	0.317805	0.500026
C39	C	1.269496	-0.247398	0.000027
C40	C	1.769496	0.252602	0.500027
C41	C	1.187723	-0.241043	0.000030
C42	C	1.687723	0.258957	0.500030
C43	C	1.563415	-0.208531	0.000021
C44	C	2.063415	0.291469	0.500021
C45	C	1.645194	-0.214881	0.000015
C46	C	2.145194	0.285119	0.500015
C47	C	1.664152	-0.078125	0.000021
C48	C	2.164152	0.421875	0.500021
C49	C	1.582376	-0.071777	0.000020
C50	C	2.082376	0.428223	0.500020
C51	C	1.532012	-0.136980	0.000025
C52	C	2.032012	0.363020	0.500025
N53	N	1.403454	-0.188691	0.000026
N54	N	1.903454	0.311309	0.500026
N55	N	1.448427	-0.130483	0.000031
N56	N	1.948427	0.369517	0.500031
C57	C	0.919952	-0.297598	0.000016
C58	C	1.419952	0.202402	0.500016
C59	C	0.921339	-0.381703	0.000010
C60	C	1.421339	0.118297	0.500010
N61	N	0.925922	-0.159573	0.195692
N62	N	1.425922	0.340427	0.695692
C63	C	1.001324	0.106747	0.000037
C64	C	1.501324	0.606747	0.500037
C65	C	1.000017	0.185771	0.000030
C66	C	1.500017	0.685771	0.500030
C67	C	0.927924	0.220581	0.000025
C68	C	1.427924	0.720581	0.500025
C69	C	0.857135	0.176361	0.000018
C70	C	1.357135	0.676361	0.500018
C71	C	0.858443	0.097338	0.000020
C72	C	1.358443	0.597338	0.500020
C73	C	0.851857	0.495053	0.000011
C74	C	1.351857	0.995053	0.500011
C75	C	0.850554	0.574082	0.000012
C76	C	1.350554	1.074082	0.500012
C77	C	0.993430	0.583486	0.000022
C78	C	1.493430	1.083486	0.500022
C79	C	0.994739	0.504463	0.000023
C80	C	1.494739	1.004463	0.500023
C81	C	0.923950	0.460250	0.000012
C82	C	1.423950	0.960250	0.500012
C83	C	0.925368	0.374563	0.000019
C84	C	1.425368	0.874563	0.500019
C85	C	0.926505	0.306267	0.000024
C86	C	1.426505	0.806267	0.500024
N87	N	0.925963	-0.159592	-0.195640
N88	N	1.425963	0.340408	0.304360
C89	C	0.979335	-0.111371	0.238961
C90	C	1.479335	0.388629	0.738961
C91	C	0.979339	-0.111370	0.325508
C92	C	1.479339	0.388630	0.825508
C93	C	0.925933	-0.159576	0.368784
C94	C	1.425933	0.340424	0.868784
C95	C	0.872513	-0.207781	0.325509
C96	C	1.372513	0.292219	0.825509
C97	C	0.872506	-0.207777	0.238963
C98	C	1.372506	0.292223	0.738963
C99	C	0.872540	-0.207796	0.674537
C100	C	1.372540	0.292204	1.174537
C101	C	0.872553	-0.207798	0.761089
C102	C	1.372553	0.292202	1.261089
C103	C	0.979373	-0.111390	0.761082
C104	C	1.479373	0.388610	1.261082
C105	C	0.979366	-0.111386	0.674537
C106	C	1.479366	0.388614	1.174537
C107	C	0.925944	-0.159587	0.631269
C108	C	1.425944	0.340413	1.131269
C109	C	0.925940	-0.159586	0.537424
C110	C	1.425940	0.340414	1.037424
C111	C	0.925940	-0.159582	0.462627
C112	C	1.425940	0.340418	0.962627
H113	H	1.181119	-0.046024	0.000028
H114	H	1.681119	0.453976	0.500028
C115	C	1.038115	-0.058354	0.626938
C116	C	1.538115	0.441646	1.126938
N117	N	1.082364	-0.018406	0.591087
N118	N	1.582364	0.481594	1.091087
H119	H	1.022870	-0.072139	0.796320
H120	H	1.522870	0.427861	1.296320
H121	H	0.829060	-0.247055	0.796322
H122	H	1.329060	0.252945	1.296322
H123	H	0.829011	-0.247027	0.203734
H124	H	1.329011	0.252973	0.703734
C125	C	1.080633	0.068464	0.000043
C126	C	1.580633	0.568464	0.500043
N127	N	1.140371	0.039632	0.000044
N128	N	1.640371	0.539632	0.500044
H129	H	1.146716	-0.294134	0.000032
H130	H	1.646716	0.205866	0.500032
C131	C	1.074046	0.466178	0.000029
C132	C	1.574046	0.966178	0.500029
N133	N	1.133782	0.437342	0.000030
N134	N	1.633782	0.937342	0.500030
H135	H	1.051070	0.619494	0.000026
H136	H	1.551070	1.119494	0.500026
H137	H	0.800803	0.061339	0.000016
H138	H	1.300803	0.561339	0.500016
H139	H	0.791844	0.602420	0.000010
H140	H	1.291844	1.102420	0.500010
C141	C	1.343857	-0.038920	0.000032
C142	C	1.843857	0.461080	0.500032
N143	N	1.385583	0.015106	0.000034
N144	N	1.885583	0.515106	0.500034
C145	C	1.077885	0.234404	0.000048
C146	C	1.577885	0.734404	0.500048
N147	N	1.136539	0.271033	0.000065
N148	N	1.636539	0.771033	0.500065
H149	H	1.522418	-0.261624	0.000021
H150	H	2.022418	0.238376	0.500021
H151	H	1.295075	-0.305657	0.000028
H152	H	1.795075	0.194343	0.500028
H153	H	1.556810	-0.013512	0.000024
H154	H	2.056810	0.486488	0.500024
C155	C	1.679740	-0.293597	0.000011
C156	C	2.179740	0.206403	0.500011
N157	N	1.705761	-0.352883	0.000006
N158	N	2.205761	0.147117	0.500006
H159	H	1.705166	-0.025041	0.000018
H160	H	2.205166	0.474959	0.500018
H161	H	0.794216	0.459064	0.000003
H162	H	1.294216	0.959064	0.500003
H163	H	0.798436	0.204709	0.000009
H164	H	1.298436	0.704709	0.500009
C165	C	1.038087	-0.058339	0.191366
C166	C	1.538087	0.441661	0.691366
N167	N	1.082338	-0.018391	0.155519
N168	N	1.582338	0.481609	0.655519
C169	C	0.813877	-0.260923	0.626954
C170	C	1.313877	0.239077	1.126954
N171	N	0.769724	-0.300979	0.591111
N172	N	1.269724	0.199021	1.091111
C173	C	1.038080	-0.058325	0.373101
C174	C	1.538080	0.441675	0.873101
N175	N	1.082318	-0.018361	0.408947
N176	N	1.582318	0.481639	0.908947
H177	H	0.829025	-0.247028	0.360749
H178	H	1.329025	0.252972	0.860749
