data_functionalizedCrystal
_audit_creation_method	'MofGen! by Chris Wilmer'
_symmetry_space_group_name_H-M	'P1'
_symmetry_Int_Tables_number	1
_symmetry_cell_setting	triclinic
loop_
_symmetry_equiv_pos_as_xyz
  x,y,z
_cell_length_a	16.625547
_cell_length_b	16.625545
_cell_length_c	18.215399
_cell_angle_alpha	89.972987
_cell_angle_beta	90.023923
_cell_angle_gamma	89.976026
loop_
_atom_site_label
_atom_site_type_symbol
_atom_site_fract_x
_atom_site_fract_y
_atom_site_fract_z
Zn1	Zn	1.232665	0.321011	0.416201
Zn2	Zn	1.732665	0.821011	0.916201
Zn3	Zn	1.232566	0.455851	0.293137
Zn4	Zn	1.732566	0.955851	0.793137
Zn5	Zn	1.097828	0.321036	0.293140
Zn6	Zn	1.597828	0.821036	0.793140
Zn7	Zn	1.097793	0.455805	0.416153
Zn8	Zn	1.597793	0.955805	0.916153
O9	O	1.165213	0.388426	0.354658
O10	O	1.665213	0.888426	0.854658
O11	O	1.345484	0.338907	0.399895
O12	O	1.845484	0.838907	0.899895
O13	O	1.214667	0.437998	0.190153
O14	O	1.714667	0.937998	0.690153
O15	O	1.115771	0.208201	0.309485
O16	O	1.615771	0.708201	0.809485
O17	O	1.345412	0.437973	0.309480
O18	O	1.845412	0.937973	0.809480
O19	O	1.214834	0.208182	0.399898
O20	O	1.714834	0.708182	0.899898
O21	O	1.115675	0.338950	0.190155
O22	O	1.615675	0.838950	0.690155
O23	O	0.984991	0.338905	0.309439
O24	O	1.484991	0.838905	0.809439
O25	O	1.115710	0.437895	0.519144
O26	O	1.615710	0.937895	1.019144
O27	O	0.984965	0.437919	0.399816
O28	O	1.484965	0.937919	0.899816
O29	O	1.214800	0.338862	0.519179
O30	O	1.714800	0.838862	1.019179
O31	O	1.214632	0.568678	0.309434
O32	O	1.714632	1.068678	0.809434
O33	O	1.115615	0.568644	0.399813
O34	O	1.615615	1.068644	0.899813
C35	C	0.955722	0.388410	0.354623
C36	C	1.455722	0.888410	0.854623
C37	C	0.866101	0.388423	0.354625
C38	C	1.366101	0.888423	0.854625
C39	C	0.793319	0.388425	0.354634
C40	C	1.293319	0.888425	0.854634
C41	C	0.702010	0.388429	0.354653
C42	C	1.202010	0.888429	0.854653
C43	C	0.629234	0.388436	0.354672
C44	C	1.129234	0.888436	0.854672
C45	C	0.537920	0.388442	0.354689
C46	C	1.037920	0.888442	0.854689
C47	C	1.165131	0.597917	0.354634
C48	C	1.665131	1.097917	0.854634
C49	C	1.165170	0.687538	0.354648
C50	C	1.665170	1.187538	0.854648
C51	C	1.165301	1.015714	0.354736
C52	C	1.665301	1.515714	0.854736
C53	C	1.165262	0.924405	0.354714
C54	C	1.665262	1.424405	0.854714
C55	C	1.165235	0.851629	0.354692
C56	C	1.665235	1.351629	0.854692
C57	C	1.165197	0.760315	0.354670
C58	C	1.665197	1.260315	0.854670
C59	C	1.375522	0.388442	0.354693
C60	C	1.875522	0.888442	0.854693
C61	C	1.465143	0.388449	0.354708
C62	C	1.965143	0.888449	0.854708
C63	C	1.165262	0.388371	0.546611
C64	C	1.665262	0.888371	1.046611
C65	C	1.165283	0.388347	0.628409
C66	C	1.665283	0.888347	1.128409
C67	C	1.165311	1.178117	0.354706
C68	C	1.665311	1.678117	0.854706
C69	C	1.165335	1.088496	0.354749
C70	C	1.665335	1.588496	0.854749
C71	C	1.165211	0.388423	0.163451
C72	C	1.665211	0.888423	0.663451
C73	C	1.165346	0.388220	0.081653
C74	C	1.665346	0.888220	0.581653
C75	C	1.216898	0.336732	0.816623
C76	C	1.716898	0.836732	1.316623
C77	C	1.216907	0.336709	0.893482
C78	C	1.716907	0.836709	1.393482
C79	C	1.113726	0.439837	0.893434
C80	C	1.613726	0.939837	1.393434
C81	C	1.113713	0.439856	0.816576
C82	C	1.613713	0.939856	1.316576
C83	C	1.165303	0.388305	0.778173
C84	C	1.665303	0.888305	1.278173
C85	C	1.165326	0.388262	0.931889
C86	C	1.665326	0.888262	1.431889
C87	C	1.165336	0.388237	1.015223
C88	C	1.665336	0.888237	1.515223
C89	C	1.165292	0.388328	0.694834
C90	C	1.665292	0.888328	1.194834
H91	H	1.258904	0.294754	0.785357
H92	H	1.758904	0.794754	1.285357
H93	H	1.071724	0.481809	0.924711
H94	H	1.571724	0.981809	1.424711
H95	H	1.258919	0.294712	0.924785
H96	H	1.758919	0.794712	1.424785
Br97	Br	1.043679	0.509844	0.764389
Br98	Br	1.543679	1.009844	1.264389
