data_functionalizedCrystal
_audit_creation_method	'MofGen! by Chris Wilmer'
_symmetry_space_group_name_H-M	'P1'
_symmetry_Int_Tables_number	1
_symmetry_cell_setting	triclinic
loop_
_symmetry_equiv_pos_as_xyz
  x,y,z
_cell_length_a	14.750712
_cell_length_b	15.538191
_cell_length_c	23.532357
_cell_angle_alpha	114.949807
_cell_angle_beta	77.436209
_cell_angle_gamma	82.428108
loop_
_atom_site_label
_atom_site_type_symbol
_atom_site_fract_x
_atom_site_fract_y
_atom_site_fract_z
O1	O	-0.079809	-1.231098	-0.168729
O2	O	0.420191	-0.731098	0.331271
O3	O	-0.079819	-0.956200	-0.102836
O4	O	0.420181	-0.456200	0.397164
O5	O	-0.079794	-1.101968	-0.220410
O6	O	0.420206	-0.601968	0.279590
O7	O	-0.079834	-1.085330	-0.051154
O8	O	0.420166	-0.585330	0.448846
O9	O	0.079863	-1.143173	-0.253643
O10	O	0.579863	-0.643173	0.246357
O11	O	0.079838	-0.997405	-0.136068
O12	O	0.579838	-0.497405	0.363932
O13	O	0.079849	-1.272303	-0.201962
O14	O	0.579849	-0.772303	0.298038
Zn15	Zn	0.105192	-1.141396	-0.174291
Zn16	Zn	0.605192	-0.641396	0.325709
Zn17	Zn	-0.105163	-1.087107	-0.130506
Zn18	Zn	0.394837	-0.587107	0.369494
O19	O	0.079823	-1.126535	-0.084387
O20	O	0.579823	-0.626535	0.415613
C21	C	0.000008	-0.941640	-0.112558
C22	C	0.500008	-0.441640	0.387442
C23	C	0.000005	-0.836867	-0.092022
C24	C	0.500005	-0.336867	0.407978
N25	N	0.248755	-1.178454	-0.204176
N26	N	0.748755	-0.678454	0.295824
C27	C	0.600533	-0.946545	-0.017179
C28	C	1.100533	-0.446545	0.482821
C29	C	0.701036	-0.972520	-0.038118
C30	C	1.201036	-0.472520	0.461882
C31	C	0.701021	-1.101623	-0.142207
C32	C	1.201021	-0.601623	0.357793
C33	C	0.600516	-1.075656	-0.121278
C34	C	1.100516	-0.575656	0.378722
C35	C	0.550279	-0.998117	-0.058763
C36	C	1.050279	-0.498117	0.441237
C37	C	0.550262	-1.127229	-0.162863
C38	C	1.050262	-0.627229	0.337137
C39	C	0.449765	-1.101267	-0.141934
C40	C	0.949765	-0.601267	0.358066
C41	C	0.399522	-1.023732	-0.079421
C42	C	0.899522	-0.523732	0.420579
C43	C	0.449782	-0.972155	-0.037835
C44	C	0.949782	-0.472155	0.462165
C45	C	0.600500	-1.204772	-0.225375
C46	C	1.100500	-0.704772	0.274625
C47	C	0.550247	-1.256344	-0.266960
C48	C	1.050247	-0.756344	0.233040
C49	C	0.449748	-1.230378	-0.246033
C50	C	0.949748	-0.730378	0.253967
C51	C	0.399505	-1.152844	-0.183520
C52	C	0.899505	-0.652844	0.316480
C53	C	0.399488	-1.281955	-0.287619
C54	C	0.899488	-0.781955	0.212381
C55	C	0.298991	-1.255993	-0.266691
C56	C	0.798991	-0.755993	0.233309
C57	C	0.299008	-1.126882	-0.162591
C58	C	0.799008	-0.626882	0.337409
C59	C	0.000038	-1.122155	-0.258159
C60	C	0.500038	-0.622155	0.241841
C61	C	0.000047	-1.120907	-0.321126
C62	C	0.500047	-0.620907	0.178874
N63	N	0.751275	-1.050045	-0.100619
N64	N	1.251275	-0.550045	0.399381
C65	C	0.000019	-1.286862	-0.192239
C66	C	0.500019	-0.786862	0.307761
C67	C	0.000016	-1.391633	-0.212773
C68	C	0.500016	-0.891633	0.287227
C69	C	0.000039	-0.551055	-0.296037
C70	C	0.500039	-0.051055	0.203963
C71	C	0.000033	-0.452601	-0.276726
C72	C	0.500033	0.047399	0.223274
C73	C	0.000008	-0.429103	-0.168107
C74	C	0.500008	0.070897	0.331893
C75	C	0.000018	-0.527558	-0.187410
C76	C	0.500018	-0.027558	0.312590
C77	C	0.000032	-0.588526	-0.251375
C78	C	0.500032	-0.088526	0.248625
C79	C	0.000011	-0.565029	-0.142748
C80	C	0.500011	-0.065029	0.357252
C81	C	0.000016	-0.663474	-0.162049
C82	C	0.500016	-0.163474	0.337951
C83	C	0.000028	-0.724448	-0.226011
C84	C	0.500028	-0.224448	0.273989
C85	C	0.000037	-0.686971	-0.270676
C86	C	0.500037	-0.186971	0.229324
C87	C	-0.000010	-0.504058	-0.078781
C88	C	0.499990	-0.004058	0.421219
C89	C	-0.000016	-0.541529	-0.034120
C90	C	0.499984	-0.041529	0.465880
C91	C	-0.000004	-0.639978	-0.053421
C92	C	0.499996	-0.139978	0.446579
C93	C	0.000007	-0.700951	-0.117383
C94	C	0.500007	-0.200951	0.382617
C95	C	-0.000014	-0.677454	-0.008756
C96	C	0.499986	-0.177454	0.491244
C97	C	-0.000009	-0.775899	-0.028057
C98	C	0.499991	-0.275899	0.471943
C99	C	0.000012	-0.799396	-0.136684
C100	C	0.500012	-0.299396	0.363316
C101	C	-0.087035	-1.090582	-0.693415
C102	C	0.412965	-0.590582	-0.193415
C103	C	-0.087040	-1.089392	-0.752571
C104	C	0.412960	-0.589392	-0.252571
O105	O	-0.161055	-1.069643	-0.767750
O106	O	0.338945	-0.569643	-0.267750
N107	N	-0.000012	-1.111263	-0.800278
N108	N	0.499988	-0.611263	-0.300278
C109	C	0.087027	-1.134317	-0.788823
C110	C	0.587027	-0.634317	-0.288823
O111	O	0.161051	-1.152809	-0.834832
O112	O	0.661051	-0.652809	-0.334832
C113	C	0.087032	-1.135500	-0.729665
C114	C	0.587032	-0.635500	-0.229665
C115	C	-0.000002	-1.113637	-0.681963
C116	C	0.499998	-0.613637	-0.181963
C117	C	-0.174061	-1.068720	-0.645714
C118	C	0.325939	-0.568720	-0.145714
C119	C	-0.174055	-1.069912	-0.586562
C120	C	0.325945	-0.569912	-0.086562
C121	C	-0.087023	-1.092966	-0.575111
C122	C	0.412977	-0.592966	-0.075111
C123	C	0.000004	-1.114829	-0.622811
C124	C	0.500004	-0.614829	-0.122811
C125	C	0.174070	-1.158546	-0.718209
C126	C	0.674070	-0.658546	-0.218209
C127	C	0.174067	-1.159726	-0.659046
C128	C	0.674067	-0.659726	-0.159046
C129	C	0.087033	-1.137863	-0.611344
C130	C	0.587033	-0.637863	-0.111344
C131	C	0.087042	-1.139075	-0.552208
C132	C	0.587042	-0.639075	-0.052208
N133	N	0.000014	-1.117204	-0.504502
N134	N	0.500014	-0.617204	-0.004502
C135	C	-0.087018	-1.094149	-0.515953
C136	C	0.412982	-0.594149	-0.015953
C137	C	0.087011	-1.131829	-0.913056
C138	C	0.587011	-0.631829	-0.413056
C139	C	0.087007	-1.130653	-0.972215
C140	C	0.587007	-0.630653	-0.472215
C141	C	-0.087060	-1.085727	-0.935959
C142	C	0.412940	-0.585727	-0.435959
C143	C	-0.087056	-1.086910	-0.876801
C144	C	0.412944	-0.586910	-0.376801
C145	C	-0.000017	-1.109958	-0.865350
C146	C	0.499983	-0.609958	-0.365350
C147	C	-0.087000	-1.096655	-0.391731
C148	C	0.413000	-0.596655	0.108269
C149	C	-0.086986	-1.097853	-0.332577
C150	C	0.413014	-0.597853	0.167423
C151	C	0.087081	-1.142774	-0.368837
C152	C	0.587081	-0.642774	0.131163
C153	C	0.087068	-1.141581	-0.427987
C154	C	0.587068	-0.641581	0.072013
C155	C	0.000020	-1.118517	-0.439431
C156	C	0.500020	-0.618517	0.060569
O157	O	0.161019	-1.158811	-0.536983
O158	O	0.661019	-0.658811	-0.036983
O159	O	-0.161030	-1.075647	-0.469935
O160	O	0.338970	-0.575647	0.030065
C161	C	-0.000010	-1.106347	-0.046637
C162	C	0.499990	-0.606347	0.453363
C163	C	-0.000026	-1.107593	0.016330
C164	C	0.499974	-0.607593	0.516330
H165	H	0.258104	-1.063735	-0.111688
H166	H	0.758104	-0.563735	0.388312
C167	C	0.269819	-1.185085	-0.646456
C168	C	0.769819	-0.685085	-0.146456
N169	N	0.341939	-1.204189	-0.636976
N170	N	0.841939	-0.704189	-0.136976
H171	H	0.157938	-1.159392	-0.466831
H172	H	0.657938	-0.659392	0.033169
H173	H	0.157941	-1.161548	-0.359503
H174	H	0.657941	-0.661548	0.140497
H175	H	0.157893	-1.150601	-0.903740
H176	H	0.657893	-0.650601	-0.403740
H177	H	0.000019	-0.804604	-0.241721
H178	H	0.500019	-0.304604	0.258279
C179	C	-0.000019	-0.395764	-0.057551
C180	C	0.499981	0.104236	0.442449
N181	N	-0.000026	-0.314197	-0.041561
N182	N	0.499974	0.185803	0.458439
H183	H	-0.000008	-0.379449	-0.116025
H184	H	0.499992	0.120551	0.383975
C185	C	-0.000027	-0.474455	0.036240
C186	C	0.499973	0.025545	0.536240
N187	N	-0.000030	-0.423937	0.089235
N188	N	0.499970	0.076063	0.589235
H189	H	-0.244938	-1.049942	-0.655028
H190	H	0.255062	-0.549942	-0.155028
C191	C	0.182751	-1.154713	-1.024684
C192	C	0.682751	-0.654713	-0.524684
N193	N	0.254869	-1.172829	-1.064201
N194	N	0.754869	-0.672829	-0.564201
H195	H	0.741935	-1.164759	-0.193106
H196	H	1.241935	-0.664759	0.306894
C197	C	-0.182799	-1.062850	-0.824331
C198	C	0.317201	-0.562850	-0.324331
N199	N	-0.254916	-1.044724	-0.784812
N200	N	0.245084	-0.544724	-0.284812
C201	C	0.394517	-0.886820	0.030920
C202	C	0.894517	-0.386820	0.530920
N203	N	0.352890	-0.822537	0.082700
N204	N	0.852890	-0.322537	0.582700
H205	H	-0.000005	-0.806411	0.008310
H206	H	0.499995	-0.306411	0.508310
C207	C	-0.182799	-1.060356	-0.948563
C208	C	0.317201	-0.560356	-0.448563
N209	N	-0.254904	-1.041247	-0.958059
N210	N	0.245096	-0.541247	-0.458059
C211	C	0.269816	-1.182585	-0.770666
C212	C	0.769816	-0.682585	-0.270666
N213	N	0.341937	-1.200688	-0.810175
N214	N	0.841937	-0.700688	-0.310175
H215	H	0.000029	-0.849042	-0.188772
H216	H	0.500029	-0.349042	0.311228
C217	C	0.288971	-0.995172	-0.056399
C218	C	0.788971	-0.495172	0.443601
N219	N	0.205705	-0.973660	-0.039060
N220	N	0.705705	-0.473660	0.460940
C221	C	0.756312	-0.915777	0.007633
C222	C	1.256312	-0.415777	0.507633
N223	N	0.797945	-0.873040	0.042092
N224	N	1.297945	-0.373040	0.542092
C225	C	0.545267	-0.861209	0.051576
C226	C	1.045267	-0.361209	0.551576
N227	N	0.503641	-0.796926	0.103355
N228	N	1.003641	-0.296926	0.603355
C229	C	0.711051	-1.233328	-0.248396
C230	C	1.211051	-0.733328	0.251604
N231	N	0.794318	-1.254835	-0.265735
N232	N	1.294318	-0.754835	0.234265
C233	C	0.605518	-1.341633	-0.335726
C234	C	1.105518	-0.841633	0.164274
N235	N	0.647148	-1.405870	-0.387523
N236	N	1.147148	-0.905870	0.112477
H237	H	-0.000035	-0.627797	0.043327
H238	H	0.499965	-0.127797	0.543327
H239	H	-0.157862	-1.080051	-0.293739
H240	H	0.342138	-0.580051	0.206261
H241	H	-0.157882	-1.077869	-0.401039
H242	H	0.342118	-0.577869	0.098961
H243	H	0.440403	-1.345095	-0.338517
H244	H	0.940403	-0.845095	0.161483
H245	H	0.258074	-1.297990	-0.300553
H246	H	0.758074	-0.797990	0.199447
H247	H	0.000056	-0.600701	-0.348125
H248	H	0.500056	-0.100701	0.151875
C249	C	0.000057	-0.754044	-0.341043
C250	C	0.500057	-0.254044	0.158957
N251	N	0.000070	-0.804561	-0.394040
N252	N	0.500070	-0.304561	0.105960
C253	C	0.000041	-0.411388	-0.325863
C254	C	0.500041	0.088612	0.174137
N255	N	0.000044	-0.380345	-0.362872
N256	N	0.500044	0.119655	0.137128
C257	C	-0.269800	-1.045850	-0.534093
C258	C	0.230200	-0.545850	-0.034093
N259	N	-0.341921	-1.027721	-0.494575
N260	N	0.158079	-0.527721	0.005425
