data_functionalizedCrystal
_audit_creation_method	'MofGen! by Chris Wilmer'
_symmetry_space_group_name_H-M	'P1'
_symmetry_Int_Tables_number	1
_symmetry_cell_setting	triclinic
loop_
_symmetry_equiv_pos_as_xyz
  x,y,z
_cell_length_a	8.559649
_cell_length_b	7.088928
_cell_length_c	8.559649
_cell_angle_alpha	95.315312
_cell_angle_beta	69.778664
_cell_angle_gamma	84.648213
loop_
_atom_site_label
_atom_site_type_symbol
_atom_site_fract_x
_atom_site_fract_y
_atom_site_fract_z
O1	O	-2.145605	0.158957	0.073709
O2	O	-1.670121	0.158964	-0.010071
O3	O	-1.949753	0.158958	0.269561
O4	O	-1.865973	0.158963	-0.205923
O5	O	-1.912279	-0.159016	0.232211
O6	O	-1.632646	-0.159010	-0.047421
O7	O	-2.108130	-0.159017	0.036359
Cu8	Cu	-1.866967	-0.188047	-0.008941
Cu9	Cu	-1.911285	0.187994	0.035229
O10	O	-1.828498	-0.159011	-0.243273
C11	C	-1.591075	-0.000022	-0.035095
C12	C	-1.411376	-0.000019	-0.053994
N13	N	-1.835808	-0.452534	-0.040006
C14	C	-1.937366	-0.000026	0.311195
C15	C	-1.956266	-0.000015	0.490896
C16	C	-2.187177	-0.000027	0.061384
C17	C	-2.366877	-0.000017	0.080284
N18	N	-1.942458	0.452482	0.066308
C19	C	-1.840886	-0.000023	-0.284907
C20	C	-1.821987	-0.000021	-0.464606
H21	H	-1.466257	-0.000009	0.209704
O22	O	-1.279743	-0.000031	-0.225447
H23	H	-1.154518	-0.000044	-0.213895
O24	O	-2.088856	0.560632	0.212279
H25	H	-2.163017	0.457551	0.286219
H26	H	-1.692567	-0.000025	0.436015
O27	O	-2.127708	-0.000041	0.622536
H28	H	-2.223089	-0.000052	0.561673
H29	H	-1.725286	0.465822	-0.150187
