data_functionalizedCrystal
_audit_creation_method	'MofGen! by Chris Wilmer'
_symmetry_space_group_name_H-M	'P1'
_symmetry_Int_Tables_number	1
_symmetry_cell_setting	triclinic
loop_
_symmetry_equiv_pos_as_xyz
  x,y,z
_cell_length_a	12.811457
_cell_length_b	12.811415
_cell_length_c	11.892095
_cell_angle_alpha	88.492960
_cell_angle_beta	91.498327
_cell_angle_gamma	84.559489
loop_
_atom_site_label
_atom_site_type_symbol
_atom_site_fract_x
_atom_site_fract_y
_atom_site_fract_z
O1	O	1.390870	0.143770	0.033848
O2	O	1.087662	0.156841	0.001422
O3	O	1.245799	-0.001301	0.033851
O4	O	1.232733	0.301912	0.001418
O5	O	1.232614	0.011864	0.219157
O6	O	1.074476	0.170006	0.186728
O7	O	1.377685	0.156935	0.219153
Zn8	Zn	1.223987	0.165561	0.232362
Zn9	Zn	1.241359	0.148215	-0.011787
O10	O	1.219548	0.315077	0.186724
C11	C	1.042236	0.162287	0.090210
C12	C	0.926527	0.158891	0.078695
C13	C	0.694721	0.166842	0.259103
C14	C	0.586002	0.163650	0.248290
C15	C	0.600367	0.149308	0.046257
C16	C	0.709087	0.152500	0.057070
C17	C	0.756259	0.161268	0.163497
C18	C	0.864980	0.164467	0.174308
C19	C	0.879344	0.150118	-0.027723
C20	C	0.770625	0.146926	-0.038536
C21	C	1.238070	-0.033552	0.130367
C22	C	1.234672	-0.149264	0.141877
C23	C	1.242644	-0.381041	-0.038539
C24	C	1.239452	-0.489762	-0.027730
C25	C	1.225087	-0.475430	0.174304
C26	C	1.228280	-0.366708	0.163494
C27	C	1.237060	-0.319518	0.057069
C28	C	1.240260	-0.210795	0.046262
C29	C	1.225888	-0.196464	0.248294
C30	C	1.222695	-0.305185	0.259103
C31	C	1.423110	0.151488	0.130363
C32	C	1.538820	0.154885	0.141870
C33	C	1.227277	0.347328	0.090206
C34	C	1.230675	0.463039	0.078688
N35	N	1.212138	0.177398	0.398987
N36	N	1.253216	0.136370	-0.178410
C37	C	1.335663	0.053941	0.660959
C38	C	1.327389	0.062223	0.777603
C39	C	1.187311	0.202238	0.748922
C40	C	1.195585	0.193956	0.632278
C41	C	1.269765	0.119806	0.588301
C42	C	1.278044	0.111530	0.471654
C43	C	1.137961	0.251539	0.442976
C44	C	1.129687	0.259821	0.559620
H45	H	0.903385	0.171613	0.260965
H46	H	0.733128	0.173995	0.345758
F47	F	1.219953	-0.130979	0.350055
H48	H	0.535900	0.168194	0.326142
F49	F	0.550154	0.139896	-0.066991
F50	F	1.252002	-0.330817	-0.151801
H51	H	1.247412	-0.172375	-0.040394
H52	H	1.243995	-0.539850	-0.105585
H53	H	1.084305	0.305174	0.383803
H54	H	1.215543	-0.343622	0.345751
F55	F	0.720412	0.137566	-0.151793
H56	H	1.381048	0.008587	0.836759
F57	F	0.944844	0.144201	-0.129482
H58	H	1.126909	0.262602	0.784744
H59	H	1.217930	-0.513870	0.260949
H60	H	1.338447	0.051156	0.435850
F61	F	1.414619	-0.024965	0.614155
H62	H	1.069288	0.320190	0.595440
