data_functionalizedCrystal
_audit_creation_method	'MofGen! by Chris Wilmer'
_symmetry_space_group_name_H-M	'P1'
_symmetry_Int_Tables_number	1
_symmetry_cell_setting	triclinic
loop_
_symmetry_equiv_pos_as_xyz
  x,y,z
_cell_length_a	19.288859
_cell_length_b	19.288857
_cell_length_c	17.766277
_cell_angle_alpha	89.991474
_cell_angle_beta	89.989768
_cell_angle_gamma	83.133417
loop_
_atom_site_label
_atom_site_type_symbol
_atom_site_fract_x
_atom_site_fract_y
_atom_site_fract_z
O1	O	0.921353	0.086629	-0.062613
O2	O	1.421353	0.586629	0.437387
O3	O	0.719092	0.098322	-0.062611
O4	O	1.219092	0.598322	0.437389
O5	O	0.826070	-0.008656	-0.062603
O6	O	1.326070	0.491344	0.437397
O7	O	0.814375	0.193606	-0.062621
O8	O	1.314375	0.693606	0.437379
O9	O	0.826051	-0.008661	0.062586
O10	O	1.326051	0.491339	0.562586
O11	O	0.719073	0.098316	0.062577
O12	O	1.219073	0.598316	0.562577
O13	O	0.921335	0.086623	0.062576
O14	O	1.421335	0.586623	0.562576
Cu15	Cu	0.820202	0.092469	0.074007
Cu16	Cu	1.320202	0.592469	0.574007
Cu17	Cu	0.820224	0.092476	-0.074043
Cu18	Cu	1.320224	0.592476	0.425957
O19	O	0.814357	0.193601	0.062568
O20	O	1.314357	0.693601	0.562568
C21	C	0.693206	0.097944	-0.000017
C22	C	1.193206	0.597944	0.499983
C23	C	0.616102	0.096816	-0.000016
C24	C	1.116102	0.596816	0.499984
C25	C	0.052060	0.151960	-0.000022
C26	C	0.552060	0.651960	0.499978
C27	C	0.124506	0.153025	-0.000026
C28	C	0.624506	0.653025	0.499974
C29	C	0.169215	0.090256	-0.000019
C30	C	0.669215	0.590256	0.499981
C31	C	0.141472	0.026416	-0.000027
C32	C	0.641472	0.526416	0.499973
C33	C	0.069026	0.025353	-0.000031
C34	C	0.569026	0.525353	0.499969
C35	C	0.290480	0.043441	0.043847
C36	C	0.790480	0.543441	0.543847
C37	C	0.362923	0.044507	0.043855
C38	C	0.862923	0.544507	0.543855
C39	C	0.392661	0.093533	-0.000012
C40	C	0.892661	0.593533	0.499988
C41	C	0.349944	0.141505	-0.043877
C42	C	0.849944	0.641505	0.456123
C43	C	0.277498	0.140442	-0.043880
C44	C	0.777498	0.640442	0.456120
C45	C	0.247771	0.091402	-0.000016
C46	C	0.747771	0.591402	0.499984
C47	C	0.498950	0.158524	-0.000013
C48	C	0.998950	0.658524	0.499987
C49	C	0.571399	0.159587	-0.000022
C50	C	1.071399	0.659587	0.499978
C51	C	0.588363	0.032976	-0.000015
C52	C	1.088363	0.532976	0.499985
C53	C	0.515916	0.031915	-0.000014
C54	C	1.015916	0.531915	0.499986
C55	C	0.471214	0.094691	-0.000009
C56	C	0.971214	0.594691	0.499991
C57	C	0.825685	-0.034535	-0.000008
C58	C	1.325685	0.465465	0.499992
C59	C	0.824558	-0.111639	-0.000006
C60	C	1.324558	0.388361	0.499994
C61	C	0.824042	-0.147846	-0.068246
C62	C	1.324042	0.352154	0.431754
C63	C	0.822974	-0.220292	-0.068252
C64	C	1.322974	0.279708	0.431748
C65	C	0.822435	-0.256530	-0.000013
C66	C	1.322435	0.243470	0.499987
C67	C	0.822947	-0.220313	0.068236
C68	C	1.322947	0.279687	0.568236
C69	C	0.824008	-0.147867	0.068240
C70	C	1.324008	0.352133	0.568240
C71	C	0.861429	-0.376764	0.052262
C72	C	1.361429	0.123236	0.552262
C73	C	0.860371	-0.449209	0.052255
C74	C	1.360371	0.050791	0.552255
C75	C	0.819157	-0.479975	-0.000022
C76	C	1.319157	0.020025	0.499978
C77	C	0.779009	-0.438289	-0.052304
C78	C	1.279009	0.061711	0.447696
C79	C	0.780071	-0.365844	-0.052301
C80	C	1.280071	0.134156	0.447699
C81	C	0.821283	-0.335085	-0.000009
C82	C	1.321283	0.164915	0.499991
C83	C	0.817481	-0.594737	-0.068273
C84	C	1.317481	-0.094737	0.431727
C85	C	0.816408	-0.667184	-0.068275
C86	C	1.316408	-0.167184	0.431725
C87	C	0.816388	-0.667204	0.068215
C88	C	1.316388	-0.167204	0.568215
C89	C	0.817454	-0.594758	0.068215
C90	C	1.317454	-0.094758	0.568215
C91	C	0.818004	-0.558529	-0.000030
C92	C	1.318004	-0.058529	0.499970
C93	C	0.947220	0.087001	-0.000020
C94	C	1.447220	0.587001	0.499980
C95	C	1.024324	0.088129	-0.000026
C96	C	1.524324	0.588129	0.499974
C97	C	0.814741	0.219480	-0.000029
C98	C	1.314741	0.719480	0.499971
C99	C	0.815868	0.296584	-0.000036
C100	C	1.315868	0.796584	0.499964
N101	N	0.820192	0.092464	0.178138
N102	N	1.320192	0.592464	0.678138
N103	N	0.820240	0.092475	-0.178173
N104	N	1.320240	0.592475	0.321827
C105	C	0.867577	0.045118	0.217528
C106	C	1.367577	0.545118	0.717528
C107	C	0.867581	0.045115	0.296330
C108	C	1.367581	0.545115	0.796330
C109	C	0.820206	0.092470	0.335738
C110	C	1.320206	0.592470	0.835738
C111	C	0.772812	0.139820	0.296338
C112	C	1.272812	0.639820	0.796338
C113	C	0.772805	0.139817	0.217538
C114	C	1.272805	0.639817	0.717538
C115	C	0.810906	0.155758	0.460571
C116	C	1.310906	0.655758	0.960571
C117	C	0.810918	0.155762	0.539369
C118	C	1.310918	0.655762	1.039369
C119	C	0.820225	0.092478	0.578785
C120	C	1.320225	0.592478	1.078785
C121	C	0.829534	0.029188	0.539391
C122	C	1.329534	0.529188	1.039391
C123	C	0.829527	0.029186	0.460591
C124	C	1.329527	0.529186	0.960591
C125	C	0.820209	0.092478	0.421184
C126	C	1.320209	0.592478	0.921184
C127	C	0.867617	0.045124	0.703621
C128	C	1.367617	0.545124	1.203621
C129	C	0.867616	0.045120	0.782424
C130	C	1.367616	0.545120	1.282424
C131	C	0.772851	0.139832	0.782431
C132	C	1.272851	0.639832	1.282431
C133	C	0.772848	0.139830	0.703629
C134	C	1.272848	0.639830	1.203629
C135	C	0.820235	0.092477	0.664229
C136	C	1.320235	0.592477	1.164229
H137	H	0.046446	-0.026628	-0.000034
H138	H	0.546446	0.473372	0.499966
H139	H	0.906200	0.006565	0.671540
H140	H	1.406200	0.506565	1.171540
N141	N	0.817994	-0.555686	-0.141901
N142	N	1.317994	-0.055686	0.358099
H143	H	0.775365	-0.519885	-0.144912
H144	H	1.275365	-0.019885	0.355088
H145	H	0.861490	-0.531413	-0.144979
H146	H	1.361490	-0.031413	0.355021
N147	N	0.839583	-0.039077	0.581884
N148	N	1.339583	0.460923	1.081884
H149	H	0.797417	-0.043102	0.614591
H150	H	1.297417	0.456898	1.114591
H151	H	0.845500	-0.079121	0.544917
H152	H	1.345500	0.420879	1.044917
H153	H	0.803315	0.207294	0.428485
H154	H	1.303315	0.707294	0.928485
H155	H	0.177878	-0.024691	-0.000024
H156	H	0.677878	0.475309	0.499976
H157	H	0.734266	0.178386	0.671555
H158	H	1.234266	0.678386	1.171555
H159	H	0.824425	-0.118387	0.123811
H160	H	1.324425	0.381613	0.623811
N161	N	0.231429	0.192171	-0.091199
N162	N	0.731429	0.692171	0.408801
H163	H	0.204800	0.166217	-0.128701
H164	H	0.704800	0.666217	0.371299
H165	H	0.197407	0.221547	-0.057557
H166	H	0.697407	0.721547	0.442443
H167	H	0.734275	0.178386	0.814516
H168	H	1.234275	0.678386	1.314516
N169	N	0.258410	-0.009445	0.091159
N170	N	0.758410	0.490555	0.591159
H171	H	0.296461	-0.039668	0.118951
H172	H	0.796461	0.460332	0.618951
H173	H	0.224919	0.015670	0.128618
H174	H	0.724919	0.515670	0.628618
H175	H	0.824488	-0.118353	-0.123817
H176	H	1.324488	0.381647	0.376183
H177	H	0.822549	-0.249778	-0.123823
H178	H	1.322549	0.250222	0.376177
N179	N	0.918738	-0.005937	0.824914
N180	N	1.418738	0.494063	1.324914
H181	H	0.948760	-0.035927	0.787994
H182	H	1.448760	0.464073	1.287994
H183	H	0.949350	0.020597	0.857587
H184	H	1.449350	0.520597	1.357587
N185	N	0.903674	-0.494164	0.108642
N186	N	1.403674	0.005836	0.608642
H187	H	0.872064	-0.520055	0.140796
H188	H	1.372064	-0.020055	0.640796
H189	H	0.938029	-0.528835	0.081089
H190	H	1.438029	-0.028835	0.581089
H191	H	0.747380	-0.331906	-0.094870
H192	H	1.247380	0.168094	0.405130
N193	N	0.382009	0.194378	-0.091206
N194	N	0.882009	0.694378	0.408794
H195	H	0.343956	0.224602	-0.118996
H196	H	0.843956	0.724602	0.381004
H197	H	0.408075	0.224602	-0.057574
H198	H	0.908075	0.724602	0.442426
H199	H	0.734238	0.178376	0.328428
H200	H	1.234238	0.678376	0.828428
N201	N	0.636568	-0.034731	-0.000010
N202	N	1.136568	0.465269	0.499990
H203	H	0.667012	-0.037109	-0.046417
H204	H	1.167012	0.462891	0.453583
H205	H	0.666951	-0.037079	0.046428
H206	H	1.166951	0.462921	0.546428
N207	N	0.734556	-0.471461	-0.108697
N208	N	1.234556	0.028539	0.391303
H209	H	0.739971	-0.523679	-0.100766
H210	H	1.239971	-0.023679	0.399234
H211	H	0.683994	-0.451996	-0.101697
H212	H	1.183994	0.048004	0.398303
N213	N	0.815804	-0.706273	0.141820
N214	N	1.315804	-0.206273	0.641820
H215	H	0.772314	-0.730562	0.144861
H216	H	1.272314	-0.230562	0.644861
H217	H	0.858440	-0.742064	0.144819
H218	H	1.358440	-0.242064	0.644819
H219	H	0.906169	0.006558	0.328408
H220	H	1.406169	0.506558	0.828408
H221	H	0.803342	0.207296	0.571438
H222	H	1.303342	0.707296	1.071438
N223	N	0.408999	-0.007231	0.091158
N224	N	0.908999	0.492769	0.591158
H225	H	0.435630	0.018713	0.128668
H226	H	0.935630	0.518713	0.628668
H227	H	0.379129	-0.038446	0.118892
H228	H	0.879129	0.461554	0.618892
N229	N	0.815910	-0.706248	-0.141881
N230	N	1.315910	-0.206248	0.358119
H231	H	0.816442	-0.672305	-0.185110
H232	H	1.316442	-0.172305	0.314890
H233	H	0.858540	-0.742053	-0.144802
H234	H	1.358540	-0.242053	0.355198
N235	N	0.486002	-0.036936	-0.000006
N236	N	0.986002	0.463064	0.499994
H237	H	0.456313	-0.040200	0.046401
H238	H	0.956313	0.459800	0.546401
H239	H	0.456365	-0.040156	-0.046444
H240	H	0.956365	0.459844	0.453556
N241	N	0.154433	0.221874	-0.000023
N242	N	0.654433	0.721874	0.499977
H243	H	0.115121	0.261480	-0.000021
H244	H	0.615121	0.761480	0.499979
H245	H	0.184112	0.225062	0.046389
H246	H	0.684112	0.725062	0.546389
N247	N	0.822374	-0.259396	0.141836
N248	N	1.322374	0.240604	0.641836
H249	H	0.822862	-0.225462	0.185069
H250	H	1.322862	0.274538	0.685069
H251	H	0.778885	-0.283690	0.144808
H252	H	1.278885	0.216310	0.644808
N253	N	0.818021	-0.555698	0.141816
N254	N	1.318021	-0.055698	0.641816
H255	H	0.774785	-0.562542	0.171653
H256	H	1.274785	-0.062542	0.671653
H257	H	0.860910	-0.574098	0.171588
H258	H	1.360910	-0.074098	0.671588
H259	H	0.894989	-0.351721	0.094837
H260	H	1.394989	0.148279	0.594837
H261	H	0.734217	0.178373	0.185465
H262	H	1.234217	0.678373	0.685465
H263	H	0.462552	0.209640	-0.000011
H264	H	0.962552	0.709640	0.499989
N265	N	0.601317	0.228436	-0.000031
N266	N	1.101317	0.728436	0.499969
H267	H	0.562003	0.268040	-0.000030
H268	H	1.062003	0.768040	0.499970
H269	H	0.631002	0.231632	0.046375
H270	H	1.131002	0.731632	0.546375
H271	H	0.837105	-0.022347	0.428520
H272	H	1.337105	0.477653	0.928520
N273	N	0.003846	0.219665	0.000049
N274	N	0.503846	0.719665	0.500049
H275	H	0.032414	0.260264	0.000073
H276	H	0.532414	0.760264	0.500073
H277	H	-0.026603	0.222032	-0.046340
H278	H	0.473397	0.722032	0.453660
N279	N	0.918682	-0.005955	0.175032
N280	N	1.418682	0.494045	0.675032
H281	H	0.948700	-0.035951	0.211949
H282	H	1.448700	0.464049	0.711949
H283	H	0.892188	-0.036598	0.142354
H284	H	1.392188	0.463402	0.642354
