data_functionalizedCrystal
_audit_creation_method	'MofGen! by Chris Wilmer'
_symmetry_space_group_name_H-M	'P1'
_symmetry_Int_Tables_number	1
_symmetry_cell_setting	triclinic
loop_
_symmetry_equiv_pos_as_xyz
  x,y,z
_cell_length_a	16.109318
_cell_length_b	16.109304
_cell_length_c	18.366186
_cell_angle_alpha	89.996570
_cell_angle_beta	89.994535
_cell_angle_gamma	83.465600
loop_
_atom_site_label
_atom_site_type_symbol
_atom_site_fract_x
_atom_site_fract_y
_atom_site_fract_z
O1	O	1.103129	0.106937	-0.060484
O2	O	1.603129	0.606937	0.439516
O3	O	0.861069	0.120221	-0.060499
O4	O	1.361069	0.620221	0.439501
O5	O	0.988748	-0.007451	-0.060492
O6	O	1.488748	0.492549	0.439508
O7	O	0.975451	0.234609	-0.060492
O8	O	1.475451	0.734609	0.439508
O9	O	0.988726	-0.007458	0.060608
O10	O	1.488726	0.492542	0.560608
O11	O	0.861048	0.120215	0.060601
O12	O	1.361048	0.620215	0.560601
O13	O	1.103108	0.106930	0.060615
O14	O	1.603108	0.606930	0.560615
Zn15	Zn	0.982074	0.113572	0.079835
Zn16	Zn	1.482074	0.613572	0.579835
Zn17	Zn	0.982103	0.113580	-0.079719
Zn18	Zn	1.482103	0.613580	0.420281
O19	O	0.975429	0.234603	0.060608
O20	O	1.475429	0.734603	0.560608
C21	C	0.830084	0.119677	0.000049
C22	C	1.330084	0.619677	0.500049
C23	C	0.737789	0.118056	0.000044
C24	C	1.237789	0.618056	0.500044
C25	C	0.438727	0.112825	-0.065955
C26	C	0.938727	0.612825	0.434045
C27	C	0.525449	0.114342	-0.065959
C28	C	1.025449	0.614342	0.434041
C29	C	0.525444	0.114324	0.066070
C30	C	1.025444	0.614324	0.566070
C31	C	0.438725	0.112801	0.066074
C32	C	0.938725	0.612801	0.566074
C33	C	0.395368	0.112055	0.000059
C34	C	0.895368	0.612055	0.500059
C35	C	0.568809	0.115096	0.000051
C36	C	1.068809	0.615096	0.500051
C37	C	0.662836	0.116741	0.000047
C38	C	1.162836	0.616741	0.500047
C39	C	0.301336	0.110408	0.000063
C40	C	0.801336	0.610408	0.500063
C41	C	0.988198	-0.038430	0.000056
C42	C	1.488198	0.461570	0.500056
C43	C	0.986582	-0.130725	0.000051
C44	C	1.486582	0.369275	0.500051
C45	C	0.982860	-0.343059	-0.065957
C46	C	1.482860	0.156941	0.434043
C47	C	0.981334	-0.429779	-0.065957
C48	C	1.481334	0.070221	0.434043
C49	C	0.981314	-0.429783	0.066072
C50	C	1.481314	0.070217	0.566072
C51	C	0.982835	-0.343064	0.066071
C52	C	1.482835	0.156936	0.566071
C53	C	0.983612	-0.299704	0.000054
C54	C	1.483612	0.200296	0.500054
C55	C	0.980565	-0.473144	0.000056
C56	C	1.480565	0.026856	0.500056
C57	C	0.978911	-0.567170	0.000057
C58	C	1.478911	-0.067170	0.500057
C59	C	0.985265	-0.205672	0.000053
C60	C	1.485265	0.294328	0.500053
C61	C	1.134093	0.107474	0.000066
C62	C	1.634093	0.607474	0.500066
C63	C	1.226388	0.109095	0.000066
C64	C	1.726388	0.609095	0.500066
C65	C	0.975979	0.265581	0.000058
C66	C	1.475979	0.765581	0.500058
C67	C	0.977595	0.357876	0.000058
C68	C	1.477595	0.857876	0.500058
N69	N	0.982061	0.113565	0.188726
N70	N	1.482061	0.613565	0.688726
N71	N	0.982123	0.113580	-0.188610
N72	N	1.482123	0.613580	0.311390
C73	C	1.038615	0.057060	0.226830
C74	C	1.538615	0.557060	0.726830
C75	C	1.038621	0.057056	0.303057
C76	C	1.538621	0.557056	0.803057
C77	C	0.982079	0.113572	0.341179
C78	C	1.482079	0.613572	0.841179
C79	C	0.925514	0.170082	0.303066
C80	C	1.425514	0.670082	0.803066
C81	C	0.925505	0.170079	0.226840
C82	C	1.425505	0.670079	0.726840
C83	C	0.971167	0.189294	0.461939
C84	C	1.471167	0.689294	0.961939
C85	C	0.971182	0.189299	0.538164
C86	C	1.471182	0.689299	1.038164
C87	C	0.982103	0.113583	0.576286
C88	C	1.482103	0.613583	1.076286
C89	C	0.993027	0.037859	0.538175
C90	C	1.493027	0.537859	1.038175
C91	C	0.993017	0.037856	0.461948
C92	C	1.493017	0.537856	0.961948
C93	C	0.982083	0.113582	0.423834
C94	C	1.482083	0.613582	0.923834
C95	C	1.038666	0.057068	0.697045
C96	C	1.538666	0.557068	1.197045
C97	C	1.038666	0.057064	0.773274
C98	C	1.538666	0.557064	1.273274
C99	C	0.925563	0.170097	0.773281
C100	C	1.425563	0.670097	1.273281
C101	C	0.925560	0.170095	0.697053
C102	C	1.425560	0.670095	1.197053
C103	C	0.982116	0.113581	0.658940
C104	C	1.482116	0.613581	1.158940
H105	H	0.403421	0.112173	0.119833
H106	H	0.903421	0.612173	0.619833
H107	H	0.560755	0.114933	0.119817
H108	H	1.060755	0.614933	0.619817
H109	H	0.403429	0.112217	-0.119708
H110	H	0.903429	0.612217	0.380292
H111	H	0.879511	0.216110	0.666027
H112	H	1.379511	0.716110	1.166027
H113	H	1.084715	0.011049	0.666011
H114	H	1.584715	0.511049	1.166011
C115	C	0.863315	0.232247	0.345001
C116	C	1.363315	0.732247	0.845001
N117	N	0.816461	0.279068	0.376587
N118	N	1.316461	0.779068	0.876587
C119	C	0.983705	-0.295366	-0.138578
C120	C	1.483705	0.204634	0.361422
N121	N	0.984338	-0.259445	-0.193278
N122	N	1.484338	0.240555	0.306722
C123	C	0.980540	-0.477470	-0.138575
C124	C	1.480540	0.022530	0.361425
N125	N	0.979953	-0.513391	-0.193274
N126	N	1.479953	-0.013391	0.306726
C127	C	1.100869	-0.005114	0.815188
C128	C	1.600869	0.494886	1.315188
N129	N	1.147719	-0.051952	0.846758
N130	N	1.647719	0.448048	1.346758
H131	H	0.980684	-0.465097	0.119821
H132	H	1.480684	0.034903	0.619821
C133	C	1.005038	-0.045435	0.580104
C134	C	1.505038	0.454565	1.080104
N135	N	1.014086	-0.108170	0.611688
N136	N	1.514086	0.391830	1.111688
H137	H	0.962292	0.250957	0.569188
H138	H	1.462292	0.750957	1.069188
H139	H	1.084675	0.011041	0.334087
H140	H	1.584675	0.511041	0.834087
C141	C	1.005022	-0.045439	0.420028
C142	C	1.505022	0.454561	0.920028
N143	N	1.014059	-0.108177	0.388454
N144	N	1.514059	0.391823	0.888454
C145	C	0.573140	0.115186	-0.138580
C146	C	1.073140	0.615186	0.361420
N147	N	0.609061	0.115820	-0.193281
N148	N	1.109061	0.615820	0.306719
C149	C	0.959152	0.272593	0.420011
C150	C	1.459152	0.772593	0.920011
N151	N	0.950104	0.335332	0.388433
N152	N	1.450104	0.835332	0.888433
C153	C	0.983660	-0.295371	0.138692
C154	C	1.483660	0.204629	0.638692
N155	N	0.984280	-0.259448	0.193389
N156	N	1.484280	0.240552	0.693389
C157	C	1.100821	-0.005115	0.184909
C158	C	1.600821	0.494885	0.684909
N159	N	1.147672	-0.051948	0.153333
N160	N	1.647672	0.448052	0.653333
C161	C	0.863367	0.232267	0.815210
C162	C	1.363367	0.732267	1.315210
N163	N	0.816519	0.279094	0.846795
N164	N	1.316519	0.779094	1.346795
H165	H	0.879450	0.216093	0.195815
H166	H	1.379450	0.716093	0.695815
