data_functionalizedCrystal
_audit_creation_method	'MofGen! by Chris Wilmer'
_symmetry_space_group_name_H-M	'P1'
_symmetry_Int_Tables_number	1
_symmetry_cell_setting	triclinic
loop_
_symmetry_equiv_pos_as_xyz
  x,y,z
_cell_length_a	12.759401
_cell_length_b	17.637651
_cell_length_c	12.759393
_cell_angle_alpha	78.749777
_cell_angle_beta	89.981425
_cell_angle_gamma	101.219778
loop_
_atom_site_label
_atom_site_type_symbol
_atom_site_fract_x
_atom_site_fract_y
_atom_site_fract_z
Zn1	Zn	1.521691	-0.314714	-0.509315
Zn2	Zn	1.486053	-0.446953	-0.298058
Zn3	Zn	1.345982	-0.314756	-0.333643
Zn4	Zn	1.310466	-0.446893	-0.473715
O5	O	1.416048	-0.380829	-0.403683
O6	O	1.663983	-0.332263	-0.481297
O7	O	1.467422	-0.429460	-0.155745
O8	O	1.399069	-0.204109	-0.386737
O9	O	1.637800	-0.429419	-0.326088
O10	O	1.528162	-0.204078	-0.515803
O11	O	1.364512	-0.332335	-0.181889
O12	O	1.194252	-0.332277	-0.352217
O13	O	1.338536	-0.429316	-0.625470
O14	O	1.168158	-0.429357	-0.455128
O15	O	1.493723	-0.332205	-0.651625
O16	O	1.432983	-0.557587	-0.291568
O17	O	1.303979	-0.557543	-0.420623
C18	C	1.143084	-0.380815	-0.403671
C19	C	1.026304	-0.380829	-0.403686
C20	C	0.985052	-0.330331	-0.484583
C21	C	0.875326	-0.330339	-0.484588
C22	C	0.848112	-0.431349	-0.322794
C23	C	0.957837	-0.431336	-0.322786
C24	C	1.360788	-0.586253	-0.348394
C25	C	1.337244	-0.674134	-0.324776
C26	C	1.595594	-0.962790	-0.583434
C27	C	1.573437	-1.045367	-0.561223
C28	C	1.439102	-1.045507	-0.426697
C29	C	1.461251	-0.962927	-0.448893
C30	C	1.539498	-0.921575	-0.527263
C31	C	1.405155	-0.921713	-0.392723
C32	C	1.427299	-0.839141	-0.414921
C33	C	1.505539	-0.797783	-0.493289
C34	C	1.561641	-0.839003	-0.549462
C35	C	1.326904	-0.963067	-0.314358
C36	C	1.270808	-0.921853	-0.258187
C37	C	1.292956	-0.839279	-0.280380
C38	C	1.371197	-0.797921	-0.358749
C39	C	1.236854	-0.798059	-0.224208
C40	C	1.258998	-0.715486	-0.246406
C41	C	1.393340	-0.715349	-0.380947
C42	C	1.690078	-0.380843	-0.403694
C43	C	1.806853	-0.380849	-0.403699
C44	C	1.416143	-0.380749	-0.677737
C45	C	1.416183	-0.380715	-0.794523
C46	C	1.471552	-0.174603	-0.459210
C47	C	1.495205	-0.086721	-0.482873
C48	C	1.362625	-0.330133	-0.863001
C49	C	1.362656	-0.330109	-0.972731
C50	C	1.469812	-0.431250	-0.945497
C51	C	1.469774	-0.431278	-0.835768
C52	C	1.416029	-0.380851	-0.130709
C53	C	1.416252	-0.380663	-0.013984
H54	H	0.792353	-0.472471	-0.256929
H55	H	0.991424	-0.472458	-0.256905
H56	H	0.841745	-0.289218	-0.550461
H57	H	1.513390	-0.472471	-0.780010
H58	H	1.040796	-0.289202	-0.550454
H59	H	1.457064	-0.681678	-0.444756
H60	H	1.523568	-0.730547	-0.511361
H61	H	1.513445	-0.472416	-0.979092
H62	H	1.625365	-0.805332	-0.613271
C63	C	1.681675	-0.917290	-0.669632
C64	C	1.798087	-0.928583	-0.658115
C65	C	1.884165	-0.883082	-0.744305
C66	C	1.853831	-0.826288	-0.842013
C67	C	1.737413	-0.814993	-0.853534
C68	C	1.651335	-0.860494	-0.767344
H69	H	1.820548	-0.970628	-0.585782
H70	H	1.970346	-0.891444	-0.735776
H71	H	1.917551	-0.792606	-0.905816
H72	H	1.714953	-0.772948	-0.925867
H73	H	1.565155	-0.852132	-0.775873
H74	H	1.619109	-1.078921	-0.606985
H75	H	1.207097	-0.955533	-0.194381
C76	C	1.197298	-0.670142	-0.184621
C77	C	1.202882	-0.681544	-0.062125
C78	C	1.141178	-0.636198	-0.000344
C79	C	1.073890	-0.579449	-0.061057
C80	C	1.068303	-0.568043	-0.183560
C81	C	1.130007	-0.613390	-0.245341
H82	H	1.252696	-0.723556	-0.017175
H83	H	1.145315	-0.644641	0.090341
H84	H	1.028213	-0.545880	-0.015323
H85	H	1.018490	-0.526032	-0.228510
H86	H	1.125871	-0.604946	-0.336026
H87	H	1.318988	-0.288961	-0.829424
C88	C	1.303744	-0.274465	-1.048056
C89	C	1.212058	-0.308697	-1.114257
C90	C	1.153141	-0.253051	-1.189581
C91	C	1.185911	-0.163173	-1.198704
C92	C	1.277602	-0.128936	-1.132501
C93	C	1.336518	-0.184582	-1.057177
H94	H	1.187795	-0.375234	-1.107505
H95	H	1.085265	-0.278396	-1.238589
H96	H	1.142297	-0.121981	-1.254464
H97	H	1.301864	-0.062399	-1.139253
H98	H	1.404394	-0.159237	-1.008169
H99	H	1.375392	-1.079187	-0.362891
H100	H	1.173139	-0.831740	-0.160406
H101	H	1.308867	-1.030303	-0.296297
