data_functionalizedCrystal
_audit_creation_method	'MofGen! by Chris Wilmer'
_symmetry_space_group_name_H-M	'P1'
_symmetry_Int_Tables_number	1
_symmetry_cell_setting	triclinic
loop_
_symmetry_equiv_pos_as_xyz
  x,y,z
_cell_length_a	17.699077
_cell_length_b	10.654541
_cell_length_c	16.776229
_cell_angle_alpha	90.003169
_cell_angle_beta	90.005198
_cell_angle_gamma	83.882252
loop_
_atom_site_label
_atom_site_type_symbol
_atom_site_fract_x
_atom_site_fract_y
_atom_site_fract_z
O1	O	1.005089	0.158768	0.066277
O2	O	0.784841	0.179437	0.066281
O3	O	0.900030	-0.013726	0.066274
O4	O	0.889900	0.351931	0.066284
O5	O	0.900017	-0.013727	-0.066302
O6	O	0.784828	0.179436	-0.066295
O7	O	1.005076	0.158767	-0.066299
Zn8	Zn	0.894950	0.169102	-0.087347
Zn9	Zn	0.894967	0.169102	0.087329
O10	O	0.889887	0.351930	-0.066292
C11	C	0.756633	0.178697	-0.000007
C12	C	0.672600	0.176479	-0.000005
C13	C	0.633119	0.175434	-0.072274
C14	C	0.554163	0.173330	-0.072274
C15	C	0.514689	0.172280	-0.000006
C16	C	0.554176	0.173322	0.072268
C17	C	0.633131	0.175417	0.072268
C18	C	0.235759	0.164871	0.072269
C19	C	0.156798	0.162779	0.072263
C20	C	0.156791	0.162783	-0.072273
C21	C	0.235746	0.164879	-0.072273
C22	C	0.275227	0.165913	0.000000
C23	C	0.360840	0.168193	0.000000
C24	C	0.429077	0.170010	-0.000006
C25	C	0.899280	-0.060511	-0.000014
C26	C	0.897056	-0.199916	-0.000012
C27	C	1.034795	-0.230303	-0.000025
C28	C	1.102617	-0.310987	-0.000033
C29	C	1.100522	-0.441968	-0.000030
C30	C	1.030599	-0.492267	-0.000017
C31	C	0.962777	-0.411583	-0.000009
C32	C	0.964879	-0.280600	-0.000014
C33	C	0.825039	-0.381196	0.000009
C34	C	0.827132	-0.250215	0.000001
C35	C	0.755116	-0.431495	0.000022
C36	C	0.687292	-0.350811	0.000024
C37	C	0.689390	-0.219822	0.000020
C38	C	0.759310	-0.169531	0.000008
C39	C	1.033284	0.159507	-0.000010
C40	C	1.117316	0.161725	-0.000006
C41	C	0.890637	0.398715	-0.000003
C42	C	0.892861	0.538120	0.000001
N43	N	0.894943	0.169100	-0.206558
C44	C	0.941242	0.245172	-0.248270
C45	C	0.941250	0.245167	-0.331722
C46	C	0.894956	0.169097	-0.373461
C47	C	0.848655	0.093017	-0.331743
C48	C	0.848651	0.093016	-0.248292
C49	C	0.848671	0.093018	-0.668290
C50	C	0.848676	0.093028	-0.751746
C51	C	0.941269	0.245170	-0.751720
C52	C	0.941265	0.245169	-0.668270
C53	C	0.894968	0.169084	-0.626559
C54	C	0.894961	0.169088	-0.536070
C55	C	0.894959	0.169098	-0.463948
N56	N	0.894979	0.169093	0.206540
H57	H	0.522031	0.172458	0.131110
Cl58	Cl	0.682766	0.176725	0.163123
H59	H	0.630366	-0.391776	0.000039
Cl60	Cl	1.190516	-0.247748	-0.000044
H61	H	0.810965	0.031072	-0.365733
H62	H	0.978968	0.307118	-0.785691
Cl63	Cl	0.604123	-0.118401	0.000036
H64	H	0.124661	0.161923	0.131116
H65	H	0.978960	0.307118	-0.634290
H66	H	1.155749	-0.507662	-0.000030
Cl67	Cl	1.037433	-0.065641	-0.000046
H68	H	0.810976	0.031078	-0.785727
H69	H	0.761025	-0.062881	0.000001
Cl70	Cl	1.027968	-0.656930	0.000040
Cl71	Cl	0.285366	0.166205	-0.163128
Cl72	Cl	0.285382	0.166174	0.163127
Cl73	Cl	0.999443	0.340811	-0.195807
H74	H	0.978952	0.307110	-0.365681
H75	H	0.810973	0.031065	-0.634339
H76	H	0.665252	0.176299	-0.131123
Cl77	Cl	0.504531	0.172038	-0.163130
H78	H	0.124637	0.161935	-0.131122
Cl79	Cl	0.752483	-0.596158	0.000075
Cl80	Cl	0.790453	-0.002634	-0.195853
