data_functionalizedCrystal
_audit_creation_method	'MofGen! by Chris Wilmer'
_symmetry_space_group_name_H-M	'P1'
_symmetry_Int_Tables_number	1
_symmetry_cell_setting	triclinic
loop_
_symmetry_equiv_pos_as_xyz
  x,y,z
_cell_length_a	14.908571
_cell_length_b	19.121063
_cell_length_c	14.908308
_cell_angle_alpha	95.554627
_cell_angle_beta	90.175053
_cell_angle_gamma	89.303906
loop_
_atom_site_label
_atom_site_type_symbol
_atom_site_fract_x
_atom_site_fract_y
_atom_site_fract_z
Zn1	Zn	1.324072	-0.366417	-0.606393
Zn2	Zn	1.657405	-0.033084	-0.273060
Zn3	Zn	1.990739	0.300250	0.060274
Zn4	Zn	1.326220	-0.477475	-0.461735
Zn5	Zn	1.659553	-0.144142	-0.128402
Zn6	Zn	1.992886	0.189191	0.204932
Zn7	Zn	1.183168	-0.352931	-0.446699
Zn8	Zn	1.516502	-0.019598	-0.113365
Zn9	Zn	1.849835	0.313736	0.219968
Zn10	Zn	1.167296	-0.476641	-0.603344
Zn11	Zn	1.500629	-0.143308	-0.270010
Zn12	Zn	1.833962	0.190026	0.063323
O13	O	1.250189	-0.418366	-0.529543
O14	O	1.583522	-0.085033	-0.196209
O15	O	1.916856	0.248301	0.137124
O16	O	1.449836	-0.387142	-0.594773
O17	O	1.783169	-0.053809	-0.261439
O18	O	2.116502	0.279524	0.071894
O19	O	1.314785	-0.455659	-0.333644
O20	O	1.648118	-0.122326	-0.000310
O21	O	1.981452	0.211007	0.333023
O22	O	1.207604	-0.256469	-0.462866
O23	O	1.540937	0.076865	-0.129532
O24	O	1.874270	0.410198	0.203801
O25	O	1.451414	-0.468736	-0.488493
O26	O	1.784747	-0.135403	-0.155160
O27	O	2.118080	0.197930	0.178174
O28	O	1.311125	-0.266377	-0.580193
O29	O	1.644458	0.066957	-0.246859
O30	O	1.977791	0.400290	0.086474
O31	O	1.209686	-0.364157	-0.322597
O32	O	1.543019	-0.030824	0.010737
O33	O	1.876353	0.302510	0.344070
O34	O	1.055584	-0.363348	-0.459909
O35	O	1.388917	-0.030015	-0.126576
O36	O	1.722251	0.303318	0.206758
O37	O	1.180551	-0.467315	-0.729845
O38	O	1.513884	-0.133981	-0.396511
O39	O	1.847218	0.199352	-0.063178
O40	O	1.043922	-0.454238	-0.574995
O41	O	1.377256	-0.120904	-0.241662
O42	O	1.710589	0.212429	0.091671
O43	O	1.295734	-0.386334	-0.732085
O44	O	1.629067	-0.053000	-0.398752
O45	O	1.962400	0.280333	-0.065418
O46	O	1.299394	-0.575616	-0.485536
O47	O	1.632727	-0.242283	-0.152203
O48	O	1.966061	0.091051	0.181131
O49	O	1.182633	-0.575003	-0.589576
O50	O	1.515967	-0.241670	-0.256242
O51	O	1.849300	0.091663	0.077091
C52	C	1.017218	-0.407239	-0.515490
C53	C	1.350551	-0.073906	-0.182157
C54	C	1.683885	0.259427	0.151177
C55	C	0.917550	-0.402497	-0.509501
C56	C	1.250883	-0.069164	-0.176167
C57	C	1.584216	0.264169	0.157166
C58	C	0.718169	-0.488362	-0.617938
C59	C	1.051502	-0.155029	-0.284605
C60	C	1.384835	0.178305	0.048729
C61	C	0.624521	-0.483909	-0.612314
C62	C	0.957854	-0.150575	-0.278980
C63	C	1.291188	0.182758	0.054353
C64	C	0.636605	-0.389134	-0.492633
C65	C	0.969938	-0.055801	-0.159299
C66	C	1.303272	0.277533	0.174034
C67	C	0.730253	-0.393588	-0.498257
C68	C	1.063586	-0.060254	-0.164924
C69	C	1.396919	0.273079	0.168410
C70	C	0.771031	-0.443204	-0.560911
C71	C	1.104364	-0.109871	-0.227577
C72	C	1.437698	0.223463	0.105756
C73	C	0.864680	-0.447660	-0.566530
C74	C	1.198014	-0.114327	-0.233197
C75	C	1.531347	0.219007	0.100136
C76	C	0.876762	-0.352883	-0.446854
C77	C	1.210096	-0.019549	-0.113521
C78	C	1.543429	0.313784	0.219812
C79	C	0.783115	-0.348429	-0.441230
C80	C	1.116448	-0.015096	-0.107897
C81	C	1.449781	0.318237	0.225437
C82	C	1.239548	-0.600787	-0.538878
C83	C	1.572881	-0.267454	-0.205544
C84	C	1.906214	0.065880	0.127789
C85	C	1.235075	-0.678833	-0.542906
C86	C	1.568409	-0.345499	-0.209573
C87	C	1.901742	-0.012166	0.123760
C88	C	1.293807	-0.715799	-0.490682
C89	C	1.627140	-0.382465	-0.157348
C90	C	1.960474	-0.049132	0.175985
C91	C	1.289606	-0.789131	-0.494476
C92	C	1.622939	-0.455798	-0.161143
C93	C	1.956273	-0.122465	0.172190
C94	C	1.226668	-0.825496	-0.550491
C95	C	1.560002	-0.492163	-0.217158
C96	C	1.893335	-0.158830	0.116175
C97	C	1.167934	-0.788525	-0.602722
C98	C	1.501267	-0.455192	-0.269389
C99	C	1.834600	-0.121859	0.063945
C100	C	1.172140	-0.715194	-0.598932
C101	C	1.505473	-0.381861	-0.265598
C102	C	1.838806	-0.048528	0.067735
C103	C	1.210929	-1.046893	-0.564648
C104	C	1.544263	-0.713560	-0.231314
C105	C	1.877596	-0.380227	0.102019
C106	C	1.206726	-1.120229	-0.568432
C107	C	1.540059	-0.786896	-0.235099
C108	C	1.873392	-0.453563	0.098235
C109	C	1.328400	-1.120830	-0.460187
C110	C	1.661733	-0.787497	-0.126854
C111	C	1.995066	-0.454164	0.206479
C112	C	1.332596	-1.047498	-0.456398
C113	C	1.665930	-0.714164	-0.123065
C114	C	1.999263	-0.380831	0.210269
C115	C	1.273865	-1.010533	-0.508632
C116	C	1.607199	-0.677200	-0.175299
C117	C	1.940532	-0.343867	0.158035
C118	C	1.222371	-0.900454	-0.554369
C119	C	1.555704	-0.567120	-0.221036
C120	C	1.889037	-0.233787	0.112297
C121	C	1.278168	-0.935578	-0.504758
C122	C	1.611501	-0.602244	-0.171425
C123	C	1.944834	-0.268911	0.161908
C124	C	1.484070	-0.429537	-0.543650
C125	C	1.817403	-0.096203	-0.210317
C126	C	2.150736	0.237130	0.123016
C127	C	1.583736	-0.434297	-0.549662
C128	C	1.917069	-0.100964	-0.216329
C129	C	2.250402	0.232370	0.117004
C130	C	1.236132	-0.428235	-0.764574
C131	C	1.569465	-0.094902	-0.431241
C132	C	1.902799	0.238431	-0.097908
C133	C	1.230142	-0.432441	-0.864731
C134	C	1.563475	-0.099108	-0.531398
C135	C	1.896809	0.234226	-0.198064
C136	C	1.260895	-0.235235	-0.520192
C137	C	1.594228	0.098098	-0.186859
C138	C	1.927562	0.431432	0.146475
C139	C	1.265458	-0.157195	-0.516207
C140	C	1.598791	0.176138	-0.182874
C141	C	1.932124	0.509471	0.150459
C142	C	1.338824	-0.356002	-1.055270
C143	C	1.672157	-0.022669	-0.721936
C144	C	2.005491	0.310665	-0.388603
C145	C	1.333199	-0.359951	-1.149376
C146	C	1.666532	-0.026618	-0.816042
C147	C	1.999865	0.306716	-0.482709
C148	C	1.213262	-0.444285	-1.147051
C149	C	1.546596	-0.110951	-0.813717
C150	C	1.879929	0.222382	-0.480384
C151	C	1.218888	-0.440335	-1.052945
C152	C	1.552221	-0.107002	-0.719611
C153	C	1.885554	0.226331	-0.386278
C154	C	1.281672	-0.396193	-1.007057
C155	C	1.615005	-0.062860	-0.673724
C156	C	1.948338	0.270473	-0.340391
C157	C	1.287301	-0.392248	-0.912950
C158	C	1.620634	-0.058915	-0.579617
C159	C	1.953967	0.274418	-0.246283
C160	C	1.167360	-0.476578	-0.910626
C161	C	1.500694	-0.143244	-0.577293
C162	C	1.834027	0.190089	-0.243960
C163	C	1.161735	-0.480527	-1.004732
C164	C	1.495068	-0.147194	-0.671399
C165	C	1.828402	0.186140	-0.338066
C166	C	1.264246	-0.408487	-0.295425
C167	C	1.597579	-0.075154	0.037908
C168	C	1.930912	0.258180	0.371241
C169	C	1.270421	-0.404092	-0.195270
C170	C	1.603754	-0.070759	0.138064
C171	C	1.937088	0.262575	0.471397
H172	H	0.581483	-0.520680	-0.658753
H173	H	0.914817	-0.187346	-0.325419
H174	H	1.248150	0.145987	0.007914
F175	F	1.394027	-0.317173	-1.200683
F176	F	1.727361	0.016160	-0.867350
F177	F	2.060694	0.349494	-0.534017
F178	F	1.405650	-0.309031	-1.006432
F179	F	1.738984	0.024303	-0.673099
F180	F	2.072317	0.357636	-0.339765
F181	F	1.146443	-0.491255	-1.195901
F182	F	1.479777	-0.157922	-0.862568
F183	F	1.813110	0.175412	-0.529235
H184	H	0.919813	-0.316113	-0.400417
H185	H	1.253147	0.017220	-0.067083
H186	H	1.586480	0.350554	0.266250
H187	H	1.120825	-0.509307	-0.871362
H188	H	1.454158	-0.175973	-0.538029
H189	H	1.787491	0.157360	-0.204695
H190	H	0.897880	-0.488061	-0.617545
H191	H	1.231214	-0.154728	-0.284211
H192	H	1.564547	0.178605	0.049122
H193	H	0.751371	-0.528765	-0.668948
H194	H	1.084704	-0.195432	-0.335615
H195	H	1.418038	0.137902	-0.002282
H196	H	1.110617	-0.516465	-1.042106
H197	H	1.443950	-0.183131	-0.708773
H198	H	1.777283	0.150202	-0.375440
F199	F	0.739706	-0.295625	-0.374557
F200	F	1.073039	0.037709	-0.041223
F201	F	1.406372	0.371042	0.292110
F202	F	0.593190	-0.336325	-0.425969
F203	F	0.926523	-0.002992	-0.092636
F204	F	1.259857	0.330342	0.240698
F205	F	1.109632	-0.675853	-0.654519
F206	F	1.442965	-0.342520	-0.321186
F207	F	1.776298	-0.009186	0.012148
H208	H	1.345054	-0.686195	-0.445064
H209	H	1.678387	-0.352861	-0.111731
H210	H	2.011721	-0.019528	0.221602
F211	F	1.352119	-0.828470	-0.438894
F212	F	1.685452	-0.495137	-0.105561
F213	F	2.018786	-0.161804	0.227773
F214	F	1.399593	-1.008802	-0.396790
F215	F	1.732926	-0.675468	-0.063456
F216	F	2.066259	-0.342135	0.269877
F217	F	1.390905	-1.160176	-0.404604
F218	F	1.724238	-0.826842	-0.071271
F219	F	2.057571	-0.493509	0.262062
H220	H	1.163106	-1.016803	-0.607177
H221	H	1.496440	-0.683469	-0.273844
H222	H	1.829773	-0.350136	0.059490
F223	F	1.139727	-1.158929	-0.628044
F224	F	1.473060	-0.825596	-0.294710
F225	F	1.806394	-0.492263	0.038623
F226	F	1.100955	-0.827230	-0.662343
F227	F	1.434288	-0.493897	-0.329010
F228	F	1.767622	-0.160563	0.004324
H229	H	1.329415	-0.905967	-0.459154
H230	H	1.662748	-0.572634	-0.125821
H231	H	1.996082	-0.239301	0.207512
F232	F	1.155389	-0.939162	-0.613982
F233	F	1.488722	-0.605829	-0.280649
F234	F	1.822055	-0.272496	0.052684
H235	H	1.338424	-0.356306	-0.875590
H236	H	1.671757	-0.022973	-0.542257
H237	H	2.005090	0.310360	-0.208924
