data_functionalizedCrystal
_audit_creation_method	'MofGen! by Chris Wilmer'
_symmetry_space_group_name_H-M	'P1'
_symmetry_Int_Tables_number	1
_symmetry_cell_setting	triclinic
loop_
_symmetry_equiv_pos_as_xyz
  x,y,z
_cell_length_a	10.654550
_cell_length_b	10.654550
_cell_length_c	9.130313
_cell_angle_alpha	90.004369
_cell_angle_beta	89.997082
_cell_angle_gamma	95.515070
loop_
_atom_site_label
_atom_site_type_symbol
_atom_site_fract_x
_atom_site_fract_y
_atom_site_fract_z
O1	O	1.667839	-0.176399	-0.121779
O2	O	2.167839	0.323601	0.378221
O3	O	1.302361	-0.193205	-0.121787
O4	O	1.802361	0.306795	0.378213
O5	O	1.493503	-0.002063	-0.121774
O6	O	1.993503	0.497937	0.378226
O7	O	1.476697	-0.367541	-0.121792
O8	O	1.976697	0.132459	0.378208
O9	O	1.493490	-0.002057	0.121825
O10	O	1.993490	0.497943	0.621825
O11	O	1.302348	-0.193199	0.121812
O12	O	1.802348	0.306801	0.621812
O13	O	1.667826	-0.176393	0.121819
O14	O	2.167826	0.323607	0.621819
Cu15	Cu	1.485086	-0.184796	0.144058
Cu16	Cu	1.985086	0.315204	0.644058
Cu17	Cu	1.485101	-0.184802	-0.144025
Cu18	Cu	1.985101	0.315198	0.355975
O19	O	1.476684	-0.367535	0.121807
O20	O	1.976684	0.132465	0.621807
C21	C	1.255556	-0.191968	0.000012
C22	C	1.755556	0.308032	0.500012
C23	C	1.116113	-0.188276	0.000009
C24	C	1.616113	0.311724	0.500009
C25	C	1.492263	0.044738	0.000025
C26	C	1.992263	0.544738	0.500025
C27	C	1.488571	0.184181	0.000023
C28	C	1.988571	0.684181	0.500023
N29	N	1.485084	-0.184790	0.346681
N30	N	1.985084	0.315210	0.846681
C31	C	1.714631	-0.177630	0.000018
C32	C	2.214631	0.322370	0.500018
C33	C	1.854074	-0.181322	0.000011
C34	C	2.354074	0.318678	0.500011
C35	C	1.933560	-0.068780	0.000011
C36	C	2.433560	0.431220	0.500011
C37	C	2.064580	-0.072257	0.000016
C38	C	2.564580	0.427743	0.500016
C39	C	2.036617	-0.300826	0.000013
C40	C	2.536617	0.199174	0.500013
C41	C	1.905599	-0.297349	0.000019
C42	C	2.405599	0.202651	0.500019
C43	C	1.477925	-0.414336	0.000005
C44	C	1.977925	0.085664	0.500005
C45	C	1.481616	-0.553779	-0.000003
C46	C	1.981616	-0.053779	0.499997
C47	C	1.601112	0.263667	0.000024
C48	C	2.101112	0.763667	0.500024
C49	C	1.597636	0.394688	0.000006
C50	C	2.097636	0.894688	0.500006
C51	C	1.369066	0.366725	-0.000009
C52	C	1.869066	0.866725	0.499991
C53	C	1.372544	0.235706	-0.000001
C54	C	1.872544	0.735706	0.499999
N55	N	1.485113	-0.184798	-0.346648
N56	N	1.985113	0.315202	0.153352
C57	C	1.569751	-0.100188	0.423339
C58	C	2.069751	0.399812	0.923339
C59	C	1.569763	-0.100189	0.576675
C60	C	2.069763	0.399811	1.076675
C61	C	1.400437	-0.269404	0.576684
C62	C	1.900437	0.230596	1.076684
C63	C	1.400420	-0.269396	0.423350
C64	C	1.900420	0.230604	0.923350
H65	H	1.891613	0.025696	0.000007
H66	H	2.391613	0.525696	0.500007
H67	H	1.331508	-0.338290	0.639122
H68	H	1.831508	0.161710	1.139122
H69	H	1.695588	0.221720	0.000041
H70	H	2.195588	0.721720	0.500041
F71	F	1.659874	-0.010142	0.658255
F72	F	2.159874	0.489858	1.158255
H73	H	1.638687	-0.031295	0.360919
H74	H	2.138687	0.468705	0.860919
F75	F	1.310297	-0.359441	0.341758
F76	F	1.810297	0.140559	0.841758
F77	F	2.149170	0.047526	0.000022
F78	F	2.649170	0.547526	0.500022
F79	F	2.091466	-0.424303	0.000011
F80	F	2.591466	0.075697	0.500011
F81	F	1.717418	0.479278	0.000005
F82	F	2.217418	0.979278	0.500005
F83	F	1.820999	-0.417137	0.000025
F84	F	2.320999	0.082863	0.500025
F85	F	1.245589	0.421573	-0.000035
F86	F	1.745589	0.921573	0.499965
H87	H	1.280893	0.170985	-0.000007
H88	H	1.780893	0.670985	0.499993
