data_functionalizedCrystal
_audit_creation_method	'MofGen! by Chris Wilmer'
_symmetry_space_group_name_H-M	'P1'
_symmetry_Int_Tables_number	1
_symmetry_cell_setting	triclinic
loop_
_symmetry_equiv_pos_as_xyz
  x,y,z
_cell_length_a	15.995300
_cell_length_b	15.995350
_cell_length_c	14.048226
_cell_angle_alpha	90.004843
_cell_angle_beta	90.002924
_cell_angle_gamma	83.482091
loop_
_atom_site_label
_atom_site_type_symbol
_atom_site_fract_x
_atom_site_fract_y
_atom_site_fract_z
O1	O	1.111008	0.107729	0.079191
O2	O	0.867227	0.121101	0.079184
O3	O	0.995781	-0.007474	0.079187
O4	O	0.982453	0.236304	0.079188
O5	O	0.995778	-0.007484	-0.079134
O6	O	0.867224	0.121090	-0.079137
O7	O	1.111005	0.107719	-0.079131
Zn8	Zn	0.989114	0.114403	-0.104271
Zn9	Zn	0.989118	0.114417	0.104324
O10	O	0.982450	0.236293	-0.079133
C11	C	0.836030	0.120550	0.000023
C12	C	0.743077	0.118915	0.000021
C13	C	0.995229	-0.038674	0.000028
C14	C	0.993577	-0.131624	0.000033
C15	C	0.572894	0.115896	0.000028
C16	C	0.525428	0.207443	0.000026
C17	C	0.428740	0.205773	0.000388
C18	C	0.405337	0.112924	0.000034
C19	C	0.446472	0.067510	0.090265
C20	C	0.543105	0.069826	0.090338
C21	C	0.543381	0.068459	-0.089709
C22	C	0.446437	0.068467	-0.090893
C23	C	0.310642	0.111239	0.000041
C24	C	0.667590	0.117577	0.000028
C25	C	0.987644	-0.469370	0.000030
C26	C	0.896090	-0.421920	0.000383
C27	C	0.897743	-0.325230	0.000026
C28	C	0.990587	-0.301810	0.000032
C29	C	1.035743	-0.342902	-0.090374
C30	C	1.033443	-0.439537	-0.090450
C31	C	1.035338	-0.439884	0.089591
C32	C	1.035316	-0.342938	0.090786
C33	C	0.992255	-0.207113	0.000030
C34	C	0.985979	-0.564068	0.000025
C35	C	1.142202	0.108269	0.000033
C36	C	1.235154	0.109904	0.000041
C37	C	0.983003	0.267493	0.000028
C38	C	0.984655	0.360443	0.000029
N39	N	0.989120	0.114420	0.246685
N40	N	0.989118	0.114393	-0.246631
C41	C	1.046150	0.057599	0.296504
C42	C	1.046154	0.057596	0.396162
C43	C	0.989123	0.114411	0.445999
C44	C	0.932090	0.171238	0.396172
C45	C	0.932091	0.171244	0.296517
C46	C	0.932090	0.171220	0.603887
C47	C	0.932088	0.171214	0.703549
C48	C	1.046153	0.057572	0.703532
C49	C	1.046154	0.057578	0.603876
C50	C	0.989120	0.114405	0.554057
H51	H	0.543918	0.244230	-0.064668
H52	H	1.092588	0.011330	0.255934
N53	N	0.850175	-0.445171	0.081698
N54	N	0.783889	-0.478630	0.070888
H55	H	0.751460	-0.495059	0.128319
H56	H	1.092592	0.011303	0.744101
N57	N	1.120246	-0.323663	0.097644
N58	N	1.149323	-0.279105	0.035474
H59	H	1.209307	-0.265488	0.040314
N60	N	0.873823	0.229275	0.447061
N61	N	0.822907	0.280004	0.402565
H62	H	0.781753	0.320994	0.438502
N63	N	0.873819	0.229251	0.552994
N64	N	0.821913	0.202553	0.497380
H65	H	0.780756	0.243532	0.461435
H66	H	0.561425	0.102565	0.158043
N67	N	0.583267	-0.016208	-0.090802
N68	N	0.661715	-0.030130	-0.093799
H69	H	0.689889	-0.089923	-0.094564
N70	N	0.853209	-0.289568	0.081326
N71	N	0.820687	-0.336083	0.138726
H72	H	0.789229	-0.310900	0.196145
N73	N	0.427206	-0.016457	-0.098085
N74	N	0.454912	-0.061401	-0.166423
H75	H	0.441330	-0.121382	-0.171500
N76	N	0.583585	-0.014508	0.095155
N77	N	0.540440	-0.074886	0.098459
H78	H	0.569025	-0.134446	0.101863
H79	H	0.432372	-0.000714	0.093366
H80	H	0.859658	-0.441512	-0.064090
H81	H	0.400276	0.241458	-0.064278
H82	H	1.102840	-0.471657	0.090203
H83	H	0.885648	0.217479	0.744121
N84	N	0.873832	0.229293	0.245639
N85	N	0.822914	0.280016	0.290144
H86	H	0.781767	0.321016	0.254214
N87	N	1.104406	-0.000386	0.447132
N88	N	1.156266	0.026385	0.502749
H89	H	1.197410	-0.014546	0.538773
H90	H	0.862006	-0.297363	-0.064893
N91	N	1.104407	-0.000468	0.552982
N92	N	1.155324	-0.051201	0.597472
H93	H	1.196468	-0.092198	0.561528
H94	H	0.545038	0.243690	0.064635
N95	N	0.393809	0.250385	0.081988
N96	N	0.440849	0.282845	0.138853
H97	H	0.416180	0.314361	0.196482
H98	H	0.418087	0.098653	0.157668
N99	N	0.996410	-0.307310	-0.174792
N100	N	1.038093	-0.270188	-0.233289
H101	H	1.010311	-0.245052	-0.292908
H102	H	0.563880	0.098594	-0.158121
H103	H	0.419096	0.101631	-0.157647
H104	H	1.000513	-0.457837	-0.158035
N105	N	0.993977	-0.308640	0.174685
N106	N	1.033829	-0.270958	0.234483
H107	H	1.004635	-0.246719	0.293734
H108	H	1.103954	-0.328789	-0.093732
N109	N	1.117768	-0.480001	-0.095603
N110	N	1.178127	-0.436844	-0.099139
H111	H	1.237680	-0.465417	-0.102785
H112	H	1.005405	-0.460413	0.158114
