data_functionalizedCrystal
_audit_creation_method	'MofGen! by Chris Wilmer'
_symmetry_space_group_name_H-M	'P1'
_symmetry_Int_Tables_number	1
_symmetry_cell_setting	triclinic
loop_
_symmetry_equiv_pos_as_xyz
  x,y,z
_cell_length_a	15.297475
_cell_length_b	18.101395
_cell_length_c	15.297908
_cell_angle_alpha	99.655069
_cell_angle_beta	72.640407
_cell_angle_gamma	80.333681
loop_
_atom_site_label
_atom_site_type_symbol
_atom_site_fract_x
_atom_site_fract_y
_atom_site_fract_z
Zn1	Zn	1.512561	-0.619616	-0.771392
Zn2	Zn	1.485533	-0.717526	-0.615870
Zn3	Zn	1.330158	-0.567785	-0.589041
Zn4	Zn	1.356983	-0.717460	-0.744469
O5	O	1.421309	-0.655597	-0.680193
O6	O	1.639111	-0.654323	-0.773257
O7	O	1.442385	-0.675999	-0.482177
O8	O	1.354440	-0.471046	-0.613270
O9	O	1.619254	-0.726257	-0.658995
O10	O	1.488450	-0.509125	-0.747243
O11	O	1.328231	-0.565985	-0.462466
O12	O	1.203582	-0.565921	-0.587164
O13	O	1.400159	-0.726145	-0.878175
O14	O	1.223290	-0.675887	-0.701356
O15	O	1.514461	-0.654259	-0.897955
O16	O	1.468396	-0.821133	-0.632889
O17	O	1.373951	-0.821084	-0.727371
C18	C	1.179693	-0.615273	-0.638428
C19	C	1.076333	-0.598044	-0.620582
C20	C	1.421180	-0.847982	-0.680144
C21	C	1.421215	-0.930305	-0.680169
C22	C	0.826059	-0.778743	-0.807739
C23	C	0.923171	-0.794935	-0.824503
C24	C	0.961467	-0.745714	-0.773525
C25	C	0.902640	-0.680297	-0.705779
C26	C	0.805518	-0.664106	-0.689008
C27	C	0.940925	-0.631077	-0.654793
C28	C	0.882099	-0.565660	-0.587047
C29	C	0.784987	-0.549472	-0.570280
C30	C	0.746691	-0.598693	-0.621258
C31	C	1.038047	-0.647268	-0.671564
C32	C	1.017506	-0.532631	-0.552833
C33	C	0.920394	-0.516438	-0.536069
C34	C	1.421428	-1.229438	-0.680254
C35	C	1.362203	-1.198171	-0.739907
C36	C	1.361823	-1.112459	-0.739623
C37	C	1.421322	-1.081035	-0.680213
C38	C	1.377838	-1.091426	-0.577625
C39	C	1.377451	-1.177066	-0.577976
C40	C	1.524145	-1.218377	-0.722355
C41	C	1.523938	-1.132987	-0.724404
C42	C	1.421263	-0.997163	-0.680184
C43	C	1.421483	-1.313309	-0.680277
C44	C	1.663868	-0.696079	-0.722122
C45	C	1.767233	-0.713330	-0.739990
C46	C	1.463317	-0.695976	-0.922751
C47	C	1.481218	-0.713184	-1.026114
C48	C	1.421468	-0.462468	-0.680267
C49	C	1.421535	-0.380168	-0.680298
C50	C	1.293954	-0.532579	-1.276439
C51	C	1.277136	-0.516405	-1.179324
C52	C	1.328155	-0.565598	-1.141016
C53	C	1.395995	-0.630968	-1.199834
C54	C	1.412819	-0.647141	-1.296959
C55	C	1.447021	-0.680160	-1.161537
C56	C	1.514861	-0.745530	-1.220354
C57	C	1.531681	-0.761700	-1.317470
C58	C	1.480663	-0.712506	-1.355777
C59	C	1.430196	-0.663987	-1.064412
C60	C	1.549062	-0.778549	-1.084932
C61	C	1.565879	-0.794724	-1.182047
C62	C	1.379518	-0.615330	-0.438588
C63	C	1.361797	-0.597944	-0.335257
H64	H	1.040540	-0.758902	-0.787179
N65	N	1.398411	-1.104681	-0.834375
N66	N	1.404388	-1.039896	-0.850375
H67	H	1.430230	-1.034405	-0.917297
N68	N	1.310992	-0.549090	-1.041819
N69	N	1.376040	-0.538512	-1.011014
H70	H	1.363916	-0.526853	-0.940951
N71	N	0.724878	-0.482661	-0.501075
N72	N	0.660385	-0.489731	-0.432400
H73	H	0.617932	-0.442545	-0.383524
N74	N	1.360896	-0.597229	-1.004323
N75	N	1.345876	-0.582795	-0.917610
H76	H	1.296927	-0.535645	-0.875170
N77	N	1.266736	-1.068110	-0.703008
N78	N	1.234136	-1.030977	-0.752669
H79	H	1.166972	-0.999664	-0.726824
N80	N	1.207838	-0.449646	-1.119232
N81	N	1.192825	-0.435214	-1.032520
H82	H	1.143879	-0.388063	-0.990077
H83	H	1.418871	-1.070302	-0.531225
H84	H	1.252426	-0.492529	-1.307639
N85	N	1.398655	-1.242646	-0.834920
N86	N	1.347680	-1.277417	-0.868447
H87	H	1.373438	-1.308836	-0.935551
N88	N	1.635198	-0.861486	-1.242122
N89	N	1.680757	-0.905400	-1.207920
H90	H	1.729718	-0.952549	-1.250348
N91	N	0.860287	-0.449620	-0.466876
N92	N	0.773580	-0.435175	-0.451919
H93	H	0.731127	-0.387984	-0.403053
N94	N	1.282631	-1.182736	-0.535731
N95	N	1.265199	-1.246892	-0.528356
H96	H	1.198230	-1.250895	-0.498522
H97	H	1.494346	-0.725675	-1.434854
H98	H	1.286889	-1.204931	-0.710966
N99	N	1.579749	-1.243983	-0.668101
N100	N	1.544007	-1.270279	-0.598726
H101	H	1.583270	-1.288364	-0.560403
H102	H	1.085935	-0.700531	-0.726724
H103	H	0.971061	-0.848199	-0.879660
H104	H	0.794869	-0.818815	-0.849233
H105	H	0.667616	-0.585511	-0.607615
N106	N	1.600986	-0.828472	-1.377539
N107	N	1.646531	-0.872391	-1.343330
H108	H	1.695477	-0.919551	-1.385751
N109	N	1.569746	-1.265164	-0.815716
N110	N	1.581308	-1.336735	-0.830015
H111	H	1.613507	-1.369780	-0.895952
H112	H	1.048685	-0.492552	-0.511320
H113	H	1.590608	-0.818606	-1.053744
N114	N	1.428041	-1.201891	-0.519149
N115	N	1.463517	-1.155967	-0.477961
H116	H	1.499234	-1.173492	-0.436403
N117	N	1.283888	-1.045180	-0.535035
N118	N	1.268958	-0.973711	-0.524968
H119	H	1.202605	-0.941049	-0.494892
N120	N	1.564681	-1.126706	-0.819221
N121	N	1.518376	-1.084140	-0.854180
H122	H	1.547148	-1.079699	-0.921145
N123	N	1.583921	-1.107721	-0.675560
N124	N	1.551873	-1.050761	-0.607076
H125	H	1.594231	-1.032917	-0.572570
