data_functionalizedCrystal
_audit_creation_method	'MofGen! by Chris Wilmer'
_symmetry_space_group_name_H-M	'P1'
_symmetry_Int_Tables_number	1
_symmetry_cell_setting	triclinic
loop_
_symmetry_equiv_pos_as_xyz
  x,y,z
_cell_length_a	19.288867
_cell_length_b	22.010155
_cell_length_c	19.288865
_cell_angle_alpha	89.999010
_cell_angle_beta	96.863342
_cell_angle_gamma	90.006943
loop_
_atom_site_label
_atom_site_type_symbol
_atom_site_fract_x
_atom_site_fract_y
_atom_site_fract_z
O1	O	0.921352	0.050511	-0.086645
O2	O	0.719092	0.050518	-0.098332
O3	O	0.826067	0.050502	0.008642
O4	O	0.814378	0.050526	-0.193619
O5	O	0.826047	-0.050548	0.008626
O6	O	0.719073	-0.050533	-0.098348
O7	O	0.921333	-0.050540	-0.086661
Cu8	Cu	0.820201	-0.059763	-0.092506
Cu9	Cu	0.820224	0.059741	-0.092487
O10	O	0.814358	-0.050524	-0.193635
C11	C	0.693206	-0.000007	-0.097964
C12	C	0.616102	-0.000005	-0.096834
C13	C	0.060548	0.055070	-0.088689
C14	C	0.132995	0.055072	-0.089746
C15	C	0.169213	-0.000010	-0.090287
C16	C	0.132980	-0.055099	-0.089752
C17	C	0.060535	-0.055100	-0.088688
C18	C	0.278532	-0.042205	-0.132661
C19	C	0.350976	-0.042202	-0.133730
C20	C	0.392659	-0.000010	-0.093566
C21	C	0.361888	0.042189	-0.052343
C22	C	0.289443	0.042189	-0.051279
C23	C	0.247768	-0.000015	-0.091440
C24	C	0.507440	0.055078	-0.095242
C25	C	0.579889	0.055078	-0.096295
C26	C	0.579872	-0.055095	-0.096308
C27	C	0.507425	-0.055093	-0.095248
C28	C	0.471213	-0.000005	-0.094718
N29	N	0.820190	-0.143815	-0.092519
C30	C	0.867595	-0.563602	-0.045125
C31	C	0.867598	-0.627209	-0.045121
O32	O	0.907876	-0.660107	-0.004834
N33	N	0.820224	-0.659022	-0.092472
C34	C	0.772838	-0.627225	-0.139827
O35	O	0.732542	-0.660125	-0.180102
C36	C	0.772832	-0.563618	-0.139828
C37	C	0.820214	-0.531808	-0.092478
C38	C	0.914973	-0.531792	0.002221
C39	C	0.914971	-0.468188	0.002215
C40	C	0.867590	-0.436395	-0.045137
C41	C	0.820212	-0.468205	-0.092484
C42	C	0.725443	-0.531822	-0.187179
C43	C	0.725441	-0.468211	-0.187175
C44	C	0.772824	-0.436401	-0.139825
C45	C	0.772829	-0.372809	-0.139842
N46	N	0.820203	-0.340996	-0.092491
C47	C	0.867584	-0.372789	-0.045138
C48	C	0.772853	-0.760803	-0.139821
C49	C	0.772862	-0.824408	-0.139824
C50	C	0.867622	-0.824388	-0.045116
C51	C	0.867616	-0.760781	-0.045117
C52	C	0.820228	-0.728989	-0.092469
C53	C	0.867575	-0.239217	-0.045154
C54	C	0.867571	-0.175609	-0.045166
C55	C	0.772809	-0.175634	-0.139871
C56	C	0.772816	-0.239237	-0.139862
C57	C	0.820202	-0.271027	-0.092498
O58	O	0.732570	-0.339871	-0.180106
O59	O	0.907867	-0.339881	-0.004863
C60	C	0.947219	-0.000014	-0.087029
C61	C	1.024323	-0.000012	-0.088159
C62	C	0.825681	-0.000025	0.034510
C63	C	0.824552	-0.000030	0.111614
N64	N	0.820241	0.143793	-0.092468
C65	C	0.814744	0.000004	-0.219503
C66	C	0.815873	0.000014	-0.296607
C67	C	0.887320	-0.000035	0.156310
C68	C	0.886259	-0.000026	0.228757
C69	C	0.822427	-0.000023	0.256505
C70	C	0.759651	-0.000015	0.211799
C71	C	0.760713	-0.000018	0.139354
C72	C	0.772241	-0.035417	0.364787
C73	C	0.771181	-0.035417	0.437232
C74	C	0.819147	-0.000010	0.479951
C75	C	0.868185	0.035391	0.450218
C76	C	0.869248	0.035387	0.377772
C77	C	0.821268	-0.000019	0.335059
C78	C	0.880769	-0.000003	0.603202
C79	C	0.879706	0.000010	0.675650
C80	C	0.753096	0.000015	0.658691
C81	C	0.754161	0.000008	0.586245
C82	C	0.818000	-0.000004	0.558505
H83	H	0.609360	-0.099944	-0.096745
C84	C	0.467539	-0.115682	-0.094912
H85	H	0.419198	-0.107793	-0.094269
H86	H	0.474063	-0.138177	-0.135658
H87	H	0.484735	-0.138451	-0.054659
C88	C	0.950985	-0.000009	0.572682
H89	H	0.942629	-0.000019	0.523134
H90	H	0.976828	0.035230	0.588033
H91	H	0.976814	-0.035252	0.588042
C92	C	0.172854	0.115662	-0.090333
H93	H	0.221186	0.107772	-0.091038
H94	H	0.155560	0.138297	-0.130653
H95	H	0.166412	0.138295	-0.049656
C96	C	0.967100	-0.566755	0.054310
H97	H	0.995315	-0.538691	0.082499
H98	H	0.942221	-0.591575	0.083168
H99	H	0.995940	-0.591558	0.029392
H100	H	0.930821	0.000009	0.712042
H101	H	0.162474	-0.099947	-0.090191
H102	H	0.906161	-0.265094	-0.006585
H103	H	0.701123	0.000020	0.681283
H104	H	0.733179	-0.064254	0.330010
H105	H	0.909175	0.064213	0.353567
H106	H	0.264393	0.076548	-0.017712
C107	C	0.967084	-0.433205	0.054309
H108	H	0.995293	-0.461258	0.082512
H109	H	0.995921	-0.408386	0.029404
H110	H	0.942183	-0.408400	0.083163
C111	C	0.919690	-0.140621	0.006924
H112	H	0.947902	-0.168670	0.035130
H113	H	0.948524	-0.115804	-0.017988
H114	H	0.894792	-0.115812	0.035776
C115	C	0.407727	0.088603	-0.008157
H116	H	0.379026	0.113736	0.016541
H117	H	0.440365	0.067704	0.024142
H118	H	0.432064	0.113013	-0.037902
C119	C	0.919731	-0.725796	0.006972
H120	H	0.947944	-0.753847	0.035174
H121	H	0.948563	-0.700975	-0.017936
H122	H	0.894832	-0.700992	0.035829
H123	H	0.707678	-0.000011	0.234396
H124	H	0.734234	-0.149738	-0.178427
H125	H	0.376021	-0.076551	-0.167313
C126	C	0.232687	-0.088617	-0.176848
H127	H	0.261385	-0.113741	-0.201559
H128	H	0.208348	-0.113027	-0.147110
H129	H	0.200050	-0.067711	-0.209146
H130	H	0.477955	0.099934	-0.094808
C131	C	0.020720	0.115664	-0.088088
H132	H	0.052676	0.148469	-0.088547
H133	H	-0.012970	0.117964	-0.128164
H134	H	-0.002108	0.117945	-0.047168
C135	C	0.673317	-0.433243	-0.239267
H136	H	0.645106	-0.461302	-0.267467
H137	H	0.644482	-0.408432	-0.214358
H138	H	0.698211	-0.408430	-0.268125
H139	H	0.906201	-0.850286	-0.006558
C140	C	0.691666	-0.000018	0.090186
H141	H	0.653496	-0.000018	0.117085
H142	H	0.689455	0.035216	0.061567
H143	H	0.689444	-0.035265	0.061580
C144	C	0.920948	0.074346	0.497198
H145	H	0.913288	0.069286	0.544602
H146	H	0.967076	0.061899	0.491485
H147	H	0.915018	0.115889	0.484499
H148	H	0.734286	-0.850303	-0.178388
H149	H	0.734266	-0.734920	-0.178386
C150	C	0.673328	-0.566799	-0.239271
H151	H	0.645110	-0.538746	-0.267464
H152	H	0.698221	-0.591606	-0.268124
H153	H	0.644489	-0.591617	-0.214360
H154	H	0.031040	-0.099955	-0.088259
C155	C	0.720671	-0.274230	-0.191919
H156	H	0.692442	-0.246182	-0.220110
H157	H	0.745529	-0.299059	-0.220780
H158	H	0.691847	-0.299026	-0.166966
C159	C	0.619737	0.115671	-0.096879
H160	H	0.587791	0.148477	-0.096418
H161	H	0.653422	0.117963	-0.056797
H162	H	0.642573	0.117960	-0.137794
H163	H	0.939302	-0.000043	0.133729
H164	H	0.937374	-0.000027	0.265155
C165	C	0.685116	0.000003	0.537077
H166	H	0.646946	0.000001	0.563977
H167	H	0.682903	0.035239	0.508459
H168	H	0.682895	-0.035243	0.508469
H169	H	0.731248	-0.064239	0.461434
