data_functionalizedCrystal
_audit_creation_method	'MofGen! by Chris Wilmer'
_symmetry_space_group_name_H-M	'P1'
_symmetry_Int_Tables_number	1
_symmetry_cell_setting	triclinic
loop_
_symmetry_equiv_pos_as_xyz
  x,y,z
_cell_length_a	23.532355
_cell_length_b	12.503552
_cell_length_c	14.044220
_cell_angle_alpha	86.160057
_cell_angle_beta	88.008188
_cell_angle_gamma	93.494445
loop_
_atom_site_label
_atom_site_type_symbol
_atom_site_fract_x
_atom_site_fract_y
_atom_site_fract_z
O1	O	0.764503	0.089176	0.109274
O2	O	1.014503	0.339176	0.359274
O3	O	1.264503	0.589176	0.609274
O4	O	1.514503	0.839176	0.859274
O5	O	0.599541	0.089210	0.125964
O6	O	0.849541	0.339210	0.375964
O7	O	1.099541	0.589210	0.625964
O8	O	1.349541	0.839210	0.875964
O9	O	0.679546	0.089183	-0.020341
O10	O	0.929546	0.339183	0.229659
O11	O	1.179546	0.589183	0.479659
O12	O	1.429546	0.839183	0.729659
O13	O	0.684499	0.089203	0.255579
O14	O	0.934499	0.339203	0.505579
O15	O	1.184499	0.589203	0.755579
O16	O	1.434499	0.839203	1.005579
O17	O	0.673522	-0.089457	-0.009329
O18	O	0.923522	0.160543	0.240671
O19	O	1.173522	0.410543	0.490671
O20	O	1.423522	0.660543	0.740671
O21	O	0.593517	-0.089430	0.136976
O22	O	0.843517	0.160570	0.386976
O23	O	1.093517	0.410570	0.636976
O24	O	1.343517	0.660570	0.886976
O25	O	0.758479	-0.089464	0.120286
O26	O	1.008479	0.160536	0.370286
O27	O	1.258479	0.410536	0.620286
O28	O	1.508479	0.660536	0.870286
Cu29	Cu	0.675448	-0.105758	0.129637
Cu30	Cu	0.925448	0.144242	0.379637
Cu31	Cu	1.175448	0.394242	0.629637
Cu32	Cu	1.425448	0.644242	0.879637
Cu33	Cu	0.682572	0.105505	0.116613
Cu34	Cu	0.932572	0.355505	0.366613
Cu35	Cu	1.182572	0.605505	0.616613
Cu36	Cu	1.432572	0.855505	0.866613
O37	O	0.678475	-0.089437	0.266591
O38	O	0.928475	0.160563	0.516591
O39	O	1.178475	0.410563	0.766591
O40	O	1.428475	0.660563	1.016591
C41	C	0.575290	-0.000105	0.131053
C42	C	0.825290	0.249895	0.381053
C43	C	1.075290	0.499895	0.631053
C44	C	1.325290	0.749895	0.881053
C45	C	0.512004	-0.000093	0.129797
C46	C	0.762004	0.249907	0.379797
C47	C	1.012004	0.499907	0.629797
C48	C	1.262004	0.749907	0.879797
N49	N	0.670442	-0.254350	0.138797
N50	N	0.920442	-0.004350	0.388797
N51	N	1.170442	0.245650	0.638797
N52	N	1.420442	0.495650	0.888797
C53	C	0.694944	-0.526791	0.093969
C54	C	0.944944	-0.276791	0.343969
C55	C	1.194944	-0.026791	0.593969
C56	C	1.444944	0.223209	0.843969
C57	C	0.663082	-0.473456	0.152270
C58	C	0.913082	-0.223456	0.402270
C59	C	1.163082	0.026544	0.652270
C60	C	1.413082	0.276544	0.902270
C61	C	0.667178	-0.351534	0.144772
C62	C	0.917178	-0.101534	0.394772
C63	C	1.167178	0.148466	0.644772
C64	C	1.417178	0.398466	0.894772
C65	C	0.690849	-0.648724	0.101467
C66	C	0.940849	-0.398724	0.351467
C67	C	1.190849	-0.148724	0.601467
C68	C	1.440849	0.101276	0.851467
C69	C	0.116278	-0.097515	0.127921
C70	C	0.366278	0.152485	0.377921
C71	C	0.616278	0.402485	0.627921
C72	C	0.866278	0.652485	0.877921
C73	C	0.056814	-0.097519	0.126728
C74	C	0.306814	0.152481	0.376728
C75	C	0.556814	0.402481	0.626728
C76	C	0.806814	0.652481	0.876728
O77	O	0.023267	-0.180334	0.131184
O78	O	0.273267	0.069666	0.381184
O79	O	0.523267	0.319666	0.631184
O80	O	0.773267	0.569666	0.881184
N81	N	0.030357	-0.000143	0.120133
N82	N	0.280357	0.249857	0.370133
N83	N	0.530357	0.499857	0.620133
N84	N	0.780357	0.749857	0.870133
C85	C	0.063368	0.097244	0.114722
C86	C	0.313368	0.347244	0.364722
C87	C	0.563368	0.597244	0.614722
C88	C	0.813368	0.847244	0.864722
O89	O	0.035404	0.180070	0.109002
O90	O	0.285404	0.430070	0.359002
O91	O	0.535404	0.680070	0.609002
O92	O	0.785404	0.930070	0.859002
C93	C	0.122831	0.097247	0.115908
C94	C	0.372831	0.347247	0.365908
C95	C	0.622831	0.597247	0.615908
C96	C	0.872831	0.847247	0.865908
C97	C	0.149284	-0.000135	0.122513
C98	C	0.399284	0.249865	0.372513
C99	C	0.649284	0.499865	0.622513
C100	C	0.899284	0.749865	0.872513
C101	C	0.142732	-0.194890	0.134524
C102	C	0.392732	0.055110	0.384524
C103	C	0.642732	0.305110	0.634524
C104	C	0.892732	0.555110	0.884524
C105	C	0.202192	-0.194885	0.135719
C106	C	0.452192	0.055115	0.385719
C107	C	0.702192	0.305115	0.635719
C108	C	0.952192	0.555115	0.885719
C109	C	0.235198	-0.097506	0.130311
C110	C	0.485198	0.152494	0.380311
C111	C	0.735198	0.402494	0.630311
C112	C	0.985198	0.652494	0.880311
C113	C	0.208744	-0.000131	0.123708
C114	C	0.458744	0.249869	0.373708
C115	C	0.708744	0.499869	0.623708
C116	C	0.958744	0.749869	0.873708
C117	C	0.155841	0.194633	0.110490
C118	C	0.405841	0.444633	0.360490
C119	C	0.655841	0.694633	0.610490
C120	C	0.905841	0.944633	0.860490
C121	C	0.215308	0.194628	0.111676
C122	C	0.465308	0.444628	0.361676
C123	C	0.715308	0.694628	0.611676
C124	C	0.965308	0.944628	0.861676
C125	C	0.241761	0.097245	0.118281
C126	C	0.491761	0.347245	0.368281
C127	C	0.741761	0.597245	0.618281
C128	C	0.991761	0.847245	0.868281
C129	C	0.301211	0.097253	0.119494
C130	C	0.551211	0.347253	0.369494
C131	C	0.801211	0.597253	0.619494
C132	C	1.051211	0.847253	0.869494
N133	N	0.327668	-0.000123	0.126089
N134	N	0.577668	0.249877	0.376089
N135	N	0.827668	0.499877	0.626089
N136	N	1.077668	0.749877	0.876089
C137	C	0.294661	-0.097503	0.131497
C138	C	0.544661	0.152497	0.381497
C139	C	0.794661	0.402497	0.631497
C140	C	1.044661	0.652497	0.881497
C141	C	-0.061510	0.097230	0.112229
C142	C	0.188490	0.347230	0.362229
C143	C	0.438490	0.597230	0.612229
C144	C	0.688490	0.847230	0.862229
C145	C	-0.120972	0.097228	0.111049
C146	C	0.129028	0.347228	0.361049
C147	C	0.379028	0.597228	0.611049
C148	C	0.629028	0.847228	0.861049
C149	C	-0.127522	-0.097536	0.123054
C150	C	0.122478	0.152464	0.373054
C151	C	0.372478	0.402464	0.623054
C152	C	0.622478	0.652464	0.873054
C153	C	-0.068058	-0.097533	0.124240
C154	C	0.181942	0.152467	0.374240
C155	C	0.431942	0.402467	0.624240
C156	C	0.681942	0.652467	0.874240
C157	C	-0.035053	-0.000146	0.118823
C158	C	0.214947	0.249854	0.368823
C159	C	0.464947	0.499854	0.618823
C160	C	0.714947	0.749854	0.868823
C161	C	0.419532	-0.097486	0.134007
C162	C	0.669532	0.152514	0.384007
C163	C	0.919532	0.402514	0.634007
C164	C	1.169532	0.652514	0.884007
C165	C	0.478998	-0.097472	0.135206
C166	C	0.728998	0.152528	0.385206
C167	C	0.978998	0.402528	0.635206
C168	C	1.228998	0.652528	0.885206
C169	C	0.485542	0.097291	0.123196
C170	C	0.735542	0.347291	0.373196
C171	C	0.985542	0.597291	0.623196
C172	C	1.235542	0.847291	0.873196
C173	C	0.426082	0.097279	0.122003
C174	C	0.676082	0.347279	0.372003
C175	C	0.926082	0.597279	0.622003
C176	C	1.176082	0.847279	0.872003
C177	C	0.393078	-0.000119	0.127406
C178	C	0.643078	0.249881	0.377406
C179	C	0.893078	0.499881	0.627406
C180	C	1.143078	0.749881	0.877406
O181	O	0.334794	0.180025	0.115038
O182	O	0.584794	0.430025	0.365038
O183	O	0.834794	0.680025	0.615038
O184	O	1.084794	0.930025	0.865038
O185	O	0.322633	-0.180315	0.137204
O186	O	0.572633	0.069685	0.387204
O187	O	0.822633	0.319685	0.637204
O188	O	1.072633	0.569685	0.887204
C189	C	0.782730	-0.000146	0.115197
C190	C	1.032730	0.249854	0.365197
C191	C	1.282730	0.499854	0.615197
C192	C	1.532730	0.749854	0.865197
C193	C	0.846017	-0.000152	0.116452
C194	C	1.096017	0.249848	0.366452
C195	C	1.346017	0.499848	0.616452
C196	C	1.596017	0.749848	0.866452
C197	C	0.674366	-0.000137	-0.050128
C198	C	0.924366	0.249863	0.199872
C199	C	1.174366	0.499863	0.449872
C200	C	1.424366	0.749863	0.699872
C201	C	0.667900	-0.000137	-0.155291
C202	C	0.917900	0.249863	0.094709
C203	C	1.167900	0.499863	0.344709
C204	C	1.417900	0.749863	0.594709
N205	N	0.687583	0.254096	0.107446
N206	N	0.937583	0.504096	0.357446
N207	N	1.187583	0.754096	0.607446
N208	N	1.437583	1.004096	0.857446
C209	C	0.656079	-0.000119	-0.347839
C210	C	0.906079	0.249881	-0.097839
C211	C	1.156079	0.499881	0.152161
C212	C	1.406079	0.749881	0.402161
C213	C	0.701939	-0.000125	-0.405917
C214	C	0.951939	0.249875	-0.155917
C215	C	1.201939	0.499875	0.094083
C216	C	1.451939	0.749875	0.344083
C217	C	0.695362	-0.000115	-0.513058
C218	C	0.945362	0.249885	-0.263058
C219	C	1.195362	0.499885	-0.013058
C220	C	1.445362	0.749885	0.236942
C221	C	0.662656	-0.000129	-0.240689
C222	C	0.912656	0.249871	0.009311
C223	C	1.162656	0.499871	0.259311
C224	C	1.412656	0.749871	0.509311
C225	C	0.683654	-0.000115	0.296378
C226	C	0.933654	0.249885	0.546378
C227	C	1.183654	0.499885	0.796378
C228	C	1.433654	0.749885	1.046378
C229	C	0.690121	-0.000107	0.401541
C230	C	0.940121	0.249893	0.651541
C231	C	1.190121	0.499893	0.901541
C232	C	1.440121	0.749893	1.151541
H233	H	0.632728	-0.519361	0.207816
H234	H	0.882728	-0.269361	0.457816
H235	H	1.132728	-0.019361	0.707816
H236	H	1.382728	0.230639	0.957816
H237	H	0.746142	-0.000063	-0.375180
H238	H	0.996142	0.249937	-0.125180
H239	H	1.246142	0.499937	0.124820
H240	H	1.496142	0.749937	0.374820
Cl241	Cl	0.587840	-0.000100	-0.395299
Cl242	Cl	0.837840	0.249900	-0.145299
Cl243	Cl	1.087840	0.499900	0.104701
Cl244	Cl	1.337840	0.749900	0.354701
H245	H	0.725297	-0.480891	0.038428
H246	H	0.975297	-0.230891	0.288428
H247	H	1.225297	0.019109	0.538428
H248	H	1.475297	0.269109	0.788428
Cl249	Cl	0.235438	-0.317317	0.144016
Cl250	Cl	0.485438	-0.067317	0.394016
Cl251	Cl	0.735438	0.182683	0.644016
Cl252	Cl	0.985438	0.432683	0.894016
Cl253	Cl	0.512249	-0.219906	0.143512
Cl254	Cl	0.762249	0.030094	0.393512
Cl255	Cl	1.012249	0.280094	0.643512
Cl256	Cl	1.262249	0.530094	0.893512
H257	H	0.392667	-0.176795	0.138415
H258	H	0.642667	0.073205	0.388415
H259	H	0.892667	0.323205	0.638415
H260	H	1.142667	0.573205	0.888415
Cl261	Cl	0.122600	0.317066	0.102182
Cl262	Cl	0.372600	0.567066	0.352182
Cl263	Cl	0.622600	0.817066	0.602182
Cl264	Cl	0.872600	1.067066	0.852182
H265	H	-0.142505	0.176527	0.105686
H266	H	0.107495	0.426527	0.355686
H267	H	0.357495	0.676527	0.605686
H268	H	0.607495	0.926527	0.855686
Cl269	Cl	0.101248	-0.317327	0.141330
Cl270	Cl	0.351248	-0.067327	0.391330
Cl271	Cl	0.601248	0.182673	0.641330
Cl272	Cl	0.851248	0.432673	0.891330
Cl273	Cl	-0.169027	-0.219957	0.129848
Cl274	Cl	0.080973	0.030043	0.379848
Cl275	Cl	0.330973	0.280043	0.629848
Cl276	Cl	0.580973	0.530043	0.879848
Cl277	Cl	-0.020022	0.219672	0.105430
Cl278	Cl	0.229978	0.469672	0.355430
Cl279	Cl	0.479978	0.719672	0.605430
Cl280	Cl	0.729978	0.969672	0.855430
Cl281	Cl	-0.034809	-0.219961	0.132540
Cl282	Cl	0.215191	0.030039	0.382540
Cl283	Cl	0.465191	0.280039	0.632540
Cl284	Cl	0.715191	0.530039	0.882540
Cl285	Cl	0.256797	0.317065	0.104864
Cl286	Cl	0.506797	0.567065	0.354864
Cl287	Cl	0.756797	0.817065	0.604864
Cl288	Cl	1.006797	1.067065	0.854864
Cl289	Cl	0.392825	0.219704	0.113715
Cl290	Cl	0.642825	0.469704	0.363715
Cl291	Cl	0.892825	0.719704	0.613715
Cl292	Cl	1.142825	0.969704	0.863715
Cl293	Cl	0.527047	0.219705	0.116391
Cl294	Cl	0.777047	0.469705	0.366391
Cl295	Cl	1.027047	0.719705	0.616391
Cl296	Cl	1.277047	0.969705	0.866391
