data_functionalizedCrystal
_audit_creation_method	'MofGen! by Chris Wilmer'
_symmetry_space_group_name_H-M	'P1'
_symmetry_Int_Tables_number	1
_symmetry_cell_setting	triclinic
loop_
_symmetry_equiv_pos_as_xyz
  x,y,z
_cell_length_a	17.019282
_cell_length_b	27.732048
_cell_length_c	16.098538
_cell_angle_alpha	92.695138
_cell_angle_beta	91.140572
_cell_angle_gamma	83.017024
loop_
_atom_site_label
_atom_site_type_symbol
_atom_site_fract_x
_atom_site_fract_y
_atom_site_fract_z
O1	O	1.045635	0.061727	0.005752
O2	O	1.545635	0.561727	0.505752
O3	O	0.816718	0.069074	-0.010674
O4	O	1.316718	0.569074	0.489326
O5	O	0.938285	-0.004952	-0.001935
O6	O	1.438285	0.495048	0.498065
O7	O	0.924068	0.135753	-0.002987
O8	O	1.424068	0.635753	0.497013
O9	O	0.931184	-0.000645	0.136068
O10	O	1.431184	0.499355	0.636068
O11	O	0.809617	0.073381	0.127329
O12	O	1.309617	0.573381	0.627329
O13	O	1.038534	0.066034	0.143755
O14	O	1.538534	0.566034	0.643755
Zn15	Zn	0.922948	0.070392	0.157453
Zn16	Zn	1.422948	0.570392	0.657453
Zn17	Zn	0.932304	0.064717	-0.024371
Zn18	Zn	1.432304	0.564717	0.475629
O19	O	0.916966	0.140061	0.135016
O20	O	1.416966	0.640061	0.635016
C21	C	0.783890	0.070865	0.056227
C22	C	1.283890	0.570865	0.556227
C23	C	0.696652	0.069780	0.049968
C24	C	1.196652	0.569780	0.549968
C25	C	0.651801	0.071616	0.122254
C26	C	1.151801	0.571616	0.622254
C27	C	0.569833	0.070589	0.116376
C28	C	1.069833	0.570589	0.616376
C29	C	0.532717	0.067728	0.038210
C30	C	1.032717	0.567728	0.538210
C31	C	0.577574	0.065889	-0.034082
C32	C	1.077574	0.565889	0.465918
C33	C	0.659541	0.066914	-0.028203
C34	C	1.159541	0.566914	0.471797
C35	C	0.285424	0.064514	0.016694
C36	C	0.785424	0.564514	0.516694
C37	C	0.203451	0.063492	0.010820
C38	C	0.703451	0.563492	0.510820
C39	C	0.195716	0.068190	0.161278
C40	C	0.695716	0.568190	0.661278
C41	C	0.277684	0.069217	0.167151
C42	C	0.777684	0.569217	0.667151
C43	C	0.322535	0.067376	0.094859
C44	C	0.822535	0.567376	0.594859
C45	C	0.448933	0.066679	0.032199
C46	C	0.948933	0.566679	0.532199
C47	C	0.406318	0.068422	0.100871
C48	C	0.906318	0.568422	0.600871
C49	C	0.934436	-0.020807	0.067047
C50	C	1.434436	0.479193	0.567047
C51	C	0.933537	-0.074467	0.066990
C52	C	1.433537	0.425533	0.566990
C53	C	0.999720	-0.412880	0.071696
C54	C	1.499720	0.087120	0.571696
C55	C	0.996386	-0.614560	0.071445
C56	C	1.496386	-0.114560	0.571445
O57	O	1.056905	-0.645447	0.075751
O58	O	1.556905	-0.145447	0.575751
N59	N	0.924301	-0.634124	0.066273
N60	N	1.424301	-0.134124	0.566273
C61	C	0.853044	-0.603265	0.061159
C62	C	1.353044	-0.103265	0.561159
O63	O	0.791656	-0.624533	0.056745
O64	O	1.291656	-0.124533	0.556745
C65	C	0.856380	-0.401585	0.061404
C66	C	1.356380	0.098415	0.561404
C67	C	0.928469	-0.382024	0.066584
C68	C	1.428469	0.117976	0.566584
C69	C	1.071803	-0.393318	0.076875
C70	C	1.571803	0.106682	0.576875
C71	C	1.072636	-0.342901	0.076942
C72	C	1.572636	0.157099	0.576942
C73	C	1.001385	-0.312045	0.071830
C74	C	1.501385	0.187955	0.571830
C75	C	0.929301	-0.331607	0.066651
C76	C	1.429301	0.168393	0.566651
C77	C	0.785124	-0.370727	0.056283
C78	C	1.285124	0.129273	0.556283
C79	C	0.785965	-0.320305	0.056342
C80	C	1.285965	0.179695	0.556342
C81	C	0.858054	-0.300744	0.061523
C82	C	1.358054	0.199256	0.561523
C83	C	0.858883	-0.250334	0.061606
C84	C	1.358883	0.249666	0.561606
N85	N	0.930968	-0.230770	0.066778
N86	N	1.430968	0.269230	0.566778
C87	C	1.002219	-0.261626	0.071890
C88	C	1.502219	0.238374	0.571890
C89	C	0.851298	-0.709149	0.061032
C90	C	1.351298	-0.209149	0.561032
C91	C	0.850464	-0.759569	0.060972
C92	C	1.350464	-0.259569	0.560972
C93	C	0.993806	-0.770861	0.071257
C94	C	1.493806	-0.270861	0.571257
C95	C	0.994639	-0.720440	0.071323
C96	C	1.494639	-0.220440	0.571323
C97	C	0.923383	-0.689585	0.066204
C98	C	1.423383	-0.189585	0.566204
C99	C	1.003962	-0.155745	0.072032
C100	C	1.503962	0.344255	0.572032
C101	C	1.004788	-0.105323	0.072102
C102	C	1.504788	0.394677	0.572102
C103	C	0.861447	-0.094036	0.061812
C104	C	1.361447	0.405964	0.561812
C105	C	0.860620	-0.144453	0.061747
C106	C	1.360620	0.355547	0.561747
C107	C	0.931884	-0.175307	0.066854
C108	C	1.431884	0.324693	0.566854
O109	O	0.798397	-0.219419	0.057293
O110	O	1.298397	0.280581	0.557293
O111	O	1.063600	-0.240348	0.076284
O112	O	1.563600	0.259652	0.576284
C113	C	0.998887	-0.463297	0.071629
C114	C	1.498887	0.036703	0.571629
C115	C	0.926804	-0.482859	0.066450
C116	C	1.426804	0.017141	0.566450
C117	C	0.855553	-0.452003	0.061338
C118	C	1.355553	0.047997	0.561338
C119	C	0.925970	-0.533278	0.066390
C120	C	1.425970	-0.033278	0.566390
C121	C	0.997221	-0.564134	0.071502
C122	C	1.497221	-0.064134	0.571502
C123	C	1.069306	-0.544570	0.076674
C124	C	1.569306	-0.044570	0.576674
C125	C	1.070138	-0.494152	0.076741
C126	C	1.570138	0.005848	0.576741
C127	C	0.783468	-0.471567	0.056166
C128	C	1.283468	0.028433	0.556166
C129	C	0.782641	-0.521985	0.056100
C130	C	1.282641	-0.021985	0.556100
C131	C	0.853892	-0.552840	0.061212
C132	C	1.353892	-0.052840	0.561212
C133	C	1.071362	0.064243	0.076852
C134	C	1.571362	0.564243	0.576852
C135	C	1.158600	0.065328	0.083106
C136	C	1.658600	0.565328	0.583106
C137	C	0.920816	0.155916	0.066032
C138	C	1.420816	0.655916	0.566032
C139	C	0.921715	0.209576	0.066084
C140	C	1.421715	0.709576	0.566084
N141	N	0.916568	0.074264	0.281543
N142	N	1.416568	0.574264	0.781543
N143	N	0.938690	0.060840	-0.148462
N144	N	1.438690	0.560840	0.351538
C145	C	0.968185	0.042856	0.328839
C146	C	1.468185	0.542856	0.828839
C147	C	0.963729	0.045570	0.415708
C148	C	1.463729	0.545570	0.915708
C149	C	0.907660	0.079695	0.455279
C150	C	1.407660	0.579695	0.955279
C151	C	0.856038	0.111105	0.407977
C152	C	1.356038	0.611105	0.907977
C153	C	0.860490	0.108388	0.321110
C154	C	1.360490	0.608388	0.821110
C155	C	0.891520	0.089534	0.717369
C156	C	1.391520	0.589534	1.217369
C157	C	0.887073	0.092249	0.804243
C158	C	1.387073	0.592249	1.304243
C159	C	0.994764	0.026713	0.811967
C160	C	1.494764	0.526713	1.311967
C161	C	0.999214	0.024001	0.725098
C162	C	1.499214	0.524001	1.225098
C163	C	0.947589	0.055410	0.677803
C164	C	1.447589	0.555410	1.177803
C165	C	0.903106	0.082470	0.544073
C166	C	1.403106	0.582470	1.044073
C167	C	0.952140	0.052631	0.589011
C168	C	1.452140	0.552631	1.089011
H169	H	1.063494	-0.089399	0.076323
H170	H	1.563494	0.410601	0.576323
F171	F	0.409428	0.063617	-0.050989
F172	F	0.909428	0.563617	0.449011
F173	F	0.785621	-0.061188	0.056372
F174	F	1.285621	0.438812	0.556372
F175	F	0.691294	0.074665	0.205450
F176	F	1.191294	0.574665	0.705450
F177	F	0.805550	0.141816	0.270775
F178	F	1.305550	0.641816	0.770775
F179	F	0.796360	0.147421	0.450093
F180	F	1.296360	0.647421	0.950093
H181	H	0.696058	0.065419	-0.087066
H182	H	1.196058	0.565419	0.412934
H183	H	0.307899	0.071545	0.230802
H184	H	0.807899	0.571545	0.730802
H185	H	0.791761	-0.775491	0.056768
H186	H	1.291761	-0.275491	0.556768
F187	F	0.445822	0.071465	0.184058
F188	F	0.945822	0.571465	0.684058
H189	H	1.051821	-0.795992	0.075420
H190	H	1.551821	-0.295992	0.575420
H191	H	1.005759	0.019994	0.454215
H192	H	1.505759	0.519994	0.954215
F193	F	1.011808	0.016312	0.546895
F194	F	1.511808	0.516312	1.046895
H195	H	0.849486	0.115108	0.678868
H196	H	1.349486	0.615108	1.178868
H197	H	0.801918	-0.160380	0.057551
H198	H	1.301918	0.339620	0.557551
F199	F	1.058890	-0.012318	0.682984
F200	F	1.558890	0.487682	1.182984
F201	F	0.775453	-0.676317	0.055583
F202	F	1.275453	-0.176317	0.555583
H203	H	0.857455	0.110257	0.576300
H204	H	1.357455	0.610257	1.076300
F205	F	0.708396	-0.391535	0.050765
F206	F	1.208396	0.108465	0.550765
H207	H	1.127320	-0.569701	0.080840
H208	H	1.627320	-0.069701	0.580840
H209	H	0.533321	0.072076	0.175239
H210	H	1.033321	0.572076	0.675239
F211	F	0.163951	0.060448	-0.072379
F212	F	0.663951	0.560448	0.427621
F213	F	0.147978	0.070148	0.238211
F214	F	0.647978	0.570148	0.738211
F215	F	0.538074	0.062830	-0.117273
F216	F	1.038074	0.562830	0.382727
F217	F	0.705908	-0.542797	0.050591
F218	F	1.205908	-0.042797	0.550591
H219	H	1.128840	-0.478231	0.080959
H220	H	1.628840	0.021769	0.580959
H221	H	1.053340	-0.704517	0.075541
H222	H	1.553340	-0.204517	0.575541
F223	F	1.079809	-0.188576	0.077467
F224	F	1.579809	0.311424	0.577467
H225	H	1.131338	-0.326979	0.081157
H226	H	1.631338	0.173021	0.581157
F227	F	1.147645	-0.426150	0.082316
F228	F	1.647645	0.073850	0.582316
H229	H	1.036793	0.001141	0.850482
H230	H	1.536793	0.501141	1.350482
H231	H	0.321932	0.063014	-0.042172
H232	H	0.821932	0.563014	0.457828
H233	H	0.727938	-0.295185	0.052172
H234	H	1.227938	0.204815	0.552172
F235	F	0.707628	-0.438735	0.050722
F236	F	1.207628	0.061265	0.550722
F237	F	1.027866	0.006537	0.286732
F238	F	1.527866	0.506537	0.786732
F239	F	0.827394	0.128572	0.846352
F240	F	1.327394	0.628572	1.346352
