data_functionalizedCrystal
_audit_creation_method	'MofGen! by Chris Wilmer'
_symmetry_space_group_name_H-M	'P1'
_symmetry_Int_Tables_number	1
_symmetry_cell_setting	triclinic
loop_
_symmetry_equiv_pos_as_xyz
  x,y,z
_cell_length_a	10.654550
_cell_length_b	10.654551
_cell_length_c	9.730223
_cell_angle_alpha	89.998425
_cell_angle_beta	89.999957
_cell_angle_gamma	84.485146
loop_
_atom_site_label
_atom_site_type_symbol
_atom_site_fract_x
_atom_site_fract_y
_atom_site_fract_z
O1	O	1.667840	0.176399	-0.114178
O2	O	1.302361	0.193205	-0.114202
O3	O	1.493503	0.002062	-0.114190
O4	O	1.476698	0.367541	-0.114190
O5	O	1.493490	0.002057	0.114390
O6	O	1.302349	0.193199	0.114378
O7	O	1.667827	0.176393	0.114402
Zn8	Zn	1.485086	0.184795	0.150682
Zn9	Zn	1.485102	0.184802	-0.150482
O10	O	1.476686	0.367535	0.114390
C11	C	1.255557	0.191968	0.000084
C12	C	1.116114	0.188276	0.000075
C13	C	1.492263	-0.044738	0.000097
C14	C	1.488570	-0.184181	0.000087
C15	C	1.036629	0.300818	0.000079
C16	C	0.905608	0.297341	0.000103
C17	C	0.933570	0.068772	0.000113
C18	C	1.064588	0.072249	0.000099
C19	C	1.486845	-0.249690	-0.124510
C20	C	1.483364	-0.380711	-0.124503
C21	C	1.483340	-0.380702	0.124707
C22	C	1.486812	-0.249683	0.124699
C23	C	1.486864	-0.249697	-0.268389
C24	C	1.483384	-0.380718	-0.268383
C25	C	1.714631	0.177630	0.000112
C26	C	1.854075	0.181322	0.000113
C27	C	1.477926	0.414336	0.000100
C28	C	1.481619	0.553779	0.000101
N29	N	1.485084	0.184790	0.356218
N30	N	1.485114	0.184798	-0.356018
C31	C	1.569751	0.100188	0.428150
C32	C	1.569763	0.100189	0.572032
C33	C	1.400439	0.269404	0.572040
C34	C	1.400421	0.269396	0.428160
H35	H	1.078576	0.395294	0.000070
H36	H	1.638705	0.031297	0.630595
H37	H	1.638687	0.031295	0.369578
H38	H	0.840895	0.388984	0.000109
H39	H	0.891602	-0.025693	0.000141
Cl40	Cl	1.481127	-0.463055	0.281353
H41	H	1.331509	0.338290	0.630629
H42	H	1.129309	-0.019401	0.000100
H43	H	1.488210	-0.196350	0.226158
H44	H	1.400077	-0.203415	-0.323644
H45	H	1.578465	-0.220130	-0.313025
Cl46	Cl	1.293969	0.375755	0.337723
Cl47	Cl	1.341972	-0.426377	-0.337331
H48	H	1.570178	-0.427008	-0.323621
