data_functionalizedCrystal
_audit_creation_method	'MofGen! by Chris Wilmer'
_symmetry_space_group_name_H-M	'P1'
_symmetry_Int_Tables_number	1
_symmetry_cell_setting	triclinic
loop_
_symmetry_equiv_pos_as_xyz
  x,y,z
_cell_length_a	13.635800
_cell_length_b	23.752966
_cell_length_c	12.908943
_cell_angle_alpha	83.495524
_cell_angle_beta	100.860631
_cell_angle_gamma	79.933465
loop_
_atom_site_label
_atom_site_type_symbol
_atom_site_fract_x
_atom_site_fract_y
_atom_site_fract_z
V1	V	1.989767	-0.078444	0.329268
O2	O	1.992634	0.004504	0.322391
O3	O	1.957358	-0.156249	0.327602
O4	O	1.959068	-0.076915	0.472606
O5	O	1.990912	-0.075378	0.176383
V6	V	2.233487	-0.068561	0.310911
O7	O	2.116101	-0.100125	0.369537
O8	O	2.332252	-0.046881	0.270642
O9	O	2.154293	0.009244	0.312577
O10	O	2.289319	-0.151510	0.317788
O11	O	2.291041	-0.071627	0.463796
O12	O	2.152583	-0.070090	0.167573
V13	V	2.489767	-0.078444	0.329268
O14	O	2.492634	0.004504	0.322391
O15	O	2.457358	-0.156249	0.327602
O16	O	2.459068	-0.076915	0.472606
O17	O	2.490912	-0.075378	0.176383
V18	V	2.733487	-0.068561	0.310911
O19	O	2.616101	-0.100125	0.369537
O20	O	2.832252	-0.046881	0.270642
O21	O	2.654293	0.009244	0.312577
O22	O	2.789319	-0.151510	0.317788
O23	O	2.791041	-0.071627	0.463796
O24	O	2.652583	-0.070090	0.167573
C25	C	1.878072	-0.175226	0.322559
C26	C	1.892174	-0.238830	0.322152
C27	C	2.070251	-0.636158	0.325025
C28	C	2.083517	-0.695922	0.324659
O29	O	2.167351	-0.729303	0.328998
N30	N	1.999647	-0.722910	0.319187
C31	C	1.902504	-0.690131	0.314092
O32	O	1.832384	-0.718574	0.309406
C33	C	1.889240	-0.630368	0.314466
C34	C	1.973116	-0.603383	0.319927
C35	C	2.154119	-0.609172	0.330487
C36	C	2.140852	-0.549411	0.330851
C37	C	2.043717	-0.516636	0.325753
C38	C	1.959849	-0.543622	0.320291
C39	C	1.792100	-0.597591	0.309379
C40	C	1.778843	-0.537824	0.309754
C41	C	1.862718	-0.510839	0.315215
C42	C	1.849447	-0.451086	0.315558
N43	N	1.933318	-0.424099	0.321029
C44	C	2.030453	-0.456874	0.326127
C45	C	1.930367	-0.815637	0.313310
C46	C	1.943629	-0.875398	0.312928
C47	C	2.124642	-0.881185	0.323496
C48	C	2.111378	-0.821423	0.323870
C49	C	2.014238	-0.788649	0.318781
C50	C	2.002585	-0.331372	0.326890
C51	C	1.989309	-0.271605	0.327250
C52	C	1.808299	-0.265824	0.316687
C53	C	1.821573	-0.325584	0.316322
C54	C	1.918724	-0.358358	0.321428
O55	O	1.765645	-0.417669	0.311226
O56	O	2.100561	-0.428424	0.330827
C57	C	1.880253	-0.074028	0.507525
C58	C	1.895741	-0.073292	0.624709
C59	C	2.065250	0.028218	0.317618
C60	C	2.040767	0.091821	0.318031
C61	C	2.063069	-0.072980	0.132649
C62	C	2.037201	-0.073712	0.015464
C63	C	2.378072	-0.175226	0.322559
C64	C	2.392174	-0.238830	0.322152
C65	C	2.380253	-0.074028	0.507525
C66	C	2.395741	-0.073292	0.624709
C67	C	2.105870	-0.077588	0.855687
C68	C	2.120427	-0.076897	0.965792
C69	C	1.939411	-0.071216	0.955023
C70	C	1.924854	-0.071907	0.844919
C71	C	2.008088	-0.075094	0.795255
C72	C	1.993531	-0.075788	0.685149
C73	C	1.812516	-0.070103	0.674382
C74	C	1.827072	-0.069412	0.784486
C75	C	2.565250	0.028218	0.317618
C76	C	2.540767	0.091821	0.318031
C77	C	2.563069	-0.072980	0.132649
C78	C	2.537201	-0.073712	0.015464
C79	C	2.489309	-0.271605	0.327250
C80	C	2.502576	-0.331370	0.326883
C81	C	2.418705	-0.358358	0.321412
C82	C	2.321563	-0.325578	0.316317
C83	C	2.308298	-0.265816	0.316691
C84	C	2.605870	-0.077588	0.855687
C85	C	2.620427	-0.076897	0.965792
C86	C	2.439411	-0.071216	0.955023
C87	C	2.424854	-0.071907	0.844919
C88	C	2.508088	-0.075094	0.795255
C89	C	2.493531	-0.075788	0.685149
C90	C	2.312516	-0.070103	0.674382
C91	C	2.327072	-0.069412	0.784486
C92	C	2.616126	0.124596	0.312937
C93	C	2.593130	0.184360	0.313308
C94	C	2.494778	0.211348	0.318782
C95	C	2.419413	0.178569	0.323874
C96	C	2.442407	0.118807	0.323495
H97	H	2.057615	-0.249636	0.331693
H98	H	1.851260	-0.788955	0.309158
F99	F	1.702821	-0.626297	0.303557
H100	H	2.429520	-0.407021	0.321108
H101	H	2.253280	-0.347561	0.311862
H102	H	2.179678	-0.799455	0.328315
F103	F	2.724498	-0.079551	1.030105
F104	F	1.708442	-0.067452	0.610058
H105	H	2.557611	-0.249639	0.331698
H106	H	2.476068	0.260011	0.319089
F107	F	2.314741	0.207300	0.329693
H108	H	2.081694	-0.358049	0.331049
H109	H	2.381038	0.092125	0.327653
H110	H	2.581680	-0.358050	0.331029
H111	H	2.673644	-0.080189	0.815252
F112	F	2.224498	-0.079551	1.030105
H113	H	2.061306	-0.078386	0.644716
F114	F	2.204909	-0.230939	0.311257
H115	H	1.699740	-0.511143	0.305615
H116	H	2.209156	-0.527446	0.335305
H117	H	2.371650	-0.068618	0.995478
F118	F	2.194453	-0.080987	0.802831
H119	H	2.233220	-0.635852	0.334642
F120	F	2.208442	-0.067452	0.610058
H121	H	2.203736	-0.907881	0.327639
H122	H	1.759309	-0.066816	0.824937
H123	H	1.753275	-0.347557	0.311882
F124	F	1.854352	-0.904109	0.307093
F125	F	2.720808	0.095885	0.307111
H126	H	1.729211	-0.239127	0.312531
F127	F	2.582115	-0.079182	0.632296
F128	F	2.673353	0.219235	0.307890
H129	H	1.871650	-0.068618	0.995478
H130	H	2.259309	-0.066816	0.824937
