data_functionalizedCrystal
_audit_creation_method	'MofGen! by Chris Wilmer'
_symmetry_space_group_name_H-M	'P1'
_symmetry_Int_Tables_number	1
_symmetry_cell_setting	triclinic
loop_
_symmetry_equiv_pos_as_xyz
  x,y,z
_cell_length_a	19.121242
_cell_length_b	19.121102
_cell_length_c	19.121063
_cell_angle_alpha	90.126902
_cell_angle_beta	85.049781
_cell_angle_gamma	94.784228
loop_
_atom_site_label
_atom_site_type_symbol
_atom_site_fract_x
_atom_site_fract_y
_atom_site_fract_z
Zn1	Zn	-0.457771	-1.078457	0.345224
Zn2	Zn	-0.344690	-1.068767	0.457443
Zn3	Zn	-0.334683	-0.956216	0.334774
Zn4	Zn	-0.457299	-0.956163	0.457393
O5	O	-0.398611	-1.014901	0.398709
O6	O	-0.447156	-1.175455	0.364504
O7	O	-0.244723	-1.049804	0.436818
O8	O	-0.347020	-0.976510	0.237880
O9	O	-0.364076	-1.168336	0.446951
O10	O	-0.437453	-1.066320	0.245557
O11	O	-0.237370	-0.967113	0.346693
O12	O	-0.346563	-0.857926	0.346646
O13	O	-0.556002	-0.976419	0.446867
O14	O	-0.436649	-0.857887	0.436734
O15	O	-0.556349	-1.066268	0.364456
O16	O	-0.363619	-1.049752	0.555717
O17	O	-0.446352	-0.967022	0.555681
C18	C	-0.390469	-0.832423	0.390551
C19	C	-0.387003	-0.754358	0.387079
C20	C	-0.406036	-1.007350	0.581183
C21	C	-0.409240	-1.004184	0.659251
C22	C	-0.582467	-1.022418	0.406822
C23	C	-0.660815	-1.025622	0.410279
C24	C	-1.104133	-1.045937	0.432224
C25	C	-1.030516	-1.042917	0.428971
C26	C	-0.989887	-0.998359	0.380418
C27	C	-1.022879	-0.956813	0.335121
C28	C	-1.096495	-0.959830	0.338378
C29	C	-0.767423	-0.987093	0.368239
C30	C	-0.693802	-0.984081	0.364984
C31	C	-0.701444	-1.070184	0.458835
C32	C	-0.775061	-1.073200	0.462085
C33	C	-0.808047	-1.031652	0.416790
C34	C	-0.914638	-0.995272	0.377090
C35	C	-0.883294	-1.034735	0.420122
C36	C	-0.215470	-1.007455	0.390578
C37	C	-0.137120	-1.004396	0.386929
C38	C	-0.406785	-1.198092	0.406899
C39	C	-0.410269	-1.276157	0.410389
C40	C	-0.432210	-0.717675	0.432416
C41	C	-0.428956	-0.644325	0.429144
C42	C	-0.380492	-0.607659	0.380538
C43	C	-0.335284	-0.644347	0.335196
C44	C	-0.338541	-0.717696	0.338465
C45	C	-0.368317	-0.386194	0.368315
C46	C	-0.365062	-0.312840	0.365051
C47	C	-0.458736	-0.312823	0.458999
C48	C	-0.461986	-0.386173	0.462267
C49	C	-0.416780	-0.422854	0.416922
C50	C	-0.377164	-0.532683	0.377194
C51	C	-0.420112	-0.497829	0.420263
C52	C	-0.391173	-1.022502	0.215523
C53	C	-0.388003	-1.025741	0.137460
C54	C	-0.367708	-1.045806	0.695926
C55	C	-0.370725	-1.042834	0.769279
C56	C	-0.415270	-0.998235	0.805955
C57	C	-0.456806	-0.956611	0.769275
C58	C	-0.453792	-0.959588	0.695924
C59	C	-0.426525	-0.987093	1.027429
C60	C	-0.429534	-0.984118	1.100785
C61	C	-0.343454	-1.070342	1.100784
C62	C	-0.340442	-1.073312	1.027431
C63	C	-0.381980	-1.031691	0.990757
C64	C	-0.418353	-0.995194	0.880933
C65	C	-0.378900	-1.034736	0.915781
H66	H	-1.003661	-1.076736	0.465863
H67	H	-1.137208	-1.082225	0.471758
O68	O	-0.477652	-0.604688	0.478042
H69	H	-0.445937	-0.568504	0.510782
H70	H	-0.881550	-0.958994	0.337558
O71	O	-0.979057	-0.908755	0.282753
H72	H	-1.014366	-0.880371	0.251807
H73	H	-0.325601	-0.282989	0.325463
H74	H	-0.674579	-1.104010	0.495712
O75	O	-0.472386	-0.537380	0.472678
H76	H	-0.461831	-0.520530	0.526620
O77	O	-1.132080	-0.915040	0.289512
H78	H	-1.165302	-0.879370	0.320823
H79	H	-0.331432	-1.082120	0.666068
H80	H	-0.501449	-0.416021	0.501848
H81	H	-0.660724	-0.947797	0.325441
H82	H	-0.454620	-0.958880	0.910803
H83	H	-0.471672	-0.747523	0.471999
H84	H	-0.916377	-1.071012	0.459655
O85	O	-0.289776	-0.757258	0.289566
H86	H	-0.321414	-0.793444	0.256760
H87	H	-0.808137	-1.109484	0.501622
H88	H	-0.794271	-0.953260	0.331358
O89	O	-0.507456	-0.273231	0.507915
H90	H	-0.498111	-0.284529	0.563099
O91	O	-0.324889	-0.493120	0.324785
H92	H	-0.335442	-0.509959	0.270840
O93	O	-0.325927	-1.087721	0.808838
H94	H	-0.294439	-1.119226	0.771011
H95	H	-0.331502	-0.416051	0.331398
H96	H	-0.304170	-1.109628	0.997570
H97	H	-0.295827	-0.614488	0.295617
H98	H	-0.309637	-1.104229	1.130651
H99	H	-0.465821	-0.947809	1.130646
H100	H	-0.460346	-0.953203	0.997575
O101	O	-0.504844	-0.908498	0.808827
H102	H	-0.499955	-0.913411	0.865994
O103	O	-0.498577	-0.914688	0.656361
H104	H	-0.530051	-0.883168	0.694185
O105	O	-0.330868	-1.082848	0.876224
H106	H	-0.292207	-1.051331	0.839859
