data_functionalizedCrystal
_audit_creation_method	'MofGen! by Chris Wilmer'
_symmetry_space_group_name_H-M	'P1'
_symmetry_Int_Tables_number	1
_symmetry_cell_setting	triclinic
loop_
_symmetry_equiv_pos_as_xyz
  x,y,z
_cell_length_a	16.974755
_cell_length_b	9.065218
_cell_length_c	8.140239
_cell_angle_alpha	90.004899
_cell_angle_beta	86.339599
_cell_angle_gamma	95.800260
loop_
_atom_site_label
_atom_site_type_symbol
_atom_site_fract_x
_atom_site_fract_y
_atom_site_fract_z
O1	O	0.115937	-1.957256	-0.152118
O2	O	0.125447	-1.527714	-0.153367
O3	O	0.005673	-1.754475	-0.137434
O4	O	0.235711	-1.730495	-0.168051
O5	O	0.005671	-1.754462	0.135793
O6	O	0.125445	-1.527701	0.119860
O7	O	0.115936	-1.957244	0.121110
Zn8	Zn	0.120690	-1.742470	0.163866
Zn9	Zn	0.120692	-1.742487	-0.196123
O10	O	0.235710	-1.730482	0.105177
C11	C	0.124532	-1.472745	-0.016630
C12	C	0.121799	-1.308977	-0.016261
C13	C	-0.023793	-1.753562	0.003098
C14	C	-0.111591	-1.750841	0.014773
N15	N	0.120689	-1.742470	0.409548
C16	C	-0.605791	-1.735394	0.096412
C17	C	-0.523296	-1.737964	0.085450
C18	C	-0.482041	-1.739267	-0.068971
C19	C	-0.523282	-1.737985	-0.212439
C20	C	-0.605774	-1.735404	-0.201475
C21	C	-0.235324	-1.746978	-0.117732
C22	C	-0.152827	-1.749564	-0.128684
C23	C	-0.152847	-1.749539	0.169206
C24	C	-0.235341	-1.746967	0.180156
C25	C	-0.276575	-1.745678	0.036688
N26	N	-0.397719	-1.741899	-0.080180
N27	N	-0.360895	-1.743035	0.047898
C28	C	0.265176	-1.731396	-0.035359
C29	C	0.352973	-1.734116	-0.047045
C30	C	0.116850	-1.012212	-0.015621
C31	C	0.119583	-1.175981	-0.015971
N32	N	0.120688	-1.742499	-0.441805
H33	H	-0.639376	-1.734338	0.222159
H34	H	-0.639347	-1.734356	-0.318294
H35	H	-0.119238	-1.750623	-0.254439
C36	C	-0.531607	-1.737761	0.380998
C37	C	-0.477973	-1.739417	0.243144
H38	H	-0.503626	-1.738678	0.478354
H39	H	-0.558352	-1.650762	0.378388
H40	H	-0.569210	-1.822739	0.379754
H41	H	-0.440373	-1.654433	0.244382
H42	H	-0.451215	-1.826425	0.245755
H43	H	-0.268926	-1.745913	0.305902
C44	C	-0.026400	-1.753471	0.284676
C45	C	-0.107519	-1.750937	0.326899
H46	H	0.001582	-1.754320	0.382036
H47	H	-0.018302	-1.839886	0.222425
H48	H	-0.007466	-1.667908	0.220952
H49	H	-0.126455	-1.836506	0.390613
H50	H	-0.115623	-1.664513	0.389177
C51	C	-0.320067	-1.617357	-0.279377
C52	C	-0.280627	-1.745594	-0.275452
H53	H	-0.348029	-1.616509	-0.376764
H54	H	-0.356455	-1.616211	-0.185879
H55	H	-0.282461	-1.532381	-0.278176
H56	H	-0.318234	-1.830570	-0.276640
H57	H	-0.244236	-1.746753	-0.368974
H58	H	-0.489685	-1.739039	-0.338172
