data_functionalizedCrystal
_audit_creation_method	'MofGen! by Chris Wilmer'
_symmetry_space_group_name_H-M	'P1'
_symmetry_Int_Tables_number	1
_symmetry_cell_setting	triclinic
loop_
_symmetry_equiv_pos_as_xyz
  x,y,z
_cell_length_a	10.654554
_cell_length_b	10.654551
_cell_length_c	9.482900
_cell_angle_alpha	99.428019
_cell_angle_beta	80.619028
_cell_angle_gamma	84.486102
loop_
_atom_site_label
_atom_site_type_symbol
_atom_site_fract_x
_atom_site_fract_y
_atom_site_fract_z
O1	O	1.687241	0.156934	-0.120893
O2	O	1.321764	0.173733	-0.120893
O3	O	1.512905	-0.017406	-0.120894
O4	O	1.496100	0.348073	-0.120892
O5	O	1.474081	0.021576	0.120899
O6	O	1.282940	0.212715	0.120899
O7	O	1.648418	0.195915	0.120900
Cu8	Cu	1.462134	0.207875	0.142977
Cu9	Cu	1.508047	0.161774	-0.142970
O10	O	1.457276	0.387054	0.120900
C11	C	1.255554	0.191990	0.000003
C12	C	1.116111	0.188295	0.000002
C13	C	0.933551	0.068807	-0.000010
C14	C	1.064571	0.072279	0.000000
C15	C	1.036622	0.300849	0.000009
C16	C	0.905603	0.297378	0.000009
C17	C	0.882021	-0.047219	-0.000027
C18	C	0.961501	-0.159774	-0.000031
C19	C	1.092521	-0.156302	-0.000021
C20	C	1.144060	-0.040276	-0.000006
C21	C	1.492260	-0.044713	-0.000001
C22	C	1.488569	-0.184158	-0.000010
C23	C	1.507999	-0.270919	-0.131809
C24	C	1.504518	-0.401938	-0.131802
C25	C	1.462179	-0.359423	0.131813
C26	C	1.465652	-0.228406	0.131805
C27	C	1.530916	-0.226671	-0.263624
C28	C	1.550349	-0.313434	-0.395434
C29	C	1.546868	-0.444453	-0.395427
C30	C	1.523953	-0.488710	-0.263611
C31	C	1.714628	0.177659	0.000001
C32	C	1.854072	0.181352	-0.000008
C33	C	1.477922	0.414362	0.000004
C34	C	1.481615	0.553805	0.000005
N35	N	1.429850	0.240299	0.344098
N36	N	1.540341	0.129340	-0.344091
C37	C	1.498516	0.171331	0.416297
C38	C	1.471665	0.198318	0.583714
H39	H	1.078597	0.395312	0.000019
C40	C	1.646651	0.022607	0.571998
H41	H	1.650773	0.018487	0.470483
H42	H	1.628114	-0.057303	0.596857
H43	H	1.726669	0.040819	0.596871
H44	H	1.577179	0.092301	0.354168
H45	H	1.568993	-0.277389	-0.502753
C46	C	1.365388	0.305082	0.667629
H47	H	1.361289	0.309221	0.769143
H48	H	1.285357	0.286921	0.642775
H49	H	1.383973	0.384981	0.642754
H50	H	0.775340	-0.050060	-0.000040
C51	C	0.904812	-0.287392	-0.000046
H52	H	0.815401	-0.273346	-0.000066
H53	H	0.918481	-0.320192	0.084270
H54	H	0.945572	-0.347368	-0.084377
C55	C	1.179945	-0.280103	-0.000023
H56	H	1.130487	-0.349697	-0.000045
H57	H	1.218099	-0.269916	0.084294
H58	H	1.245175	-0.297088	-0.084353
H59	H	1.250745	-0.037455	0.000016
H60	H	1.351178	0.319319	0.406228
C61	C	0.818174	0.421171	-0.000006
H62	H	0.867630	0.490765	-0.000020
H63	H	0.752940	0.438164	0.084309
H64	H	0.780030	0.410962	-0.084339
H65	H	1.562678	-0.515091	-0.502752
H66	H	1.443524	-0.395469	0.239131
C67	C	1.444281	-0.132965	0.276780
H68	H	1.430153	-0.178082	0.355285
H69	H	1.371648	-0.072033	0.282249
H70	H	1.517874	-0.089912	0.282256
C71	C	1.520090	-0.632824	-0.263605
H72	H	1.534939	-0.678160	-0.360980
H73	H	1.438371	-0.645649	-0.214924
H74	H	1.584597	-0.663576	-0.214927
H75	H	1.533756	-0.119992	-0.263645
