data_functionalizedCrystal
_audit_creation_method	'MofGen! by Chris Wilmer'
_symmetry_space_group_name_H-M	'P1'
_symmetry_Int_Tables_number	1
_symmetry_cell_setting	triclinic
loop_
_symmetry_equiv_pos_as_xyz
  x,y,z
_cell_length_a	15.944551
_cell_length_b	16.109301
_cell_length_c	14.586319
_cell_angle_alpha	89.998582
_cell_angle_beta	89.994700
_cell_angle_gamma	83.480109
loop_
_atom_site_label
_atom_site_type_symbol
_atom_site_fract_x
_atom_site_fract_y
_atom_site_fract_z
O1	O	-0.107967	-1.103166	0.076184
O2	O	-0.121403	-0.861109	0.076199
O3	O	0.007592	-0.988748	0.076183
O4	O	-0.236962	-0.975528	0.076200
O5	O	0.007595	-0.988737	-0.076298
O6	O	-0.121400	-0.861099	-0.076282
O7	O	-0.107964	-1.103156	-0.076296
Cu8	Cu	-0.114682	-0.982126	-0.090212
Cu9	Cu	-0.114685	-0.982139	0.090114
O10	O	-0.236959	-0.975517	-0.076280
C11	C	-0.120857	-0.830129	-0.000039
C12	C	-0.119226	-0.737833	-0.000034
C13	C	0.038887	-0.988194	-0.000057
C14	C	0.132133	-0.986548	-0.000058
C15	C	-0.268254	-0.976071	-0.000038
C16	C	-0.361500	-0.977717	-0.000031
C17	C	0.346962	-0.903499	-0.000040
C18	C	0.407994	-0.942059	-0.075225
C19	C	0.302858	-0.983572	-0.000051
C20	C	0.407974	-0.942088	0.075109
C21	C	0.467769	-0.980691	-0.000040
C22	C	0.362661	-1.022154	-0.075297
C23	C	0.362635	-1.022172	0.075104
C24	C	0.423649	-1.060790	-0.000099
C25	C	0.207856	-0.985229	-0.000058
C26	C	0.562770	-0.979039	-0.000039
C27	C	-0.108510	-1.134136	-0.000056
C28	C	-0.110141	-1.226432	-0.000055
N29	N	-0.114679	-0.982124	-0.217044
C30	C	-0.191975	-0.515584	-0.000040
C31	C	-0.190435	-0.428863	-0.000046
C32	C	-0.037387	-0.448688	-0.000053
C33	C	-0.038927	-0.535407	-0.000053
C34	C	-0.116224	-0.568853	-0.000042
C35	C	-0.113143	-0.395412	-0.000047
C36	C	-0.111473	-0.301386	-0.000054
C37	C	-0.117894	-0.662885	-0.000037
C38	C	-0.057578	-1.038665	-0.548044
C39	C	-0.057579	-1.038662	-0.452063
C40	C	-0.171788	-0.925604	-0.452060
C41	C	-0.171791	-0.925611	-0.548039
C42	C	-0.114681	-0.982140	-0.596029
C43	C	-0.114679	-0.982131	-0.404068
C44	C	-0.114680	-0.982129	-0.300001
C45	C	-0.114681	-0.982144	-0.700103
N46	N	-0.114682	-0.982148	0.216946
H47	H	0.313632	-0.837035	-0.000111
Cl48	Cl	0.439025	-0.889766	-0.173355
Cl49	Cl	0.056311	-0.602379	-0.000064
Cl50	Cl	0.331822	-1.074395	-0.173541
H51	H	0.456830	-1.127313	-0.000145
H52	H	-0.252119	-0.385495	-0.000045
H53	H	-0.218284	-0.879579	-0.412977
H54	H	0.342515	-1.056015	0.138666
H55	H	0.428038	-0.908215	0.138677
Cl56	Cl	0.014209	-1.109726	-0.391742
Cl57	Cl	-0.289147	-0.557627	-0.000031
H58	H	-0.011077	-1.084695	-0.587116
Cl59	Cl	-0.243587	-0.854550	-0.608369
H60	H	0.025546	-0.421446	-0.000067
