data_functionalizedCrystal
_audit_creation_method	'MofGen! by Chris Wilmer'
_symmetry_space_group_name_H-M	'P1'
_symmetry_Int_Tables_number	1
_symmetry_cell_setting	triclinic
loop_
_symmetry_equiv_pos_as_xyz
  x,y,z
_cell_length_a	29.839135
_cell_length_b	29.839131
_cell_length_c	13.897441
_cell_angle_alpha	90.042797
_cell_angle_beta	90.025123
_cell_angle_gamma	90.037758
loop_
_atom_site_label
_atom_site_type_symbol
_atom_site_fract_x
_atom_site_fract_y
_atom_site_fract_z
Zn1	Zn	0.686782	-0.178809	0.545412
Zn2	Zn	0.686709	-0.253944	0.384079
Zn3	Zn	0.611652	-0.178832	0.384118
Zn4	Zn	0.611620	-0.253916	0.545320
O5	O	0.649191	-0.216375	0.464732
O6	O	0.749639	-0.188777	0.524034
O7	O	0.676736	-0.244001	0.249103
O8	O	0.621661	-0.115961	0.405570
O9	O	0.749586	-0.243979	0.405503
O10	O	0.676859	-0.115945	0.524072
O11	O	0.621591	-0.188817	0.249132
O12	O	0.548781	-0.188790	0.405480
O13	O	0.621608	-0.243931	0.680314
O14	O	0.548757	-0.243954	0.523913
O15	O	0.676829	-0.188750	0.680382
O16	O	0.676705	-0.316807	0.405413
O17	O	0.621538	-0.316787	0.523876
C18	C	0.532468	-0.216371	0.464691
C19	C	0.482534	-0.216381	0.464697
C20	C	0.649122	-0.333098	0.464651
C21	C	0.649134	-0.383032	0.464649
C22	C	0.172915	-0.187675	0.526542
C23	C	-0.014758	-0.187678	0.526570
O24	O	-0.039002	-0.163261	0.579107
N25	N	-0.038251	-0.216375	0.464768
C26	C	-0.014823	-0.245072	0.402950
O27	O	-0.039112	-0.269477	0.350378
C28	C	0.172849	-0.245066	0.402919
C29	C	0.196340	-0.216370	0.464731
C30	C	0.196406	-0.158981	0.588349
C31	C	0.243322	-0.158983	0.588345
C32	C	0.266746	-0.187678	0.526535
C33	C	0.243255	-0.216371	0.464728
C34	C	0.196276	-0.273760	0.341097
C35	C	0.243197	-0.273755	0.341093
C36	C	0.266688	-0.245059	0.402906
C37	C	0.313595	-0.245068	0.402913
N38	N	0.337088	-0.216371	0.464715
C39	C	0.313664	-0.187676	0.526526
C40	C	-0.113354	-0.245073	0.402973
C41	C	-0.160272	-0.245075	0.402981
C42	C	-0.160203	-0.187681	0.526600
C43	C	-0.113284	-0.187682	0.526595
C44	C	-0.089861	-0.216376	0.464774
C45	C	0.412190	-0.187681	0.526514
C46	C	0.459109	-0.187686	0.526507
C47	C	0.459036	-0.245078	0.402886
C48	C	0.412121	-0.245075	0.402895
C49	C	0.388699	-0.216372	0.464713
O50	O	0.337868	-0.269468	0.350395
O51	O	0.337961	-0.163267	0.579075
C52	C	0.126000	-0.187674	0.526546
C53	C	0.102509	-0.216368	0.464739
C54	C	0.125933	-0.245063	0.402928
C55	C	0.055591	-0.216370	0.464748
C56	C	0.032166	-0.187675	0.526559
C57	C	0.055660	-0.158978	0.588361
C58	C	0.102575	-0.158979	0.588357
C59	C	0.102440	-0.273760	0.341126
C60	C	0.055524	-0.273757	0.341136
C61	C	0.032100	-0.245062	0.402947
C62	C	0.677926	-0.692632	0.526524
C63	C	0.677975	-0.880305	0.526582
O64	O	0.702387	-0.904532	0.579131
N65	N	0.649267	-0.903817	0.464840
C66	C	0.620543	-0.880408	0.403082
O67	O	0.596124	-0.904713	0.350575
C68	C	0.620493	-0.692736	0.403030
C69	C	0.649205	-0.669226	0.464770
C70	C	0.706636	-0.669122	0.588260
C71	C	0.706625	-0.622206	0.588241
C72	C	0.677904	-0.598801	0.526487
C73	C	0.649194	-0.622311	0.464751
C74	C	0.591767	-0.669328	0.341278
C75	C	0.591756	-0.622407	0.341272
C76	C	0.620468	-0.598897	0.403012
C77	C	0.620463	-0.551990	0.402978
N78	N	0.649171	-0.528477	0.464721
C79	C	0.677891	-0.551883	0.526475
C80	C	0.620572	-0.978939	0.403113
C81	C	0.620586	-1.025857	0.403124
C82	C	0.678017	-1.025750	0.526626
C83	C	0.678005	-0.978831	0.526609
C84	C	0.649280	-0.955426	0.464856
C85	C	0.677867	-0.453357	0.526430
C86	C	0.677855	-0.406437	0.526403
C87	C	0.620422	-0.406548	0.402906
C88	C	0.620436	-0.453464	0.402929
C89	C	0.649160	-0.476867	0.464699
O90	O	0.596059	-0.527733	0.350464
O91	O	0.702300	-0.527570	0.578990
C92	C	0.677937	-0.739547	0.526543
C93	C	0.649227	-0.763057	0.464808
C94	C	0.620506	-0.739651	0.403053
C95	C	0.649240	-0.809975	0.464819
C96	C	0.677961	-0.833380	0.526574
C97	C	0.706668	-0.809868	0.588317
C98	C	0.706657	-0.762953	0.588298
C99	C	0.591798	-0.763164	0.341310
C100	C	0.591812	-0.810079	0.341333
C101	C	0.620533	-0.833485	0.403088
C102	C	0.766369	-0.216379	0.464774
C103	C	0.816304	-0.216380	0.464792
C104	C	0.649223	-0.216335	0.716326
C105	C	0.649236	-0.216318	0.823540
C106	C	0.649272	-0.099197	0.464835
C107	C	0.649306	-0.049262	0.464879
C108	C	0.649185	-0.216382	0.214118
C109	C	0.649258	-0.216272	0.106905
C110	C	0.649248	-0.216288	1.019835
C111	C	0.649240	-0.216306	0.910602
H112	H	0.478234	-0.164318	0.576846
F113	F	0.708438	-0.478258	0.592172
F114	F	-0.185141	-0.157141	0.592383
H115	H	0.177157	-0.297127	0.290761
F116	F	0.561205	-0.694339	0.275567
F117	F	0.561181	-0.597501	0.275545
F118	F	0.483975	-0.275617	0.337107
H119	H	0.597059	-0.472607	0.352647
H120	H	0.121697	-0.135611	0.638691
H121	H	0.597180	-0.959886	0.352824
H122	H	0.393125	-0.164307	0.576848
H123	H	0.262444	-0.135615	0.638678
H124	H	-0.179394	-0.268447	0.352658
F125	F	0.708417	-0.381419	0.592116
F126	F	0.171483	-0.128437	0.654142
F127	F	0.708565	-0.953814	0.592321
H128	H	0.730004	-0.603067	0.638518
F129	F	0.589858	-0.381630	0.337184
H130	H	0.036579	-0.135614	0.638692
H131	H	0.036402	-0.297129	0.290802
F132	F	-0.088288	-0.157139	0.592383
H133	H	0.730024	-0.688173	0.638554
H134	H	0.121507	-0.297127	0.290790
H135	H	-0.094287	-0.268441	0.352628
F136	F	0.737217	-0.737937	0.654012
H137	H	0.568410	-0.744111	0.291023
H138	H	0.701403	-1.044815	0.576908
F139	F	0.268123	-0.304297	0.275294
H140	H	0.730055	-0.828933	0.638596
H141	H	0.597210	-1.044994	0.352839
H142	H	0.392994	-0.268446	0.352573
H143	H	0.568431	-0.829217	0.291048
