data_functionalizedCrystal
_audit_creation_method	'MofGen! by Chris Wilmer'
_symmetry_space_group_name_H-M	'P1'
_symmetry_Int_Tables_number	1
_symmetry_cell_setting	triclinic
loop_
_symmetry_equiv_pos_as_xyz
  x,y,z
_cell_length_a	8.634740
_cell_length_b	10.489746
_cell_length_c	7.088929
_cell_angle_alpha	83.712230
_cell_angle_beta	97.174675
_cell_angle_gamma	92.555804
loop_
_atom_site_label
_atom_site_type_symbol
_atom_site_fract_x
_atom_site_fract_y
_atom_site_fract_z
O1	O	2.034988	0.427608	-0.159003
O2	O	1.585647	0.392689	-0.159004
O3	O	1.820539	0.225729	-0.158989
O4	O	1.800096	0.594569	-0.159018
O5	O	1.851929	0.203357	0.158988
O6	O	1.617037	0.370317	0.158973
O7	O	2.066378	0.405236	0.158974
Cu8	Cu	1.844574	0.385734	0.188007
Cu9	Cu	1.807451	0.412191	-0.188037
O10	O	1.831486	0.572197	0.158959
C11	C	1.543804	0.373593	-0.000016
C12	C	1.372358	0.350007	-0.000016
C13	C	1.834689	0.166833	-0.000001
C14	C	1.830065	0.024671	-0.000002
C15	C	1.677871	-0.145734	-0.000026
C16	C	1.738484	-0.048538	-0.156802
C17	C	1.769468	-0.070632	0.156699
C18	C	1.882499	-0.131412	-0.156949
C19	C	1.913476	-0.153523	0.156692
C20	C	1.974191	-0.056361	-0.000121
C21	C	2.108221	0.424333	-0.000019
C22	C	2.279665	0.447920	-0.000031
C23	C	1.817336	0.631093	-0.000033
C24	C	1.821959	0.773256	-0.000044
N25	N	1.870695	0.367126	0.452497
N26	N	1.781342	0.430791	-0.452527
H27	H	1.331470	0.549790	-0.000021
H28	H	1.664572	-0.002751	-0.289347
C29	C	1.422035	0.126607	0.000008
C30	C	1.302434	0.212471	-0.000011
H31	H	1.378864	0.041701	0.000023
H32	H	1.473225	0.147735	-0.110867
H33	H	1.495115	0.132141	0.110905
H34	H	1.229359	0.206945	-0.110916
H35	H	1.251219	0.191337	0.110875
C36	C	1.687400	0.645159	0.485481
C37	C	1.656321	0.519853	0.437256
H38	H	1.610220	0.700143	0.417418
H39	H	1.685617	0.646425	0.618960
H40	H	1.787436	0.673896	0.452739
H41	H	1.556289	0.491112	0.470011
H42	H	1.658089	0.518582	0.303747
H43	H	1.552564	-0.184889	-0.000183
C44	C	1.941889	-0.301475	-0.334536
C45	C	1.946860	-0.167761	-0.336095
H46	H	1.981609	-0.323914	-0.445140
H47	H	2.003681	-0.338368	-0.223359
H48	H	1.836996	-0.332822	-0.334082
H49	H	2.051755	-0.136415	-0.336534
H50	H	1.885068	-0.130854	-0.447301
C51	C	2.202312	-0.034274	-0.164494
C52	C	2.143449	-0.003802	-0.000211
H53	H	2.306802	-0.001823	-0.164552
H54	H	2.200161	-0.124804	-0.165546
H55	H	2.139904	0.003160	-0.274801
H56	H	2.205851	-0.041244	0.110097
H57	H	2.145611	0.086746	0.000858
H58	H	1.987334	-0.199340	0.289243
H59	H	1.721698	-0.043529	0.289241
H60	H	1.963317	0.301158	0.534159
