data_functionalizedCrystal
_audit_creation_method	'MofGen! by Chris Wilmer'
_symmetry_space_group_name_H-M	'P1'
_symmetry_Int_Tables_number	1
_symmetry_cell_setting	triclinic
loop_
_symmetry_equiv_pos_as_xyz
  x,y,z
_cell_length_a	11.169416
_cell_length_b	29.839135
_cell_length_c	11.169409
_cell_angle_alpha	90.026405
_cell_angle_beta	89.970483
_cell_angle_gamma	89.993231
loop_
_atom_site_label
_atom_site_type_symbol
_atom_site_fract_x
_atom_site_fract_y
_atom_site_fract_z
Zn1	Zn	0.477629	0.686884	0.678777
Zn2	Zn	0.678369	0.686851	0.478104
Zn3	Zn	0.477708	0.611753	0.478088
Zn4	Zn	0.678277	0.611763	0.678726
O5	O	0.577996	0.649313	0.578424
O6	O	0.504263	0.749747	0.652185
O7	O	0.651823	0.676870	0.310152
O8	O	0.309748	0.621728	0.504725
O9	O	0.651746	0.749722	0.504752
O10	O	0.309690	0.676927	0.652170
O11	O	0.504397	0.621696	0.310141
O12	O	0.504308	0.548887	0.504675
O13	O	0.651589	0.621747	0.846682
O14	O	0.651666	0.548895	0.652083
O15	O	0.504174	0.676938	0.846720
O16	O	0.846307	0.676881	0.504702
O17	O	0.846239	0.621714	0.652098
C18	C	0.577987	0.532590	0.578373
C19	C	0.578012	0.482656	0.578379
C20	C	0.264953	0.649330	0.578452
C21	C	0.131553	0.649338	0.578464
C22	C	0.501318	0.173022	0.655306
C23	C	0.501326	-0.014651	0.655340
O24	O	0.436091	-0.038907	0.720689
N25	N	0.577997	-0.038129	0.578468
C26	C	0.654666	-0.014687	0.501576
O27	O	0.719871	-0.038963	0.436184
C28	C	0.654651	0.172986	0.501537
C29	C	0.577983	0.196462	0.578423
C30	C	0.424655	0.196498	0.732184
C31	C	0.424659	0.243414	0.732179
C32	C	0.501324	0.266853	0.655296
C33	C	0.577987	0.243377	0.578418
C34	C	0.731313	0.196427	0.424640
C35	C	0.731300	0.243348	0.424635
C36	C	0.654633	0.266824	0.501521
C37	C	0.654656	0.313732	0.501530
N38	N	0.577984	0.337210	0.578402
C39	C	0.501319	0.313771	0.655285
C40	C	0.654670	-0.113217	0.501604
C41	C	0.654676	-0.160135	0.501615
C42	C	0.501334	-0.160096	0.655377
C43	C	0.501335	-0.113177	0.655371
C44	C	0.577999	-0.089739	0.578476
C45	C	0.501332	0.412297	0.655270
C46	C	0.501346	0.459216	0.655262
C47	C	0.654683	0.459173	0.501496
C48	C	0.654674	0.412258	0.501508
C49	C	0.577989	0.388821	0.578399
O50	O	0.719847	0.338017	0.436206
O51	O	0.436105	0.338055	0.720649
C52	C	0.501314	0.126107	0.655310
C53	C	0.577977	0.102631	0.578432
C54	C	0.654642	0.126070	0.501549
C55	C	0.577982	0.055713	0.578443
C56	C	0.501316	0.032273	0.655326
C57	C	0.424645	0.055752	0.732198
C58	C	0.424649	0.102667	0.732193
C59	C	0.731313	0.102592	0.424677
C60	C	0.731305	0.055676	0.424689
C61	C	0.654639	0.032237	0.501572
C62	C	0.889820	0.649307	0.578422
C63	C	1.023220	0.649346	0.578461
C64	C	0.577863	0.649347	0.891466
C65	C	0.577806	0.649362	1.024866
C66	C	0.578006	0.766491	0.578476
C67	C	0.578010	0.816425	0.578498
C68	C	0.578042	0.649304	0.266599
C69	C	0.577761	0.649377	0.133200
H70	H	0.438913	0.478328	0.717876
C71	C	0.416981	0.386523	0.739861
N72	N	0.353455	0.367110	0.803582
H73	H	0.438903	-0.094066	0.717976
H74	H	0.717117	0.393143	0.438915
H75	H	0.362226	0.262524	0.794786
C76	C	0.416993	-0.185888	0.739942
N77	N	0.353464	-0.205317	0.803625
H78	H	0.717120	-0.179245	0.439021
H79	H	0.717105	0.478266	0.438902
C80	C	0.340298	0.128485	0.816765
N81	N	0.276757	0.147928	0.880465
H82	H	0.717103	-0.094138	0.438983
C83	C	0.815639	0.170614	0.340042
N84	N	0.879152	0.151172	0.276312
H85	H	0.362225	0.036659	0.794803
C86	C	0.815643	0.269128	0.340045
N87	N	0.879173	0.288544	0.276336
C88	C	0.815647	0.029858	0.340098
N89	N	0.879162	0.010413	0.276376
H90	H	0.362218	0.177419	0.794792
H91	H	0.793744	0.121671	0.362066
