data_functionalizedCrystal
_audit_creation_method	'MofGen! by Chris Wilmer'
_symmetry_space_group_name_H-M	'P1'
_symmetry_Int_Tables_number	1
_symmetry_cell_setting	triclinic
loop_
_symmetry_equiv_pos_as_xyz
  x,y,z
_cell_length_a	12.645330
_cell_length_b	12.759401
_cell_length_c	12.759393
_cell_angle_alpha	90.018496
_cell_angle_beta	89.969952
_cell_angle_gamma	89.982147
loop_
_atom_site_label
_atom_site_type_symbol
_atom_site_fract_x
_atom_site_fract_y
_atom_site_fract_z
Zn1	Zn	-0.421972	-1.606234	-0.593992
Zn2	Zn	-0.599276	-1.606119	-0.418317
Zn3	Zn	-0.422028	-1.430536	-0.418332
Zn4	Zn	-0.599195	-1.430515	-0.593959
O5	O	-0.510618	-1.518351	-0.506150
O6	O	-0.445503	-1.753239	-0.570697
O7	O	-0.575821	-1.582788	-0.271298
O8	O	-0.273673	-1.453899	-0.441654
O9	O	-0.575767	-1.753155	-0.441629
O10	O	-0.273632	-1.582983	-0.570711
O11	O	-0.445598	-1.453788	-0.271309
O12	O	-0.445518	-1.283512	-0.441621
O13	O	-0.575628	-1.453864	-0.740984
O14	O	-0.575682	-1.283497	-0.570653
O15	O	-0.445424	-1.582964	-0.741009
O16	O	-0.747613	-1.582768	-0.441596
O17	O	-0.747553	-1.453753	-0.570639
C18	C	-0.510598	-1.245383	-0.506136
C19	C	-0.510615	-1.128607	-0.506155
C20	C	-0.786048	-1.518274	-0.506135
C21	C	-0.903878	-1.518337	-0.506164
C22	C	-0.510511	-1.518424	-0.780183
C23	C	-0.510465	-1.518456	-0.896960
C24	C	-1.071448	-1.437509	-0.587595
C25	C	-0.948888	-1.437095	-0.587334
C26	C	-0.948482	-1.488364	-0.395443
C27	C	-1.071080	-1.487871	-0.395937
C28	C	-1.070964	-1.629634	-0.534556
C29	C	-0.948357	-1.628952	-0.536977
C30	C	-0.234112	-1.518456	-0.506188
C31	C	-0.116282	-1.518501	-0.506204
C32	C	-0.510638	-1.792384	-0.506165
C33	C	-0.510647	-1.909161	-0.506171
C34	C	-0.578500	-1.073764	-0.573231
C35	C	-0.578514	-0.964040	-0.573242
C36	C	-0.442755	-0.964011	-0.439092
C37	C	-0.442737	-1.073733	-0.439087
C38	C	-0.646379	-1.128638	-0.640298
C39	C	-0.714270	-1.073796	-0.707379
C40	C	-0.714284	-0.964072	-0.707390
C41	C	-0.646406	-0.909190	-0.640321
C42	C	-0.442661	-1.585687	-0.951837
C43	C	-0.442623	-1.585712	-1.061561
C44	C	-0.578202	-1.451271	-1.061522
C45	C	-0.578234	-1.451242	-0.951800
C46	C	-0.374893	-1.652901	-0.896997
C47	C	-0.307084	-1.720139	-0.951874
C48	C	-0.307046	-1.720164	-1.061598
C49	C	-0.374816	-1.652951	-1.116445
C50	C	-0.510648	-1.518338	-0.233183
C51	C	-0.510395	-1.518510	-0.116407
H52	H	-1.100852	-1.456089	-0.669964
H53	H	-1.099774	-1.406632	-0.371918
H54	H	-0.251825	-1.774904	-1.106276
O55	O	-0.908932	-1.461931	-0.696084
H56	H	-0.821157	-1.461663	-0.696006
O57	O	-0.787615	-0.904914	-0.779624
H58	H	-0.834855	-0.961509	-0.826210
O59	O	-1.112359	-1.329048	-0.563034
H60	H	-1.164484	-1.332576	-0.493107
H61	H	-0.919656	-1.354706	-0.568550
H62	H	-1.100743	-1.544302	-0.333226
O63	O	-0.909868	-1.564015	-0.312907
H64	H	-0.858349	-1.623920	-0.350016
O65	O	-1.111794	-1.665848	-0.639692
H66	H	-1.156336	-1.740120	-0.629682
H67	H	-0.917873	-1.407972	-0.370989
H68	H	-0.633377	-1.396549	-1.106188
O69	O	-0.374778	-1.652972	-1.234792
H70	H	-0.316246	-1.711017	-1.263740
H71	H	-0.919199	-1.651556	-0.618463
O72	O	-0.907793	-1.713080	-0.464137
H73	H	-0.820153	-1.715793	-0.468205
O74	O	-1.109604	-1.709625	-0.456210
H75	H	-1.160806	-1.670481	-0.397338
O76	O	-0.651361	-1.378729	-0.892599
H77	H	-0.698490	-1.332006	-0.949164
H78	H	-0.646413	-0.819845	-0.640345
O79	O	-0.369576	-0.904825	-0.366727
H80	H	-0.381009	-0.819314	-0.377985
H81	H	-0.769527	-1.118488	-0.761990
O82	O	-0.646367	-1.246983	-0.640278
H83	H	-0.704968	-1.275929	-0.698183
O84	O	-0.369530	-1.132897	-0.366734
H85	H	-0.322346	-1.076308	-0.320085
H86	H	-0.374919	-1.652890	-0.807654
H87	H	-0.251901	-1.774854	-0.907210
