data_functionalizedCrystal
_audit_creation_method	'MofGen! by Chris Wilmer'
_symmetry_space_group_name_H-M	'P1'
_symmetry_Int_Tables_number	1
_symmetry_cell_setting	triclinic
loop_
_symmetry_equiv_pos_as_xyz
  x,y,z
_cell_length_a	27.731994
_cell_length_b	26.809956
_cell_length_c	10.654550
_cell_angle_alpha	90.004547
_cell_angle_beta	96.447268
_cell_angle_gamma	90.002666
loop_
_atom_site_label
_atom_site_type_symbol
_atom_site_fract_x
_atom_site_fract_y
_atom_site_fract_z
O1	O	0.641877	0.041408	-0.149074
O2	O	0.501221	0.041425	-0.171864
O3	O	0.574783	0.041413	0.022408
O4	O	0.568315	0.041420	-0.343346
O5	O	0.574769	-0.041546	0.022378
O6	O	0.501207	-0.041534	-0.171894
O7	O	0.641863	-0.041551	-0.149104
Zn8	Zn	0.571533	-0.054714	-0.160503
Zn9	Zn	0.571551	0.054588	-0.160464
O10	O	0.568301	-0.041539	-0.343376
C11	C	0.483204	-0.000053	-0.171411
C12	C	0.429539	-0.000046	-0.170002
C13	C	0.096758	-0.045287	-0.161145
C14	C	-0.104934	-0.045293	-0.155789
O15	O	-0.131018	-0.083751	-0.155057
N16	N	-0.130145	-0.000072	-0.155108
C17	C	-0.104930	0.045154	-0.155758
O18	O	-0.131001	0.083617	-0.155042
C19	C	0.096761	0.045159	-0.161104
C20	C	0.121969	-0.000065	-0.161798
C21	C	0.121966	-0.090507	-0.161838
C22	C	0.172385	-0.090505	-0.163183
C23	C	0.197597	-0.045283	-0.163837
C24	C	0.172388	-0.000063	-0.163144
C25	C	0.121975	0.090385	-0.161745
C26	C	0.172401	0.090382	-0.163078
C27	C	0.197609	0.045158	-0.163772
C28	C	0.248019	0.045161	-0.165143
N29	N	0.273231	-0.000060	-0.165824
C30	C	0.248019	-0.045282	-0.165171
C31	C	-0.210821	0.045148	-0.152953
C32	C	-0.261244	0.045147	-0.151619
C33	C	-0.261244	-0.045300	-0.151648
C34	C	-0.210821	-0.045298	-0.152992
C35	C	-0.185610	-0.000073	-0.153634
C36	C	0.353904	-0.045274	-0.167998
C37	C	0.404328	-0.045268	-0.169349
C38	C	0.404324	0.045178	-0.169313
C39	C	0.353904	0.045173	-0.167969
C40	C	0.328696	-0.000058	-0.167307
O41	O	0.274135	0.083600	-0.165862
O42	O	0.274101	-0.083739	-0.165858
C43	C	0.046338	-0.045289	-0.159799
C44	C	0.021130	-0.000068	-0.159107
C45	C	0.046341	0.045154	-0.159760
C46	C	-0.029293	-0.000070	-0.157772
C47	C	-0.054504	-0.045292	-0.157119
C48	C	-0.029293	-0.090513	-0.157801
C49	C	0.021127	-0.090511	-0.159146
C50	C	0.021130	0.090375	-0.159079
C51	C	-0.029290	0.090369	-0.157734
C52	C	-0.054501	0.045147	-0.157081
N53	N	0.571524	-0.129310	-0.160529
C54	C	0.604120	-0.473941	-0.074462
C55	C	0.604131	-0.682819	-0.074443
O56	O	0.631826	-0.709827	-0.001273
N57	N	0.571554	-0.708937	-0.160437
C58	C	0.538969	-0.682833	-0.246436
O59	O	0.511256	-0.709841	-0.319570
C60	C	0.538955	-0.473956	-0.246449
C61	C	0.571539	-0.447841	-0.160457
C62	C	0.636700	-0.447826	0.011523
C63	C	0.636699	-0.395610	0.011513
C64	C	0.604117	-0.369509	-0.074483
C65	C	0.571537	-0.395624	-0.160468
C66	C	0.506368	-0.447852	-0.332441
C67	C	0.506367	-0.395630	-0.332434
C68	C	0.538950	-0.369514	-0.246443
C69	C	0.538954	-0.317307	-0.246473
N70	N	0.571532	-0.291189	-0.160479
C71	C	0.604114	-0.317290	-0.074484
C72	C	0.538979	-0.792496	-0.246425
C73	C	0.538982	-0.844715	-0.246424
C74	C	0.604145	-0.844698	-0.074429
C75	C	0.604143	-0.792478	-0.074437
C76	C	0.571556	-0.766378	-0.160431
C77	C	0.604108	-0.207632	-0.074513
C78	C	0.604105	-0.155411	-0.074534
C79	C	0.538942	-0.155433	-0.246524
C80	C	0.538946	-0.207649	-0.246508
C81	C	0.571531	-0.233747	-0.160492
O82	O	0.511270	-0.290267	-0.319595
O83	O	0.631815	-0.290273	-0.001342
C84	C	0.604122	-0.526158	-0.074452
C85	C	0.571541	-0.552273	-0.160437
C86	C	0.538960	-0.526172	-0.246432
C87	C	0.571545	-0.604492	-0.160436
C88	C	0.604127	-0.630593	-0.074440
C89	C	0.636705	-0.604475	0.011554
C90	C	0.636703	-0.552258	0.011544
C91	C	0.506382	-0.552290	-0.332426
C92	C	0.506386	-0.604507	-0.332410
C93	C	0.538968	-0.630608	-0.246415
C94	C	0.659880	-0.000072	-0.149557
C95	C	0.713545	-0.000075	-0.150966
C96	C	0.574301	-0.000066	0.069171
C97	C	0.572880	-0.000065	0.208553
N98	N	0.571564	0.129184	-0.160429
C99	C	0.568783	-0.000059	-0.390139
C100	C	0.570204	-0.000056	-0.529521
C101	C	0.616192	-0.000070	0.289882
C102	C	0.614854	-0.000064	0.420846
C103	C	0.526889	-0.000050	0.389140
C104	C	0.528227	-0.000053	0.258179
H105	H	-0.190299	-0.082124	-0.153558
H106	H	0.663236	-0.625735	0.081571
N107	N	0.199566	-0.139286	-0.163926
H108	H	0.194446	-0.159054	-0.085825
H109	H	0.235325	-0.132392	-0.164922
N110	N	0.326721	-0.094058	-0.167282
H111	H	0.350387	-0.122699	-0.167069
H112	H	0.302365	-0.096177	-0.245034
H113	H	0.630675	-0.865958	-0.004409
H114	H	0.512442	-0.771249	-0.316455
N115	N	0.478730	-0.000046	0.442670
H116	H	0.451495	-0.000043	0.371273
H117	H	0.476263	0.030708	0.496324
N118	N	-0.056493	-0.139287	-0.157087
H119	H	-0.044522	-0.158756	-0.078578
H120	H	-0.050837	-0.159318	-0.234372
N121	N	0.661568	-0.000075	0.508568
H122	H	0.662983	0.030679	0.563614
H123	H	0.690030	-0.000103	0.457168
N124	N	0.671840	-0.367446	0.104266
H125	H	0.692477	-0.391911	0.158740
H126	H	0.653151	-0.345781	0.159444
N127	N	0.471217	-0.367479	-0.425182
H128	H	0.450578	-0.391951	-0.479649
H129	H	0.489901	-0.345815	-0.480368
N130	N	0.639280	-0.764306	0.018311
H131	H	0.673632	-0.773388	0.004483
H132	H	0.633374	-0.773404	0.107292
H133	H	0.333377	0.081998	-0.167424
H134	H	0.652551	-0.000079	0.249482
N135	N	-0.288433	0.093923	-0.150883
H136	H	-0.283315	0.113696	-0.228978
H137	H	-0.275981	0.113649	-0.073182
H138	H	0.512419	-0.228913	-0.316542
N139	N	0.481512	-0.000047	0.170440
H140	H	0.462056	0.030709	0.186301
H141	H	0.462082	-0.030818	0.186329
N142	N	0.431516	-0.094047	-0.170107
H143	H	0.407891	-0.122695	-0.169487
H144	H	0.456099	-0.096021	-0.092794
H145	H	0.101444	-0.127334	-0.161303
N146	N	0.471238	-0.632672	-0.425157
H147	H	0.477095	-0.623589	-0.514186
H148	H	0.436906	-0.623568	-0.411195
N149	N	-0.288442	-0.094076	-0.150946
H150	H	-0.324284	-0.087211	-0.151723
H151	H	-0.276429	-0.113526	-0.072442
H152	H	-0.190299	0.081978	-0.153476
H153	H	-0.049811	0.127199	-0.157180
N154	N	0.671850	-0.475973	0.104270
H155	H	0.693410	-0.497634	0.056665
H156	H	0.653170	-0.497613	0.159523
N157	N	0.503840	-0.872879	-0.339172
H158	H	0.522491	-0.894545	-0.394443
H159	H	0.483208	-0.848384	-0.393554
H160	H	0.101459	0.127211	-0.161178
H161	H	0.041647	-0.127337	-0.159711
H162	H	0.192925	0.127211	-0.163602
H163	H	0.424859	0.081997	-0.169850
H164	H	0.041652	0.127201	-0.159607
H165	H	0.630642	-0.228875	-0.004469
H166	H	0.630640	-0.134149	-0.004510
H167	H	0.479836	-0.469108	-0.402462
N168	N	0.503801	-0.127276	-0.339273
H169	H	0.508746	-0.090234	-0.326218
H170	H	0.469467	-0.136405	-0.325385
H171	H	0.663235	-0.530999	0.081566
H172	H	0.479849	-0.531043	-0.402453
