data_functionalizedCrystal
_audit_creation_method	'MofGen! by Chris Wilmer'
_symmetry_space_group_name_H-M	'P1'
_symmetry_Int_Tables_number	1
_symmetry_cell_setting	triclinic
loop_
_symmetry_equiv_pos_as_xyz
  x,y,z
_cell_length_a	17.637651
_cell_length_b	19.805407
_cell_length_c	19.805399
_cell_angle_alpha	90.021064
_cell_angle_beta	78.757390
_cell_angle_gamma	78.782727
loop_
_atom_site_label
_atom_site_type_symbol
_atom_site_fract_x
_atom_site_fract_y
_atom_site_fract_z
Zn1	Zn	-0.314799	-0.980300	-0.328199
Zn2	Zn	0.185201	-0.480300	0.171801
Zn3	Zn	-0.447014	-0.957352	-0.192102
Zn4	Zn	0.052986	-0.457352	0.307898
Zn5	Zn	-0.314818	-0.867111	-0.215018
Zn6	Zn	0.185182	-0.367111	0.284982
Zn7	Zn	-0.446969	-0.844223	-0.305253
Zn8	Zn	0.053031	-0.344223	0.194747
O9	O	-0.380900	-0.912246	-0.260143
O10	O	0.119100	-0.412246	0.239857
O11	O	-0.332348	-1.071971	-0.310158
O12	O	0.167652	-0.571971	0.189842
O13	O	-0.429504	-0.945356	-0.100420
O14	O	0.070496	-0.445356	0.399580
O15	O	-0.204178	-0.901309	-0.249225
O16	O	0.295822	-0.401309	0.250775
O17	O	-0.429486	-1.055111	-0.210168
O18	O	0.070514	-0.555111	0.289832
O19	O	-0.204163	-0.984468	-0.332379
O20	O	0.295837	-0.484468	0.167621
O21	O	-0.332381	-0.879057	-0.117257
O22	O	0.167619	-0.379057	0.382743
O23	O	-0.332338	-0.769360	-0.226975
O24	O	0.167662	-0.269360	0.273025
O25	O	-0.429410	-0.862299	-0.403018
O26	O	0.070590	-0.362299	0.096982
O27	O	-0.429429	-0.752544	-0.293270
O28	O	0.070571	-0.252544	0.206730
O29	O	-0.332305	-0.962274	-0.419877
O30	O	0.167695	-0.462274	0.080123
O31	O	-0.557646	-0.923162	-0.187918
O32	O	-0.057646	-0.423162	0.312082
O33	O	-0.557613	-0.840047	-0.271050
O34	O	-0.057613	-0.340047	0.228950
C35	C	-0.380881	-0.736394	-0.260120
C36	C	0.119119	-0.236394	0.239880
C37	C	-0.380892	-0.661160	-0.260123
C38	C	0.119108	-0.161160	0.239877
C39	C	-0.431523	-0.617064	-0.294559
C40	C	0.068477	-0.117064	0.205441
C41	C	-0.431523	-0.546376	-0.294566
C42	C	0.068477	-0.046376	0.205434
C43	C	-0.380896	-0.519784	-0.260133
C44	C	0.119104	-0.019784	0.239867
C45	C	-0.330259	-0.563885	-0.225697
C46	C	0.169741	-0.063885	0.274303
C47	C	-0.330256	-0.634573	-0.225693
C48	C	0.169744	-0.134573	0.274307
C49	C	-0.330271	-0.278810	-0.225709
C50	C	0.169729	0.221190	0.274291
C51	C	-0.330280	-0.208116	-0.225714
C52	C	0.169720	0.291884	0.274286
C53	C	-0.431538	-0.190613	-0.294582
C54	C	0.068462	0.309387	0.205418
C55	C	-0.431534	-0.261300	-0.294579
C56	C	0.068466	0.238700	0.205421
C57	C	-0.380896	-0.305396	-0.260146
C58	C	0.119104	0.194604	0.239854
C59	C	-0.380895	-0.382045	-0.260139
C60	C	0.119105	0.117955	0.239861
C61	C	-0.380899	-0.443136	-0.260136
C62	C	0.119101	0.056864	0.239864
C63	C	-0.586317	-0.876649	-0.224522
C64	C	-0.086317	-0.376649	0.275478
C65	C	-0.674195	-0.861482	-0.209305
C66	C	-0.174195	-0.361482	0.290695
C67	C	-0.962884	-1.027907	-0.375953
C68	C	-0.462884	-0.527907	0.124047
C69	C	-1.045459	-1.013634	-0.361643
C70	C	-0.545459	-0.513634	0.138357
C71	C	-1.045581	-0.927097	-0.274971
C72	C	-0.545581	-0.427097	0.225029
C73	C	-0.963005	-0.941366	-0.289271
C74	C	-0.463005	-0.441366	0.210729
C75	C	-0.921662	-0.991770	-0.339763
C76	C	-0.421662	-0.491770	0.160237
C77	C	-0.921783	-0.905229	-0.253082
C78	C	-0.421783	-0.405229	0.246918
C79	C	-0.839214	-0.919494	-0.267383
C80	C	-0.339214	-0.419494	0.232617
C81	C	-0.797866	-0.969895	-0.317875
C82	C	-0.297866	-0.469895	0.182125
C83	C	-0.839093	-1.006035	-0.354065
C84	C	-0.339093	-0.506035	0.145935
C85	C	-0.963127	-0.854821	-0.202593
C86	C	-0.463127	-0.354821	0.297407
C87	C	-0.921905	-0.818685	-0.166404
C88	C	-0.421905	-0.318685	0.333596
C89	C	-0.839334	-0.832953	-0.180702
C90	C	-0.339334	-0.332953	0.319298
C91	C	-0.797986	-0.883354	-0.231193
C92	C	-0.297986	-0.383354	0.268807
C93	C	-0.798107	-0.796813	-0.144511
C94	C	-0.298107	-0.296813	0.355489
C95	C	-0.715537	-0.811078	-0.158813
C96	C	-0.215537	-0.311078	0.341187
C97	C	-0.715417	-0.897619	-0.245495
C98	C	-0.215417	-0.397619	0.254505
C99	C	-0.174681	-0.948001	-0.295918
C100	C	0.325319	-0.448001	0.204082
C101	C	-0.086803	-0.963238	-0.311163
C102	C	0.413197	-0.463238	0.188837
C103	C	-0.380850	-0.912293	-0.436694
C104	C	0.119150	-0.412293	0.063306
C105	C	-0.380829	-0.912313	-0.511930
C106	C	0.119171	-0.412313	-0.011930
C107	C	-0.380914	-0.088787	-0.260161
C108	C	0.119086	0.411213	0.239839
C109	C	-0.380907	-0.164020	-0.260154
C110	C	0.119093	0.335980	0.239846
C111	C	-0.330264	-0.964371	-0.556054
C112	C	0.169736	-0.464371	-0.056054
C113	C	-0.330241	-0.964382	-0.626747
C114	C	0.169759	-0.464382	-0.126747
C115	C	-0.380788	-0.912337	-0.653313
C116	C	0.119212	-0.412337	-0.153313
C117	C	-0.431355	-0.860273	-0.609184
C118	C	0.068645	-0.360273	-0.109184
C119	C	-0.431374	-0.860260	-0.538493
C120	C	0.068626	-0.360260	-0.038493
C121	C	-0.431281	-0.860324	-0.894270
C122	C	0.068719	-0.360324	-0.394270
C123	C	-0.431261	-0.860342	-0.964965
C124	C	0.068739	-0.360342	-0.464965
C125	C	-0.330149	-0.964446	-0.982523
C126	C	0.169851	-0.464446	-0.482523
C127	C	-0.330167	-0.964433	-0.911833
C128	C	0.169833	-0.464433	-0.411833
C129	C	-0.380731	-0.912368	-0.867710
C130	C	0.119269	-0.412368	-0.367710
C131	C	-0.380755	-0.912356	-0.791058
C132	C	0.119245	-0.412356	-0.291058
C133	C	-0.380769	-0.912351	-0.729963
C134	C	0.119231	-0.412351	-0.229963
C135	C	-0.380893	-0.912249	-0.084288
C136	C	0.119107	-0.412249	0.415712
C137	C	-0.380691	-0.912399	-0.009092
C138	C	0.119309	-0.412399	0.490908
H139	H	-0.472767	-0.154702	-0.322623
H140	H	0.027233	0.345298	0.177377
C141	C	-0.274657	-1.021626	-0.526839
C142	C	0.225343	-0.521626	-0.026839
N143	N	-0.232769	-1.064750	-0.504836
N144	N	0.267231	-0.564750	-0.004836
C145	C	-0.274560	-0.683078	-0.187809
C146	C	0.225440	-0.183078	0.312191
N147	N	-0.232607	-0.719612	-0.159275
N148	N	0.267393	-0.219612	0.340725
C149	C	-0.486864	-0.803082	-0.994187
C150	C	0.013136	-0.303082	-0.494187
N151	N	-0.528741	-0.759955	-1.016197
N152	N	-0.028741	-0.259955	-0.516197
H153	H	-0.831780	-0.755769	-0.103406
H154	H	-0.331780	-0.255769	0.396594
C155	C	-0.967391	-0.763284	-0.110821
C156	C	-0.467391	-0.263284	0.389179
N157	N	-1.001650	-0.721572	-0.068939
N158	N	-0.501650	-0.221572	0.431061
H159	H	-0.289068	-1.006775	-0.662670
H160	H	0.210932	-0.506775	-0.162670
H161	H	-0.681974	-0.781651	-0.129344
H162	H	-0.181974	-0.281651	0.370656
C163	C	-0.274559	-1.021685	-0.882615
C164	C	0.225441	-0.521685	-0.382615
N165	N	-0.232670	-1.064806	-0.860610
N166	N	0.267330	-0.564806	-0.360610
H167	H	-0.472465	-0.817937	-0.858351
H168	H	0.027535	-0.317937	-0.358351
H169	H	-0.472508	-0.817895	-0.630820
H170	H	0.027492	-0.317895	-0.130820
H171	H	-0.730632	-0.981509	-0.329518
H172	H	-0.230632	-0.481509	0.170482
C173	C	-0.487218	-0.646308	-0.332438
C174	C	0.012782	-0.146308	0.167562
N175	N	-0.529167	-0.668333	-0.360972
N176	N	-0.029167	-0.168333	0.139028
C177	C	-0.487236	-0.497870	-0.332433
C178	C	0.012764	0.002130	0.167567
N179	N	-0.529206	-0.461335	-0.360951
N180	N	-0.029206	0.038665	0.139049
H181	H	-0.681754	-0.938668	-0.286606
H182	H	-0.181754	-0.438668	0.213394
C183	C	-1.053956	-0.839127	-0.186866
C184	C	-0.553956	-0.339127	0.313134
N185	N	-1.122369	-0.827307	-0.175021
N186	N	-0.622369	-0.327307	0.324979
H187	H	-0.288974	-1.006839	-1.018457
H188	H	0.211026	-0.506839	-0.518457
H189	H	-0.289048	-0.186469	-0.197675
H190	H	0.210952	0.313531	0.302325
C191	C	-0.487001	-0.802993	-0.489956
C192	C	0.012999	-0.302993	0.010044
N193	N	-0.528899	-0.759856	-0.453399
N194	N	-0.028899	-0.259856	0.046601
C195	C	-0.487229	-0.290547	-0.332457
C196	C	0.012771	0.209453	0.167543
N197	N	-0.529178	-0.312575	-0.360989
N198	N	-0.029178	0.187425	0.139011
C199	C	-0.274572	-0.327305	-0.187826
C200	C	0.225428	0.172695	0.312174
N201	N	-0.232618	-0.363835	-0.159289
N202	N	0.267382	0.136165	0.340711
H203	H	-0.805431	-1.047085	-0.395176
H204	H	-0.305431	-0.547085	0.104824
C205	C	-0.274567	-0.534632	-0.187822
C206	C	0.225433	-0.034632	0.312178
N207	N	-0.232620	-0.512598	-0.159292
N208	N	0.267380	-0.012598	0.340708
C209	C	-0.917403	-1.083354	-0.431498
C210	C	-0.417403	-0.583354	0.068502
N211	N	-0.883147	-1.125112	-0.473335
N212	N	-0.383147	-0.625112	0.026665
H213	H	-1.079018	-1.043054	-0.391126
H214	H	-0.579018	-0.543054	0.108874
H215	H	-1.079253	-0.886056	-0.233862
H216	H	-0.579253	-0.386056	0.266138
