data_functionalizedCrystal
_audit_creation_method	'MofGen! by Chris Wilmer'
_symmetry_space_group_name_H-M	'P1'
_symmetry_Int_Tables_number	1
_symmetry_cell_setting	triclinic
loop_
_symmetry_equiv_pos_as_xyz
  x,y,z
_cell_length_a	19.077312
_cell_length_b	19.076808
_cell_length_c	18.215399
_cell_angle_alpha	87.671678
_cell_angle_beta	92.279628
_cell_angle_gamma	90.121844
loop_
_atom_site_label
_atom_site_type_symbol
_atom_site_fract_x
_atom_site_fract_y
_atom_site_fract_z
Zn1	Zn	1.062965	-0.322862	-0.357851
Zn2	Zn	1.058155	-0.440377	-0.230045
Zn3	Zn	0.945460	-0.318171	-0.239936
Zn4	Zn	0.940708	-0.435626	-0.358207
O5	O	1.001822	-0.379259	-0.296510
O6	O	1.160655	-0.342402	-0.336609
O7	O	1.043182	-0.424191	-0.128373
O8	O	0.965049	-0.220457	-0.259567
O9	O	1.157121	-0.428740	-0.242710
O10	O	1.051379	-0.223903	-0.346199
O11	O	0.960385	-0.334407	-0.135639
O12	O	0.846502	-0.329800	-0.259913
O13	O	0.956950	-0.420642	-0.461145
O14	O	0.843010	-0.416093	-0.346807
O15	O	1.046771	-0.337795	-0.460883
O16	O	1.038574	-0.538083	-0.243056
O17	O	0.952286	-0.534592	-0.337216
C18	C	0.819261	-0.371922	-0.304472
C19	C	0.741160	-0.368801	-0.307895
C20	C	0.301733	-0.346355	-0.332457
C21	C	0.375117	-0.349302	-0.329236
C22	C	0.409963	-0.395652	-0.278664
C23	C	0.371421	-0.439065	-0.231316
C24	C	0.298038	-0.436122	-0.234541
C25	C	0.629235	-0.409270	-0.263772
C26	C	0.702623	-0.412208	-0.260549
C27	C	0.706314	-0.322446	-0.358470
C28	C	0.632930	-0.319504	-0.361688
C29	C	0.594394	-0.362919	-0.314342
N30	N	0.484973	-0.398663	-0.275369
N31	N	0.519385	-0.359911	-0.317642
C32	C	0.994411	-0.561835	-0.289117
C33	C	0.991305	-0.639945	-0.285976
C34	C	1.034760	-0.678374	-0.329645
C35	C	1.031838	-0.751766	-0.326695
C36	C	0.985466	-0.786728	-0.280072
C37	C	0.942006	-0.748294	-0.236402
C38	C	0.944925	-0.674903	-0.239356
C39	C	0.971918	-1.006038	-0.266400
C40	C	0.969005	-1.079434	-0.263447
C41	C	1.058836	-1.082901	-0.353742
C42	C	1.061753	-1.009508	-0.356688
C43	C	1.018292	-0.971081	-0.313021
N44	N	0.982480	-0.861747	-0.277054
N45	N	1.021274	-0.896063	-0.316043
C46	C	1.185096	-0.386624	-0.288517
C47	C	1.263196	-0.389763	-0.285110
C48	C	1.001867	-0.379212	-0.488463
C49	C	1.001886	-0.379192	-0.570262
C50	C	1.009281	-0.195970	-0.303947
C51	C	1.012459	-0.117863	-0.307116
C52	C	1.048674	-0.336012	-0.758322
C53	C	1.048683	-0.335992	-0.835181
C54	C	0.955152	-0.422265	-0.835442
C55	C	0.955140	-0.422281	-0.758585
C56	C	1.001905	-0.379156	-0.720026
C57	C	1.001926	-0.379120	-0.873743
C58	C	1.001936	-0.379098	-0.957077
C59	C	1.001894	-0.379176	-0.636687
C60	C	1.001820	-0.379256	-0.105304
C61	C	1.001945	-0.379084	-0.023507
H62	H	0.737697	-0.287101	-0.397017
H63	H	1.099514	-0.981044	-0.394652
H64	H	1.086766	-0.300859	-0.866358
O65	O	0.909797	-0.464139	-0.873011
C66	C	0.868335	-0.502320	-0.991532
C67	C	0.919747	-0.454874	-0.949079
H68	H	0.876352	-0.494835	-1.053041
H69	H	0.878368	-0.559497	-0.973635
H70	H	0.812184	-0.487715	-0.979344
H71	H	0.975918	-0.469417	-0.961246
H72	H	0.909654	-0.397709	-0.966981
H73	H	0.917050	-0.457413	-0.727404
H74	H	0.730992	-0.449955	-0.219366
O75	O	0.412576	-0.307234	-0.375300
C76	C	0.495882	-0.301223	-0.471388
C77	C	0.453490	-0.348947	-0.419269
H78	H	0.528982	-0.334928	-0.506939
H79	H	0.458399	-0.267601	-0.508134
H80	H	0.531685	-0.265798	-0.437633
H81	H	0.417684	-0.384414	-0.452965
H82	H	0.491012	-0.382521	-0.382521
H83	H	1.094220	-1.114197	-0.389294
O84	O	0.929683	-0.968824	-0.223901
C85	C	0.840260	-0.973137	-0.134046
C86	C	0.888062	-1.015371	-0.182131
H87	H	0.806586	-1.010752	-0.100275
H88	H	0.873877	-0.940087	-0.095521
H89	H	0.804892	-0.937294	-0.170792
H90	H	0.923439	-1.051252	-0.145443
H91	H	0.854403	-1.048375	-0.220662
O92	O	0.599114	-0.274555	-0.410918
C93	C	0.578145	-0.239675	-0.538517
C94	C	0.616467	-0.290639	-0.482847
H95	H	0.592172	-0.252651	-0.596683
H96	H	0.519067	-0.245026	-0.532755
H97	H	0.594862	-0.183579	-0.527315
H98	H	0.599808	-0.346756	-0.494014
H99	H	0.675537	-0.285227	-0.488621
O100	O	0.267996	-0.301312	-0.381649
C101	C	0.279412	-0.212568	-0.478409
C102	C	0.317704	-0.263557	-0.422742
H103	H	0.319584	-0.182018	-0.511636
H104	H	0.243785	-0.243471	-0.517082
H105	H	0.246511	-0.174429	-0.447677
H106	H	0.350642	-0.301706	-0.453412
H107	H	0.353288	-0.232608	-0.384070
O108	O	1.094120	-0.294052	-0.720981
C109	C	1.186915	-0.208505	-0.728836
C110	C	1.135474	-0.255982	-0.771212
H111	H	1.220373	-0.177724	-0.769428
H112	H	1.156178	-0.170428	-0.695770
H113	H	1.222310	-0.242259	-0.689924
H114	H	1.100067	-0.222285	-0.810162
H115	H	1.166255	-0.294062	-0.804230
H116	H	1.072524	-0.649913	-0.367606
O117	O	0.591916	-0.451462	-0.217701
C118	C	0.596005	-0.540826	-0.120257
C119	C	0.638359	-0.493071	-0.172383
H120	H	0.633536	-0.574489	-0.083615
H121	H	0.562959	-0.507169	-0.084602
H122	H	0.560155	-0.576209	-0.154008
H123	H	0.674247	-0.457679	-0.138690
H124	H	0.671359	-0.526770	-0.208041
H125	H	0.399798	-0.476807	-0.190142
H126	H	0.266663	-0.471470	-0.195988
H127	H	0.904246	-0.776766	-0.198444
H128	H	1.067229	-0.783052	-0.362249
H129	H	0.909538	-0.643615	-0.203798
O130	O	0.923919	-1.113476	-0.218257
C131	C	0.825746	-1.192603	-0.209080
C132	C	0.876762	-1.154103	-0.260339
H133	H	0.787597	-1.225447	-0.243085
H134	H	0.856627	-1.228294	-0.167849
H135	H	0.795215	-1.152523	-0.178357
H136	H	0.907306	-1.194133	-0.291111
H137	H	0.845841	-1.118400	-0.301524
