data_functionalizedCrystal
_audit_creation_method	'MofGen! by Chris Wilmer'
_symmetry_space_group_name_H-M	'P1'
_symmetry_Int_Tables_number	1
_symmetry_cell_setting	triclinic
loop_
_symmetry_equiv_pos_as_xyz
  x,y,z
_cell_length_a	16.625548
_cell_length_b	16.120444
_cell_length_c	16.625539
_cell_angle_alpha	87.130642
_cell_angle_beta	90.020568
_cell_angle_gamma	92.927662
loop_
_atom_site_label
_atom_site_type_symbol
_atom_site_fract_x
_atom_site_fract_y
_atom_site_fract_z
Zn1	Zn	1.216382	-0.331884	0.472171
Zn2	Zn	1.716382	0.168116	0.972171
Zn3	Zn	1.209438	-0.471309	0.344170
Zn4	Zn	1.709438	0.028691	0.844170
Zn5	Zn	1.081542	-0.331916	0.337353
Zn6	Zn	1.581542	0.168084	0.837353
Zn7	Zn	1.074670	-0.471261	0.478957
Zn8	Zn	1.574670	0.028739	0.978957
O9	O	1.145508	-0.401592	0.408163
O10	O	1.645508	0.098408	0.908163
O11	O	1.328293	-0.350386	0.455204
O12	O	1.828293	0.149614	0.955204
O13	O	1.192443	-0.452851	0.230435
O14	O	1.692443	0.047149	0.730435
O15	O	1.105211	-0.215245	0.349544
O16	O	1.605211	0.284755	0.849544
O17	O	1.323192	-0.452821	0.361162
O18	O	1.823192	0.047179	0.861162
O19	O	1.204278	-0.215222	0.448594
O20	O	1.704278	0.284778	0.948594
O21	O	1.098478	-0.350440	0.225427
O22	O	1.598478	0.149560	0.725427
O23	O	0.967799	-0.350393	0.356125
O24	O	1.467799	0.149607	0.856125
O25	O	1.093498	-0.452739	0.590888
O26	O	1.593498	0.047261	1.090888
O27	O	0.962749	-0.452770	0.460161
O28	O	1.462749	0.047230	0.960161
O29	O	1.197613	-0.350339	0.585902
O30	O	1.697613	0.149661	1.085902
O31	O	1.185779	-0.587969	0.367743
O32	O	1.685779	-0.087969	0.867743
O33	O	1.086765	-0.587934	0.466770
O34	O	1.586765	-0.087934	0.966770
C35	C	0.936018	-0.401580	0.408140
C36	C	1.436018	0.098420	0.908140
C37	C	0.846396	-0.401595	0.408150
C38	C	1.346396	0.098405	0.908150
C39	C	0.518220	-0.401601	0.408185
C40	C	1.018220	0.098399	0.908185
C41	C	0.609529	-0.401597	0.408172
C42	C	1.109529	0.098403	0.908172
C43	C	0.682305	-0.401599	0.408167
C44	C	1.182305	0.098401	0.908167
C45	C	0.773620	-0.401594	0.408156
C46	C	1.273620	0.098406	0.908156
C47	C	1.134795	-0.618202	0.418750
C48	C	1.634795	-0.118202	0.918750
C49	C	1.130285	-0.710868	0.423306
C50	C	1.630285	-0.210868	0.923306
C51	C	1.169099	-0.921808	0.384700
C52	C	1.669099	-0.421808	0.884700
C53	C	1.122066	-0.880525	0.431634
C54	C	1.622066	-0.380525	0.931634
C55	C	1.126641	-0.786119	0.426999
C56	C	1.626641	-0.286119	0.926999
C57	C	1.164526	-1.016223	0.389334
C58	C	1.664526	-0.516223	0.889334
C59	C	1.355816	-0.401605	0.408187
C60	C	1.855816	0.098395	0.908187
C61	C	1.445437	-0.401610	0.408197
C62	C	1.945437	0.098390	0.908197
C63	C	1.145564	-0.401530	0.618469
C64	C	1.645564	0.098470	1.118469
C65	C	1.145587	-0.401504	0.708089
C66	C	1.645587	0.098496	1.208089
C67	C	1.156286	-0.184137	0.397552
C68	C	1.656286	0.315863	0.897552
C69	C	1.160878	-0.091471	0.393030
C70	C	1.660878	0.408529	0.893030
C71	C	1.145502	-0.401594	0.198672
C72	C	1.645502	0.098406	0.698672
C73	C	1.145646	-0.401386	0.109041
C74	C	1.645646	0.098614	0.609041
C75	C	1.145629	-0.401410	1.036260
C76	C	1.645629	0.098590	1.536260
C77	C	1.145615	-0.401439	0.944953
C78	C	1.645615	0.098561	1.444953
C79	C	1.145609	-0.401458	0.872177
C80	C	1.645609	0.098542	1.372177
C81	C	1.145594	-0.401485	0.780864
C82	C	1.645594	0.098515	1.280864
H83	H	1.078365	-0.916083	0.475295
H84	H	1.578365	-0.416083	0.975295
C85	C	1.184995	-0.823834	0.271536
C86	C	1.684995	-0.323834	0.771536
C87	C	1.228084	-0.873814	0.325754
C88	C	1.728084	-0.373814	0.825754
H89	H	1.221408	-0.794201	0.235141
H90	H	1.721408	-0.294201	0.735141
H91	H	1.156094	-0.785534	0.300381
H92	H	1.656094	-0.285534	0.800381
H93	H	1.148268	-0.857876	0.242306
H94	H	1.648268	-0.357876	0.742306
H95	H	1.264807	-0.839772	0.354988
H96	H	1.764807	-0.339772	0.854988
H97	H	1.256998	-0.912119	0.296906
H98	H	1.756998	-0.412119	0.796906
