data_functionalizedCrystal
_audit_creation_method	'MofGen! by Chris Wilmer'
_symmetry_space_group_name_H-M	'P1'
_symmetry_Int_Tables_number	1
_symmetry_cell_setting	triclinic
loop_
_symmetry_equiv_pos_as_xyz
  x,y,z
_cell_length_a	15.995343
_cell_length_b	15.995350
_cell_length_c	15.072220
_cell_angle_alpha	89.998899
_cell_angle_beta	90.008177
_cell_angle_gamma	83.490779
loop_
_atom_site_label
_atom_site_type_symbol
_atom_site_fract_x
_atom_site_fract_y
_atom_site_fract_z
O1	O	1.111000	0.107890	0.073689
O2	O	1.611000	0.607890	0.573689
O3	O	0.867224	0.121224	0.073710
O4	O	1.367224	0.621224	0.573710
O5	O	0.995776	-0.007331	0.073698
O6	O	1.495776	0.492669	0.573698
O7	O	0.982448	0.236445	0.073701
O8	O	1.482448	0.736445	0.573701
O9	O	0.995744	-0.007324	-0.073867
O10	O	1.495744	0.492676	0.426133
O11	O	0.867192	0.121231	-0.073855
O12	O	1.367192	0.621231	0.426145
O13	O	1.110968	0.107897	-0.073876
O14	O	1.610968	0.607897	0.426124
Zn15	Zn	0.989075	0.114565	-0.097295
Zn16	Zn	1.489075	0.614565	0.402705
Zn17	Zn	0.989117	0.114556	0.097129
Zn18	Zn	1.489117	0.614556	0.597129
O19	O	0.982416	0.236452	-0.073864
O20	O	1.482416	0.736452	0.426136
C21	C	0.836013	0.120678	-0.000070
C22	C	1.336013	0.620678	0.499930
C23	C	0.743062	0.119028	-0.000062
C24	C	1.243062	0.619028	0.499938
C25	C	0.572876	0.116035	-0.000074
C26	C	1.072876	0.616035	0.499926
C27	C	0.549530	0.023238	-0.000075
C28	C	1.049530	0.523238	0.499925
C29	C	0.452852	0.021492	-0.000415
C30	C	0.952852	0.521492	0.499585
C31	C	0.405316	0.113086	-0.000085
C32	C	0.905316	0.613086	0.499915
C33	C	0.434389	0.159750	-0.084183
C34	C	0.934389	0.659750	0.415817
C35	C	0.531182	0.160851	-0.084249
C36	C	1.031182	0.660851	0.415751
C37	C	0.531129	0.162201	0.083566
C38	C	1.031129	0.662201	0.583566
C39	C	0.434634	0.158776	0.084666
C40	C	0.934634	0.658776	0.584666
C41	C	0.310618	0.111425	-0.000094
C42	C	0.810618	0.611425	0.499906
C43	C	0.667574	0.117699	-0.000071
C44	C	1.167574	0.617699	0.499929
C45	C	0.995209	-0.038522	-0.000083
C46	C	1.495209	0.461478	0.499917
C47	C	0.993557	-0.131472	-0.000078
C48	C	1.493557	0.368528	0.499922
C49	C	0.987625	-0.469220	-0.000080
C50	C	1.487625	0.030780	0.499920
C51	C	0.896073	-0.421783	0.000259
C52	C	1.396073	0.078217	0.500259
C53	C	0.897725	-0.325093	-0.000074
C54	C	1.397725	0.174907	0.499926
C55	C	0.990567	-0.301659	-0.000078
C56	C	1.490567	0.198341	0.499922
C57	C	1.035706	-0.342734	-0.084348
C58	C	1.535706	0.157266	0.415652
C59	C	1.033406	-0.439369	-0.084418
C60	C	1.533406	0.060631	0.415582
C61	C	1.035333	-0.439736	0.083391
C62	C	1.535333	0.060264	0.583391
C63	C	1.035312	-0.342790	0.084505
C64	C	1.535312	0.157210	0.584505
C65	C	0.992235	-0.206962	-0.000080
C66	C	1.492235	0.293038	0.499920
C67	C	0.985960	-0.563917	-0.000084
C68	C	1.485960	-0.063917	0.499916
C69	C	1.142179	0.108444	-0.000094
C70	C	1.642179	0.608444	0.499906
C71	C	1.235130	0.110093	-0.000097
C72	C	1.735130	0.610093	0.499903
C73	C	0.982983	0.267643	-0.000082
C74	C	1.482983	0.767643	0.499918
C75	C	0.984635	0.360594	-0.000081
C76	C	1.484635	0.860594	0.499919
N77	N	0.989053	0.114571	-0.229984
N78	N	1.489053	0.614571	0.270016
C79	C	0.989115	0.114553	-0.589185
C80	C	1.489115	0.614553	-0.089185
C81	C	0.920099	0.183109	-0.551572
C82	C	1.420099	0.683109	-0.051572
C83	C	0.920257	0.183360	-0.448746
C84	C	1.420257	0.683360	0.051254
C85	C	0.989083	0.114562	-0.410981
C86	C	1.489083	0.614562	0.089019
C87	C	1.076449	0.133641	-0.448280
C88	C	1.576449	0.633641	0.051720
C89	C	1.076062	0.134128	-0.551138
C90	C	1.576062	0.634128	-0.051138
C91	C	0.971546	0.026714	-0.551285
C92	C	1.471546	0.526714	-0.051285
C93	C	0.969541	0.027300	-0.448421
C94	C	1.469541	0.527300	0.051579
C95	C	0.989071	0.114565	-0.310268
C96	C	1.489071	0.614565	0.189732
C97	C	0.989133	0.114551	-0.689899
C98	C	1.489133	0.614551	-0.189899
N99	N	0.989146	0.114543	0.229817
N100	N	1.489146	0.614543	0.729817
H101	H	0.862241	-0.296673	0.060334
H102	H	1.362241	0.203327	0.560334
H103	H	0.401678	0.225608	0.090006
H104	H	0.901678	0.725608	0.590006
H105	H	0.545142	0.230506	0.084378
H106	H	1.045142	0.730506	0.584378
H107	H	1.100622	-0.471619	-0.088244
H108	H	1.600622	0.028381	0.411756
N109	N	0.585883	-0.021143	-0.075616
N110	N	1.085883	0.478857	0.424384
N111	N	0.628910	0.015275	-0.129453
N112	N	1.128910	0.515275	0.370547
H113	H	0.654587	-0.016066	-0.182806
H114	H	1.154587	0.483934	0.317194
N115	N	0.429009	-0.024354	0.075181
N116	N	0.929009	0.475646	0.575181
N117	N	0.392625	-0.088825	0.064848
N118	N	0.892625	0.411175	0.564848
H119	H	0.375792	-0.121212	0.118238
H120	H	0.875792	0.378788	0.618238
H121	H	0.559412	0.132921	0.147330
H122	H	1.059412	0.632921	0.647330
H123	H	1.129023	0.086164	-0.576017
H124	H	1.629023	0.586164	-0.076017
H125	H	1.005414	-0.460278	0.147262
H126	H	1.505414	0.039722	0.647262
N127	N	1.095462	0.214491	-0.581246
N128	N	1.595462	0.714491	-0.081246
N129	N	1.098677	0.229384	-0.662511
N130	N	1.598677	0.729384	-0.162511
H131	H	1.112374	0.286144	-0.683773
H132	H	1.612374	0.786144	-0.183773
H133	H	1.103914	-0.328610	-0.087485
H134	H	1.603914	0.171390	0.412515
N135	N	0.850189	-0.445049	0.076068
N136	N	1.350189	0.054951	0.576068
N137	N	0.838193	-0.520160	0.087546
N138	N	1.338193	-0.020160	0.587546
H139	H	0.805790	-0.536598	0.141090
H140	H	1.305790	-0.036598	0.641090
H141	H	0.861977	-0.297224	-0.060579
H142	H	1.361977	0.202776	0.439421
H143	H	0.931163	0.247926	-0.577411
H144	H	1.431163	0.747926	-0.077411
N145	N	0.584677	-0.021880	0.075577
N146	N	1.084677	0.478120	0.575577
N147	N	0.627346	0.013825	0.130377
N148	N	1.127346	0.513825	0.630377
H149	H	0.652173	-0.018039	0.183810
H150	H	1.152173	0.481961	0.683810
N151	N	0.996338	-0.307122	-0.163008
N152	N	1.496338	0.192878	0.336992
N153	N	0.935048	-0.251503	-0.157225
N154	N	1.435048	0.248497	0.342775
H155	H	0.907239	-0.226352	-0.212777
H156	H	1.407239	0.273648	0.287223
H157	H	1.002310	-0.315544	0.146845
H158	H	1.502310	0.184456	0.646845
N159	N	1.120242	-0.323503	0.090887
N160	N	1.620242	0.176497	0.590887
N161	N	1.149307	-0.278934	0.032939
N162	N	1.649307	0.221066	0.532939
H163	H	1.209291	-0.265308	0.037442
H164	H	1.709291	0.234692	0.537442
H165	H	1.102835	-0.471498	0.083954
H166	H	1.602835	0.028502	0.583954
H167	H	1.000464	-0.457667	-0.147407
H168	H	1.500464	0.042333	0.352593
N169	N	0.893337	0.003713	-0.583828
N170	N	1.393337	0.503713	-0.083828
N171	N	0.835973	-0.008576	-0.530717
N172	N	1.335973	0.491424	-0.030717
H173	H	0.780733	-0.024813	-0.553697
H174	H	1.280733	0.475187	-0.053697
N175	N	0.429713	-0.024114	-0.076486
N176	N	0.929713	0.475886	0.423514
N177	N	0.485000	-0.054745	-0.129496
N178	N	0.985000	0.445255	0.370504
H179	H	0.468661	-0.086956	-0.183225
H180	H	0.968661	0.413044	0.316775
H181	H	0.905274	0.012820	-0.424043
H182	H	1.405274	0.512820	0.075957
N183	N	0.850360	-0.446365	-0.075122
N184	N	1.350360	0.053635	0.424878
N185	N	0.884915	-0.498667	-0.129093
N186	N	1.384915	0.001333	0.370907
H187	H	0.852633	-0.516031	-0.182332
H188	H	1.352633	-0.016031	0.317668
N189	N	1.142410	0.072662	-0.417590
N190	N	1.642410	0.572662	0.082410
N191	N	1.125725	0.014323	-0.367765
N192	N	1.625725	0.514323	0.132235
H193	H	1.172309	-0.028746	-0.346089
H194	H	1.672309	0.471254	0.153911
N195	N	0.564789	0.120798	-0.163408
N196	N	1.064789	0.620798	0.336592
N197	N	0.604353	0.160773	-0.217358
N198	N	1.104353	0.660773	0.282642
H199	H	0.628086	0.132484	-0.273265
H200	H	1.128086	0.632484	0.226735
H201	H	0.855317	0.171992	-0.423530
H202	H	1.355317	0.671992	0.076470
H203	H	0.931476	0.248543	-0.424133
H204	H	1.431476	0.748543	0.075867
H205	H	1.092301	0.196971	-0.422511
H206	H	1.592301	0.696971	0.077489
H207	H	0.854949	0.171929	-0.576328
H208	H	1.354949	0.671929	-0.076328
H209	H	1.016544	-0.026107	-0.422717
H210	H	1.516544	0.473893	0.077283
N211	N	1.034677	-0.037284	-0.581817
N212	N	1.534677	0.462716	-0.081817
N213	N	1.044370	-0.050419	-0.663118
N214	N	1.544370	0.449581	-0.163118
H215	H	1.088958	-0.095612	-0.684688
H216	H	1.588958	0.404388	-0.184688
N217	N	0.549456	0.246221	-0.088752
N218	N	1.049456	0.746221	0.411248
N219	N	0.490747	0.304798	-0.091842
N220	N	0.990747	0.804798	0.408158
H221	H	0.503649	0.365090	-0.095030
H222	H	1.003649	0.865090	0.404970
H223	H	0.402543	0.227161	-0.087074
H224	H	0.902543	0.727161	0.412926
N225	N	0.409162	0.119605	-0.163001
N226	N	0.909162	0.619605	0.336999
N227	N	0.332937	0.114544	-0.177389
N228	N	0.832937	0.614544	0.322611
H229	H	0.315119	0.086188	-0.233053
H230	H	0.815119	0.586188	0.266947
N231	N	0.411360	0.116145	0.162713
N232	N	0.911360	0.616145	0.662713
N233	N	0.373321	0.052350	0.156013
N234	N	0.873321	0.552350	0.656013
H235	H	0.356876	0.022241	0.211132
H236	H	0.856876	0.522241	0.711132
