data_functionalizedCrystal
_audit_creation_method	'MofGen! by Chris Wilmer'
_symmetry_space_group_name_H-M	'P1'
_symmetry_Int_Tables_number	1
_symmetry_cell_setting	triclinic
loop_
_symmetry_equiv_pos_as_xyz
  x,y,z
_cell_length_a	15.944499
_cell_length_b	17.038272
_cell_length_c	14.421503
_cell_angle_alpha	90.004327
_cell_angle_beta	89.989779
_cell_angle_gamma	87.294583
loop_
_atom_site_label
_atom_site_type_symbol
_atom_site_fract_x
_atom_site_fract_y
_atom_site_fract_z
O1	O	1.121742	0.100633	-0.077169
O2	O	0.878077	0.113107	-0.077158
O3	O	0.998461	-0.006945	-0.077156
O4	O	1.001357	0.220686	-0.077171
O5	O	0.998441	-0.006927	0.077067
O6	O	0.878057	0.113125	0.077065
O7	O	1.121721	0.100651	0.077055
Cu8	Cu	0.999887	0.106890	0.091142
Cu9	Cu	0.999911	0.106869	-0.091245
O10	O	1.001337	0.220704	0.077052
C11	C	0.846735	0.112606	-0.000045
C12	C	0.753378	0.111074	-0.000041
C13	C	0.466822	0.180822	-0.000060
C14	C	0.525272	0.144557	-0.076099
C15	C	0.417344	0.105512	-0.000062
C16	C	0.525237	0.144554	0.075953
C17	C	0.582448	0.108249	-0.000050
C18	C	0.474565	0.069226	-0.076165
C19	C	0.474524	0.069233	0.075956
C20	C	0.532953	0.032913	-0.000102
C21	C	0.322232	0.103937	-0.000070
C22	C	0.677559	0.109818	-0.000049
C23	C	0.995817	-0.036065	-0.000044
C24	C	0.987957	-0.122859	-0.000044
C25	C	1.060116	-0.172964	-0.000046
C26	C	1.052726	-0.254516	-0.000055
C27	C	0.973177	-0.285960	-0.000055
C28	C	0.901013	-0.235849	-0.000055
C29	C	0.908404	-0.154299	-0.000054
C30	C	0.947068	-0.531721	-0.000066
C31	C	0.939682	-0.613278	-0.000065
C32	C	1.091396	-0.631939	-0.000067
C33	C	1.098780	-0.550387	-0.000059
C34	C	1.026616	-0.500282	-0.000065
C35	C	0.965622	-0.369319	-0.000060
C36	C	1.034172	-0.416925	-0.000066
C37	C	1.153063	0.101153	-0.000060
C38	C	1.246420	0.102684	-0.000071
C39	C	1.003981	0.249823	-0.000061
C40	C	1.011841	0.336617	-0.000067
N41	N	0.999877	0.106904	0.219423
N42	N	0.999928	0.106848	-0.219527
C43	C	0.944199	0.162391	0.469076
C44	C	1.021183	0.177557	0.530874
C45	C	0.999896	0.106885	0.408584
C46	C	0.922932	0.091738	0.530880
C47	C	0.999907	0.106869	0.591306
C48	C	1.076921	0.122086	0.469022
C49	C	0.978618	0.036236	0.469023
C50	C	1.055655	0.051372	0.530793
C51	C	0.999888	0.106897	0.303323
C52	C	0.999924	0.106857	0.696565
H53	H	0.547579	0.176427	0.140236
H54	H	0.960587	-0.023484	0.441833
H55	H	0.452126	0.037414	0.140247
H56	H	0.452322	0.037394	-0.140522
H57	H	1.142032	0.134963	0.441965
H58	H	1.039191	0.237297	0.558041
H59	H	1.102816	0.004423	0.557722
H60	H	1.124893	-0.147369	-0.000041
H61	H	0.561664	-0.029643	-0.000139
H62	H	0.897151	0.209369	0.441977
H63	H	1.111485	-0.295309	-0.000055
H64	H	0.857840	0.078933	0.558054
H65	H	1.163557	-0.524791	-0.000059
H66	H	1.150147	-0.672743	-0.000064
H67	H	0.547653	0.176405	-0.140385
H68	H	0.437954	0.243322	-0.000137
H69	H	0.874901	-0.638876	-0.000050
H70	H	0.888306	-0.490935	-0.000071
H71	H	0.836243	-0.261457	-0.000061
H72	H	1.098940	-0.391320	-0.000086
H73	H	0.849644	-0.113503	-0.000052
H74	H	0.900852	-0.394930	-0.000058
