data_functionalizedCrystal
_audit_creation_method	'MofGen! by Chris Wilmer'
_symmetry_space_group_name_H-M	'P1'
_symmetry_Int_Tables_number	1
_symmetry_cell_setting	triclinic
loop_
_symmetry_equiv_pos_as_xyz
  x,y,z
_cell_length_a	14.519731
_cell_length_b	14.519709
_cell_length_c	16.053802
_cell_angle_alpha	92.569364
_cell_angle_beta	87.413705
_cell_angle_gamma	83.684499
loop_
_atom_site_label
_atom_site_type_symbol
_atom_site_fract_x
_atom_site_fract_y
_atom_site_fract_z
O1	O	1.227740	0.117108	-0.069433
O2	O	0.959266	0.131324	-0.069434
O3	O	1.100620	-0.010021	-0.069426
O4	O	1.086385	0.258454	-0.069441
O5	O	1.092840	-0.002273	0.069432
O6	O	0.951485	0.139072	0.069424
O7	O	1.219959	0.124856	0.069426
Zn8	Zn	1.084487	0.133194	0.091472
Zn9	Zn	1.094738	0.122986	-0.091480
O10	O	1.078604	0.266202	0.069417
C11	C	0.921016	0.134532	-0.000005
C12	C	0.818636	0.132536	-0.000006
C13	C	1.096067	-0.040507	0.000003
C14	C	1.094078	-0.142888	0.000004
C15	C	0.735492	0.130914	-0.000009
C16	C	0.631183	0.128887	-0.000009
C17	C	0.548044	0.127279	-0.000009
C18	C	0.443729	0.125253	-0.000011
C19	C	1.086760	-0.517786	-0.000018
C20	C	1.088793	-0.413477	-0.000012
C21	C	1.090419	-0.330340	-0.000006
C22	C	1.092452	-0.226025	-0.000002
C23	C	1.258209	0.121648	-0.000005
C24	C	1.360590	0.123644	-0.000010
C25	C	1.083158	0.296688	-0.000014
C26	C	1.085147	0.399069	-0.000020
N27	N	1.077497	0.140161	0.216332
N28	N	1.101735	0.116013	-0.216340
C29	C	1.137666	0.080040	0.260029
C30	C	1.132785	0.084921	0.347436
C31	C	1.067740	0.149929	0.391143
C32	C	1.007565	0.210053	0.347439
C33	C	1.012442	0.205166	0.260034
C34	C	1.046437	0.171250	0.652551
C35	C	1.041566	0.176134	0.739962
C36	C	1.166786	0.051000	0.739952
C37	C	1.171661	0.046123	0.652546
C38	C	1.111483	0.106243	0.608850
N39	N	1.062751	0.154923	0.480486
N40	N	1.116467	0.101245	0.519508
H41	H	1.190637	0.027107	0.224448
O42	O	0.947532	0.270011	0.212911
H43	H	0.904866	0.228850	0.173119
O44	O	1.197701	0.020087	0.394559
H45	H	1.186793	-0.052776	0.377791
O46	O	1.241809	-0.024001	0.605403
H47	H	1.282823	-0.064995	0.650474
O48	O	1.231684	-0.013850	0.787079
H49	H	1.217363	0.000460	0.855200
O50	O	0.971396	0.246242	0.787109
H51	H	0.930360	0.287219	0.742042
H52	H	0.997439	0.220204	0.616981
O53	O	0.937409	0.280176	0.394575
H54	H	0.944133	0.273483	0.462695
