data_functionalizedCrystal
_audit_creation_method	'MofGen! by Chris Wilmer'
_symmetry_space_group_name_H-M	'P1'
_symmetry_Int_Tables_number	1
_symmetry_cell_setting	triclinic
loop_
_symmetry_equiv_pos_as_xyz
  x,y,z
_cell_length_a	9.198806
_cell_length_b	17.699083
_cell_length_c	17.699083
_cell_angle_alpha	83.283015
_cell_angle_beta	89.995927
_cell_angle_gamma	90.002089
loop_
_atom_site_label
_atom_site_type_symbol
_atom_site_fract_x
_atom_site_fract_y
_atom_site_fract_z
O1	O	0.120692	-1.004075	-0.095710
O2	O	0.120740	-0.783697	-0.108162
O3	O	0.120701	-0.900112	0.008253
O4	O	0.120730	-0.887660	-0.212125
O5	O	-0.121084	-0.900103	0.008254
O6	O	-0.121046	-0.783688	-0.108162
O7	O	-0.121094	-1.004066	-0.095709
Cu8	Cu	-0.143146	-0.893876	-0.101936
Cu9	Cu	0.142792	-0.893887	-0.101936
O10	O	-0.121055	-0.887651	-0.212125
C11	C	-0.000147	-0.755495	-0.107716
C12	C	-0.000129	-0.671477	-0.106377
C13	C	-0.000191	-0.899662	0.036451
C14	C	-0.000192	-0.898323	0.120469
N15	N	-0.344260	-0.893874	-0.101935
C16	C	-0.416473	-0.942756	-0.052842
C17	C	-0.583886	-0.942768	-0.052839
N18	N	0.343906	-0.893895	-0.101930
C19	C	-0.000204	-1.032268	-0.096156
C20	C	-0.000212	-1.116286	-0.097494
C21	C	-0.000121	-0.622856	-0.174710
C22	C	-0.000140	-0.543913	-0.173448
C23	C	-0.000157	-0.513592	-0.103852
C24	C	-0.000169	-0.562219	-0.035513
C25	C	-0.000161	-0.641161	-0.036776
C26	C	-0.000206	-0.243856	-0.030418
C27	C	-0.000210	-0.164908	-0.029160
C28	C	-0.000185	-0.146608	-0.167090
C29	C	-0.000176	-0.225550	-0.168353
C30	C	-0.000197	-0.274170	-0.100015
C31	C	-0.000179	-0.359769	-0.101384
C32	C	-0.000164	-0.427995	-0.102481
C33	C	-0.000160	-0.888102	-0.240322
C34	C	-0.000150	-0.889440	-0.324340
C35	C	-0.000209	-0.966656	0.169090
C36	C	-0.000195	-0.965394	0.248033
C37	C	-0.000176	-0.895798	0.278354
C38	C	-0.000154	-0.827459	0.229727
C39	C	-0.000157	-0.828722	0.150785
C40	C	-0.000141	-0.822364	0.548090
C41	C	-0.000143	-0.821106	0.627038
C42	C	-0.000180	-0.959036	0.645338
C43	C	-0.000182	-0.960299	0.566396
C44	C	-0.000154	-0.891961	0.517776
C45	C	-0.000165	-0.893330	0.432177
C46	C	-0.000175	-0.894427	0.363951
H47	H	-0.354361	-0.984594	-0.010811
C48	C	-0.428153	-0.837337	-0.158704
H49	H	-0.361137	-0.806661	-0.189499
H50	H	-0.487536	-0.864621	-0.190063
H51	H	-0.487522	-0.805832	-0.131567
C52	C	-0.667768	-0.999303	0.003944
H53	H	-0.769283	-0.991890	-0.003499
H54	H	-0.642886	-1.049848	-0.004052
H55	H	-0.642902	-0.991038	0.054422
H56	H	-0.594003	-0.852046	-0.143966
H57	H	-0.000204	-0.537526	0.021154
H58	H	-0.000106	-0.647537	-0.231384
C59	C	-0.000126	-0.490433	-0.248615
H60	H	-0.000096	-0.519797	-0.290244
H61	H	-0.084446	-0.459262	-0.250994
H62	H	0.084196	-0.459253	-0.250987
C63	C	-0.000155	-0.694644	0.038390
H64	H	-0.000151	-0.665282	0.080021
H65	H	-0.084466	-0.725826	0.040767
H66	H	0.084177	-0.725813	0.040762
H67	H	-0.000233	-1.023330	0.144409
H68	H	-0.000156	-0.250232	-0.225025
H69	H	-0.000176	-0.107012	-0.222734
H70	H	-0.000212	-1.021038	0.287618
C71	C	-0.000110	-0.744548	0.660393
H72	H	-0.000128	-0.753587	0.714371
H73	H	0.084218	-0.716424	0.643696
H74	H	-0.084424	-0.716411	0.643698
H75	H	-0.000226	-0.140225	0.027517
H76	H	-0.000118	-0.766718	0.508512
C77	C	-0.000218	-0.297328	0.044751
H78	H	-0.000214	-0.267962	0.086379
H79	H	-0.084533	-0.328507	0.047128
H80	H	0.084109	-0.328501	0.047128
H81	H	-0.000206	-1.016971	0.541714
H82	H	-0.000196	-1.014680	0.684934
C83	C	-0.000137	-0.750904	0.263077
H84	H	-0.000154	-0.759938	0.317056
H85	H	0.084183	-0.722775	0.246378
H86	H	-0.084459	-0.722774	0.246381
C87	C	-0.000138	-0.753558	0.097298
H88	H	-0.000127	-0.764277	0.045941
H89	H	-0.084443	-0.725006	0.106476
H90	H	0.084199	-0.725022	0.106474
