data_functionalizedCrystal
_audit_creation_method	'MofGen! by Chris Wilmer'
_symmetry_space_group_name_H-M	'P1'
_symmetry_Int_Tables_number	1
_symmetry_cell_setting	triclinic
loop_
_symmetry_equiv_pos_as_xyz
  x,y,z
_cell_length_a	29.839135
_cell_length_b	29.839132
_cell_length_c	16.625539
_cell_angle_alpha	90.034308
_cell_angle_beta	89.976179
_cell_angle_gamma	89.952207
loop_
_atom_site_label
_atom_site_type_symbol
_atom_site_fract_x
_atom_site_fract_y
_atom_site_fract_z
Zn1	Zn	0.686745	0.178822	-0.455946
Zn2	Zn	1.186745	0.678822	0.044054
Zn3	Zn	0.686661	0.253953	-0.321099
Zn4	Zn	1.186661	0.753953	0.178901
Zn5	Zn	0.611616	0.178841	-0.321119
Zn6	Zn	1.111616	0.678841	0.178881
Zn7	Zn	0.611570	0.253929	-0.455881
Zn8	Zn	1.111570	0.753929	0.044119
O9	O	0.649148	0.216386	-0.388511
O10	O	1.149148	0.716386	0.111489
O11	O	0.749601	0.188791	-0.438077
O12	O	1.249601	0.688791	0.061923
O13	O	0.676690	0.244007	-0.208269
O14	O	1.176690	0.744007	0.291731
O15	O	0.621637	0.115972	-0.339039
O16	O	1.121637	0.615972	0.160961
O17	O	0.749539	0.243989	-0.339005
O18	O	1.249539	0.743989	0.160995
O19	O	0.676833	0.115958	-0.438096
O20	O	1.176833	0.615958	0.061904
O21	O	0.621556	0.188823	-0.208283
O22	O	1.121556	0.688823	0.291717
O23	O	0.548743	0.188800	-0.338976
O24	O	1.048743	0.688800	0.161024
O25	O	0.621558	0.243948	-0.568722
O26	O	1.121558	0.743948	-0.068722
O27	O	0.548709	0.243967	-0.437986
O28	O	1.048709	0.743967	0.062014
O29	O	0.676788	0.188767	-0.568770
O30	O	1.176788	0.688767	-0.068770
O31	O	0.676645	0.316817	-0.338943
O32	O	1.176645	0.816817	0.161057
O33	O	0.621477	0.316800	-0.437966
O34	O	1.121477	0.816800	0.062034
C35	C	0.532425	0.216383	-0.388477
C36	C	1.032425	0.716383	0.111523
C37	C	0.482491	0.216392	-0.388481
C38	C	0.982491	0.716392	0.111519
C39	C	0.172877	0.187688	-0.440173
C40	C	0.672877	0.687688	0.059827
C41	C	-0.014796	0.187691	-0.440196
C42	C	0.485204	0.687691	0.059804
O43	O	-0.039036	0.163276	-0.484109
O44	O	0.460964	0.663276	0.015891
N45	N	-0.038294	0.216387	-0.388541
N46	N	0.461706	0.716387	0.111459
C47	C	-0.014871	0.245082	-0.336872
C48	C	0.485129	0.745082	0.163128
O49	O	-0.039163	0.269486	-0.292930
O50	O	0.460837	0.769486	0.207070
C51	C	0.172802	0.245076	-0.336845
C52	C	0.672802	0.745076	0.163155
C53	C	0.196297	0.216382	-0.388510
C54	C	0.696297	0.716382	0.111490
C55	C	0.196372	0.158996	-0.491834
C56	C	0.696372	0.658996	0.008166
C57	C	0.243288	0.158997	-0.491830
C58	C	0.743288	0.658997	0.008170
C59	C	0.266708	0.187691	-0.440167
C60	C	0.766708	0.687691	0.059833
C61	C	0.243212	0.216383	-0.388507
C62	C	0.743212	0.716383	0.111493
C63	C	0.196224	0.273768	-0.285173
C64	C	0.696224	0.773768	0.214827
C65	C	0.243145	0.273763	-0.285169
C66	C	0.743145	0.773763	0.214831
C67	C	0.266640	0.245069	-0.336834
C68	C	0.766640	0.745069	0.163166
C69	C	0.313548	0.245078	-0.336841
C70	C	0.813548	0.745078	0.163159
N71	N	0.337046	0.216382	-0.388496
N72	N	0.837046	0.716382	0.111504
C73	C	0.313625	0.187689	-0.440160
C74	C	0.813625	0.687689	0.059840
C75	C	-0.113401	0.245083	-0.336890
C76	C	0.386599	0.745083	0.163110
C77	C	-0.160319	0.245085	-0.336898
C78	C	0.339681	0.745085	0.163102
C79	C	-0.160242	0.187694	-0.440222
C80	C	0.339758	0.687694	0.059778
C81	C	-0.113323	0.187695	-0.440218
C82	C	0.386677	0.687695	0.059782
C83	C	-0.089904	0.216388	-0.388546
C84	C	0.410096	0.716388	0.111454
C85	C	0.412151	0.187694	-0.440150
C86	C	0.912151	0.687694	0.059850
C87	C	0.459071	0.187699	-0.440144
C88	C	0.959071	0.687699	0.059856
C89	C	0.458989	0.245088	-0.336818
C90	C	0.958989	0.745088	0.163182
C91	C	0.412074	0.245085	-0.336826
C92	C	0.912074	0.745085	0.163174
C93	C	0.388656	0.216384	-0.388494
C94	C	0.888656	0.716384	0.111506
O95	O	0.337817	0.269477	-0.292945
O96	O	0.837817	0.769477	0.207055
O97	O	0.337926	0.163281	-0.484082
O98	O	0.837926	0.663281	0.015918
C99	C	0.125961	0.187687	-0.440177
C100	C	0.625961	0.687687	0.059823
C101	C	0.102466	0.216379	-0.388516
C102	C	0.602466	0.716379	0.111484
C103	C	0.125886	0.245073	-0.336853
C104	C	0.625886	0.745073	0.163147
C105	C	0.055548	0.216381	-0.388524
C106	C	0.555548	0.716381	0.111476
C107	C	0.032128	0.187688	-0.440187
C108	C	0.532128	0.687688	0.059813
C109	C	0.055626	0.158992	-0.491843
C110	C	0.555626	0.658992	0.008157
C111	C	0.102541	0.158993	-0.491840
C112	C	0.602541	0.658993	0.008160
C113	C	0.102388	0.273768	-0.285197
C114	C	0.602388	0.773768	0.214803
C115	C	0.055473	0.273765	-0.285205
C116	C	0.555473	0.773765	0.214795
C117	C	0.032053	0.245072	-0.336869
C118	C	0.532053	0.745072	0.163131
C119	C	0.649059	0.333109	-0.388463
C120	C	1.149059	0.833109	0.111537
C121	C	0.649062	0.383043	-0.388469
C122	C	1.149062	0.883043	0.111531
C123	C	0.677895	0.692683	-0.336992
C124	C	1.177895	1.192683	0.163008
C125	C	0.677938	0.880356	-0.337010
C126	C	1.177938	1.380356	0.162990
O127	O	0.702404	0.904618	-0.293227
O128	O	1.202404	1.404618	0.206773
N129	N	0.649195	0.903828	-0.388524
N130	N	1.149195	1.403828	0.111476
C131	C	0.620442	0.880380	-0.440041
C132	C	1.120442	1.380380	0.059959
O133	O	0.595999	0.904650	-0.483864
O134	O	1.095999	1.404650	0.016136
C135	C	0.620402	0.692707	-0.440026
C136	C	1.120402	1.192707	0.059974
C137	C	0.649143	0.669238	-0.388503
C138	C	1.149143	1.169238	0.111497
C139	C	0.706634	0.669214	-0.285473
C140	C	1.206634	1.169214	0.214527
C141	C	0.706621	0.622298	-0.285466
C142	C	1.206621	1.122298	0.214534
C143	C	0.677869	0.598852	-0.336977
C144	C	1.177869	1.098852	0.163023
C145	C	0.649130	0.622322	-0.388496
C146	C	1.149130	1.122322	0.111504
C147	C	0.591651	0.669259	-0.491547
C148	C	1.091651	1.169259	0.008453
C149	C	0.591644	0.622338	-0.491540
C150	C	1.091644	1.122338	0.008460
C151	C	0.620385	0.598868	-0.440017
C152	C	1.120385	1.098868	0.059983
C153	C	0.620365	0.551961	-0.440000
C154	C	1.120365	1.051961	0.060000
N155	N	0.649108	0.528489	-0.388486
N156	N	1.149108	1.028489	0.111514
C157	C	0.677860	0.551935	-0.336974
C158	C	1.177860	1.051935	0.163026
C159	C	0.620464	0.978910	-0.440044
C160	C	1.120464	1.478910	0.059956
C161	C	0.620474	1.025828	-0.440047
C162	C	1.120474	1.525828	0.059953
C163	C	0.677970	1.025802	-0.337016
C164	C	1.177970	1.525802	0.162984
C165	C	0.677958	0.978883	-0.337010
C166	C	1.177958	1.478883	0.162990
C167	C	0.649207	0.955438	-0.388530
C168	C	1.149207	1.455438	0.111470
C169	C	0.677831	0.453409	-0.336963
C170	C	1.177831	0.953409	0.163037
C171	C	0.677814	0.406489	-0.336958
C172	C	1.177814	0.906489	0.163042
C173	C	0.620319	0.406520	-0.439991
C174	C	1.120319	0.906520	0.060009
C175	C	0.620334	0.453435	-0.439993
C176	C	1.120334	0.953435	0.060007
C177	C	0.649093	0.476879	-0.388477
C178	C	1.149093	0.976879	0.111523
O179	O	0.595916	0.527670	-0.483766
O180	O	1.095916	1.027670	0.016234
O181	O	0.702306	0.527656	-0.293171
O182	O	1.202306	1.027656	0.206829
C183	C	0.677907	0.739599	-0.336999
C184	C	1.177907	1.239599	0.163001
C185	C	0.649168	0.763069	-0.388517
C186	C	1.149168	1.263069	0.111483
C187	C	0.620416	0.739623	-0.440029
C188	C	1.120416	1.239623	0.059971
C189	C	0.649178	0.809986	-0.388520
C190	C	1.149178	1.309986	0.111480
C191	C	0.677930	0.833432	-0.337009
C192	C	1.177930	1.333432	0.162991
C193	C	0.706672	0.809960	-0.285494
C194	C	1.206672	1.309960	0.214506
C195	C	0.706659	0.763044	-0.285487
C196	C	1.206659	1.263044	0.214513
C197	C	0.591674	0.763095	-0.491543
C198	C	1.091674	1.263095	0.008457
C199	C	0.591689	0.810010	-0.491545
C200	C	1.091689	1.310010	0.008455
C201	C	0.620440	0.833456	-0.440034
C202	C	1.120440	1.333456	0.059966
C203	C	0.766326	0.216390	-0.388546
C204	C	1.266326	0.716390	0.111454
C205	C	0.816261	0.216392	-0.388561
C206	C	1.316261	0.716392	0.111439
C207	C	0.649177	0.216353	-0.598820
C208	C	1.149177	0.716353	-0.098820
C209	C	0.649190	0.216339	-0.688441
C210	C	1.149190	0.716339	-0.188441
C211	C	0.649233	1.099208	-0.388559
C212	C	1.149233	1.599208	0.111441
C213	C	0.649226	1.049274	-0.388536
C214	C	1.149226	1.549274	0.111464
C215	C	0.649210	0.216288	-1.016617
C216	C	1.149210	0.716288	-0.516617
C217	C	0.649203	0.216304	-0.925308
C218	C	1.149203	0.716304	-0.425308
C219	C	0.649200	0.216314	-0.852532
C220	C	1.149200	0.716314	-0.352532
C221	C	0.649193	0.216329	-0.761218
C222	C	1.149193	0.716329	-0.261218
C223	C	0.649145	0.216387	-0.179020
C224	C	1.149145	0.716387	0.320980
C225	C	0.649219	0.216275	-0.089400
C226	C	1.149219	0.716275	0.410600
H227	H	0.393090	0.164321	-0.482221
H228	H	0.893090	0.664321	0.017779
H229	H	0.730050	0.688298	-0.243526
H230	H	1.230050	1.188298	0.256474
H231	H	0.121667	0.135627	-0.533910
H232	H	0.621667	0.635627	-0.033910
H233	H	0.596909	0.387423	-0.481929
H234	H	1.096909	0.887423	0.018071
H235	H	0.177102	0.297134	-0.243101
H236	H	0.677102	0.797134	0.256899
H237	H	0.036549	0.135630	-0.533912
H238	H	0.536549	0.635630	-0.033912
Br239	Br	0.275167	0.120052	-0.561949
Br240	Br	0.775167	0.620052	-0.061949
Br241	Br	0.274926	0.312706	-0.215040
Br242	Br	0.774926	0.812706	0.284960
Br243	Br	0.581317	0.485288	-0.509899
Br244	Br	1.081317	0.985288	-0.009899
H245	H	0.177308	0.135628	-0.533904
H246	H	0.677308	0.635628	-0.033904
H247	H	0.730082	0.829058	-0.243550
H248	H	1.230082	1.329058	0.256450
H249	H	0.568261	0.744009	-0.533491
H250	H	1.068261	1.244009	-0.033491
Br251	Br	-0.192200	0.284035	-0.266788
Br252	Br	0.307800	0.784035	0.233212
H253	H	0.121452	0.297134	-0.243125
H254	H	0.621452	0.797134	0.256875
H255	H	-0.094338	0.268450	-0.294811
H256	H	0.405662	0.768450	0.205189
H257	H	0.730063	0.743939	-0.243532
H258	H	1.230063	1.243939	0.256468
Br259	Br	0.581441	0.947099	-0.509971
Br260	Br	1.081441	1.447099	-0.009971
H261	H	0.392943	0.268455	-0.294765
H262	H	0.892943	0.768455	0.205235
Br263	Br	0.716965	0.947036	-0.267083
Br264	Br	1.216965	1.447036	0.232917
H265	H	0.478066	0.268451	-0.294756
H266	H	0.978066	0.768451	0.205244
Br267	Br	0.552677	0.841856	-0.561475
Br268	Br	1.052677	1.341856	-0.061475
Br269	Br	0.023592	0.312711	-0.215081
Br270	Br	0.523592	0.812711	0.284919
Br271	Br	-0.081441	0.148751	-0.510336
Br272	Br	0.418559	0.648751	-0.010336
H273	H	-0.179318	0.164331	-0.482288
H274	H	0.320682	0.664331	0.017712
H275	H	0.701218	0.387382	-0.294998
H276	H	1.201218	0.887382	0.205002
H277	H	0.701250	0.472491	-0.295015
H278	H	1.201250	0.972491	0.204985
H279	H	0.730026	0.603192	-0.243513
H280	H	1.230026	1.103192	0.256487
H281	H	0.568245	0.688360	-0.533499
H282	H	1.068245	1.188360	-0.033499
Br283	Br	0.716989	1.057630	-0.267105
Br284	Br	1.216989	1.557630	0.232895
H285	H	0.568232	0.603252	-0.533496
H286	H	1.068232	1.103252	-0.033496
Br287	Br	0.490955	0.148756	-0.510270
Br288	Br	0.990955	0.648756	-0.010270
H289	H	0.597066	1.044933	-0.481995
H290	H	1.097066	1.544933	0.018005
