data_functionalizedCrystal
_audit_creation_method	'MofGen! by Chris Wilmer'
_symmetry_space_group_name_H-M	'P1'
_symmetry_Int_Tables_number	1
_symmetry_cell_setting	triclinic
loop_
_symmetry_equiv_pos_as_xyz
  x,y,z
_cell_length_a	11.026607
_cell_length_b	15.538191
_cell_length_c	9.482900
_cell_angle_alpha	84.377304
_cell_angle_beta	101.363848
_cell_angle_gamma	77.929055
loop_
_atom_site_label
_atom_site_type_symbol
_atom_site_fract_x
_atom_site_fract_y
_atom_site_fract_z
O1	O	1.472126	0.356312	0.120861
O2	O	1.137231	0.314516	0.120867
O3	O	1.369870	0.209339	0.120870
O4	O	1.239487	0.461490	0.120859
O5	O	1.322567	0.230813	-0.120923
O6	O	1.089928	0.335990	-0.120926
O7	O	1.424823	0.377786	-0.120932
Cu8	Cu	1.253057	0.358849	-0.143006
Cu9	Cu	1.308998	0.333454	0.142942
O10	O	1.192184	0.482963	-0.120934
C11	C	1.071765	0.317542	-0.000028
C12	C	0.947176	0.294556	-0.000025
C13	C	1.359861	0.187293	-0.000022
C14	C	1.400496	0.089608	-0.000008
C15	C	0.845415	0.358024	-0.000027
C16	C	0.716645	0.334268	-0.000024
C17	C	0.996815	-0.266633	-0.000032
C18	C	1.035024	-0.358419	-0.000036
C19	C	1.249941	-0.344417	-0.000039
C20	C	1.211752	-0.252629	-0.000028
C21	C	1.085187	-0.213744	-0.000026
C22	C	1.300124	-0.199740	-0.000022
C23	C	1.261936	-0.107958	-0.000019
C24	C	1.135376	-0.069066	-0.000021
C25	C	1.046999	-0.121963	-0.000023
C26	C	1.426686	-0.238625	-0.000035
C27	C	1.515058	-0.185736	-0.000029
C28	C	1.476872	-0.093954	-0.000015
C29	C	1.350312	-0.055062	-0.000017
C30	C	1.565249	-0.041058	-0.000013
C31	C	1.527061	0.050724	-0.000010
C32	C	1.312124	0.036719	-0.000014
C33	C	1.490290	0.374760	-0.000033
C34	C	1.614881	0.397745	-0.000026
C35	C	1.202194	0.505009	-0.000039
C36	C	1.161561	0.602693	-0.000043
N37	N	1.213720	0.376711	-0.344127
C38	C	1.297389	0.338716	-0.416325
C39	C	1.264665	0.353586	-0.583743
N40	N	1.348347	0.315586	0.344063
H41	H	0.853624	0.429947	-0.000039
F42	F	1.088419	0.433613	-0.425331
F43	F	0.705926	0.240253	-0.000030
F44	F	0.936450	0.200546	-0.000031
F45	F	1.094730	0.028618	-0.000030
H46	H	1.618106	-0.217408	-0.000036
F47	F	0.862113	-0.225246	-0.000016
F48	F	1.473775	0.258853	-0.574742
H49	H	0.943940	-0.090302	-0.000010
H50	H	1.393246	0.295175	-0.354196
F51	F	0.625591	0.491762	-0.000048
F52	F	1.177422	0.078107	0.000002
F53	F	1.467324	-0.336308	-0.000048
H54	H	0.963047	-0.401478	-0.000062
F55	F	1.384634	-0.385810	-0.000052
F56	F	1.699938	-0.082451	-0.000039
H57	H	1.599022	0.093788	-0.000007
H58	H	1.168797	0.397122	-0.645869
