data_functionalizedCrystal
_audit_creation_method	'MofGen! by Chris Wilmer'
_symmetry_space_group_name_H-M	'P1'
_symmetry_Int_Tables_number	1
_symmetry_cell_setting	triclinic
loop_
_symmetry_equiv_pos_as_xyz
  x,y,z
_cell_length_a	12.759401
_cell_length_b	19.121063
_cell_length_c	12.759393
_cell_angle_alpha	92.402665
_cell_angle_beta	89.982620
_cell_angle_gamma	92.469017
loop_
_atom_site_label
_atom_site_type_symbol
_atom_site_fract_x
_atom_site_fract_y
_atom_site_fract_z
Zn1	Zn	1.588309	-0.279567	-0.611771
Zn2	Zn	1.580672	-0.397036	-0.443566
Zn3	Zn	1.412612	-0.279604	-0.436113
Zn4	Zn	1.405068	-0.396981	-0.619204
O5	O	1.496665	-0.338297	-0.527664
O6	O	1.734317	-0.295157	-0.589467
O7	O	1.558339	-0.381497	-0.295559
O8	O	1.442273	-0.181315	-0.453184
O9	O	1.728705	-0.381461	-0.465888
O10	O	1.571357	-0.181288	-0.582240
O11	O	1.434867	-0.295220	-0.290083
O12	O	1.264591	-0.295167	-0.460392
O13	O	1.429414	-0.381368	-0.765237
O14	O	1.259048	-0.381404	-0.594908
O15	O	1.564041	-0.295104	-0.759776
O16	O	1.551023	-0.495313	-0.473095
O17	O	1.422008	-0.495273	-0.602136
C18	C	1.223699	-0.338284	-0.527649
C19	C	1.106921	-0.338295	-0.527668
C20	C	1.049196	-0.383271	-0.597604
C21	C	0.939471	-0.383280	-0.597616
C22	C	0.945207	-0.293336	-0.457747
C23	C	1.054930	-0.293324	-0.457741
C24	C	1.101187	-0.428242	-0.667532
C25	C	1.043462	-0.473222	-0.737473
C26	C	0.933737	-0.473231	-0.737485
C27	C	0.881738	-0.428260	-0.667556
C28	C	1.484897	-0.520777	-0.539254
C29	C	1.479958	-0.598842	-0.544247
C30	C	1.544862	-0.635515	-0.479464
C31	C	1.540223	-0.708866	-0.484167
C32	C	1.470675	-0.745543	-0.553647
C33	C	1.405769	-0.708865	-0.618437
C34	C	1.410414	-0.635515	-0.613740
C35	C	1.453294	-0.967011	-0.571195
C36	C	1.448652	-1.040366	-0.575886
C37	C	1.583108	-1.040362	-0.441616
C38	C	1.587742	-0.967011	-0.436920
C39	C	1.522840	-0.930340	-0.501714
C40	C	1.465930	-0.820519	-0.558453
C41	C	1.527591	-0.855365	-0.496912
C42	C	1.770698	-0.338311	-0.527680
C43	C	1.887474	-0.338316	-0.527686
C44	C	1.496738	-0.338226	-0.801693
C45	C	1.496769	-0.338195	-0.918468
C46	C	1.508508	-0.155105	-0.516052
C47	C	1.513555	-0.077039	-0.511103
C48	C	1.432506	-0.293262	-0.970484
C49	C	1.432539	-0.293242	-1.080207
C50	C	1.561107	-0.383088	-1.085887
C51	C	1.561068	-0.383112	-0.976167
C52	C	1.368207	-0.248346	-0.912784
C53	C	1.303940	-0.203409	-0.964800
C54	C	1.303973	-0.203388	-1.074523
C55	C	1.368274	-0.248304	-1.132230
C56	C	1.496656	-0.338318	-0.254698
C57	C	1.496842	-0.338150	-0.137911
H58	H	0.886740	-0.509850	-0.794441
Br59	Br	1.648274	-0.444098	-0.905567
H60	H	1.190530	-0.428241	-0.667528
H61	H	1.613460	-0.419655	-1.132881
H62	H	1.368293	-0.248285	-1.221574
H63	H	1.101932	-0.256696	-0.400800
Br64	Br	1.216674	-0.142459	-0.886489
Br65	Br	0.732825	-0.428266	-0.667585
H66	H	1.392030	-1.070226	-0.632484
Br67	Br	1.671189	-1.090135	-0.353692
Br68	Br	1.114028	-0.534244	-0.832380
H69	H	1.368175	-0.248356	-0.823442
H70	H	1.644373	-0.937151	-0.380343
H71	H	1.251636	-0.166803	-1.116872
Br72	Br	1.371548	-0.870301	-0.652748
Br73	Br	1.311390	-0.758639	-0.712743
Br74	Br	0.874638	-0.232309	-0.362849
Br75	Br	1.322334	-0.585744	-0.701669
H76	H	1.601490	-0.605658	-0.422881
H77	H	1.593074	-0.738722	-0.431413
Br78	Br	1.621981	-0.805588	-0.402627
H79	H	1.400446	-0.937159	-0.623951
