data_functionalizedCrystal
_audit_creation_method	'MofGen! by Chris Wilmer'
_symmetry_space_group_name_H-M	'P1'
_symmetry_Int_Tables_number	1
_symmetry_cell_setting	triclinic
loop_
_symmetry_equiv_pos_as_xyz
  x,y,z
_cell_length_a	14.519709
_cell_length_b	23.532407
_cell_length_c	13.596369
_cell_angle_alpha	89.989360
_cell_angle_beta	90.000291
_cell_angle_gamma	83.264412
loop_
_atom_site_label
_atom_site_type_symbol
_atom_site_fract_x
_atom_site_fract_y
_atom_site_fract_z
O1	O	1.222985	0.074654	-0.081674
O2	O	0.954404	0.083445	-0.081705
O3	O	1.096794	-0.003846	-0.081671
O4	O	1.080596	0.161945	-0.081708
O5	O	1.096780	-0.003850	0.081912
O6	O	0.954390	0.083441	0.081878
O7	O	1.222971	0.074649	0.081909
Zn8	Zn	1.088678	0.079044	0.107866
Zn9	Zn	1.088697	0.079050	-0.107662
O10	O	1.080582	0.161940	0.081874
C11	C	0.920042	0.083033	0.000083
C12	C	0.817676	0.081805	0.000071
C13	C	0.442833	0.077286	0.000117
C14	C	0.547126	0.078541	0.000104
C15	C	0.630251	0.079545	0.000093
C16	C	0.734551	0.080801	0.000082
C17	C	1.096374	-0.025066	0.000123
C18	C	1.095134	-0.088288	0.000131
C19	C	1.171619	-0.487046	0.000086
C20	C	1.170467	-0.546452	0.000078
O21	O	1.241369	-0.582876	0.000050
N22	N	1.085816	-0.569460	0.000069
C23	C	1.002312	-0.533059	0.000057
O24	O	0.930205	-0.558084	0.000048
C25	C	1.003465	-0.473655	0.000058
C26	C	1.088121	-0.450650	0.000077
C27	C	1.256268	-0.464041	0.000104
C28	C	1.257420	-0.404640	0.000113
C29	C	1.173922	-0.368244	0.000105
C30	C	1.089273	-0.391249	0.000087
C31	C	0.919962	-0.437255	0.000039
C32	C	0.921123	-0.377847	0.000039
C33	C	1.005779	-0.354843	0.000058
C34	C	1.006927	-0.295451	0.000087
N35	N	1.091578	-0.272443	0.000097
C36	C	1.175075	-0.308839	0.000105
C37	C	0.999897	-0.657813	0.000055
C38	C	0.998743	-0.717216	0.000061
C39	C	1.166898	-0.730604	0.000080
C40	C	1.168051	-0.671200	0.000080
C41	C	1.084548	-0.634804	0.000064
C42	C	1.177487	-0.184092	0.000126
C43	C	1.178632	-0.124685	0.000139
C44	C	1.010477	-0.111301	0.000115
C45	C	1.009332	-0.170703	0.000107
C46	C	1.092845	-0.207098	0.000109
O47	O	0.936062	-0.258992	0.000111
O48	O	1.247171	-0.283806	0.000102
C49	C	1.257333	0.075061	0.000119
C50	C	1.359700	0.076289	0.000124
C51	C	1.081001	0.183160	0.000078
C52	C	1.082241	0.246383	0.000064
N53	N	1.088673	0.079040	0.254958
N54	N	1.088710	0.079050	-0.254754
C55	C	1.088696	0.079051	0.656248
C56	C	1.088686	0.079050	0.544597
C57	C	1.088685	0.079046	0.455607
C58	C	1.088674	0.079044	0.343948
H59	H	1.247572	-0.105958	0.000158
O60	O	0.929287	-0.076022	0.000143
C61	C	0.854316	-0.109059	0.000096
H62	H	0.878124	-0.153372	0.031075
H63	H	0.828361	-0.113310	-0.078392
C64	C	0.746079	-0.025122	0.026172
C65	C	0.775319	-0.079546	0.064228
H66	H	0.697348	-0.006917	0.065728
H67	H	0.796588	-0.002864	0.026200
H68	H	0.724456	-0.028672	-0.039234
H69	H	0.796952	-0.075995	0.129628
H70	H	0.724812	-0.101804	0.064213
H71	H	1.245491	-0.213718	0.000124
O72	O	1.339736	-0.382392	0.000080
C73	C	1.413175	-0.427264	0.000109
H74	H	1.387695	-0.467639	-0.030864
H75	H	1.438899	-0.435652	0.078590
C76	C	1.524363	-0.360818	-0.025994
C77	C	1.493070	-0.410407	-0.064043
H78	H	1.573648	-0.350420	-0.065562
H79	H	1.474887	-0.330587	-0.026010
H80	H	1.545793	-0.367815	0.039406
H81	H	1.471630	-0.403407	-0.129437
H82	H	1.542545	-0.440637	-0.064040
H83	H	0.853122	-0.348216	0.000024
O84	O	1.337361	-0.499414	-0.000060
C85	C	1.341743	-0.534181	-0.084766
H86	H	1.294382	-0.512481	-0.143992
H87	H	1.318297	-0.577409	-0.065614
C88	C	1.500349	-0.569726	-0.050418
C89	C	1.442185	-0.543072	-0.123164
H90	H	1.562306	-0.575214	-0.074102
H91	H	1.497396	-0.546306	0.006652
H92	H	1.480799	-0.605748	-0.034464
H93	H	1.461727	-0.507049	-0.139107
H94	H	1.445143	-0.566488	-0.180237
O95	O	1.247926	-0.766047	0.000033
C96	C	1.228746	-0.823410	0.000047
H97	H	1.156330	-0.825757	-0.030924
H98	H	1.232402	-0.840598	0.078523
C99	C	1.389620	-0.856797	-0.026071
C100	C	1.300680	-0.859680	-0.064118
H101	H	1.433994	-0.879172	-0.065647
H102	H	1.402543	-0.818151	-0.026077
H103	H	1.392653	-0.871120	0.039325
H104	H	1.297644	-0.845351	-0.129508
H105	H	1.287758	-0.898325	-0.064125
O106	O	0.916485	-0.739531	-0.000121
C107	C	0.865619	-0.720913	-0.084834
H108	H	0.915139	-0.708496	-0.144041
H109	H	0.813871	-0.682256	-0.065681
C110	C	0.752249	-0.784821	-0.050546
C111	C	0.813070	-0.769574	-0.123268
H112	H	0.719830	-0.814836	-0.074252
H113	H	0.786515	-0.797363	0.006529
H114	H	0.709133	-0.752602	-0.034592
H115	H	0.856191	-0.801791	-0.139212
H116	H	0.778810	-0.757039	-0.180347
H117	H	0.931894	-0.628182	0.000049
O118	O	0.837645	-0.459498	-0.000027
C119	C	0.764208	-0.414624	-0.000017
H120	H	0.789699	-0.374242	-0.030974
H121	H	0.738466	-0.406255	0.078457
C122	C	0.653022	-0.481061	-0.026169
C123	C	0.684328	-0.431464	-0.064199
H124	H	0.603747	-0.491448	-0.065756
H125	H	0.702497	-0.511293	-0.026173
H126	H	0.631577	-0.474080	0.039225
H127	H	0.705784	-0.438447	-0.129587
H128	H	0.634855	-0.401233	-0.064208
H129	H	1.236985	-0.652474	0.000095
O130	O	0.927159	-0.193122	-0.000034
C131	C	0.921461	-0.227055	-0.084778
H132	H	0.994289	-0.241762	-0.113016
H133	H	0.880420	-0.200845	-0.144102
C134	C	0.782849	-0.261598	-0.024385
C135	C	0.872298	-0.279665	-0.059062
H136	H	0.752519	-0.294049	-0.008524
H137	H	0.786685	-0.238736	0.032708
H138	H	0.748660	-0.239756	-0.073827
H139	H	0.906488	-0.301500	-0.009616
H140	H	0.868466	-0.302533	-0.116146
