data_functionalizedCrystal
_audit_creation_method	'MofGen! by Chris Wilmer'
_symmetry_space_group_name_H-M	'P1'
_symmetry_Int_Tables_number	1
_symmetry_cell_setting	triclinic
loop_
_symmetry_equiv_pos_as_xyz
  x,y,z
_cell_length_a	19.188931
_cell_length_b	19.288865
_cell_length_c	18.366186
_cell_angle_alpha	90.011479
_cell_angle_beta	89.992482
_cell_angle_gamma	96.859486
loop_
_atom_site_label
_atom_site_type_symbol
_atom_site_fract_x
_atom_site_fract_y
_atom_site_fract_z
O1	O	0.926143	-0.086718	-0.060532
O2	O	1.426143	0.413282	0.439468
O3	O	0.722831	-0.098391	-0.060540
O4	O	1.222831	0.401609	0.439460
O5	O	0.830361	0.008575	-0.060521
O6	O	1.330361	0.508575	0.439479
O7	O	0.818612	-0.193684	-0.060551
O8	O	1.318612	0.306316	0.439449
O9	O	0.830343	0.008581	0.060578
O10	O	1.330343	0.508581	0.560578
O11	O	0.722812	-0.098386	0.060559
O12	O	1.222812	0.401614	0.560559
O13	O	0.926124	-0.086713	0.060568
O14	O	1.426124	0.413287	0.560568
Zn15	Zn	0.824466	-0.092548	0.079791
Zn16	Zn	1.324466	0.407452	0.579791
Zn17	Zn	0.824490	-0.092555	-0.079763
Zn18	Zn	1.324490	0.407445	0.420237
O19	O	0.818594	-0.193679	0.060549
O20	O	1.318594	0.306321	0.560549
C21	C	0.696810	-0.098011	0.000009
C22	C	1.196810	0.401989	0.500009
C23	C	0.619306	-0.096876	0.000006
C24	C	1.119306	0.403124	0.500006
C25	C	0.829974	0.034454	0.000031
C26	C	1.329974	0.534454	0.500031
C27	C	0.828839	0.111558	0.000037
C28	C	1.328839	0.611558	0.500037
C29	C	0.952145	-0.087093	0.000017
C30	C	1.452145	0.412907	0.500017
C31	C	1.029649	-0.088228	0.000015
C32	C	1.529649	0.411772	0.500015
C33	C	1.074578	-0.025463	0.000018
C34	C	1.574578	0.474537	0.500018
C35	C	1.147401	-0.026530	0.000022
C36	C	1.647401	0.473470	0.500022
C37	C	1.175293	-0.090364	0.000009
C38	C	1.675293	0.409636	0.500009
C39	C	1.130355	-0.153137	0.000010
C40	C	1.630355	0.346863	0.500010
C41	C	1.057533	-0.152069	0.000013
C42	C	1.557533	0.347931	0.500013
N43	N	1.283290	-0.139159	-0.041223
N44	N	1.783290	0.360841	0.458777
N45	N	1.352469	-0.140169	-0.041227
N46	N	1.852469	0.359831	0.458773
C47	C	1.394702	-0.093585	0.000001
C48	C	1.894702	0.406415	0.500001
N49	N	1.365144	-0.045942	0.041225
N50	N	1.865144	0.454058	0.541225
N51	N	1.295959	-0.044930	0.041226
N52	N	1.795959	0.455070	0.541226
C53	C	1.254256	-0.091529	0.000006
C54	C	1.754256	0.408471	0.500006
C55	C	1.518595	-0.031972	0.000009
C56	C	2.018595	0.468028	0.500009
C57	C	1.591419	-0.033041	0.000018
C58	C	2.091419	0.466959	0.500018
C59	C	1.574371	-0.159650	-0.000001
C60	C	2.074371	0.340350	0.499999
C61	C	1.501548	-0.158579	-0.000002
C62	C	2.001548	0.341421	0.499998
C63	C	1.473664	-0.094739	-0.000001
C64	C	1.973664	0.405261	0.499999
C65	C	0.818981	-0.219558	-0.000005
C66	C	1.318981	0.280442	0.499995
C67	C	0.820116	-0.296662	-0.000016
C68	C	1.320116	0.203338	0.499984
N69	N	0.824454	-0.092543	0.188682
N70	N	1.324454	0.407457	0.688682
C71	C	0.891934	0.156250	0.000043
C72	C	1.391934	0.656250	0.500043
C73	C	0.890867	0.228697	0.000032
C74	C	1.390867	0.728697	0.500032
C75	C	0.826703	0.256449	0.000028
C76	C	1.326703	0.756449	0.500028
C77	C	0.763601	0.211748	0.000018
C78	C	1.263601	0.711748	0.500018
C79	C	0.764669	0.139302	0.000022
C80	C	1.264669	0.639302	0.500022
C81	C	0.776257	0.364742	0.042445
C82	C	1.276257	0.864742	0.542445
C83	C	0.775191	0.437187	0.042445
C84	C	1.275191	0.937187	0.542445
C85	C	0.823407	0.479895	0.000012
C86	C	1.323407	0.979895	0.500012
C87	C	0.872699	0.450151	-0.042412
C88	C	1.372699	0.950151	0.457588
C89	C	0.873767	0.377706	-0.042408
C90	C	1.373767	0.877706	0.457592
C91	C	0.825538	0.335003	0.000023
C92	C	1.325538	0.835003	0.500023
C93	C	0.885349	0.603143	0.000005
C94	C	1.385349	1.103143	0.500005
C95	C	0.884280	0.675591	-0.000011
C96	C	1.384280	1.175591	0.499989
C97	C	0.757012	0.658640	-0.000018
C98	C	1.257012	1.158640	0.499982
C99	C	0.758083	0.586194	-0.000009
C100	C	1.258083	1.086194	0.499991
C101	C	0.822253	0.558449	0.000006
C102	C	1.322253	1.058449	0.500006
N103	N	0.824506	-0.092555	-0.188654
N104	N	1.324506	0.407445	0.311346
C105	C	0.872084	-0.045202	0.226790
C106	C	1.372084	0.454798	0.726790
C107	C	0.872089	-0.045199	0.303018
C108	C	1.372089	0.454801	0.803018
C109	C	0.824470	-0.092549	0.341134
C110	C	1.324470	0.407451	0.841134
C111	C	0.776831	-0.139894	0.303017
C112	C	1.276831	0.360106	0.803017
C113	C	0.776823	-0.139891	0.226790
C114	C	1.276823	0.360109	0.726790
C115	C	0.815123	-0.155836	0.461885
C116	C	1.315123	0.344164	0.961885
C117	C	0.815136	-0.155840	0.538110
C118	C	1.315136	0.344160	1.038110
C119	C	0.824490	-0.092558	0.576242
C120	C	1.324490	0.407442	1.076242
C121	C	0.833846	-0.029269	0.538139
C122	C	1.333846	0.470731	1.038139
C123	C	0.833838	-0.029266	0.461913
C124	C	1.333838	0.470734	0.961913
C125	C	0.824473	-0.092557	0.423789
C126	C	1.324473	0.407443	0.923789
C127	C	0.872127	-0.045209	0.697006
C128	C	1.372127	0.454791	1.197006
C129	C	0.872127	-0.045205	0.773235
C130	C	1.372127	0.454795	1.273235
C131	C	0.776872	-0.139907	0.773232
C132	C	1.276872	0.360093	1.273232
C133	C	0.776869	-0.139905	0.697004
C134	C	1.276869	0.360095	1.197004
C135	C	0.824500	-0.092556	0.658895
C136	C	1.324500	0.407444	1.158895
H137	H	1.051880	0.026521	0.000022
H138	H	1.551880	0.526521	0.500022
C139	C	0.655842	-0.180974	0.326513
C140	C	1.155842	0.319026	0.826513
C141	C	0.724486	-0.191941	0.344913
C142	C	1.224486	0.308059	0.844913
H143	H	0.623525	-0.213102	0.352382
H144	H	1.123525	0.286898	0.852382
H145	H	0.649023	-0.187751	0.275668
H146	H	1.149023	0.312249	0.775668
H147	H	0.648423	-0.134632	0.339023
H148	H	1.148423	0.365368	0.839023
H149	H	0.731907	-0.238281	0.332398
H150	H	1.231907	0.261719	0.832398
H151	H	0.731307	-0.185169	0.395770
H152	H	1.231307	0.314831	0.895770
H153	H	1.183989	0.024582	0.000022
H154	H	1.683989	0.524582	0.500022
H155	H	0.807494	-0.207372	0.430845
H156	H	1.307494	0.292628	0.930845
C157	C	1.582249	-0.267894	-0.062275
C158	C	2.082249	0.232106	0.437725
C159	C	1.605013	-0.229823	-0.000017
C160	C	2.105013	0.270177	0.499983
H161	H	1.601164	-0.311220	-0.062279
H162	H	2.101164	0.188780	0.437721
H163	H	1.597697	-0.242062	-0.104492
H164	H	2.097697	0.257938	0.395508
H165	H	1.532448	-0.276229	-0.062267
H166	H	2.032448	0.223771	0.437733
H167	H	1.654815	-0.221484	-0.000028
H168	H	2.154815	0.278516	0.499972
H169	H	1.589569	-0.255661	0.042211
H170	H	2.089569	0.244339	0.542211
H171	H	0.738036	-0.178443	0.195761
H172	H	1.238036	0.321557	0.695761
H173	H	0.942248	0.265092	0.000034
H174	H	1.442248	0.765092	0.500034
C175	C	0.790446	0.080289	0.561628
C176	C	1.290446	0.580289	1.061628
C177	C	0.844137	0.040302	0.580035
C178	C	1.344137	0.540302	1.080035
H179	H	0.796808	0.123240	0.587491
H180	H	1.296808	0.623240	1.087491
H181	H	0.746341	0.055421	0.574134
H182	H	1.246341	0.555421	1.074134
H183	H	0.791786	0.089334	0.510775
H184	H	1.291786	0.589334	1.010775
H185	H	0.842794	0.031253	0.630888
H186	H	1.342794	0.531253	1.130888
H187	H	0.888254	0.065176	0.567534
H188	H	1.388254	0.565176	1.067534
H189	H	1.628000	0.018072	0.000026
H190	H	2.128000	0.518072	0.500026
H191	H	1.464966	-0.209689	-0.000009
H192	H	1.964966	0.290311	0.499991
H193	H	0.711358	0.234348	0.000014
H194	H	1.211358	0.734348	0.500014
H195	H	0.713288	0.102913	0.000018
H196	H	1.213288	0.602913	0.500018
C197	C	0.966238	0.048407	0.234456
C198	C	1.466238	0.548407	0.734456
C199	C	0.924433	0.006850	0.184903
C200	C	1.424433	0.506850	0.684903
H201	H	0.998551	0.080545	0.208594
H202	H	1.498551	0.580545	0.708594
H203	H	0.991262	0.019553	0.264169
H204	H	1.491262	0.519553	0.764169
H205	H	0.937252	0.073316	0.264205
H206	H	1.437252	0.573316	0.764205
H207	H	0.953419	-0.018063	0.155157
H208	H	1.453419	0.481937	0.655157
H209	H	0.899407	0.035708	0.155177
H210	H	1.399407	0.535708	0.655177
H211	H	0.910876	-0.006646	0.334052
H212	H	1.410876	0.493354	0.834052
H213	H	1.153069	-0.205111	0.000001
H214	H	1.653069	0.294889	0.500001
H215	H	0.944186	0.133666	0.000052
H216	H	1.444186	0.633666	0.500052
H217	H	1.020951	-0.203181	0.000011
H218	H	1.520951	0.296819	0.500011
C219	C	0.681992	0.730259	-0.062280
C220	C	1.181992	1.230259	0.437720
C221	C	0.686480	0.689137	-0.000024
C222	C	1.186480	1.189137	0.499976
H223	H	0.638449	0.749091	-0.062282
H224	H	1.138449	1.249091	0.437718
H225	H	0.685059	0.702337	-0.104498
H226	H	1.185059	1.202337	0.395502
H227	H	0.719421	0.767245	-0.062272
H228	H	1.219421	1.267245	0.437728
H229	H	0.649055	0.652147	-0.000034
H230	H	1.149055	1.152147	0.499966
H231	H	0.683407	0.717060	0.042206
H232	H	1.183407	1.217060	0.542206
H233	H	1.495891	0.020011	0.000014
H234	H	1.995891	0.520011	0.500014
H235	H	0.913902	0.353492	-0.076952
H236	H	1.413902	0.853492	0.423048
C237	C	0.966276	0.048405	0.704662
C238	C	1.466276	0.548405	1.204662
C239	C	0.924474	0.006842	0.655111
C240	C	1.424474	0.506842	1.155111
H241	H	0.998589	0.080541	0.678798
H242	H	1.498589	0.580541	1.178798
H243	H	0.991300	0.019554	0.734379
H244	H	1.491300	0.519554	1.234379
H245	H	0.937288	0.073315	0.734407
H246	H	1.437288	0.573315	1.234407
H247	H	0.953462	-0.018072	0.625370
H248	H	1.453462	0.481928	1.125370
H249	H	0.899448	0.035696	0.625381
H250	H	1.399448	0.535696	1.125381
H251	H	0.841454	0.022266	0.430893
H252	H	1.341454	0.522266	0.930893
H253	H	0.911961	0.484923	-0.076965
H254	H	1.411961	0.984923	0.423035
C255	C	1.011040	0.627171	-0.000008
C256	C	1.511040	1.127171	0.499992
C257	C	0.955883	0.572640	0.000003
C258	C	1.455883	1.072640	0.500003
H259	H	1.054584	0.608340	-0.000016
H260	H	1.554584	1.108340	0.499984
H261	H	1.007977	0.655084	0.042218
H262	H	1.507977	1.155084	0.542218
H263	H	1.007972	0.655066	-0.042242
H264	H	1.507972	1.155066	0.457758
H265	H	0.958948	0.544749	0.042240
H266	H	1.458948	1.044749	0.542240
H267	H	0.958948	0.544717	-0.042228
H268	H	1.458948	1.044717	0.457772
H269	H	0.735051	0.461398	0.076985
H270	H	1.235051	0.961398	0.576985
H271	H	0.935661	0.711979	-0.000011
H272	H	1.435661	1.211979	0.499989
H273	H	0.738097	-0.178458	0.804265
H274	H	1.238097	0.321542	1.304265
C275	C	0.649945	0.549433	-0.062258
C276	C	1.149945	1.049433	0.437742
C277	C	0.688725	0.537066	-0.000005
C278	C	1.188725	1.037066	0.499995
H279	H	0.607122	0.519106	-0.062254
H280	H	1.107122	1.019106	0.437746
H281	H	0.676270	0.541027	-0.104479
H282	H	1.176270	1.041027	0.395521
H283	H	0.640133	0.596553	-0.062254
H284	H	1.140133	1.096553	0.437746
H285	H	0.698542	0.489947	-0.000012
H286	H	1.198542	0.989947	0.499988
H287	H	0.662395	0.545466	0.042226
H288	H	1.162395	1.045466	0.542226
C289	C	0.654911	0.326238	0.067087
C290	C	1.154911	0.826238	0.567087
C291	C	0.723251	0.317798	0.089088
C292	C	1.223251	0.817798	0.589088
H293	H	0.622189	0.297259	0.095883
H294	H	1.122189	0.797259	0.595883
H295	H	0.648964	0.313537	0.017308
H296	H	1.148964	0.813537	0.517308
H297	H	0.647229	0.373642	0.073163
H298	H	1.147229	0.873642	0.573163
H299	H	0.730935	0.270395	0.083007
H300	H	1.230935	0.770395	0.583007
H301	H	0.729201	0.330494	0.138879
H302	H	1.229201	0.830494	0.638879
C303	C	0.887598	0.049369	0.858968
C304	C	1.387598	0.549369	1.358968
C305	C	0.924486	0.006840	0.815125
C306	C	1.424486	0.506840	1.315125
H307	H	0.919925	0.081502	0.884825
H308	H	1.419925	0.581502	1.384825
H309	H	0.859243	0.021174	0.892574
H310	H	1.359243	0.521174	1.392574
H311	H	0.858620	0.074283	0.829235
H312	H	1.358620	0.574283	1.329235
H313	H	0.953461	-0.018078	0.844859
H314	H	1.453461	0.481922	1.344859
H315	H	0.952854	0.035039	0.781515
H316	H	1.452854	0.535039	1.281515
C317	C	0.682724	-0.233516	0.704660
C318	C	1.182724	0.266484	1.204660
C319	C	0.724519	-0.191952	0.655110
C320	C	1.224519	0.308048	1.155110
H321	H	0.650406	-0.265651	0.678795
H322	H	1.150406	0.234349	1.178795
H323	H	0.657705	-0.204666	0.734402
H324	H	1.157705	0.295334	1.234402
H325	H	0.711716	-0.258428	0.734380
H326	H	1.211716	0.241572	1.234380
H327	H	0.695527	-0.167036	0.625393
H328	H	1.195527	0.332964	1.125393
H329	H	0.749539	-0.220806	0.625355
H330	H	1.249539	0.279194	1.125355
H331	H	0.807522	-0.207373	0.569128
H332	H	1.307522	0.292627	1.069128
