data_functionalizedCrystal
_audit_creation_method	'MofGen! by Chris Wilmer'
_symmetry_space_group_name_H-M	'P1'
_symmetry_Int_Tables_number	1
_symmetry_cell_setting	triclinic
loop_
_symmetry_equiv_pos_as_xyz
  x,y,z
_cell_length_a	12.759401
_cell_length_b	16.625546
_cell_length_c	16.625539
_cell_angle_alpha	90.030397
_cell_angle_beta	90.018781
_cell_angle_gamma	90.023993
loop_
_atom_site_label
_atom_site_type_symbol
_atom_site_fract_x
_atom_site_fract_y
_atom_site_fract_z
Zn1	Zn	1.606187	-0.320967	0.455859
Zn2	Zn	1.606061	-0.455811	0.321021
Zn3	Zn	1.430493	-0.320999	0.321044
Zn4	Zn	1.430454	-0.455765	0.455816
O5	O	1.518299	-0.388386	0.388435
O6	O	1.753192	-0.338860	0.437982
O7	O	1.582735	-0.437960	0.208192
O8	O	1.453868	-0.208163	0.338955
O9	O	1.753099	-0.437929	0.338917
O10	O	1.582950	-0.208139	0.438003
O11	O	1.453746	-0.338914	0.208208
O12	O	1.283466	-0.338871	0.338913
O13	O	1.453802	-0.437852	0.568654
O14	O	1.283438	-0.437883	0.437929
O15	O	1.582913	-0.338816	0.568686
O16	O	1.582698	-0.568637	0.338875
O17	O	1.453680	-0.568604	0.437907
C18	C	1.245331	-0.388376	0.388419
C19	C	1.128555	-0.388391	0.388431
C20	C	1.073706	-0.440025	0.439908
C21	C	0.963982	-0.440028	0.439924
C22	C	0.963966	-0.336761	0.336980
C23	C	1.073688	-0.336754	0.336968
C24	C	1.518199	-0.597876	0.388401
C25	C	1.518253	-0.687498	0.388414
C26	C	1.518436	-1.015673	0.388498
C27	C	1.518382	-0.924365	0.388477
C28	C	1.518344	-0.851588	0.388455
C29	C	1.518291	-0.760274	0.388435
C30	C	1.792332	-0.388396	0.388452
C31	C	1.909109	-0.388401	0.388459
C32	C	1.518367	-0.388326	0.598744
C33	C	1.518396	-0.388300	0.688365
C34	C	1.518427	-0.178077	0.388487
C35	C	1.518482	-0.088456	0.388509
C36	C	1.518291	-0.388387	0.178944
C37	C	1.518466	-0.388186	0.089324
C38	C	1.518445	-0.388210	1.016541
C39	C	1.518428	-0.388237	0.925233
C40	C	1.518421	-0.388255	0.852456
C41	C	1.518403	-0.388282	0.761142
H42	H	1.118347	-0.294703	0.295050
C43	C	1.133466	-0.496048	0.495699
C44	C	1.241297	-0.485009	0.484659
C45	C	1.296377	-0.536610	0.536036
H46	H	1.115648	-0.484367	0.549930
H47	H	1.115513	-0.550227	0.483796
H48	H	1.259243	-0.430842	0.496567
H49	H	1.259147	-0.496696	0.430439
H50	H	1.278424	-0.590789	0.524133
H51	H	1.278551	-0.524924	0.590263
H52	H	1.369546	-0.529132	0.528547
C53	C	0.904620	-0.496179	0.495842
C54	C	0.976160	-0.541409	0.540892
C55	C	0.921516	-0.593152	0.592407
H56	H	0.861851	-0.465474	0.531109
H57	H	0.861804	-0.531315	0.464957
H58	H	1.018958	-0.506277	0.571775
H59	H	1.018931	-0.572130	0.505646
H60	H	0.878699	-0.628288	0.561522
H61	H	0.878749	-0.562440	0.627668
H62	H	0.970046	-0.623852	0.622974
H63	H	0.919279	-0.294721	0.295079
