data_functionalizedCrystal
_audit_creation_method	'MofGen! by Chris Wilmer'
_symmetry_space_group_name_H-M	'P1'
_symmetry_Int_Tables_number	1
_symmetry_cell_setting	triclinic
loop_
_symmetry_equiv_pos_as_xyz
  x,y,z
_cell_length_a	17.666332
_cell_length_b	14.519709
_cell_length_c	14.519709
_cell_angle_alpha	83.680145
_cell_angle_beta	89.991285
_cell_angle_gamma	90.006446
loop_
_atom_site_label
_atom_site_type_symbol
_atom_site_fract_x
_atom_site_fract_y
_atom_site_fract_z
O1	O	0.062851	-1.223860	-0.120896
O2	O	0.312851	-0.973860	0.129104
O3	O	0.562851	-0.723860	0.379104
O4	O	0.812851	-0.473860	0.629104
O5	O	0.062875	-0.955383	-0.135133
O6	O	0.312875	-0.705383	0.114867
O7	O	0.562875	-0.455383	0.364867
O8	O	0.812875	-0.205383	0.614867
O9	O	0.062856	-1.096740	0.006224
O10	O	0.312856	-0.846740	0.256224
O11	O	0.562856	-0.596740	0.506224
O12	O	0.812856	-0.346740	0.756224
O13	O	0.062871	-1.082503	-0.262253
O14	O	0.312871	-0.832503	-0.012253
O15	O	0.562871	-0.582503	0.237747
O16	O	0.812871	-0.332503	0.487747
O17	O	-0.063041	-1.096743	0.006238
O18	O	0.186959	-0.846743	0.256238
O19	O	0.436959	-0.596743	0.506238
O20	O	0.686959	-0.346743	0.756238
O21	O	-0.063022	-0.955386	-0.135118
O22	O	0.186978	-0.705386	0.114882
O23	O	0.436978	-0.455386	0.364882
O24	O	0.686978	-0.205386	0.614882
O25	O	-0.063045	-1.223863	-0.120882
O26	O	0.186955	-0.973863	0.129118
O27	O	0.436955	-0.723863	0.379118
O28	O	0.686955	-0.473863	0.629118
Cu29	Cu	-0.074529	-1.089625	-0.127999
Cu30	Cu	0.175471	-0.839625	0.122001
Cu31	Cu	0.425471	-0.589625	0.372001
Cu32	Cu	0.675471	-0.339625	0.622001
Cu33	Cu	0.074358	-1.089621	-0.128016
Cu34	Cu	0.324358	-0.839621	0.121984
Cu35	Cu	0.574358	-0.589621	0.371984
Cu36	Cu	0.824358	-0.339621	0.621984
O37	O	-0.063026	-1.082506	-0.262239
O38	O	0.186974	-0.832506	-0.012239
O39	O	0.436974	-0.582506	0.237761
O40	O	0.686974	-0.332506	0.487761
C41	C	-0.000071	-0.921025	-0.134462
C42	C	0.249929	-0.671025	0.115538
C43	C	0.499929	-0.421025	0.365538
C44	C	0.749929	-0.171025	0.615538
C45	C	-0.000062	-0.818643	-0.132474
C46	C	0.249938	-0.568643	0.117526
C47	C	0.499938	-0.318643	0.367526
C48	C	0.749938	-0.068643	0.617526
N49	N	-0.179248	-1.089634	-0.127987
N50	N	0.070752	-0.839634	0.122013
N51	N	0.320752	-0.589634	0.372013
N52	N	0.570752	-0.339634	0.622013
N53	N	0.179078	-1.089619	-0.128021
N54	N	0.429078	-0.839619	0.121979
N55	N	0.679078	-0.589619	0.371979
N56	N	0.929078	-0.339619	0.621979
C57	C	0.218679	-1.152324	-0.065551
C58	C	0.468679	-0.902324	0.184449
C59	C	0.718679	-0.652324	0.434449
C60	C	0.968679	-0.402324	0.684449
C61	C	0.297927	-1.152332	-0.065549
C62	C	0.547927	-0.902332	0.184451
C63	C	0.797927	-0.652332	0.434451
C64	C	1.047927	-0.402332	0.684451
C65	C	0.337570	-1.089620	-0.128009
C66	C	0.587570	-0.839620	0.121991
C67	C	0.837570	-0.589620	0.371991
C68	C	1.087570	-0.339620	0.621991
C69	C	0.297959	-1.026910	-0.190490
C70	C	0.547959	-0.776910	0.059510
C71	C	0.797959	-0.526910	0.309510
C72	C	1.047959	-0.276910	0.559510
C73	C	0.218713	-1.026909	-0.190496
C74	C	0.468713	-0.776909	0.059504
C75	C	0.718713	-0.526909	0.309504
C76	C	0.968713	-0.276909	0.559504
N77	N	0.462003	-1.008035	-0.139415
N78	N	0.712003	-0.758035	0.110585
N79	N	0.962003	-0.508035	0.360585
N80	N	1.212003	-0.258035	0.610585
N81	N	0.537283	-1.008039	-0.139404
N82	N	0.787283	-0.758039	0.110596
N83	N	1.037283	-0.508039	0.360596
N84	N	1.287283	-0.258039	0.610596
C85	C	0.576334	-1.089618	-0.127996
C86	C	0.826334	-0.839618	0.122004
C87	C	1.076334	-0.589618	0.372004
C88	C	1.326334	-0.339618	0.622004
N89	N	0.537260	-1.171197	-0.116581
N90	N	0.787260	-0.921197	0.133419
N91	N	1.037260	-0.671197	0.383419
N92	N	1.287260	-0.421197	0.633419
N93	N	0.461973	-1.171193	-0.116587
N94	N	0.711973	-0.921193	0.133413
N95	N	0.961973	-0.671193	0.383413
N96	N	1.211973	-0.421193	0.633413
C97	C	0.423499	-1.089613	-0.128009
C98	C	0.673499	-0.839613	0.121991
C99	C	0.923499	-0.589613	0.371991
C100	C	1.173499	-0.339613	0.621991
C101	C	0.701865	-1.152337	-0.065521
C102	C	0.951865	-0.902337	0.184479
C103	C	1.201865	-0.652337	0.434479
C104	C	1.451865	-0.402337	0.684479
C105	C	0.781114	-1.152347	-0.065526
C106	C	1.031114	-0.902347	0.184474
C107	C	1.281114	-0.652347	0.434474
C108	C	1.531114	-0.402347	0.684474
C109	C	0.781145	-1.026916	-0.190462
C110	C	1.031145	-0.776916	0.059538
C111	C	1.281145	-0.526916	0.309538
C112	C	1.531145	-0.276916	0.559538
C113	C	0.701897	-1.026914	-0.190462
C114	C	0.951897	-0.776914	0.059538
C115	C	1.201897	-0.526914	0.309538
C116	C	1.451897	-0.276914	0.559538
C117	C	0.662262	-1.089624	-0.127986
C118	C	0.912262	-0.839624	0.122014
C119	C	1.162262	-0.589624	0.372014
C120	C	1.412262	-0.339624	0.622014
C121	C	-0.000093	-1.096078	0.040591
C122	C	0.249907	-0.846078	0.290591
C123	C	0.499907	-0.596078	0.540591
C124	C	0.749907	-0.346078	0.790591
C125	C	-0.000093	-1.094090	0.142972
C126	C	0.249907	-0.844090	0.392972
C127	C	0.499907	-0.594090	0.642972
C128	C	0.749907	-0.344090	0.892972
C129	C	-0.000098	-1.258221	-0.121553
C130	C	0.249902	-1.008221	0.128447
C131	C	0.499902	-0.758221	0.378447
C132	C	0.749902	-0.508221	0.628447
C133	C	-0.000102	-1.360602	-0.123541
C134	C	0.249898	-1.110602	0.126459
C135	C	0.499898	-0.860602	0.376459
C136	C	0.749898	-0.610602	0.626459
C137	C	-0.000097	-0.443748	-0.125154
C138	C	0.249903	-0.193748	0.124846
C139	C	0.499903	0.056252	0.374846
C140	C	0.749903	0.306252	0.624846
C141	C	-0.000087	-0.548056	-0.127187
C142	C	0.249913	-0.298056	0.122813
C143	C	0.499913	-0.048056	0.372813
C144	C	0.749913	0.201944	0.622813
C145	C	-0.000079	-0.631192	-0.128814
C146	C	0.249921	-0.381192	0.121186
C147	C	0.499921	-0.131192	0.371186
C148	C	0.749921	0.118808	0.621186
C149	C	-0.000070	-0.735507	-0.130847
C150	C	0.249930	-0.485507	0.119153
C151	C	0.499930	-0.235507	0.369153
C152	C	0.749930	0.014493	0.619153
C153	C	-0.000076	-1.083168	-0.296605
C154	C	0.249924	-0.833168	-0.046605
C155	C	0.499924	-0.583168	0.203395
C156	C	0.749924	-0.333168	0.453395
C157	C	-0.000071	-1.085156	-0.398987
C158	C	0.249929	-0.835156	-0.148987
C159	C	0.499929	-0.585156	0.101013
C160	C	0.749929	-0.335156	0.351013
C161	C	-0.000073	-1.086770	0.517868
C162	C	0.249927	-0.836770	0.767868
C163	C	0.499927	-0.586770	1.017868
C164	C	0.749927	-0.336770	1.267868
C165	C	-0.000079	-1.088803	0.413560
C166	C	0.249921	-0.838803	0.663560
C167	C	0.499921	-0.588803	0.913560
C168	C	0.749921	-0.338803	1.163560
C169	C	-0.000084	-1.090430	0.330423
C170	C	0.249916	-0.840430	0.580423
C171	C	0.499916	-0.590430	0.830423
C172	C	0.749916	-0.340430	1.080423
C173	C	-0.000088	-1.092463	0.226109
C174	C	0.249912	-0.842463	0.476109
C175	C	0.499912	-0.592463	0.726109
C176	C	0.749912	-0.342463	0.976109
H177	H	0.330176	-1.203396	-0.014677
H178	H	0.580176	-0.953396	0.235323
H179	H	0.830176	-0.703396	0.485323
H180	H	1.080176	-0.453396	0.735323
O181	O	0.340710	-0.959250	-0.257843
O182	O	0.590710	-0.709250	-0.007843
O183	O	0.840710	-0.459250	0.242157
O184	O	1.090710	-0.209250	0.492157
H185	H	0.402469	-0.969772	-0.247332
H186	H	0.652469	-0.719772	0.002668
H187	H	0.902469	-0.469772	0.252668
H188	H	1.152469	-0.219772	0.502668
O189	O	0.175988	-0.959278	-0.257875
O190	O	0.425988	-0.709278	-0.007875
O191	O	0.675988	-0.459278	0.242125
O192	O	0.925988	-0.209278	0.492125
H193	H	0.139893	-0.998090	-0.302863
H194	H	0.389893	-0.748090	-0.052863
H195	H	0.639893	-0.498090	0.197137
H196	H	0.889893	-0.248090	0.447137
O197	O	0.659106	-1.219982	0.001846
O198	O	0.909106	-0.969982	0.251846
O199	O	1.159106	-0.719982	0.501846
O200	O	1.409106	-0.469982	0.751846
H201	H	0.699961	-1.263600	0.045275
H202	H	0.949961	-1.013600	0.295275
H203	H	1.199961	-0.763600	0.545275
H204	H	1.449961	-0.513600	0.795275
H205	H	0.186410	-1.203388	-0.014682
H206	H	0.436410	-0.953388	0.235318
H207	H	0.686410	-0.703388	0.485318
H208	H	0.936410	-0.453388	0.735318
H209	H	0.813358	-1.203413	-0.014658
H210	H	1.063358	-0.953413	0.235342
H211	H	1.313358	-0.703413	0.485342
H212	H	1.563358	-0.453413	0.735342
H213	H	0.813422	-0.975857	-0.241321
H214	H	1.063422	-0.725857	0.008679
H215	H	1.313422	-0.475857	0.258679
H216	H	1.563422	-0.225857	0.508679
O217	O	0.659176	-0.959304	-0.257861
O218	O	0.909176	-0.709304	-0.007861
O219	O	1.159176	-0.459304	0.242139
O220	O	1.409176	-0.209304	0.492139
H221	H	0.700053	-0.915701	-0.301301
H222	H	0.950053	-0.665701	-0.051301
H223	H	1.200053	-0.415701	0.198699
H224	H	1.450053	-0.165701	0.448699
