data_functionalizedCrystal
_audit_creation_method	'MofGen! by Chris Wilmer'
_symmetry_space_group_name_H-M	'P1'
_symmetry_Int_Tables_number	1
_symmetry_cell_setting	triclinic
loop_
_symmetry_equiv_pos_as_xyz
  x,y,z
_cell_length_a	19.288867
_cell_length_b	19.288857
_cell_length_c	17.766277
_cell_angle_alpha	89.991559
_cell_angle_beta	89.991798
_cell_angle_gamma	83.135089
loop_
_atom_site_label
_atom_site_type_symbol
_atom_site_fract_x
_atom_site_fract_y
_atom_site_fract_z
O1	O	0.921350	0.086656	-0.062571
O2	O	1.421350	0.586656	0.437429
O3	O	0.719089	0.098343	-0.062579
O4	O	1.219089	0.598343	0.437421
O5	O	0.826067	-0.008631	-0.062566
O6	O	1.326067	0.491369	0.437434
O7	O	0.814373	0.193630	-0.062585
O8	O	1.314373	0.693630	0.437415
O9	O	0.826047	-0.008637	0.062623
O10	O	1.326047	0.491363	0.562623
O11	O	0.719070	0.098338	0.062609
O12	O	1.219070	0.598338	0.562609
O13	O	0.921331	0.086650	0.062617
O14	O	1.421331	0.586650	0.562617
Cu15	Cu	0.820198	0.092494	0.074044
Cu16	Cu	1.320198	0.592494	0.574044
Cu17	Cu	0.820221	0.092500	-0.074006
Cu18	Cu	1.320221	0.592500	0.425994
O19	O	0.814353	0.193625	0.062604
O20	O	1.314353	0.693625	0.562604
C21	C	0.693203	0.097964	0.000014
C22	C	1.193203	0.597964	0.500014
C23	C	0.616100	0.096834	0.000012
C24	C	1.116100	0.596834	0.500012
C25	C	0.825682	-0.034511	0.000029
C26	C	1.325682	0.465489	0.500029
C27	C	0.824555	-0.111614	0.000031
C28	C	1.324555	0.388386	0.500031
C29	C	0.060545	0.088701	-0.068219
C30	C	0.560545	0.588701	0.431781
C31	C	0.132993	0.089758	-0.068222
C32	C	0.632993	0.589758	0.431778
C33	C	0.169211	0.090287	0.000018
C34	C	0.669211	0.590287	0.500018
C35	C	0.132978	0.089741	0.068266
C36	C	0.632978	0.589741	0.568266
C37	C	0.060532	0.088677	0.068267
C38	C	0.560532	0.588677	0.568267
C39	C	0.278529	0.132653	0.052295
C40	C	0.778529	0.632653	0.552295
C41	C	0.350972	0.133721	0.052291
C42	C	0.850972	0.633721	0.552291
C43	C	0.392656	0.093566	0.000018
C44	C	0.892656	0.593566	0.500018
C45	C	0.361887	0.052352	-0.052264
C46	C	0.861887	0.552352	0.447736
C47	C	0.289442	0.051288	-0.052263
C48	C	0.789442	0.551288	0.447737
C49	C	0.247765	0.091441	0.000024
C50	C	0.747765	0.591441	0.500024
C51	C	0.507437	0.095254	-0.068229
C52	C	1.007437	0.595254	0.431771
C53	C	0.579887	0.096307	-0.068229
C54	C	1.079887	0.596307	0.431771
C55	C	0.579869	0.096297	0.068261
C56	C	1.079869	0.596297	0.568261
C57	C	0.507422	0.095237	0.068259
C58	C	1.007422	0.595237	0.568259
C59	C	0.471210	0.094719	0.000012
C60	C	0.971210	0.594719	0.500012
C61	C	0.824040	-0.147822	-0.068209
C62	C	1.324040	0.352178	0.431791
C63	C	0.822971	-0.220268	-0.068215
C64	C	1.322971	0.279732	0.431785
C65	C	0.822431	-0.256506	0.000024
C66	C	1.322431	0.243494	0.500024
C67	C	0.822943	-0.220288	0.068273
C68	C	1.322943	0.279712	0.568273
C69	C	0.824005	-0.147843	0.068277
C70	C	1.324005	0.352157	0.568277
C71	C	0.861425	-0.376739	0.052300
C72	C	1.361425	0.123261	0.552300
C73	C	0.860368	-0.449184	0.052294
C74	C	1.360368	0.050816	0.552294
C75	C	0.819154	-0.479951	0.000015
C76	C	1.319154	0.020049	0.500015
C77	C	0.779006	-0.438267	-0.052270
C78	C	1.279006	0.061733	0.447730
C79	C	0.780068	-0.365821	-0.052266
C80	C	1.280068	0.134179	0.447734
C81	C	0.821280	-0.335061	0.000027
C82	C	1.321280	0.164939	0.500027
C83	C	0.817479	-0.594713	-0.068236
C84	C	1.317479	-0.094713	0.431764
C85	C	0.816406	-0.667160	-0.068239
C86	C	1.316406	-0.167160	0.431761
C87	C	0.816385	-0.667180	0.068251
C88	C	1.316385	-0.167180	0.568251
C89	C	0.817451	-0.594734	0.068252
C90	C	1.317451	-0.094734	0.568252
C91	C	0.818001	-0.558505	0.000006
C92	C	1.318001	-0.058505	0.500006
C93	C	0.947217	0.087029	0.000022
C94	C	1.447217	0.587029	0.500022
C95	C	1.024320	0.088159	0.000020
C96	C	1.524320	0.588159	0.500020
C97	C	0.814738	0.219504	0.000007
C98	C	1.314738	0.719504	0.500007
C99	C	0.815865	0.296608	0.000000
C100	C	1.315865	0.796608	0.500000
N101	N	0.820187	0.092489	0.178174
N102	N	1.320187	0.592489	0.678174
C103	C	0.867572	0.045144	0.217567
C104	C	1.367572	0.545144	0.717567
C105	C	0.867576	0.045141	0.296369
C106	C	1.367576	0.545141	0.796369
C107	C	0.820201	0.092495	0.335775
C108	C	1.320201	0.592495	0.835775
C109	C	0.772808	0.139843	0.296373
C110	C	1.272808	0.639843	0.796373
C111	C	0.772801	0.139840	0.217572
C112	C	1.272801	0.639840	0.717572
C113	C	0.810900	0.155783	0.460607
C114	C	1.310900	0.655783	0.960607
C115	C	0.810912	0.155787	0.539406
C116	C	1.310912	0.655787	1.039406
C117	C	0.820218	0.092504	0.578821
C118	C	1.320218	0.592504	1.078821
C119	C	0.829528	0.029214	0.539428
C120	C	1.329528	0.529214	1.039428
C121	C	0.829521	0.029211	0.460628
C122	C	1.329521	0.529211	0.960628
C123	C	0.820203	0.092503	0.421221
C124	C	1.320203	0.592503	0.921221
C125	C	0.867610	0.045151	0.703660
C126	C	1.367610	0.545151	1.203660
C127	C	0.867608	0.045147	0.782463
C128	C	1.367608	0.545147	1.282463
C129	C	0.772844	0.139856	0.782465
C130	C	1.272844	0.639856	1.282465
C131	C	0.772841	0.139854	0.703664
C132	C	1.272841	0.639854	1.203664
C133	C	0.820228	0.092502	0.664266
C134	C	1.320228	0.592502	1.164266
N135	N	0.820233	0.092501	0.821864
N136	N	1.320233	0.592501	1.321864
H137	H	0.162492	0.090203	-0.123792
H138	H	0.662492	0.590203	0.376208
H139	H	0.609357	0.096725	0.123823
H140	H	1.109357	0.596725	0.623823
H141	H	0.162471	0.090171	0.123827
H142	H	0.662471	0.590171	0.623827
H143	H	0.817923	-0.565214	-0.123806
H144	H	1.317923	-0.065214	0.376194
N145	N	0.916003	-0.003237	0.822693
N146	N	1.416003	0.496763	1.322693
N147	N	0.915251	-0.067435	0.813888
N148	N	1.415251	0.432565	1.313888
H149	H	0.949430	-0.101612	0.842297
H150	H	1.449430	0.398388	1.342297
H151	H	0.609380	0.096743	-0.123800
H152	H	1.109380	0.596743	0.376200
H153	H	0.376016	0.167298	0.094846
H154	H	0.876016	0.667298	0.594846
N155	N	0.258002	0.009182	-0.105646
N156	N	0.758002	0.509182	0.394354
N157	N	0.193319	0.008236	-0.105630
N158	N	0.693319	0.508236	0.394370
H159	H	0.171113	-0.021505	-0.143328
H160	H	0.671113	0.478495	0.356672
H161	H	0.906155	0.006586	0.185491
H162	H	1.406155	0.506586	0.685491
H163	H	0.477927	0.094798	0.123827
H164	H	0.977927	0.594798	0.623827
N165	N	0.903541	-0.345320	0.105695
N166	N	1.403541	0.154680	0.605695
N167	N	0.950717	-0.311134	0.083440
N168	N	1.450717	0.188866	0.583440
H169	H	0.980461	-0.288945	0.121149
H170	H	1.480461	0.211055	0.621149
H171	H	0.734268	0.178410	0.814549
H172	H	1.234268	0.678410	1.314549
H173	H	0.822502	-0.249797	0.123833
H174	H	1.322502	0.250203	0.623833
N175	N	0.404467	0.011334	-0.105659
N176	N	0.904467	0.511334	0.394341
N177	N	0.469150	0.012282	-0.105650
N178	N	0.969150	0.512282	0.394350
H179	H	0.499225	-0.016686	-0.143358
H180	H	0.999225	0.483314	0.356642
N181	N	0.235964	0.173673	0.105704
N182	N	0.735964	0.673673	0.605704
N183	N	0.263441	0.210472	0.152373
N184	N	0.763441	0.710472	0.652373
H185	H	0.233381	0.239441	0.190093
H186	H	0.733381	0.739441	0.690093
H187	H	0.477952	0.094830	-0.123800
H188	H	0.977952	0.594830	0.376200
N189	N	0.724434	0.188221	0.663432
N190	N	1.224434	0.688221	1.163432
N191	N	0.682135	0.230497	0.698622
N192	N	1.182135	0.730497	1.198622
H193	H	0.647943	0.264657	0.670209
H194	H	1.147943	0.764657	1.170209
N195	N	0.023537	0.088120	0.137981
N196	N	0.523537	0.588120	0.637981
N197	N	0.055879	0.088586	0.198907
N198	N	0.555879	0.588586	0.698907
H199	H	0.029751	0.088194	0.248145
H200	H	0.529751	0.588194	0.748145
H201	H	0.824485	-0.118329	-0.123780
H202	H	1.324485	0.381671	0.376220
H203	H	0.734233	0.178399	0.328461
H204	H	1.234233	0.678399	0.828461
N205	N	0.822442	-0.257253	-0.137931
N206	N	1.322442	0.242747	0.362069
N207	N	0.822930	-0.224897	-0.198857
N208	N	1.322930	0.275103	0.301143
H209	H	0.822557	-0.251015	-0.248094
H210	H	1.322557	0.248985	0.251906
N211	N	0.739058	-0.323252	-0.105674
N212	N	1.239058	0.176748	0.394326
N213	N	0.702263	-0.350724	-0.152351
N214	N	1.202263	0.149276	0.347649
H215	H	0.673298	-0.320659	-0.190071
H216	H	1.173298	0.179341	0.309929
H217	H	0.031066	0.088276	-0.123791
H218	H	0.531066	0.588276	0.376209
N219	N	0.736898	-0.469694	-0.105662
N220	N	1.236898	0.030306	0.394338
N221	N	0.735942	-0.534376	-0.105650
N222	N	1.235942	-0.034376	0.394350
H223	H	0.706201	-0.556575	-0.143353
H224	H	1.206201	-0.056575	0.356647
H225	H	0.815982	-0.696639	-0.123811
H226	H	1.315982	-0.196639	0.376189
H227	H	0.906193	0.006593	0.671581
H228	H	1.406193	0.506593	1.171581
N229	N	0.839025	-0.035428	0.579690
N230	N	1.339025	0.464572	1.079690
N231	N	0.839017	-0.035420	0.650047
N232	N	1.339017	0.464580	1.150047
H233	H	0.845721	-0.081072	0.678487
H234	H	1.345721	0.418928	1.178487
N235	N	0.801412	0.220438	0.579629
N236	N	1.301412	0.720438	1.079629
N237	N	0.793095	0.276936	0.544431
N238	N	1.293095	0.776936	1.044431
H239	H	0.786387	0.322599	0.572836
H240	H	1.286387	0.822599	1.072836
N241	N	0.724410	0.188210	0.177318
N242	N	1.224410	0.688210	0.677318
N243	N	0.724416	0.188205	0.106961
N244	N	1.224416	0.688205	0.606961
H245	H	0.690242	0.222367	0.078529
H246	H	1.190242	0.722367	0.578529
H247	H	0.815940	-0.696683	0.123812
H248	H	1.315940	-0.196683	0.623812
N249	N	0.801400	0.220436	0.420361
N250	N	1.301400	0.720436	0.920361
N251	N	0.793104	0.276937	0.455539
N252	N	1.293104	0.776937	0.955539
H253	H	0.786399	0.322598	0.427116
H254	H	1.286399	0.822598	0.927116
N255	N	0.824521	-0.110852	0.137986
N256	N	1.324521	0.389148	0.637986
N257	N	0.775441	-0.112389	0.183673
N258	N	1.275441	0.387611	0.683673
H259	H	0.775805	-0.086263	0.232907
H260	H	1.275805	0.413737	0.732907
N261	N	0.817979	-0.557755	0.137966
N262	N	1.317979	-0.057755	0.637966
N263	N	0.817494	-0.590114	0.198889
N264	N	1.317494	-0.090114	0.698889
H265	H	0.817865	-0.563999	0.248129
H266	H	1.317865	-0.063999	0.748129
N267	N	0.901388	-0.491751	0.105695
N268	N	1.401388	0.008249	0.605695
N269	N	0.938178	-0.464273	0.152373
N270	N	1.438178	0.035727	0.652373
H271	H	0.967151	-0.494334	0.190089
H272	H	1.467151	0.005666	0.690089
N273	N	0.915982	-0.003230	0.336607
N274	N	1.415982	0.496770	0.836607
N275	N	0.958284	-0.045505	0.301421
N276	N	1.458284	0.454495	0.801421
H277	H	0.992472	-0.079668	0.329837
H278	H	1.492472	0.420332	0.829837
H279	H	0.837100	-0.022322	0.428557
H280	H	1.337100	0.477678	0.928557
