data_functionalizedCrystal
_audit_creation_method	'MofGen! by Chris Wilmer'
_symmetry_space_group_name_H-M	'P1'
_symmetry_Int_Tables_number	1
_symmetry_cell_setting	triclinic
loop_
_symmetry_equiv_pos_as_xyz
  x,y,z
_cell_length_a	8.559649
_cell_length_b	8.559649
_cell_length_c	7.681481
_cell_angle_alpha	94.904209
_cell_angle_beta	85.062172
_cell_angle_gamma	69.778664
loop_
_atom_site_label
_atom_site_type_symbol
_atom_site_fract_x
_atom_site_fract_y
_atom_site_fract_z
O1	O	-2.144125	0.072234	0.146401
O2	O	-1.668641	-0.011546	0.146408
O3	O	-1.948273	0.268086	0.146402
O4	O	-1.864493	-0.207398	0.146407
O5	O	-1.913759	0.233687	-0.146455
O6	O	-1.634127	-0.045946	-0.146449
O7	O	-2.109611	0.037835	-0.146456
Zn8	Zn	-1.866389	-0.009517	-0.192950
Zn9	Zn	-1.911863	0.035805	0.192902
O10	O	-1.829978	-0.241798	-0.146450
C11	C	-1.591075	-0.035095	-0.000020
C12	C	-1.411376	-0.053994	-0.000017
C13	C	-1.937366	0.311196	-0.000024
C14	C	-1.956266	0.490896	-0.000014
N15	N	-1.942901	0.066749	0.456235
C16	C	-2.187177	0.061384	-0.000025
C17	C	-2.366878	0.080284	-0.000016
C18	C	-1.840886	-0.284907	-0.000021
C19	C	-1.821988	-0.464606	-0.000019
N20	N	-1.835366	-0.040446	-0.456284
H21	H	-1.466257	0.209704	-0.000009
H22	H	-1.725604	-0.149870	0.468522
H23	H	-2.085692	0.590282	-0.000030
O24	O	-1.279743	-0.225447	-0.000028
H25	H	-1.154518	-0.213894	-0.000041
O26	O	-1.650546	0.403773	-0.000008
H27	H	-1.662108	0.278554	0.000014
H28	H	-2.052659	0.176190	0.531439
