data_functionalizedCrystal
_audit_creation_method	'MofGen! by Chris Wilmer'
_symmetry_space_group_name_H-M	'P1'
_symmetry_Int_Tables_number	1
_symmetry_cell_setting	triclinic
loop_
_symmetry_equiv_pos_as_xyz
  x,y,z
_cell_length_a	12.645330
_cell_length_b	16.120542
_cell_length_c	16.120297
_cell_angle_alpha	90.127087
_cell_angle_beta	87.123238
_cell_angle_gamma	92.890715
loop_
_atom_site_label
_atom_site_type_symbol
_atom_site_fract_x
_atom_site_fract_y
_atom_site_fract_z
Zn1	Zn	-0.537198	-1.247485	0.534623
Zn2	Zn	-0.037198	-0.747485	1.034623
Zn3	Zn	-0.705961	-1.254449	0.395575
Zn4	Zn	-0.205961	-0.754449	0.895575
Zn5	Zn	-0.519272	-1.115474	0.388537
Zn6	Zn	-0.019272	-0.615474	0.888537
Zn7	Zn	-0.704971	-1.108405	0.527541
Zn8	Zn	-0.204971	-0.608405	1.027541
O9	O	-0.616850	-1.181453	0.461569
O10	O	-0.116850	-0.681453	0.961569
O11	O	-0.567501	-1.364776	0.522087
O12	O	-0.067501	-0.864776	1.022087
O13	O	-0.674108	-1.241886	0.278276
O14	O	-0.174108	-0.741886	0.778276
O15	O	-0.373307	-1.133029	0.407934
O16	O	0.126693	-0.633029	0.907934
O17	O	-0.691491	-1.369893	0.419929
O18	O	-0.191491	-0.869893	0.919929
O19	O	-0.386477	-1.230018	0.515263
O20	O	0.113523	-0.730018	1.015263
O21	O	-0.536949	-1.139782	0.273105
O22	O	-0.036949	-0.639782	0.773105
O23	O	-0.535989	-0.998169	0.401067
O24	O	-0.035989	-0.498169	0.901067
O25	O	-0.689803	-1.120982	0.644846
O26	O	-0.189803	-0.620982	1.144846
O27	O	-0.672421	-0.992975	0.503193
O28	O	-0.172421	-0.492975	1.003193
O29	O	-0.566542	-1.223163	0.650049
O30	O	-0.066542	-0.723163	1.150049
O31	O	-0.854173	-1.235032	0.413062
O32	O	-0.354173	-0.735032	0.913062
O33	O	-0.853445	-1.127734	0.510017
O34	O	-0.353445	-0.627734	1.010017
C35	C	-0.602153	-0.965399	0.450598
C36	C	-0.102153	-0.465399	0.950598
C37	C	-0.595892	-0.872970	0.445924
C38	C	-0.095892	-0.372970	0.945924
C39	C	-0.649294	-0.660012	0.485767
C40	C	-0.149294	-0.160012	0.985767
C41	C	-0.584471	-0.703744	0.437390
C42	C	-0.084471	-0.203744	0.937390
C43	C	-0.590827	-0.797910	0.442140
C44	C	-0.090827	-0.297910	0.942140
C45	C	-0.642938	-0.565838	0.481018
C46	C	-0.142938	-0.065838	0.981018
C47	C	-0.892275	-1.181393	0.461554
C48	C	-0.392275	-0.681393	0.961554
C49	C	-1.010110	-1.181442	0.461580
C50	C	-0.510110	-0.681442	0.961580
C51	C	-1.177291	-1.114196	0.522785
C52	C	-0.677291	-0.614196	1.022785
C53	C	-1.054696	-1.113879	0.522562
C54	C	-0.554696	-0.613879	1.022562
C55	C	-1.047723	-1.162164	0.372742
C56	C	-0.547723	-0.662164	0.872742
C57	C	-1.170319	-1.161754	0.373114
C58	C	-0.670319	-0.661754	0.873114
C59	C	-1.184560	-1.268394	0.488520
C60	C	-0.684560	-0.768394	0.988520
C61	C	-1.062034	-1.267757	0.490409
C62	C	-0.562034	-0.767757	0.990409
C63	C	-0.340353	-1.181535	0.461603
C64	C	0.159647	-0.681535	0.961603
C65	C	-0.222526	-1.181570	0.461618
C66	C	0.277474	-0.681570	0.961618
C67	C	-0.630062	-1.170507	0.678464
C68	C	-0.130062	-0.670507	1.178464
C69	C	-0.635691	-1.165842	0.770891
C70	C	-0.135691	-0.665842	1.270891
C71	C	-0.631600	-0.398351	0.472572
C72	C	-0.131600	0.101649	0.972572
C73	C	-0.637869	-0.490782	0.477231
C74	C	-0.137869	0.009218	0.977231
C75	C	-0.603617	-1.192405	0.245520
C76	C	-0.103617	-0.692405	0.745520
C77	C	-0.597700	-1.197230	0.153102
C78	C	-0.097700	-0.697230	0.653102
C79	C	-0.645944	-1.157296	0.940116
C80	C	-0.145944	-0.657296	1.440116
C81	C	-0.587450	-1.205775	0.983882
C82	C	-0.087450	-0.705775	1.483882
C83	C	-0.593155	-1.201019	1.078044
C84	C	-0.093155	-0.701019	1.578044
C85	C	-0.640241	-1.162050	0.845945
C86	C	-0.140241	-0.662050	1.345945
H87	H	-0.524200	-0.670464	0.392406
H88	H	-0.024200	-0.170464	0.892406
H89	H	-0.709560	-0.693291	0.530747
H90	H	-0.209560	-0.193291	1.030747
F91	F	-1.200592	-1.078969	0.344003
F92	F	-0.700592	-0.578969	0.844003
F93	F	-0.516412	-1.264707	0.940425
F94	F	-0.016412	-0.764707	1.440425
H95	H	-1.029532	-1.125425	0.588294
H96	H	-0.529532	-0.625425	1.088294
F97	F	-0.717000	-1.098384	0.983573
F98	F	-0.217000	-0.598384	1.483573
H99	H	-1.211696	-1.125595	0.588725
H100	H	-0.711696	-0.625595	1.088725
H101	H	-1.220723	-1.286848	0.552434
H102	H	-0.720723	-0.786848	1.052434
H103	H	-1.202890	-1.050137	0.504822
H104	H	-0.702890	-0.550137	1.004822
H105	H	-1.020121	-1.049423	0.504387
H106	H	-0.520121	-0.549423	1.004387
H107	H	-1.199969	-1.208938	0.325745
H108	H	-0.699969	-0.708938	0.825745
H109	H	-1.011604	-1.099516	0.350160
H110	H	-0.511604	-0.599516	0.850160
F111	F	-1.009679	-1.224528	0.311287
F112	F	-0.509679	-0.724528	0.811287
F113	F	-1.030688	-1.286867	0.575894
F114	F	-0.530688	-0.786867	1.075894
F115	F	-1.022946	-1.336361	0.436886
F116	F	-0.522946	-0.836361	0.936886
H117	H	-1.213918	-1.318535	0.444023
H118	H	-0.713918	-0.818535	0.944023
