data_functionalizedCrystal
_audit_creation_method	'MofGen! by Chris Wilmer'
_symmetry_space_group_name_H-M	'P1'
_symmetry_Int_Tables_number	1
_symmetry_cell_setting	triclinic
loop_
_symmetry_equiv_pos_as_xyz
  x,y,z
_cell_length_a	12.645331
_cell_length_b	25.639239
_cell_length_c	12.645318
_cell_angle_alpha	89.935323
_cell_angle_beta	89.957054
_cell_angle_gamma	90.037665
loop_
_atom_site_label
_atom_site_type_symbol
_atom_site_fract_x
_atom_site_fract_y
_atom_site_fract_z
Zn1	Zn	1.620789	-0.207992	-0.599395
Zn2	Zn	1.620543	-0.295480	-0.422113
Zn3	Zn	1.443441	-0.208059	-0.422139
Zn4	Zn	1.443420	-0.295396	-0.599329
O5	O	1.532048	-0.251732	-0.510744
O6	O	1.769103	-0.219604	-0.575895
O7	O	1.596955	-0.283947	-0.273769
O8	O	1.467078	-0.134885	-0.445691
O9	O	1.768923	-0.283882	-0.445647
O10	O	1.597375	-0.134835	-0.575920
O11	O	1.466839	-0.219720	-0.273788
O12	O	1.295091	-0.219638	-0.445627
O13	O	1.467043	-0.283738	-0.747685
O14	O	1.295076	-0.283804	-0.575808
O15	O	1.597355	-0.219522	-0.747734
O16	O	1.596936	-0.368635	-0.445583
O17	O	1.466804	-0.368573	-0.575782
C18	C	1.256618	-0.251720	-0.510714
C19	C	1.138788	-0.251727	-0.510726
C20	C	0.971199	-0.211174	-0.429281
C21	C	1.093758	-0.211279	-0.428922
C22	C	1.094216	-0.306813	-0.480197
C23	C	0.971618	-0.306592	-0.479641
C24	C	0.971689	-0.237717	-0.623013
C25	C	1.094296	-0.236487	-0.622390
C26	C	1.531870	-0.387575	-0.510696
C27	C	1.531891	-0.445689	-0.510710
C28	C	1.599984	-0.806071	-0.443065
C29	C	1.600025	-0.860675	-0.443079
O30	O	1.657736	-0.888929	-0.385511
N31	N	1.532234	-0.887971	-0.510815
C32	C	1.464406	-0.860659	-0.578548
O33	O	1.406749	-0.888890	-0.636164
C34	C	1.464371	-0.806056	-0.578538
C35	C	1.532158	-0.778763	-0.510791
C36	C	1.667768	-0.778778	-0.375324
C37	C	1.667725	-0.724178	-0.375309
C38	C	1.599899	-0.696870	-0.443034
C39	C	1.532116	-0.724163	-0.510775
C40	C	1.396548	-0.778745	-0.646276
C41	C	1.396519	-0.724138	-0.646261
C42	C	1.464307	-0.696846	-0.578514
C43	C	1.464247	-0.642254	-0.578486
N44	N	1.532038	-0.614959	-0.510751
C45	C	1.599864	-0.642267	-0.443025
C46	C	1.464485	-0.975330	-0.578564
C47	C	1.464514	-1.029932	-0.578569
C48	C	1.600136	-1.029945	-0.443102
C49	C	1.600101	-0.975341	-0.443092
C50	C	1.532276	-0.948034	-0.510829
C51	C	1.599768	-0.527602	-0.442997
C52	C	1.599716	-0.472996	-0.442985
C53	C	1.464099	-0.472989	-0.578456
C54	C	1.464147	-0.527589	-0.578465
C55	C	1.531990	-0.554894	-0.510732
O56	O	1.406569	-0.613966	-0.636028
O57	O	1.657521	-0.614029	-0.385428
C58	C	1.808553	-0.251745	-0.510776
C59	C	1.926383	-0.251750	-0.510789
C60	C	1.532224	-0.251613	-0.787250
C61	C	1.532299	-0.251563	-0.905080
C62	C	1.532256	-0.115359	-0.510816
C63	C	1.532345	-0.057245	-0.510847
C64	C	1.531934	-0.251812	-0.235314
C65	C	1.532064	-0.251715	-0.117485
C66	C	1.449658	-0.211568	-0.072677
C67	C	1.449474	-0.211601	0.049884
C68	C	1.503022	-0.306842	0.050772
C69	C	1.502288	-0.306698	-0.071826
C70	C	1.644011	-0.237032	-0.072593
C71	C	1.643531	-0.235731	0.050007
H72	H	0.940315	-0.220349	-0.346608
H73	H	1.420494	-0.319068	-0.100197
O74	O	1.740851	-0.694748	-0.302243
H75	H	1.729437	-0.652189	-0.313596
H76	H	1.123438	-0.195949	-0.645410
O77	O	1.391018	-0.557033	-0.651511
H78	H	1.438471	-0.581856	-0.705495
O79	O	1.134866	-0.272785	-0.707141
H80	H	1.187608	-0.302388	-0.670836
O81	O	1.132508	-0.223544	-0.318757
H82	H	1.063680	-0.229432	-0.265534
H83	H	0.942934	-0.318489	-0.397599
H84	H	1.723005	-0.801007	-0.320173
H85	H	1.708202	-0.262749	0.080647
H86	H	0.942710	-0.267271	-0.683744
O87	O	1.673224	-0.945905	-0.370034
H88	H	1.720395	-0.974072	-0.322951
O89	O	1.672840	-0.443558	-0.369920
H90	H	1.720019	-0.471724	-0.322840
H91	H	1.559763	-0.337657	-0.101450
H92	H	1.561301	-0.337544	0.079959
H93	H	1.124834	-0.318914	-0.399036
O94	O	1.323352	-0.694691	-0.719320
H95	H	1.370766	-0.669759	-0.773303
H96	H	1.655015	-0.549827	-0.387845
H97	H	1.422196	-0.319374	0.081699
H98	H	0.941970	-0.337849	-0.536419
O99	O	1.672820	-0.181849	0.088203
H100	H	1.608433	-0.166406	0.138967
H101	H	1.670789	-0.197431	-0.103774
H102	H	1.705402	-0.266263	-0.101573
H103	H	1.123896	-0.170431	-0.448059
H104	H	1.655367	-1.052189	-0.387959
O105	O	0.932225	-0.156896	-0.454310
H106	H	0.886754	-0.141605	-0.385946
H107	H	1.123383	-0.337855	-0.537700
H108	H	0.940832	-0.198248	-0.650775
O109	O	1.390950	-0.443531	-0.651507
H110	H	1.402326	-0.400978	-0.640118
O111	O	1.473595	-0.157335	0.089416
H112	H	1.485490	-0.130831	0.020964
O113	O	1.473375	-0.157183	-0.112050
H114	H	1.544144	-0.158184	-0.163984
O115	O	1.340385	-0.224370	-0.113169
H116	H	1.340132	-0.222432	-0.200860
O117	O	1.391394	-1.059368	-0.651632
H118	H	1.344233	-1.031200	-0.698724
O119	O	1.391302	-0.945878	-0.651601
H120	H	1.344162	-0.974035	-0.698686
H121	H	1.341343	-0.800958	-0.701438
O122	O	1.339667	-0.224465	0.089031
H123	H	1.286493	-0.230694	0.020395
