data_functionalizedCrystal
_audit_creation_method	'MofGen! by Chris Wilmer'
_symmetry_space_group_name_H-M	'P1'
_symmetry_Int_Tables_number	1
_symmetry_cell_setting	triclinic
loop_
_symmetry_equiv_pos_as_xyz
  x,y,z
_cell_length_a	8.497374
_cell_length_b	21.395362
_cell_length_c	21.395355
_cell_angle_alpha	89.956060
_cell_angle_beta	89.999406
_cell_angle_gamma	90.016977
loop_
_atom_site_label
_atom_site_type_symbol
_atom_site_fract_x
_atom_site_fract_y
_atom_site_fract_z
Zn1	Zn	0.627570	-0.957988	0.354664
Zn2	Zn	0.891343	-0.957945	0.249919
Zn3	Zn	0.627643	-0.853203	0.249865
Zn4	Zn	0.891375	-0.853227	0.354624
O5	O	0.759483	-0.905591	0.302268
O6	O	0.662516	-1.045661	0.340808
O7	O	0.856379	-0.944023	0.162234
O8	O	0.406871	-0.867112	0.263761
O9	O	0.856308	-1.045629	0.263853
O10	O	0.406817	-0.944097	0.340756
O11	O	0.662641	-0.867070	0.162194
O12	O	0.662672	-0.765529	0.263722
O13	O	0.856364	-0.867151	0.442307
O14	O	0.856435	-0.765546	0.340688
O15	O	0.662547	-0.944119	0.442336
O16	O	1.112109	-0.944046	0.263814
O17	O	1.112133	-0.867109	0.340740
C18	C	0.759566	-0.742803	0.302195
C19	C	0.759640	-0.673162	0.302179
C20	C	0.759451	-0.905643	0.465691
C21	C	0.759437	-0.905665	0.535332
C22	C	0.759400	-1.069014	0.302341
C23	C	0.759365	-1.138655	0.302372
C24	C	1.169363	-0.905583	0.302277
C25	C	1.348007	-0.905600	0.302267
C26	C	0.759401	-0.905575	0.139480
C27	C	0.758970	-0.905674	0.069839
C28	C	0.860666	-0.640474	0.342195
C29	C	0.860627	-0.575039	0.342223
C30	C	0.759579	-0.542294	0.302224
C31	C	0.658534	-0.574989	0.262205
C32	C	0.658564	-0.640423	0.262182
C33	C	0.746870	-0.438566	0.245817
C34	C	0.746851	-0.373133	0.245838
C35	C	0.759476	-0.340473	0.302293
C36	C	0.772154	-0.373253	0.358728
C37	C	0.772184	-0.438688	0.358706
C38	C	0.759534	-0.471341	0.302244
C39	C	0.860465	-0.236833	0.342342
C40	C	0.860416	-0.171396	0.342371
C41	C	0.658331	-0.171348	0.262348
C42	C	0.658372	-0.236783	0.262324
C43	C	0.759448	-0.269522	0.302321
C44	C	0.658513	-0.945740	0.568062
C45	C	0.658445	-0.945740	0.633497
C46	C	0.759330	-0.905670	0.666201
C47	C	0.860261	-0.865587	0.633464
C48	C	0.860315	-0.865584	0.568029
C49	C	0.901380	-0.900723	0.769882
C50	C	0.901329	-0.900730	0.835315
C51	C	0.759163	-0.905674	0.868022
C52	C	0.617044	-0.910624	0.835287
C53	C	0.617097	-0.910621	0.769853
C54	C	0.759282	-0.905668	0.737153
C55	C	0.658156	-0.945750	0.971704
C56	C	0.658086	-0.945745	1.037140
C57	C	0.859916	-0.865595	1.037105
C58	C	0.859973	-0.865597	0.971670
C59	C	0.759095	-0.905678	0.938973
H60	H	0.942967	-0.667126	0.374764
H61	H	1.017051	-0.896703	0.861963
H62	H	0.942894	-0.548419	0.374811
H63	H	0.576251	-0.978373	0.660151
C64	C	0.547052	-0.989833	1.073143
N65	N	0.463420	-1.023041	1.100260
H66	H	0.942680	-0.144783	0.374961
C67	C	0.460768	-0.916058	0.733847
N68	N	0.343017	-0.920149	0.706728
C69	C	0.547523	-0.989822	0.532099
N70	N	0.463917	-1.023023	0.505011
H71	H	0.782432	-0.346663	0.404699
C72	C	0.547249	-0.272741	0.218297
N73	N	0.463544	-0.299824	0.185134
H74	H	0.576048	-0.144687	0.229782
C75	C	0.971348	-0.821497	0.532026
N76	N	1.054983	-0.788292	0.504907
C77	C	0.732894	-0.337081	0.183759
N78	N	0.722373	-0.309928	0.137000
H79	H	0.736582	-0.465153	0.199841
H80	H	0.501279	-0.914651	0.861915
C81	C	0.971006	-0.821513	0.935666
N82	N	1.054637	-0.788305	0.908548
H83	H	0.576007	-0.978383	0.945080
C84	C	1.057787	-0.895296	0.733912
N85	N	1.175590	-0.891213	0.706820
H86	H	0.942759	-0.263490	0.374913
C87	C	0.971228	-0.821507	0.669439
N88	N	1.054805	-0.788302	0.696535
C89	C	0.786128	-0.474744	0.420783
N90	N	0.796628	-0.501901	0.467541
C91	C	0.547381	-0.538968	0.218205
N92	N	0.463653	-0.511837	0.185065
C93	C	0.547431	-0.676381	0.218156
N94	N	0.463728	-0.703465	0.184993
H95	H	0.942043	-0.832963	1.063732
