data_functionalizedCrystal
_audit_creation_method	'MofGen! by Chris Wilmer'
_symmetry_space_group_name_H-M	'P1'
_symmetry_Int_Tables_number	1
_symmetry_cell_setting	triclinic
loop_
_symmetry_equiv_pos_as_xyz
  x,y,z
_cell_length_a	10.685594
_cell_length_b	29.839135
_cell_length_c	10.686551
_cell_angle_alpha	85.599892
_cell_angle_beta	90.301037
_cell_angle_gamma	94.387892
loop_
_atom_site_label
_atom_site_type_symbol
_atom_site_fract_x
_atom_site_fract_y
_atom_site_fract_z
Zn1	Zn	-0.444811	0.695146	-0.747735
Zn2	Zn	-0.670723	0.683645	-0.554053
Zn3	Zn	-0.460985	0.613843	-0.537971
Zn4	Zn	-0.654541	0.614728	-0.763747
O5	O	-0.557765	0.651841	-0.650877
O6	O	-0.474782	0.756489	-0.722073
O7	O	-0.656442	0.669202	-0.376376
O8	O	-0.283291	0.629071	-0.552365
O9	O	-0.640759	0.748039	-0.579775
O10	O	-0.271408	0.688804	-0.706478
O11	O	-0.502348	0.617918	-0.364560
O12	O	-0.486657	0.551092	-0.567891
O13	O	-0.613179	0.630580	-0.937167
O14	O	-0.628862	0.551743	-0.733767
O15	O	-0.459091	0.689663	-0.925403
O16	O	-0.844125	0.670061	-0.595301
O17	O	-0.832237	0.619428	-0.749362
C18	C	-0.557760	0.535117	-0.650822
C19	C	-0.557785	0.485182	-0.650831
C20	C	-0.471454	0.179938	-0.725098
C21	C	-0.471460	-0.007735	-0.725135
O22	O	-0.398034	-0.028260	-0.788217
N23	N	-0.557763	-0.035600	-0.650923
C24	C	-0.644066	-0.016545	-0.576690
O25	O	-0.717464	-0.044552	-0.513559
C26	C	-0.644053	0.171126	-0.576648
C27	C	-0.557752	0.198990	-0.650874
C28	C	-0.385159	0.207801	-0.799318
C29	C	-0.385163	0.254716	-0.799313
C30	C	-0.471462	0.273768	-0.725089
C31	C	-0.557756	0.245905	-0.650870
C32	C	-0.730349	0.190181	-0.502409
C33	C	-0.730336	0.237102	-0.502403
C34	C	-0.644035	0.264965	-0.576629
C35	C	-0.644058	0.311872	-0.576641
N36	N	-0.557755	0.339738	-0.650853
C37	C	-0.471457	0.320686	-0.725077
C38	C	-0.644068	-0.115075	-0.576720
C39	C	-0.644073	-0.161992	-0.576732
C40	C	-0.471465	-0.153179	-0.725174
C41	C	-0.471467	-0.106260	-0.725168
C42	C	-0.557765	-0.087209	-0.650931
C43	C	-0.471472	0.419211	-0.725062
C44	C	-0.471487	0.466130	-0.725055
C45	C	-0.644090	0.457312	-0.576608
C46	C	-0.644080	0.410397	-0.576619
C47	C	-0.557760	0.391348	-0.650850
O48	O	-0.717437	0.332429	-0.513581
O49	O	-0.398051	0.348701	-0.788177
C50	C	-0.471450	0.133022	-0.725103
C51	C	-0.557745	0.105159	-0.650884
C52	C	-0.644043	0.124212	-0.576660
C53	C	-0.557749	0.058242	-0.650896
C54	C	-0.471451	0.039190	-0.725120
C55	C	-0.385148	0.067055	-0.799331
C56	C	-0.385151	0.113970	-0.799327
C57	C	-0.730346	0.096346	-0.502448
C58	C	-0.730336	0.049431	-0.502460
C59	C	-0.644038	0.030379	-0.576684
C60	C	-0.883697	0.643605	-0.675841
C61	C	-1.023128	0.640124	-0.686563
C62	C	-0.230559	0.660121	-0.625842
C63	C	-0.091123	0.663650	-0.615174
C64	C	-0.532526	0.661503	-0.978074
C65	C	-0.521771	0.665621	-1.117507
C66	C	-0.557772	0.769020	-0.650932
C67	C	-0.557774	0.818955	-0.650956
C68	C	-0.582816	0.642244	-0.324945
C69	C	-0.593218	0.638223	-0.185486
H70	H	-0.401179	0.403707	-0.785504
H71	H	-0.714366	0.387710	-0.516194
H72	H	-1.042668	0.686457	-0.545856
H73	H	-0.452374	0.692231	-1.165983
H74	H	-1.071590	0.617320	-0.755894
C75	C	-0.686971	0.602276	-1.120007
N76	N	-0.757585	0.575201	-1.070680
H77	H	-0.401209	0.488815	-0.785503
C78	C	-0.290209	0.285360	-0.880950
N79	N	-0.218678	0.308438	-0.942437
C80	C	-0.739005	0.478279	-0.494955
N81	N	-0.810486	0.494072	-0.433443
H82	H	-0.314878	0.192294	-0.859759
H83	H	-0.401191	-0.083577	-0.785607
H84	H	-0.800625	0.026748	-0.442019
H85	H	-0.401198	-0.168699	-0.785611
H86	H	-0.714346	-0.099568	-0.516264
C87	C	-0.290209	0.046089	-0.880967
N88	N	-0.218698	0.030294	-0.942442
H89	H	-0.714361	-0.184675	-0.516304
H90	H	-0.800623	0.167502	-0.441965
H91	H	-0.314876	0.136653	-0.859769
C92	C	-0.825276	0.258055	-0.420738
N93	N	-0.896789	0.273835	-0.359232
H94	H	-0.800621	0.111853	-0.442003
