data_functionalizedCrystal
_audit_creation_method	'MofGen! by Chris Wilmer'
_symmetry_space_group_name_H-M	'P1'
_symmetry_Int_Tables_number	1
_symmetry_cell_setting	triclinic
loop_
_symmetry_equiv_pos_as_xyz
  x,y,z
_cell_length_a	14.971491
_cell_length_b	14.971486
_cell_length_c	13.448316
_cell_angle_alpha	90.003864
_cell_angle_beta	90.006926
_cell_angle_gamma	83.615182
loop_
_atom_site_label
_atom_site_type_symbol
_atom_site_fract_x
_atom_site_fract_y
_atom_site_fract_z
O1	O	1.186943	0.116583	0.082735
O2	O	0.926543	0.130537	0.082728
O3	O	1.063722	-0.006640	0.082724
O4	O	1.049764	0.253760	0.082738
O5	O	1.063709	-0.006641	-0.082659
O6	O	0.926530	0.130536	-0.082656
O7	O	1.186929	0.116582	-0.082649
Cu8	Cu	1.056728	0.123559	-0.097753
Cu9	Cu	1.056744	0.123560	0.097832
O10	O	1.049750	0.253759	-0.082646
C11	C	0.893212	0.129912	0.000035
C12	C	0.793915	0.128039	0.000032
C13	C	0.366217	0.119959	0.090205
C14	C	0.459517	0.121716	0.090201
C15	C	0.506155	0.122600	0.000047
C16	C	0.459490	0.121717	-0.090109
C17	C	0.366192	0.119954	-0.090104
C18	C	0.653951	0.125395	-0.090113
C19	C	0.747255	0.127160	-0.090118
C20	C	0.747277	0.127156	0.090193
C21	C	0.653979	0.125393	0.090198
C22	C	0.607319	0.124513	0.000041
C23	C	1.063091	-0.039965	0.000033
C24	C	1.061221	-0.139262	0.000034
C25	C	1.141810	-0.196486	0.000035
C26	C	1.140046	-0.289786	0.000045
C27	C	1.057693	-0.325859	0.000046
C28	C	0.977098	-0.268628	0.000048
C29	C	0.978862	-0.175331	0.000045
C30	C	0.973427	-0.463091	0.000051
C31	C	0.971663	-0.556395	0.000052
C32	C	1.134611	-0.577546	0.000051
C33	C	1.136375	-0.484248	0.000049
C34	C	1.055780	-0.427023	0.000048
C35	C	1.220261	0.117207	0.000046
C36	C	1.319557	0.119080	0.000056
C37	C	1.050381	0.287084	0.000048
C38	C	1.052252	0.386381	0.000054
N39	N	1.056723	0.123557	-0.235318
C40	C	1.111025	0.177899	-0.287349
C41	C	1.111036	0.177895	-0.391452
C42	C	1.056740	0.123554	-0.443522
C43	C	1.002436	0.069205	-0.391484
C44	C	1.002430	0.069205	-0.287382
C45	C	1.002450	0.069211	-0.608464
C46	C	1.002454	0.069213	-0.712572
C47	C	1.111056	0.177902	-0.712534
C48	C	1.111051	0.177901	-0.608432
C49	C	1.056745	0.123554	-0.556401
N50	N	1.056756	0.123555	0.235396
H51	H	0.497471	0.122431	-0.163514
H52	H	1.205670	-0.336374	0.000044
O53	O	0.943874	0.010601	-0.552338
H54	H	0.906109	-0.027178	-0.606032
H55	H	0.615963	0.124688	-0.163528
H56	H	0.328202	0.119247	-0.163513
O57	O	1.225196	-0.445333	0.000059
H58	H	1.280943	-0.500798	0.000074
O59	O	1.169606	0.236516	-0.552265
H60	H	1.207374	0.274303	-0.605932
O61	O	1.169632	0.236519	-0.768648
H62	H	1.241097	0.217184	-0.748643
O63	O	0.509841	0.122664	0.187436
H64	H	0.544449	0.184379	0.191748
O65	O	0.943895	0.010601	-0.768740
H66	H	0.906141	-0.027199	-0.715072
H67	H	0.785225	0.127884	-0.163529
O68	O	0.603689	0.124414	0.187442
H69	H	0.613695	0.185656	0.230699
O70	O	0.943884	0.010583	-0.447645
H71	H	0.906133	-0.027215	-0.393972
O72	O	0.891938	-0.113610	0.000039
H73	H	0.906999	-0.042675	0.000047
O74	O	0.797595	0.128096	0.187438
H75	H	0.870308	0.129457	0.172293
O76	O	1.221538	-0.639268	0.000055
H77	H	1.260928	-0.626446	-0.067362
O78	O	1.230637	-0.157584	0.000045
H79	H	1.269368	-0.180575	-0.067354
O80	O	0.882842	-0.595310	0.000071
H81	H	0.827095	-0.539846	0.000089
H82	H	1.155256	0.222145	-0.433812
O83	O	1.169588	0.236512	-0.231189
H84	H	1.207355	0.274292	-0.284863
O85	O	0.886502	-0.401365	0.000041
H86	H	0.828939	-0.442121	0.000029
H87	H	0.910045	-0.298007	0.000055
H88	H	0.958211	0.024954	-0.245020
H89	H	0.328250	0.119246	0.163619
