data_functionalizedCrystal
_audit_creation_method	'MofGen! by Chris Wilmer'
_symmetry_space_group_name_H-M	'P1'
_symmetry_Int_Tables_number	1
_symmetry_cell_setting	triclinic
loop_
_symmetry_equiv_pos_as_xyz
  x,y,z
_cell_length_a	17.699083
_cell_length_b	17.038272
_cell_length_c	16.776229
_cell_angle_alpha	89.993292
_cell_angle_beta	89.998886
_cell_angle_gamma	87.197286
loop_
_atom_site_label
_atom_site_type_symbol
_atom_site_fract_x
_atom_site_fract_y
_atom_site_fract_z
O1	O	1.010620	0.098861	-0.066177
O2	O	0.791093	0.111723	-0.066203
O3	O	0.899552	-0.008521	-0.066184
O4	O	0.902161	0.219105	-0.066196
O5	O	0.899536	-0.008529	0.066393
O6	O	0.791077	0.111716	0.066374
O7	O	1.010604	0.098854	0.066400
Zn8	Zn	0.900838	0.105283	0.087436
Zn9	Zn	0.900859	0.105293	-0.087239
O10	O	0.902145	0.219098	0.066381
C11	C	0.762857	0.111258	0.000082
C12	C	0.678748	0.109876	0.000072
C13	C	0.634797	0.180457	0.000069
C14	C	0.555767	0.179153	0.000079
C15	C	0.520690	0.107267	0.000087
C16	C	0.564647	0.036681	0.000093
C17	C	0.643675	0.037986	0.000089
C18	C	0.245935	0.031418	0.000113
C19	C	0.166901	0.030119	0.000116
C20	C	0.158028	0.172585	0.000104
C21	C	0.237056	0.173890	0.000099
C22	C	0.281006	0.103304	0.000109
C23	C	0.366699	0.104719	0.000100
C24	C	0.434999	0.105852	0.000091
C25	C	0.897170	-0.037649	0.000104
C26	C	0.890090	-0.124431	0.000103
C27	C	0.955100	-0.174651	0.000112
C28	C	0.948442	-0.256191	0.000103
C29	C	0.876773	-0.287509	0.000092
C30	C	0.811758	-0.237282	0.000081
C31	C	0.818417	-0.155744	0.000084
C32	C	0.853251	-0.533228	0.000079
C33	C	0.846597	-0.614773	0.000078
C34	C	0.983282	-0.633676	0.000099
C35	C	0.989934	-0.552135	0.000106
C36	C	0.924919	-0.501916	0.000091
C37	C	0.869967	-0.370855	0.000086
C38	C	0.931726	-0.418571	0.000092
C39	C	1.038840	0.099318	0.000113
C40	C	1.122949	0.100701	0.000118
C41	C	0.904526	0.248226	0.000091
C42	C	0.911607	0.335007	0.000087
N43	N	0.900829	0.105276	0.206647
N44	N	0.900873	0.105294	-0.206450
C45	C	0.948872	0.052054	0.248373
C46	C	0.948876	0.052053	0.331825
C47	C	0.900841	0.105279	0.373550
C48	C	0.852793	0.158504	0.331819
C49	C	0.852785	0.158501	0.248368
C50	C	0.852821	0.158520	0.668366
C51	C	0.852834	0.158521	0.751823
C52	C	0.948912	0.052072	0.751823
C53	C	0.948904	0.052069	0.668372
C54	C	0.900854	0.105290	0.626648
C55	C	0.900849	0.105289	0.536160
C56	C	0.900849	0.105285	0.464037
H57	H	0.519986	0.236627	0.000075
H58	H	0.811613	-0.396363	0.000079
N59	N	0.129068	-0.047419	0.000141
H60	H	0.072335	-0.037532	0.000141
H61	H	0.144817	-0.078306	-0.049000
H62	H	0.122235	0.230060	0.000100
N63	N	0.801010	0.215926	0.623362
H64	H	0.765577	0.186095	0.588749
H65	H	0.770634	0.249637	0.662505
N66	N	0.293332	-0.044710	0.000130
H67	H	0.259117	-0.090444	0.000134
H68	H	0.326318	-0.047276	-0.049016
N69	N	0.800976	0.215908	0.376818
H70	H	0.808271	0.207837	0.436015
H71	H	0.813283	0.271356	0.362219
H72	H	0.987995	0.008715	0.365798
N73	N	1.018560	-0.310357	0.000117
H74	H	1.064972	-0.278145	0.000132
H75	H	1.018762	-0.344605	0.049265
N76	N	1.009023	-0.384794	0.000113
H77	H	1.049202	-0.428978	0.000121
H78	H	1.014771	-0.351368	-0.049033
N79	N	1.067229	-0.518347	0.000098
H80	H	1.073035	-0.484941	0.049242
H81	H	1.107364	-0.562571	0.000066
H82	H	0.788233	-0.640268	0.000082
N83	N	1.000734	-0.005338	0.796828
H84	H	1.031165	-0.039052	0.757731
H85	H	1.036115	0.024555	0.831442
N86	N	0.672625	0.257993	0.000066
H87	H	0.729359	0.248112	0.000062
H88	H	0.656870	0.288875	-0.049082
H89	H	0.753404	-0.262788	0.000067
H90	H	1.036213	-0.674572	0.000110
H91	H	0.800310	-0.492349	0.000066
H92	H	0.536080	-0.021849	0.000112
H93	H	0.765478	-0.114855	0.000077
N94	N	0.274890	0.251423	0.000079
H95	H	0.235055	0.295939	0.000078
H96	H	0.307490	0.255067	0.049223
N97	N	0.691083	-0.038140	0.000099
H98	H	0.656871	-0.083878	0.000104
H99	H	0.724066	-0.040703	-0.049049
N100	N	0.800964	0.215900	0.203360
H101	H	0.770535	0.249620	0.242454
H102	H	0.832152	0.250424	0.168723
N103	N	1.032400	-0.140875	0.000132
H104	H	1.072573	-0.185065	0.000134
H105	H	1.038148	-0.107449	-0.049014
N106	N	1.000687	-0.005350	0.203372
H107	H	1.031121	-0.039067	0.242472
H108	H	0.969490	-0.039876	0.168757
H109	H	0.988022	0.008730	0.634402
H110	H	0.813715	0.201865	0.785794
