data_functionalizedCrystal
_audit_creation_method	'MofGen! by Chris Wilmer'
_symmetry_space_group_name_H-M	'P1'
_symmetry_Int_Tables_number	1
_symmetry_cell_setting	triclinic
loop_
_symmetry_equiv_pos_as_xyz
  x,y,z
_cell_length_a	15.297475
_cell_length_b	16.625545
_cell_length_c	15.296720
_cell_angle_alpha	80.355801
_cell_angle_beta	88.382886
_cell_angle_gamma	80.328138
loop_
_atom_site_label
_atom_site_type_symbol
_atom_site_fract_x
_atom_site_fract_y
_atom_site_fract_z
Zn1	Zn	1.253363	-0.627520	0.726586
Zn2	Zn	1.278618	-0.743622	0.580099
Zn3	Zn	1.132243	-0.582224	0.554827
Zn4	Zn	1.106845	-0.735696	0.701227
O5	O	1.192767	-0.672265	0.640685
O6	O	1.379290	-0.665194	0.728342
O7	O	1.280400	-0.706572	0.454172
O8	O	1.148370	-0.475415	0.577648
O9	O	1.397845	-0.750494	0.620719
O10	O	1.237356	-0.508694	0.703838
O11	O	1.172859	-0.587994	0.435605
O12	O	1.006298	-0.580309	0.553059
O13	O	1.105082	-0.736986	0.827166
O14	O	0.987638	-0.693064	0.660618
O15	O	1.212728	-0.657509	0.845796
O16	O	1.255773	-0.855388	0.596131
O17	O	1.129571	-0.849565	0.685123
C18	C	0.965185	-0.630912	0.601345
C19	C	0.867820	-0.613243	0.584536
C20	C	0.554663	-0.798555	0.760823
C21	C	0.646142	-0.815162	0.776613
C22	C	0.701566	-0.764684	0.728595
C23	C	0.665502	-0.697596	0.664784
C24	C	0.574015	-0.680991	0.648987
C25	C	0.720918	-0.647119	0.616760
C26	C	0.684854	-0.580032	0.552949
C27	C	0.593375	-0.563430	0.537156
C28	C	0.537951	-0.613908	0.585173
C29	C	0.812405	-0.663724	0.632557
C30	C	0.831757	-0.546160	0.520722
C31	C	0.740278	-0.529553	0.504932
C32	C	1.192677	-0.881735	0.640641
C33	C	1.192713	-0.971366	0.640665
C34	C	1.192744	-1.044157	0.640688
C35	C	1.192792	-1.135477	0.640716
C36	C	1.192836	-1.208263	0.640735
C37	C	1.192883	-1.299589	0.640762
C38	C	1.421239	-0.713781	0.680178
C39	C	1.518599	-0.731472	0.697008
C40	C	1.153255	-0.701416	0.869152
C41	C	1.136417	-0.713838	0.966510
C42	C	1.192879	-0.461984	0.640752
C43	C	1.192926	-0.372375	0.640781
C44	C	1.232177	-0.643179	0.413115
C45	C	1.249184	-0.630560	0.315786
C46	C	1.313143	-0.583346	1.279750
C47	C	1.328969	-0.571677	1.188278
C48	C	1.280832	-0.607216	1.132831
C49	C	1.216867	-0.654427	1.168867
C50	C	1.201045	-0.666102	1.260349
C51	C	1.168734	-0.689972	1.113430
C52	C	1.104769	-0.737183	1.149465
C53	C	1.088949	-0.748856	1.240939
C54	C	1.137086	-0.713317	1.296385
C55	C	1.184556	-0.678297	1.021948
C56	C	1.072458	-0.761053	1.002547
C57	C	1.056633	-0.772722	1.094019
H58	H	0.463460	-0.600389	0.572322
H59	H	0.564017	-0.508809	0.485188
H60	H	0.841759	-0.718347	0.684513
H61	H	0.776052	-0.778209	0.741456
O62	O	1.121571	-0.724559	1.385220
C63	C	1.014880	-0.705386	1.501976
C64	C	1.032334	-0.692586	1.401352
H65	H	0.942730	-0.679558	1.515050
H66	H	1.060207	-0.671843	1.535454
H67	H	1.028775	-0.774296	1.529919
H68	H	1.018430	-0.623696	1.373331
H69	H	0.987014	-0.726183	1.367937
H70	H	0.710901	-0.474930	0.452976
O71	O	1.391174	-0.525926	1.153235
C72	C	1.527245	-0.523328	1.070309
C73	C	1.456883	-0.575255	1.109979
H74	H	1.580378	-0.563183	1.035312
H75	H	1.559005	-0.499933	1.125605
H76	H	1.494400	-0.468396	1.020587
H77	H	1.489660	-0.630223	1.159691
H78	H	1.425128	-0.598586	1.054636
H79	H	1.352334	-0.554420	1.324903
O80	O	1.296309	-0.596036	1.043994
C81	C	1.341485	-0.660695	0.916606
C82	C	1.323988	-0.673470	1.017223
H83	H	1.363848	-0.723291	0.894928
H84	H	1.395516	-0.620902	0.900354
H85	H	1.277974	-0.628427	0.880035
H86	H	1.387448	-0.705761	1.053863
H87	H	1.269921	-0.713231	1.033408
O88	O	0.885707	-0.497180	0.474179
C89	C	1.035227	-0.470690	0.448914
C90	C	0.974221	-0.526205	0.501698
H91	H	1.106805	-0.494146	0.471130
H92	H	1.014650	-0.404408	0.461331
H93	H	1.029389	-0.472448	0.375149
H94	H	0.980029	-0.524517	0.575479
H95	H	0.994815	-0.592461	0.489207
H96	H	1.236636	-0.639856	0.992617
O97	O	1.026761	-0.794714	1.275796
C98	C	0.917282	-0.875605	1.246903
C99	C	0.987669	-0.823675	1.207310
H100	H	0.885669	-0.899049	1.191553
H101	H	0.864040	-0.835758	1.281792
H102	H	0.950077	-0.930505	1.296693
H103	H	0.954952	-0.768771	1.157485
H104	H	1.040904	-0.863580	1.172476
O105	O	0.994564	-0.818694	1.128941
C106	C	0.947155	-0.951688	1.149590
C107	C	1.017500	-0.899715	1.109979
H108	H	0.965684	-1.017208	1.134290
H109	H	0.879630	-0.922462	1.119382
H110	H	0.944105	-0.953879	1.224487
H111	H	1.020630	-0.897504	1.035084
H112	H	1.084990	-0.928959	1.140255
H113	H	1.033263	-0.789994	0.957402
H114	H	0.509530	-0.839652	0.799906
O115	O	0.681023	-0.880336	0.838654
C116	C	0.652175	-0.995222	0.947871
C117	C	0.612554	-0.921424	0.877645
H118	H	0.596840	-1.028473	0.979402
H119	H	0.687062	-0.971945	1.001197
H120	H	0.701976	-1.039919	0.914953
H121	H	0.562718	-0.876699	0.910485
H122	H	0.577724	-0.944761	0.824326
