data_functionalizedCrystal
_audit_creation_method	'MofGen! by Chris Wilmer'
_symmetry_space_group_name_H-M	'P1'
_symmetry_Int_Tables_number	1
_symmetry_cell_setting	triclinic
loop_
_symmetry_equiv_pos_as_xyz
  x,y,z
_cell_length_a	9.065218
_cell_length_b	9.482900
_cell_length_c	9.065218
_cell_angle_alpha	80.524781
_cell_angle_beta	85.015885
_cell_angle_gamma	99.429133
loop_
_atom_site_label
_atom_site_type_symbol
_atom_site_fract_x
_atom_site_fract_y
_atom_site_fract_z
O1	O	1.983090	0.120893	0.193561
O2	O	1.553806	0.120895	0.211307
O3	O	1.777321	0.120891	-0.012208
O4	O	1.759575	0.120897	0.417076
O5	O	1.731922	-0.120901	0.033378
O6	O	1.508407	-0.120897	0.256893
O7	O	1.937692	-0.120899	0.239147
Cu8	Cu	1.718904	-0.142975	0.252182
Cu9	Cu	1.772593	0.142971	0.198272
O10	O	1.714177	-0.120895	0.462661
C11	C	1.476120	-0.000001	0.232394
C12	C	1.312277	-0.000000	0.227295
N13	N	1.681153	-0.344095	0.290099
C14	C	1.761448	-0.416296	0.209448
C15	C	1.730049	-0.583712	0.241007
C16	C	2.015378	0.000000	0.218059
C17	C	2.179223	0.000009	0.223157
C18	C	1.752916	-0.000003	-0.044402
C19	C	1.747818	0.000004	-0.208246
N20	N	1.810356	0.344091	0.160343
C21	C	1.738582	0.000002	0.494855
C22	C	1.743682	0.000004	0.658698
H23	H	1.853432	-0.354169	0.117029
H24	H	1.589159	-0.406223	0.382506
C25	C	1.607155	-0.666459	0.364049
C26	C	1.468617	-0.629594	0.331570
C27	C	1.355372	-0.705807	0.444868
H28	H	1.629199	-0.641648	0.458091
H29	H	1.602251	-0.767987	0.368875
H30	H	1.473522	-0.528089	0.326760
H31	H	1.446525	-0.654408	0.237548
H32	H	1.350468	-0.807335	0.449693
H33	H	1.377430	-0.680991	0.538902
H34	H	1.261359	-0.680815	0.422839
C35	C	1.932684	-0.572828	0.036903
C36	C	1.939334	-0.423293	0.029961
C37	C	2.051868	-0.346715	-0.083863
H38	H	1.910192	-0.597712	-0.056992
H39	H	2.027017	-0.597419	0.058316
H40	H	1.845022	-0.398713	0.008539
H41	H	1.961846	-0.398366	0.123828
H42	H	2.146201	-0.371305	-0.062451
H43	H	2.029365	-0.371610	-0.177750
H44	H	2.056404	-0.245248	-0.088579
