data_functionalizedCrystal
_audit_creation_method	'MofGen! by Chris Wilmer'
_symmetry_space_group_name_H-M	'P1'
_symmetry_Int_Tables_number	1
_symmetry_cell_setting	triclinic
loop_
_symmetry_equiv_pos_as_xyz
  x,y,z
_cell_length_a	12.837943
_cell_length_b	16.109301
_cell_length_c	11.295443
_cell_angle_alpha	94.604654
_cell_angle_beta	94.168825
_cell_angle_gamma	89.145210
loop_
_atom_site_label
_atom_site_type_symbol
_atom_site_fract_x
_atom_site_fract_y
_atom_site_fract_z
O1	O	-1.381606	-0.221622	-0.099013
O2	O	-1.079804	-0.210946	-0.099020
O3	O	-1.238995	-0.095911	-0.099004
O4	O	-1.222415	-0.336657	-0.099029
O5	O	-1.226529	-0.084921	0.099049
O6	O	-1.067339	-0.199956	0.099033
O7	O	-1.369140	-0.210632	0.099040
Cu8	Cu	-1.217101	-0.204290	0.117120
Cu9	Cu	-1.231843	-0.217288	-0.117101
O10	O	-1.209949	-0.325667	0.099024
C11	C	-1.034952	-0.201844	0.000006
C12	C	-0.919879	-0.191088	0.000004
C13	C	-1.232091	-0.059388	0.000023
C14	C	-1.230077	0.033068	0.000024
C15	C	-1.413993	-0.219734	0.000011
C16	C	-1.529066	-0.230491	0.000006
C17	C	-0.678877	-0.320404	0.000008
C18	C	-0.570754	-0.310301	0.000007
C19	C	-0.595509	-0.160779	0.000009
C20	C	-0.703632	-0.170882	0.000010
C21	C	-0.745311	-0.250697	0.000008
C22	C	-0.853436	-0.260800	0.000000
C23	C	-0.878188	-0.111278	0.000011
C24	C	-0.770066	-0.101175	0.000010
C25	C	-1.216854	-0.362190	-0.000006
C26	C	-1.218868	-0.454646	-0.000015
N27	N	-1.206740	-0.195148	0.281859
C28	C	-1.319857	0.248207	0.000008
C29	C	-1.317957	0.335078	-0.000002
C30	C	-1.129082	0.330208	-0.000002
C31	C	-1.130983	0.243338	-0.000000
C32	C	-1.226373	0.202340	0.000010
C33	C	-1.222572	0.376081	-0.000001
C34	C	-1.220512	0.470270	-0.000012
C35	C	-1.228434	0.108145	0.000019
N36	N	-1.242213	-0.226424	-0.281839
C37	C	-1.132161	-0.129354	0.468894
C38	C	-1.139983	-0.136259	0.344228
C39	C	-1.265682	-0.247135	0.344163
C40	C	-1.257861	-0.240230	0.468828
C41	C	-1.191097	-0.181338	0.531189
C42	C	-1.183271	-0.174437	0.655857
C43	C	-1.308975	-0.285309	0.655789
C44	C	-1.316797	-0.292214	0.531124
H45	H	-0.887369	-0.325790	0.000000
C46	C	-0.643552	-0.467187	-0.000006
C47	C	-0.724699	-0.408134	-0.000000
H48	H	-0.671842	-0.521348	-0.000004
H49	H	-0.606245	-0.463970	-0.069068
H50	H	-0.597547	-0.456300	0.069064
H51	H	-0.770701	-0.419018	-0.069076
H52	H	-0.762023	-0.411354	0.069068
H53	H	-1.394081	0.372418	-0.000007
C54	C	-1.008691	-0.020455	0.456441
C55	C	-1.058774	-0.064624	0.537448
H56	H	-0.963390	0.019509	0.498765
H57	H	-0.969256	-0.058027	0.407820
H58	H	-1.059466	0.007118	0.407811
H59	H	-1.008000	-0.092203	0.586072
H60	H	-1.098212	-0.027047	0.586090
H61	H	-1.371157	-0.340160	0.480333
H62	H	-1.128904	-0.126487	0.706629
C63	C	-0.764284	0.023722	-0.101807
C64	C	-0.724247	-0.013444	0.000007
H65	H	-0.736003	0.077886	-0.101806
H66	H	-0.745817	-0.009177	-0.170856
H67	H	-0.838186	0.027676	-0.101795
H68	H	-0.650345	-0.017404	-0.000010
H69	H	-0.742707	0.019463	0.069074
H70	H	-1.091991	-0.093927	0.293512
H71	H	-1.051418	0.363599	-0.000008
C72	C	-1.308753	-0.391780	0.305696
C73	C	-1.339069	-0.311860	0.275599
H74	H	-1.354065	-0.431736	0.263370
H75	H	-1.239117	-0.402701	0.285273
H76	H	-1.312536	-0.395106	0.388858
H77	H	-1.335279	-0.308532	0.192438
H78	H	-1.408723	-0.300936	0.296014
C79	C	-0.944087	0.247244	0.000012
C80	C	-1.028217	0.192915	0.000007
H81	H	-0.880649	0.216113	0.000021
H82	H	-0.951616	0.277390	-0.069049
H83	H	-0.942934	0.285066	0.069083
H84	H	-1.029375	0.155097	-0.069069
H85	H	-1.020686	0.162756	0.069075
C86	C	-0.589704	-0.035874	-0.101793
C87	C	-0.549679	-0.073051	0.000016
H88	H	-0.561413	0.018287	-0.101783
H89	H	-0.571240	-0.068771	-0.170845
H90	H	-0.663606	-0.031912	-0.101785
H91	H	-0.475778	-0.077019	0.000003
H92	H	-0.568137	-0.040146	0.069086
H93	H	-0.516666	-0.367064	0.000010
C94	C	-1.054923	-0.060368	0.000006
C95	C	-0.951217	-0.034648	0.000010
H96	H	-1.100006	-0.013060	0.000008
H97	H	-1.071893	-0.096572	-0.069054
H98	H	-1.063205	-0.088902	0.069077
H99	H	-0.942933	-0.006119	-0.069066
H100	H	-0.934242	0.001570	0.069077
C101	C	-1.480202	-0.329682	0.694106
C102	C	-1.373766	-0.342458	0.724260
H103	H	-1.520195	-0.364969	0.736372
H104	H	-1.498195	-0.273208	0.714563
H105	H	-1.494400	-0.342219	0.610931
H106	H	-1.359566	-0.329915	0.807434
H107	H	-1.355767	-0.398945	0.703810
H108	H	-1.397530	0.214829	0.000014
