data_functionalizedCrystal
_audit_creation_method	'MofGen! by Chris Wilmer'
_symmetry_space_group_name_H-M	'P1'
_symmetry_Int_Tables_number	1
_symmetry_cell_setting	triclinic
loop_
_symmetry_equiv_pos_as_xyz
  x,y,z
_cell_length_a	18.050591
_cell_length_b	16.959454
_cell_length_c	16.959447
_cell_angle_alpha	89.973264
_cell_angle_beta	89.978541
_cell_angle_gamma	90.016081
loop_
_atom_site_label
_atom_site_type_symbol
_atom_site_fract_x
_atom_site_fract_y
_atom_site_fract_z
Zn1	Zn	1.135339	-0.314750	-0.447079
Zn2	Zn	1.135266	-0.446943	-0.314909
Zn3	Zn	1.011157	-0.314773	-0.314900
Zn4	Zn	1.011123	-0.446881	-0.447031
O5	O	1.073221	-0.380837	-0.380980
O6	O	1.239253	-0.332302	-0.429570
O7	O	1.118786	-0.429445	-0.204296
O8	O	1.027674	-0.204159	-0.332450
O9	O	1.239200	-0.429423	-0.332465
O10	O	1.118910	-0.204142	-0.429562
O11	O	1.027603	-0.332340	-0.204290
O12	O	0.907228	-0.332281	-0.332404
O13	O	1.027617	-0.429319	-0.557648
O14	O	0.907203	-0.429341	-0.429479
O15	O	1.118878	-0.332242	-0.557683
O16	O	1.118754	-0.557545	-0.332418
O17	O	1.027547	-0.557500	-0.429488
C18	C	1.073159	-0.586203	-0.380966
C19	C	1.073200	-0.674060	-0.380987
C20	C	0.880269	-0.380807	-0.380936
C21	C	0.797723	-0.380814	-0.380936
C22	C	1.025799	-1.045542	-0.431518
C23	C	1.120850	-1.045529	-0.330521
C24	C	1.120824	-0.962983	-0.330514
C25	C	1.073284	-0.921712	-0.381009
C26	C	1.025770	-0.962988	-0.431511
C27	C	1.168333	-0.921701	-0.280007
C28	C	1.168308	-0.839150	-0.279997
C29	C	1.120771	-0.797878	-0.330497
C30	C	1.073255	-0.839159	-0.381001
C31	C	1.025715	-0.797889	-0.431496
C32	C	0.978202	-0.839168	-0.482005
C33	C	0.978232	-0.921716	-0.482010
C34	C	1.120741	-0.715330	-0.330492
C35	C	1.025686	-0.715335	-0.431489
C36	C	0.598264	-0.327971	-0.328268
C37	C	0.548854	-0.400068	-0.308821
C38	C	0.646593	-0.380838	-0.380972
C39	C	0.548921	-0.308766	-0.400416
C40	C	0.500608	-0.380854	-0.381005
C41	C	0.598270	-0.452972	-0.361487
C42	C	0.598341	-0.361621	-0.453116
C43	C	0.548954	-0.433768	-0.433697
C44	C	0.730691	-0.380827	-0.380951
C45	C	0.416511	-0.380873	-0.381026
C46	C	1.266927	-0.380867	-0.381024
C47	C	1.349472	-0.380880	-0.381043
C48	C	1.073252	-0.380771	-0.587148
C49	C	1.073265	-0.380743	-0.675004
C50	C	1.073304	-0.174668	-0.381010
C51	C	1.073339	-0.086812	-0.381023
C52	C	1.025839	-0.431203	-1.046464
C53	C	1.120869	-0.330117	-1.046496
C54	C	1.120849	-0.330134	-0.963950
C55	C	1.073324	-0.380687	-0.922658
C56	C	1.025819	-0.431223	-0.963911
C57	C	1.168359	-0.279604	-0.922691
C58	C	1.168342	-0.279619	-0.840140
C59	C	1.120812	-0.330169	-0.798846
C60	C	1.073305	-0.380707	-0.840104
C61	C	1.025780	-0.431260	-0.798811
C62	C	0.978268	-0.481794	-0.840068
C63	C	0.978290	-0.481773	-0.922617
C64	C	1.120790	-0.330190	-0.716297
C65	C	1.025760	-0.431280	-0.716258
C66	C	1.073233	-0.380845	-0.175613
C67	C	1.073364	-0.380650	-0.087757
H68	H	0.986975	-0.681738	-0.472611
H69	H	0.620095	-0.345334	-0.514095
H70	H	0.987117	-1.079155	-0.472644
H71	H	0.939549	-0.955333	-0.523131
C72	C	0.627185	-0.268321	-0.268906
C73	C	0.669850	-0.211528	-0.308060
C74	C	0.696496	-0.156565	-0.253403
H75	H	0.656888	-0.294483	-0.230792
H76	H	0.586609	-0.243386	-0.243391
H77	H	0.710420	-0.236460	-0.333562
H78	H	0.640162	-0.185346	-0.346170
H79	H	0.655920	-0.131630	-0.227888
H80	H	0.726196	-0.182734	-0.215292
H81	H	0.725442	-0.118021	-0.279962
H82	H	1.159551	-1.079136	-0.289406
H83	H	1.207032	-0.955309	-0.238891
C84	C	0.626900	-0.534340	-0.339500
C85	C	0.566878	-0.584863	-0.325895
C86	C	0.593225	-0.659825	-0.305647
H87	H	0.656155	-0.530744	-0.293095
H88	H	0.656225	-0.554523	-0.381411
H89	H	0.537565	-0.564686	-0.283988
H90	H	0.537618	-0.588483	-0.372291
H91	H	0.622550	-0.680007	-0.347557
H92	H	0.622479	-0.656220	-0.259243
H93	H	0.552504	-0.694116	-0.296420
H94	H	0.527438	-0.478534	-0.478281
C95	C	0.974176	-0.486099	-1.091109
C96	C	0.932543	-0.530360	-1.037275
C97	C	0.884937	-0.580931	-1.078373
H98	H	1.002494	-0.520606	-1.123313
H99	H	0.941796	-0.455867	-1.123295
H100	H	0.964919	-0.560590	-1.005103
H101	H	0.904210	-0.495874	-1.005070
H102	H	0.852556	-0.550699	-1.110558
H103	H	0.913261	-0.615433	-1.110575
H104	H	0.856678	-0.610963	-1.041853
H105	H	0.939491	-0.805556	-0.523115
C106	C	0.519973	-0.227463	-0.422172
C107	C	0.476225	-0.198385	-0.360513
C108	C	0.449557	-0.123486	-0.380515
H109	H	0.490999	-0.230993	-0.468781
H110	H	0.560539	-0.192843	-0.430943
H111	H	0.435666	-0.232996	-0.351752
H112	H	0.505184	-0.194836	-0.313898
H113	H	0.490122	-0.088866	-0.389286
H114	H	0.420586	-0.127023	-0.427125
H115	H	0.419877	-0.103744	-0.338680
H116	H	0.527118	-0.416334	-0.247824
C117	C	0.926699	-0.536594	-0.795089
C118	C	0.936847	-0.525780	-0.713967
C119	C	0.889350	-0.576239	-0.672505
H120	H	0.937499	-0.589734	-0.808511
H121	H	0.876791	-0.525006	-0.808560
H122	H	0.986744	-0.537374	-0.700501
H123	H	0.926042	-0.472651	-0.700521
H124	H	0.839442	-0.564651	-0.685976
H125	H	0.900154	-0.629376	-0.685934
H126	H	0.896224	-0.568904	-0.617460
C127	C	1.172362	-0.670413	-0.275786
C128	C	1.219911	-0.622950	-0.320583
C129	C	1.267471	-0.581556	-0.270212
H130	H	1.200746	-0.706725	-0.245694
H131	H	1.143981	-0.638203	-0.241327
H132	H	1.248289	-0.655158	-0.355028
H133	H	1.191547	-0.586624	-0.350674
H134	H	1.239090	-0.549346	-0.235753
H135	H	1.295850	-0.617874	-0.240123
H136	H	1.299734	-0.549342	-0.300599
C137	C	1.172388	-0.275267	-1.091468
C138	C	1.162228	-0.286056	-1.172591
C139	C	1.209670	-0.235533	-1.214046
H140	H	1.222308	-0.286796	-1.078036
H141	H	1.161531	-0.222142	-1.078000
H142	H	1.173090	-0.339170	-1.186053
H143	H	1.112318	-0.274522	-1.186047
H144	H	1.198813	-0.182407	-1.200579
H145	H	1.259587	-0.247067	-1.200608
H146	H	1.202778	-0.242841	-1.269092
C147	C	1.219978	-0.794479	-0.225138
C148	C	1.261630	-0.848291	-0.180933
C149	C	1.309245	-0.807168	-0.130399
H150	H	1.191667	-0.762308	-0.190594
H151	H	1.252347	-0.762258	-0.255394
H152	H	1.229265	-0.880498	-0.150680
H153	H	1.289956	-0.880464	-0.215457
H154	H	1.341614	-0.774948	-0.160655
H155	H	1.280928	-0.774999	-0.095860
H156	H	1.337516	-0.843673	-0.100406
H157	H	0.987052	-0.472440	-0.682643
C158	C	1.219911	-0.224597	-0.967426
C159	C	1.203786	-0.146391	-0.947349
C160	C	1.251268	-0.095696	-0.988541
H161	H	1.213160	-0.231717	-1.022508
H162	H	1.269816	-0.236130	-0.953891
H163	H	1.153894	-0.134861	-0.960890
H164	H	1.210543	-0.139246	-0.892274
H165	H	1.301173	-0.107229	-0.975006
H166	H	1.244513	-0.102823	-1.043622
H167	H	1.240339	-0.042628	-0.974920
C168	C	1.219790	-0.224689	-0.795259
C169	C	1.177735	-0.174044	-0.747873
C170	C	1.225098	-0.123429	-0.706513
H171	H	1.248106	-0.194505	-0.831591
H172	H	1.252124	-0.254898	-0.762998
H173	H	1.145414	-0.143838	-0.780131
H174	H	1.149420	-0.204206	-0.711526
H175	H	1.257432	-0.153638	-0.674252
H176	H	1.253411	-0.093251	-0.742851
H177	H	1.196571	-0.089066	-0.674352
H178	H	0.939610	-0.522918	-0.956215
H179	H	1.159476	-0.289048	-0.682710
