data_functionalizedCrystal
_audit_creation_method	'MofGen! by Chris Wilmer'
_symmetry_space_group_name_H-M	'P1'
_symmetry_Int_Tables_number	1
_symmetry_cell_setting	triclinic
loop_
_symmetry_equiv_pos_as_xyz
  x,y,z
_cell_length_a	29.839134
_cell_length_b	18.101395
_cell_length_c	18.101390
_cell_angle_alpha	90.031336
_cell_angle_beta	90.020567
_cell_angle_gamma	90.009416
loop_
_atom_site_label
_atom_site_type_symbol
_atom_site_fract_x
_atom_site_fract_y
_atom_site_fract_z
Zn1	Zn	-0.686783	0.295230	-0.418765
Zn2	Zn	-0.686720	0.419087	-0.294927
Zn3	Zn	-0.611657	0.295217	-0.294935
Zn4	Zn	-0.611627	0.418987	-0.418725
O5	O	-0.649197	0.357130	-0.356838
O6	O	-0.749642	0.311707	-0.402352
O7	O	-0.676748	0.402691	-0.191295
O8	O	-0.621661	0.191586	-0.311382
O9	O	-0.749595	0.402704	-0.311368
O10	O	-0.676857	0.191595	-0.402359
O11	O	-0.621600	0.311685	-0.191301
O12	O	-0.548786	0.311588	-0.311343
O13	O	-0.621611	0.402534	-0.522363
O14	O	-0.548764	0.402522	-0.402290
O15	O	-0.676828	0.311610	-0.522393
O16	O	-0.676720	0.522707	-0.311329
O17	O	-0.621550	0.522633	-0.402282
C18	C	-0.532474	0.357043	-0.356813
C19	C	-0.482540	0.357024	-0.356820
C20	C	-0.125973	0.309813	-0.404287
C21	C	-0.313646	0.309765	-0.404277
O22	O	-0.337928	0.269552	-0.444644
N23	N	-0.337095	0.357063	-0.356832
C24	C	-0.313622	0.404379	-0.309390
O25	O	-0.337873	0.444613	-0.269041
C26	C	-0.125950	0.404430	-0.309405
C27	C	-0.102504	0.357124	-0.356847
C28	C	-0.102526	0.262511	-0.451727
C29	C	-0.055611	0.262521	-0.451726
C30	C	-0.032142	0.309832	-0.404286
C31	C	-0.055588	0.357133	-0.356847
C32	C	-0.102478	0.451749	-0.261967
C33	C	-0.055557	0.451759	-0.261976
C34	C	-0.032111	0.404453	-0.309419
C35	C	0.014796	0.404454	-0.309406
N36	N	0.038245	0.357156	-0.356851
C37	C	0.014776	0.309845	-0.404291
C38	C	-0.412153	0.404348	-0.309385
C39	C	-0.459071	0.404335	-0.309380
C40	C	-0.459091	0.309722	-0.404268
C41	C	-0.412172	0.309732	-0.404269
C42	C	-0.388704	0.357051	-0.356830
C43	C	0.113302	0.309868	-0.404285
C44	C	0.160221	0.309880	-0.404278
C45	C	0.160238	0.404495	-0.309393
C46	C	0.113322	0.404481	-0.309397
C47	C	0.089855	0.357165	-0.356849
O48	O	0.039107	0.444652	-0.269066
O49	O	0.039035	0.269629	-0.444646
C50	C	-0.172888	0.309803	-0.404288
C51	C	-0.196335	0.357105	-0.356849
C52	C	-0.172866	0.404416	-0.309409
C53	C	-0.243252	0.357091	-0.356844
C54	C	-0.266722	0.309780	-0.404284
C55	C	-0.243273	0.262483	-0.451729
C56	C	-0.196357	0.262492	-0.451728
C57	C	-0.196314	0.451713	-0.261964
C58	C	-0.243230	0.451699	-0.261968
C59	C	-0.266699	0.404388	-0.309408
C60	C	-0.649137	0.549541	-0.356816
C61	C	-0.649152	0.631855	-0.356832
C62	C	-0.649223	0.357063	-0.550000
C63	C	-0.649235	0.357034	-0.632314
C64	C	0.233625	0.357202	-0.356854
C65	C	0.183691	0.357191	-0.356838
C66	C	-0.649269	0.163968	-0.356876
C67	C	-0.649300	0.081654	-0.356893
C68	C	-0.649251	0.930946	-0.356872
C69	C	-0.614620	0.899605	-0.414239
C70	C	-0.614455	0.813987	-0.414060
C71	C	-0.649202	0.782563	-0.356853
C72	C	-0.636384	0.813712	-0.278803
C73	C	-0.636160	0.899357	-0.279146
C74	C	-0.696775	0.899318	-0.376867
C75	C	-0.696496	0.813666	-0.378579
C76	C	-0.649175	0.698704	-0.356837
C77	C	-0.649276	1.014805	-0.356882
C78	C	-0.649259	0.356988	-0.931405
C79	C	-0.684114	0.299982	-0.900099
C80	C	-0.684006	0.299770	-0.814481
C81	C	-0.649247	0.357011	-0.783023
C82	C	-0.601920	0.335778	-0.814094
C83	C	-0.602129	0.335350	-0.899740
C84	C	-0.661314	0.435372	-0.899820
C85	C	-0.662353	0.434973	-0.814170
C86	C	-0.649238	0.357025	-0.699163
C87	C	-0.649265	0.356972	-1.015265
C88	C	-0.649196	0.357144	-0.164428
C89	C	-0.649272	0.356964	-0.082114
H90	H	-0.121630	0.223984	-0.490362
H91	H	-0.478208	0.271197	-0.442894
H92	H	-0.579607	0.921171	-0.401161
Cl93	Cl	-0.674100	0.782293	-0.211007
Cl94	Cl	-0.560664	0.396649	-0.931715
H95	H	-0.719100	0.313071	-0.793474
Cl96	Cl	-0.738476	0.320257	-0.931913
Cl97	Cl	-0.671952	0.210828	-0.933347
H98	H	-0.676026	0.241702	-0.794006
Cl99	Cl	-0.560735	0.397909	-0.782641
H100	H	-0.706162	0.793305	-0.436019
H101	H	-0.708462	0.920869	-0.432811
H102	H	-0.591514	0.279115	-0.792654
Cl103	Cl	-0.166817	0.511187	-0.202310
Cl104	Cl	-0.382702	0.250261	-0.463914
H105	H	-0.262390	0.223957	-0.490353
H106	H	-0.635930	0.477848	-0.920071
Cl107	Cl	-0.738442	0.780633	-0.318775
H108	H	-0.622475	0.792924	-0.471933
Cl109	Cl	-0.026143	0.203054	-0.511378
H110	H	-0.591909	0.278051	-0.919729
H111	H	0.179309	0.271354	-0.442911
H112	H	-0.478157	0.442848	-0.270740
Cl113	Cl	-0.716128	0.459692	-0.782822
Cl114	Cl	0.189751	0.463968	-0.249756
H115	H	-0.622560	0.920154	-0.472300
H116	H	-0.177272	0.223971	-0.490361
Cl117	Cl	-0.382656	0.463830	-0.249730
Cl118	Cl	-0.713684	0.465181	-0.933178
H119	H	-0.638812	0.479731	-0.792753
H120	H	-0.121560	0.490271	-0.223334
H121	H	-0.579229	0.793543	-0.400815
H122	H	-0.601420	0.919380	-0.262208
H123	H	0.094201	0.271339	-0.442924
Cl124	Cl	0.083846	0.463957	-0.249760
Cl125	Cl	-0.026057	0.511254	-0.202339
Cl126	Cl	-0.736613	0.930626	-0.312370
Cl127	Cl	-0.673409	0.931375	-0.210898
Cl128	Cl	-0.583314	0.780671	-0.252182
Cl129	Cl	-0.272699	0.511169	-0.202312
