data_functionalizedCrystal
_audit_creation_method	'MofGen! by Chris Wilmer'
_symmetry_space_group_name_H-M	'P1'
_symmetry_Int_Tables_number	1
_symmetry_cell_setting	triclinic
loop_
_symmetry_equiv_pos_as_xyz
  x,y,z
_cell_length_a	8.559649
_cell_length_b	15.712078
_cell_length_c	7.681481
_cell_angle_alpha	82.545045
_cell_angle_beta	94.912730
_cell_angle_gamma	94.679907
loop_
_atom_site_label
_atom_site_type_symbol
_atom_site_fract_x
_atom_site_fract_y
_atom_site_fract_z
O1	O	2.093692	-0.019385	-0.146422
O2	O	1.653601	0.023587	-0.146426
O3	O	1.815100	-0.119841	-0.146416
O4	O	1.932193	0.124043	-0.146432
O5	O	1.834957	-0.137530	0.146443
O6	O	1.673458	0.005898	0.146433
O7	O	2.113549	-0.037075	0.146437
Zn8	Zn	1.896656	-0.018397	0.192933
Zn9	Zn	1.870494	0.004910	-0.192922
O10	O	1.952050	0.106354	0.146427
C11	C	1.605903	0.017999	0.000003
C12	C	1.434188	0.027693	0.000001
C13	C	1.805899	-0.159619	0.000012
C14	C	1.748882	-0.251788	0.000007
C15	C	2.232972	-0.651019	-0.000006
C16	C	2.179360	-0.737622	-0.000005
C17	C	1.910724	-0.699173	-0.000009
C18	C	1.964314	-0.612566	-0.000000
C19	C	2.125439	-0.588496	-0.000001
C20	C	1.856782	-0.550043	0.000005
C21	C	1.910368	-0.463442	0.000004
C22	C	2.071486	-0.439365	-0.000002
C23	C	2.179025	-0.501896	-0.000001
C24	C	1.695656	-0.574113	-0.000008
C25	C	1.588124	-0.511590	-0.000003
C26	C	1.641710	-0.424989	0.000009
C27	C	1.802828	-0.400912	0.000003
C28	C	1.534170	-0.362458	0.000009
C29	C	1.587756	-0.275858	0.000008
C30	C	1.856414	-0.314311	0.000003
C31	C	2.161247	-0.031486	0.000004
C32	C	2.332961	-0.041179	-0.000006
C33	C	1.961250	0.146132	-0.000005
C34	C	2.018267	0.238302	-0.000012
N35	N	1.914522	-0.034304	0.456268
N36	N	1.852636	0.020809	-0.456257
H37	H	1.389483	0.094075	-0.000021
F38	F	1.473309	-0.209313	0.000012
F39	F	1.739246	-0.724799	-0.000023
H40	H	2.364177	-0.631422	0.000012
F41	F	1.997124	-0.107831	0.554568
H42	H	1.789460	0.077064	0.468542
F43	F	1.391393	-0.127952	0.000001
H44	H	1.652031	-0.644629	-0.000017
F45	F	2.027906	-0.288694	0.000051
H46	H	2.115113	-0.368849	-0.000003
F47	F	2.293824	-0.804163	-0.000021
H48	H	2.310231	-0.482299	0.000017
H49	H	1.456934	-0.531200	-0.000009
H50	H	1.402980	-0.382069	-0.000009
