data_functionalizedCrystal
_audit_creation_method	'MofGen! by Chris Wilmer'
_symmetry_space_group_name_H-M	'P1'
_symmetry_Int_Tables_number	1
_symmetry_cell_setting	triclinic
loop_
_symmetry_equiv_pos_as_xyz
  x,y,z
_cell_length_a	19.288864
_cell_length_b	19.288857
_cell_length_c	18.366186
_cell_angle_alpha	89.991598
_cell_angle_beta	89.977106
_cell_angle_gamma	83.134677
loop_
_atom_site_label
_atom_site_type_symbol
_atom_site_fract_x
_atom_site_fract_y
_atom_site_fract_z
O1	O	0.921350	0.086649	-0.060787
O2	O	0.719089	0.098338	-0.060737
O3	O	0.826067	-0.008637	-0.060755
O4	O	0.814373	0.193624	-0.060769
O5	O	0.826049	-0.008643	0.060345
O6	O	0.719071	0.098333	0.060362
O7	O	0.921332	0.086644	0.060313
Zn8	Zn	0.820199	0.092487	0.079565
Zn9	Zn	0.820223	0.092494	-0.079989
O10	O	0.814355	0.193619	0.060330
C11	C	0.693204	0.097959	-0.000181
C12	C	0.616100	0.096830	-0.000162
C13	C	0.571402	0.159598	-0.000178
C14	C	0.498955	0.158537	-0.000186
C15	C	0.471210	0.094705	-0.000193
C16	C	0.515917	0.031929	-0.000172
C17	C	0.588363	0.032991	-0.000157
C18	C	0.362955	0.044528	-0.042640
C19	C	0.290511	0.043468	-0.042660
C20	C	0.247764	0.091425	-0.000236
C21	C	0.277469	0.140455	0.042197
C22	C	0.349914	0.141517	0.042213
C23	C	0.392656	0.093546	-0.000209
C24	C	0.124510	0.153048	-0.000260
C25	C	0.052062	0.151984	-0.000263
C26	C	0.069026	0.025374	-0.000257
C27	C	0.141472	0.026439	-0.000246
C28	C	0.169210	0.090278	-0.000251
C29	C	0.825683	-0.034516	-0.000204
C30	C	0.824556	-0.111620	-0.000202
C31	C	0.824040	-0.147828	-0.066213
C32	C	0.822971	-0.220274	-0.066218
C33	C	0.822432	-0.256511	-0.000208
C34	C	0.822945	-0.220294	0.065812
C35	C	0.824006	-0.147849	0.065815
C36	C	0.861426	-0.376745	0.050350
C37	C	0.860369	-0.449190	0.050344
C38	C	0.819155	-0.479957	-0.000216
C39	C	0.779007	-0.438272	-0.050781
C40	C	0.780068	-0.365827	-0.050778
C41	C	0.821281	-0.335066	-0.000205
C42	C	0.817479	-0.594719	-0.066237
C43	C	0.816406	-0.667166	-0.066240
C44	C	0.816386	-0.667186	0.065792
C45	C	0.817452	-0.594740	0.065793
C46	C	0.818002	-0.558511	-0.000224
C47	C	0.947218	0.087022	-0.000245
C48	C	1.024321	0.088151	-0.000269
C49	C	0.814739	0.219498	-0.000222
C50	C	0.815866	0.296602	-0.000229
N51	N	0.820188	0.092482	0.188456
N52	N	0.820240	0.092494	-0.188880
C53	C	0.867573	0.045137	0.226548
C54	C	0.867577	0.045134	0.302776
C55	C	0.820203	0.092488	0.340909
C56	C	0.772809	0.139837	0.302807
C57	C	0.772801	0.139834	0.226580
C58	C	0.810903	0.155776	0.461666
C59	C	0.810916	0.155780	0.537891
C60	C	0.820223	0.092497	0.576016
C61	C	0.829532	0.029207	0.537907
C62	C	0.829524	0.029204	0.461681
C63	C	0.820206	0.092496	0.423563
C64	C	0.867615	0.045144	0.696764
C65	C	0.867615	0.045140	0.772993
C66	C	0.772850	0.139849	0.773022
C67	C	0.772847	0.139847	0.696794
C68	C	0.820233	0.092495	0.658670
H69	H	0.374097	0.181437	0.076766
H70	H	0.046436	-0.026600	-0.000308
C71	C	0.733666	-0.472110	-0.106400
N72	N	0.699516	-0.497600	-0.148291
C73	C	0.839769	-0.040411	0.579839
N74	N	0.847480	-0.092844	0.611426
H75	H	0.906156	0.006579	0.195510
H76	H	0.837103	-0.022329	0.430656
C77	C	0.818073	-0.554864	-0.138856
N78	N	0.818518	-0.524847	-0.193553
H79	H	0.177867	-0.024674	-0.000237
H80	H	0.624757	-0.018124	-0.000145
H81	H	0.266331	0.003548	-0.077215
H82	H	0.906165	0.006578	0.333797
C83	C	0.824638	-0.107980	-0.138834
N84	N	0.825086	-0.077965	-0.193532
H85	H	0.906198	0.006585	0.665721
H86	H	0.147095	0.205029	-0.000253
C87	C	0.720702	0.191950	0.184677
N88	N	0.681471	0.231216	0.153114
C89	C	0.409970	-0.008231	-0.089315
N90	N	0.445380	-0.047966	-0.124471
C91	C	0.720769	0.191982	0.654890
N92	N	0.681557	0.231267	0.623329
C93	C	0.800668	0.225399	0.579803
N94	N	0.792946	0.277838	0.611370
C95	C	0.485396	-0.038287	-0.000180
N96	N	0.462407	-0.091176	-0.000184
H97	H	0.822546	-0.249760	-0.119974
C98	C	0.735901	-0.319975	-0.106393
N99	N	0.702630	-0.285439	-0.148281
H100	H	0.815942	-0.696689	0.119539
H101	H	0.815982	-0.696645	-0.119996
C102	C	0.818027	-0.554910	0.138411
N103	N	0.818459	-0.524911	0.193111
H104	H	0.893062	-0.483125	0.091515
H105	H	0.593981	0.211581	-0.000183
H106	H	0.803312	0.207312	0.430630
H107	H	0.894987	-0.351701	0.091527
H108	H	0.906199	0.006582	0.804009
C109	C	0.720694	0.191924	0.344754
N110	N	0.681437	0.231155	0.376348
C111	C	0.822350	-0.260157	0.138423
N112	N	0.821900	-0.290181	0.193116
C113	C	0.720738	0.191940	0.814963
N114	N	0.681486	0.231176	0.846556
C115	C	0.449778	0.227590	-0.000212
N116	N	0.412740	0.279601	-0.000236
C117	C	0.230453	0.193211	0.088870
N118	N	0.195037	0.232945	0.124021
H119	H	0.015669	0.203100	-0.000272
C120	C	0.824578	-0.108020	0.138436
N121	N	0.825011	-0.078020	0.193135
