data_functionalizedCrystal
_audit_creation_method	'MofGen! by Chris Wilmer'
_symmetry_space_group_name_H-M	'P1'
_symmetry_Int_Tables_number	1
_symmetry_cell_setting	triclinic
loop_
_symmetry_equiv_pos_as_xyz
  x,y,z
_cell_length_a	21.295418
_cell_length_b	21.295417
_cell_length_c	12.759393
_cell_angle_alpha	89.960626
_cell_angle_beta	89.960238
_cell_angle_gamma	90.046319
loop_
_atom_site_label
_atom_site_type_symbol
_atom_site_fract_x
_atom_site_fract_y
_atom_site_fract_z
Zn1	Zn	0.962331	-0.250305	-0.594554
Zn2	Zn	0.962241	-0.355589	-0.418850
Zn3	Zn	0.857062	-0.250367	-0.418824
Zn4	Zn	0.857024	-0.355569	-0.594423
O5	O	0.909664	-0.302958	-0.506663
O6	O	1.050409	-0.264254	-0.571312
O7	O	0.948267	-0.341666	-0.271826
O8	O	0.871079	-0.162269	-0.442179
O9	O	1.050342	-0.341606	-0.442223
O10	O	0.948421	-0.162224	-0.571286
O11	O	0.870992	-0.264359	-0.271807
O12	O	0.768967	-0.264340	-0.442052
O13	O	0.871015	-0.341571	-0.741462
O14	O	0.768939	-0.341632	-0.571064
O15	O	0.948384	-0.264234	-0.741557
O16	O	0.948230	-0.443676	-0.442097
O17	O	0.870927	-0.443661	-0.571089
C18	C	0.746113	-0.302991	-0.506542
C19	C	0.676145	-0.303020	-0.506515
C20	C	0.643280	-0.343319	-0.573591
C21	C	0.577537	-0.343304	-0.573638
C22	C	0.544662	-0.302996	-0.506591
C23	C	0.577535	-0.262689	-0.439510
C24	C	0.643276	-0.262701	-0.439472
N25	N	0.441390	-0.298086	-0.414700
N26	N	0.378938	-0.298078	-0.414738
C27	C	0.346587	-0.302956	-0.506702
N28	N	0.379047	-0.307854	-0.598627
N29	N	0.441504	-0.307865	-0.598587
C30	C	0.473377	-0.302978	-0.506625
C31	C	0.242437	-0.343240	-0.573835
C32	C	0.176694	-0.343220	-0.573884
C33	C	0.176692	-0.262608	-0.439746
C34	C	0.242435	-0.262625	-0.439707
C35	C	0.275303	-0.302944	-0.506750
C36	C	0.909582	-0.466509	-0.506605
C37	C	0.909604	-0.536477	-0.506615
C38	C	0.949891	-0.569331	-0.439517
C39	C	0.949921	-0.635073	-0.439541
C40	C	0.909652	-0.667960	-0.506651
C41	C	0.869362	-0.635099	-0.573762
C42	C	0.869338	-0.569357	-0.573744
N43	N	0.854584	-0.771240	-0.514620
N44	N	0.854609	-0.833692	-0.514631
C45	C	0.909722	-0.866035	-0.506711
N46	N	0.964812	-0.833567	-0.498760
N47	N	0.964786	-0.771110	-0.498743
C48	C	0.909674	-0.739245	-0.506679
C49	C	0.950045	-0.970174	-0.439636
C50	C	0.950076	-1.035917	-0.439667
C51	C	0.869511	-1.035941	-0.573882
C52	C	0.869486	-0.970199	-0.573857
C53	C	0.909752	-0.937319	-0.506728
C54	C	1.073855	-0.302925	-0.506785
C55	C	1.143823	-0.302911	-0.506837
C56	C	0.909705	-0.302894	-0.780696
C57	C	0.909723	-0.302866	-0.897473
C58	C	0.909764	-0.138767	-0.506744
C59	C	0.909807	-0.068799	-0.506779
C60	C	0.869503	-0.262605	-0.952331
C61	C	0.869522	-0.262587	-1.062055
C62	C	0.949986	-0.343091	-1.062054
C63	C	0.949963	-0.343113	-0.952331
C64	C	0.829262	-0.222359	-0.897473
C65	C	0.789039	-0.182094	-0.952331
C66	C	0.789058	-0.182075	-1.062055
C67	C	0.829300	-0.222321	-1.116921
C68	C	0.909660	-0.302976	-0.233695
C69	C	0.909764	-0.302826	-0.116919
H70	H	0.269193	-0.229812	-0.385081
H71	H	0.149926	-0.229786	-0.385160
H72	H	0.670037	-0.376149	-0.628184
H73	H	0.550774	-0.376120	-0.628263
H74	H	0.550763	-0.229869	-0.384921
H75	H	0.670034	-0.229883	-0.384851
Cl76	Cl	0.818891	-1.077278	-0.658258
Cl77	Cl	0.818833	-0.928895	-0.658208
H78	H	0.829311	-0.222304	-1.206266
Cl79	Cl	0.818741	-0.676441	-0.658134
H80	H	0.756303	-0.149294	-1.106718
Cl81	Cl	0.283761	-0.393922	-0.658122
H82	H	0.982750	-0.375856	-1.106734
Cl83	Cl	0.135377	-0.393883	-0.658222
Cl84	Cl	1.000521	-0.528000	-0.355142
Cl85	Cl	0.738451	-0.131504	-0.883359
H86	H	0.982886	-1.062665	-0.385030
H87	H	0.982722	-0.375888	-0.907665
Cl88	Cl	0.829238	-0.222377	-0.759534
H89	H	0.982730	-0.661828	-0.384902
Cl90	Cl	1.000664	-0.928836	-0.355247
H91	H	0.836531	-0.542608	-0.628384
