data_functionalizedCrystal
_audit_creation_method	'MofGen! by Chris Wilmer'
_symmetry_space_group_name_H-M	'P1'
_symmetry_Int_Tables_number	1
_symmetry_cell_setting	triclinic
loop_
_symmetry_equiv_pos_as_xyz
  x,y,z
_cell_length_a	16.625546
_cell_length_b	14.908558
_cell_length_c	14.909227
_cell_angle_alpha	83.210269
_cell_angle_beta	86.672122
_cell_angle_gamma	86.717541
loop_
_atom_site_label
_atom_site_type_symbol
_atom_site_fract_x
_atom_site_fract_y
_atom_site_fract_z
Zn1	Zn	-0.363503	1.413358	-0.591490
Zn2	Zn	0.136497	1.913358	-0.091490
Zn3	Zn	-0.505701	1.404511	-0.440113
Zn4	Zn	-0.005701	1.904511	0.059887
Zn5	Zn	-0.363519	1.253251	-0.431423
Zn6	Zn	0.136481	1.753251	0.068577
Zn7	Zn	-0.490927	1.261951	-0.582717
Zn8	Zn	0.009073	1.761951	-0.082717
O9	O	-0.430912	1.333268	-0.511436
O10	O	0.069088	1.833268	-0.011436
O11	O	-0.388542	1.538851	-0.578718
O12	O	0.111458	2.038851	-0.078718
O13	O	-0.493029	1.377103	-0.312291
O14	O	0.006971	1.877103	0.187709
O15	O	-0.250686	1.274551	-0.452690
O16	O	0.249314	1.774551	0.047310
O17	O	-0.493014	1.532352	-0.467502
O18	O	0.006986	2.032352	0.032498
O19	O	-0.250674	1.392180	-0.570291
O20	O	0.249326	1.892180	-0.070291
O21	O	-0.388569	1.265973	-0.305906
O22	O	0.111431	1.765973	0.194094
O23	O	-0.374244	1.127738	-0.444184
O24	O	0.125756	1.627738	0.055816
O25	O	-0.467835	1.289379	-0.710550
O26	O	0.032165	1.789379	-0.210550
O27	O	-0.467850	1.134130	-0.555339
O28	O	0.032150	1.634130	-0.055339
O29	O	-0.374217	1.400617	-0.716996
O30	O	0.125783	1.900617	-0.216996
O31	O	-0.616572	1.385539	-0.458995
O32	O	-0.116572	1.885539	0.041005
O33	O	-0.605718	1.280801	-0.563766
O34	O	-0.105718	1.780801	-0.063766
C35	C	-0.419446	1.098091	-0.497867
C36	C	0.080554	1.598091	0.002133
C37	C	-0.414559	0.997482	-0.492084
C38	C	0.085441	1.497482	0.007916
C39	C	-0.358855	0.852330	-0.426155
C40	C	0.141145	1.352330	0.073845
C41	C	-0.363443	0.946861	-0.431585
C42	C	0.136557	1.446861	0.068415
C43	C	-0.461089	0.953567	-0.547158
C44	C	0.038911	1.453567	-0.047158
C45	C	-0.456501	0.859036	-0.541728
C46	C	0.043499	1.359036	-0.041728
C47	C	-0.405383	0.808421	-0.481223
C48	C	0.094617	1.308421	0.018777
C49	C	-0.400800	0.713888	-0.475789
C50	C	0.099200	1.213888	0.024211
C51	C	-0.498441	0.720597	-0.591366
C52	C	0.001559	1.220597	-0.091366
C53	C	-0.503029	0.815127	-0.596796
C54	C	-0.003029	1.315127	-0.096796
C55	C	-0.640401	1.333180	-0.511393
C56	C	-0.140401	1.833180	-0.011393
C57	C	-0.730024	1.333227	-0.511410
C58	C	-0.230024	1.833227	-0.011410
C59	C	-1.058202	1.333390	-0.511513
C60	C	-0.558202	1.833390	-0.011513
C61	C	-0.966893	1.333342	-0.511487
C62	C	-0.466893	1.833342	-0.011487
C63	C	-0.894116	1.333308	-0.511461
C64	C	-0.394116	1.833308	-0.011461
C65	C	-0.802801	1.333261	-0.511436
C66	C	-0.302801	1.833261	-0.011436
C67	C	-0.220606	1.333382	-0.511500
C68	C	0.279394	1.833382	-0.011500
C69	C	-0.130986	1.333430	-0.511527
C70	C	0.369014	1.833430	-0.011527
C71	C	-0.442424	1.569363	-0.525058
C72	C	0.057576	2.069363	-0.025058
C73	C	-0.447330	1.669973	-0.530863
C74	C	0.052670	2.169973	-0.030863
C75	C	-0.419376	1.346955	-0.747535
C76	C	0.080624	1.846955	-0.247535
C77	C	-0.414460	1.352788	-0.848147
C78	C	0.085540	1.852788	-0.348147
C79	C	-0.358795	1.418917	-0.993311
C80	C	0.141205	1.918917	-0.493311
C81	C	-0.363411	1.413442	-0.898778
C82	C	0.136589	1.913442	-0.398778
C83	C	-0.460898	1.297607	-0.892056
C84	C	0.039102	1.797607	-0.392056
C85	C	-0.456282	1.303083	-0.986589
C86	C	0.043718	1.803083	-0.486589
C87	C	-0.405228	1.363739	-1.037213
C88	C	0.094772	1.863739	-0.537213
C89	C	-0.400608	1.369209	-1.131748
C90	C	0.099392	1.869209	-0.631748
C91	C	-0.498099	1.253380	-1.125025
C92	C	0.001901	1.753380	-0.625025
C93	C	-0.502715	1.247904	-1.030492
C94	C	-0.002715	1.747904	-0.530492
C95	C	-0.442348	1.319686	-0.276258
C96	C	0.057652	1.819686	0.223742
C97	C	-0.447046	1.314029	-0.175657
C98	C	0.052954	1.814029	0.324343
H99	H	-0.359177	0.672679	-0.426523
H100	H	0.140823	1.172679	0.073477
H101	H	-0.317216	1.468297	-1.034530
H102	H	0.182784	1.968297	-0.534530
O103	O	-0.558160	0.869715	-0.662058
O104	O	-0.058160	1.369715	-0.162058
H105	H	-0.540067	0.855706	-0.732083
H106	H	-0.040067	1.355706	-0.232083
H107	H	-0.325601	1.458374	-0.863036
H108	H	0.174399	1.958374	-0.363036
H109	H	-0.502470	1.248230	-0.850822
H110	H	-0.002470	1.748230	-0.350822
O111	O	-0.303727	0.797728	-0.360900
O112	O	0.196273	1.297728	0.139100
H113	H	-0.272140	0.844144	-0.323520
H114	H	0.227860	1.344144	0.176480
O115	O	-0.313273	0.994224	-0.372177
O116	O	0.186727	1.494224	0.127823
H117	H	-0.276967	0.943142	-0.329187
H118	H	0.223033	1.443142	0.170813
H119	H	-0.544284	1.198522	-0.989261
H120	H	-0.044284	1.698522	-0.489261
H121	H	-0.535899	1.208440	-1.160779
H122	H	-0.035899	1.708440	-0.660779
H123	H	-0.536328	0.684836	-0.636207
H124	H	-0.036328	1.184836	-0.136207
O125	O	-0.516181	1.008167	-0.612454
O126	O	-0.016181	1.508167	-0.112454
H127	H	-0.511540	1.081276	-0.606987
H128	H	-0.011540	1.581276	-0.106987
O129	O	-0.345550	1.434632	-1.186357
O130	O	0.154450	1.934632	-0.686357
H131	H	-0.314045	1.472088	-1.139943
H132	H	0.185955	1.972088	-0.639943
