data_functionalizedCrystal
_audit_creation_method	'MofGen! by Chris Wilmer'
_symmetry_space_group_name_H-M	'P1'
_symmetry_Int_Tables_number	1
_symmetry_cell_setting	triclinic
loop_
_symmetry_equiv_pos_as_xyz
  x,y,z
_cell_length_a	19.851628
_cell_length_b	14.560432
_cell_length_c	14.560432
_cell_angle_alpha	90.001356
_cell_angle_beta	59.996049
_cell_angle_gamma	60.005480
loop_
_atom_site_label
_atom_site_type_symbol
_atom_site_fract_x
_atom_site_fract_y
_atom_site_fract_z
Zr1	Zr	0.737350	0.884816	-0.120576
O2	O	0.877882	0.738180	-0.267234
O3	O	0.596819	0.929759	-0.075611
O4	O	0.737354	0.929767	-0.267226
O5	O	0.737344	0.738176	0.075522
O6	O	0.737357	1.080905	-0.267226
O7	O	0.737347	0.738172	-0.075620
O8	O	0.485965	1.080890	0.075537
O9	O	0.988736	0.738191	-0.267241
O10	O	0.654623	1.061730	-0.056442
O11	O	0.654619	0.948940	0.056353
O12	O	0.820082	0.948950	-0.169248
O13	O	0.820077	0.836161	-0.056452
Zr14	Zr	0.737350	1.125870	0.120477
Zr15	Zr	0.737355	1.125863	-0.120577
Zr16	Zr	0.737346	0.884823	0.120477
Zr17	Zr	0.914150	0.884833	-0.120588
Zr18	Zr	0.560551	1.125853	0.120488
O19	O	0.877882	1.080927	0.075512
O20	O	0.877889	1.080918	-0.267235
O21	O	0.877876	0.738189	0.075513
O22	O	0.596819	1.272505	0.267135
O23	O	0.596825	1.272497	-0.075612
O24	O	0.596812	0.929768	0.267136
O25	O	0.737357	1.272510	-0.075621
O26	O	0.737347	1.080919	0.267126
O27	O	0.737344	0.929781	0.267127
O28	O	0.737354	1.272514	0.075521
O29	O	0.988740	0.929791	-0.267242
O30	O	0.485961	1.080895	0.267142
O31	O	0.485965	1.272495	0.267142
O32	O	0.485968	1.272490	0.075537
O33	O	0.988733	0.738196	-0.075636
O34	O	0.988736	0.929796	-0.075637
O35	O	0.654619	1.061736	0.169148
O36	O	0.654623	1.174525	0.056353
O37	O	0.820082	1.061746	-0.056453
O38	O	0.820077	0.948956	0.056343
C39	C	0.516201	1.005322	-0.000035
C40	C	0.441145	1.005315	-0.000030
C41	C	0.737345	0.703830	-0.000049
C42	C	0.737343	0.601499	-0.000049
C43	C	0.564603	0.719225	0.117710
C44	C	0.478236	0.730011	0.176585
C45	C	0.478240	0.633858	0.176582
C46	C	0.564620	0.526911	0.117701
C47	C	0.650987	0.516125	0.058827
C48	C	0.650974	0.612286	0.058833
C49	C	0.823725	0.398401	-0.058925
C50	C	0.823723	0.494552	-0.058930
C51	C	0.910106	0.291454	-0.117805
C52	C	0.996475	0.280667	-0.176688
C53	C	0.996467	0.376828	-0.176683
C54	C	0.910090	0.483766	-0.117804
C55	C	0.259784	0.943836	0.061461
C56	C	0.270123	0.899264	-0.044604
C57	C	0.303725	1.005333	-0.000046
C58	C	0.159671	1.049871	0.105992
C59	C	0.170981	1.005350	-0.000052
C60	C	0.315099	0.960699	-0.106173
C61	C	0.204600	1.111365	0.044500
C62	C	0.214973	1.066819	-0.061628
C63	C	0.380197	1.005321	-0.000041
C64	C	0.094516	1.005361	-0.000068
C65	C	0.958500	1.005364	-0.000064
C66	C	1.033555	1.005371	-0.000069
C67	C	0.737356	1.005335	-0.301571
C68	C	0.737358	1.005333	-0.403904
C69	C	0.737356	1.306856	-0.000050
C70	C	0.737358	1.409187	-0.000050
C71	C	0.910098	0.887579	-0.521692
C72	C	0.996465	0.828701	-0.628658
C73	C	0.996461	0.828704	-0.724805
C74	C	0.910081	0.887594	-0.713981
C75	C	0.823714	0.946472	-0.607015
C76	C	0.823727	0.946460	-0.510872
C77	C	0.650976	1.064231	-0.489229
C78	C	0.650978	1.064223	-0.393080
C79	C	0.564595	1.123122	-0.478405
C80	C	0.478226	1.181994	-0.371437
C81	C	0.478234	1.181988	-0.275286
C82	C	0.564611	1.123101	-0.286114
C83	C	0.737345	1.005351	0.301471
C84	C	0.737343	1.005353	0.403805
C85	C	0.516207	1.306835	-0.000036
C86	C	0.441153	1.409159	-0.000031
C87	C	0.516196	1.005330	0.301486
C88	C	0.441138	1.005325	0.403824
C89	C	0.516201	1.306843	0.301485
C90	C	0.441145	1.409169	0.403823
C91	C	0.958500	0.703843	-0.301584
C92	C	1.033555	0.601517	-0.403922
C93	C	0.958494	0.703851	-0.000063
C94	C	1.033548	0.601527	-0.000068
C95	C	0.958505	1.005356	-0.301585
C96	C	1.033563	1.005361	-0.403923
C97	C	0.405907	1.398333	-0.058917
C98	C	0.335395	1.494468	-0.058935
C99	C	0.300127	1.601427	-0.000060
C100	C	0.335380	1.612250	0.058827
C101	C	0.405895	1.516117	0.058838
C102	C	0.405890	1.064201	0.510771
C103	C	0.335375	1.064192	0.606938
C104	C	0.300104	1.005314	0.596155
C105	C	0.335359	0.946431	0.489197
C106	C	0.405878	0.946433	0.393032
C107	C	0.405901	1.516108	0.393004
C108	C	0.335387	1.612263	0.489152
C109	C	0.300115	1.601478	0.596119
C110	C	0.335367	1.494528	0.606936
C111	C	0.405884	1.398375	0.510788
C112	C	1.068809	0.494578	-0.393103
C113	C	1.139344	0.398423	-0.489252
C114	C	1.174620	0.409208	-0.596218
C115	C	1.139363	0.516158	-0.607035
C116	C	1.068834	0.612311	-0.510888
C117	C	1.068801	0.612353	0.058808
C118	C	1.139332	0.516218	0.058799
C119	C	1.174604	0.409259	-0.000079
C120	C	1.139347	0.398435	-0.058962
C121	C	1.068822	0.494569	-0.058959
C122	C	1.068811	1.064251	-0.393105
C123	C	1.139327	1.064277	-0.489253
C124	C	1.174598	1.005406	-0.596219
C125	C	1.139343	0.946514	-0.607036
C126	C	1.068824	0.946495	-0.510888
H127	H	0.564591	0.797523	0.117710
C128	C	1.030025	0.482687	-0.275449
N129	N	1.000823	0.473721	-0.186834
H130	H	1.040089	0.699436	0.106761
H131	H	0.910085	0.887603	-0.792275
H132	H	1.168026	0.525053	0.106753
H133	H	0.434599	1.112147	0.519572
C134	C	0.222538	1.707261	0.701873
N135	N	0.164102	1.786941	0.781524
C136	C	1.252179	0.303519	-0.000064
N137	N	1.310606	0.223880	-0.000046
C138	C	0.296550	1.482683	0.724609
N139	N	0.267305	1.473764	0.813244
H140	H	1.168094	0.524926	-0.694138
C141	C	1.178143	0.280769	-0.123706
N142	N	1.207358	0.192140	-0.172459
C143	C	1.091480	0.364949	-0.241452
N144	N	1.163046	0.355998	-0.290240
H145	H	0.407906	0.817096	0.224527
C146	C	1.252196	0.303425	-0.701973
N147	N	1.310623	0.223745	-0.781623
H148	H	1.232019	1.005430	-0.674499
C149	C	0.383221	1.246760	-0.157625
N150	N	0.311655	1.295546	-0.069004
C151	C	1.030022	1.129025	-0.275450
N152	N	1.000805	1.177824	-0.186836
C153	C	1.178117	0.881807	-0.724709
N154	N	1.207315	0.833082	-0.813344
H155	H	1.040132	0.898535	-0.519713
H156	H	0.434571	1.311304	0.519613
C157	C	1.091483	0.163027	-0.241451
N158	N	1.163044	0.074416	-0.290236
H159	H	1.040121	0.485739	-0.106900
C160	C	0.296567	1.729917	0.123595
N161	N	0.267325	1.818546	0.172384
H162	H	1.168038	0.311349	-0.480422
H163	H	1.040132	0.699383	-0.519710
C164	C	0.383232	0.645724	0.241345
N165	N	0.311672	0.654661	0.290123
H166	H	0.434583	1.524947	0.106797
C167	C	0.168194	1.232469	0.095447
N168	N	0.140769	1.323687	0.133833
H169	H	1.168024	1.112232	-0.480424
H170	H	0.407902	1.229944	-0.362636
H171	H	0.564616	0.448624	0.117715
H172	H	0.297087	0.809600	-0.082289
H173	H	0.279525	0.891763	0.113394
C174	C	0.069926	1.100754	0.227144
N175	N	0.002336	1.139071	0.318397
C176	C	1.091479	0.763933	-0.640555
N177	N	1.163044	0.715154	-0.649517
C178	C	0.222522	1.005334	0.701951
N179	N	0.164083	1.005359	0.781640
C180	C	0.910107	0.185685	-0.117806
N181	N	0.910111	0.106018	-0.117812
H182	H	0.381499	0.922934	-0.195892
C183	C	0.910074	0.589545	-0.117792
N184	N	0.910057	0.669221	-0.117777
C185	C	0.564593	1.123117	-0.584171
N186	N	0.564590	1.123109	-0.663834
H187	H	0.910110	0.887557	-0.443410
C188	C	0.564627	1.123091	-0.180358
N189	N	0.564644	1.123085	-0.100703
C190	C	1.091469	0.763934	-0.842472
N191	N	1.163028	0.715147	-0.931099
C192	C	0.444695	1.280686	-0.123696
N193	N	0.473910	1.192077	-0.172498
H194	H	0.306679	1.112146	0.694019
H195	H	0.195437	1.118819	-0.113717
H196	H	0.306701	1.485633	-0.106888
H197	H	0.306631	0.898494	0.480434
H198	H	0.242708	1.679696	-0.000077
H199	H	0.434609	1.524911	0.305915
C200	C	0.444632	0.881675	0.275392
N201	N	0.473818	0.832898	0.186787
H202	H	0.306692	1.699338	0.480325
