data_functionalizedCrystal
_audit_creation_method	'MofGen! by Chris Wilmer'
_symmetry_space_group_name_H-M	'P1'
_symmetry_Int_Tables_number	1
_symmetry_cell_setting	triclinic
loop_
_symmetry_equiv_pos_as_xyz
  x,y,z
_cell_length_a	9.065218
_cell_length_b	10.540539
_cell_length_c	8.140239
_cell_angle_alpha	89.998610
_cell_angle_beta	89.997198
_cell_angle_gamma	84.770688
loop_
_atom_site_label
_atom_site_type_symbol
_atom_site_fract_x
_atom_site_fract_y
_atom_site_fract_z
O1	O	1.959468	0.186143	-0.136609
O2	O	1.530107	0.201412	-0.136611
O3	O	1.754583	0.009107	-0.136608
O4	O	1.734992	0.378448	-0.136612
O5	O	1.754571	0.009105	0.136619
O6	O	1.530095	0.201409	0.136616
O7	O	1.959456	0.186141	0.136618
Zn8	Zn	1.744773	0.193775	0.179998
Zn9	Zn	1.744790	0.193778	-0.179991
O10	O	1.734980	0.378446	0.136615
C11	C	1.475122	0.199943	0.000003
C12	C	1.311301	0.195556	0.000002
C13	C	1.753108	-0.038202	0.000003
C14	C	1.748712	-0.179167	-0.000006
C15	C	1.580278	-0.363216	-0.000620
C16	C	1.584734	-0.216582	-0.000005
C17	C	1.827619	-0.240534	0.156020
C18	C	1.822022	-0.387099	0.156152
C19	C	1.825372	-0.387602	-0.154558
C20	C	1.826882	-0.240615	-0.156621
C21	C	2.014441	0.187610	0.000001
C22	C	2.178262	0.191997	-0.000009
C23	C	1.736455	0.425755	0.000001
C24	C	1.740851	0.566719	-0.000001
N25	N	1.744773	0.193772	0.425681
N26	N	1.744802	0.193771	-0.425673
H27	H	1.515508	-0.392055	-0.112509
O28	O	1.750522	-0.186666	-0.309524
H29	H	1.707391	-0.264987	-0.381018
H30	H	1.522646	-0.174207	-0.111851
O31	O	1.982265	-0.449562	-0.155960
H32	H	2.000994	-0.506757	-0.269774
H33	H	1.946435	-0.215951	-0.166043
O34	O	1.494809	-0.403518	0.146768
H35	H	1.566198	-0.473231	0.220463
H36	H	1.763696	-0.415515	0.272784
O37	O	1.501910	-0.161572	0.148399
H38	H	1.504793	-0.056527	0.149348
H39	H	1.939953	-0.434632	0.163231
O40	O	1.987127	-0.210328	0.163739
H41	H	2.011911	-0.151111	0.056196
H42	H	1.772305	-0.419350	-0.272816
O43	O	1.755016	-0.184384	0.309834
H44	H	1.662746	-0.112790	0.275548
