data_functionalizedCrystal
_audit_creation_method	'MofGen! by Chris Wilmer'
_symmetry_space_group_name_H-M	'P1'
_symmetry_Int_Tables_number	1
_symmetry_cell_setting	triclinic
loop_
_symmetry_equiv_pos_as_xyz
  x,y,z
_cell_length_a	17.699083
_cell_length_b	17.699083
_cell_length_c	16.176319
_cell_angle_alpha	89.992304
_cell_angle_beta	89.998611
_cell_angle_gamma	83.283015
loop_
_atom_site_label
_atom_site_type_symbol
_atom_site_fract_x
_atom_site_fract_y
_atom_site_fract_z
O1	O	1.004079	0.095713	-0.068632
O2	O	1.337412	0.429046	0.264701
O3	O	1.670745	0.762380	0.598034
O4	O	0.783700	0.108166	-0.068660
O5	O	1.117034	0.441499	0.264674
O6	O	1.450367	0.774832	0.598007
O7	O	0.900116	-0.008250	-0.068638
O8	O	1.233449	0.325083	0.264695
O9	O	1.566782	0.658417	0.598029
O10	O	0.887663	0.212129	-0.068654
O11	O	1.220997	0.545462	0.264679
O12	O	1.554330	0.878795	0.598013
O13	O	0.900100	-0.008257	0.068855
O14	O	1.233433	0.325076	0.402189
O15	O	1.566766	0.658409	0.735522
O16	O	0.783684	0.108158	0.068834
O17	O	1.117018	0.441492	0.402167
O18	O	1.450351	0.774825	0.735500
O19	O	1.004063	0.095706	0.068861
O20	O	1.337396	0.429039	0.402194
O21	O	1.670729	0.762372	0.735528
Cu22	Cu	0.893872	0.101931	0.081401
Cu23	Cu	1.227205	0.435265	0.414735
Cu24	Cu	1.560539	0.768598	0.748068
Cu25	Cu	0.893891	0.101940	-0.081200
Cu26	Cu	1.227224	0.435273	0.252133
Cu27	Cu	1.560558	0.768607	0.585467
O28	O	0.887647	0.212121	0.068839
O29	O	1.220981	0.545454	0.402173
O30	O	1.554314	0.878788	0.735506
C31	C	0.755495	0.107716	0.000084
C32	C	1.088829	0.441049	0.333417
C33	C	1.422162	0.774382	0.666750
C34	C	0.671477	0.106377	0.000073
C35	C	1.004811	0.439710	0.333407
C36	C	1.338144	0.773044	0.666740
C37	C	0.622856	0.174710	0.000069
C38	C	0.956190	0.508044	0.333402
C39	C	1.289523	0.841377	0.666735
C40	C	0.543913	0.173448	0.000079
C41	C	0.877246	0.506782	0.333413
C42	C	1.210580	0.840115	0.666746
C43	C	0.513592	0.103852	0.000089
C44	C	0.846926	0.437185	0.333422
C45	C	1.180259	0.770518	0.666756
C46	C	0.562219	0.035513	0.000096
C47	C	0.895553	0.368846	0.333430
C48	C	1.228886	0.702180	0.666763
C49	C	0.641161	0.036776	0.000091
C50	C	0.974495	0.370109	0.333425
C51	C	1.307828	0.703443	0.666758
C52	C	0.243856	0.030418	0.000117
C53	C	0.577190	0.363751	0.333450
C54	C	0.910523	0.697085	0.666784
C55	C	0.164908	0.029160	0.000120
C56	C	0.498242	0.362493	0.333453
C57	C	0.831575	0.695827	0.666786
C58	C	0.146608	0.167090	0.000105
C59	C	0.479942	0.500423	0.333438
C60	C	0.813275	0.833757	0.666772
C61	C	0.225550	0.168353	0.000100
C62	C	0.558883	0.501686	0.333434
C63	C	0.892217	0.835020	0.666767
C64	C	0.274170	0.100015	0.000112
C65	C	0.607504	0.433348	0.333445
C66	C	0.940837	0.766681	0.666778
C67	C	0.359769	0.101384	0.000102
C68	C	0.693103	0.434718	0.333435
C69	C	1.026436	0.768051	0.666768
C70	C	0.427995	0.102481	0.000093
C71	C	0.761328	0.435815	0.333427
C72	C	1.094661	0.769148	0.666760
C73	C	0.899662	-0.036451	0.000109
C74	C	1.232995	0.296883	0.333442
C75	C	1.566328	0.630216	0.666775
C76	C	0.898323	-0.120469	0.000109
C77	C	1.231656	0.212865	0.333442
C78	C	1.564990	0.546198	0.666776
C79	C	0.966656	-0.169090	0.000119
C80	C	1.299990	0.164244	0.333452
C81	C	1.633323	0.497577	0.666785
C82	C	0.965394	-0.248033	0.000111
C83	C	1.298727	0.085300	0.333444
C84	C	1.632061	0.418634	0.666778
C85	C	0.895798	-0.278354	0.000100
C86	C	1.229131	0.054980	0.333433
C87	C	1.562464	0.388313	0.666767
C88	C	0.827459	-0.229727	0.000088
C89	C	1.160792	0.103607	0.333421
C90	C	1.494126	0.436940	0.666754
C91	C	0.828722	-0.150785	0.000089
C92	C	1.162055	0.182549	0.333423
C93	C	1.495389	0.515882	0.666756
C94	C	0.822364	-0.548090	0.000080
C95	C	1.155697	-0.214756	0.333414
C96	C	1.489030	0.118577	0.666747
C97	C	0.821106	-0.627038	0.000081
C98	C	1.154439	-0.293704	0.333415
C99	C	1.487773	0.039629	0.666748
C100	C	0.959036	-0.645338	0.000102
C101	C	1.292369	-0.312004	0.333436
C102	C	1.625703	0.021329	0.666769
C103	C	0.960299	-0.566396	0.000104
C104	C	1.293632	-0.233063	0.333437
C105	C	1.626966	0.100271	0.666770
C106	C	0.891961	-0.517776	0.000087
C107	C	1.225294	-0.184442	0.333421
C108	C	1.558627	0.148891	0.666754
C109	C	0.893330	-0.432177	0.000094
C110	C	1.226664	-0.098843	0.333427
C111	C	1.559997	0.234490	0.666760
C112	C	0.894427	-0.363951	0.000099
C113	C	1.227761	-0.030618	0.333433
C114	C	1.561094	0.302715	0.666766
C115	C	1.032268	0.096156	0.000116
C116	C	1.365601	0.429489	0.333449
C117	C	1.698934	0.762822	0.666783
C118	C	1.116286	0.097494	0.000121
C119	C	1.449619	0.430828	0.333454
C120	C	1.782953	0.764161	0.666787
C121	C	0.888102	0.240322	0.000091
C122	C	1.221435	0.573655	0.333424
C123	C	1.554768	0.906989	0.666757
C124	C	0.889440	0.324340	0.000085
C125	C	1.222773	0.657673	0.333418
C126	C	1.556107	0.991007	0.666752
N127	N	0.893864	0.101925	0.195767
N128	N	1.227198	0.435258	0.529100
N129	N	1.560531	0.768591	0.862433
N130	N	0.893905	0.101941	-0.195565
N131	N	1.227238	0.435274	0.137768
N132	N	1.560571	0.768607	0.471101
C133	C	0.945429	0.050397	0.239040
C134	C	1.278762	0.383730	0.572374
C135	C	1.612095	0.717064	0.905707
C136	C	0.945432	0.050396	0.325588
C137	C	1.278766	0.383729	0.658921
C138	C	1.612099	0.717063	0.992254
C139	C	0.893875	0.101927	0.368859
C140	C	1.227208	0.435261	0.702193
C141	C	1.560542	0.768594	1.035526
C142	C	0.842305	0.153457	0.325579
C143	C	1.175639	0.486791	0.658913
C144	C	1.508972	0.820124	0.992246
C145	C	0.842299	0.153454	0.239034
C146	C	1.175632	0.486787	0.572367
C147	C	1.508965	0.820121	0.905701
C148	C	0.842331	0.153472	0.674608
C149	C	1.175665	0.486805	1.007941
C150	C	1.508998	0.820138	1.341274
C151	C	0.842344	0.153473	0.761159
C152	C	1.175677	0.486806	1.094493
C153	C	1.509010	0.820139	1.427826
C154	C	0.945465	0.050414	0.761161
C155	C	1.278799	0.383747	1.094495
C156	C	1.612132	0.717080	1.427828
C157	C	0.945458	0.050410	0.674616
C158	C	1.278792	0.383744	1.007949
C159	C	1.612125	0.717077	1.341283
C160	C	0.893886	0.101937	0.631344
C161	C	1.227220	0.435271	0.964677
C162	C	1.560553	0.768604	1.298010
C163	C	0.893882	0.101937	0.537499
C164	C	1.227215	0.435270	0.870833
C165	C	1.560548	0.768603	1.204166
C166	C	0.893883	0.101932	0.462702
C167	C	1.227216	0.435265	0.796035
C168	C	1.560549	0.768599	1.129369
H169	H	0.107012	0.222734	0.000100
H170	H	0.440345	0.556067	0.333433
H171	H	0.773678	0.889401	0.666767
H172	H	0.987416	0.008438	0.203814
H173	H	1.320749	0.341771	0.537148
H174	H	1.654082	0.675104	0.870481
C175	C	0.490433	0.248615	0.000071
C176	C	0.823766	0.581948	0.333405
C177	C	1.157100	0.915282	0.666738
H178	H	0.519797	0.290244	0.000055
H179	H	0.853131	0.623578	0.333388
H180	H	1.186464	0.956911	0.666721
H181	H	0.459260	0.250991	0.048021
H182	H	0.792593	0.584325	0.381354
H183	H	1.125926	0.917658	0.714687
H184	H	0.459256	0.250989	-0.047879
H185	H	0.792589	0.584322	0.285454
H186	H	1.125922	0.917656	0.618788
H187	H	1.014680	-0.684934	0.000111
H188	H	1.348013	-0.351601	0.333445
H189	H	1.681347	-0.018268	0.666778
C190	C	0.744546	-0.660389	0.000058
C191	C	1.077880	-0.327056	0.333392
C192	C	1.411213	0.006278	0.666725
H193	H	0.704027	-0.620127	0.000039
H194	H	1.037360	-0.286794	0.333373
H195	H	1.370694	0.046540	0.666706
H196	H	0.741176	-0.690810	0.048003
H197	H	1.074509	-0.357476	0.381336
H198	H	1.407842	-0.024143	0.714670
H199	H	0.741203	-0.690798	-0.047897
H200	H	1.074537	-0.357465	0.285437
H201	H	1.407870	-0.024131	0.618770
H202	H	0.140225	-0.027517	0.000128
H203	H	0.473558	0.305816	0.333462
H204	H	0.806892	0.639150	0.666795
H205	H	0.800341	0.195428	0.639382
H206	H	1.133674	0.528761	0.972715
H207	H	1.467008	0.862095	1.306049
H208	H	0.987419	0.008438	0.360821
H209	H	1.320753	0.341771	0.694154
H210	H	1.654086	0.675105	1.027487
H211	H	0.250232	0.225025	0.000089
H212	H	0.583566	0.558359	0.333422
H213	H	0.916899	0.891692	0.666755
H214	H	0.800323	0.195413	0.360816
H215	H	1.133656	0.528746	0.694150
H216	H	1.466989	0.862079	1.027483
C217	C	1.036852	-0.533043	0.000119
C218	C	1.370186	-0.199710	0.333453
C219	C	1.703519	0.133624	0.666786
H220	H	1.027817	-0.479065	0.000127
H221	H	1.361151	-0.145731	0.333460
H222	H	1.694484	0.187602	0.666793
H223	H	1.064991	-0.549734	-0.047823
H224	H	1.398324	-0.216401	0.285511
H225	H	1.731658	0.116933	0.618844
H226	H	1.064974	-0.549747	0.048077
H227	H	1.398307	-0.216414	0.381410
H228	H	1.731641	0.116920	0.714744
H229	H	1.023330	-0.144409	0.000133
H230	H	1.356663	0.188924	0.333466
H231	H	1.689997	0.522258	0.666799
H232	H	0.987444	0.008451	0.639387
H233	H	1.320777	0.341785	0.972720
H234	H	1.654110	0.675118	1.306053
C235	C	0.656206	0.251266	0.000055
C236	C	0.989539	0.584599	0.333389
C237	C	1.322873	0.917932	0.666722
H238	H	0.710185	0.242234	0.000045
H239	H	1.043518	0.575567	0.333379
H240	H	1.376851	0.908900	0.666712
H241	H	0.639510	0.279395	0.048000
H242	H	0.972843	0.612728	0.381333
H243	H	1.306176	0.946062	0.714667
H244	H	0.639505	0.279395	-0.047900
H245	H	0.972838	0.612729	0.285433
H246	H	1.306172	0.946062	0.618767
H247	H	0.766718	-0.508512	0.000067
H248	H	1.100052	-0.175179	0.333401
H249	H	1.433385	0.158155	0.666734
H250	H	0.283434	-0.025228	0.000127
H251	H	0.616767	0.308106	0.333461
H252	H	0.950101	0.641439	0.666794
C253	C	1.040559	-0.301516	0.000113
C254	C	1.373892	0.031817	0.333447
C255	C	1.707226	0.365151	0.666780
H256	H	1.029841	-0.352874	0.000097
H257	H	1.363175	-0.019540	0.333431
H258	H	1.696508	0.313793	0.666764
H259	H	1.069102	-0.292351	0.048062
H260	H	1.402435	0.040982	0.381396
H261	H	1.735769	0.374315	0.714729
H262	H	1.069102	-0.292326	-0.047837
H263	H	1.402436	0.041007	0.285496
H264	H	1.735769	0.374341	0.618829
C265	C	0.785581	0.210137	0.191433
C266	C	1.118914	0.543471	0.524766
C267	C	1.452248	0.876804	0.858099
H268	H	0.754881	0.240833	0.229597
H269	H	1.088214	0.574167	0.562931
H270	H	1.421547	0.907500	0.896264
H271	H	0.754126	0.182949	0.157680
H272	H	1.087459	0.516283	0.491013
H273	H	1.420793	0.849616	0.824347
H274	H	0.812749	0.241611	0.157663
H275	H	1.146082	0.574945	0.490996
H276	H	1.479415	0.908278	0.824329
H277	H	0.770792	-0.254420	0.000073
H278	H	1.104126	0.078913	0.333407
H279	H	1.437459	0.412247	0.666740
H280	H	0.537526	-0.021154	0.000116
H281	H	0.870859	0.312180	0.333449
H282	H	1.204193	0.645513	0.666783
C283	C	0.753556	-0.097302	0.000081
C284	C	1.086889	0.236032	0.333414
C285	C	1.420222	0.569365	0.666748
H286	H	0.711925	-0.126664	0.000081
H287	H	1.045258	0.206669	0.333414
H288	H	1.378592	0.540002	0.666748
H289	H	0.751188	-0.066120	-0.047866
H290	H	1.084521	0.267213	0.285467
H291	H	1.417854	0.600546	0.618801
H292	H	0.751175	-0.066132	0.048034
H293	H	1.084508	0.267201	0.381367
H294	H	1.417842	0.600534	0.714700
C295	C	0.694647	-0.038388	0.000096
C296	C	1.027981	0.294945	0.333429
C297	C	1.361314	0.628278	0.666762
H298	H	0.746005	-0.027669	0.000100
H299	H	1.079338	0.305664	0.333433
H300	H	1.412671	0.638998	0.666767
H301	H	0.685472	-0.066933	-0.047846
H302	H	1.018805	0.266400	0.285487
H303	H	1.352138	0.599733	0.618820
H304	H	0.685470	-0.066931	0.048054
H305	H	1.018804	0.266403	0.381387
H306	H	1.352137	0.599736	0.714720
H307	H	0.987456	0.008455	0.796403
H308	H	1.320789	0.341788	1.129736
H309	H	1.654122	0.675122	1.463070
H310	H	0.800357	0.195437	0.796390
H311	H	1.133690	0.528770	1.129723
H312	H	1.467023	0.862104	1.463056
