data_functionalizedCrystal
_audit_creation_method	'MofGen! by Chris Wilmer'
_symmetry_space_group_name_H-M	'P1'
_symmetry_Int_Tables_number	1
_symmetry_cell_setting	triclinic
loop_
_symmetry_equiv_pos_as_xyz
  x,y,z
_cell_length_a	10.654562
_cell_length_b	14.519731
_cell_length_c	12.996460
_cell_angle_alpha	90.005861
_cell_angle_beta	89.996047
_cell_angle_gamma	84.089478
loop_
_atom_site_label
_atom_site_type_symbol
_atom_site_fract_x
_atom_site_fract_y
_atom_site_fract_z
O1	O	1.666579	0.129589	0.085637
O2	O	2.166579	0.629589	0.585637
O3	O	1.300985	0.141917	0.085625
O4	O	1.800985	0.641917	0.585625
O5	O	1.493461	0.001566	0.085622
O6	O	1.993461	0.501566	0.585622
O7	O	1.474103	0.269939	0.085640
O8	O	1.974103	0.769939	0.585640
O9	O	1.493486	0.001558	-0.085512
O10	O	1.993486	0.501558	0.414488
O11	O	1.301010	0.141909	-0.085509
O12	O	1.801010	0.641909	0.414491
O13	O	1.666604	0.129581	-0.085497
O14	O	2.166604	0.629581	0.414503
Cu15	Cu	1.483809	0.135744	-0.101129
Cu16	Cu	1.983809	0.635744	0.398871
Cu17	Cu	1.483780	0.135754	0.101257
Cu18	Cu	1.983780	0.635754	0.601257
O19	O	1.474127	0.269932	-0.085494
O20	O	1.974127	0.769932	0.414506
C21	C	1.254208	0.141006	0.000056
C22	C	1.754208	0.641006	0.500056
C23	C	1.114792	0.138290	0.000051
C24	C	1.614792	0.638290	0.500051
C25	C	1.049287	0.137019	-0.093226
C26	C	1.549287	0.637019	0.406774
C27	C	0.918289	0.134475	-0.093209
C28	C	1.418289	0.634475	0.406791
C29	C	0.918312	0.134476	0.093370
C30	C	1.418312	0.634476	0.593370
C31	C	1.049308	0.137014	0.093352
C32	C	1.549308	0.637014	0.593352
C33	C	1.114770	0.138295	-0.186528
C34	C	1.614770	0.638295	0.313472
C35	C	1.049264	0.137025	-0.279812
C36	C	1.549264	0.637025	0.220188
C37	C	0.918266	0.134480	-0.279795
C38	C	1.418266	0.634480	0.220205
C39	C	0.852774	0.133206	-0.186494
C40	C	1.352774	0.633206	0.313506
C41	C	1.492566	-0.032802	0.000055
C42	C	1.992566	0.467198	0.500055
C43	C	1.489848	-0.135196	0.000054
C44	C	1.989848	0.364804	0.500054
C45	C	1.487640	-0.218352	0.000056
C46	C	1.987640	0.281648	0.500056
C47	C	1.484880	-0.322675	0.000064
C48	C	1.984880	0.177325	0.500064
C49	C	1.482690	-0.405826	0.000071
C50	C	1.982690	0.094174	0.500071
C51	C	1.479930	-0.510155	0.000076
C52	C	1.979930	-0.010155	0.500076
C53	C	1.713380	0.130492	0.000074
C54	C	2.213380	0.630492	0.500074
C55	C	1.852797	0.133208	0.000086
C56	C	2.352797	0.633208	0.500086
C57	C	1.475022	0.304300	0.000075
C58	C	1.975022	0.804300	0.500075
C59	C	1.477740	0.406694	0.000083
C60	C	1.977740	0.906694	0.500083
N61	N	1.483760	0.135753	0.243604
N62	N	1.983760	0.635753	0.743604
N63	N	1.483839	0.135737	-0.243476
N64	N	1.983839	0.635737	0.256524
C65	C	1.483764	0.135754	0.336710
C66	C	1.983764	0.635754	0.836710
C67	C	1.483781	0.135753	0.453515
C68	C	1.983781	0.635753	0.953515
C69	C	1.483802	0.135746	0.546613
C70	C	1.983802	0.635746	1.046613
C71	C	1.483818	0.135743	0.663426
C72	C	1.983818	0.635743	1.163426
H73	H	1.102643	0.138053	0.169307
H74	H	1.602643	0.638053	0.669307
H75	H	0.746107	0.131132	-0.186487
H76	H	1.246107	0.631132	0.313513
H77	H	1.221434	0.140369	-0.186552
H78	H	1.721434	0.640369	0.313448
H79	H	1.102598	0.138055	-0.355775
H80	H	1.602598	0.638055	0.144225
H81	H	0.864937	0.133439	-0.355752
H82	H	1.364937	0.633439	0.144248
H83	H	0.864977	0.133441	0.169332
H84	H	1.364977	0.633441	0.669332
