data_functionalizedCrystal
_audit_creation_method	'MofGen! by Chris Wilmer'
_symmetry_space_group_name_H-M	'P1'
_symmetry_Int_Tables_number	1
_symmetry_cell_setting	triclinic
loop_
_symmetry_equiv_pos_as_xyz
  x,y,z
_cell_length_a	18.050591
_cell_length_b	21.295417
_cell_length_c	18.050582
_cell_angle_alpha	90.026755
_cell_angle_beta	90.020922
_cell_angle_gamma	90.026512
loop_
_atom_site_label
_atom_site_type_symbol
_atom_site_fract_x
_atom_site_fract_y
_atom_site_fract_z
Zn1	Zn	1.135281	-0.250716	0.420010
Zn2	Zn	1.385281	-0.000716	0.670010
Zn3	Zn	1.635281	0.249284	0.920010
Zn4	Zn	1.885281	0.499284	1.170010
Zn5	Zn	1.135186	-0.355977	0.295811
Zn6	Zn	1.385186	-0.105977	0.545811
Zn7	Zn	1.635186	0.144023	0.795811
Zn8	Zn	1.885186	0.394023	1.045811
Zn9	Zn	1.011100	-0.250719	0.295821
Zn10	Zn	1.261100	-0.000719	0.545821
Zn11	Zn	1.511100	0.249281	0.795821
Zn12	Zn	1.761100	0.499281	1.045821
Zn13	Zn	1.011043	-0.355944	0.419946
Zn14	Zn	1.261043	-0.105944	0.669946
Zn15	Zn	1.511043	0.144056	0.919946
Zn16	Zn	1.761043	0.394056	1.169946
O17	O	1.073153	-0.303339	0.357897
O18	O	1.323153	-0.053339	0.607897
O19	O	1.573153	0.196661	0.857897
O20	O	1.823153	0.446661	1.107897
O21	O	1.239193	-0.264692	0.403557
O22	O	1.489193	-0.014692	0.653557
O23	O	1.739193	0.235308	0.903557
O24	O	1.989193	0.485308	1.153557
O25	O	1.118710	-0.342030	0.191887
O26	O	1.368710	-0.092030	0.441887
O27	O	1.618710	0.157970	0.691887
O28	O	1.868710	0.407970	0.941887
O29	O	1.027636	-0.162629	0.312326
O30	O	1.277636	0.087371	0.562326
O31	O	1.527636	0.337371	0.812326
O32	O	1.777636	0.587371	1.062326
O33	O	1.239124	-0.342027	0.312308
O34	O	1.489124	-0.092027	0.562308
O35	O	1.739124	0.157973	0.812308
O36	O	1.989124	0.407973	1.062308
O37	O	1.118871	-0.162627	0.403567
O38	O	1.368871	0.087373	0.653567
O39	O	1.618871	0.337373	0.903567
O40	O	1.868871	0.587373	1.153567
O41	O	1.027545	-0.264697	0.191895
O42	O	1.277545	-0.014697	0.441895
O43	O	1.527545	0.235303	0.691895
O44	O	1.777545	0.485303	0.941895
O45	O	0.907168	-0.264664	0.312264
O46	O	1.157168	-0.014664	0.562264
O47	O	1.407168	0.235336	0.812264
O48	O	1.657168	0.485336	1.062264
O49	O	1.027539	-0.341971	0.523879
O50	O	1.277539	-0.091971	0.773879
O51	O	1.527539	0.158029	1.023879
O52	O	1.777539	0.408029	1.273879
O53	O	0.907126	-0.341973	0.403458
O54	O	1.157126	-0.091973	0.653458
O55	O	1.407126	0.158027	0.903458
O56	O	1.657126	0.408027	1.153458
O57	O	1.118816	-0.264660	0.523926
O58	O	1.368816	-0.014660	0.773926
O59	O	1.618816	0.235340	1.023926
O60	O	1.868816	0.485340	1.273926
O61	O	1.118655	-0.444062	0.312247
O62	O	1.368655	-0.194062	0.562247
O63	O	1.618655	0.055938	0.812247
O64	O	1.868655	0.305938	1.062247
O65	O	1.027448	-0.444038	0.403449
O66	O	1.277448	-0.194038	0.653449
O67	O	1.527448	0.055962	0.903449
O68	O	1.777448	0.305962	1.153449
C69	C	0.880200	-0.303316	0.357856
C70	C	1.130200	-0.053316	0.607856
C71	C	1.380200	0.196684	0.857856
C72	C	1.630200	0.446684	1.107856
C73	C	0.797655	-0.303321	0.357856
C74	C	1.047655	-0.053321	0.607856
C75	C	1.297655	0.196679	0.857856
C76	C	1.547655	0.446679	1.107856
C77	C	0.598205	-0.261232	0.308379
C78	C	0.848205	-0.011232	0.558379
C79	C	1.098205	0.238768	0.808379
C80	C	1.348205	0.488768	1.058379
C81	C	0.548783	-0.318646	0.290098
C82	C	0.798783	-0.068646	0.540098
C83	C	1.048783	0.181354	0.790098
C84	C	1.298783	0.431354	1.040098
C85	C	0.646524	-0.303340	0.357889
C86	C	0.896524	-0.053340	0.607889
C87	C	1.146524	0.196660	0.857889
C88	C	1.396524	0.446660	1.107889
C89	C	0.548865	-0.245945	0.376169
C90	C	0.798865	0.004055	0.626169
C91	C	1.048865	0.254055	0.876169
C92	C	1.298865	0.504055	1.126169
C93	C	0.500539	-0.303353	0.357920
C94	C	0.750539	-0.053353	0.607920
C95	C	1.000539	0.196647	0.857920
C96	C	1.250539	0.446647	1.107920
C97	C	0.598189	-0.360785	0.339573
C98	C	0.848189	-0.110785	0.589573
C99	C	1.098189	0.139215	0.839573
C100	C	1.348189	0.389215	1.089573
C101	C	0.598276	-0.288045	0.425676
C102	C	0.848276	-0.038045	0.675676
C103	C	1.098276	0.211955	0.925676
C104	C	1.348276	0.461955	1.175676
C105	C	0.548875	-0.345499	0.407420
C106	C	0.798875	-0.095499	0.657420
C107	C	1.048875	0.154501	0.907420
C108	C	1.298875	0.404501	1.157420
C109	C	0.730623	-0.303331	0.357870
C110	C	0.980623	-0.053331	0.607870
C111	C	1.230623	0.196669	0.857870
C112	C	1.480623	0.446669	1.107870
C113	C	0.416443	-0.303368	0.357940
C114	C	0.666443	-0.053368	0.607940
C115	C	0.916443	0.196632	0.857940
C116	C	1.166443	0.446632	1.107940
C117	C	1.073055	-0.466891	0.357856
C118	C	1.323055	-0.216891	0.607856
C119	C	1.573055	0.033109	0.857856
C120	C	1.823055	0.283109	1.107856
C121	C	1.073081	-0.536859	0.357863
C122	C	1.323081	-0.286859	0.607863
C123	C	1.573081	-0.036859	0.857863
C124	C	1.823081	0.213141	1.107863
C125	C	1.120615	-0.569717	0.310423
C126	C	1.370615	-0.319717	0.560423
C127	C	1.620615	-0.069717	0.810423
C128	C	1.870615	0.180283	1.060423
C129	C	1.120650	-0.635460	0.310440
C130	C	1.370650	-0.385460	0.560440
C131	C	1.620650	-0.135460	0.810440
C132	C	1.870650	0.114540	1.060440
C133	C	1.073138	-0.668341	0.357889
C134	C	1.323138	-0.418341	0.607889
C135	C	1.573138	-0.168341	0.857889
C136	C	1.823138	0.081659	1.107889
C137	C	1.025600	-0.635475	0.405338
C138	C	1.275600	-0.385475	0.655338
C139	C	1.525600	-0.135475	0.905338
C140	C	1.775600	0.114525	1.155338
C141	C	1.025572	-0.569734	0.405325
C142	C	1.275572	-0.319734	0.655325
C143	C	1.525572	-0.069734	0.905325
C144	C	1.775572	0.180266	1.155325
N145	N	1.008171	-0.771604	0.363536
N146	N	1.258171	-0.521604	0.613536
N147	N	1.508171	-0.271604	0.863536
N148	N	1.758171	-0.021604	1.113536
N149	N	1.008200	-0.834055	0.363544
N150	N	1.258200	-0.584055	0.613544
N151	N	1.508200	-0.334055	0.863544
N152	N	1.758200	-0.084055	1.113544
C153	C	1.073221	-0.866416	0.357931
C154	C	1.323221	-0.616416	0.607931
C155	C	1.573221	-0.366416	0.857931
C156	C	1.823221	-0.116416	1.107931
N157	N	1.138214	-0.833966	0.352296
N158	N	1.388214	-0.583966	0.602296
N159	N	1.638214	-0.333966	0.852296
N160	N	1.888214	-0.083966	1.102296
N161	N	1.138184	-0.771509	0.352284
N162	N	1.388184	-0.521509	0.602284
N163	N	1.638184	-0.271509	0.852284
N164	N	1.888184	-0.021509	1.102284
C165	C	1.073163	-0.739627	0.357908
C166	C	1.323163	-0.489627	0.607908
C167	C	1.573163	-0.239627	0.857908
C168	C	1.823163	0.010373	1.107908
C169	C	1.120797	-0.970560	0.310507
C170	C	1.370797	-0.720560	0.560507
C171	C	1.620797	-0.470560	0.810507
C172	C	1.870797	-0.220560	1.060507
C173	C	1.120833	-1.036304	0.310529
C174	C	1.370833	-0.786304	0.560529
C175	C	1.620833	-0.536304	0.810529
C176	C	1.870833	-0.286304	1.060529
C177	C	1.025776	-1.036318	0.405423
C178	C	1.275776	-0.786318	0.655423
C179	C	1.525776	-0.536318	0.905423
C180	C	1.775776	-0.286318	1.155423
C181	C	1.025747	-0.970575	0.405405
C182	C	1.275747	-0.720575	0.655405
C183	C	1.525747	-0.470575	0.905405
C184	C	1.775747	-0.220575	1.155405
C185	C	1.073256	-0.937700	0.357943
C186	C	1.323256	-0.687700	0.607943
C187	C	1.573256	-0.437700	0.857943
C188	C	1.823256	-0.187700	1.107943
C189	C	1.266858	-0.303363	0.357939
C190	C	1.516858	-0.053363	0.607939
C191	C	1.766858	0.196637	0.857939
C192	C	2.016858	0.446637	1.107939
C193	C	1.349404	-0.303373	0.357956
C194	C	1.599404	-0.053373	0.607956
C195	C	1.849404	0.196627	0.857956
C196	C	2.099404	0.446627	1.107956
C197	C	1.073182	-0.303311	0.551603
C198	C	1.323182	-0.053311	0.801603
C199	C	1.573182	0.196689	1.051603
C200	C	1.823182	0.446689	1.301603
C201	C	1.073194	-0.303299	0.634148
C202	C	1.323194	-0.053299	0.884148
C203	C	1.573194	0.196701	1.134148
C204	C	1.823194	0.446701	1.384148
C205	C	1.073270	-0.139149	0.357954
C206	C	1.323270	0.110851	0.607954
C207	C	1.573270	0.360851	0.857954
C208	C	1.823270	0.610851	1.107954
C209	C	1.073321	-0.069181	0.357979
C210	C	1.323321	0.180819	0.607979
C211	C	1.573321	0.430819	0.857979
C212	C	1.823321	0.680819	1.107979
C213	C	1.073166	-0.303322	0.164945
C214	C	1.323166	-0.053322	0.414945
C215	C	1.573166	0.196678	0.664945
C216	C	1.823166	0.446678	0.914945
C217	C	1.073298	-0.303156	0.082399
C218	C	1.323298	-0.053156	0.332399
C219	C	1.573298	0.196844	0.582399
C220	C	1.823298	0.446844	0.832399
C221	C	1.023596	-0.345283	0.833574
C222	C	1.273596	-0.095283	1.083574
C223	C	1.523596	0.154717	1.333574
C224	C	1.773596	0.404717	1.583574
C225	C	1.091350	-0.360675	0.882971
C226	C	1.341350	-0.110675	1.132971
C227	C	1.591350	0.139325	1.382971
C228	C	1.841350	0.389325	1.632971
C229	C	1.073231	-0.303251	0.785279
C230	C	1.323231	-0.053251	1.035279
C231	C	1.573231	0.196749	1.285279
C232	C	1.823231	0.446749	1.535279
C233	C	1.005513	-0.287842	0.882964
C234	C	1.255513	-0.037842	1.132964
C235	C	1.505513	0.212158	1.382964
C236	C	1.755513	0.462158	1.632964
C237	C	1.073260	-0.303206	0.931264
C238	C	1.323260	-0.053206	1.181264
C239	C	1.573260	0.196794	1.431264
C240	C	1.823260	0.446794	1.681264
C241	C	1.141021	-0.318673	0.833589
C242	C	1.391021	-0.068673	1.083589
C243	C	1.641021	0.181327	1.333589
C244	C	1.891021	0.431327	1.583589
C245	C	1.055138	-0.245814	0.833577
C246	C	1.305138	0.004186	1.083577
C247	C	1.555138	0.254186	1.333577
C248	C	1.805138	0.504186	1.583577
C249	C	1.122940	-0.261183	0.882952
C250	C	1.372940	-0.011183	1.132952
C251	C	1.622940	0.238817	1.382952
C252	C	1.872940	0.488817	1.632952
C253	C	1.073213	-0.303279	0.701181
C254	C	1.323213	-0.053279	0.951181
C255	C	1.573213	0.196721	1.201181
C256	C	1.823213	0.446721	1.451181
C257	C	1.073286	-0.303178	1.015361
C258	C	1.323286	-0.053178	1.265361
C259	C	1.573286	0.196822	1.515361
C260	C	1.823286	0.446822	1.765361
H261	H	0.620032	-0.275080	0.482970
H262	H	0.870032	-0.025080	0.732970
H263	H	1.120032	0.224920	0.982970
H264	H	1.370032	0.474920	1.232970
Br265	Br	1.185102	-0.525104	0.246021
Br266	Br	1.435102	-0.275104	0.496021
Br267	Br	1.685102	-0.025104	0.746021
Br268	Br	1.935102	0.224896	0.996021
Br269	Br	0.512999	-0.404925	0.477231
Br270	Br	0.762999	-0.154925	0.727231
Br271	Br	1.012999	0.095075	0.977231
Br272	Br	1.262999	0.345075	1.227231
Br273	Br	0.512743	-0.165038	0.401913
Br274	Br	0.762743	0.084962	0.651913
Br275	Br	1.012743	0.334962	0.901913
Br276	Br	1.262743	0.584962	1.151913
H277	H	0.986864	-0.542980	0.443958
H278	H	1.236864	-0.292980	0.693958
H279	H	1.486864	-0.042980	0.943958
H280	H	1.736864	0.207020	1.193958
Br281	Br	0.961231	-0.925978	0.469790
Br282	Br	1.211231	-0.675978	0.719790
Br283	Br	1.461231	-0.425978	0.969790
Br284	Br	1.711231	-0.175978	1.219790
H285	H	0.986917	-0.662251	0.443973
H286	H	1.236917	-0.412251	0.693973
H287	H	1.486917	-0.162251	0.943973
H288	H	1.736917	0.087749	1.193973
Br289	Br	1.185269	-0.925940	0.246093
Br290	Br	1.435269	-0.675940	0.496093
Br291	Br	1.685269	-0.425940	0.746093
Br292	Br	1.935269	-0.175940	0.996093
Br293	Br	1.029571	-0.164908	0.797385
Br294	Br	1.279571	0.085092	1.047385
Br295	Br	1.529571	0.335092	1.297385
Br296	Br	1.779571	0.585092	1.547385
H297	H	0.948233	-0.274828	0.904653
H298	H	1.198233	-0.024828	1.154653
H299	H	1.448233	0.225172	1.404653
H300	H	1.698233	0.475172	1.654653
Br301	Br	1.185166	-0.680064	0.246052
Br302	Br	1.435166	-0.430064	0.496052
Br303	Br	1.685166	-0.180064	0.746052
Br304	Br	1.935166	0.069936	0.996052
H305	H	0.987094	-1.063089	0.444060
H306	H	1.237094	-0.813089	0.694060
H307	H	1.487094	-0.563089	0.944060
H308	H	1.737094	-0.313089	1.194060
Br309	Br	1.185357	-1.080899	0.246147
Br310	Br	1.435357	-0.830899	0.496147
Br311	Br	1.685357	-0.580899	0.746147
Br312	Br	1.935357	-0.330899	0.996147
Br313	Br	0.953699	-0.404601	0.797435
Br314	Br	1.203699	-0.154601	1.047435
Br315	Br	1.453699	0.095399	1.297435
Br316	Br	1.703699	0.345399	1.547435
Br317	Br	0.512550	-0.340228	0.194575
Br318	Br	0.762550	-0.090228	0.444575
Br319	Br	1.012550	0.159772	0.694575
Br320	Br	1.262550	0.409772	0.944575
Br321	Br	0.634145	-0.441719	0.313716
Br322	Br	0.884145	-0.191719	0.563716
Br323	Br	1.134145	0.058281	0.813716
Br324	Br	1.384145	0.308281	1.063716
Br325	Br	0.634308	-0.201942	0.238523
Br326	Br	0.884308	0.048058	0.488523
Br327	Br	1.134308	0.298058	0.738523
Br328	Br	1.384308	0.548058	0.988523
H329	H	1.106671	-0.409229	0.904667
H330	H	1.356671	-0.159229	1.154667
H331	H	1.606671	0.090771	1.404667
H332	H	1.856671	0.340771	1.654667
Br333	Br	1.236518	-0.340462	0.797597
Br334	Br	1.486518	-0.090462	1.047597
Br335	Br	1.736518	0.159538	1.297597
Br336	Br	1.986518	0.409538	1.547597
Br337	Br	1.192998	-0.201906	0.918865
Br338	Br	1.442998	0.048094	1.168865
Br339	Br	1.692998	0.298094	1.418865
Br340	Br	1.942998	0.548094	1.668865
