data_functionalizedCrystal
_audit_creation_method	'MofGen! by Chris Wilmer'
_symmetry_space_group_name_H-M	'P1'
_symmetry_Int_Tables_number	1
_symmetry_cell_setting	triclinic
loop_
_symmetry_equiv_pos_as_xyz
  x,y,z
_cell_length_a	12.827893
_cell_length_b	14.908178
_cell_length_c	12.827885
_cell_angle_alpha	86.668630
_cell_angle_beta	89.980728
_cell_angle_gamma	93.313970
loop_
_atom_site_label
_atom_site_type_symbol
_atom_site_fract_x
_atom_site_fract_y
_atom_site_fract_z
Zn1	Zn	1.573645	-0.359146	-0.566802
Zn2	Zn	1.563445	-0.510043	-0.381959
Zn3	Zn	1.398883	-0.359190	-0.392073
Zn4	Zn	1.388782	-0.509976	-0.556664
O5	O	1.481189	-0.434588	-0.474374
O6	O	1.718527	-0.379172	-0.542293
O7	O	1.541574	-0.490078	-0.237062
O8	O	1.430562	-0.232929	-0.423727
O9	O	1.711033	-0.490036	-0.406489
O10	O	1.558959	-0.232896	-0.552100
O11	O	1.420672	-0.379247	-0.244492
O12	O	1.251308	-0.379182	-0.413896
O13	O	1.413346	-0.489921	-0.704248
O14	O	1.243887	-0.489964	-0.534820
O15	O	1.549164	-0.379107	-0.711696
O16	O	1.531779	-0.636289	-0.396659
O17	O	1.403455	-0.636240	-0.525013
C18	C	1.209680	-0.434571	-0.474356
C19	C	1.093526	-0.434585	-0.474371
C20	C	1.038091	-0.489489	-0.534105
C21	C	0.918039	-0.489505	-0.534122
C22	C	1.465443	-0.669001	-0.458661
C23	C	1.458802	-0.769284	-0.451974
C24	C	1.579922	-0.957542	-0.573225
C25	C	1.573686	-1.051766	-0.566946
C26	C	1.440090	-1.051959	-0.433140
C27	C	1.446326	-0.957734	-0.439420
C28	C	1.516245	-0.910529	-0.509464
C29	C	1.522485	-0.816303	-0.515738
C30	C	1.388885	-0.816497	-0.381938
C31	C	1.382649	-0.910722	-0.375658
C32	C	1.753758	-0.434607	-0.474394
C33	C	1.869910	-0.434614	-0.474402
C34	C	1.481266	-0.434502	-0.746951
C35	C	1.481298	-0.434465	-0.863106
C36	C	1.497025	-0.199261	-0.490172
C37	C	1.503773	-0.098978	-0.496904
C38	C	1.548513	-0.379620	-0.918578
C39	C	1.548549	-0.379580	-1.038631
C40	C	1.481177	-0.434610	-0.202863
C41	C	1.481363	-0.434392	-0.086725
H42	H	0.870380	-0.536513	-0.585258
C43	C	1.625049	-0.316997	-0.863271
C44	C	1.569696	-0.259249	-0.804459
C45	C	1.640169	-0.201557	-0.753487
H46	H	1.667257	-0.282497	-0.913524
H47	H	1.668187	-0.351541	-0.818316
H48	H	1.526577	-0.224709	-0.849409
H49	H	1.527493	-0.293724	-0.754188
H50	H	1.683307	-0.236100	-0.708533
H51	H	1.682373	-0.167063	-0.803748
H52	H	1.602623	-0.162374	-0.713570
H53	H	1.423773	-0.481385	-0.904494
C54	C	0.933256	-0.371899	-0.406090
C55	C	0.865578	-0.321279	-0.350979
C56	C	0.923902	-0.263506	-0.288029
H57	H	0.978498	-0.332576	-0.448688
H58	H	0.973477	-0.406376	-0.358157
H59	H	0.825376	-0.286804	-0.398907
H60	H	0.820336	-0.360578	-0.308362
H61	H	0.964122	-0.297984	-0.240096
H62	H	0.969141	-0.224190	-0.330635
H63	H	0.877991	-0.229160	-0.250621
H64	H	1.383160	-1.090409	-0.376119
H65	H	1.325721	-0.949169	-0.318633
H66	H	1.052109	-0.387588	-0.423248
C67	C	1.093450	-0.552007	-0.602351
C68	C	1.159587	-0.500933	-0.672768
C69	C	1.210608	-0.558496	-0.735645
H70	H	1.043223	-0.586478	-0.639928
H71	H	1.133442	-0.591223	-0.559655
H72	H	1.119597	-0.461734	-0.715459
H73	H	1.209833	-0.466465	-0.635219
H74	H	1.250600	-0.597711	-0.692949
H75	H	1.160373	-0.592963	-0.773215
H76	H	1.255494	-0.523851	-0.783423
H77	H	1.606097	-0.332629	-1.086320
C78	C	1.404795	-0.497061	-1.023011
C79	C	1.460119	-0.554847	-0.956457
C80	C	1.389621	-0.612581	-0.897728
H81	H	1.362617	-0.531531	-1.068629
H82	H	1.361630	-0.462549	-0.982682
H83	H	1.503266	-0.589355	-0.996782
H84	H	1.502293	-0.520401	-0.910817
H85	H	1.346457	-0.578070	-0.857400
H86	H	1.347447	-0.647045	-0.943355
H87	H	1.427149	-0.651790	-0.852558
C88	C	1.598524	-0.765003	-0.591616
C89	C	1.669145	-0.710915	-0.536121
C90	C	1.739214	-0.663657	-0.605989
H91	H	1.561079	-0.728172	-0.639585
H92	H	1.635613	-0.806473	-0.628675
H93	H	1.632060	-0.669449	-0.499079
H94	H	1.706615	-0.747723	-0.488157
H95	H	1.776303	-0.705128	-0.643048
H96	H	1.701759	-0.626832	-0.653954
H97	H	1.787144	-0.626960	-0.568345
H98	H	1.625533	-1.090040	-0.618872
C99	C	1.655857	-0.906447	-0.649373
C100	C	1.710274	-0.967787	-0.703887
C101	C	1.780223	-0.920753	-0.774055
H102	H	1.703938	-0.869675	-0.612010
H103	H	1.618305	-0.869712	-0.697373
H104	H	1.747824	-1.004507	-0.655894
H105	H	1.662221	-1.004560	-0.741271
H106	H	1.742671	-0.884018	-0.822055
H107	H	1.828297	-0.883983	-0.736683
H108	H	1.817147	-0.962365	-0.811058
H109	H	1.337038	-0.778209	-0.330016
