data_functionalizedCrystal
_audit_creation_method	'MofGen! by Chris Wilmer'
_symmetry_space_group_name_H-M	'P1'
_symmetry_Int_Tables_number	1
_symmetry_cell_setting	triclinic
loop_
_symmetry_equiv_pos_as_xyz
  x,y,z
_cell_length_a	12.759394
_cell_length_b	10.686154
_cell_length_c	10.686551
_cell_angle_alpha	90.304699
_cell_angle_beta	94.406554
_cell_angle_gamma	85.604789
loop_
_atom_site_label
_atom_site_type_symbol
_atom_site_fract_x
_atom_site_fract_y
_atom_site_fract_z
Zn1	Zn	-0.256169	-1.972297	0.562495
Zn2	Zn	-0.446329	-1.956068	0.352732
Zn3	Zn	-0.283042	-1.746414	0.368799
Zn4	Zn	-0.444197	-1.762497	0.578499
O5	O	-0.357435	-1.859319	0.465631
O6	O	-0.271041	-2.145686	0.521248
O7	O	-0.436808	-1.914734	0.179317
O8	O	-0.132451	-1.776439	0.394520
O9	O	-0.410750	-2.133763	0.367136
O10	O	-0.112707	-1.942394	0.536827
O11	O	-0.316841	-1.760703	0.191121
O12	O	-0.314773	-1.573005	0.410038
O13	O	-0.407117	-1.803850	0.751922
O14	O	-0.433174	-1.584821	0.564103
O15	O	-0.268973	-1.957989	0.740164
O16	O	-0.593073	-1.930329	0.382654
O17	O	-0.591507	-1.788113	0.548524
C18	C	-0.376659	-1.533397	0.490551
C19	C	-0.384906	-1.393968	0.501242
C20	C	-0.630409	-1.859241	0.465607
C21	C	-0.747178	-1.859326	0.465629
C22	C	-0.748741	-2.007545	0.293020
C23	C	-0.804380	-2.081688	0.206728
C24	C	-0.914095	-2.081764	0.206756
C25	C	-0.968173	-2.007692	0.293089
C26	C	-0.912534	-1.933549	0.379381
C27	C	-0.802817	-1.933478	0.379341
C28	C	-0.910970	-1.785339	0.551994
C29	C	-0.801256	-1.785254	0.551962
C30	C	-0.965048	-1.711266	0.638327
C31	C	-0.909410	-1.637115	0.724615
C32	C	-0.799689	-1.637041	0.724582
C33	C	-0.745617	-1.711111	0.638254
C34	C	-0.083391	-1.859433	0.465681
C35	C	0.033391	-1.859482	0.465702
C36	C	-0.334810	-1.884524	0.792833
C37	C	-0.325168	-1.895264	0.932267
C38	C	-0.338131	-1.186513	0.440601
C39	C	-0.329893	-1.325940	0.429899
C40	C	-0.379892	-1.834284	0.139696
C41	C	-0.389223	-1.823786	0.000245
H42	H	-0.760340	-2.142000	0.136439
H43	H	-0.754392	-1.576670	0.794856
C44	C	-0.968894	-1.555648	0.819575
C45	C	-1.089575	-1.555741	0.819619
C46	C	-1.149064	-1.474273	0.914581
C47	C	-1.087872	-1.392710	1.009499
C48	C	-0.967184	-1.392613	1.009459
C49	C	-0.907695	-1.474082	0.914497
H50	H	-1.134880	-1.616122	0.749351
H51	H	-1.238406	-1.474345	0.914610
H52	H	-1.131909	-1.332402	1.079796
H53	H	-0.921879	-1.332233	1.079726
H54	H	-0.818353	-1.474010	0.914468
H55	H	-0.451441	-1.754378	0.951771
H56	H	-0.276487	-1.374372	0.360630
H57	H	-0.659407	-2.007473	0.292973
H58	H	-0.438317	-1.345542	0.570498
C59	C	-0.975305	-2.163317	0.111834
C60	C	-0.915832	-2.244793	0.016873
C61	C	-0.977043	-2.326344	-0.078050
C62	C	-1.097726	-2.326418	-0.078012
C63	C	-1.157205	-2.244939	0.016952
C64	C	-1.095994	-2.163388	0.111875
H65	H	-0.826490	-2.244741	0.016841
H66	H	-0.933012	-2.386660	-0.148349
H67	H	-1.143037	-2.386787	-0.148280
H68	H	-1.246547	-2.244991	0.016984
H69	H	-1.140025	-2.103072	0.182174
H70	H	-1.057507	-2.007772	0.293114
H71	H	-1.054383	-1.711339	0.638349
H72	H	-0.656283	-1.711049	0.638211
H73	H	-0.262952	-1.964687	0.980746
