data_functionalizedCrystal
_audit_creation_method	'MofGen! by Chris Wilmer'
_symmetry_space_group_name_H-M	'P1'
_symmetry_Int_Tables_number	1
_symmetry_cell_setting	triclinic
loop_
_symmetry_equiv_pos_as_xyz
  x,y,z
_cell_length_a	15.995350
_cell_length_b	11.792241
_cell_length_c	10.868271
_cell_angle_alpha	90.005281
_cell_angle_beta	90.000670
_cell_angle_gamma	83.842895
loop_
_atom_site_label
_atom_site_type_symbol
_atom_site_fract_x
_atom_site_fract_y
_atom_site_fract_z
O1	O	-1.111649	-0.146296	-0.102218
O2	O	-0.867956	-0.164362	-0.102244
O3	O	-0.995716	0.009891	-0.102222
O4	O	-0.983889	-0.320549	-0.102240
O5	O	-0.995706	0.009898	0.102423
O6	O	-0.867946	-0.164355	0.102401
O7	O	-1.111639	-0.146289	0.102426
Zn8	Zn	-0.989790	-0.155321	0.134905
Zn9	Zn	-0.989804	-0.155330	-0.134723
O10	O	-0.983878	-0.320542	0.102404
C11	C	-0.836753	-0.163612	0.000075
C12	C	-0.743792	-0.161372	0.000066
C13	C	-0.994968	0.052179	0.000100
C14	C	-0.992745	0.178174	0.000099
C15	C	-1.142842	-0.147040	0.000104
C16	C	-1.235803	-0.149279	0.000106
C17	C	-0.406008	-0.153331	0.000092
C18	C	-0.452879	-0.029232	0.000555
C19	C	-0.549579	-0.031471	0.000085
C20	C	-0.573587	-0.157320	0.000080
C21	C	-0.532784	-0.218534	-0.116781
C22	C	-0.436134	-0.215416	-0.116870
C23	C	-0.435794	-0.217973	0.115849
C24	C	-0.532740	-0.217943	0.117385
C25	C	-0.668295	-0.159581	0.000069
C26	C	-0.311300	-0.151074	0.000095
C27	C	-0.984627	-0.362830	0.000080
C28	C	-0.986850	-0.488825	0.000073
N29	N	-0.989787	-0.155314	0.318919
C30	C	-0.988655	0.408852	0.000078
C31	C	-0.990927	0.280486	0.000089
N32	N	-0.989814	-0.155328	-0.318737
C33	C	-0.989800	-0.155328	0.569925
C34	C	-0.989790	-0.155324	0.430248
H35	H	-0.577785	0.016646	0.083857
F36	F	-0.408711	-0.164937	0.231627
F37	F	-0.411942	-0.157076	-0.231044
H38	H	-0.548521	-0.309716	0.124439
H39	H	-0.404448	-0.309470	0.116635
H40	H	-0.434127	0.020377	0.084361
F41	F	-0.426977	0.035311	-0.108366
F42	F	-0.585690	0.031582	-0.109767
F43	F	-0.394521	-0.334503	-0.123808
H44	H	-0.547328	-0.310992	-0.121130
F45	F	-0.569622	-0.162970	-0.230454
H46	H	-0.559849	-0.173257	0.203838
