data_functionalizedCrystal
_audit_creation_method	'MofGen! by Chris Wilmer'
_symmetry_space_group_name_H-M	'P1'
_symmetry_Int_Tables_number	1
_symmetry_cell_setting	triclinic
loop_
_symmetry_equiv_pos_as_xyz
  x,y,z
_cell_length_a	14.908571
_cell_length_b	18.050589
_cell_length_c	14.908308
_cell_angle_alpha	86.730698
_cell_angle_beta	89.824947
_cell_angle_gamma	86.724558
loop_
_atom_site_label
_atom_site_type_symbol
_atom_site_fract_x
_atom_site_fract_y
_atom_site_fract_z
Zn1	Zn	1.345230	-0.387558	0.587600
Zn2	Zn	1.353791	-0.505024	0.437245
Zn3	Zn	1.203548	-0.373294	0.428597
Zn4	Zn	1.194819	-0.504142	0.578897
O5	O	1.274347	-0.442504	0.508085
O6	O	1.472191	-0.409479	0.574916
O7	O	1.341097	-0.481949	0.310273
O8	O	1.222413	-0.271266	0.449712
O9	O	1.478480	-0.495781	0.464452
O10	O	1.326506	-0.281746	0.566530
O11	O	1.230714	-0.385168	0.303919
O12	O	1.076565	-0.384312	0.441273
O13	O	1.207536	-0.494277	0.705876
O14	O	1.070152	-0.480446	0.551698
O15	O	1.318042	-0.408624	0.712270
O16	O	1.332633	-0.608827	0.456013
O17	O	1.215836	-0.608179	0.560084
C18	C	1.040734	-0.430736	0.494603
C19	C	0.940791	-0.425720	0.488857
C20	C	1.274239	-0.635451	0.508063
C21	C	1.274274	-0.717999	0.508089
C22	C	0.746369	-0.516539	0.592890
C23	C	0.652464	-0.511829	0.587494
C24	C	0.659075	-0.411586	0.472674
C25	C	0.752980	-0.416296	0.478070
C26	C	0.796623	-0.468775	0.538179
C27	C	0.890530	-0.473489	0.543570
C28	C	0.897139	-0.373243	0.428755
C29	C	0.803235	-0.368533	0.423359
C30	C	1.210820	-0.917126	0.564665
C31	C	1.193639	-0.961795	0.481356
C32	C	1.274362	-0.869134	0.508106
C33	C	1.291586	-0.971550	0.591427
C34	C	1.274444	-1.015125	0.508129
C35	C	1.257140	-0.912712	0.424750
C36	C	1.355122	-0.922467	0.534880
C37	C	1.337975	-0.967112	0.451515
C38	C	1.274312	-0.785033	0.508094
C39	C	1.274495	-1.099224	0.508132
C40	C	1.508873	-0.454320	0.521619
C41	C	1.608814	-0.459355	0.527387
C42	C	1.260860	-0.452943	0.742610
C43	C	1.255113	-0.457391	0.842551
C44	C	1.274479	-0.248807	0.508127
C45	C	1.274535	-0.166265	0.508145
C46	C	1.287833	-0.432055	0.274474
C47	C	1.293755	-0.427407	0.174544
C48	C	1.359381	-0.376542	1.037010
C49	C	1.353984	-0.380719	1.130914
C50	C	1.238917	-0.469919	1.124263
C51	C	1.244314	-0.465741	1.030360
C52	C	1.304549	-0.419052	0.986737
C53	C	1.309951	-0.414880	0.892832
C54	C	1.194880	-0.504075	0.886183
C55	C	1.189483	-0.508252	0.980086
H56	H	0.781904	-0.559273	0.641828
C57	C	1.370282	-1.035222	0.320405
C58	C	1.410565	-0.996552	0.386886
H59	H	1.415095	-1.053401	0.280508
H60	H	1.328069	-1.002742	0.287882
H61	H	1.340376	-1.075758	0.347740
H62	H	1.440466	-0.956013	0.359550
H63	H	1.452794	-1.029034	0.419412
C64	C	0.505581	-0.549116	0.630207
C65	C	0.597222	-0.564332	0.647632
H66	H	0.471478	-0.581528	0.667342
H67	H	0.493652	-0.556451	0.568895
H68	H	0.489461	-0.499051	0.642584
H69	H	0.613343	-0.614395	0.635250
H70	H	0.609156	-0.557003	0.708959
C71	C	1.064238	-1.030581	0.518922
C72	C	1.101493	-0.985348	0.450790
H73	H	1.007353	-1.045122	0.500053
H74	H	1.057053	-1.003772	0.571718
H75	H	1.103038	-1.073533	0.531192
H76	H	1.062696	-0.942393	0.438525
H77	H	1.108674	-1.012157	0.397979
C78	C	0.518053	-0.359819	0.413482
C79	C	0.611089	-0.353877	0.406643
H80	H	0.488430	-0.324186	0.372722
H81	H	0.499237	-0.350971	0.473042
H82	H	0.503396	-0.408329	0.399305
H83	H	0.625747	-0.305369	0.420826
H84	H	0.629912	-0.362720	0.347070
H85	H	1.423362	-0.905010	0.557544
H86	H	0.767687	-0.325804	0.374423
H87	H	1.306123	-0.997236	0.661882
C88	C	1.044023	-0.335951	0.386037
C89	C	0.952382	-0.320736	0.368612
H90	H	1.078125	-0.303535	0.348908
H91	H	1.060143	-0.386009	0.373661
H92	H	1.055950	-0.328617	0.447358
H93	H	0.940453	-0.328076	0.307291
H94	H	0.936255	-0.270667	0.380981
H95	H	1.150234	-0.538692	0.845240
C96	C	1.084974	-0.499703	1.144381
C97	C	1.172702	-0.521231	1.172218
H98	H	1.044095	-0.531379	1.173989
H99	H	1.080352	-0.503306	1.081268
H100	H	1.070976	-0.449827	1.159020
H101	H	1.186702	-0.571106	1.157572
H102	H	1.177327	-0.517635	1.235345
C103	C	1.155369	-0.918398	0.716093
C104	C	1.138190	-0.887498	0.629133
H105	H	1.110526	-0.900109	0.755887
H106	H	1.212674	-0.905060	0.735241
H107	H	1.154543	-0.970983	0.716129
H108	H	1.139023	-0.834913	0.629096
H109	H	1.080871	-0.900831	0.609981
H110	H	1.242524	-0.887110	0.354272
C111	C	1.360465	-0.286149	1.237244
C112	C	1.414256	-0.333989	1.186173
H113	H	1.397677	-0.257294	1.271354
H114	H	1.323834	-0.314552	1.276665
H115	H	1.323414	-0.254146	1.198346
H116	H	1.451303	-0.365995	1.225072
H117	H	1.450903	-0.305583	1.146748
H118	H	1.408431	-0.338530	1.001492
C119	C	1.423137	-0.327123	0.908840
C120	C	1.376155	-0.363557	0.844878
H121	H	1.464004	-0.295433	0.879235
H122	H	1.455407	-0.362837	0.947441
H123	H	1.381860	-0.298378	0.943213
H124	H	1.417431	-0.392305	0.810510
H125	H	1.343883	-0.327838	0.806262
C126	C	1.143948	-0.633083	1.006450
C127	C	1.123276	-0.559572	1.028041
H128	H	1.103071	-0.664766	1.036050
H129	H	1.203463	-0.647668	1.025328
H130	H	1.139315	-0.636670	0.943327
H131	H	1.127917	-0.555984	1.091163
H132	H	1.063747	-0.544984	1.009168
H133	H	0.926063	-0.516221	0.592512
