data_functionalizedCrystal
_audit_creation_method	'MofGen! by Chris Wilmer'
_symmetry_space_group_name_H-M	'P1'
_symmetry_Int_Tables_number	1
_symmetry_cell_setting	triclinic
loop_
_symmetry_equiv_pos_as_xyz
  x,y,z
_cell_length_a	10.685661
_cell_length_b	10.685194
_cell_length_c	10.685880
_cell_angle_alpha	90.299888
_cell_angle_beta	81.602173
_cell_angle_gamma	89.666413
loop_
_atom_site_label
_atom_site_type_symbol
_atom_site_fract_x
_atom_site_fract_y
_atom_site_fract_z
Zn1	Zn	1.936575	-0.712830	-0.806957
Zn2	Zn	2.436575	-0.212830	-0.306957
Zn3	Zn	1.904322	-0.903941	-0.578835
Zn4	Zn	2.404322	-0.403941	-0.078835
Zn5	Zn	1.710887	-0.678282	-0.581358
Zn6	Zn	2.210887	-0.178282	-0.081358
Zn7	Zn	1.708450	-0.903828	-0.774799
Zn8	Zn	2.208450	-0.403828	-0.274799
O9	O	1.815058	-0.799720	-0.685487
O10	O	2.315058	-0.299720	-0.185487
O11	O	2.108720	-0.752687	-0.789098
O12	O	2.608720	-0.252687	-0.289098
O13	O	1.866184	-0.859595	-0.402744
O14	O	2.366184	-0.359595	0.097256
O15	O	1.755343	-0.508493	-0.625798
O16	O	2.255343	-0.008493	-0.125798
O17	O	2.085024	-0.893095	-0.621498
O18	O	2.585024	-0.393095	-0.121498
O19	O	1.921155	-0.533875	-0.791544
O20	O	2.421155	-0.033875	-0.291544
O21	O	1.724068	-0.693805	-0.404598
O22	O	2.224068	-0.193805	0.095402
O23	O	1.534140	-0.693696	-0.594616
O24	O	2.034140	-0.193696	-0.094616
O25	O	1.751190	-0.892903	-0.955490
O26	O	2.251190	-0.392903	-0.455490
O27	O	1.532349	-0.859403	-0.736736
O28	O	2.032349	-0.359403	-0.236736
O29	O	1.918792	-0.752578	-0.979116
O30	O	2.418792	-0.252578	-0.479116
O31	O	1.863821	-1.078298	-0.590316
O32	O	2.363821	-0.578298	-0.090316
O33	O	1.719915	-1.078215	-0.734290
O34	O	2.219915	-0.578215	-0.234290
C35	C	1.487500	-0.772789	-0.662461
C36	C	1.987500	-0.272789	-0.162461
C37	C	1.347368	-0.761301	-0.652638
C38	C	1.847368	-0.261301	-0.152638
C39	C	1.788140	-1.123474	-0.658569
C40	C	2.288140	-0.623474	-0.158569
C41	C	1.776742	-1.261991	-0.647104
C42	C	2.276742	-0.761991	-0.147104
C43	C	2.143896	-0.826757	-0.708604
C44	C	2.643896	-0.326757	-0.208604
C45	C	2.284027	-0.838279	-0.718454
C46	C	2.784027	-0.338279	-0.218454
C47	C	1.838317	-0.826582	-1.014327
C48	C	2.338317	-0.326582	-0.514327
C49	C	1.848228	-0.838029	-1.154460
C50	C	2.348228	-0.338029	-0.654460
C51	C	1.842118	-0.474707	-0.712540
C52	C	2.342118	0.025293	-0.212540
C53	C	1.853650	-0.336206	-0.724068
C54	C	2.353650	0.163794	-0.224068
C55	C	1.791971	-0.772879	-0.357938
C56	C	2.291971	-0.272879	0.142062
C57	C	1.782333	-0.761101	-0.217853
C58	C	2.282333	-0.261101	0.282147
H59	H	1.294394	-0.686600	-0.588783
H60	H	1.794394	-0.186600	-0.088783
H61	H	1.928215	-1.293777	-0.798738
H62	H	2.428215	-0.793777	-0.298738
H63	H	1.337010	-0.912975	-0.782325
H64	H	1.837010	-0.412975	-0.282325
C65	C	1.676022	-1.319314	-0.546199
C66	C	2.176022	-0.819314	-0.046199
N67	N	1.600172	-1.362491	-0.470187
N68	N	2.100172	-0.862491	0.029813
H69	H	1.912231	-0.912650	-1.207391
H70	H	2.412231	-0.412650	-0.707391
C71	C	1.695863	-0.660281	-1.146342
C72	C	2.195863	-0.160281	-0.646342
N73	N	1.630739	-0.584342	-1.092479
N74	N	2.130739	-0.084342	-0.592479
