data_functionalizedCrystal
_audit_creation_method	'MofGen! by Chris Wilmer'
_symmetry_space_group_name_H-M	'P1'
_symmetry_Int_Tables_number	1
_symmetry_cell_setting	triclinic
loop_
_symmetry_equiv_pos_as_xyz
  x,y,z
_cell_length_a	29.839135
_cell_length_b	29.839131
_cell_length_c	29.839126
_cell_angle_alpha	89.968194
_cell_angle_beta	89.976855
_cell_angle_gamma	90.037758
loop_
_atom_site_label
_atom_site_type_symbol
_atom_site_fract_x
_atom_site_fract_y
_atom_site_fract_z
Zn1	Zn	0.686773	-0.178857	-0.254023
Zn2	Zn	1.020106	0.154476	0.079310
Zn3	Zn	1.353440	0.487809	0.412643
Zn4	Zn	0.686703	-0.253978	-0.178883
Zn5	Zn	1.020036	0.079355	0.154450
Zn6	Zn	1.353370	0.412689	0.487783
Zn7	Zn	0.611646	-0.178866	-0.178901
Zn8	Zn	0.944979	0.154467	0.154432
Zn9	Zn	1.278312	0.487801	0.487765
Zn10	Zn	0.611612	-0.253964	-0.253980
Zn11	Zn	0.944945	0.079369	0.079353
Zn12	Zn	1.278278	0.412702	0.412686
O13	O	0.649183	-0.216416	-0.216447
O14	O	0.982517	0.116917	0.116886
O15	O	1.315850	0.450250	0.450220
O16	O	0.749631	-0.188824	-0.244066
O17	O	1.082964	0.144509	0.089267
O18	O	1.416297	0.477842	0.422600
O19	O	0.676732	-0.244023	-0.116019
O20	O	1.010065	0.089310	0.217315
O21	O	1.343398	0.422643	0.550648
O22	O	0.621655	-0.115998	-0.188892
O23	O	0.954988	0.217336	0.144441
O24	O	1.288322	0.550669	0.477774
O25	O	0.749580	-0.244015	-0.188861
O26	O	1.082913	0.089318	0.144472
O27	O	1.416246	0.422652	0.477805
O28	O	0.676851	-0.115991	-0.244084
O29	O	1.010184	0.217342	0.089249
O30	O	1.343517	0.550675	0.422583
O31	O	0.621587	-0.188839	-0.116032
O32	O	0.954921	0.144494	0.217301
O33	O	1.288254	0.477828	0.550635
O34	O	0.548774	-0.188826	-0.188850
O35	O	0.882107	0.144507	0.144483
O36	O	1.215441	0.477841	0.477816
O37	O	0.621597	-0.243992	-0.316853
O38	O	0.954930	0.089341	0.016480
O39	O	1.288263	0.422675	0.349814
O40	O	0.548749	-0.244000	-0.244010
O41	O	0.882082	0.089333	0.089323
O42	O	1.215416	0.422666	0.422656
O43	O	0.676818	-0.188811	-0.316885
O44	O	1.010151	0.144522	0.016449
O45	O	1.343484	0.477855	0.349782
O46	O	0.676699	-0.316843	-0.188819
O47	O	1.010032	0.016490	0.144514
O48	O	1.343365	0.349823	0.477847
O49	O	0.621529	-0.316833	-0.243993
O50	O	0.954862	0.016500	0.089341
O51	O	1.288196	0.349833	0.422674
C52	C	0.532461	-0.216413	-0.216428
C53	C	0.865794	0.116920	0.116905
C54	C	1.199127	0.450254	0.450239
C55	C	0.482526	-0.216422	-0.216430
C56	C	0.815860	0.116911	0.116903
C57	C	1.149193	0.450244	0.450236
C58	C	0.172907	-0.187722	-0.245235
C59	C	0.506240	0.145611	0.088099
C60	C	0.839573	0.478944	0.421432
C61	C	-0.014766	-0.187725	-0.245247
C62	C	0.318567	0.145608	0.088086
C63	C	0.651900	0.478941	0.421419
O64	O	-0.039011	-0.163313	-0.269717
O65	O	0.294322	0.170020	0.063617
O66	O	0.627656	0.503354	0.396950
N67	N	-0.038259	-0.216417	-0.216464
N68	N	0.295075	0.116916	0.116870
N69	N	0.628408	0.450250	0.450203
C70	C	-0.014830	-0.245108	-0.187672
C71	C	0.318503	0.088226	0.145661
C72	C	0.651837	0.421559	0.478994
O73	O	-0.039118	-0.269509	-0.163187
O74	O	0.294215	0.063825	0.170147
O75	O	0.627549	0.397158	0.503480
C76	C	0.172842	-0.245102	-0.187658
C77	C	0.506176	0.088231	0.145676
C78	C	0.839509	0.421565	0.479009
C79	C	0.196332	-0.216412	-0.216447
C80	C	0.529665	0.116922	0.116887
C81	C	0.862999	0.450255	0.450220
C82	C	0.196397	-0.159034	-0.274021
C83	C	0.529730	0.174299	0.059312
C84	C	0.863063	0.507633	0.392646
C85	C	0.243312	-0.159035	-0.274019
C86	C	0.576645	0.174298	0.059314
C87	C	0.909979	0.507632	0.392647
C88	C	0.266738	-0.187725	-0.245231
C89	C	0.600071	0.145609	0.088102
C90	C	0.933404	0.478942	0.421435
C91	C	0.243248	-0.216413	-0.216445
C92	C	0.576581	0.116920	0.116888
C93	C	0.909914	0.450254	0.450222
C94	C	0.196270	-0.273790	-0.158864
C95	C	0.529603	0.059543	0.174469
C96	C	0.862937	0.392876	0.507802
C97	C	0.243191	-0.273785	-0.158862
C98	C	0.576524	0.059548	0.174471
C99	C	0.909858	0.392881	0.507804
C100	C	0.266681	-0.245095	-0.187651
C101	C	0.600014	0.088238	0.145682
C102	C	0.933348	0.421571	0.479015
C103	C	0.313589	-0.245104	-0.187655
C104	C	0.646922	0.088230	0.145678
C105	C	0.980255	0.421563	0.479012
N106	N	0.337081	-0.216412	-0.216439
N107	N	0.670414	0.116921	0.116894
N108	N	1.003748	0.450255	0.450228
C109	C	0.313655	-0.187723	-0.245227
C110	C	0.646989	0.145611	0.088106
C111	C	0.980322	0.478944	0.421440
C112	C	-0.113361	-0.245109	-0.187683
C113	C	0.219973	0.088224	0.145651
C114	C	0.553306	0.421557	0.478984
C115	C	-0.160278	-0.245111	-0.187687
C116	C	0.173055	0.088222	0.145647
C117	C	0.506388	0.421555	0.478980
C118	C	-0.160212	-0.187728	-0.245262
C119	C	0.173122	0.145605	0.088072
C120	C	0.506455	0.478938	0.421405
C121	C	-0.113293	-0.187729	-0.245259
C122	C	0.220040	0.145605	0.088074
C123	C	0.553374	0.478938	0.421407
C124	C	-0.089868	-0.216418	-0.216467
C125	C	0.243465	0.116916	0.116867
C126	C	0.576798	0.450249	0.450200
C127	C	0.412181	-0.187728	-0.245221
C128	C	0.745515	0.145606	0.088112
C129	C	1.078848	0.478939	0.421445
C130	C	0.459101	-0.187733	-0.245218
C131	C	0.792434	0.145601	0.088115
C132	C	1.125768	0.478934	0.421448
C133	C	0.459030	-0.245114	-0.187642
C134	C	0.792363	0.088219	0.145691
C135	C	1.125697	0.421553	0.479024
C136	C	0.412114	-0.245111	-0.187647
C137	C	0.745448	0.088222	0.145687
C138	C	1.078781	0.421556	0.479020
C139	C	0.388691	-0.216414	-0.216438
C140	C	0.722025	0.116919	0.116896
C141	C	1.055358	0.450253	0.450229
O142	O	0.337862	-0.269500	-0.163195
O143	O	0.671195	0.063834	0.170138
O144	O	1.004529	0.397167	0.503472
O145	O	0.337951	-0.163318	-0.269702
O146	O	0.671285	0.170015	0.063632
O147	O	1.004618	0.503348	0.396965
C148	C	0.125991	-0.187721	-0.245236
C149	C	0.459325	0.145612	0.088097
C150	C	0.792658	0.478946	0.421430
C151	C	0.102501	-0.216409	-0.216450
C152	C	0.435835	0.116924	0.116883
C153	C	0.769168	0.450257	0.450217
C154	C	0.125927	-0.245099	-0.187662
C155	C	0.459260	0.088235	0.145671
C156	C	0.792593	0.421568	0.479005
C157	C	0.055583	-0.216411	-0.216454
C158	C	0.388917	0.116922	0.116879
C159	C	0.722250	0.450255	0.450212
C160	C	0.032158	-0.187722	-0.245242
C161	C	0.365491	0.145612	0.088091
C162	C	0.698825	0.478945	0.421424
C163	C	0.055650	-0.159030	-0.274026
C164	C	0.388984	0.174303	0.059307
C165	C	0.722317	0.507637	0.392640
C166	C	0.102566	-0.159031	-0.274025
C167	C	0.435899	0.174302	0.059309
C168	C	0.769232	0.507635	0.392642
C169	C	0.102434	-0.273790	-0.158878
C170	C	0.435768	0.059543	0.174455
C171	C	0.769101	0.392876	0.507789
C172	C	0.055519	-0.273787	-0.158883
C173	C	0.388852	0.059546	0.174451
C174	C	0.722186	0.392879	0.507784
C175	C	0.032093	-0.245098	-0.187671
C176	C	0.365427	0.088236	0.145663
C177	C	0.698760	0.421569	0.478996
C178	C	0.649115	-0.333139	-0.216409
C179	C	0.982448	0.000194	0.116924
C180	C	1.315781	0.333528	0.450257
C181	C	0.649127	-0.383073	-0.216408
C182	C	0.982460	-0.049740	0.116925
C183	C	1.315793	0.283593	0.450259
C184	C	0.677917	-0.692679	-0.245226
C185	C	1.011251	-0.359345	0.088107
C186	C	1.344584	-0.026012	0.421440
C187	C	0.677966	-0.880352	-0.245253
C188	C	1.011300	-0.547018	0.088080
C189	C	1.344633	-0.213685	0.421413
O190	O	0.702378	-0.904584	-0.269728
O191	O	1.035711	-0.571251	0.063606
O192	O	1.369045	-0.237917	0.396939
N193	N	0.649260	-0.903858	-0.216497
N194	N	0.982593	-0.570525	0.116836
N195	N	1.315926	-0.237192	0.450170
C196	C	0.620537	-0.880444	-0.187734
C197	C	0.953870	-0.547111	0.145600
C198	C	1.287203	-0.213777	0.478933
O199	O	0.596118	-0.904744	-0.163279
O200	O	0.929451	-0.571411	0.170055
O201	O	1.262785	-0.238078	0.503388
C202	C	0.620486	-0.692772	-0.187709
C203	C	0.953819	-0.359439	0.145624
C204	C	1.287153	-0.026105	0.478957
C205	C	0.649198	-0.669268	-0.216464
C206	C	0.982531	-0.335934	0.116869
C207	C	1.315864	-0.002601	0.450202
C208	C	0.706626	-0.669174	-0.273979
C209	C	1.039960	-0.335841	0.059354
C210	C	1.373293	-0.002508	0.392687
C211	C	0.706616	-0.622259	-0.273971
C212	C	1.039949	-0.288925	0.059363
C213	C	1.373282	0.044408	0.392696
C214	C	0.677896	-0.598848	-0.245209
C215	C	1.011229	-0.265514	0.088124
C216	C	1.344563	0.067819	0.421458
C217	C	0.649187	-0.622352	-0.216456
C218	C	0.982520	-0.289019	0.116878
C219	C	1.315854	0.044315	0.450211
C220	C	0.591761	-0.669359	-0.158949
C221	C	0.925095	-0.336025	0.174385
C222	C	1.258428	-0.002692	0.507718
C223	C	0.591750	-0.622438	-0.158946
C224	C	0.925084	-0.289104	0.174387
C225	C	1.258417	0.044229	0.507721
C226	C	0.620462	-0.598933	-0.187701
C227	C	0.953795	-0.265600	0.145632
C228	C	1.287129	0.067734	0.478965
C229	C	0.620456	-0.552026	-0.187685
C230	C	0.953790	-0.218692	0.145648
C231	C	1.287123	0.114641	0.478982
N232	N	0.649163	-0.528519	-0.216442
N233	N	0.982496	-0.195186	0.116892
N234	N	1.315830	0.138148	0.450225
C235	C	0.677883	-0.551930	-0.245203
C236	C	1.011216	-0.218597	0.088130
C237	C	1.344549	0.114737	0.421463
C238	C	0.620566	-0.978975	-0.187748
C239	C	0.953899	-0.645641	0.145585
C240	C	1.287233	-0.312308	0.478919
C241	C	0.620579	-1.025893	-0.187753
C242	C	0.953912	-0.692559	0.145580
C243	C	1.287246	-0.359226	0.478913
C244	C	0.678008	-1.025797	-0.245274
C245	C	1.011341	-0.692464	0.088060
C246	C	1.344675	-0.359130	0.421393
C247	C	0.677997	-0.978878	-0.245266
C248	C	1.011330	-0.645545	0.088068
C249	C	1.344664	-0.312211	0.421401
C250	C	0.649273	-0.955468	-0.216504
C251	C	0.982606	-0.622135	0.116829
C252	C	1.315939	-0.288801	0.450162
C253	C	0.677858	-0.453404	-0.245183
C254	C	1.011192	-0.120071	0.088151
C255	C	1.344525	0.213263	0.421484
C256	C	0.677846	-0.406484	-0.245170
C257	C	1.011180	-0.073151	0.088163
C258	C	1.344513	0.260182	0.421497
C259	C	0.620416	-0.406584	-0.187651
C260	C	0.953749	-0.073251	0.145682
C261	C	1.287083	0.260082	0.479015
C262	C	0.620429	-0.453500	-0.187662
C263	C	0.953763	-0.120166	0.145671
C264	C	1.287096	0.213167	0.479004
C265	C	0.649152	-0.476909	-0.216431
C266	C	0.982485	-0.143575	0.116902
C267	C	1.315819	0.189758	0.450235
O268	O	0.596054	-0.527764	-0.163227
O269	O	0.929387	-0.194431	0.170106
O270	O	1.262720	0.138902	0.503439
O271	O	0.702291	-0.527622	-0.269662
O272	O	1.035624	-0.194288	0.063671
O273	O	1.368958	0.139045	0.397005
C274	C	0.677928	-0.739594	-0.245235
C275	C	1.011262	-0.406261	0.088098
C276	C	1.344595	-0.072927	0.421432
C277	C	0.649219	-0.763098	-0.216482
C278	C	0.982553	-0.429765	0.116851
C279	C	1.315886	-0.096432	0.450185
C280	C	0.620499	-0.739687	-0.187720
C281	C	0.953833	-0.406354	0.145613
C282	C	1.287166	-0.073021	0.478947
C283	C	0.649232	-0.810016	-0.216487
C284	C	0.982566	-0.476683	0.116846
C285	C	1.315899	-0.143350	0.450179
C286	C	0.677952	-0.833427	-0.245249
C287	C	1.011285	-0.500094	0.088084
C288	C	1.344619	-0.166761	0.421417
C289	C	0.706659	-0.809921	-0.274006
C290	C	1.039992	-0.476587	0.059328
C291	C	1.373325	-0.143254	0.392661
C292	C	0.706648	-0.763005	-0.273997
C293	C	1.039981	-0.429672	0.059336
C294	C	1.373315	-0.096338	0.392670
C295	C	0.591793	-0.763194	-0.158964
C296	C	0.925126	-0.429861	0.174370
C297	C	1.258460	-0.096528	0.507703
C298	C	0.591806	-0.810110	-0.158974
C299	C	0.925140	-0.476776	0.174359
C300	C	1.258473	-0.143443	0.507692
C301	C	0.620526	-0.833521	-0.187736
C302	C	0.953859	-0.500187	0.145597
C303	C	1.287193	-0.166854	0.478930
C304	C	0.766362	-0.216420	-0.216467
C305	C	1.099695	0.116913	0.116867
C306	C	1.433028	0.450246	0.450200
C307	C	0.816296	-0.216422	-0.216475
C308	C	1.149629	0.116912	0.116858
C309	C	1.482963	0.450245	0.450192
C310	C	0.649211	-0.216399	-0.333625
C311	C	0.982544	0.116934	-0.000292
C312	C	1.315878	0.450267	0.333041
C313	C	0.649223	-0.216392	-0.383560
C314	C	0.982556	0.116941	-0.050227
C315	C	1.315890	0.450275	0.283107
C316	C	0.649264	-0.099238	-0.216495
C317	C	0.982598	0.234095	0.116838
C318	C	1.315931	0.567429	0.450172
C319	C	0.649299	-0.049304	-0.216515
C320	C	0.982632	0.284030	0.116818
C321	C	1.315966	0.617363	0.450151
C322	C	0.620518	-0.187612	-0.693213
C323	C	0.953852	0.145721	-0.359880
C324	C	1.287185	0.479054	-0.026547
C325	C	0.620531	-0.187581	-0.880886
C326	C	0.953864	0.145752	-0.547553
C327	C	1.287198	0.479085	-0.214220
O328	O	0.596103	-0.163157	-0.905160
O329	O	0.929436	0.170177	-0.571826
O330	O	1.262769	0.503510	-0.238493
N331	N	0.649244	-0.216308	-0.904345
N332	N	0.982578	0.117026	-0.571012
N333	N	1.315911	0.450359	-0.237679
C334	C	0.677954	-0.245046	-0.880883
C335	C	1.011288	0.088287	-0.547550
C336	C	1.344621	0.421621	-0.214216
O337	O	0.702374	-0.269482	-0.905142
O338	O	1.035707	0.063851	-0.571809
O339	O	1.369040	0.397185	-0.238476
C340	C	0.677939	-0.245079	-0.693211
C341	C	1.011272	0.088254	-0.359877
C342	C	1.344606	0.421588	-0.026544
C343	C	0.649227	-0.216348	-0.669754
C344	C	0.982560	0.116986	-0.336421
C345	C	1.315894	0.450319	-0.003088
C346	C	0.591808	-0.158884	-0.669757
C347	C	0.925142	0.174450	-0.336423
C348	C	1.258475	0.507783	-0.003090
C349	C	0.591807	-0.158890	-0.622841
C350	C	0.925140	0.174443	-0.289508
C351	C	1.258474	0.507777	0.043825
C352	C	0.620516	-0.187625	-0.599382
C353	C	0.953849	0.145708	-0.266049
C354	C	1.287183	0.479042	0.067284
C355	C	0.649226	-0.216354	-0.622839
C356	C	0.982559	0.116979	-0.289505
C357	C	1.315893	0.450313	0.043828
C358	C	0.706647	-0.273819	-0.669749
C359	C	1.039980	0.059514	-0.336416
C360	C	1.373313	0.392847	-0.003082
C361	C	0.706639	-0.273826	-0.622828
C362	C	1.039973	0.059508	-0.289495
C363	C	1.373306	0.392841	0.043839
C364	C	0.677927	-0.245094	-0.599372
C365	C	1.011261	0.088239	-0.266038
C366	C	1.344594	0.421572	0.067295
C367	C	0.677934	-0.245095	-0.552464
C368	C	1.011267	0.088238	-0.219131
C369	C	1.344600	0.421571	0.114202
N370	N	0.649220	-0.216369	-0.529005
N371	N	0.982554	0.116964	-0.195672
N372	N	1.315887	0.450298	0.137661
C373	C	0.620511	-0.187634	-0.552464
C374	C	0.953845	0.145699	-0.219131
C375	C	1.287178	0.479033	0.114202
C376	C	0.677961	-0.245026	-0.979414
C377	C	1.011294	0.088308	-0.646080
C378	C	1.344628	0.421641	-0.312747
C379	C	0.677966	-0.245017	-1.026331
C380	C	1.011299	0.088316	-0.692998
C381	C	1.344632	0.421650	-0.359665
C382	C	0.620541	-0.187553	-1.026332
C383	C	0.953875	0.145780	-0.692998
C384	C	1.287208	0.479114	-0.359665
C385	C	0.620540	-0.187560	-0.979413
C386	C	0.953873	0.145774	-0.646080
C387	C	1.287206	0.479107	-0.312746
C388	C	0.649248	-0.216299	-0.955955
C389	C	0.982581	0.117034	-0.622621
C390	C	1.315914	0.450367	-0.289288
C391	C	0.620511	-0.187649	-0.453939
C392	C	0.953845	0.145684	-0.120605
C393	C	1.287178	0.479018	0.212728
C394	C	0.620514	-0.187657	-0.407019
C395	C	0.953848	0.145677	-0.073686
C396	C	1.287181	0.479010	0.259648
C397	C	0.677936	-0.245122	-0.407023
C398	C	1.011270	0.088211	-0.073689
C399	C	1.344603	0.421544	0.259644
C400	C	0.677936	-0.245113	-0.453938
C401	C	1.011269	0.088220	-0.120605
C402	C	1.344602	0.421553	0.212728
C403	C	0.649219	-0.216375	-0.477395
C404	C	0.982553	0.116958	-0.144062
C405	C	1.315886	0.450291	0.189272
O406	O	0.702345	-0.269511	-0.528162
O407	O	1.035679	0.063823	-0.194829
O408	O	1.369012	0.397156	0.138505
O409	O	0.596089	-0.163209	-0.528197
O410	O	0.929422	0.170125	-0.194864
O411	O	1.262755	0.503458	0.138470
C412	C	0.620519	-0.187606	-0.740129
C413	C	0.953853	0.145727	-0.406795
C414	C	1.287186	0.479061	-0.073462
C415	C	0.649229	-0.216335	-0.763585
C416	C	0.982563	0.116999	-0.430252
C417	C	1.315896	0.450332	-0.096918
C418	C	0.677938	-0.245070	-0.740126
C419	C	1.011272	0.088263	-0.406793
C420	C	1.344605	0.421597	-0.073459
C421	C	0.649234	-0.216326	-0.810503
C422	C	0.982567	0.117007	-0.477170
C423	C	1.315901	0.450341	-0.143836
C424	C	0.620525	-0.187591	-0.833962
C425	C	0.953858	0.145742	-0.500629
C426	C	1.287192	0.479076	-0.167295
C427	C	0.591812	-0.158865	-0.810503
C428	C	0.925145	0.174469	-0.477170
C429	C	1.258478	0.507802	-0.143837
C430	C	0.591811	-0.158871	-0.763588
C431	C	0.925144	0.174462	-0.430254
C432	C	1.258477	0.507796	-0.096921
C433	C	0.706652	-0.273796	-0.763585
C434	C	1.039985	0.059537	-0.430252
C435	C	1.373318	0.392870	-0.096918
C436	C	0.706651	-0.273787	-0.810500
C437	C	1.039984	0.059546	-0.477167
C438	C	1.373317	0.392879	-0.143834
C439	C	0.677942	-0.245052	-0.833959
C440	C	1.011275	0.088281	-0.500626
C441	C	1.344609	0.421615	-0.167293
C442	C	0.649181	-0.216401	-0.099725
C443	C	0.982515	0.116932	0.233609
C444	C	1.315848	0.450265	0.566942
C445	C	0.649257	-0.216282	-0.049790
C446	C	0.982590	0.117051	0.283543
C447	C	1.315923	0.450385	0.616876
H448	H	0.478111	-0.268473	-0.164205
H449	H	0.811445	0.064860	0.169129
H450	H	1.144778	0.398193	0.502462
C451	C	0.709523	-0.276717	-0.479741
C452	C	1.042856	0.056617	-0.146408
C453	C	1.376189	0.389950	0.186926
N454	N	0.733311	-0.300524	-0.499173
N455	N	1.066645	0.032809	-0.165839
N456	N	1.399978	0.366143	0.167494
C457	C	0.738250	-0.835682	-0.305645
C458	C	1.071583	-0.502348	0.027689
C459	C	1.404917	-0.169015	0.361022
N460	N	0.762041	-0.855087	-0.329476
N461	N	1.095374	-0.521754	0.003858
N462	N	1.428708	-0.188421	0.337191
C463	C	0.029685	-0.305349	-0.127208
C464	C	0.363019	0.027984	0.206125
C465	C	0.696352	0.361317	0.539458
N466	N	0.010229	-0.329118	-0.103348
N467	N	0.343562	0.004216	0.229985
N468	N	0.676896	0.337549	0.563318
C469	C	0.588998	-1.051742	-0.156117
C470	C	0.922331	-0.718409	0.177216
C471	C	1.255664	-0.385075	0.510550
N472	N	0.565207	-1.071210	-0.132289
N473	N	0.898540	-0.737877	0.201044
N474	N	1.231874	-0.404544	0.534377
H475	H	0.568405	-0.744137	-0.135543
H476	H	0.901739	-0.410803	0.197791
H477	H	1.235072	-0.077470	0.531124
H478	H	0.701244	-0.472458	-0.268612
H479	H	1.034577	-0.139125	0.064721
H480	H	1.367911	0.194209	0.398054
C481	C	0.588960	-0.953229	-0.156111
C482	C	0.922294	-0.619896	0.177223
C483	C	1.255627	-0.286563	0.510556
N484	N	0.565154	-0.933840	-0.132282
N485	N	0.898487	-0.600507	0.201051
N486	N	1.231820	-0.267173	0.534385
C487	C	-0.186112	-0.276675	-0.156019
C488	C	0.147221	0.056658	0.177314
C489	C	0.480555	0.389991	0.510648
N490	N	-0.205568	-0.300448	-0.132163
N491	N	0.127765	0.032886	0.201171
N492	N	0.461098	0.366219	0.534504
C493	C	0.588925	-0.156033	-0.479734
C494	C	0.922258	0.177300	-0.146401
C495	C	1.255592	0.510634	0.186933
N496	N	0.565137	-0.132217	-0.499163
N497	N	0.898470	0.201116	-0.165830
N498	N	1.231804	0.534450	0.167504
H499	H	0.730036	-0.297183	-0.829595
H500	H	1.063369	0.036150	-0.496261
H501	H	1.396702	0.369484	-0.162928
C502	C	0.560222	-0.127266	-0.737792
C503	C	0.893556	0.206067	-0.404459
C504	C	1.226889	0.539400	-0.071125
N505	N	0.536427	-0.103461	-0.718365
N506	N	0.869761	0.229872	-0.385032
N507	N	1.203094	0.563206	-0.051699
H508	H	0.701312	-0.268516	-0.387914
H509	H	1.034645	0.064817	-0.054581
H510	H	1.367978	0.398150	0.278753
C511	C	0.588848	-0.479355	-0.156028
C512	C	0.922181	-0.146022	0.177305
C513	C	1.255514	0.187311	0.510639
N514	N	0.565057	-0.498827	-0.132203
N515	N	0.898390	-0.165493	0.201130
N516	N	1.231723	0.167840	0.534463
H517	H	0.701228	-0.387349	-0.268586
H518	H	1.034562	-0.054015	0.064748
H519	H	1.367895	0.279318	0.398081
H520	H	0.597167	-0.164155	-1.045440
H521	H	0.930500	0.169179	-0.712107
H522	H	1.263833	0.502512	-0.378773
C523	C	0.128399	-0.127466	-0.305692
C524	C	0.461732	0.205867	0.027642
C525	C	0.795065	0.539201	0.360975
N526	N	0.147853	-0.103688	-0.329543
N527	N	0.481186	0.229646	0.003790
N528	N	0.814520	0.562979	0.337123
C529	C	0.128196	-0.305355	-0.127209
C530	C	0.461529	0.027979	0.206125
C531	C	0.794863	0.361312	0.539458
N532	N	0.147598	-0.329133	-0.103355
N533	N	0.480931	0.004201	0.229978
N534	N	0.814264	0.337534	0.563312
H535	H	0.730029	-0.297198	-0.744489
H536	H	1.063362	0.036135	-0.411156
H537	H	1.396695	0.369469	-0.077823
C538	C	0.484937	-0.156168	-0.276888
C539	C	0.818270	0.177166	0.056446
C540	C	1.151604	0.510499	0.389779
N541	N	0.504395	-0.132392	-0.300739
N542	N	0.837729	0.200941	0.032594
N543	N	1.171062	0.534274	0.365927
C544	C	0.386423	-0.156162	-0.276896
C545	C	0.719756	0.177171	0.056438
C546	C	1.053089	0.510504	0.389771
N547	N	0.367021	-0.132390	-0.300755
N548	N	0.700355	0.200944	0.032578
N549	N	1.033688	0.534277	0.365911
C550	C	0.029873	-0.127468	-0.305690
C551	C	0.363207	0.205866	0.027644
C552	C	0.696540	0.539199	0.360977
N553	N	0.010456	-0.103693	-0.329534
N554	N	0.343789	0.229640	0.003799
N555	N	0.677122	0.562973	0.337133
C556	C	0.709580	-0.953028	-0.276900
C557	C	1.042913	-0.619694	0.056433
C558	C	1.376247	-0.286361	0.389767
N559	N	0.733369	-0.933559	-0.300729
N560	N	1.066702	-0.600226	0.032604
N561	N	1.400035	-0.266893	0.365937
H562	H	0.568438	-0.135466	-0.829612
H563	H	0.901771	0.197868	-0.496278
H564	H	1.235104	0.531201	-0.162945
C565	C	0.269145	-0.127467	-0.305684
C566	C	0.602478	0.205866	0.027650
C567	C	0.935812	0.539200	0.360983
N568	N	0.288599	-0.103686	-0.329533
N569	N	0.621933	0.229647	0.003801
N570	N	0.955266	0.562981	0.337134
H571	H	0.177329	-0.135669	-0.297464
H572	H	0.510662	0.197664	0.035869
H573	H	0.843995	0.530998	0.369203
C574	C	0.738203	-0.596410	-0.305602
C575	C	1.071536	-0.263077	0.027731
C576	C	1.404869	0.070257	0.361064
N577	N	0.761996	-0.576944	-0.329429
N578	N	1.095329	-0.243610	0.003905
N579	N	1.428663	0.089723	0.337238
C580	C	0.738227	-0.694919	-0.305619
C581	C	1.071560	-0.361586	0.027714
C582	C	1.404894	-0.028252	0.361048
N583	N	0.762034	-0.714307	-0.329448
N584	N	1.095368	-0.380973	0.003885
N585	N	1.428701	-0.047640	0.337218
H586	H	0.701393	-1.044866	-0.268692
H587	H	1.034727	-0.711533	0.064641
H588	H	1.368060	-0.378199	0.397974
C589	C	-0.087458	-0.156164	-0.276926
C590	C	0.245875	0.177169	0.056408
C591	C	0.579208	0.510502	0.389741
N592	N	-0.068002	-0.132387	-0.300777
N593	N	0.265331	0.200946	0.032556
N594	N	0.598665	0.534280	0.365890
H595	H	0.597034	-0.387516	-0.164232
H596	H	0.930367	-0.054182	0.169101
H597	H	1.263701	0.279151	0.502434
H598	H	0.177153	-0.297153	-0.135421
H599	H	0.510486	0.036181	0.197913
H600	H	0.843819	0.369514	0.531246
H601	H	0.701351	-0.268408	-1.045426
H602	H	1.034684	0.064925	-0.712092
H603	H	1.368017	0.398259	-0.378759
C604	C	0.738229	-0.305430	-0.695541
C605	C	1.071563	0.027903	-0.362207
C606	C	1.404896	0.361237	-0.028874
N607	N	0.762018	-0.329242	-0.714966
N608	N	1.095351	0.004091	-0.381633
N609	N	1.428685	0.337424	-0.048299
H610	H	-0.094293	-0.268473	-0.164235
H611	H	0.239041	0.064861	0.169098
H612	H	0.572374	0.398194	0.502432
H613	H	0.701339	-0.268432	-0.960318
H614	H	1.034672	0.064902	-0.626985
H615	H	1.368006	0.398235	-0.293651
C616	C	0.588926	-0.156050	-0.381220
C617	C	0.922260	0.177283	-0.047886
C618	C	1.255593	0.510617	0.285447
N619	N	0.565134	-0.132245	-0.361789
N620	N	0.898467	0.201088	-0.028456
N621	N	1.231800	0.534421	0.304877
H622	H	0.262261	-0.297147	-0.135415
H623	H	0.595594	0.036186	0.197919
H624	H	0.928928	0.369519	0.531252
H625	H	0.568381	-0.688488	-0.135533
H626	H	0.901714	-0.355154	0.197800
H627	H	1.235048	-0.021821	0.531134
H628	H	0.568427	-0.829243	-0.135554
H629	H	0.901760	-0.495910	0.197779
H630	H	1.235093	-0.162576	0.531112
C631	C	-0.185988	-0.156167	-0.276926
C632	C	0.147345	0.177167	0.056407
C633	C	0.480678	0.510500	0.389741
N634	N	-0.205406	-0.132393	-0.300771
N635	N	0.127928	0.200940	0.032562
N636	N	0.461261	0.534274	0.365895
C637	C	0.560151	-0.596689	-0.127305
C638	C	0.893484	-0.263356	0.206028
C639	C	1.226818	0.069977	0.539362
N640	N	0.536351	-0.577297	-0.103472
N641	N	0.869685	-0.243963	0.229862
N642	N	1.203018	0.089370	0.563195
H643	H	0.568425	-0.135496	-0.603747
H644	H	0.901758	0.197838	-0.270414
H645	H	1.235092	0.531171	0.062919
C646	C	0.588952	-0.155956	-0.953615
C647	C	0.922285	0.177377	-0.620282
C648	C	1.255618	0.510710	-0.286949
N649	N	0.565157	-0.132152	-0.934187
N650	N	0.898490	0.201181	-0.600853
N651	N	1.231823	0.534514	-0.267520
C652	C	0.738224	-0.305440	-0.597027
C653	C	1.071558	0.027893	-0.263694
C654	C	1.404891	0.361227	0.069640
N655	N	0.762016	-0.329250	-0.577594
N656	N	1.095349	0.004084	-0.244261
N657	N	1.428682	0.337417	0.089072
H658	H	0.568428	-0.135484	-0.688852
H659	H	0.901761	0.197850	-0.355519
H660	H	1.235094	0.531183	-0.022186
C661	C	0.386275	-0.276675	-0.155981
C662	C	0.719608	0.056658	0.177352
C663	C	1.052941	0.389991	0.510685
N664	N	0.366815	-0.300448	-0.132128
N665	N	0.700149	0.032886	0.201206
N666	N	1.033482	0.366219	0.534539
H667	H	0.730028	-0.743871	-0.297412
H668	H	1.063361	-0.410538	0.035921
H669	H	1.396694	-0.077205	0.369254
