data_functionalizedCrystal
_audit_creation_method	'MofGen! by Chris Wilmer'
_symmetry_space_group_name_H-M	'P1'
_symmetry_Int_Tables_number	1
_symmetry_cell_setting	triclinic
loop_
_symmetry_equiv_pos_as_xyz
  x,y,z
_cell_length_a	10.654541
_cell_length_b	19.188924
_cell_length_c	9.130307
_cell_angle_alpha	89.994651
_cell_angle_beta	89.999822
_cell_angle_gamma	83.812946
loop_
_atom_site_label
_atom_site_type_symbol
_atom_site_fract_x
_atom_site_fract_y
_atom_site_fract_z
O1	O	1.665760	0.098053	-0.121762
O2	O	1.300082	0.107398	-0.121776
O3	O	1.493478	0.001138	-0.121751
O4	O	1.472364	0.204312	-0.121786
O5	O	1.493472	0.001137	0.121848
O6	O	1.300076	0.107396	0.121823
O7	O	1.665753	0.098052	0.121837
Cu8	Cu	1.482914	0.102724	0.144073
Cu9	Cu	1.482921	0.102725	-0.144011
O10	O	1.472357	0.204311	0.121813
C11	C	1.253296	0.106711	0.000022
C12	C	1.113896	0.104660	0.000018
C13	C	1.492793	-0.024878	0.000050
C14	C	1.490744	-0.102396	0.000054
C15	C	1.083230	0.231721	-0.000022
C16	C	1.002410	0.294285	-0.000048
C17	C	0.871433	0.292353	-0.000049
C18	C	0.821275	0.227850	-0.000020
C19	C	0.902096	0.165286	0.000006
C20	C	1.033074	0.167225	0.000002
C21	C	0.932761	0.038226	0.000057
C22	C	1.063738	0.040156	0.000047
C23	C	0.882603	-0.026277	0.000086
C24	C	0.963425	-0.088843	0.000101
C25	C	1.094409	-0.086908	0.000101
C26	C	1.144559	-0.022408	0.000073
C27	C	1.489792	-0.138801	-0.132733
C28	C	1.487850	-0.211636	-0.132744
C29	C	1.486885	-0.248066	0.000039
C30	C	1.487831	-0.211652	0.132842
C31	C	1.489760	-0.138817	0.132850
N32	N	1.555315	-0.367282	0.098868
N33	N	1.553485	-0.436472	0.098852
C34	C	1.481068	-0.467513	0.000024
N35	N	1.410567	-0.426750	-0.098809
N36	N	1.412403	-0.357554	-0.098797
C37	C	1.484792	-0.327043	0.000045
C38	C	1.478008	-0.582894	-0.132783
C39	C	1.476058	-0.655730	-0.132789
C40	C	1.476051	-0.655745	0.132801
C41	C	1.477989	-0.582910	0.132803
C42	C	1.478973	-0.546489	0.000007
C43	C	1.712540	0.098738	0.000036
C44	C	1.851940	0.100790	0.000031
C45	C	1.473043	0.230327	0.000009
C46	C	1.475091	0.307845	-0.000005
N47	N	1.482918	0.102723	0.346696
N48	N	1.482928	0.102721	-0.346634
C49	C	1.654239	0.008658	0.346707
C50	C	1.739908	-0.038372	0.423380
C51	C	1.739921	-0.038373	0.576713
C52	C	1.654253	0.008661	0.653378
C53	C	1.568584	0.055691	0.576705
C54	C	1.568583	0.055688	0.423368
C55	C	1.397259	0.149752	0.576693
C56	C	1.397250	0.149757	0.423360
C57	C	1.311591	0.196785	0.653358
C58	C	1.225926	0.243820	0.576685
C59	C	1.225918	0.243819	0.423343
C60	C	1.311581	0.196787	0.346687
H61	H	1.043262	0.346803	-0.000068
N62	N	1.490811	-0.099551	0.276078
H63	H	1.492187	-0.047884	0.255933
H64	H	1.412641	-0.106996	0.334065
H65	H	1.487042	-0.241317	0.240955
N66	N	0.680009	0.225764	0.000021
H67	H	0.636420	0.275185	0.000015
H68	H	0.654567	0.200321	-0.090268
H69	H	1.311587	0.196784	0.221835
N70	N	1.311602	0.196793	0.818738
H71	H	1.226349	0.186190	0.855687
H72	H	1.378930	0.159871	0.855563
N73	N	0.741337	-0.028365	0.000114
H74	H	0.697746	0.021055	0.000095
H75	H	0.715907	-0.053812	-0.090175
N76	N	1.479064	-0.543604	-0.276003
H77	H	1.478156	-0.577721	-0.360128
H78	H	1.402038	-0.508096	-0.281787
N79	N	1.479039	-0.543646	0.276030
H80	H	1.557670	-0.518713	0.281950
H81	H	1.401960	-0.508178	0.281869
N82	N	1.490887	-0.099523	-0.275959
H83	H	1.492273	-0.047858	-0.255811
H84	H	1.568403	-0.117549	-0.333896
H85	H	1.487066	-0.241282	-0.240878
N86	N	1.475135	-0.695006	-0.276015
H87	H	1.476092	-0.660881	-0.360133
H88	H	1.552202	-0.730489	-0.281696
H89	H	1.251206	-0.020826	0.000056
N90	N	1.475018	-0.695024	0.276025
H91	H	1.397524	-0.677066	0.334076
H92	H	1.473698	-0.746680	0.255758
H93	H	1.654248	0.008659	0.221855
H94	H	1.189877	0.233301	-0.000054
H95	H	1.809656	-0.076668	0.360946
H96	H	1.156176	0.282109	0.639115
N97	N	1.832315	-0.089097	0.659421
H98	H	1.886583	-0.118893	0.587595
H99	H	1.887672	-0.062072	0.723025
N100	N	1.133507	0.294540	0.340649
H101	H	1.079242	0.324331	0.412487
H102	H	1.181389	0.325661	0.277019
N103	N	0.784253	0.359830	-0.000043
H104	H	0.835895	0.400986	-0.000049
H105	H	0.729234	0.361797	-0.090342
H106	H	0.922575	-0.141356	0.000124
H107	H	1.160208	-0.137856	0.000127
H108	H	1.654258	0.008652	0.778230
