data_functionalizedCrystal
_audit_creation_method	'MofGen! by Chris Wilmer'
_symmetry_space_group_name_H-M	'P1'
_symmetry_Int_Tables_number	1
_symmetry_cell_setting	triclinic
loop_
_symmetry_equiv_pos_as_xyz
  x,y,z
_cell_length_a	14.519731
_cell_length_b	17.019294
_cell_length_c	13.596369
_cell_angle_alpha	86.115041
_cell_angle_beta	89.994584
_cell_angle_gamma	83.541199
loop_
_atom_site_label
_atom_site_type_symbol
_atom_site_fract_x
_atom_site_fract_y
_atom_site_fract_z
O1	O	1.223521	0.103487	-0.090557
O2	O	0.955007	0.115647	-0.091588
O3	O	1.096754	-0.005255	-0.081343
O4	O	1.081774	0.224389	-0.100802
O5	O	1.096740	-0.005261	0.082241
O6	O	0.954993	0.115640	0.071995
O7	O	1.223507	0.103481	0.073027
Zn8	Zn	1.089248	0.109560	0.098483
Zn9	Zn	1.089266	0.109568	-0.117045
O10	O	1.081759	0.224382	0.062781
C11	C	0.920643	0.115074	-0.009748
C12	C	0.818268	0.113367	-0.009604
C13	C	0.735128	0.111979	-0.009490
C14	C	0.630825	0.110246	-0.009344
C15	C	0.547690	0.108870	-0.009227
C16	C	0.443381	0.107137	-0.009083
C17	C	1.096179	-0.034648	0.002937
C18	C	1.094475	-0.122221	0.010352
C19	C	1.093684	-0.163355	-0.075334
C20	C	1.092077	-0.245639	-0.068364
C21	C	1.091267	-0.286788	0.024292
C22	C	1.092055	-0.245648	0.109984
C23	C	1.093656	-0.163365	0.103013
C24	C	1.086428	-0.535228	0.049800
C25	C	1.084830	-0.617517	0.056764
C26	C	1.084850	-0.617503	-0.121585
C27	C	1.086456	-0.535219	-0.128547
C28	C	1.087239	-0.494085	-0.042856
C29	C	1.089627	-0.370895	0.031418
C30	C	1.088872	-0.409979	-0.049983
C31	C	1.257871	0.104054	-0.008815
C32	C	1.360246	0.105761	-0.008966
C33	C	1.082335	0.253776	-0.021501
C34	C	1.084039	0.341349	-0.028922
N35	N	1.089242	0.109553	0.245576
N36	N	1.089279	0.109568	-0.264137
C37	C	1.089265	0.109569	0.646865
C38	C	1.089256	0.109567	0.535214
C39	C	1.089254	0.109562	0.446224
C40	C	1.089244	0.109559	0.334566
H41	H	1.094348	-0.129859	-0.150784
O42	O	1.089491	-0.370033	-0.140014
C43	C	1.009287	-0.381341	-0.193318
H44	H	0.953044	-0.397804	-0.139751
H45	H	0.983546	-0.324268	-0.238603
H46	H	1.026416	-0.431093	-0.244704
H47	H	1.087084	-0.501749	0.119576
H48	H	1.084166	-0.651018	0.132219
H49	H	1.091437	-0.279127	-0.138138
O50	O	1.088733	-0.410948	0.121364
C51	C	1.007968	-0.449718	0.130000
H52	H	0.981105	-0.459088	0.053374
H53	H	1.024805	-0.509570	0.172791
H54	H	0.952686	-0.411847	0.170818
O55	O	1.087258	-0.495154	-0.218492
C56	C	1.167926	-0.456260	-0.227206
H57	H	1.223374	-0.487236	-0.174149
H58	H	1.194591	-0.458145	-0.305972
H59	H	1.151046	-0.391949	-0.208544
H60	H	1.091390	-0.279157	0.185426
H61	H	1.094287	-0.129873	0.172787
H62	H	1.084210	-0.651002	-0.191350
