data_functionalizedCrystal
_audit_creation_method	'MofGen! by Chris Wilmer'
_symmetry_space_group_name_H-M	'P1'
_symmetry_Int_Tables_number	1
_symmetry_cell_setting	triclinic
loop_
_symmetry_equiv_pos_as_xyz
  x,y,z
_cell_length_a	9.065215
_cell_length_b	13.596369
_cell_length_c	9.065218
_cell_angle_alpha	90.004126
_cell_angle_beta	85.015291
_cell_angle_gamma	90.004765
loop_
_atom_site_label
_atom_site_type_symbol
_atom_site_fract_x
_atom_site_fract_y
_atom_site_fract_z
O1	O	1.960405	0.081776	0.216339
O2	O	1.531120	0.081780	0.234090
O3	O	1.754636	0.081776	0.010572
O4	O	1.736890	0.081780	0.439857
O5	O	1.754613	-0.081807	0.010560
O6	O	1.531097	-0.081803	0.234078
O7	O	1.960383	-0.081807	0.216327
Zn8	Zn	1.745736	-0.107778	0.225200
Zn9	Zn	1.745766	0.107750	0.225216
O10	O	1.736867	-0.081803	0.439845
C11	C	1.476122	-0.000011	0.232379
C12	C	1.312279	-0.000010	0.227281
N13	N	1.745727	-0.254869	0.225188
C14	C	1.745764	-0.656160	0.225218
C15	C	1.745750	-0.544509	0.225215
C16	C	1.745746	-0.455518	0.225204
C17	C	1.745730	-0.343860	0.225199
C18	C	2.015381	-0.000014	0.218038
C19	C	2.179224	-0.000009	0.223136
C20	C	1.752919	-0.000014	-0.044421
C21	C	1.747819	-0.000010	-0.208264
N22	N	1.745788	0.254842	0.225217
C23	C	1.738584	-0.000011	0.494837
C24	C	1.743683	-0.000009	0.658680
