data_functionalizedCrystal
_audit_creation_method	'MofGen! by Chris Wilmer'
_symmetry_space_group_name_H-M	'P1'
_symmetry_Int_Tables_number	1
_symmetry_cell_setting	triclinic
loop_
_symmetry_equiv_pos_as_xyz
  x,y,z
_cell_length_a	10.967926
_cell_length_b	12.811415
_cell_length_c	10.065908
_cell_angle_alpha	93.481681
_cell_angle_beta	93.119940
_cell_angle_gamma	85.527577
loop_
_atom_site_label
_atom_site_type_symbol
_atom_site_fract_x
_atom_site_fract_y
_atom_site_fract_z
O1	O	1.617246	0.180173	0.244577
O2	O	1.267274	0.183123	0.161898
O3	O	1.448198	0.031613	0.223209
O4	O	1.436321	0.331683	0.183265
O5	O	1.413699	0.060627	0.438492
O6	O	1.232775	0.212137	0.377180
O7	O	1.582747	0.209187	0.459859
Zn8	Zn	1.402283	0.215269	0.452700
Zn9	Zn	1.447737	0.177042	0.169057
O10	O	1.401822	0.360697	0.398548
C11	C	1.205173	0.195223	0.259288
C12	C	1.071529	0.188039	0.228744
C13	C	0.994075	0.199866	0.326649
C14	C	0.855946	0.192441	0.295083
C15	C	1.429225	0.007597	0.335212
C16	C	1.424077	-0.107192	0.348204
C17	C	1.451997	-0.354517	0.137885
C18	C	1.447161	-0.462373	0.150086
C19	C	1.409560	-0.430760	0.384804
C20	C	1.414396	-0.322905	0.372603
C21	C	1.435617	-0.284788	0.249140
C22	C	1.440462	-0.176931	0.236942
C23	C	1.402853	-0.145320	0.471657
C24	C	1.398017	-0.253175	0.483858
C25	C	1.644848	0.197087	0.362466
C26	C	1.778493	0.204270	0.393002
C27	C	1.420795	0.384713	0.286542
C28	C	1.425945	0.499501	0.273542
N29	N	1.371271	0.241358	0.646282
C30	C	1.436935	0.186116	0.736344
C31	C	1.413076	0.206203	0.885413
N32	N	1.478749	0.150953	0.975475
H33	H	1.457744	-0.145899	0.136413
C34	C	1.261377	-0.251815	0.662493
C35	C	1.374695	-0.295084	0.619562
H36	H	1.246981	-0.277693	0.746270
H37	H	1.261924	-0.177610	0.671154
H38	H	1.198372	-0.270812	0.599178
H39	H	1.437701	-0.276080	0.682873
H40	H	1.374158	-0.369305	0.610909
H41	H	1.510811	0.123946	0.703093
C42	C	0.860473	0.075155	0.099783
C43	C	0.807436	0.171350	0.150368
H44	H	0.830517	0.062135	0.010447
H45	H	0.946921	0.077387	0.102010
H46	H	0.839931	0.020703	0.152576
H47	H	0.827986	0.225804	0.097580
H48	H	0.720969	0.169127	0.148131
H49	H	0.814435	0.219890	0.500200
H50	H	1.030024	0.215483	0.433839
C51	C	1.340593	0.388075	0.890120
C52	C	1.313328	0.290130	0.930277
H53	H	1.279008	0.439883	0.917812
H54	H	1.417698	0.405196	0.929479
H55	H	1.343543	0.385573	0.795829
H56	H	1.310387	0.292629	1.024569
H57	H	1.236203	0.273004	0.890922
C58	C	1.053299	0.247235	0.006252
C59	C	1.023016	0.166950	0.084035
H60	H	1.023356	0.234210	-0.083089
H61	H	1.017321	0.312480	0.040584
H62	H	1.139761	0.249449	0.008492
H63	H	0.936553	0.164741	0.081802
H64	H	1.058989	0.101688	0.049693
H65	H	1.469286	-0.323483	0.037359
H66	H	1.297386	0.303519	0.679534
H67	H	1.460494	-0.519144	0.059489
H68	H	1.392274	-0.461814	0.485319
H69	H	1.552630	0.088779	0.942229
C70	C	1.393569	0.034051	0.557183
C71	C	1.384843	-0.068669	0.593959
H72	H	1.382446	0.081370	0.632686
H73	H	1.472024	0.040047	0.524060
H74	H	1.332138	0.050402	0.489876
H75	H	1.446280	-0.085023	0.661259
H76	H	1.306377	-0.074669	0.627102
