data_functionalizedCrystal
_audit_creation_method	'MofGen! by Chris Wilmer'
_symmetry_space_group_name_H-M	'P1'
_symmetry_Int_Tables_number	1
_symmetry_cell_setting	triclinic
loop_
_symmetry_equiv_pos_as_xyz
  x,y,z
_cell_length_a	9.065215
_cell_length_b	12.837932
_cell_length_c	7.540329
_cell_angle_alpha	89.999620
_cell_angle_beta	89.997574
_cell_angle_gamma	89.922200
loop_
_atom_site_label
_atom_site_type_symbol
_atom_site_fract_x
_atom_site_fract_y
_atom_site_fract_z
O1	O	1.978905	0.152182	-0.147449
O2	O	1.551138	0.164669	-0.147456
O3	O	1.755535	0.007434	-0.147454
O4	O	1.774509	0.309417	-0.147451
O5	O	1.755522	0.007432	0.147512
O6	O	1.551125	0.164667	0.147510
O7	O	1.978892	0.152180	0.147516
Cu8	Cu	1.765007	0.158423	0.174446
Cu9	Cu	1.765023	0.158426	-0.174385
O10	O	1.774495	0.309415	0.147515
C11	C	1.495999	0.163469	0.000026
C12	C	1.331720	0.159882	0.000023
C13	C	1.749120	-0.031248	0.000025
C14	C	1.730005	-0.146505	0.000012
C15	C	1.570245	-0.297846	0.000012
C16	C	1.588195	-0.189552	0.000009
C17	C	1.853874	-0.211761	0.000012
C18	C	1.835924	-0.320055	0.000015
C19	C	1.694105	-0.363094	0.000018
C20	C	1.676156	-0.471390	0.000033
C21	C	1.941834	-0.493597	0.000023
C22	C	1.959784	-0.385303	0.000021
C23	C	2.034031	0.153380	0.000031
C24	C	2.198310	0.156967	0.000023
C25	C	1.780911	0.348097	0.000032
C26	C	1.800025	0.463354	0.000033
N27	N	1.765006	0.158421	0.419794
N28	N	1.765035	0.158420	-0.419733
H29	H	1.560680	-0.506430	0.000051
H30	H	1.454770	-0.332889	0.000046
Br31	Br	2.152244	-0.326883	0.000004
H32	H	1.969337	-0.176699	0.000122
Br33	Br	1.420092	-0.101003	-0.000011
H34	H	2.042690	-0.546734	0.000031
