data_functionalizedCrystal
_audit_creation_method	'MofGen! by Chris Wilmer'
_symmetry_space_group_name_H-M	'P1'
_symmetry_Int_Tables_number	1
_symmetry_cell_setting	triclinic
loop_
_symmetry_equiv_pos_as_xyz
  x,y,z
_cell_length_a	6.817900
_cell_length_b	14.858565
_cell_length_c	14.125465
_cell_angle_alpha	95.622353
_cell_angle_beta	100.398878
_cell_angle_gamma	104.523916
loop_
_atom_site_label
_atom_site_type_symbol
_atom_site_fract_x
_atom_site_fract_y
_atom_site_fract_z
V1	V	-3.996465	-0.127870	-0.300243
O2	O	-3.979228	0.006967	-0.294252
O3	O	-3.953312	-0.254336	-0.298455
O4	O	-3.932513	-0.125543	-0.431068
O5	O	-4.000171	-0.122718	-0.160720
V6	V	-4.481428	-0.111785	-0.283523
O7	O	-4.254564	-0.163155	-0.336920
O8	O	-4.673526	-0.076500	-0.246845
O9	O	-4.301374	0.014681	-0.285311
O10	O	-4.616061	-0.246622	-0.289514
O11	O	-4.595118	-0.116937	-0.423045
O12	O	-4.322173	-0.114113	-0.152697
C13	C	-3.800092	-0.285177	-0.293787
C14	C	-3.845993	-0.388562	-0.293197
C15	C	-4.013994	-0.767139	-0.291051
C16	C	-3.967242	-0.661807	-0.291648
C17	C	-3.929994	-0.577854	-0.292123
C18	C	-3.883241	-0.472515	-0.292722
C19	C	-3.773560	-0.120887	-0.462947
C20	C	-3.802591	-0.119821	-0.569899
C21	C	-3.855803	-0.117865	-0.765718
C22	C	-4.041458	-0.121788	-0.818048
C23	C	-4.071068	-0.120700	-0.927008
C24	C	-3.826185	-0.118953	-0.656748
C25	C	-4.117936	0.045517	-0.289976
C26	C	-4.051272	0.148901	-0.290572
C27	C	-4.144468	-0.118771	-0.120814
C28	C	-4.094676	-0.119833	-0.013861
H29	H	-3.719107	-0.113692	-0.802747
H30	H	-4.178170	-0.125973	-0.781018
