data_functionalizedCrystal
_audit_creation_method	'MofGen! by Chris Wilmer'
_symmetry_space_group_name_H-M	'P1'
_symmetry_Int_Tables_number	1
_symmetry_cell_setting	triclinic
loop_
_symmetry_equiv_pos_as_xyz
  x,y,z
_cell_length_a	11.792254
_cell_length_b	11.792254
_cell_length_c	7.540329
_cell_angle_alpha	89.996229
_cell_angle_beta	89.997091
_cell_angle_gamma	84.198598
loop_
_atom_site_label
_atom_site_type_symbol
_atom_site_fract_x
_atom_site_fract_y
_atom_site_fract_z
O1	O	1.506905	0.155634	-0.147482
O2	O	1.176566	0.171652	-0.147486
O3	O	1.349745	-0.001527	-0.147471
O4	O	1.333727	0.328812	-0.147496
O5	O	1.349734	-0.001529	0.147494
O6	O	1.176556	0.171649	0.147479
O7	O	1.506895	0.155632	0.147483
Cu8	Cu	1.341724	0.163640	0.174414
Cu9	Cu	1.341737	0.163643	-0.174416
O10	O	1.333716	0.328810	0.147469
C11	C	1.134271	0.170642	-0.000004
C12	C	1.008257	0.167621	-0.000005
C13	C	1.348730	-0.043818	0.000011
C14	C	1.345710	-0.169832	0.000009
C15	C	0.905921	0.165168	-0.000012
C16	C	0.777534	0.162099	-0.000013
C17	C	1.343256	-0.272168	0.000003
C18	C	1.340188	-0.400555	-0.000014
C19	C	1.549190	0.156642	-0.000003
C20	C	1.675204	0.159662	-0.000013
C21	C	1.334731	0.371102	-0.000017
C22	C	1.337751	0.497115	-0.000027
N23	N	1.341724	0.163638	0.419762
N24	N	1.341746	0.163636	-0.419765
