data_functionalizedCrystal
_audit_creation_method	'MofGen! by Chris Wilmer'
_symmetry_space_group_name_H-M	'P1'
_symmetry_Int_Tables_number	1
_symmetry_cell_setting	triclinic
loop_
_symmetry_equiv_pos_as_xyz
  x,y,z
_cell_length_a	42.784839
_cell_length_b	42.784841
_cell_length_c	42.784893
_cell_angle_alpha	90.002418
_cell_angle_beta	59.997780
_cell_angle_gamma	119.999863
loop_
_atom_site_label
_atom_site_type_symbol
_atom_site_fract_x
_atom_site_fract_y
_atom_site_fract_z
O1	O	0.275695	-0.214412	-0.009300
O2	O	0.211692	-0.168961	0.009253
O3	O	0.275692	-0.168961	-0.054750
O4	O	0.211694	-0.214412	0.054702
O5	O	0.223708	-0.220945	-0.054749
O6	O	0.159708	-0.220945	0.009253
O7	O	0.223710	-0.266397	-0.009300
Cu8	Cu	0.186962	-0.248417	-0.000023
Cu9	Cu	0.248440	-0.186940	-0.000024
O10	O	0.159710	-0.266396	0.054703
C11	C	0.051021	-0.022778	0.028112
C12	C	0.013142	-0.041761	0.028375
C13	C	0.051018	-0.079378	0.028116
C14	C	0.013139	-0.098275	0.028379
C15	C	-0.005578	-0.079377	0.028112
C16	C	0.069652	-0.041762	0.028379
C17	C	0.152948	0.113708	0.017863
C18	C	0.173786	0.152360	0.014965
C19	C	0.155902	0.171750	0.013509
C20	C	0.178499	0.213661	0.010359
C21	C	0.117177	0.152485	0.014953
C22	C	0.096339	0.113835	0.017857
C23	C	0.114226	0.094447	0.019312
C24	C	-0.131813	-0.113936	0.017859
C25	C	-0.167567	-0.131750	0.014961
C26	C	-0.185502	-0.169024	0.013506
C27	C	-0.224264	-0.188340	0.010358
C28	C	-0.167685	-0.188485	0.014954
C29	C	-0.131938	-0.170675	0.017859
C30	C	-0.114002	-0.133396	0.019309
C31	C	0.152939	-0.113943	0.017877
C32	C	0.173778	-0.131757	0.014977
C33	C	0.155892	-0.169032	0.013523
C34	C	0.178486	-0.188349	0.010377
C35	C	0.117170	-0.188491	0.014967
C36	C	0.096334	-0.170675	0.017865
C37	C	0.114220	-0.133401	0.019323
C38	C	0.091629	0.052537	0.022456
C39	C	0.073617	0.019131	0.024964
C40	C	0.073613	-0.098693	0.024971
C41	C	0.091623	-0.114089	0.022466
C42	C	-0.044339	-0.098690	0.024964
C43	C	-0.075237	-0.114084	0.022456
O44	O	-0.327856	-0.266388	-0.009322
O45	O	-0.236954	-0.220935	0.009228
O46	O	-0.236950	-0.220939	-0.054773
O47	O	-0.327860	-0.266385	0.054680
O48	O	-0.236948	-0.168954	-0.054776
O49	O	-0.236952	-0.168950	0.009225
O50	O	-0.327854	-0.214403	-0.009325
Cu51	Cu	-0.282403	-0.186930	-0.000050
Cu52	Cu	-0.282405	-0.248408	-0.000046
O53	O	-0.327858	-0.214400	0.054676
C54	C	0.384390	-0.079141	-0.361606
C55	C	0.422270	-0.041526	-0.380503
C56	C	0.384390	-0.079141	-0.305008
C57	C	0.422270	-0.041526	-0.323990
C58	C	0.440988	-0.022543	-0.361606
C59	C	0.365758	-0.098038	-0.323991
C60	C	0.282465	-0.170819	-0.396168
C61	C	0.261627	-0.188759	-0.413983
C62	C	0.279513	-0.169420	-0.451257
C63	C	0.256917	-0.188867	-0.470572
C64	C	0.318239	-0.132140	-0.470717
C65	C	0.339076	-0.114205	-0.452905
C66	C	0.321187	-0.133546	-0.415628
C67	C	0.567227	0.113942	-0.453282
C68	C	0.602981	0.152594	-0.471222
C69	C	0.620916	0.171985	-0.451883
C70	C	0.659678	0.213894	-0.471328
C71	C	0.603097	0.152719	-0.414603
C72	C	0.567349	0.114068	-0.396667
C73	C	0.549414	0.094682	-0.416011
C74	C	0.282465	-0.170819	-0.168522
C75	C	0.261624	-0.188757	-0.129868
C76	C	0.279510	-0.169418	-0.110479
C77	C	0.256914	-0.188865	-0.068568
C78	C	0.318233	-0.132140	-0.129742
C79	C	0.339070	-0.114203	-0.168394
C80	C	0.321184	-0.133548	-0.187782
C81	C	0.343783	-0.114094	-0.396315
C82	C	0.361794	-0.098590	-0.380920
C83	C	0.361794	-0.098590	-0.263099
C84	C	0.343783	-0.114094	-0.229693
C85	C	0.479750	0.019366	-0.381054
C86	C	0.510649	0.052771	-0.396557
C87	C	0.440758	-0.356212	-0.028193
C88	C	0.422041	-0.393827	-0.028459
C89	C	0.384158	-0.356213	-0.028190
C90	C	0.365526	-0.393828	-0.028456
C91	C	0.384160	-0.412810	-0.028193
C92	C	0.422038	-0.337315	-0.028456
C93	C	0.567000	-0.264532	-0.017949
C94	C	0.602755	-0.246591	-0.015053
C95	C	0.620692	-0.265931	-0.013601
C96	C	0.659455	-0.246483	-0.010453
C97	C	0.602873	-0.303210	-0.015048
C98	C	0.567125	-0.321146	-0.017949
C99	C	0.549188	-0.301805	-0.019399
C100	C	0.339356	-0.549295	-0.017951
C101	C	0.318645	-0.587947	-0.015055
C102	C	0.279915	-0.607338	-0.013597
C103	C	0.257452	-0.649247	-0.010452
C104	C	0.261899	-0.588073	-0.015042
C105	C	0.282613	-0.549422	-0.017945
C106	C	0.321343	-0.530035	-0.019397
C107	C	0.339344	-0.264537	-0.017936
C108	C	0.318628	-0.246599	-0.015032
C109	C	0.279898	-0.265939	-0.013577
C110	C	0.257433	-0.246493	-0.010426
C111	C	0.261884	-0.303217	-0.015022
C112	C	0.282601	-0.321153	-0.017924
C113	C	0.321334	-0.301808	-0.019385
C114	C	0.510421	-0.321258	-0.022542
C115	C	0.479522	-0.336762	-0.025048
C116	C	0.361696	-0.336765	-0.025041
C117	C	0.343793	-0.321261	-0.022532
C118	C	0.361701	-0.454719	-0.025047
C119	C	0.343799	-0.488125	-0.022541
O120	O	0.223728	0.336934	-0.009323
O121	O	0.159726	0.227482	0.009227
O122	O	0.223729	0.291478	-0.054775
O123	O	0.159725	0.272938	0.054678
O124	O	0.275711	0.291477	-0.054771
O125	O	0.211707	0.227481	0.009230
O126	O	0.275710	0.336932	-0.009320
Cu127	Cu	0.248455	0.282206	-0.000045
Cu128	Cu	0.186981	0.282208	-0.000049
O129	O	0.211707	0.272936	0.054681
O130	O	0.763271	0.337164	-0.496871
O131	O	0.672367	0.227713	-0.451422
O132	O	0.672365	0.291711	-0.451418
O133	O	0.763273	0.273165	-0.496876
O134	O	0.672366	0.291712	-0.503402
O135	O	0.672368	0.227714	-0.503407
O136	O	0.763272	0.337165	-0.548856
Cu137	Cu	0.717820	0.282440	-0.530878
Cu138	Cu	0.717819	0.282438	-0.469400
O139	O	0.763275	0.273167	-0.548860
O140	O	0.211690	-0.214417	-0.548617
O141	O	0.275691	-0.168962	-0.503167
O142	O	0.211689	-0.168964	-0.503163
O143	O	0.275692	-0.214415	-0.548621
O144	O	0.159706	-0.220947	-0.451179
O145	O	0.223708	-0.220945	-0.451183
O146	O	0.159707	-0.266400	-0.496633
Cu147	Cu	0.186961	-0.248419	-0.469161
Cu148	Cu	0.248437	-0.186943	-0.530639
O149	O	0.223709	-0.266398	-0.496637
C150	C	-0.005343	-0.412572	0.361558
C151	C	0.013375	-0.393590	0.380456
C152	C	0.051255	-0.355974	0.304961
C153	C	0.069887	-0.337077	0.323944
C154	C	0.051254	-0.355974	0.361560
C155	C	0.013375	-0.393589	0.323943
C156	C	-0.131582	-0.549057	0.396116
C157	C	-0.167336	-0.587709	0.413930
C158	C	-0.185271	-0.607098	0.451205
C159	C	-0.224034	-0.649009	0.470519
C160	C	-0.167452	-0.587833	0.470666
C161	C	-0.131705	-0.549184	0.452854
C162	C	-0.113770	-0.529796	0.415578
C163	C	0.096061	-0.321414	0.453239
C164	C	0.116773	-0.303600	0.471179
C165	C	0.155502	-0.266327	0.451842
C166	C	0.177965	-0.247011	0.471288
C167	C	0.173517	-0.246866	0.414562
C168	C	0.152802	-0.264677	0.396625
C169	C	0.114073	-0.301955	0.415968
C170	C	0.096064	-0.321412	0.168474
C171	C	0.116779	-0.303599	0.129820
C172	C	0.155508	-0.266324	0.110432
C173	C	0.177972	-0.247009	0.068521
C174	C	0.173522	-0.246865	0.129696
C175	C	0.152807	-0.264680	0.168348
C176	C	0.114075	-0.301953	0.187735
C177	C	-0.075004	-0.487887	0.396265
C178	C	-0.044106	-0.454481	0.380871
C179	C	0.073715	-0.336660	0.263052
C180	C	0.091618	-0.321265	0.229646
C181	C	0.073714	-0.336661	0.381009
C182	C	0.091616	-0.321267	0.396513
C183	C	0.051046	-0.022794	-0.361634
C184	C	0.069679	-0.041778	-0.380530
C185	C	-0.005555	-0.079390	-0.305034
C186	C	0.013163	-0.098288	-0.324016
C187	C	0.051045	-0.079393	-0.361631
C188	C	0.013164	-0.041775	-0.324018
C189	C	0.095858	0.113693	-0.396200
C190	C	0.116571	0.152344	-0.414015
C191	C	0.155302	0.171732	-0.451290
C192	C	0.177767	0.213642	-0.470607
C193	C	0.173317	0.152465	-0.470750
C194	C	0.152600	0.113815	-0.452936
C195	C	0.113869	0.094429	-0.415659
C196	C	0.152973	-0.113959	-0.453306
C197	C	0.173810	-0.131775	-0.471245
C198	C	0.155926	-0.169048	-0.451906
C199	C	0.178519	-0.188366	-0.471350
C200	C	0.117198	-0.188507	-0.414626
C201	C	0.096358	-0.170694	-0.396690
C202	C	0.114251	-0.133416	-0.416035
C203	C	-0.131801	-0.113944	-0.168548
C204	C	-0.167554	-0.131755	-0.129895
C205	C	-0.185491	-0.169029	-0.110504
C206	C	-0.224255	-0.188343	-0.068593
C207	C	-0.167671	-0.188490	-0.129767
C208	C	-0.131918	-0.170677	-0.168418
C209	C	-0.113988	-0.133404	-0.187808
C210	C	0.091411	0.052521	-0.396344
C211	C	0.073508	0.019115	-0.380949
C212	C	-0.044320	-0.098701	-0.263125
C213	C	-0.075220	-0.114094	-0.229719
C214	C	0.073641	-0.098707	-0.381079
C215	C	0.091652	-0.114103	-0.396582
C216	C	-0.615853	-0.356193	0.361535
C217	C	-0.634487	-0.393808	0.380433
C218	C	-0.559253	-0.356195	0.304938
C219	C	-0.577972	-0.393810	0.323921
C220	C	-0.615854	-0.412792	0.361537
C221	C	-0.577972	-0.337297	0.323920
C222	C	-0.660661	-0.264512	0.396093
C223	C	-0.681373	-0.246571	0.413906
C224	C	-0.720104	-0.265909	0.451181
C225	C	-0.742568	-0.246461	0.470495
C226	C	-0.738120	-0.303189	0.470643
C227	C	-0.717405	-0.321125	0.452831
C228	C	-0.678674	-0.301785	0.415554
C229	C	-0.717784	-0.549275	0.453218
C230	C	-0.738622	-0.587926	0.471159
C231	C	-0.720740	-0.607319	0.451822
C232	C	-0.743333	-0.649227	0.471268
C233	C	-0.682012	-0.588055	0.414542
C234	C	-0.661170	-0.549403	0.396604
C235	C	-0.679063	-0.530016	0.415946
C236	C	-0.433006	-0.264522	0.168449
C237	C	-0.397253	-0.246585	0.129796
C238	C	-0.379317	-0.265926	0.110407
C239	C	-0.340553	-0.246480	0.068496
C240	C	-0.397138	-0.303204	0.129672
C241	C	-0.432891	-0.321139	0.168324
C242	C	-0.450820	-0.301793	0.187711
C243	C	-0.656216	-0.321238	0.396242
C244	C	-0.638314	-0.336743	0.380848
C245	C	-0.520488	-0.336748	0.263028
C246	C	-0.489588	-0.321245	0.229622
C247	C	-0.638451	-0.454700	0.380987
C248	C	-0.656463	-0.488106	0.396492
C249	C	0.440756	0.310302	-0.361620
C250	C	0.422038	0.310564	-0.380518
C251	C	0.384160	0.310312	-0.305026
C252	C	0.365528	0.310574	-0.324010
C253	C	0.384159	0.310303	-0.361624
C254	C	0.422038	0.310573	-0.324006
C255	C	0.566989	0.300046	-0.396172
C256	C	0.602741	0.297145	-0.413984
C257	C	0.620675	0.295684	-0.451257
C258	C	0.659436	0.292531	-0.470569
C259	C	0.602857	0.297127	-0.470719
C260	C	0.567111	0.300033	-0.452909
C261	C	0.549177	0.301493	-0.415634
C262	C	0.339351	0.300042	-0.453303
C263	C	0.318640	0.297142	-0.471244
C264	C	0.279912	0.295690	-0.451908
C265	C	0.257449	0.292541	-0.471354
C266	C	0.261899	0.297143	-0.414629
C267	C	0.282613	0.300049	-0.396692
C268	C	0.321341	0.301496	-0.416033
C269	C	0.339354	0.300088	-0.168540
C270	C	0.318640	0.297192	-0.129888
C271	C	0.279912	0.295742	-0.110501
C272	C	0.257450	0.292601	-0.068591
C273	C	0.261898	0.297184	-0.129766
C274	C	0.282612	0.300078	-0.168417
C275	C	0.321344	0.301533	-0.187802
C276	C	0.510413	0.304640	-0.396323
C277	C	0.479516	0.307151	-0.380931
C278	C	0.361701	0.307173	-0.263117
C279	C	0.343799	0.304671	-0.229712
C280	C	0.361700	0.307154	-0.381073
C281	C	0.343798	0.304644	-0.396578
O282	O	0.275503	0.336913	-0.548651
O283	O	0.211494	0.227461	-0.503201
O284	O	0.275490	0.291455	-0.503192
O285	O	0.211507	0.272919	-0.548659
O286	O	0.223502	0.291457	-0.451211
O287	O	0.159506	0.227463	-0.451219
O288	O	0.223515	0.336915	-0.496669
Cu289	Cu	0.186764	0.282189	-0.469197
Cu290	Cu	0.248246	0.282187	-0.530672
O291	O	0.159519	0.272921	-0.496677
C292	C	0.051032	0.254111	0.361530
C293	C	0.013154	0.253851	0.380425
C294	C	0.051031	0.254102	0.304932
C295	C	0.013153	0.253842	0.323913
C296	C	-0.005564	0.254113	0.361527
C297	C	0.069663	0.253840	0.323916
C298	C	0.152954	0.264360	0.396096
C299	C	0.173791	0.267260	0.413911
C300	C	0.155906	0.268721	0.451185
C301	C	0.178502	0.271871	0.470501
C302	C	0.117182	0.267279	0.470643
C303	C	0.096345	0.264374	0.452830
C304	C	0.114233	0.262915	0.415555
C305	C	-0.131796	0.264379	0.453195
C306	C	-0.167548	0.267281	0.471133
C307	C	-0.185483	0.268734	0.451793
C308	C	-0.224243	0.271886	0.471236
C309	C	-0.167664	0.267282	0.414515
C310	C	-0.131919	0.264374	0.396581
C311	C	-0.113984	0.262925	0.415925
C312	C	0.152952	0.264325	0.168451
C313	C	0.173792	0.267221	0.129798
C314	C	0.155907	0.268673	0.110407
C315	C	0.178502	0.271814	0.068498
C316	C	0.117186	0.267232	0.129669
C317	C	0.096350	0.264339	0.168320
C318	C	0.114234	0.262881	0.187709
C319	C	0.091638	0.259769	0.396240
C320	C	0.073627	0.257260	0.380845
C321	C	0.073626	0.257242	0.263024
C322	C	0.091636	0.259743	0.229619
C323	C	-0.044324	0.257264	0.380973
C324	C	-0.075221	0.259775	0.396474
H325	H	-0.182070	-0.115902	0.013781
H326	H	0.230346	-0.318966	-0.013835
H327	H	0.102110	-0.319446	0.114137
H328	H	0.437704	-0.306410	-0.028878
O329	O	-0.664622	-0.606858	0.395698
C330	C	-0.663114	-0.606173	0.362008
H331	H	-0.662970	-0.580998	0.353003
H332	H	-0.693327	-0.634019	0.367559
C333	C	-0.621028	-0.632734	0.340931
C334	C	-0.620847	-0.601812	0.329869
H335	H	-0.594957	-0.630045	0.321106
H336	H	-0.622045	-0.633197	0.363629
H337	H	-0.646207	-0.655936	0.345557
H338	H	-0.595672	-0.578611	0.325247
H339	H	-0.619825	-0.601345	0.307169
H340	H	-0.002509	-0.129196	-0.308775
O341	O	0.620222	-0.322052	-0.013590
C342	C	0.587350	-0.355739	0.018596
H343	H	0.553315	-0.364744	0.027455
H344	H	0.590535	-0.350184	0.043257
C345	C	0.634919	-0.376816	-0.002406
C346	C	0.593117	-0.387879	0.008472
H347	H	0.638477	-0.396642	-0.008650
H348	H	0.657066	-0.354120	-0.024090
H349	H	0.637568	-0.372187	0.018147
H350	H	0.590471	-0.392503	-0.012082
H351	H	0.570970	-0.410577	0.030152
O352	O	-0.005615	-0.023642	0.028898
C353	C	-0.043125	-0.048477	0.029066
H354	H	-0.056046	-0.079399	0.040820
H355	H	-0.033737	-0.042162	-0.001384
C356	C	-0.063459	-0.004383	0.040065
C357	C	-0.079331	-0.042363	0.054505
H358	H	-0.085792	-0.000611	0.055756
H359	H	-0.038187	0.012350	0.039951
H360	H	-0.055636	0.000875	0.014691
H361	H	-0.087149	-0.047618	0.079877
H362	H	-0.104605	-0.059096	0.054624
H363	H	0.267896	-0.186572	-0.365817
O364	O	0.336208	0.295782	-0.507471
C365	C	0.379328	0.329379	-0.532405
H366	H	0.393240	0.342454	-0.515367
H367	H	0.378305	0.350774	-0.547045
C368	C	0.391932	0.303459	-0.583808
C369	C	0.409021	0.319516	-0.562882
H370	H	0.410248	0.297376	-0.602608
H371	H	0.362881	0.280824	-0.567010
H372	H	0.391080	0.321291	-0.596005
H373	H	0.409867	0.301683	-0.550682
H374	H	0.438073	0.342148	-0.579679
O375	O	0.099149	0.171113	-0.395132
C376	C	0.130234	0.202172	-0.391646
H377	H	0.164903	0.210918	-0.414915
H378	H	0.122816	0.193347	-0.362318
C379	C	0.084795	0.225466	-0.367441
C380	C	0.127377	0.236209	-0.396023
H381	H	0.083032	0.246461	-0.370140
H382	H	0.063852	0.204540	-0.369789
H383	H	0.078618	0.218111	-0.343005
H384	H	0.133550	0.243559	-0.420459
H385	H	0.148321	0.257137	-0.393680
H386	H	0.437930	-0.026285	-0.308746
O387	O	0.265105	0.301510	-0.360501
C388	C	0.263600	0.333694	-0.359762
H389	H	0.263566	0.342550	-0.384869
H390	H	0.293757	0.358356	-0.362057
C391	C	0.221305	0.312696	-0.291105
C392	C	0.221260	0.323571	-0.321939
H393	H	0.195189	0.306453	-0.267773
H394	H	0.222321	0.291014	-0.291602
H395	H	0.246438	0.333250	-0.293022
H396	H	0.196131	0.303016	-0.320025
H397	H	0.220239	0.345250	-0.321440
H398	H	-0.117412	-0.186525	-0.184100
O399	O	0.170088	0.095073	-0.471778
C400	C	0.180611	0.081443	-0.451084
H401	H	0.159808	0.078508	-0.419758
H402	H	0.217160	0.102470	-0.463484
C403	C	0.196385	0.045721	-0.492522
C404	C	0.170832	0.042113	-0.454046
H405	H	0.190354	0.021461	-0.494350
H406	H	0.189297	0.054905	-0.506465
H407	H	0.226840	0.063245	-0.502851
H408	H	0.140377	0.024593	-0.443719
H409	H	0.177914	0.032925	-0.440101
H410	H	0.267943	-0.533739	-0.019121
O411	O	0.619994	-0.210408	-0.013577
C412	C	0.587041	-0.209660	0.018598
H413	H	0.560351	-0.239605	0.040786
H414	H	0.571716	-0.199688	0.009479
C415	C	0.640577	-0.145087	0.008838
C416	C	0.607799	-0.181865	0.036091
H417	H	0.653382	-0.127940	0.019627
H418	H	0.662779	-0.145590	-0.012840
H419	H	0.627802	-0.136782	0.001241
H420	H	0.620575	-0.190171	0.043683
H421	H	0.585600	-0.181363	0.057770
O422	O	0.440782	-0.411955	-0.028963
C423	C	0.478307	-0.387118	-0.029151
H424	H	0.475301	-0.364385	-0.016783
H425	H	0.509261	-0.372691	-0.059789
C426	C	0.485235	-0.438106	-0.019866
C427	C	0.481541	-0.410186	-0.004673
H428	H	0.487232	-0.452335	-0.004769
H429	H	0.459955	-0.454839	-0.019741
H430	H	0.511030	-0.426080	-0.045397
H431	H	0.455744	-0.422213	0.020856
H432	H	0.506817	-0.393456	-0.004793
H433	H	0.167522	0.263171	0.365746
H434	H	-0.002525	-0.129181	0.028805
H435	H	0.370885	0.301223	-0.469054
H436	H	0.552845	0.098385	-0.366316
O437	O	-0.623510	-0.530658	0.360419
C438	C	-0.588967	-0.499585	0.360437
H439	H	-0.596772	-0.505107	0.390355
H440	H	-0.585482	-0.472246	0.351715
C441	C	-0.535813	-0.488334	0.295075
C442	C	-0.545397	-0.495117	0.331821
H443	H	-0.508937	-0.485576	0.277423
H444	H	-0.559085	-0.509267	0.295063
H445	H	-0.532912	-0.465552	0.287812
H446	H	-0.548304	-0.517901	0.339085
H447	H	-0.522124	-0.474187	0.331834
H448	H	0.100149	0.253421	0.308676
H449	H	0.267931	-0.351506	-0.019101
H450	H	0.205307	-0.115910	0.013801
H451	H	-0.769653	-0.318930	0.500992
H452	H	0.064523	-0.351759	0.184259
O453	O	-0.184583	-0.606366	0.394969
C454	C	-0.161097	-0.580963	0.358255
H455	H	-0.126789	-0.556617	0.349450
H456	H	-0.179669	-0.568758	0.358841
C457	C	-0.198838	-0.632488	0.340070
C458	C	-0.156699	-0.602588	0.329253
H459	H	-0.196126	-0.645827	0.322180
H460	H	-0.214662	-0.649603	0.364805
H461	H	-0.214310	-0.622313	0.340558
H462	H	-0.141229	-0.612764	0.328770
H463	H	-0.140872	-0.585475	0.304517
H464	H	-0.182052	0.268464	0.501484
H465	H	0.333315	-0.603629	-0.013877
O466	O	0.620352	0.295757	-0.506942
C467	C	0.665209	0.326968	-0.531035
H468	H	0.678574	0.337504	-0.513105
H469	H	0.668391	0.351112	-0.546636
C470	C	0.675440	0.301273	-0.582520
C471	C	0.691856	0.314212	-0.560499
H472	H	0.691878	0.293406	-0.600696
H473	H	0.645219	0.280246	-0.566289
H474	H	0.678093	0.321395	-0.595517
H475	H	0.689199	0.294088	-0.547498
H476	H	0.722078	0.335235	-0.576728
H477	H	-0.182272	0.268459	0.398770
O478	O	-0.005603	0.253332	0.417300
C479	C	-0.043112	0.253167	0.429973
H480	H	-0.056032	0.241411	0.411971
H481	H	-0.033723	0.283616	0.426898
C482	C	-0.063449	0.242173	0.494402
C483	C	-0.079319	0.227731	0.472293
H484	H	-0.085783	0.226485	0.520507
H485	H	-0.038177	0.242286	0.485864
H486	H	-0.055624	0.267548	0.491835
H487	H	-0.087139	0.202360	0.474856
H488	H	-0.104593	0.227614	0.480832
H489	H	-0.117415	0.263190	0.366230
H490	H	0.333309	0.296016	-0.114204
H491	H	0.552400	-0.248780	-0.019131
H492	H	-0.116983	-0.533275	0.365765
H493	H	0.100368	-0.306171	0.308703
H494	H	0.437935	-0.026287	-0.411409
O495	O	0.335533	-0.113355	-0.110859
C496	C	0.304371	-0.109939	-0.079799
H497	H	0.269742	-0.133189	-0.071152
H498	H	0.311790	-0.080602	-0.088577
C499	C	0.349617	-0.085877	-0.056315
C500	C	0.307085	-0.114434	-0.045693
H501	H	0.351292	-0.088647	-0.035277
H502	H	0.370613	-0.088176	-0.077242
H503	H	0.355795	-0.061431	-0.063630
H504	H	0.300909	-0.138879	-0.038383
H505	H	0.286088	-0.112138	-0.024764
O506	O	0.099251	-0.322465	0.507412
C507	C	0.088742	-0.301771	0.531574
H508	H	0.084056	-0.282595	0.518560
H509	H	0.116767	-0.283382	0.534829
C510	C	0.051491	-0.353464	0.587135
C511	C	0.045732	-0.329914	0.571152
H512	H	0.024962	-0.370823	0.611549
H513	H	0.058573	-0.367405	0.570857
H514	H	0.074847	-0.338136	0.589844
H515	H	0.022381	-0.345241	0.568439
H516	H	0.038646	-0.315975	0.587431
H517	H	0.230368	0.295965	-0.398887
O518	O	-0.005480	-0.023542	-0.305897
C519	C	0.019190	0.013804	-0.330725
H520	H	0.038366	0.014976	-0.361651
H521	H	0.043319	0.034859	-0.324402
C522	C	-0.035909	0.023133	-0.286629
C523	C	-0.012360	0.024572	-0.324612
H524	H	-0.055370	0.029777	-0.282857
H525	H	-0.052529	-0.002027	-0.269901
H526	H	-0.015798	0.040679	-0.281364
H527	H	-0.032471	0.007023	-0.329875
H528	H	0.004256	0.049730	-0.341341
O529	O	0.224321	0.295844	-0.110938
C530	C	0.231443	0.327053	-0.097288
H531	H	0.268325	0.350912	-0.115062
H532	H	0.218661	0.317426	-0.066040
C533	C	0.161369	0.312615	-0.078749
C534	C	0.206668	0.341920	-0.100581
H535	H	0.146085	0.321785	-0.080778
H536	H	0.156570	0.291588	-0.087943
H537	H	0.150723	0.304595	-0.052711
H538	H	0.217314	0.349936	-0.126618
H539	H	0.211468	0.362949	-0.091390
H540	H	0.205320	0.268435	0.398066
H541	H	-0.002510	0.253416	0.308669
H542	H	0.230091	-0.219108	-0.114185
O543	O	-0.185031	-0.224676	0.013496
C544	C	-0.152158	-0.225493	-0.018689
H545	H	-0.118124	-0.200464	-0.027545
H546	H	-0.155340	-0.223123	-0.043352
C547	C	-0.199725	-0.294137	0.002308
C548	C	-0.157924	-0.263398	-0.008567
H549	H	-0.203282	-0.317519	0.008551
H550	H	-0.221873	-0.293587	0.023992
H551	H	-0.202371	-0.292157	-0.018246
H552	H	-0.155280	-0.265376	0.011989
H553	H	-0.135775	-0.263950	-0.030246
O554	O	-0.005378	-0.411821	0.417331
C555	C	-0.042909	-0.449154	0.430021
H556	H	-0.039896	-0.458525	0.404284
H557	H	-0.073856	-0.449459	0.446529
C558	C	-0.049872	-0.465355	0.487959
C559	C	-0.046169	-0.476866	0.456349
H560	H	-0.051885	-0.482449	0.504201
H561	H	-0.024588	-0.440202	0.479410
H562	H	-0.075661	-0.465609	0.501711
H563	H	-0.020377	-0.476607	0.442595
H564	H	-0.071449	-0.502019	0.464896
H565	H	-0.732075	-0.351477	0.468678
H566	H	0.552621	-0.351498	-0.019128
O567	O	-0.005236	-0.411723	0.305693
C568	C	0.019421	-0.386883	0.268356
H569	H	0.054510	-0.364134	0.259012
H570	H	0.003194	-0.372477	0.268030
C571	C	-0.022220	-0.437882	0.252110
C572	C	0.020878	-0.409942	0.240632
H573	H	-0.021322	-0.452105	0.235008
H574	H	-0.038833	-0.454617	0.277265
H575	H	-0.035737	-0.425872	0.251838
H576	H	0.034392	-0.421952	0.240909
H577	H	0.037494	-0.393210	0.215476
H578	H	0.064821	0.263164	0.184001
O579	O	-0.184838	-0.606701	0.506846
C580	C	-0.181354	-0.637779	0.506759
H581	H	-0.153649	-0.632184	0.476844
H582	H	-0.213898	-0.665086	0.515372
C583	C	-0.205036	-0.649269	0.572183
C584	C	-0.171007	-0.642396	0.535442
H585	H	-0.198656	-0.652119	0.589877
H586	H	-0.207386	-0.628333	0.572243
H587	H	-0.232154	-0.672024	0.579355
H588	H	-0.143892	-0.619639	0.528268
H589	H	-0.168653	-0.663329	0.535382
H590	H	0.267897	-0.186572	-0.184305
H591	H	-0.182279	-0.218843	-0.113977
O592	O	0.224310	-0.606934	-0.013678
C593	C	0.231435	-0.620575	-0.044894
H594	H	0.259901	-0.623405	-0.055428
H595	H	0.239982	-0.599611	-0.069038
C596	C	0.154259	-0.656497	-0.019207
C597	C	0.189219	-0.659976	-0.032144
H598	H	0.128218	-0.680801	-0.011344
H599	H	0.149458	-0.647306	0.001822
H600	H	0.161387	-0.639026	-0.039330
H601	H	0.182093	-0.677444	-0.012020
H602	H	0.194017	-0.669171	-0.053170
O603	O	0.224002	-0.224963	-0.395018
C604	C	0.212689	-0.238189	-0.358303
H605	H	0.228239	-0.212686	-0.349502
H606	H	0.225465	-0.256186	-0.358882
C607	C	0.142966	-0.294101	-0.340111
C608	C	0.162062	-0.262777	-0.329301
H609	H	0.111737	-0.309269	-0.322221
H610	H	0.150589	-0.285191	-0.364848
H611	H	0.153618	-0.309094	-0.340594
H612	H	0.151415	-0.247782	-0.328823
H613	H	0.154437	-0.271685	-0.304563
O614	O	0.099812	-0.224697	-0.395781
C615	C	0.098307	-0.225511	-0.362092
H616	H	0.098160	-0.200482	-0.353087
H617	H	0.128523	-0.223142	-0.367645
C618	C	0.056229	-0.294156	-0.341012
C619	C	0.056044	-0.263415	-0.329951
H620	H	0.030160	-0.317537	-0.321187
H621	H	0.057244	-0.293607	-0.363710
H622	H	0.081411	-0.292176	-0.345640
H623	H	0.030866	-0.265393	-0.325328
H624	H	0.055024	-0.263965	-0.307252
H625	H	-0.732353	-0.533492	0.468971
O626	O	0.058431	-0.357617	0.472089
C627	C	0.046978	-0.370975	0.508834
H628	H	0.062457	-0.345543	0.517740
H629	H	0.059725	-0.389000	0.508248
C630	C	-0.022673	-0.426812	0.526792
C631	C	-0.003664	-0.395575	0.537732
H632	H	-0.053912	-0.441987	0.544618
H633	H	-0.014957	-0.417813	0.502036
H634	H	-0.012046	-0.441828	0.526304
H635	H	-0.014287	-0.380557	0.538215
H636	H	-0.011384	-0.404571	0.562489
H637	H	0.370881	-0.248784	-0.019122
O638	O	0.170383	-0.077728	0.019271
C639	C	0.209023	-0.064375	0.017382
H640	H	0.223184	-0.080970	0.003290
H641	H	0.200673	-0.068745	0.047540
C642	C	0.225986	-0.001088	0.010927
C643	C	0.243382	-0.021468	-0.006385
H644	H	0.247180	0.025379	-0.003732
H645	H	0.199953	-0.010084	0.012200
H646	H	0.219029	-0.004734	0.036058
H647	H	0.250334	-0.017826	-0.031513
H648	H	0.269417	-0.012471	-0.007663
O649	O	-0.450263	-0.357353	0.187091
C650	C	-0.485658	-0.369032	0.225365
H651	H	-0.499428	-0.351572	0.227511
H652	H	-0.473407	-0.364263	0.244402
C653	C	-0.505354	-0.433259	0.235924
C654	C	-0.522270	-0.411817	0.238559
H655	H	-0.527938	-0.459651	0.244064
H656	H	-0.481507	-0.425390	0.210139
H657	H	-0.495146	-0.429281	0.251788
H658	H	-0.532473	-0.415791	0.222692
H659	H	-0.546119	-0.419687	0.264343
H660	H	0.335043	-0.409068	-0.028878
H661	H	0.205322	0.268398	0.114116
O662	O	0.105999	-0.023534	0.028909
C663	C	0.118518	0.013812	0.029070
H664	H	0.088768	0.014988	0.040813
H665	H	0.145904	0.034869	-0.001380
C666	C	0.171924	0.023130	0.040092
C667	C	0.135384	0.024574	0.054518
H668	H	0.182330	0.029769	0.055788
H669	H	0.163492	-0.002030	0.039983
H670	H	0.194741	0.040677	0.014718
H671	H	0.112566	0.007023	0.079890
H672	H	0.143813	0.049731	0.054633
O673	O	0.211410	0.171020	0.013546
C674	C	0.222722	0.145617	0.015461
H675	H	0.207172	0.121266	0.005508
H676	H	0.209944	0.133420	0.046235
C677	C	0.292444	0.197147	0.001652
C678	C	0.273349	0.167240	-0.010576
H679	H	0.323673	0.210485	-0.014407
H680	H	0.284823	0.214261	0.000363
H681	H	0.281791	0.186978	0.027297
H682	H	0.283998	0.177410	-0.036219
H683	H	0.280973	0.150128	-0.009292
O684	O	-0.670881	-0.411948	0.417290
C685	C	-0.683395	-0.387117	0.429970
H686	H	-0.669980	-0.364364	0.404224
H687	H	-0.669337	-0.372715	0.446539
C688	C	-0.750653	-0.438131	0.487839
C689	C	-0.734179	-0.410186	0.456218
H690	H	-0.781979	-0.452360	0.504032
H691	H	-0.742221	-0.454859	0.479298
H692	H	-0.738934	-0.426124	0.501642
H693	H	-0.745894	-0.422193	0.442413
H694	H	-0.742614	-0.393460	0.464758
O695	O	0.265069	0.301495	-0.187078
C696	C	0.226441	0.299587	-0.161678
H697	H	0.227596	0.309545	-0.137330
H698	H	0.196244	0.268814	-0.149475
C699	C	0.222060	0.313387	-0.213211
C700	C	0.223480	0.325621	-0.183308
H701	H	0.220232	0.329445	-0.226553
H702	H	0.248083	0.314671	-0.230323
H703	H	0.196895	0.287743	-0.203037
H704	H	0.248647	0.351263	-0.193482
H705	H	0.197461	0.324342	-0.166197
O706	O	0.058695	-0.189607	-0.360507
C707	C	0.024155	-0.193078	-0.360529
H708	H	0.031965	-0.190794	-0.390450
H709	H	0.020666	-0.169225	-0.351805
C710	C	-0.029006	-0.234981	-0.295170
C711	C	-0.019415	-0.232179	-0.331918
H712	H	-0.055883	-0.259099	-0.277520
H713	H	-0.005736	-0.232642	-0.295154
H714	H	-0.031910	-0.215101	-0.287906
H715	H	-0.016505	-0.252056	-0.339184
H716	H	-0.042686	-0.234522	-0.331935
O717	O	-0.559322	-0.300421	0.305799
C718	C	-0.583989	-0.287740	0.330626
H719	H	-0.603171	-0.305744	0.361552
H720	H	-0.608112	-0.290806	0.324299
C721	C	-0.528878	-0.223314	0.286534
C722	C	-0.552435	-0.245425	0.324518
H723	H	-0.509415	-0.197211	0.282765
H724	H	-0.512260	-0.231857	0.269807
H725	H	-0.548985	-0.225873	0.281266
H726	H	-0.532329	-0.242869	0.329783
H727	H	-0.569049	-0.236880	0.341246
O728	O	0.099883	0.268697	0.110782
C729	C	0.131039	0.303262	0.079710
H730	H	0.165670	0.314656	0.071067
H731	H	0.123610	0.325179	0.088471
C732	C	0.085793	0.282031	0.056224
C733	C	0.128328	0.296022	0.045606
H734	H	0.084120	0.277566	0.035188
H735	H	0.064802	0.258743	0.077158
H736	H	0.079607	0.300297	0.063525
H737	H	0.134512	0.277754	0.038310
H738	H	0.149320	0.319306	0.024670
H739	H	0.064808	0.098152	0.019035
H740	H	0.333296	-0.216247	-0.013853
H741	H	0.100165	-0.026535	-0.411435
H742	H	-0.770155	-0.603608	0.501511
H743	H	0.335269	-0.128941	-0.308748
O744	O	0.099813	0.171346	0.013589
C745	C	0.089362	0.184987	0.044804
H746	H	0.110125	0.187820	0.055336
H747	H	0.052799	0.164022	0.068949
C748	C	0.073789	0.220904	0.019119
C749	C	0.099293	0.224386	0.032054
H750	H	0.079913	0.245206	0.011256
H751	H	0.080829	0.211712	-0.001910
H752	H	0.043322	0.203431	0.039243
H753	H	0.129759	0.241855	0.011929
H754	H	0.092258	0.233582	0.053080
O755	O	0.170397	0.262935	0.187223
C756	C	0.209037	0.264822	0.161937
H757	H	0.223197	0.278908	0.131180
H758	H	0.200688	0.234665	0.165920
C759	C	0.226003	0.271290	0.208259
C760	C	0.243397	0.288595	0.170483
H761	H	0.247198	0.285953	0.213531
H762	H	0.199970	0.270018	0.225295
H763	H	0.219046	0.246160	0.211573
H764	H	0.250348	0.313723	0.167170
H765	H	0.269432	0.289872	0.153446
H766	H	-0.117214	-0.083584	0.019042
H767	H	-0.117201	-0.533500	0.468702
O768	O	-0.114555	-0.189520	0.019216
C769	C	-0.069707	-0.168831	-0.012001
H770	H	-0.056242	-0.137504	-0.022526
H771	H	-0.066586	-0.181231	-0.036150
C772	C	-0.059659	-0.210273	0.013667
C773	C	-0.043120	-0.171796	0.000741
H774	H	-0.043259	-0.212103	0.021526
H775	H	-0.089875	-0.224213	0.034697
H776	H	-0.057058	-0.220602	-0.006460
H777	H	-0.045727	-0.161469	0.020869
H778	H	-0.012905	-0.157855	-0.020286
H779	H	0.205048	-0.216515	0.398819
H780	H	0.167470	-0.248829	0.366274
H781	H	0.552607	0.301210	-0.468757
O782	O	-0.379650	-0.321954	0.110845
C783	C	-0.334791	-0.301179	0.097194
H784	H	-0.328705	-0.282068	0.114966
H785	H	-0.313172	-0.282717	0.065946
C786	C	-0.330687	-0.352715	0.078660
C787	C	-0.323214	-0.329245	0.100489
H788	H	-0.323545	-0.370027	0.080691
H789	H	-0.360910	-0.366711	0.087856
H790	H	-0.312671	-0.337326	0.052622
H791	H	-0.341234	-0.344634	0.126528
H792	H	-0.292994	-0.315252	0.091298
H793	H	0.167477	-0.248833	0.184031
O794	O	-0.379983	-0.210367	0.111145
C795	C	-0.403482	-0.197144	0.136543
H796	H	-0.420116	-0.213811	0.167262
H797	H	-0.429693	-0.201540	0.132601
C798	C	-0.350845	-0.133776	0.090386
C799	C	-0.371272	-0.154245	0.128116
H800	H	-0.330977	-0.107314	0.085187
H801	H	-0.335013	-0.142685	0.073274
H802	H	-0.372692	-0.137444	0.087106
H803	H	-0.349426	-0.150581	0.131395
H804	H	-0.387099	-0.145335	0.145229
H805	H	0.437704	0.310998	-0.308766
O806	O	-0.663829	-0.210368	0.394941
C807	C	-0.625198	-0.197142	0.358225
H808	H	-0.626351	-0.222646	0.349426
H809	H	-0.595003	-0.179146	0.358804
C810	C	-0.620815	-0.141230	0.340032
C811	C	-0.622233	-0.172555	0.329223
H812	H	-0.618984	-0.126062	0.322142
H813	H	-0.646840	-0.150139	0.364768
H814	H	-0.595653	-0.126238	0.340514
H815	H	-0.647398	-0.187550	0.328745
H816	H	-0.596212	-0.163648	0.304485
H817	H	0.102623	0.268466	0.500992
H818	H	-0.182059	-0.115906	-0.114213
O819	O	0.211102	-0.210632	0.110867
C820	C	0.203987	-0.186542	0.097212
H821	H	0.167106	-0.199559	0.114984
H822	H	0.216771	-0.183391	0.065965
C823	C	0.274064	-0.130913	0.078673
C824	C	0.228766	-0.146899	0.100503
H825	H	0.289350	-0.106458	0.080701
H826	H	0.278859	-0.147142	0.087871
H827	H	0.284711	-0.128290	0.052635
H828	H	0.218119	-0.149526	0.126540
H829	H	0.223970	-0.130669	0.091309
H830	H	-0.117212	-0.083598	-0.184336
H831	H	0.167516	0.097925	0.019049
O832	O	0.170397	-0.077757	-0.472158
C833	C	0.209049	-0.064401	-0.508903
H834	H	0.208001	-0.089834	-0.517808
H835	H	0.239236	-0.046376	-0.508319
C836	C	0.213195	-0.008565	-0.526865
C837	C	0.211906	-0.039803	-0.537803
H838	H	0.214959	0.006610	-0.544692
H839	H	0.187155	-0.017562	-0.502109
H840	H	0.238350	0.006452	-0.526378
H841	H	0.186748	-0.054821	-0.538285
H842	H	0.237941	-0.030808	-0.562560
O843	O	0.210981	0.171331	-0.506931
C844	C	0.245458	0.202410	-0.506846
H845	H	0.237651	0.196817	-0.476931
H846	H	0.248833	0.229717	-0.515460
C847	C	0.298691	0.213897	-0.572269
C848	C	0.289105	0.207026	-0.535528
H849	H	0.325615	0.216745	-0.589963
H850	H	0.275463	0.192959	-0.572327
H851	H	0.301501	0.236652	-0.579442
H852	H	0.286289	0.184269	-0.528354
H853	H	0.312333	0.227959	-0.535470
O854	O	0.058746	0.262996	0.471777
C855	C	0.047422	0.264898	0.508498
H856	H	0.078175	0.278984	0.508464
H857	H	0.021663	0.234746	0.530315
C858	C	-0.009466	0.271379	0.519228
C859	C	0.028306	0.288682	0.519185
H860	H	-0.021260	0.286048	0.525821
H861	H	-0.001838	0.270095	0.494489
H862	H	-0.030927	0.246252	0.537409
H863	H	0.049768	0.313806	0.501001
H864	H	0.020681	0.289970	0.543921
H865	H	0.064321	0.097912	-0.365848
H866	H	0.370892	-0.533512	-0.019136
H867	H	0.064802	-0.186523	0.019045
O868	O	0.335548	-0.113347	-0.506898
C869	C	0.304381	-0.109952	-0.506808
H870	H	0.280064	-0.112161	-0.476893
H871	H	0.285685	-0.133885	-0.515419
C872	C	0.358309	-0.068215	-0.572233
C873	C	0.328443	-0.070925	-0.535491
H874	H	0.373151	-0.044142	-0.589928
H875	H	0.379306	-0.070504	-0.572294
H876	H	0.342724	-0.088162	-0.579403
H877	H	0.344029	-0.050981	-0.528320
H878	H	0.307449	-0.068632	-0.535430
H879	H	0.102606	-0.218843	0.013783
H880	H	0.335046	0.310999	-0.308768
H881	H	-0.629125	-0.248761	0.365741
H882	H	0.205343	-0.115928	-0.501596
H883	H	-0.562304	-0.409050	0.308680
H884	H	0.370607	-0.083853	-0.468752
H885	H	-0.447603	-0.248768	0.184232
O886	O	0.440771	0.311052	-0.417384
C887	C	0.478291	0.311231	-0.430067
H888	H	0.475288	0.298876	-0.404325
H889	H	0.509250	0.341864	-0.446607
C890	C	0.485199	0.301912	-0.487970
C891	C	0.481509	0.286734	-0.456353
H892	H	0.487186	0.286802	-0.504186
H893	H	0.459922	0.301792	-0.479426
H894	H	0.510999	0.327439	-0.501748
H895	H	0.455707	0.261209	-0.442573
H896	H	0.506781	0.286848	-0.464896
H897	H	0.552629	0.098160	-0.469035
H898	H	0.370892	0.301275	-0.184323
O899	O	0.549636	0.301477	-0.359969
C900	C	0.573020	0.299571	-0.346609
H901	H	0.607360	0.309523	-0.372042
H902	H	0.554410	0.268801	-0.328583
C903	C	0.535141	0.313390	-0.290774
C904	C	0.577319	0.325616	-0.322011
H905	H	0.537791	0.329454	-0.275599
H906	H	0.519385	0.314673	-0.299774
H907	H	0.519637	0.287748	-0.275757
H908	H	0.592820	0.351256	-0.337030
H909	H	0.593077	0.324339	-0.313012
H910	H	-0.117197	0.263199	0.468949
H911	H	0.617704	0.168507	-0.398859
O912	O	0.620220	0.171254	-0.507425
C913	C	0.596731	0.145852	-0.520652
H914	H	0.562428	0.121502	-0.495149
H915	H	0.615307	0.133654	-0.538651
C916	C	0.634451	0.197383	-0.576562
C917	C	0.592317	0.167477	-0.545238
H918	H	0.631729	0.210722	-0.591730
H919	H	0.650277	0.214497	-0.567652
H920	H	0.649926	0.187213	-0.591557
H921	H	0.576845	0.177647	-0.530242
H922	H	0.576488	0.150365	-0.554147
O923	O	0.376688	-0.077996	-0.187051
C924	C	0.387999	-0.064767	-0.161648
H925	H	0.372459	-0.090269	-0.137303
H926	H	0.375208	-0.046781	-0.149441
C927	C	0.457709	-0.008842	-0.213174
C928	C	0.438626	-0.040165	-0.183275
H929	H	0.488938	0.006335	-0.226514
H930	H	0.450088	-0.017754	-0.230289
H931	H	0.447045	0.006142	-0.202997
H932	H	0.449285	-0.055151	-0.193452
H933	H	0.446249	-0.031255	-0.166162
H934	H	0.617241	0.295963	-0.398133
