data_functionalizedCrystal
_audit_creation_method	'MofGen! by Chris Wilmer'
_symmetry_space_group_name_H-M	'P1'
_symmetry_Int_Tables_number	1
_symmetry_cell_setting	triclinic
loop_
_symmetry_equiv_pos_as_xyz
  x,y,z
_cell_length_a	14.908571
_cell_length_b	18.050589
_cell_length_c	14.908308
_cell_angle_alpha	86.730698
_cell_angle_beta	89.824947
_cell_angle_gamma	86.724558
loop_
_atom_site_label
_atom_site_type_symbol
_atom_site_fract_x
_atom_site_fract_y
_atom_site_fract_z
Zn1	Zn	1.345230	-0.387558	0.587600
Zn2	Zn	1.353791	-0.505024	0.437245
Zn3	Zn	1.203548	-0.373294	0.428597
Zn4	Zn	1.194819	-0.504142	0.578897
O5	O	1.274347	-0.442504	0.508085
O6	O	1.472191	-0.409479	0.574916
O7	O	1.341097	-0.481949	0.310273
O8	O	1.222413	-0.271266	0.449712
O9	O	1.478480	-0.495781	0.464452
O10	O	1.326506	-0.281746	0.566530
O11	O	1.230714	-0.385168	0.303919
O12	O	1.076565	-0.384312	0.441273
O13	O	1.207536	-0.494277	0.705876
O14	O	1.070152	-0.480446	0.551698
O15	O	1.318042	-0.408624	0.712270
O16	O	1.332633	-0.608827	0.456013
O17	O	1.215836	-0.608179	0.560084
C18	C	1.040734	-0.430736	0.494603
C19	C	0.940791	-0.425720	0.488857
C20	C	1.274239	-0.635451	0.508063
C21	C	1.274274	-0.717999	0.508089
C22	C	0.746369	-0.516539	0.592890
C23	C	0.652464	-0.511829	0.587494
C24	C	0.659075	-0.411586	0.472674
C25	C	0.752980	-0.416296	0.478070
C26	C	0.796623	-0.468775	0.538179
C27	C	0.890530	-0.473489	0.543570
C28	C	0.897139	-0.373243	0.428755
C29	C	0.803235	-0.368533	0.423359
C30	C	1.210820	-0.917126	0.564665
C31	C	1.193639	-0.961795	0.481356
C32	C	1.274362	-0.869134	0.508106
C33	C	1.291586	-0.971550	0.591427
C34	C	1.274444	-1.015125	0.508129
C35	C	1.257140	-0.912712	0.424750
C36	C	1.355122	-0.922467	0.534880
C37	C	1.337975	-0.967112	0.451515
C38	C	1.274312	-0.785033	0.508094
C39	C	1.274495	-1.099224	0.508132
C40	C	1.508873	-0.454320	0.521619
C41	C	1.608814	-0.459355	0.527387
C42	C	1.260860	-0.452943	0.742610
C43	C	1.255113	-0.457391	0.842551
C44	C	1.274479	-0.248807	0.508127
C45	C	1.274535	-0.166265	0.508145
C46	C	1.287833	-0.432055	0.274474
C47	C	1.293755	-0.427407	0.174544
C48	C	1.359381	-0.376542	1.037010
C49	C	1.353984	-0.380719	1.130914
C50	C	1.238917	-0.469919	1.124263
C51	C	1.244314	-0.465741	1.030360
C52	C	1.304549	-0.419052	0.986737
C53	C	1.309951	-0.414880	0.892832
C54	C	1.194880	-0.504075	0.886183
C55	C	1.189483	-0.508252	0.980086
H56	H	0.926063	-0.516221	0.592512
H57	H	0.938067	-0.334352	0.384203
O58	O	1.436492	-0.901506	0.561855
C59	C	1.527785	-0.799672	0.591362
C60	C	1.435599	-0.823308	0.560766
H61	H	1.527088	-0.736449	0.590510
H62	H	1.582155	-0.821090	0.543871
H63	H	1.542339	-0.823991	0.662425
H64	H	1.420959	-0.798998	0.489719
H65	H	1.381280	-0.801902	0.608317
H66	H	1.150234	-0.538692	0.845240
H67	H	0.781904	-0.559273	0.641828
O68	O	1.308825	-1.002104	0.675539
C69	C	1.261224	-1.011354	0.830185
C70	C	1.241616	-0.976691	0.734978
H71	H	1.206888	-0.990833	0.878264
H72	H	1.329488	-0.994456	0.853534
H73	H	1.261784	-1.074486	0.829225
H74	H	1.241009	-0.913556	0.735863
H75	H	1.173367	-0.993648	0.711667
O76	O	0.603783	-0.558304	0.640677
C77	C	0.607137	-0.658193	0.755177
C78	C	0.662377	-0.605617	0.694979
H79	H	0.654486	-0.696448	0.799109
H80	H	0.565547	-0.692982	0.711340
H81	H	0.560470	-0.624028	0.799694
H82	H	0.709094	-0.639724	0.650453
H83	H	0.703908	-0.570826	0.738869
O84	O	1.402234	-0.993048	0.394466
C85	C	1.559777	-1.001554	0.357374
C86	C	1.487100	-0.972120	0.422040
H87	H	1.628411	-0.984658	0.379655
H88	H	1.545037	-0.977105	0.286400
H89	H	1.559688	-1.064743	0.358227
H90	H	1.487149	-0.908935	0.421265
H91	H	1.501867	-0.996625	0.492983
H92	H	0.623524	-0.368856	0.423742
O93	O	0.760695	-0.317620	0.364996
C94	C	0.618958	-0.265899	0.305843
C95	C	0.667017	-0.323604	0.371964
H96	H	0.543210	-0.270707	0.311468
H97	H	0.641498	-0.276543	0.234349
H98	H	0.636593	-0.207682	0.322809
H99	H	0.649405	-0.381843	0.355081
H100	H	0.644473	-0.312895	0.443439
H101	H	1.157015	-0.895182	0.612419
O102	O	1.130849	-0.553517	1.022417
C103	C	0.976236	-0.583184	1.042274
C104	C	1.042536	-0.531853	0.994293
H105	H	0.904822	-0.565697	1.019540
H106	H	0.981714	-0.578863	1.118032
H107	H	0.993102	-0.643036	1.024725
H108	H	1.025713	-0.471980	1.011769
H109	H	1.037045	-0.536239	0.918547
O110	O	1.239727	-0.882299	0.340607
C111	C	1.207773	-0.904755	0.186472
C112	C	1.227508	-0.939297	0.281712
H113	H	1.197869	-0.950820	0.138833
H114	H	1.266610	-0.871206	0.162323
H115	H	1.144160	-0.866654	0.187770
H116	H	1.291093	-0.977430	0.280489
H117	H	1.168620	-0.972801	0.305823
H118	H	1.125381	-0.979255	0.458730
O119	O	1.368479	-0.369465	0.850594
C120	C	1.482071	-0.281460	0.867108
C121	C	1.415814	-0.332853	0.915052
H122	H	1.520373	-0.251858	0.919201
H123	H	1.443381	-0.238551	0.820798
H124	H	1.531559	-0.315972	0.825825
H125	H	1.366311	-0.298402	0.956383
H126	H	1.454564	-0.375764	0.961309
O127	O	1.417914	-0.331132	0.994770
C128	C	1.531523	-0.243142	1.011276
C129	C	1.465259	-0.294525	1.059224
H130	H	1.569833	-0.213543	1.063366
H131	H	1.492838	-0.200229	0.964965
H132	H	1.581003	-0.277660	0.969992
H133	H	1.415764	-0.260067	1.100556
H134	H	1.504003	-0.337440	1.105481
H135	H	1.398631	-0.346101	1.171843
O136	O	1.180473	-0.515243	1.166790
C137	C	1.121097	-0.561140	1.308509
C138	C	1.187346	-0.509799	1.260463
H139	H	1.126618	-0.556745	1.384250
H140	H	1.137891	-0.621020	1.291029
H141	H	1.049683	-0.543623	1.285803
H142	H	1.258783	-0.527249	1.283142
H143	H	1.170474	-0.449931	1.277943
