data_functionalizedCrystal
_audit_creation_method	'MofGen! by Chris Wilmer'
_symmetry_space_group_name_H-M	'P1'
_symmetry_Int_Tables_number	1
_symmetry_cell_setting	triclinic
loop_
_symmetry_equiv_pos_as_xyz
  x,y,z
_cell_length_a	12.594516
_cell_length_b	12.594517
_cell_length_c	12.594509
_cell_angle_alpha	90.021327
_cell_angle_beta	89.973801
_cell_angle_gamma	89.984147
loop_
_atom_site_label
_atom_site_type_symbol
_atom_site_fract_x
_atom_site_fract_y
_atom_site_fract_z
Zn1	Zn	-0.423716	-1.627267	-0.601875
Zn2	Zn	-0.601726	-1.627158	-0.423903
Zn3	Zn	-0.423761	-1.449271	-0.423904
Zn4	Zn	-0.601652	-1.449253	-0.601833
O5	O	-0.512714	-1.538237	-0.512879
O6	O	-0.447341	-1.776198	-0.578284
O7	O	-0.578169	-1.603522	-0.274957
O8	O	-0.274809	-1.472936	-0.447530
O9	O	-0.578124	-1.776118	-0.447528
O10	O	-0.274776	-1.603709	-0.578285
O11	O	-0.447419	-1.472830	-0.274958
O12	O	-0.447347	-1.300323	-0.447489
O13	O	-0.577998	-1.472905	-0.750784
O14	O	-0.578042	-1.300310	-0.578213
O15	O	-0.447269	-1.603691	-0.750815
O16	O	-0.750662	-1.603505	-0.447488
O17	O	-0.750608	-1.472799	-0.578212
C18	C	-0.512692	-1.261696	-0.512847
C19	C	-0.512709	-1.143391	-0.512859
C20	C	-0.789255	-1.538167	-0.512868
C21	C	-0.907560	-1.538235	-0.512899
C22	C	-0.512620	-1.538308	-0.790500
C23	C	-0.512581	-1.538339	-0.908805
C24	C	-0.976822	-1.467137	-0.583950
C25	C	-1.047688	-1.441204	-0.486827
C26	C	-1.047494	-1.564265	-0.610039
C27	C	-0.976867	-1.512250	-0.415725
C28	C	-0.976667	-1.635357	-0.539002
C29	C	-1.047500	-1.609460	-0.441812
C30	C	-0.235093	-1.538336	-0.512912
C31	C	-0.116787	-1.538378	-0.512927
C32	C	-0.512736	-1.815858	-0.512911
C33	C	-0.512745	-1.934163	-0.512924
C34	C	-0.441526	-1.074114	-0.441894
C35	C	-0.538615	-1.003303	-0.415718
C36	C	-0.415668	-1.003403	-0.539054
C37	C	-0.609849	-1.074138	-0.486632
C38	C	-0.486836	-1.074244	-0.610013
C39	C	-0.583991	-1.003465	-0.583874
C40	C	-0.583644	-1.467227	-0.978042
C41	C	-0.609650	-1.564347	-1.048833
C42	C	-0.486510	-1.441294	-1.048813
C43	C	-0.538638	-1.635510	-0.978038
C44	C	-0.415453	-1.512391	-0.978012
C45	C	-0.441422	-1.609579	-1.048772
C46	C	-0.512730	-1.538227	-0.236338
C47	C	-0.512470	-1.538403	-0.118033
H48	H	-0.945788	-1.406905	-0.643949
H49	H	-1.078906	-1.359136	-0.464772
C50	C	-0.760636	-1.177912	-0.539803
C51	C	-0.720688	-1.115899	-0.456625
H52	H	-0.829059	-1.203698	-0.521271
H53	H	-0.765630	-1.135965	-0.602260
H54	H	-0.714318	-1.236140	-0.552274
H55	H	-0.767003	-1.057665	-0.444158
H56	H	-0.715701	-1.157847	-0.394149
C57	C	-0.277582	-1.380934	-0.971630
C58	C	-0.304669	-1.482679	-0.935969
H59	H	-0.209192	-1.362582	-0.945664
H60	H	-0.276888	-1.380106	-1.047037
H61	H	-0.328290	-1.331111	-0.946355
H62	H	-0.253965	-1.532504	-0.961250
H63	H	-0.305355	-1.483515	-0.860545
H64	H	-0.643833	-1.407136	-0.946986
C65	C	-0.639101	-0.999251	-0.766305
C66	C	-0.665365	-0.961845	-0.664927
H67	H	-0.689345	-0.973560	-0.816337
H68	H	-0.570233	-0.974893	-0.785045
H69	H	-0.639933	-1.074671	-0.766288
H70	H	-0.664525	-0.886424	-0.664943
H71	H	-0.734251	-0.986198	-0.646182
C72	C	-0.485107	-0.898490	-0.265749
C73	C	-0.568133	-0.961226	-0.304832
H74	H	-0.503313	-0.872511	-0.197290
H75	H	-0.422314	-0.940005	-0.261061
H76	H	-0.473401	-0.840394	-0.312385
H77	H	-0.579834	-1.019326	-0.258199
H78	H	-0.630944	-0.919708	-0.309514
H79	H	-1.078338	-1.669647	-0.381669
C80	C	-0.277053	-0.998799	-0.669924
C81	C	-0.304866	-0.961452	-0.568938
H82	H	-0.208651	-0.972895	-0.688367
H83	H	-0.276081	-1.074206	-0.669472
H84	H	-0.327559	-0.974606	-0.720425
H85	H	-0.254364	-0.985652	-0.518436
H86	H	-0.305830	-0.886028	-0.569383
H87	H	-0.464899	-1.105429	-0.692122
H88	H	-0.945451	-1.717406	-0.561104
H89	H	-0.945972	-1.490197	-0.333563
H90	H	-1.078518	-1.586224	-0.692178
H91	H	-0.381389	-1.105135	-0.381807
C92	C	-0.258903	-1.664532	-1.053076
C93	C	-0.360227	-1.690891	-1.090427
H94	H	-0.208783	-1.714739	-1.078785
H95	H	-0.240265	-1.595653	-1.077453
H96	H	-0.258944	-1.665346	-0.977655
H97	H	-0.360189	-1.690070	-1.165848
H98	H	-0.378870	-1.759788	-1.066055
H99	H	-0.464506	-1.359198	-1.079902
C100	C	-0.794820	-1.519420	-1.055145
C101	C	-0.720466	-1.594022	-1.090840
H102	H	-0.863231	-1.537733	-1.081082
H103	H	-0.795822	-1.518983	-0.979737
H104	H	-0.775839	-1.450951	-1.080425
H105	H	-0.739442	-1.662490	-1.065552
H106	H	-0.719466	-1.594470	-1.166264
H107	H	-0.560736	-1.717631	-0.947080
