data_functionalizedCrystal
_audit_creation_method	'MofGen! by Chris Wilmer'
_symmetry_space_group_name_H-M	'P1'
_symmetry_Int_Tables_number	1
_symmetry_cell_setting	triclinic
loop_
_symmetry_equiv_pos_as_xyz
  x,y,z
_cell_length_a	18.101398
_cell_length_b	18.101395
_cell_length_c	18.101389
_cell_angle_alpha	90.016841
_cell_angle_beta	90.024327
_cell_angle_gamma	90.026371
loop_
_atom_site_label
_atom_site_type_symbol
_atom_site_fract_x
_atom_site_fract_y
_atom_site_fract_z
Zn1	Zn	1.132121	-0.295001	0.418847
Zn2	Zn	1.382121	-0.045001	0.668847
Zn3	Zn	1.632121	0.204999	0.918847
Zn4	Zn	1.882121	0.454999	1.168847
Zn5	Zn	1.132017	-0.418826	0.295009
Zn6	Zn	1.382017	-0.168826	0.545009
Zn7	Zn	1.632017	0.081174	0.795009
Zn8	Zn	1.882017	0.331174	1.045009
Zn9	Zn	1.008280	-0.294993	0.295008
Zn10	Zn	1.258280	-0.044993	0.545008
Zn11	Zn	1.508280	0.205007	0.795008
Zn12	Zn	1.758280	0.455007	1.045008
Zn13	Zn	1.008231	-0.418795	0.418797
Zn14	Zn	1.258231	-0.168795	0.668797
Zn15	Zn	1.508231	0.081205	0.918797
Zn16	Zn	1.758231	0.331205	1.168797
O17	O	1.070162	-0.356904	0.356915
O18	O	1.320162	-0.106904	0.606915
O19	O	1.570162	0.143096	0.856915
O20	O	1.820162	0.393096	1.106915
O21	O	1.235740	-0.311443	0.402440
O22	O	1.485740	-0.061443	0.652440
O23	O	1.735740	0.188557	0.902440
O24	O	1.985740	0.438557	1.152440
O25	O	1.115580	-0.402410	0.191376
O26	O	1.365580	-0.152410	0.441376
O27	O	1.615580	0.097590	0.691376
O28	O	1.865580	0.347590	0.941376
O29	O	1.024772	-0.191361	0.311456
O30	O	1.274772	0.058639	0.561456
O31	O	1.524772	0.308639	0.811456
O32	O	1.774772	0.558639	1.061456
O33	O	1.235664	-0.402417	0.311457
O34	O	1.485664	-0.152417	0.561457
O35	O	1.735664	0.097583	0.811457
O36	O	1.985664	0.347583	1.061457
O37	O	1.115757	-0.191367	0.402440
O38	O	1.365757	0.058633	0.652440
O39	O	1.615757	0.308633	0.902440
O40	O	1.865757	0.558633	1.152440
O41	O	1.024671	-0.311430	0.191375
O42	O	1.274671	-0.061430	0.441375
O43	O	1.524671	0.188570	0.691375
O44	O	1.774671	0.438570	0.941375
O45	O	0.904641	-0.311399	0.311408
O46	O	1.154641	-0.061399	0.561408
O47	O	1.404641	0.188601	0.811408
O48	O	1.654641	0.438601	1.061408
O49	O	1.024688	-0.402363	0.522437
O50	O	1.274688	-0.152363	0.772437
O51	O	1.524688	0.097637	1.022437
O52	O	1.774688	0.347637	1.272437
O53	O	0.904604	-0.402356	0.402355
O54	O	1.154604	-0.152356	0.652355
O55	O	1.404604	0.097644	0.902355
O56	O	1.654604	0.347644	1.152355
O57	O	1.115710	-0.311412	0.522473
O58	O	1.365710	-0.061412	0.772473
O59	O	1.615710	0.188588	1.022473
O60	O	1.865710	0.438588	1.272473
O61	O	1.115532	-0.522455	0.311409
O62	O	1.365532	-0.272455	0.561409
O63	O	1.615532	-0.022455	0.811409
O64	O	1.865532	0.227545	1.061409
O65	O	1.024587	-0.522432	0.402356
O66	O	1.274587	-0.272432	0.652356
O67	O	1.524587	-0.022432	0.902356
O68	O	1.774587	0.227568	1.152356
C69	C	0.877752	-0.356874	0.356877
C70	C	1.127752	-0.106874	0.606877
C71	C	1.377752	0.143126	0.856877
C72	C	1.627752	0.393126	1.106877
C73	C	0.795437	-0.356879	0.356878
C74	C	1.045437	-0.106879	0.606878
C75	C	1.295437	0.143121	0.856878
C76	C	1.545437	0.393121	1.106878
C77	C	0.496347	-0.356925	0.356940
C78	C	0.746347	-0.106925	0.606940
C79	C	0.996347	0.143075	0.856940
C80	C	1.246347	0.393075	1.106940
C81	C	0.527670	-0.299412	0.299997
C82	C	0.777670	-0.049412	0.549997
C83	C	1.027670	0.200588	0.799997
C84	C	1.277670	0.450588	1.049997
C85	C	0.613288	-0.299566	0.299754
C86	C	0.863288	-0.049566	0.549754
C87	C	1.113288	0.200434	0.799754
C88	C	1.363288	0.450434	1.049754
C89	C	0.644729	-0.356901	0.356909
C90	C	0.894729	-0.106901	0.606909
C91	C	1.144729	0.143099	0.856909
C92	C	1.394729	0.393099	1.106909
C93	C	0.613611	-0.434909	0.335587
C94	C	0.863611	-0.184909	0.585587
C95	C	1.113611	0.065091	0.835587
C96	C	1.363611	0.315091	1.085587
C97	C	0.527966	-0.434590	0.335191
C98	C	0.777966	-0.184590	0.585191
C99	C	1.027966	0.065410	0.835191
C100	C	1.277966	0.315410	1.085191
C101	C	0.527961	-0.337109	0.435339
C102	C	0.777961	-0.087109	0.685339
C103	C	1.027961	0.162891	0.935339
C104	C	1.277961	0.412891	1.185339
C105	C	0.613612	-0.335371	0.434911
C106	C	0.863612	-0.085371	0.684911
C107	C	1.113612	0.164629	0.934911
C108	C	1.363612	0.414629	1.184911
C109	C	0.728589	-0.356893	0.356893
C110	C	0.978589	-0.106893	0.606893
C111	C	1.228589	0.143107	0.856893
C112	C	1.478589	0.393107	1.106893
C113	C	0.412487	-0.356939	0.356954
C114	C	0.662487	-0.106939	0.606954
C115	C	0.912487	0.143061	0.856954
C116	C	1.162487	0.393061	1.106954
C117	C	1.070063	-0.549314	0.356893
C118	C	1.320063	-0.299314	0.606893
C119	C	1.570063	-0.049314	0.856893
C120	C	1.820063	0.200686	1.106893
C121	C	1.070088	-0.631628	0.356909
C122	C	1.320088	-0.381628	0.606909
C123	C	1.570088	-0.131628	0.856909
C124	C	1.820088	0.118372	1.106909
C125	C	1.070251	-0.930719	0.356949
C126	C	1.320251	-0.680719	0.606949
C127	C	1.570251	-0.430719	0.856949
C128	C	1.820251	-0.180719	1.106949
C129	C	1.013163	-0.899410	0.414312
C130	C	1.263163	-0.649410	0.664312
C131	C	1.513163	-0.399410	0.914312
C132	C	1.763163	-0.149410	1.164312
C133	C	1.012892	-0.813792	0.414133
C134	C	1.262892	-0.563792	0.664133
C135	C	1.512892	-0.313792	0.914133
C136	C	1.762892	-0.063792	1.164133
C137	C	1.070170	-0.782337	0.356930
C138	C	1.320170	-0.532337	0.606930
C139	C	1.570170	-0.282337	0.856930
C140	C	1.820170	-0.032337	1.106930
C141	C	1.049041	-0.813472	0.278878
C142	C	1.299041	-0.563472	0.528878
C143	C	1.549041	-0.313472	0.778878
C144	C	1.799041	-0.063472	1.028878
C145	C	1.048673	-0.899117	0.279221
C146	C	1.298673	-0.649117	0.529221
C147	C	1.548673	-0.399117	0.779221
C148	C	1.798673	-0.149117	1.029221
C149	C	1.148593	-0.899073	0.376950
C150	C	1.398593	-0.649073	0.626950
C151	C	1.648593	-0.399073	0.876950
C152	C	1.898593	-0.149073	1.126950
C153	C	1.148132	-0.813422	0.378661
C154	C	1.398132	-0.563422	0.628661
C155	C	1.648132	-0.313422	0.878661
C156	C	1.898132	-0.063422	1.128661
C157	C	1.070126	-0.698477	0.356914
C158	C	1.320126	-0.448477	0.606914
C159	C	1.570126	-0.198477	0.856914
C160	C	1.820126	0.051523	1.106914
C161	C	1.070293	-1.014579	0.356959
C162	C	1.320293	-0.764579	0.606959
C163	C	1.570293	-0.514579	0.856959
C164	C	1.820293	-0.264579	1.106959
C165	C	1.263324	-0.356934	0.356954
C166	C	1.513324	-0.106934	0.606954
C167	C	1.763324	0.143066	0.856954
C168	C	2.013324	0.393066	1.106954
C169	C	1.345638	-0.356948	0.356971
C170	C	1.595638	-0.106948	0.606971
C171	C	1.845638	0.143052	0.856971
C172	C	2.095638	0.393052	1.106971
C173	C	1.070205	-0.356885	0.550077
C174	C	1.320205	-0.106885	0.800077
C175	C	1.570205	0.143115	1.050077
C176	C	1.820205	0.393115	1.300077
C177	C	1.070223	-0.356877	0.632391
C178	C	1.320223	-0.106877	0.882391
C179	C	1.570223	0.143123	1.132391
C180	C	1.820223	0.393123	1.382391
C181	C	1.070282	-0.163742	0.356953
C182	C	1.320282	0.086258	0.606953
C183	C	1.570282	0.336258	0.856953
C184	C	1.820282	0.586258	1.106953
C185	C	1.070333	-0.081428	0.356970
C186	C	1.320333	0.168572	0.606970
C187	C	1.570333	0.418572	0.856970
C188	C	1.820333	0.668572	1.106970
C189	C	1.070162	-0.356869	0.164505
C190	C	1.320162	-0.106869	0.414505
C191	C	1.570162	0.143131	0.664505
C192	C	1.820162	0.393131	0.914505
C193	C	1.070287	-0.356668	0.082191
C194	C	1.320287	-0.106668	0.332191
C195	C	1.570287	0.143332	0.582191
C196	C	1.820287	0.393332	0.832191
C197	C	1.070266	-0.356738	0.931482
C198	C	1.320266	-0.106738	1.181482
C199	C	1.570266	0.143262	1.431482
C200	C	1.820266	0.393262	1.681482
C201	C	1.012801	-0.413780	0.900134
C202	C	1.262801	-0.163780	1.150134
C203	C	1.512801	0.086220	1.400134
C204	C	1.762801	0.336220	1.650134
C205	C	1.012956	-0.414045	0.814516
C206	C	1.262956	-0.164045	1.064516
C207	C	1.512956	0.085955	1.314516
C208	C	1.762956	0.335955	1.564516
C209	C	1.070244	-0.356807	0.783100
C210	C	1.320244	-0.106807	1.033100
C211	C	1.570244	0.143193	1.283100
C212	C	1.820244	0.393193	1.533100
C213	C	1.148270	-0.377998	0.814206
C214	C	1.398270	-0.127998	1.064206
C215	C	1.648270	0.122002	1.314206
C216	C	1.898270	0.372002	1.564206
C217	C	1.147949	-0.378372	0.899851
C218	C	1.397949	-0.128372	1.149851
C219	C	1.647949	0.121628	1.399851
C220	C	1.897949	0.371628	1.649851
C221	C	1.050385	-0.278379	0.899905
C222	C	1.300385	-0.028379	1.149905
C223	C	1.550385	0.221621	1.399905
C224	C	1.800385	0.471621	1.649905
C225	C	1.048649	-0.278832	0.814254
C226	C	1.298649	-0.028832	1.064254
C227	C	1.548649	0.221168	1.314254
C228	C	1.798649	0.471168	1.564254
C229	C	1.070237	-0.356845	0.699240
C230	C	1.320237	-0.106845	0.949240
C231	C	1.570237	0.143155	1.199240
C232	C	1.820237	0.393155	1.449240
C233	C	1.070279	-0.356702	1.015342
C234	C	1.320279	-0.106702	1.265342
C235	C	1.570279	0.143298	1.515342
C236	C	1.820279	0.393298	1.765342
H237	H	0.507954	-0.451397	0.277877
H238	H	0.757954	-0.201397	0.527877
H239	H	1.007954	0.048603	0.777877
H240	H	1.257954	0.298603	1.027877
O241	O	0.640558	-0.259334	0.456219
O242	O	0.890558	-0.009334	0.706219
O243	O	1.140558	0.240666	0.956219
O244	O	1.390558	0.490666	1.206219
H245	H	0.675970	-0.236964	0.411449
H246	H	0.925970	0.013036	0.661449
H247	H	1.175970	0.263036	0.911449
H248	H	1.425970	0.513036	1.161449
O249	O	0.641976	-0.457557	0.260488
O250	O	0.891976	-0.207557	0.510488
O251	O	1.141976	0.042443	0.760488
O252	O	1.391976	0.292443	1.010488
H253	H	0.673925	-0.509628	0.265616
H254	H	0.923925	-0.259628	0.515616
H255	H	1.173925	-0.009628	0.765616
H256	H	1.423925	0.240372	1.015616
O257	O	1.100046	-0.219541	0.785939
O258	O	1.350046	0.030459	1.035939
O259	O	1.600046	0.280459	1.285939
O260	O	1.850046	0.530459	1.535939
H261	H	1.141976	-0.244838	0.749059
H262	H	1.391976	0.005162	0.999059
H263	H	1.641976	0.255162	1.249059
H264	H	1.891976	0.505162	1.499059
H265	H	1.192217	-0.338629	0.920590
H266	H	1.442217	-0.088629	1.170590
H267	H	1.692217	0.161371	1.420590
H268	H	1.942217	0.411371	1.670590
O269	O	1.169249	-0.786466	0.454747
O270	O	1.419249	-0.536466	0.704747
O271	O	1.669249	-0.286466	0.954747
O272	O	1.919249	-0.036466	1.204747
H273	H	1.221150	-0.753982	0.451232
H274	H	1.471150	-0.503982	0.701232
H275	H	1.721150	-0.253982	0.951232
H276	H	1.971150	-0.003982	1.201232
O277	O	1.105824	-0.222083	0.926763
O278	O	1.355824	0.027917	1.176763
O279	O	1.605824	0.277917	1.426763
O280	O	1.855824	0.527917	1.676763
H281	H	1.133928	-0.196569	0.878619
H282	H	1.383928	0.053431	1.128619
H283	H	1.633928	0.303431	1.378619
H284	H	1.883928	0.553431	1.628619
O285	O	0.936706	-0.927978	0.396984
O286	O	1.186706	-0.677978	0.646984
O287	O	1.436706	-0.427978	0.896984
O288	O	1.686706	-0.177978	1.146984
H289	H	0.939188	-0.964378	0.347692
H290	H	1.189188	-0.714378	0.597692
H291	H	1.439188	-0.464378	0.847692
H292	H	1.689188	-0.214378	1.097692
O293	O	1.102382	-0.786482	0.220717
O294	O	1.352382	-0.536482	0.470717
O295	O	1.602382	-0.286482	0.720717
O296	O	1.852382	-0.036482	0.970717
H297	H	1.129868	-0.834551	0.194398
H298	H	1.379868	-0.584551	0.444398
H299	H	1.629868	-0.334551	0.694398
H300	H	1.879868	-0.084551	0.944398
H301	H	0.506120	-0.312363	0.242242
H302	H	0.756120	-0.062363	0.492242
H303	H	1.006120	0.187637	0.742242
H304	H	1.256120	0.437637	0.992242
O305	O	0.500514	-0.493277	0.387725
O306	O	0.750514	-0.243277	0.637725
O307	O	1.000514	0.006723	0.887725
O308	O	1.250514	0.256723	1.137725
H309	H	0.439196	-0.493485	0.387839
H310	H	0.689196	-0.243485	0.637839
H311	H	0.939196	0.006515	0.887839
H312	H	1.189196	0.256515	1.137839
H313	H	1.088449	-0.919830	0.235023
H314	H	1.338449	-0.669830	0.485023
H315	H	1.588449	-0.419830	0.735023
H316	H	1.838449	-0.169830	0.985023
H317	H	1.167856	-0.920633	0.432895
H318	H	1.417856	-0.670633	0.682895
H319	H	1.667856	-0.420633	0.932895
H320	H	1.917856	-0.170633	1.182895
O321	O	0.641936	-0.386831	0.494124
O322	O	0.891936	-0.136831	0.744124
O323	O	1.141936	0.113169	0.994124
O324	O	1.391936	0.363169	1.244124
H325	H	0.678797	-0.428744	0.468769
H326	H	0.928797	-0.178744	0.718769
H327	H	1.178797	0.071256	0.968769
H328	H	1.428797	0.321256	1.218769
O329	O	0.935980	-0.786719	0.396564
O330	O	1.185980	-0.536719	0.646564
O331	O	1.435980	-0.286719	0.896564
O332	O	1.685980	-0.036719	1.146564
H333	H	0.898836	-0.834799	0.388157
H334	H	1.148836	-0.584799	0.638157
H335	H	1.398836	-0.334799	0.888157
H336	H	1.648836	-0.084799	1.138157
H337	H	0.994478	-0.259074	0.921490
H338	H	1.244478	-0.009074	1.171490
H339	H	1.494478	0.240926	1.421490
H340	H	1.744478	0.490926	1.671490
H341	H	1.164804	-0.435654	0.919836
H342	H	1.414804	-0.185654	1.169836
H343	H	1.664804	0.064346	1.419836
H344	H	1.914804	0.314346	1.669836
H345	H	0.634329	-0.241719	0.313119
H346	H	0.884329	0.008281	0.563119
H347	H	1.134329	0.258281	0.813119
H348	H	1.384329	0.508281	1.063119
H349	H	1.026082	-0.472127	0.794035
H350	H	1.276082	-0.222127	1.044035
H351	H	1.526082	0.027873	1.294035
H352	H	1.776082	0.277873	1.544035
H353	H	1.192236	-0.337757	0.793859
H354	H	1.442236	-0.087757	1.043859
H355	H	1.692236	0.162243	1.293859
H356	H	1.942236	0.412243	1.543859
H357	H	0.991406	-0.919153	0.262279
H358	H	1.241406	-0.669153	0.512279
H359	H	1.491406	-0.419153	0.762279
H360	H	1.741406	-0.169153	1.012279
H361	H	1.192915	-0.792007	0.339927
H362	H	1.442915	-0.542007	0.589927
H363	H	1.692915	-0.292007	0.839927
H364	H	1.942915	-0.042007	1.089927
O365	O	0.972591	-0.257661	0.787321
O366	O	1.222591	-0.007661	1.037321
O367	O	1.472591	0.242339	1.287321
O368	O	1.722591	0.492339	1.537321
H369	H	0.957735	-0.202493	0.809581
H370	H	1.207735	0.047507	1.059581
H371	H	1.457735	0.297507	1.309581
H372	H	1.707735	0.547507	1.559581
H373	H	0.507705	-0.378999	0.477766
H374	H	0.757705	-0.128999	0.727766
H375	H	1.007705	0.121001	0.977766
H376	H	1.257705	0.371001	1.227766
H377	H	0.954768	-0.400655	0.920720
H378	H	1.204768	-0.150655	1.170720
H379	H	1.454768	0.099345	1.420720
H380	H	1.704768	0.349345	1.670720
H381	H	1.025796	-0.471508	0.921661
H382	H	1.275796	-0.221508	1.171661
H383	H	1.525796	0.028492	1.421661
H384	H	1.775796	0.278492	1.671661
O385	O	0.973985	-0.785146	0.256028
O386	O	1.223985	-0.535146	0.506028
O387	O	1.473985	-0.285146	0.756028
O388	O	1.723985	-0.035146	1.006028
H389	H	0.951611	-0.748903	0.300131
H390	H	1.201611	-0.498903	0.550131
H391	H	1.451611	-0.248903	0.800131
H392	H	1.701611	0.001097	1.050131
O393	O	1.170987	-0.453070	0.785818
O394	O	1.420987	-0.203070	1.035818
O395	O	1.670987	0.046930	1.285818
O396	O	1.920987	0.296930	1.535818
H397	H	1.126836	-0.475409	0.749563
H398	H	1.376836	-0.225409	0.999563
H399	H	1.626836	0.024591	1.249563
H400	H	1.876836	0.274591	1.499563
H401	H	0.955097	-0.400784	0.793483
H402	H	1.205097	-0.150784	1.043483
H403	H	1.455097	0.099216	1.293483
H404	H	1.705097	0.349216	1.543483
H405	H	0.633741	-0.312665	0.241661
H406	H	0.883741	-0.062665	0.491661
H407	H	1.133741	0.187335	0.741661
H408	H	1.383741	0.437335	0.991661
O409	O	0.500377	-0.222557	0.317460
O410	O	0.750377	0.027443	0.567460
O411	O	1.000377	0.277443	0.817460
O412	O	1.250377	0.527443	1.067460
H413	H	0.464196	-0.224526	0.366912
H414	H	0.714196	0.025474	0.616912
H415	H	0.964196	0.275474	0.866912
H416	H	1.214196	0.525474	1.116912
O417	O	1.204975	-0.926055	0.321733
O418	O	1.454975	-0.676055	0.571733
O419	O	1.704975	-0.426055	0.821733
O420	O	1.954975	-0.176055	1.071733
H421	H	1.177378	-0.961810	0.280228
H422	H	1.427378	-0.711810	0.530228
H423	H	1.677378	-0.461810	0.780228
H424	H	1.927378	-0.211810	1.030228
O425	O	0.640580	-0.493199	0.388800
O426	O	0.890580	-0.243199	0.638800
O427	O	1.140580	0.006801	0.888800
O428	O	1.390580	0.256801	1.138800
H429	H	0.701845	-0.495297	0.387412
H430	H	0.951845	-0.245297	0.637412
H431	H	1.201845	0.004703	0.887412
H432	H	1.451845	0.254703	1.137412
H433	H	1.026111	-0.792740	0.472007
H434	H	1.276111	-0.542740	0.722007
H435	H	1.526111	-0.292740	0.972007
H436	H	1.776111	-0.042740	1.222007
O437	O	0.499400	-0.263068	0.461021
O438	O	0.749400	-0.013068	0.711021
O439	O	0.999400	0.236932	0.961021
O440	O	1.249400	0.486932	1.211021
H441	H	0.438192	-0.264854	0.464233
H442	H	0.688192	-0.014854	0.714233
H443	H	0.938192	0.235146	0.964233
H444	H	1.188192	0.485146	1.214233
H445	H	1.026252	-0.919970	0.472374
H446	H	1.276252	-0.669970	0.722374
H447	H	1.526252	-0.419970	0.972374
H448	H	1.776252	-0.169970	1.222374
