data_functionalizedCrystal
_audit_creation_method	'MofGen! by Chris Wilmer'
_symmetry_space_group_name_H-M	'P1'
_symmetry_Int_Tables_number	1
_symmetry_cell_setting	triclinic
loop_
_symmetry_equiv_pos_as_xyz
  x,y,z
_cell_length_a	6.817900
_cell_length_b	16.306099
_cell_length_c	16.305550
_cell_angle_alpha	95.377095
_cell_angle_beta	103.455250
_cell_angle_gamma	103.465342
loop_
_atom_site_label
_atom_site_type_symbol
_atom_site_fract_x
_atom_site_fract_y
_atom_site_fract_z
V1	V	-4.026242	-0.117433	-0.263339
O2	O	-4.013841	0.004911	-0.258011
O3	O	-3.977690	-0.232145	-0.261841
O4	O	-3.977649	-0.115948	-0.378053
O5	O	-4.013883	-0.112091	-0.140996
V6	V	-4.509915	-0.102761	-0.248669
O7	O	-4.287172	-0.149616	-0.295519
O8	O	-4.699183	-0.070578	-0.216489
O9	O	-4.335261	0.011951	-0.250167
O10	O	-4.639713	-0.225104	-0.253997
O11	O	-4.639671	-0.108103	-0.371013
O12	O	-4.335303	-0.104246	-0.133956
C13	C	-3.822660	-0.260099	-0.257765
C14	C	-3.864249	-0.353879	-0.257305
C15	C	-3.940317	-0.525576	-0.256434
C16	C	-4.176204	-0.566502	-0.261357
C17	C	-4.219361	-0.663995	-0.260545
C18	C	-4.015214	-0.694623	-0.255578
C19	C	-3.847661	-0.643781	-0.172400
C20	C	-3.805831	-0.546231	-0.172859
C21	C	-3.886227	-0.571637	-0.334028
C22	C	-3.934127	-0.669482	-0.334692
C23	C	-4.057530	-0.790160	-0.255091
C24	C	-3.897992	-0.430037	-0.256915
C25	C	-3.822606	-0.111877	-0.406003
C26	C	-3.864158	-0.111422	-0.499784
C27	C	-4.015245	-0.109659	-0.840524
C28	C	-3.779197	-0.104424	-0.799582
C29	C	-3.736003	-0.105247	-0.702089
C30	C	-3.940287	-0.110533	-0.671479
C31	C	-4.107318	-0.193849	-0.722324
C32	C	-4.149182	-0.193378	-0.819872
C33	C	-4.070002	-0.032243	-0.794478
C34	C	-4.022073	-0.031584	-0.696634
C35	C	-3.897938	-0.111030	-0.575942
C36	C	-4.057604	-0.109168	-0.936062
C37	C	-4.153633	0.039901	-0.254241
C38	C	-4.091283	0.133680	-0.254707
C39	C	-4.153687	-0.108319	-0.106001
C40	C	-4.091374	-0.108770	-0.012220
H41	H	-4.220813	-0.534831	-0.205603
C42	C	-4.390760	-0.711522	-0.341313
H43	H	-4.434589	-0.671281	-0.374917
H44	H	-4.336936	-0.748256	-0.373522
H45	H	-4.506534	-0.744337	-0.325327
C46	C	-4.010227	-0.553785	-0.419183
H47	H	-4.096162	-0.518073	-0.408207
H48	H	-3.915740	-0.526116	-0.448816
H49	H	-4.095314	-0.606152	-0.453053
H50	H	-4.055571	-0.704012	-0.396217
H51	H	-3.734105	-0.160044	-0.831240
C52	C	-3.646276	-0.181252	-0.680272
H53	H	-3.636131	-0.211751	-0.731028
H54	H	-3.511407	-0.160805	-0.641593
H55	H	-3.735971	-0.218106	-0.654746
C56	C	-4.308401	-0.685799	-0.184361
H57	H	-4.318288	-0.635036	-0.153783
H58	H	-4.443318	-0.724470	-0.204654
H59	H	-4.218489	-0.711328	-0.147629
H60	H	-3.673060	-0.044237	-0.811788
H61	H	-3.786993	-0.690855	-0.335969
C62	C	-3.653958	-0.535417	-0.330166
H63	H	-3.590192	-0.492434	-0.281532
H64	H	-3.585524	-0.579974	-0.326229
H65	H	-3.642871	-0.511477	-0.380347
H66	H	-3.901028	0.030042	-0.662094
C67	C	-4.100350	-0.272544	-0.861131
H68	H	-4.125463	-0.272957	-0.920993
H69	H	-3.957988	-0.270809	-0.837521
H70	H	-4.187509	-0.322711	-0.850340
C71	C	-4.221038	-0.030171	-0.667790
H72	H	-4.266900	0.018164	-0.683811
H73	H	-4.327578	-0.080751	-0.694236
H74	H	-4.191374	-0.027045	-0.607523
H75	H	-3.841473	-0.515686	-0.114128
C76	C	-3.921840	-0.666269	-0.093048
H77	H	-4.054808	-0.706603	-0.110434
H78	H	-3.824269	-0.690017	-0.058083
H79	H	-3.932248	-0.616056	-0.061680
C80	C	-3.565097	-0.024331	-0.654560
H81	H	-3.521494	0.009339	-0.694798
H82	H	-3.619220	0.007746	-0.617834
H83	H	-3.449102	-0.040162	-0.621737
H84	H	-3.632090	-0.518234	-0.165792
C85	C	-4.384014	-0.203260	-0.857719
H86	H	-4.453433	-0.207551	-0.813465
H87	H	-4.402374	-0.154944	-0.883877
H88	H	-4.441122	-0.253407	-0.899156
H89	H	-4.242067	-0.035337	-0.821302
H90	H	-4.282728	-0.554292	-0.321427
C91	C	-3.640867	-0.669321	-0.163406
H92	H	-3.541779	-0.637823	-0.112704
H93	H	-3.664727	-0.728640	-0.160646
H94	H	-3.588498	-0.657241	-0.211318
C95	C	-4.314215	-0.203156	-0.696798
H96	H	-4.300530	-0.156202	-0.654801
H97	H	-4.423220	-0.204217	-0.745616
H98	H	-4.346514	-0.254788	-0.674210
C99	C	-4.032437	-0.273044	-0.699829
H100	H	-3.899493	-0.255508	-0.659489
H101	H	-4.129807	-0.308146	-0.676086
H102	H	-4.021768	-0.304329	-0.750038
C103	C	-3.946521	0.053039	-0.812304
H104	H	-3.860406	0.042226	-0.847999
H105	H	-4.041279	0.082548	-0.839979
H106	H	-3.861645	0.086947	-0.759925
