data_functionalizedCrystal
_audit_creation_method	'MofGen! by Chris Wilmer'
_symmetry_space_group_name_H-M	'P1'
_symmetry_Int_Tables_number	1
_symmetry_cell_setting	triclinic
loop_
_symmetry_equiv_pos_as_xyz
  x,y,z
_cell_length_a	15.537862
_cell_length_b	14.853567
_cell_length_c	14.750779
_cell_angle_alpha	77.343152
_cell_angle_beta	82.427466
_cell_angle_gamma	114.550318
loop_
_atom_site_label
_atom_site_type_symbol
_atom_site_fract_x
_atom_site_fract_y
_atom_site_fract_z
O1	O	1.229181	0.266540	0.079817
O2	O	0.955044	0.162466	0.079818
O3	O	1.099434	0.348137	0.079820
O4	O	1.084790	0.080869	0.079814
O5	O	1.140252	0.400620	-0.079830
O6	O	0.995861	0.214949	-0.079832
O7	O	1.269998	0.319023	-0.079833
Zn8	Zn	1.139410	0.275319	-0.105180
Zn9	Zn	1.085632	0.206170	0.105165
O10	O	1.125608	0.133352	-0.079835
C11	C	1.119179	0.407749	-0.000002
C12	C	1.117188	0.507176	0.000006
C13	C	0.940369	0.177818	-0.000007
C14	C	0.835832	0.145382	-0.000006
C15	C	1.284672	0.303670	-0.000006
C16	C	1.389207	0.336104	-0.000001
C17	C	1.547662	0.467577	0.000008
C18	C	1.449434	0.437090	0.000003
C19	C	1.427194	0.265566	-0.000005
C20	C	1.525424	0.296040	-0.000004
C21	C	1.585650	0.397046	0.000003
C22	C	1.563412	0.225509	-0.000009
C23	C	1.661631	0.255979	-0.000004
C24	C	1.721863	0.356980	0.000006
C25	C	1.683870	0.427516	0.000008
C26	C	1.503182	0.124501	-0.000010
C27	C	1.541170	0.053970	-0.000015
C28	C	1.639393	0.084442	-0.000017
C29	C	1.699625	0.185443	-0.000006
C30	C	1.677386	0.013906	-0.000019
C31	C	1.775606	0.044376	-0.000014
C32	C	1.797844	0.215913	-0.000001
C33	C	1.105863	0.073740	-0.000011
C34	C	1.107852	-0.025690	-0.000013
N35	N	1.176120	0.322513	-0.248735
C36	C	1.023015	0.888779	-0.000012
C37	C	1.194555	0.966410	-0.000012
C38	C	1.196423	0.872989	-0.000006
C39	C	1.111587	0.787458	-0.000005
C40	C	1.024882	0.795349	-0.000009
C41	C	1.283129	0.865094	-0.000012
C42	C	1.285002	0.771668	-0.000008
C43	C	1.200162	0.686133	0.000001
C44	C	1.113453	0.694028	-0.000002
C45	C	1.028616	0.608497	-0.000000
C46	C	0.941905	0.616388	0.000003
C47	C	0.940042	0.709814	-0.000000
C48	C	1.202025	0.592707	0.000005
C49	C	1.030483	0.515067	0.000002
C50	C	0.946405	0.027217	-0.600557
C51	C	0.972136	0.060285	-0.701056
C52	C	1.100020	0.224660	-0.701017
C53	C	1.074297	0.191608	-0.600516
C54	C	0.997490	0.092886	-0.550294
C55	C	1.125381	0.257277	-0.550253
C56	C	1.099664	0.224225	-0.449761
C57	C	1.022861	0.125505	-0.399532
C58	C	0.971772	0.059834	-0.449802
C59	C	1.202193	0.355996	-0.600476
C60	C	1.253277	0.421664	-0.550213
C61	C	1.227555	0.388616	-0.449719
C62	C	1.150753	0.289896	-0.399491
C63	C	1.278645	0.454287	-0.399449
C64	C	1.252927	0.421236	-0.298957
C65	C	1.125035	0.256845	-0.298999
N66	N	1.048930	0.158985	0.248720
H67	H	1.846886	0.298165	-0.000001
H68	H	0.872833	0.546739	-0.000002
H69	H	1.162560	0.305040	-0.741919
H70	H	1.596704	0.549828	0.000008
H71	H	0.961396	0.445428	0.000008
H72	H	1.294527	0.474710	-0.258032
F73	F	1.826397	0.389408	0.000017
F74	F	0.995495	0.090328	-0.292578
H75	H	1.263627	1.036056	-0.000021
F76	F	1.747975	0.535023	0.000005
F77	F	0.847765	0.718220	0.000007
F78	F	0.930733	0.897175	0.000001
H79	H	0.909221	-0.020551	-0.408910
H80	H	1.223132	0.382901	-0.682303
H81	H	1.352201	0.934740	-0.000022
H82	H	0.883854	-0.053168	-0.559665
F83	F	0.917758	-0.009621	-0.754543
F84	F	1.398647	0.092073	-0.000014
H85	H	1.355607	0.765254	-0.000010
F86	F	1.294306	0.584316	-0.000015
H87	H	1.315817	0.502044	-0.591115
H88	H	1.062484	0.176459	-0.258106
F89	F	1.613274	-0.093593	-0.000012
F90	F	1.409012	0.512171	-0.000004
F91	F	1.363087	0.158069	-0.000007
F92	F	1.360395	0.559347	-0.452909
H93	H	1.492120	-0.028271	-0.000017
H94	H	1.806538	-0.013055	-0.000026
