data_functionalizedCrystal
_audit_creation_method	'MofGen! by Chris Wilmer'
_symmetry_space_group_name_H-M	'P1'
_symmetry_Int_Tables_number	1
_symmetry_cell_setting	triclinic
loop_
_symmetry_equiv_pos_as_xyz
  x,y,z
_cell_length_a	13.032721
_cell_length_b	13.033304
_cell_length_c	13.032268
_cell_angle_alpha	90.922231
_cell_angle_beta	103.289627
_cell_angle_gamma	74.816908
loop_
_atom_site_label
_atom_site_type_symbol
_atom_site_fract_x
_atom_site_fract_y
_atom_site_fract_z
Zn1	Zn	-0.335813	-1.451133	-0.818131
Zn2	Zn	-0.490910	-1.451019	-0.663066
Zn3	Zn	-0.330110	-1.301797	-0.623681
Zn4	Zn	-0.535896	-1.250931	-0.818005
O5	O	-0.423183	-1.363720	-0.730721
O6	O	-0.339947	-1.597353	-0.814097
O7	O	-0.448366	-1.452464	-0.511621
O8	O	-0.179836	-1.342943	-0.633046
O9	O	-0.453897	-1.597269	-0.700172
O10	O	-0.184026	-1.452659	-0.775907
O11	O	-0.330227	-1.342832	-0.482685
O12	O	-0.373848	-1.148815	-0.632923
O13	O	-0.530569	-1.256248	-0.964242
O14	O	-0.525038	-1.111443	-0.775692
O15	O	-0.383568	-1.403335	-0.964335
O16	O	-0.647909	-1.403141	-0.700049
O17	O	-0.680960	-1.256137	-0.813882
C18	C	-0.453707	-1.092212	-0.700021
C19	C	-0.466795	-0.976052	-0.686914
C20	C	-0.416366	-0.924277	-0.737549
C21	C	-0.429892	-0.804220	-0.724004
C22	C	-0.703595	-1.324132	-0.761252
C23	C	-0.823551	-1.307287	-0.774359
C24	C	-0.860644	-1.372560	-0.723934
C25	C	-0.984625	-1.355151	-0.737479
C26	C	-0.141675	-1.403488	-0.700097
C27	C	-0.021713	-1.420434	-0.687047
C28	C	-0.462723	-1.324130	-1.003262
C29	C	-0.479572	-1.307259	-1.119403
C30	C	-0.392534	-0.636290	-0.761534
C31	C	-0.379456	-0.752448	-0.774646
C32	C	-0.414352	-1.372514	-1.171228
C33	C	-0.431765	-1.355079	-1.291266
C34	C	-0.383712	-1.403227	-0.459238
C35	C	-0.366535	-1.420343	-0.343088
H36	H	-0.363174	-0.968833	-0.790922
H37	H	-0.500493	-1.286294	-1.335758
H38	H	-0.345619	-1.441285	-1.126729
H39	H	-0.961688	-1.489214	-0.633849
N40	N	-0.275491	-1.511450	-1.284156
H41	H	-0.286589	-1.581016	-1.313359
H42	H	-0.202971	-1.503289	-1.292884
N43	N	-1.064121	-1.264040	-0.807947
H44	H	-1.053536	-1.272092	-0.882320
H45	H	-1.141384	-1.264562	-0.807548
H46	H	-0.800617	-1.441336	-0.670739
H47	H	-0.883581	-1.238519	-0.827562
H48	H	-0.548295	-1.238479	-1.163899
H49	H	-0.483080	-0.759669	-0.670621
H50	H	-0.519979	-0.931497	-0.633535
N51	N	-0.308988	-0.811448	-0.845349
H52	H	-0.309309	-0.888850	-0.845003
H53	H	-0.338853	-0.779219	-0.919662
