data_functionalizedCrystal
_audit_creation_method	'MofGen! by Chris Wilmer'
_symmetry_space_group_name_H-M	'P1'
_symmetry_Int_Tables_number	1
_symmetry_cell_setting	triclinic
loop_
_symmetry_equiv_pos_as_xyz
  x,y,z
_cell_length_a	19.288864
_cell_length_b	15.538191
_cell_length_c	18.366186
_cell_angle_alpha	89.995484
_cell_angle_beta	89.977106
_cell_angle_gamma	65.204172
loop_
_atom_site_label
_atom_site_type_symbol
_atom_site_fract_x
_atom_site_fract_y
_atom_site_fract_z
O1	O	0.891965	0.117639	-0.060769
O2	O	0.685740	0.133508	-0.060717
O3	O	0.828996	-0.011726	-0.060756
O4	O	0.748709	0.262873	-0.060729
O5	O	0.828980	-0.011734	0.060343
O6	O	0.685724	0.133501	0.060382
O7	O	0.891949	0.117632	0.060331
Zn8	Zn	0.788834	0.125565	0.079584
Zn9	Zn	0.788855	0.125574	-0.079970
O10	O	0.748693	0.262866	0.060370
C11	C	0.659983	0.132994	-0.000161
C12	C	0.583263	0.131461	-0.000142
C13	C	0.517278	0.216678	-0.000145
C14	C	0.445191	0.215238	-0.000153
C15	C	0.439092	0.128576	-0.000173
C16	C	0.505089	0.043348	-0.000166
C17	C	0.577175	0.044790	-0.000150
C18	C	0.347855	0.060453	-0.042631
C19	C	0.275770	0.059014	-0.042651
C20	C	0.216759	0.124123	-0.000218
C21	C	0.229837	0.190688	0.042226
C22	C	0.301922	0.192131	0.042242
C23	C	0.360931	0.127002	-0.000189
C24	C	0.072607	0.207785	-0.000228
C25	C	0.000520	0.206341	-0.000232
C26	C	0.060421	0.034449	-0.000252
C27	C	0.132506	0.035895	-0.000241
C28	C	0.138594	0.122565	-0.000233
C29	C	0.837388	-0.046861	-0.000211
C30	C	0.862409	-0.151541	-0.000225
C31	C	0.613831	-0.438277	-0.000147
C32	C	0.637359	-0.536642	-0.000151
C33	C	0.769703	-0.559647	-0.000185
C34	C	0.746185	-0.461281	-0.000184
C35	C	0.668248	-0.400603	-0.000164
C36	C	0.800603	-0.423608	-0.000201
C37	C	0.777087	-0.325251	-0.000197
C38	C	0.699153	-0.264567	-0.000175
C39	C	0.644732	-0.302246	-0.000160
C40	C	0.878540	-0.484287	-0.000216
C41	C	0.932957	-0.446614	-0.000233
C42	C	0.909441	-0.348255	-0.000234
C43	C	0.831508	-0.287571	-0.000212
C44	C	0.963863	-0.310576	-0.000249
C45	C	0.940346	-0.212219	-0.000244
C46	C	0.807992	-0.189214	-0.000207
C47	C	0.917706	0.118146	-0.000227
C48	C	0.994427	0.119679	-0.000251
C49	C	0.740301	0.298001	-0.000177
C50	C	0.715280	0.402681	-0.000168
N51	N	0.788824	0.125558	0.188475
N52	N	0.788872	0.125574	-0.188861
C53	C	0.852266	0.061280	0.226558
C54	C	0.852271	0.061276	0.302786
C55	C	0.788838	0.125566	0.340928
C56	C	0.725386	0.189849	0.302835
C57	C	0.725380	0.189845	0.226609
C58	C	0.758075	0.211489	0.461698
C59	C	0.758086	0.211494	0.537923
C60	C	0.788855	0.125578	0.576035
C61	C	0.819627	0.039653	0.537913
C62	C	0.819621	0.039649	0.461687
C63	C	0.788838	0.125577	0.423582
C64	C	0.852306	0.061290	0.696773
C65	C	0.852307	0.061284	0.773002
C66	C	0.725423	0.189866	0.773051
C67	C	0.725421	0.189863	0.696823
C68	C	0.788866	0.125576	0.658689
H69	H	0.630903	-0.024606	-0.000148
C70	C	0.922069	-0.009429	0.344685
N71	N	0.974642	-0.062680	0.376242
H72	H	0.996414	-0.496031	-0.000246
H73	H	0.673717	0.242189	0.195601
C74	C	0.079306	0.303123	-0.000210
N75	N	0.084350	0.374933	-0.000195
C76	C	0.205093	-0.057852	-0.000246
N77	N	0.259767	-0.128467	-0.000249
C78	C	0.853461	-0.054867	0.419756
N79	N	0.878945	-0.126058	0.388173
H80	H	0.500120	-0.027213	-0.000192
C81	C	0.528095	-0.371525	-0.000126
N82	N	0.463522	-0.321248	-0.000107
C83	C	0.261393	-0.014213	-0.089334
N84	N	0.250568	-0.069373	-0.124495
H85	H	-0.053208	0.275738	-0.000230
C86	C	0.412761	-0.011174	-0.089317
N87	N	0.461647	-0.065121	-0.124481
C88	C	0.577489	-0.578078	-0.000136
N89	N	0.532395	-0.609287	-0.000125
H90	H	0.744528	-0.139806	-0.000197
H91	H	0.055457	-0.036113	-0.000313
H92	H	0.680008	-0.184479	-0.000167
H93	H	0.581268	-0.252838	-0.000149
C94	C	0.853473	-0.054863	0.579831
N95	N	0.878966	-0.126050	0.611407
H96	H	0.897684	-0.564375	-0.000226
C97	C	0.372596	0.308987	-0.000165
N98	N	0.317920	0.379599	-0.000178
C99	C	0.922093	-0.009447	0.814893
N100	N	0.974656	-0.062727	0.846446
H101	H	0.833159	-0.609064	-0.000198
C102	C	0.655663	0.260643	0.654930
N103	N	0.603128	0.313979	0.623376
H104	H	1.027319	-0.359994	-0.000258
H105	H	0.984659	-0.181545	-0.000258
H106	H	0.903925	0.008931	0.195511
H107	H	0.903965	0.008940	0.665723
H108	H	0.673773	0.242208	0.804105
H109	H	0.733034	0.281459	0.568956
H110	H	0.673737	0.242194	0.333894
C111	C	0.316308	0.265341	0.088937
N112	N	0.327145	0.320481	0.124111
C113	C	0.724226	0.306010	0.419782
N114	N	0.698731	0.377201	0.388212
C115	C	0.164930	0.262312	0.088909
N116	N	0.116039	0.316257	0.124069
H117	H	0.522228	0.287252	-0.000140
