data_functionalizedCrystal
_audit_creation_method	'MofGen! by Chris Wilmer'
_symmetry_space_group_name_H-M	'P1'
_symmetry_Int_Tables_number	1
_symmetry_cell_setting	triclinic
loop_
_symmetry_equiv_pos_as_xyz
  x,y,z
_cell_length_a	17.699104
_cell_length_b	12.996460
_cell_length_c	17.699083
_cell_angle_alpha	89.992964
_cell_angle_beta	83.287266
_cell_angle_gamma	89.992694
loop_
_atom_site_label
_atom_site_type_symbol
_atom_site_fract_x
_atom_site_fract_y
_atom_site_fract_z
O1	O	-1.004067	0.085610	-0.095788
O2	O	-0.783691	0.085603	-0.108224
O3	O	-0.900105	0.085597	0.008183
O4	O	-0.887653	0.085615	-0.212194
O5	O	-0.900093	-0.085536	0.008189
O6	O	-0.783679	-0.085531	-0.108217
O7	O	-1.004055	-0.085524	-0.095781
Cu8	Cu	-0.893866	-0.101153	-0.101999
Cu9	Cu	-0.893880	0.101232	-0.102006
O10	O	-0.887641	-0.085519	-0.212188
C11	C	-0.755488	0.000035	-0.107772
C12	C	-0.671471	0.000032	-0.106427
C13	C	-0.146600	0.000038	-0.167171
C14	C	-0.225543	0.000042	-0.168430
C15	C	-0.274161	0.000037	-0.100095
C16	C	-0.243831	0.000038	-0.030496
C17	C	-0.164889	0.000041	-0.029238
C18	C	-0.562197	0.000029	-0.035569
C19	C	-0.641144	0.000023	-0.036833
C20	C	-0.622852	0.000030	-0.174762
C21	C	-0.543909	0.000033	-0.173503
C22	C	-0.513587	0.000039	-0.103905
C23	C	-0.427987	0.000036	-0.102541
C24	C	-0.359759	0.000033	-0.101459
N25	N	-0.893861	-0.243500	-0.101993
C26	C	-0.893879	-0.663315	-0.102007
C27	C	-0.893872	-0.546510	-0.102006
C28	C	-0.893870	-0.453411	-0.102001
C29	C	-0.893862	-0.336599	-0.101998
C30	C	-0.032258	0.000041	-0.096233
C31	C	-0.116275	0.000036	-0.097578
C32	C	-0.899653	0.000030	0.036383
C33	C	-0.898314	0.000030	0.120402
N34	N	-0.893890	0.243579	-0.102006
C35	C	-0.888093	0.000051	-0.240388
C36	C	-0.889431	0.000058	-0.324406
C37	C	-0.966647	0.000030	0.169017
C38	C	-0.965385	0.000040	0.247961
C39	C	-0.895789	0.000041	0.278287
C40	C	-0.827451	0.000043	0.229665
C41	C	-0.828714	0.000041	0.150723
C42	C	-0.822356	0.000051	0.548028
C43	C	-0.821098	0.000050	0.626976
C44	C	-0.959026	0.000049	0.645266
C45	C	-0.960289	0.000048	0.566324
C46	C	-0.891952	0.000056	0.517709
C47	C	-0.893321	0.000048	0.432110
C48	C	-0.894419	0.000041	0.363885
H49	H	-0.504328	0.000031	-0.229149
C50	C	-1.044000	0.088025	0.347329
C51	C	-1.040501	0.000044	0.301395
H52	H	-1.090379	0.088031	0.380312
H53	H	-1.002379	0.088021	0.376688
H54	H	-1.041626	0.147691	0.316134
H55	H	-1.042869	-0.059623	0.332590
H56	H	-1.082133	0.000039	0.272033
H57	H	-0.107020	0.000034	-0.222818
C58	C	-0.691237	0.000058	0.203650
C59	C	-0.750948	0.000052	0.262996
H60	H	-0.644007	0.000069	0.224228
H61	H	-0.694590	-0.059617	0.173248
H62	H	-0.694612	0.059739	0.173234
H63	H	-0.747577	-0.059634	0.293409
H64	H	-0.747593	0.059733	0.293411
C65	C	-0.190895	0.000026	0.106977
C66	C	-0.131553	0.000035	0.047262
H67	H	-0.170314	0.000021	0.154205
H68	H	-0.221311	0.059699	0.103614
H69	H	-0.221298	-0.059658	0.103616
H70	H	-0.101153	0.059724	0.050620
H71	H	-0.101124	-0.059643	0.050626
H72	H	-1.023320	0.000023	0.144333
C73	C	-1.096504	0.000060	0.592335
C74	C	-1.036791	0.000052	0.532991
H75	H	-1.143733	0.000072	0.571755
H76	H	-1.093143	-0.059615	0.622747
H77	H	-1.093140	0.059742	0.622741
H78	H	-1.040152	-0.059634	0.502588
H79	H	-1.040154	0.059733	0.502566
H80	H	-0.773070	0.000041	0.111140
H81	H	-1.014670	0.000048	0.684858
H82	H	-0.766711	0.000057	0.508455
H83	H	-0.647550	0.000029	-0.231432
H84	H	-0.250230	0.000054	-0.225100
H85	H	-0.537518	0.000031	0.021102
C86	C	-0.740550	0.087996	0.041756
C87	C	-0.694590	0.000027	0.038285
H88	H	-0.773547	0.087992	0.088126
H89	H	-0.709381	0.147664	0.039379
H90	H	-0.769902	0.087978	0.000121
H91	H	-0.665234	0.000049	0.079917
H92	H	-0.725763	-0.059657	0.040670
C93	C	-0.684876	0.000079	0.600971
C94	C	-0.744592	0.000065	0.660312
H95	H	-0.637649	0.000094	0.621553
H96	H	-0.688223	-0.059596	0.570567
H97	H	-0.688251	0.059761	0.570556
H98	H	-0.741220	-0.059621	0.690724
H99	H	-0.741243	0.059746	0.690729
H100	H	-0.283422	0.000041	0.025143
