data_functionalizedCrystal
_audit_creation_method	'MofGen! by Chris Wilmer'
_symmetry_space_group_name_H-M	'P1'
_symmetry_Int_Tables_number	1
_symmetry_cell_setting	triclinic
loop_
_symmetry_equiv_pos_as_xyz
  x,y,z
_cell_length_a	10.540510
_cell_length_b	12.837932
_cell_length_c	11.892095
_cell_angle_alpha	94.305320
_cell_angle_beta	86.061900
_cell_angle_gamma	89.671507
loop_
_atom_site_label
_atom_site_type_symbol
_atom_site_fract_x
_atom_site_fract_y
_atom_site_fract_z
O1	O	1.709280	0.139496	-0.094003
O2	O	1.341379	0.153305	-0.094003
O3	O	1.517170	-0.004562	-0.094004
O4	O	1.533488	0.297363	-0.094002
O5	O	1.502511	0.008580	0.094004
O6	O	1.326719	0.166447	0.094005
O7	O	1.694620	0.152638	0.094005
Zn8	Zn	1.508342	0.161629	0.123855
Zn9	Zn	1.527657	0.144314	-0.123853
O10	O	1.518829	0.310505	0.094006
C11	C	1.504329	-0.036653	-0.000002
C12	C	1.487890	-0.151850	-0.000010
C13	C	1.286633	0.158847	0.000001
C14	C	1.145344	0.155768	0.000001
C15	C	1.350488	-0.302698	-0.000009
C16	C	1.365926	-0.194459	-0.000011
C17	C	1.594424	-0.217489	-0.000011
C18	C	1.578986	-0.325728	-0.000010
C19	C	1.457014	-0.368328	-0.000006
C20	C	1.441576	-0.476569	0.000004
C21	C	1.670073	-0.499597	-0.000005
C22	C	1.685511	-0.391358	-0.000007
C23	C	0.939973	0.265407	-0.000431
C24	C	1.086895	0.268721	-0.000000
C25	C	1.085860	0.105451	0.107359
C26	C	0.938820	0.102973	0.107442
C27	C	0.955426	0.085676	-0.106357
C28	C	1.102466	0.090935	-0.107770
C29	C	1.749367	0.147096	-0.000001
C30	C	1.890655	0.150174	-0.000009
C31	C	1.531670	0.342595	0.000002
C32	C	1.548110	0.457792	0.000002
N33	N	1.495170	0.173446	0.292909
N34	N	1.540838	0.132489	-0.292907
C35	C	1.632492	0.050203	0.529556
C36	C	1.623295	0.058470	0.647898
C37	C	1.467572	0.198242	0.647937
C38	C	1.476769	0.189975	0.529595
C39	C	1.559233	0.115954	0.470409
C40	C	1.568437	0.107692	0.352065
C41	C	1.412708	0.247458	0.352106
C42	C	1.403510	0.255726	0.470448
H43	H	1.342260	-0.511251	0.000016
H44	H	0.906162	0.018832	0.112319
N45	N	1.319262	0.331327	0.530895
N46	N	1.202683	0.328073	0.517696
H47	H	1.143179	0.381468	0.560385
H48	H	1.699647	-0.010061	0.481366
H49	H	1.251173	-0.337382	0.000014
N50	N	1.121223	0.332566	0.096726
N51	N	1.185054	0.294520	0.168722
H52	H	1.209279	0.339619	0.237042
N53	N	1.257101	-0.127435	-0.000024
N54	N	1.148212	-0.165490	-0.000028
H55	H	1.071348	-0.118155	-0.000041
N56	N	1.718998	-0.173948	-0.000040
N57	N	1.732759	-0.077306	-0.000058
H58	H	1.820741	-0.046553	-0.000082
N59	N	1.652584	0.032035	0.291584
N60	N	1.638119	-0.062947	0.304805
H61	H	1.697518	-0.116398	0.262080
N62	N	0.900932	0.313854	-0.097021
N63	N	0.836300	0.264024	-0.166676
H64	H	0.808719	0.298239	-0.234896
H65	H	1.682947	0.004928	0.696053
H66	H	1.400422	0.258502	0.696142
H67	H	1.353059	0.301000	0.303935
N68	N	1.810087	-0.347822	-0.000021
N69	N	1.823858	-0.251180	-0.000029
H70	H	1.911842	-0.220433	-0.000037
H71	H	1.756814	-0.553045	-0.000002
N72	N	1.133494	0.001500	0.112394
N73	N	1.192393	-0.021418	0.195014
H74	H	1.226045	-0.094831	0.198569
N75	N	1.137462	0.318724	-0.096548
N76	N	1.064234	0.351414	-0.164719
H77	H	1.099940	0.386734	-0.232909
H78	H	0.896688	0.148098	0.187695
N79	N	0.883933	0.327000	0.095613
N80	N	0.807832	0.286396	0.164371
H81	H	0.768252	0.329892	0.232205
H82	H	0.923137	0.115608	-0.187730
N83	N	1.122274	0.162850	0.207582
N84	N	1.092935	0.257392	0.225700
H85	H	1.118650	0.297937	0.296480
H86	H	1.141900	0.127453	-0.187193
H87	H	1.142978	0.008017	-0.114253
N88	N	0.916057	-0.020786	-0.107297
N89	N	0.996809	-0.092081	-0.104609
H90	H	0.969006	-0.167268	-0.105270
