data_functionalizedCrystal
_audit_creation_method	'MofGen! by Chris Wilmer'
_symmetry_space_group_name_H-M	'P1'
_symmetry_Int_Tables_number	1
_symmetry_cell_setting	triclinic
loop_
_symmetry_equiv_pos_as_xyz
  x,y,z
_cell_length_a	10.540539
_cell_length_b	9.065218
_cell_length_c	7.540329
_cell_angle_alpha	89.995865
_cell_angle_beta	89.998539
_cell_angle_gamma	84.770688
loop_
_atom_site_label
_atom_site_type_symbol
_atom_site_fract_x
_atom_site_fract_y
_atom_site_fract_z
O1	O	0.186143	1.959469	-0.147523
O2	O	0.201412	1.530108	-0.147515
O3	O	0.009107	1.754584	-0.147517
O4	O	0.378448	1.734993	-0.147521
O5	O	0.009105	1.754570	0.147448
O6	O	0.201409	1.530094	0.147450
O7	O	0.186141	1.959455	0.147442
Cu8	Cu	0.193775	1.744773	0.174379
Cu9	Cu	0.193778	1.744789	-0.174451
O10	O	0.378445	1.734979	0.147444
C11	C	-0.038202	1.753108	-0.000037
C12	C	-0.179167	1.748712	-0.000047
C13	C	0.187610	2.014441	-0.000045
C14	C	0.191997	2.178262	-0.000060
C15	C	0.199943	1.475122	-0.000031
C16	C	0.195556	1.311301	-0.000028
C17	C	-0.363216	1.580278	-0.000706
C18	C	-0.216582	1.584734	-0.000042
C19	C	-0.240534	1.827618	0.168391
C20	C	-0.387099	1.822022	0.168533
C21	C	-0.387602	1.825372	-0.166897
C22	C	-0.240615	1.826883	-0.169124
C23	C	0.425755	1.736455	-0.000039
C24	C	0.566719	1.740851	-0.000041
N25	N	0.193772	1.744773	0.419727
N26	N	0.193771	1.744801	-0.419800
H27	H	-0.174207	1.522646	-0.120785
H28	H	-0.434632	1.939952	0.176173
N29	N	-0.399389	1.499039	-0.152251
N30	N	-0.477235	1.558528	-0.261534
H31	H	-0.502788	1.501155	-0.368573
H32	H	-0.198138	1.772795	0.293739
N33	N	-0.211951	1.978689	0.176297
N34	N	-0.300219	2.080598	0.175757
H35	H	-0.280031	2.187293	0.181345
H36	H	-0.393663	1.515761	0.119410
N37	N	-0.164499	1.506285	0.151690
N38	N	-0.236465	1.448078	0.257434
H39	H	-0.199684	1.392672	0.364605
N40	N	-0.427445	1.758831	-0.327061
N41	N	-0.543364	1.751478	-0.356784
H42	H	-0.571506	1.704474	-0.469894
N43	N	-0.422736	1.748850	0.326493
N44	N	-0.339398	1.702261	0.435861
H45	H	-0.364559	1.650580	0.547424
H46	H	-0.434390	1.943813	-0.168032
H47	H	-0.199969	1.769148	-0.293730
H48	H	-0.215951	1.946436	-0.179298
