data_functionalizedCrystal
_audit_creation_method	'MofGen! by Chris Wilmer'
_symmetry_space_group_name_H-M	'P1'
_symmetry_Int_Tables_number	1
_symmetry_cell_setting	triclinic
loop_
_symmetry_equiv_pos_as_xyz
  x,y,z
_cell_length_a	13.897449
_cell_length_b	18.101395
_cell_length_c	13.897441
_cell_angle_alpha	90.030698
_cell_angle_beta	90.020733
_cell_angle_gamma	90.032384
loop_
_atom_site_label
_atom_site_type_symbol
_atom_site_fract_x
_atom_site_fract_y
_atom_site_fract_z
Zn1	Zn	1.474613	-0.294781	0.545380
Zn2	Zn	1.474469	-0.418636	0.384082
Zn3	Zn	1.313302	-0.294816	0.384099
Zn4	Zn	1.313246	-0.418588	0.545334
O5	O	1.393907	-0.356705	0.464724
O6	O	1.609575	-0.311216	0.523996
O7	O	1.453053	-0.402246	0.249102
O8	O	1.334784	-0.191178	0.405520
O9	O	1.609470	-0.402212	0.405490
O10	O	1.453298	-0.191152	0.524013
O11	O	1.334644	-0.311276	0.249115
O12	O	1.178313	-0.311229	0.405475
O13	O	1.334688	-0.402129	0.680322
O14	O	1.178272	-0.402164	0.523934
O15	O	1.453244	-0.311169	0.680356
O16	O	1.452999	-0.522263	0.405445
O17	O	1.334549	-0.522227	0.523917
C18	C	1.143293	-0.356695	0.464702
C19	C	1.036079	-0.356709	0.464715
C20	C	0.839784	-0.356712	0.464741
C21	C	0.949016	-0.356708	0.464724
C22	C	1.393778	-0.549116	0.464695
C23	C	1.393811	-0.631430	0.464716
C24	C	1.394023	-0.930521	0.464767
C25	C	1.319670	-0.899204	0.539492
C26	C	1.319317	-0.813586	0.539258
C27	C	1.393918	-0.782138	0.464743
C28	C	1.366392	-0.813295	0.363084
C29	C	1.365913	-0.898940	0.363531
C30	C	1.496064	-0.898862	0.490807
C31	C	1.495464	-0.813210	0.493037
C32	C	1.393860	-0.698279	0.464722
C33	C	1.394078	-1.014380	0.464781
C34	C	1.645500	-0.356716	0.464746
C35	C	1.752714	-0.356720	0.464756
C36	C	1.393976	-0.356640	0.716317
C37	C	1.394005	-0.356612	0.823531
C38	C	1.394063	-0.163543	0.464773
C39	C	1.394130	-0.081229	0.464795
C40	C	1.393895	-0.356717	0.214109
C41	C	1.394052	-0.356536	0.106896
C42	C	1.394031	-0.356562	1.019826
C43	C	1.394014	-0.356592	0.910594
H44	H	1.336722	-0.919748	0.615115
H45	H	1.553792	-0.791799	0.442578
O46	O	1.435866	-0.786321	0.287318
H47	H	1.396011	-0.754452	0.231959
O48	O	1.529302	-0.927388	0.587334
H49	H	1.597482	-0.958503	0.578145
O50	O	1.268633	-0.784976	0.333334
H51	H	1.219253	-0.832390	0.321893
O52	O	1.569373	-0.925776	0.418704
H53	H	1.602682	-0.877680	0.382045
O54	O	1.342070	-0.785694	0.639127
H55	H	1.414113	-0.805967	0.661255
O56	O	1.220084	-0.927784	0.516933
H57	H	1.223313	-0.964196	0.452730
O58	O	1.219139	-0.786525	0.516386
H59	H	1.170758	-0.834611	0.505441
H60	H	1.291321	-0.918985	0.341472
O61	O	1.522982	-0.786223	0.592128
H62	H	1.464588	-0.750824	0.621113
H63	H	1.417719	-0.919659	0.305957
