data_functionalizedCrystal
_audit_creation_method	'MofGen! by Chris Wilmer'
_symmetry_space_group_name_H-M	'P1'
_symmetry_Int_Tables_number	1
_symmetry_cell_setting	triclinic
loop_
_symmetry_equiv_pos_as_xyz
  x,y,z
_cell_length_a	20.299480
_cell_length_b	20.298645
_cell_length_c	20.294903
_cell_angle_alpha	60.007695
_cell_angle_beta	60.015306
_cell_angle_gamma	59.991039
loop_
_atom_site_label
_atom_site_type_symbol
_atom_site_fract_x
_atom_site_fract_y
_atom_site_fract_z
O1	O	0.091305	-0.962534	0.804873
O2	O	0.034397	-0.749399	0.648508
O3	O	0.169355	-0.884263	0.648401
O4	O	-0.043654	-0.827670	0.804979
O5	O	0.214132	-0.839502	0.693072
O6	O	0.079173	-0.704639	0.693178
O7	O	0.136081	-0.917774	0.849544
Zn8	Zn	0.114736	-0.804099	0.778453
Zn9	Zn	0.055742	-0.863073	0.719598
O10	O	0.001122	-0.782910	0.849650
N11	N	0.155000	-0.763857	0.818624
N12	N	0.015485	-0.903322	0.679427
C13	C	0.179343	-0.615641	0.842971
C14	C	0.179443	-0.739552	0.966834
C15	C	0.303264	-0.739536	0.842917
C16	C	0.179356	-0.739528	0.842952
C17	C	0.210353	-0.708565	0.873918
C18	C	-0.132622	-0.927446	0.654695
C19	C	-0.008595	-0.927622	0.530981
C20	C	-0.008820	-1.051459	0.654914
C21	C	-0.008800	-0.927618	0.654995
C22	C	-0.039709	-0.958538	0.623897
N23	N	0.376268	-0.763873	0.818558
O24	O	0.652281	-0.777347	0.619856
O25	O	0.652556	-0.934198	0.832777
O26	O	0.652445	-0.933836	0.697731
O27	O	0.652392	-0.777709	0.754902
O28	O	0.518259	-0.889182	0.742556
O29	O	0.518369	-0.889544	0.877602
O30	O	0.518095	-0.732693	0.664680
Zn31	Zn	0.496927	-0.804029	0.778258
Zn32	Zn	0.673724	-0.862862	0.719200
O33	O	0.518205	-0.733055	0.799726
N34	N	0.794383	-0.903019	0.678891
N35	N	0.154981	-0.542636	0.818657
O36	O	-0.043628	-0.266455	0.805024
O37	O	0.169291	-0.266451	0.648191
O38	O	0.034217	-0.266468	0.648577
O39	O	0.091446	-0.266438	0.804638
O40	O	0.078998	-0.400670	0.693303
O41	O	0.214071	-0.400653	0.692918
O42	O	0.001152	-0.400657	0.849750
Zn43	Zn	0.114722	-0.421963	0.778435
Zn44	Zn	0.055722	-0.245145	0.719506
O45	O	0.136226	-0.400640	0.849364
N46	N	0.015453	-0.124472	0.679286
N47	N	0.155155	-0.763898	1.039838
O48	O	0.141555	-0.962488	1.315987
O49	O	-0.015254	-0.749480	1.316022
O50	O	-0.014890	-0.884527	1.315962
O51	O	0.141192	-0.827441	1.316047
O52	O	0.029815	-0.839777	1.181768
O53	O	0.029452	-0.704730	1.181828
O54	O	0.186261	-0.917739	1.181793
Zn55	Zn	0.114954	-0.804130	1.160504
Zn56	Zn	0.056053	-0.863089	1.337311
O57	O	0.185897	-0.782692	1.181853
N58	N	0.015850	-0.903330	1.457977
C59	C	0.051451	-0.700162	0.649301
C60	C	0.218580	-0.867175	0.649169
C61	C	0.119026	-0.967011	0.848750
C62	C	-0.048103	-0.799998	0.848882
C63	C	0.585495	-0.933471	0.882014
C64	C	0.585361	-0.933023	0.714775
C65	C	0.585151	-0.733419	0.615444
C66	C	0.585291	-0.733869	0.782682
C67	C	0.218449	-0.333386	0.648902
C68	C	0.051232	-0.333573	0.649435
C69	C	-0.048061	-0.333556	0.848984
C70	C	0.119212	-0.333537	0.848507
C71	C	-0.014496	-0.700269	1.248929
C72	C	-0.014037	-0.867500	1.248828
C73	C	0.185503	-0.966949	1.248886
C74	C	0.185054	-0.799709	1.248957
H75	H	0.279759	-0.879241	0.599998
C76	C	0.585552	-0.998510	0.698458
C77	C	0.654651	-1.066007	0.707304
C78	C	0.654860	-1.126345	0.692268
H79	H	0.538849	-1.013337	0.735679
H80	H	0.585539	-0.978829	0.645025
H81	H	0.654657	-1.085686	0.760728
H82	H	0.701365	-1.051206	0.670085
H83	H	0.654847	-1.106663	0.638835
H84	H	0.608154	-1.141164	0.729491
H85	H	0.701746	-1.172145	0.698260
C86	C	0.585163	-0.667721	0.533907
C87	C	0.654148	-0.646200	0.498484
C88	C	0.654180	-0.585675	0.423377
H89	H	0.585187	-0.687123	0.499910
H90	H	0.538366	-0.621850	0.540990
H91	H	0.700933	-0.692062	0.491398
H92	H	0.654139	-0.626785	0.532457
H93	H	0.607383	-0.539805	0.430459
H94	H	0.654202	-0.605084	0.389387
H95	H	0.700982	-0.571061	0.399336
H96	H	0.585565	-0.982710	0.943168
H97	H	0.039295	-0.638935	0.600193
H98	H	0.585279	-0.684826	0.794916
C99	C	-0.129527	-0.333595	0.914757
C100	C	-0.129387	-0.333603	0.983680
C101	C	-0.204415	-0.333650	1.044289
H102	H	-0.170664	-0.286812	0.896374
H103	H	-0.139373	-0.380417	0.927511
H104	H	-0.119550	-0.286786	0.970926
H105	H	-0.088266	-0.380382	1.002086
H106	H	-0.214261	-0.380472	1.057043
H107	H	-0.245546	-0.286866	1.025898
H108	H	-0.204327	-0.333663	1.091062
H109	H	0.234089	-0.787495	1.248972
H110	H	0.131466	-0.333527	0.897533
C111	C	0.135085	-1.048580	0.914354
C112	C	0.066214	-1.048682	0.983413
C113	C	0.080981	-1.123806	1.043866
H114	H	0.147834	-1.089659	0.895890
H115	H	0.179067	-1.058386	0.926991
H116	H	0.022245	-1.038886	0.970776
H117	H	0.053454	-1.007619	1.001900
H118	H	0.124963	-1.133611	1.056503
H119	H	0.093730	-1.164879	1.025395
H120	H	0.034257	-1.123882	1.090732
H121	H	0.279471	-0.333012	0.599542
H122	H	0.234736	-1.028122	1.248866
H123	H	0.038975	-0.333574	0.600406
C124	C	-0.080054	-0.618660	1.248982
C125	C	-0.051150	-0.568875	1.249034
C126	C	-0.111522	-0.493695	1.249093
H127	H	-0.094764	-0.594407	1.202191
H128	H	-0.125903	-0.625689	1.295790
H129	H	-0.005315	-0.561845	1.202230
H130	H	-0.036445	-0.593103	1.295821
H131	H	-0.157372	-0.500723	1.295902
H132	H	-0.126229	-0.469449	1.202302
H133	H	-0.091922	-0.459909	1.249136
H134	H	-0.109285	-0.787936	0.898049
H135	H	-0.063051	-0.879692	1.248749
