data_functionalizedCrystal
_audit_creation_method	'MofGen! by Chris Wilmer'
_symmetry_space_group_name_H-M	'P1'
_symmetry_Int_Tables_number	1
_symmetry_cell_setting	triclinic
loop_
_symmetry_equiv_pos_as_xyz
  x,y,z
_cell_length_a	6.817900
_cell_length_b	15.185511
_cell_length_c	14.858572
_cell_angle_alpha	94.808561
_cell_angle_beta	104.524003
_cell_angle_gamma	104.265286
loop_
_atom_site_label
_atom_site_type_symbol
_atom_site_fract_x
_atom_site_fract_y
_atom_site_fract_z
V1	V	-4.042259	-0.126329	-0.290236
O2	O	-4.025441	0.005482	-0.284429
O3	O	-3.997552	-0.249923	-0.288523
O4	O	-3.998847	-0.124644	-0.416694
O5	O	-4.024138	-0.120664	-0.155370
V6	V	-4.524762	-0.110532	-0.274072
O7	O	-4.305755	-0.160980	-0.325693
O8	O	-4.711464	-0.075881	-0.238615
O9	O	-4.346263	0.013062	-0.275785
O10	O	-4.658977	-0.242343	-0.279879
O11	O	-4.660281	-0.116197	-0.408938
O12	O	-4.344968	-0.112217	-0.147614
C13	C	-3.843290	-0.280044	-0.284014
C14	C	-3.888056	-0.381085	-0.283456
C15	C	-3.865044	-0.415410	-0.197999
C16	C	-3.953124	-0.441703	-0.368392
C17	C	-3.995183	-0.536638	-0.367874
C18	C	-3.972170	-0.570962	-0.282416
C19	C	-3.907099	-0.510352	-0.197478
C20	C	-4.060236	-0.597254	-0.452810
C21	C	-4.102297	-0.692195	-0.452295
C22	C	-4.079299	-0.726521	-0.366837
C23	C	-4.014225	-0.665905	-0.281895
C24	C	-3.991213	-0.700229	-0.196438
C25	C	-3.926154	-0.639615	-0.111495
C26	C	-3.884101	-0.544678	-0.112020
C27	C	-4.121352	-0.821457	-0.366312
C28	C	-4.033268	-0.795171	-0.195916
C29	C	-3.844940	-0.120237	-0.447508
C30	C	-3.890754	-0.119678	-0.550890
C31	C	-4.058432	-0.117632	-0.929454
C32	C	-4.011770	-0.118201	-0.824126
C33	C	-3.974594	-0.118655	-0.740175
C34	C	-3.927930	-0.119223	-0.634840
C35	C	-4.163867	0.043178	-0.280291
C36	C	-4.098339	0.144219	-0.280855
C37	C	-4.162217	-0.116626	-0.116795
C38	C	-4.095642	-0.117182	-0.013412
H39	H	-4.174304	-0.870804	-0.435471
O40	O	-3.975151	-0.408401	-0.451417
C41	C	-3.838922	-0.435210	-0.498709
H42	H	-3.703555	-0.450536	-0.445626
H43	H	-3.929993	-0.499510	-0.552528
C44	C	-3.916209	-0.338107	-0.614570
C45	C	-3.749939	-0.356923	-0.549372
H46	H	-3.861326	-0.289819	-0.645826
H47	H	-4.007996	-0.320048	-0.582711
H48	H	-3.992087	-0.391696	-0.659411
H49	H	-3.674081	-0.303337	-0.504526
H50	H	-3.658136	-0.374971	-0.581225
O51	O	-3.801608	-0.356623	-0.115420
C52	C	-3.611721	-0.367394	-0.059043
H53	H	-3.596961	-0.438586	-0.081419
H54	H	-3.472775	-0.312686	-0.068036
C55	C	-3.630058	-0.269453	0.072400
C56	C	-3.611939	-0.356895	0.044922
H57	H	-3.630186	-0.262973	0.136530
H58	H	-3.757985	-0.262193	0.034417
H59	H	-3.514266	-0.223872	0.064898
H60	H	-3.727743	-0.402473	0.052413
H61	H	-3.484031	-0.364163	0.082909
O62	O	-4.165161	-0.751099	-0.534770
C63	C	-4.018823	-0.802416	-0.535139
H64	H	-3.859990	-0.763269	-0.483861
H65	H	-4.078064	-0.871831	-0.512854
C66	C	-4.188583	-0.865665	-0.697894
C67	C	-3.993497	-0.817580	-0.634919
H68	H	-4.172966	-0.875023	-0.759444
H69	H	-4.287180	-0.831095	-0.697645
H70	H	-4.237930	-0.923506	-0.679311
H71	H	-3.944166	-0.759736	-0.653496
H72	H	-3.894891	-0.852141	-0.635174
H73	H	-4.014531	-0.823110	-0.126326
O74	O	-4.082608	-0.564064	-0.535899
C75	C	-4.149095	-0.637919	-0.610758
H76	H	-4.102784	-0.700127	-0.583798
H77	H	-4.327684	-0.656148	-0.640997
C78	C	-4.099916	-0.533530	-0.721215
C79	C	-4.043020	-0.609933	-0.688104
H80	H	-4.034494	-0.516268	-0.768928
H81	H	-4.055131	-0.483772	-0.670782
H82	H	-4.248741	-0.548731	-0.746407
H83	H	-3.894202	-0.594728	-0.662902
H84	H	-4.087779	-0.659688	-0.738534
O85	O	-3.904190	-0.673014	-0.028516
C86	C	-4.099212	-0.731580	-0.027560
H87	H	-4.232689	-0.713511	-0.079155
H88	H	-4.103712	-0.806063	-0.049061
C89	C	-3.961924	-0.741542	0.135595
C90	C	-4.125863	-0.719344	0.072231
H91	H	-3.978362	-0.733998	0.197152
H92	H	-3.830530	-0.702088	0.134951
H93	H	-3.965691	-0.803609	0.117666
H94	H	-4.122077	-0.657274	0.090154
H95	H	-4.257257	-0.758787	0.072881
H96	H	-3.831127	-0.495318	-0.042864
