data_functionalizedCrystal
_audit_creation_method	'MofGen! by Chris Wilmer'
_symmetry_space_group_name_H-M	'P1'
_symmetry_Int_Tables_number	1
_symmetry_cell_setting	triclinic
loop_
_symmetry_equiv_pos_as_xyz
  x,y,z
_cell_length_a	19.288864
_cell_length_b	18.366186
_cell_length_c	19.288865
_cell_angle_alpha	90.011479
_cell_angle_beta	83.136245
_cell_angle_gamma	90.022894
loop_
_atom_site_label
_atom_site_type_symbol
_atom_site_fract_x
_atom_site_fract_y
_atom_site_fract_z
O1	O	0.921353	0.060791	0.086649
O2	O	1.254686	0.394125	0.419982
O3	O	1.588019	0.727458	0.753315
O4	O	0.719092	0.060743	0.098337
O5	O	1.052425	0.394076	0.431671
O6	O	1.385759	0.727409	0.765004
O7	O	0.826067	0.060754	-0.008637
O8	O	1.159400	0.394087	0.324696
O9	O	1.492733	0.727421	0.658029
O10	O	0.814378	0.060780	0.193623
O11	O	1.147711	0.394113	0.526957
O12	O	1.481045	0.727447	0.860290
O13	O	0.826049	-0.060345	-0.008643
O14	O	1.159382	0.272988	0.324691
O15	O	1.492715	0.606321	0.658024
O16	O	0.719074	-0.060357	0.098332
O17	O	1.052407	0.272977	0.431665
O18	O	1.385741	0.606310	0.764999
O19	O	0.921335	-0.060308	0.086643
O20	O	1.254668	0.273025	0.419977
O21	O	1.588001	0.606359	0.753310
Zn22	Zn	0.820201	-0.079559	0.092487
Zn23	Zn	1.153535	0.253774	0.425820
Zn24	Zn	1.486868	0.587107	0.759154
Zn25	Zn	0.820225	0.079994	0.092494
Zn26	Zn	1.153559	0.413328	0.425827
Zn27	Zn	1.486892	0.746661	0.759161
O28	O	0.814360	-0.060319	0.193618
O29	O	1.147693	0.273014	0.526951
O30	O	1.481027	0.606347	0.860285
C31	C	0.693207	0.000187	0.097959
C32	C	1.026540	0.333520	0.431292
C33	C	1.359873	0.666853	0.764625
C34	C	0.616103	0.000167	0.096830
C35	C	0.949436	0.333501	0.430163
C36	C	1.282770	0.666834	0.763496
N37	N	0.820190	-0.188451	0.092482
N38	N	1.153524	0.144883	0.425815
N39	N	1.486857	0.478216	0.759148
C40	C	0.571407	0.000187	0.159598
C41	C	0.904740	0.333520	0.492931
C42	C	1.238073	0.666854	0.826264
C43	C	0.498960	0.000195	0.158537
C44	C	0.832293	0.333528	0.491870
C45	C	1.165626	0.666862	0.825204
C46	C	0.471212	0.000198	0.094705
C47	C	0.804545	0.333531	0.428038
C48	C	1.137879	0.666865	0.761371
C49	C	0.515918	0.000174	0.031929
C50	C	0.849252	0.333508	0.365262
C51	C	1.182585	0.666841	0.698595
C52	C	0.588364	0.000159	0.032991
C53	C	0.921697	0.333492	0.366324
C54	C	1.255030	0.666826	0.699658
C55	C	0.362956	0.042642	0.044527
C56	C	0.696290	0.375976	0.377861
C57	C	1.029623	0.709309	0.711194
C58	C	0.290512	0.042662	0.043468
C59	C	0.623845	0.375995	0.376801
C60	C	0.957179	0.709329	0.710134
C61	C	0.247767	0.000241	0.091425
C62	C	0.581100	0.333575	0.424758
C63	C	0.914433	0.666908	0.758092
C64	C	0.277473	-0.042189	0.140454
C65	C	0.610806	0.291144	0.473788
C66	C	0.944140	0.624477	0.807121
C67	C	0.349918	-0.042205	0.141517
C68	C	0.683252	0.291129	0.474850
C69	C	1.016585	0.624462	0.808183
C70	C	0.392658	0.000214	0.093546
C71	C	0.725991	0.333547	0.426879
C72	C	1.059325	0.666881	0.760212
C73	C	0.124514	0.000269	0.153047
C74	C	0.457848	0.333602	0.486381
C75	C	0.791181	0.666935	0.819714
C76	C	0.052066	0.000272	0.151984
C77	C	0.385400	0.333605	0.485317
C78	C	0.718733	0.666939	0.818651
C79	C	0.069026	0.000259	0.025374
C80	C	0.402360	0.333592	0.358707
C81	C	0.735693	0.666925	0.692040
C82	C	0.141473	0.000248	0.026439
C83	C	0.474806	0.333581	0.359772
C84	C	0.808140	0.666915	0.693106
C85	C	0.169212	0.000256	0.090278
C86	C	0.502546	0.333590	0.423611
C87	C	0.835879	0.666923	0.756944
C88	C	0.867574	-0.226546	0.045137
C89	C	1.200907	0.106787	0.378470
C90	C	1.534241	0.440121	0.711803
C91	C	0.867578	-0.302774	0.045134
C92	C	1.200912	0.030560	0.378467
C93	C	1.534245	0.363893	0.711800
C94	C	0.820206	-0.340903	0.092488
C95	C	1.153539	-0.007570	0.425821
C96	C	1.486872	0.325763	0.759154
C97	C	0.772813	-0.302799	0.139836
C98	C	1.106146	0.030535	0.473170
C99	C	1.439480	0.363868	0.806503
C100	C	0.772805	-0.226572	0.139834
C101	C	1.106139	0.106761	0.473167
C102	C	1.439472	0.440094	0.806500
C103	C	0.810907	-0.461657	0.155775
C104	C	1.144241	-0.128324	0.489109
C105	C	1.477574	0.205010	0.822442
C106	C	0.810920	-0.537882	0.155779
C107	C	1.144253	-0.204548	0.489112
C108	C	1.477587	0.128785	0.822446
C109	C	0.820225	-0.576011	0.092496
C110	C	1.153559	-0.242677	0.425830
C111	C	1.486892	0.090656	0.759163
C112	C	0.829533	-0.537905	0.029207
C113	C	1.162866	-0.204572	0.362540
C114	C	1.496200	0.128761	0.695873
C115	C	0.829525	-0.461679	0.029204
C116	C	1.162859	-0.128346	0.362537
C117	C	1.496192	0.204988	0.695871
C118	C	0.820208	-0.423558	0.092496
C119	C	1.153542	-0.090225	0.425829
C120	C	1.486875	0.243109	0.759162
C121	C	0.867617	-0.696761	0.045144
C122	C	1.200950	-0.363428	0.378477
C123	C	1.534283	-0.030094	0.711810
C124	C	0.867616	-0.772990	0.045140
C125	C	1.200949	-0.439657	0.378473
C126	C	1.534283	-0.106324	0.711806
C127	C	0.772854	-0.773014	0.139849
C128	C	1.106187	-0.439681	0.473182
C129	C	1.439521	-0.106347	0.806515
C130	C	0.772851	-0.696786	0.139847
C131	C	1.106184	-0.363453	0.473180
C132	C	1.439518	-0.030119	0.806513
C133	C	0.820236	-0.658664	0.092495
C134	C	1.153569	-0.325331	0.425828
C135	C	1.486903	0.008002	0.759162
C136	C	0.947220	0.000250	0.087022
C137	C	1.280553	0.333583	0.420355
C138	C	1.613887	0.666916	0.753689
C139	C	1.024324	0.000274	0.088151
C140	C	1.357657	0.333607	0.421484
C141	C	1.690990	0.666940	0.754818
C142	C	0.825682	0.000202	-0.034516
C143	C	1.159015	0.333535	0.298817
C144	C	1.492348	0.666869	0.632150
C145	C	0.824553	0.000195	-0.111620
C146	C	1.157886	0.333529	0.221713
C147	C	1.491219	0.666862	0.555047
N148	N	0.820242	0.188885	0.092493
N149	N	1.153575	0.522219	0.425827
N150	N	1.486909	0.855552	0.759160
C151	C	0.887321	0.000207	-0.156316
C152	C	1.220654	0.333540	0.177017
C153	C	1.553987	0.666874	0.510350
C154	C	0.886260	0.000218	-0.228763
C155	C	1.219593	0.333552	0.104570
C156	C	1.552927	0.666885	0.437903
C157	C	0.822428	0.000203	-0.256511
C158	C	1.155761	0.333537	0.076822
C159	C	1.489094	0.666870	0.410156
C160	C	0.759652	0.000196	-0.211805
C161	C	1.092985	0.333529	0.121529
C162	C	1.426318	0.666863	0.454862
C163	C	0.760714	0.000192	-0.139359
C164	C	1.094047	0.333525	0.193974
C165	C	1.427381	0.666859	0.527307
C166	C	0.772242	-0.042227	-0.364800
C167	C	1.105575	0.291106	-0.031467
C168	C	1.438908	0.624439	0.301867
C169	C	0.771182	-0.042228	-0.437245
C170	C	1.104515	0.291106	-0.103911
C171	C	1.437849	0.624439	0.229422
C172	C	0.819148	0.000219	-0.479956
C173	C	1.152481	0.333552	-0.146623
C174	C	1.485815	0.666886	0.186710
C175	C	0.868186	0.042657	-0.450216
C176	C	1.201519	0.375990	-0.116883
C177	C	1.534852	0.709323	0.216450
C178	C	0.869248	0.042653	-0.377771
C179	C	1.202582	0.375986	-0.044438
C180	C	1.535915	0.709319	0.288896
C181	C	0.821269	0.000208	-0.335065
C182	C	1.154602	0.333541	-0.001732
C183	C	1.487935	0.666875	0.331602
C184	C	0.880770	0.000244	-0.603209
C185	C	1.214104	0.333577	-0.269875
C186	C	1.547437	0.666910	0.063458
C187	C	0.879707	0.000259	-0.675657
C188	C	1.213040	0.333593	-0.342323
C189	C	1.546374	0.666926	-0.008990
C190	C	0.753097	0.000230	-0.658697
C191	C	1.086430	0.333563	-0.325363
C192	C	1.419763	0.666896	0.007970
C193	C	0.754162	0.000221	-0.586250
C194	C	1.087495	0.333555	-0.252917
C195	C	1.420829	0.666888	0.080417
C196	C	0.818001	0.000225	-0.558511
C197	C	1.151334	0.333558	-0.225177
C198	C	1.484667	0.666891	0.108156
C199	C	0.814745	0.000234	0.219497
C200	C	1.148078	0.333568	0.552831
C201	C	1.481412	0.666901	0.886164
C202	C	0.815874	0.000246	0.296601
C203	C	1.149207	0.333579	0.629934
C204	C	1.482541	0.666912	0.963267
H205	H	0.593987	0.000195	0.211580
H206	H	0.927320	0.333529	0.544913
H207	H	1.260654	0.666862	0.878247
Cl208	Cl	0.799273	-0.413731	0.235341
Cl209	Cl	1.132607	-0.080398	0.568674
Cl210	Cl	1.465940	0.252935	0.902008
Cl211	Cl	0.711937	-0.095596	-0.311112
Cl212	Cl	1.045270	0.237737	0.022221
Cl213	Cl	1.378604	0.571071	0.355554
Cl214	Cl	0.672850	0.000215	-0.693572
Cl215	Cl	1.006183	0.333549	-0.360239
Cl216	Cl	1.339516	0.666882	-0.026906
Cl217	Cl	0.442760	0.000218	0.237451
Cl218	Cl	0.776093	0.333551	0.570784
Cl219	Cl	1.109426	0.666884	0.904118
Cl220	Cl	0.927139	-0.178622	-0.014393
Cl221	Cl	1.260472	0.154711	0.318940
Cl222	Cl	1.593805	0.488045	0.652273
H223	H	0.803346	-0.568901	0.207313
H224	H	1.136679	-0.235568	0.540646
H225	H	1.470012	0.097765	0.873980
H226	H	0.493322	0.000187	-0.020044
H227	H	0.826655	0.333520	0.313289
H228	H	1.159988	0.666853	0.646623
H229	H	0.734240	-0.333848	0.178392
H230	H	1.067573	-0.000514	0.511725
H231	H	1.400907	0.332819	0.845058
H232	H	0.703049	0.000208	-0.549857
H233	H	1.036383	0.333541	-0.216524
H234	H	1.369716	0.666874	0.116810
H235	H	0.734219	-0.195554	0.178388
H236	H	1.067552	0.137779	0.511722
H237	H	1.400885	0.471112	0.845055
Cl238	Cl	0.197666	0.000228	-0.052474
Cl239	Cl	0.530999	0.333561	0.280859
Cl240	Cl	0.864332	0.666894	0.614193
Cl241	Cl	0.681799	0.000177	-0.083166
Cl242	Cl	1.015132	0.333510	0.250167
Cl243	Cl	1.348466	0.666844	0.583500
Cl244	Cl	0.967575	0.000232	-0.121448
Cl245	Cl	1.300908	0.333565	0.211886
Cl246	Cl	1.634241	0.666899	0.545219
Cl247	Cl	0.416687	0.095976	-0.015768
Cl248	Cl	0.750020	0.429310	0.317565
Cl249	Cl	1.083353	0.762643	0.650898
Cl250	Cl	0.965174	0.000233	-0.284963
Cl251	Cl	1.298507	0.333567	0.048370
Cl252	Cl	1.631841	0.666900	0.381703
Cl253	Cl	0.927153	-0.350673	-0.014391
Cl254	Cl	1.260486	-0.017340	0.318942
Cl255	Cl	1.593819	0.315994	0.652276
Cl256	Cl	0.159390	0.000272	0.233300
Cl257	Cl	0.492723	0.333605	0.566633
Cl258	Cl	0.826057	0.666939	0.899966
H259	H	0.624756	0.000144	-0.018124
H260	H	0.958090	0.333477	0.315210
H261	H	1.291423	0.666810	0.648543
H262	H	0.734279	-0.804058	0.178402
H263	H	1.067613	-0.470725	0.511736
H264	H	1.400946	-0.137392	0.845069
H265	H	0.707679	0.000185	-0.234401
H266	H	1.041012	0.333519	0.098932
H267	H	1.374346	0.666852	0.432265
Cl268	Cl	0.928490	0.096023	-0.503903
Cl269	Cl	1.261823	0.429356	-0.170570
Cl270	Cl	1.595156	0.762690	0.162763
Cl271	Cl	0.841218	-0.413778	-0.050356
Cl272	Cl	1.174551	-0.080444	0.282977
Cl273	Cl	1.507884	0.252889	0.616311
Cl274	Cl	0.930888	0.096005	-0.340385
Cl275	Cl	1.264222	0.429338	-0.007052
Cl276	Cl	1.597555	0.762672	0.326282
Cl277	Cl	0.961023	0.000244	-0.568333
Cl278	Cl	1.294356	0.333577	-0.235000
Cl279	Cl	1.627689	0.666911	0.098334
Cl280	Cl	0.958623	0.000279	-0.731848
Cl281	Cl	1.291956	0.333612	-0.398515
Cl282	Cl	1.625289	0.666945	-0.065182
H283	H	0.242671	-0.076733	0.179506
H284	H	0.576004	0.256601	0.512839
H285	H	0.909337	0.589934	0.846172
Cl286	Cl	0.709538	-0.095580	-0.474625
Cl287	Cl	1.042871	0.237753	-0.141292
Cl288	Cl	1.376205	0.571087	0.192042
H289	H	0.906198	-0.665721	0.006585
H290	H	1.239532	-0.332388	0.339918
H291	H	1.572865	0.000946	0.673252
Cl292	Cl	0.034151	0.000254	-0.054873
Cl293	Cl	0.367484	0.333587	0.278460
Cl294	Cl	0.700817	0.666920	0.611793
H295	H	0.837110	-0.568948	-0.022324
H296	H	1.170443	-0.235615	0.311009
H297	H	1.503777	0.097718	0.644342
Cl298	Cl	0.387262	-0.095547	0.203147
Cl299	Cl	0.720595	0.237786	0.536481
Cl300	Cl	1.053929	0.571120	0.869814
Cl301	Cl	0.927185	-0.820885	-0.014389
Cl302	Cl	1.260519	-0.487551	0.318944
Cl303	Cl	1.593852	-0.154218	0.652278
Cl304	Cl	0.713284	-0.648890	0.199373
Cl305	Cl	1.046617	-0.315557	0.532706
Cl306	Cl	1.379950	0.017777	0.866039
H307	H	0.015674	0.000284	0.203099
H308	H	0.349008	0.333617	0.536433
H309	H	0.682341	0.666950	0.869766
H310	H	0.266331	0.077215	0.003548
H311	H	0.599664	0.410548	0.336881
H312	H	0.932997	0.743881	0.670215
