data_functionalizedCrystal
_audit_creation_method	'MofGen! by Chris Wilmer'
_symmetry_space_group_name_H-M	'P1'
_symmetry_Int_Tables_number	1
_symmetry_cell_setting	triclinic
loop_
_symmetry_equiv_pos_as_xyz
  x,y,z
_cell_length_a	6.817900
_cell_length_b	23.753515
_cell_length_c	23.752930
_cell_angle_alpha	97.112675
_cell_angle_beta	100.066047
_cell_angle_gamma	100.076835
loop_
_atom_site_label
_atom_site_type_symbol
_atom_site_fract_x
_atom_site_fract_y
_atom_site_fract_z
V1	V	-3.971841	-0.079917	-0.178719
O2	O	-3.977681	0.003064	-0.174985
O3	O	-3.907113	-0.157715	-0.177817
O4	O	-3.907071	-0.079028	-0.256519
O5	O	-3.977724	-0.076167	-0.095738
V6	V	-4.459706	-0.069951	-0.168755
O7	O	-4.223575	-0.101777	-0.200576
O8	O	-4.658169	-0.048090	-0.146898
O9	O	-4.301228	0.007847	-0.169658
O10	O	-4.571263	-0.152932	-0.172490
O11	O	-4.571220	-0.073700	-0.251737
O12	O	-4.301270	-0.070840	-0.090955
C13	C	-3.748672	-0.176670	-0.175080
C14	C	-3.776927	-0.240273	-0.174861
C15	C	-3.748617	-0.076296	-0.275472
C16	C	-3.776835	-0.076084	-0.339076
C17	C	-3.871588	-0.506792	-0.121502
C18	C	-3.845061	-0.447030	-0.121703
O19	O	-3.808042	-0.408981	-0.077217
N20	N	-3.859122	-0.425536	-0.174235
C21	C	-3.899694	-0.463807	-0.226570
O22	O	-3.909217	-0.440037	-0.271271
C23	C	-3.926206	-0.523568	-0.226368
C24	C	-3.912162	-0.545059	-0.173832
C25	C	-3.857544	-0.528284	-0.068971
C26	C	-3.884073	-0.588042	-0.068770
C27	C	-3.924647	-0.626309	-0.121100
C28	C	-3.938692	-0.604817	-0.173632
C29	C	-3.966763	-0.561838	-0.278701
C30	C	-3.993273	-0.621602	-0.278495
C31	C	-3.979229	-0.643093	-0.225960
C32	C	-4.005795	-0.702842	-0.225762
N33	N	-3.991733	-0.724337	-0.173229
C34	C	-3.951159	-0.686070	-0.120899
C35	C	-3.844011	-0.338304	-0.226989
C36	C	-3.817514	-0.278545	-0.227192
C37	C	-3.762878	-0.261772	-0.122325
C38	C	-3.789391	-0.321533	-0.122123
C39	C	-3.829949	-0.359799	-0.174457
C40	C	-4.006877	-0.811567	-0.120481
C41	C	-4.033419	-0.871332	-0.120285
C42	C	-4.088042	-0.888099	-0.225152
C43	C	-4.061512	-0.828340	-0.225348
C44	C	-4.020921	-0.790075	-0.173008
O45	O	-4.042810	-0.740926	-0.270224
O46	O	-3.941618	-0.709848	-0.076204
C47	C	-4.132894	-0.077586	-0.736406
C48	C	-4.159433	-0.077380	-0.796168
O49	O	-4.326978	-0.079692	-0.829561
N50	N	-3.991820	-0.074412	-0.823132
C51	C	-3.797652	-0.071644	-0.790330
O52	O	-3.657520	-0.069100	-0.818753
C53	C	-3.771114	-0.071847	-0.730569
C54	C	-3.938743	-0.074821	-0.703609
C55	C	-4.300509	-0.080559	-0.709446
C56	C	-4.273972	-0.080767	-0.649688
C57	C	-4.079821	-0.078001	-0.616891
C58	C	-3.912206	-0.075028	-0.643852
C59	C	-3.576946	-0.069075	-0.697768
C60	C	-3.550422	-0.069277	-0.638003
C61	C	-3.718051	-0.072251	-0.611043
C62	C	-3.691519	-0.072470	-0.551297
N63	N	-3.859132	-0.075438	-0.524333
C64	C	-4.053283	-0.078204	-0.557130
C65	C	-3.853397	-0.071218	-0.915833
C66	C	-3.879934	-0.071020	-0.975594
C67	C	-4.241714	-0.076754	-0.981427
C68	C	-4.215176	-0.076957	-0.921666
C69	C	-4.021010	-0.074186	-0.888869
C70	C	-3.997540	-0.078640	-0.431635
C71	C	-3.970986	-0.078850	-0.371873
C72	C	-3.609209	-0.073112	-0.366044
C73	C	-3.635761	-0.072906	-0.425802
C74	C	-3.829941	-0.075668	-0.458596
O75	O	-3.524034	-0.070157	-0.517867
O76	O	-4.193381	-0.080740	-0.528699
C77	C	-4.123011	0.026799	-0.172393
C78	C	-4.073993	0.090402	-0.172616
C79	C	-4.123067	-0.073573	-0.072000
C80	C	-4.074087	-0.073782	-0.008395
H81	H	-4.021983	-0.888826	-0.077503
H82	H	-4.155656	-0.080890	-0.458329
Br83	Br	-3.286895	-0.065511	-0.593495
Br84	Br	-3.865007	-0.617199	0.002532
H85	H	-3.777948	-0.339026	-0.079344
H86	H	-4.121092	-0.919267	-0.267758
H87	H	-3.499266	-0.070490	-0.447755
Br88	Br	-4.564029	-0.084314	-0.753946
Br89	Br	-4.442683	-0.080993	-0.885084
H90	H	-4.073012	-0.810843	-0.268128
Br91	Br	-3.345726	-0.069362	-0.321523
H92	H	-3.978190	-0.544351	-0.321481
Br93	Br	-4.048340	-0.673532	-0.349524
H94	H	-4.399806	-0.079006	-1.008141
H95	H	-3.824500	-0.497132	-0.026354
H96	H	-3.440438	-0.066654	-0.719708
H97	H	-3.729830	-0.230604	-0.079714
Br98	Br	-3.951792	-0.759645	-0.049448
Br99	Br	-3.836626	-0.249387	-0.298494
H100	H	-3.877052	-0.369458	-0.269609
Br101	Br	-3.589868	-0.067465	-0.871329
Br102	Br	-3.652432	-0.066998	-1.012177
H103	H	-4.107500	-0.081273	-0.349925
H104	H	-4.410476	-0.083186	-0.627743
