data_functionalizedCrystal
_audit_creation_method	'MofGen! by Chris Wilmer'
_symmetry_space_group_name_H-M	'P1'
_symmetry_Int_Tables_number	1
_symmetry_cell_setting	triclinic
loop_
_symmetry_equiv_pos_as_xyz
  x,y,z
_cell_length_a	29.839134
_cell_length_b	17.077402
_cell_length_c	17.077396
_cell_angle_alpha	90.029784
_cell_angle_beta	90.029325
_cell_angle_gamma	90.017744
loop_
_atom_site_label
_atom_site_type_symbol
_atom_site_fract_x
_atom_site_fract_y
_atom_site_fract_z
Zn1	Zn	0.686810	-0.312616	0.444041
Zn2	Zn	0.686757	-0.443891	0.312772
Zn3	Zn	0.611683	-0.312631	0.312767
Zn4	Zn	0.611665	-0.443832	0.443973
O5	O	0.649229	-0.378242	0.378388
O6	O	0.749670	-0.330048	0.426659
O7	O	0.676784	-0.426510	0.202925
O8	O	0.621679	-0.202782	0.330207
O9	O	0.749631	-0.426495	0.330216
O10	O	0.676874	-0.202771	0.426654
O11	O	0.621627	-0.330074	0.202921
O12	O	0.548814	-0.330017	0.330141
O13	O	0.621648	-0.426395	0.553829
O14	O	0.548800	-0.426409	0.426538
O15	O	0.676857	-0.329991	0.553879
O16	O	0.676766	-0.553730	0.330150
O17	O	0.621596	-0.553686	0.426543
C18	C	0.649185	-0.582190	0.378357
C19	C	0.649208	-0.669440	0.378370
C20	C	0.532506	-0.378209	0.378332
C21	C	0.482572	-0.378214	0.378326
C22	C	0.677964	-0.710426	0.328232
C23	C	0.677986	-0.792407	0.328252
C24	C	0.649249	-0.833399	0.378407
C25	C	0.620492	-0.792407	0.428550
C26	C	0.620472	-0.710428	0.428533
C27	C	0.620533	-0.963277	0.428580
C28	C	0.620552	-1.045261	0.428596
C29	C	0.678047	-1.045256	0.328299
C30	C	0.678028	-0.963277	0.328282
C31	C	0.649270	-0.922290	0.378425
C32	C	0.172931	-0.428508	0.428521
C33	C	-0.014742	-0.428530	0.428556
O34	O	-0.039005	-0.471255	0.471199
N35	N	-0.038213	-0.378271	0.378448
C36	C	-0.014763	-0.327999	0.328331
O37	O	-0.039033	-0.285245	0.285717
C38	C	0.172909	-0.327974	0.328300
C39	C	0.196378	-0.378242	0.378406
C40	C	0.196400	-0.478771	0.478623
C41	C	0.243315	-0.478768	0.478611
C42	C	0.266762	-0.428502	0.428496
C43	C	0.243293	-0.378239	0.378394
C44	C	0.196358	-0.277698	0.278188
C45	C	0.243279	-0.277695	0.278186
C46	C	0.266748	-0.327963	0.328292
C47	C	0.313655	-0.327969	0.328267
N48	N	0.337126	-0.378228	0.378375
C49	C	0.313680	-0.428495	0.428490
C50	C	-0.113294	-0.328017	0.328349
C51	C	-0.160212	-0.328024	0.328356
C52	C	-0.160187	-0.428555	0.428582
C53	C	-0.113269	-0.428551	0.428571
C54	C	-0.089823	-0.378276	0.378457
C55	C	0.412205	-0.428485	0.428460
C56	C	0.459125	-0.428480	0.428441
C57	C	0.459097	-0.327947	0.328218
C58	C	0.412181	-0.327955	0.328234
C59	C	0.388737	-0.378227	0.378361
O60	O	0.337947	-0.285260	0.285652
O61	O	0.337958	-0.471230	0.471109
C62	C	0.126015	-0.428511	0.428533
C63	C	0.102547	-0.378248	0.378431
C64	C	0.125993	-0.327981	0.328316
C65	C	0.055629	-0.378255	0.378437
C66	C	0.032182	-0.428521	0.428552
C67	C	0.055653	-0.478781	0.478660
C68	C	0.102569	-0.478778	0.478648
C69	C	0.102522	-0.277722	0.278208
C70	C	0.055607	-0.277730	0.278224
C71	C	0.032160	-0.327996	0.328338
C72	C	0.766407	-0.378276	0.378446
C73	C	0.816342	-0.378291	0.378470
C74	C	0.649256	-0.378184	0.583133
C75	C	0.649268	-0.378160	0.670383
C76	C	0.649285	-0.173498	0.378437
C77	C	0.649308	-0.086248	0.378458
C78	C	0.649228	-0.378243	0.174441
C79	C	0.649303	-0.378047	0.087191
C80	C	0.678016	-0.327958	0.711400
C81	C	0.678021	-0.327932	0.793381
C82	C	0.649280	-0.378112	0.834342
C83	C	0.620529	-0.428316	0.793319
C84	C	0.620522	-0.428337	0.711340
C85	C	0.620547	-0.428269	0.964189
C86	C	0.620555	-0.428248	1.046174
C87	C	0.678047	-0.327863	1.046230
C88	C	0.678039	-0.327885	0.964251
C89	C	0.649288	-0.378090	0.923233
H90	H	0.701363	-0.677056	0.287387
O91	O	0.125293	-0.527630	0.527399
C92	C	0.094530	-0.572004	0.571614
H93	H	0.061093	-0.539852	0.574387
H94	H	0.089520	-0.631585	0.542763
C95	C	0.153930	-0.622913	0.651733
C96	C	0.112863	-0.583420	0.655145
H97	H	0.165239	-0.629959	0.703258
H98	H	0.174656	-0.593020	0.621943
H99	H	0.149749	-0.672559	0.627687
H100	H	0.117045	-0.533771	0.679181
H101	H	0.092137	-0.613305	0.684941
H102	H	0.036503	-0.236796	0.237414
H103	H	0.597126	-0.469170	0.826676
H104	H	0.177314	-0.519705	0.519437
H105	H	0.701402	-0.825775	0.287424
O106	O	0.705891	-0.279089	0.924381
C107	C	0.680314	-0.228384	0.876984
H108	H	0.646263	-0.256076	0.864672
H109	H	0.675389	-0.170210	0.908601
C110	C	0.746846	-0.180161	0.814254
C111	C	0.705026	-0.214176	0.799127
H112	H	0.762090	-0.171393	0.766229
H113	H	0.764079	-0.214319	0.846188
H114	H	0.742736	-0.131687	0.840603
H115	H	0.709137	-0.262653	0.772787
H116	H	0.687795	-0.180025	0.767186
O117	O	0.592587	-0.477188	0.671614
C118	C	0.567216	-0.521465	0.725345
H119	H	0.585619	-0.524164	0.783796
H120	H	0.533101	-0.492717	0.734044
C121	C	0.538121	-0.601705	0.621539
C122	C	0.560726	-0.605026	0.693328
H123	H	0.534116	-0.653248	0.601789
H124	H	0.555212	-0.571873	0.585339
H125	H	0.509694	-0.577745	0.628798
H126	H	0.589154	-0.628976	0.686066
H127	H	0.543639	-0.634864	0.729526
H128	H	0.597160	-1.078635	0.469451
O129	O	0.705887	-0.279099	0.671650
C130	C	0.696098	-0.200857	0.691714
H131	H	0.660211	-0.196881	0.714227
H132	H	0.720192	-0.180334	0.739322
C133	C	0.745411	-0.153370	0.591259
C134	C	0.701333	-0.148485	0.618903
H135	H	0.748642	-0.121063	0.546348
H136	H	0.752009	-0.206082	0.577743
H137	H	0.765485	-0.136268	0.630939
H138	H	0.681260	-0.165595	0.579227
H139	H	0.694732	-0.095774	0.632411
O140	O	0.592558	-0.923583	0.477318
C141	C	0.567206	-0.977340	0.521604
H142	H	0.565672	-1.035802	0.489459
H143	H	0.583643	-0.985999	0.581252
C144	C	0.521267	-0.873591	0.572310
C145	C	0.519379	-0.945393	0.532825
H146	H	0.491766	-0.853884	0.579235
H147	H	0.538348	-0.837373	0.542476
H148	H	0.534966	-0.880816	0.622012
H149	H	0.505686	-0.938165	0.483121
H150	H	0.502295	-0.981610	0.562651
O151	O	0.389505	-0.477391	0.477178
C152	C	0.420288	-0.521733	0.521407
H153	H	0.453718	-0.524402	0.489234
H154	H	0.425307	-0.493061	0.581073
C155	C	0.360915	-0.602019	0.572097
C156	C	0.401974	-0.605303	0.532578
H157	H	0.349618	-0.653568	0.578992
H158	H	0.340176	-0.572144	0.542302
H159	H	0.365104	-0.578122	0.621814
H160	H	0.397784	-0.629190	0.482859
H161	H	0.422712	-0.635184	0.562365
H162	H	0.701456	-0.286983	1.079630
H163	H	0.701425	-0.929901	0.287439
H164	H	0.597128	-0.469139	0.930795
O165	O	0.266040	-0.527619	0.527364
C166	C	0.235276	-0.571992	0.571580
H167	H	0.201839	-0.539841	0.574350
H168	H	0.230267	-0.631575	0.542732
C169	C	0.294676	-0.622895	0.651704
C170	C	0.253608	-0.583404	0.655112
H171	H	0.305984	-0.629938	0.703229
H172	H	0.315402	-0.593003	0.621913
H173	H	0.290496	-0.672543	0.627660
H174	H	0.257790	-0.533753	0.679146
H175	H	0.232883	-0.613288	0.684909
O176	O	0.705965	-0.279273	0.833317
C177	C	0.734979	-0.323954	0.880738
H178	H	0.719121	-0.383437	0.892991
H179	H	0.768270	-0.332592	0.849173
C180	C	0.762599	-0.207686	0.943578
C181	C	0.743120	-0.280741	0.958633
H182	H	0.767623	-0.181029	0.991626
H183	H	0.743053	-0.177582	0.911627
H184	H	0.790339	-0.214894	0.917271
H185	H	0.715378	-0.273531	0.984930
H186	H	0.762662	-0.310842	0.990590
O187	O	-0.090591	-0.279155	0.279588
C188	C	-0.121374	-0.234790	0.235383
H189	H	-0.154821	-0.266951	0.232621
H190	H	-0.126349	-0.175210	0.264235
C191	C	-0.062016	-0.183864	0.155244
C192	C	-0.103096	-0.223369	0.151846
H193	H	-0.050741	-0.176816	0.103715
H194	H	-0.041277	-0.213751	0.185028
H195	H	-0.066167	-0.134219	0.179291
H196	H	-0.098943	-0.273017	0.127809
H197	H	-0.123834	-0.193490	0.122056
H198	H	0.597150	-0.469108	1.079523
H199	H	0.393072	-0.287024	0.287432
O200	O	0.173638	-0.228789	0.229494
C201	C	0.204402	-0.184438	0.185258
H202	H	0.237857	-0.181773	0.217415
H203	H	0.209367	-0.213099	0.125585
C204	C	0.145019	-0.104145	0.134611
C205	C	0.186108	-0.100867	0.174110
H206	H	0.133734	-0.052596	0.127730
H207	H	0.124292	-0.134027	0.164411
H208	H	0.149162	-0.128034	0.084887
H209	H	0.181963	-0.076989	0.223836
H210	H	0.206834	-0.070979	0.144318
H211	H	0.121608	-0.236788	0.237398
H212	H	0.701465	-1.078631	0.287473
H213	H	0.262366	-0.236750	0.237382
O214	O	0.032852	-0.527496	0.527427
C215	C	0.005730	-0.482860	0.578190
H216	H	0.019886	-0.421044	0.583145
H217	H	-0.029835	-0.480120	0.553925
C218	C	-0.012362	-0.597229	0.653643
C219	C	0.005026	-0.521308	0.659733
H220	H	-0.012799	-0.620947	0.703942
H221	H	0.005908	-0.627302	0.619441
H222	H	-0.041998	-0.594935	0.633419
H223	H	0.034663	-0.523604	0.679947
H224	H	-0.013240	-0.491236	0.693940
H225	H	0.597057	-0.677057	0.469362
O226	O	-0.183037	-0.477307	0.477242
C227	C	-0.229479	-0.466541	0.466483
H228	H	-0.235883	-0.405934	0.440873
H229	H	-0.242816	-0.513055	0.424606
C230	C	-0.245681	-0.548260	0.577351
C231	C	-0.253546	-0.473817	0.545902
H232	H	-0.260527	-0.552751	0.626338
H233	H	-0.214392	-0.555516	0.584598
H234	H	-0.256795	-0.587013	0.542445
H235	H	-0.242427	-0.435066	0.580802
H236	H	-0.284834	-0.466555	0.538662
O237	O	-0.183022	-0.279319	0.279580
C238	C	-0.210188	-0.323954	0.228813
H239	H	-0.196062	-0.385774	0.223872
H240	H	-0.245742	-0.326682	0.253067
C241	C	-0.228265	-0.209590	0.153339
C242	C	-0.210913	-0.285517	0.147265
H243	H	-0.228715	-0.185879	0.103037
H244	H	-0.209965	-0.179518	0.187543
H245	H	-0.257893	-0.211873	0.173554
H246	H	-0.181285	-0.283232	0.127060
H247	H	-0.229209	-0.315588	0.113056
O248	O	0.481929	-0.279230	0.279502
C249	C	0.509036	-0.323856	0.228707
H250	H	0.516059	-0.383383	0.256280
H251	H	0.490937	-0.332399	0.170517
C252	C	0.544983	-0.207541	0.180713
C253	C	0.553612	-0.280650	0.214582
H254	H	0.572479	-0.180889	0.171997
H255	H	0.526719	-0.177475	0.214932
H256	H	0.529899	-0.214670	0.132225
H257	H	0.568690	-0.273520	0.263073
H258	H	0.571879	-0.310714	0.180370
H259	H	0.478231	-0.469417	0.469244
H260	H	0.597096	-0.825789	0.469390
H261	H	-0.094164	-0.469482	0.469373
