data_functionalizedCrystal
_audit_creation_method	'MofGen! by Chris Wilmer'
_symmetry_space_group_name_H-M	'P1'
_symmetry_Int_Tables_number	1
_symmetry_cell_setting	triclinic
loop_
_symmetry_equiv_pos_as_xyz
  x,y,z
_cell_length_a	12.827893
_cell_length_b	12.759399
_cell_length_c	12.827885
_cell_angle_alpha	89.969872
_cell_angle_beta	89.980919
_cell_angle_gamma	90.015377
loop_
_atom_site_label
_atom_site_type_symbol
_atom_site_fract_x
_atom_site_fract_y
_atom_site_fract_z
Zn1	Zn	1.597669	-0.418216	-0.590841
Zn2	Zn	1.597564	-0.593932	-0.416100
Zn3	Zn	1.422911	-0.418267	-0.416115
Zn4	Zn	1.422896	-0.593854	-0.590801
O5	O	1.510260	-0.506067	-0.503464
O6	O	1.743891	-0.441537	-0.567672
O7	O	1.574357	-0.570684	-0.269866
O8	O	1.446144	-0.271240	-0.439316
O9	O	1.743814	-0.570634	-0.439290
O10	O	1.574538	-0.271202	-0.567686
O11	O	1.446041	-0.441624	-0.269877
O12	O	1.276673	-0.441548	-0.439277
O13	O	1.446118	-0.570501	-0.737042
O14	O	1.276662	-0.570550	-0.567618
O15	O	1.574524	-0.441461	-0.737072
O16	O	1.574343	-0.740942	-0.439251
O17	O	1.446016	-0.740885	-0.567603
C18	C	1.238750	-0.506047	-0.503445
C19	C	1.122597	-0.506064	-0.503462
C20	C	0.950806	-0.442314	-0.567104
C21	C	1.070857	-0.442295	-0.567088
C22	C	1.510195	-0.779035	-0.503444
C23	C	1.510262	-0.895811	-0.503470
C24	C	1.577230	-1.060393	-0.436743
C25	C	1.577162	-0.950669	-0.436713
C26	C	1.443419	-0.950683	-0.570256
C27	C	1.443482	-1.060405	-0.570280
C28	C	1.644142	-1.115245	-0.369989
C29	C	1.710985	-1.060381	-0.303202
C30	C	1.710916	-0.950657	-0.303172
C31	C	1.644006	-0.895797	-0.369928
C32	C	1.782830	-0.506088	-0.503484
C33	C	1.898983	-0.506097	-0.503492
C34	C	1.510331	-0.505966	-0.776035
C35	C	1.510361	-0.505923	-0.892188
C36	C	1.510354	-0.232034	-0.503507
C37	C	1.510394	-0.115257	-0.503526
C38	C	1.446876	-0.569705	-1.064002
C39	C	1.446843	-0.569750	-0.943952
C40	C	1.510249	-0.506092	-0.231954
C41	C	1.510421	-0.505839	-0.115802
H42	H	0.906297	-0.387725	-0.621580
F43	F	1.375735	-0.641226	-0.885731
H44	H	1.644208	-1.204588	-0.370009
F45	F	1.375791	-0.641126	-1.122200
H46	H	1.388944	-0.906009	-0.624607
F47	F	1.581482	-0.434455	-0.950402
F48	F	1.129104	-0.370912	-0.638269
F49	F	1.782185	-1.118768	-0.232153
F50	F	1.782048	-0.892269	-0.232087
H51	H	1.389069	-1.105077	-0.624670
F52	F	1.064356	-0.577440	-0.432268
F53	F	0.957154	-0.577463	-0.432296
F54	F	1.581497	-0.434408	-1.057604
F55	F	1.644155	-0.779018	-0.370111
