data_functionalizedCrystal
_audit_creation_method	'MofGen! by Chris Wilmer'
_symmetry_space_group_name_H-M	'P1'
_symmetry_Int_Tables_number	1
_symmetry_cell_setting	triclinic
loop_
_symmetry_equiv_pos_as_xyz
  x,y,z
_cell_length_a	19.805407
_cell_length_b	19.805405
_cell_length_c	11.169409
_cell_angle_alpha	89.961958
_cell_angle_beta	90.028745
_cell_angle_gamma	89.973026
loop_
_atom_site_label
_atom_site_type_symbol
_atom_site_fract_x
_atom_site_fract_y
_atom_site_fract_z
Zn1	Zn	1.034760	0.269422	0.678781
Zn2	Zn	1.534760	0.769422	1.178781
Zn3	Zn	1.034663	0.382631	0.478078
Zn4	Zn	1.534663	0.882631	0.978078
Zn5	Zn	0.921566	0.269460	0.478084
Zn6	Zn	1.421566	0.769460	0.978084
Zn7	Zn	0.921535	0.382573	0.678691
Zn8	Zn	1.421535	0.882573	1.178691
O9	O	0.978131	0.326021	0.578408
O10	O	1.478131	0.826021	1.078408
O11	O	1.129464	0.284448	0.652192
O12	O	1.629464	0.784448	1.152192
O13	O	1.019633	0.367659	0.310129
O14	O	1.519633	0.867659	0.810129
O15	O	0.936634	0.174738	0.504747
O16	O	1.436634	0.674738	1.004747
O17	O	1.129393	0.367622	0.504736
O18	O	1.629393	0.867622	1.004736
O19	O	1.019798	0.174710	0.652198
O20	O	1.519798	0.674710	1.152198
O21	O	0.936540	0.284513	0.310133
O22	O	1.436540	0.784513	0.810133
O23	O	0.826845	0.284456	0.504660
O24	O	1.326845	0.784456	1.004660
O25	O	0.936583	0.367523	0.846653
O26	O	1.436583	0.867523	1.346653
O27	O	0.826823	0.367560	0.652045
O28	O	1.326823	0.867560	1.152045
O29	O	1.019768	0.284391	0.846719
O30	O	1.519768	0.784391	1.346719
O31	O	1.019603	0.477340	0.504649
O32	O	1.519603	0.977340	1.004649
O33	O	0.936489	0.477297	0.652039
O34	O	1.436489	0.977297	1.152039
C35	C	0.802275	0.326006	0.578344
C36	C	1.302275	0.826006	1.078344
C37	C	0.727043	0.326016	0.578346
C38	C	1.227043	0.826016	1.078346
C39	C	0.265258	0.369375	0.655108
C40	C	0.765258	0.869375	1.155108
C41	C	0.335947	0.369374	0.655083
C42	C	0.835947	0.869374	1.155083
C43	C	0.371281	0.326038	0.578455
C44	C	0.871281	0.826038	1.078455
C45	C	0.335924	0.282705	0.501840
C46	C	0.835924	0.782705	1.001840
C47	C	0.265237	0.282710	0.501860
C48	C	0.765237	0.782710	1.001860
C49	C	0.620997	0.282684	0.501755
C50	C	1.120997	0.782684	1.001755
C51	C	0.691689	0.282681	0.501743
C52	C	1.191689	0.782681	1.001743
C53	C	0.691707	0.369348	0.654978
C54	C	1.191707	0.869348	1.154978
C55	C	0.621020	0.369353	0.654999
C56	C	1.121020	0.869353	1.154999
C57	C	0.585669	0.326023	0.578379
C58	C	1.085669	0.826023	1.078379
C59	C	0.509020	0.326026	0.578406
C60	C	1.009020	0.826026	1.078406
C61	C	0.447928	0.326031	0.578434
C62	C	0.947928	0.826031	1.078434
C63	C	0.978051	0.501878	0.578360
C64	C	1.478051	1.001878	1.078360
C65	C	0.978078	0.577109	0.578380
C66	C	1.478078	1.077109	1.078380
C67	C	1.021397	0.612453	0.501716
C68	C	1.521397	1.112453	1.001716
C69	C	1.021424	0.683142	0.501747
C70	C	1.521424	1.183142	1.001747
C71	C	0.978129	0.718485	0.578436
C72	C	1.478129	1.218485	1.078436
C73	C	0.934808	0.683136	0.655108
C74	C	1.434808	1.183136	1.155108
C75	C	0.934785	0.612449	0.655082
C76	C	1.434785	1.112449	1.155082
C77	C	0.934901	0.968209	0.655213
C78	C	1.434901	1.468209	1.155213
C79	C	0.934926	1.038901	0.655229
C80	C	1.434926	1.538901	1.155229
C81	C	1.021541	1.038902	0.501877
C82	C	1.521541	1.538902	1.001877
C83	C	1.021518	0.968215	0.501852
C84	C	1.521518	1.468215	1.001852
C85	C	0.978200	0.932872	0.578528
C86	C	1.478200	1.432872	1.078528
C87	C	0.978172	0.856224	0.578495
C88	C	1.478172	1.356224	1.078495
C89	C	0.978153	0.795132	0.578463
C90	C	1.478153	1.295132	1.078463
C91	C	1.154674	0.326037	0.578473
C92	C	1.654674	0.826037	1.078473
C93	C	1.229906	0.326044	0.578501
C94	C	1.729906	0.826044	1.078501
C95	C	0.978183	0.325946	0.891451
C96	C	1.478183	0.825946	1.391451
C97	C	0.978205	0.325914	1.024851
C98	C	1.478205	0.825914	1.524851
C99	C	0.978224	1.149479	0.578497
C100	C	1.478224	1.649479	1.078497
C101	C	0.978249	1.074247	0.578571
C102	C	1.478249	1.574247	1.078571
C103	C	0.978118	0.326047	0.266584
C104	C	1.478118	0.826047	0.766584
C105	C	0.978227	0.325889	0.133184
C106	C	1.478227	0.825889	0.633184
H107	H	0.364728	0.404660	0.717462
H108	H	0.864728	0.904660	1.217462
C109	C	0.226393	0.417043	0.739400
C110	C	0.726393	0.917043	1.239400
H111	H	0.179231	0.410837	0.728450
H112	H	0.679231	0.910837	1.228450
H113	H	0.237953	0.462508	0.721690
H114	H	0.737953	0.962508	1.221690
H115	H	0.238013	0.407182	0.820070
H116	H	0.738013	0.907182	1.320070
C117	C	0.887242	0.929341	0.739531
C118	C	1.387242	1.429341	1.239531
H119	H	0.861454	0.960516	0.785192
H120	H	1.361454	1.460516	1.285192
H121	H	0.913100	0.901717	0.791870
H122	H	1.413100	1.401717	1.291870
H123	H	0.857754	0.901816	0.693540
H124	H	1.357754	1.401816	1.193540
H125	H	0.364699	0.247423	0.439443
H126	H	0.864699	0.747423	0.939443
H127	H	0.236454	0.247424	0.439481
H128	H	0.736454	0.747424	0.939481
H129	H	1.056699	0.711916	0.439319
H130	H	1.556699	1.211916	0.939319
H131	H	0.720457	0.247389	0.439341
H132	H	1.220457	0.747389	0.939341
H133	H	0.592223	0.247405	0.439362
H134	H	1.092223	0.747405	0.939362
C135	C	0.887305	1.077778	0.739601
C136	C	1.387305	1.577778	1.239601
H137	H	0.861508	1.046606	0.785273
H138	H	1.361508	1.546606	1.285273
H139	H	0.857834	1.105399	0.693653
H140	H	1.357834	1.605399	1.193653
H141	H	0.913200	1.105306	0.791946
H142	H	1.413200	1.605306	1.291946
H143	H	1.056815	1.067687	0.439448
H144	H	1.556815	1.567687	0.939448
C145	C	0.887182	0.722012	0.739461
C146	C	1.387182	1.222012	1.239461
H147	H	0.893394	0.769173	0.728488
H148	H	1.393394	1.269173	1.228488
H149	H	0.897058	0.710382	0.820115
H150	H	1.397058	1.210382	1.320115
H151	H	0.841705	0.710470	0.721799
H152	H	1.341705	1.210470	1.221799
C153	C	0.887135	0.573571	0.739414
C154	C	1.387135	1.073571	1.239414
H155	H	0.861349	0.604742	0.785086
H156	H	1.361349	1.104742	1.285086
H157	H	0.913006	0.545951	0.791742
H158	H	1.413006	1.045951	1.291742
H159	H	0.857645	0.546041	0.693439
H160	H	1.357645	1.046041	1.193439
H161	H	0.592254	0.404639	0.717401
H162	H	1.092254	0.904639	1.217401
H163	H	1.056771	0.939441	0.439400
H164	H	1.556771	1.439441	0.939400
H165	H	0.720499	0.404631	0.717363
H166	H	1.220499	0.904631	1.217363
H167	H	1.056651	0.583682	0.439262
H168	H	1.556651	1.083682	0.939262
