data_functionalizedCrystal
_audit_creation_method	'MofGen! by Chris Wilmer'
_symmetry_space_group_name_H-M	'P1'
_symmetry_Int_Tables_number	1
_symmetry_cell_setting	triclinic
loop_
_symmetry_equiv_pos_as_xyz
  x,y,z
_cell_length_a	17.077404
_cell_length_b	17.637651
_cell_length_c	17.077396
_cell_angle_alpha	101.244719
_cell_angle_beta	90.019501
_cell_angle_gamma	101.218991
loop_
_atom_site_label
_atom_site_type_symbol
_atom_site_fract_x
_atom_site_fract_y
_atom_site_fract_z
Zn1	Zn	1.136911	-0.314758	0.380585
Zn2	Zn	1.636911	0.185242	0.880585
Zn3	Zn	1.110293	-0.446980	0.222746
Zn4	Zn	1.610293	0.053020	0.722746
Zn5	Zn	1.005637	-0.314786	0.249327
Zn6	Zn	1.505637	0.185214	0.749327
Zn7	Zn	0.979095	-0.446933	0.353979
Zn8	Zn	1.479095	0.053067	0.853979
O9	O	1.057984	-0.380865	0.301659
O10	O	1.557984	0.119135	0.801659
O11	O	1.243225	-0.332306	0.359658
O12	O	1.743225	0.167694	0.859658
O13	O	1.096378	-0.429476	0.116419
O14	O	1.596378	0.070524	0.616419
O15	O	1.045299	-0.204143	0.288998
O16	O	1.545299	0.295857	0.788998
O17	O	1.223669	-0.429449	0.243694
O18	O	1.723669	0.070551	0.743694
O19	O	1.141745	-0.204122	0.385433
O20	O	1.641745	0.295878	0.885433
O21	O	1.019488	-0.332353	0.135948
O22	O	1.519488	0.167647	0.635948
O23	O	0.892271	-0.332308	0.263199
O24	O	1.392271	0.167692	0.763199
O25	O	1.000061	-0.429369	0.467362
O26	O	1.500061	0.070631	0.967362
O27	O	0.872771	-0.429396	0.340087
O28	O	1.372771	0.070604	0.840087
O29	O	1.116008	-0.332260	0.486909
O30	O	1.616008	0.167740	0.986909
O31	O	1.070641	-0.557614	0.217895
O32	O	1.570641	-0.057614	0.717895
O33	O	0.974251	-0.557579	0.314312
O34	O	1.474251	-0.057579	0.814312
C35	C	0.854039	-0.380850	0.301641
C36	C	1.354039	0.119150	0.801641
C37	C	0.766787	-0.380863	0.301647
C38	C	1.266787	0.119137	0.801647
C39	C	1.016699	-0.586284	0.260349
C40	C	1.516699	-0.086284	0.760349
C41	C	0.999109	-0.674163	0.242703
C42	C	1.499109	-0.174163	0.742703
C43	C	0.715648	-0.431493	0.341587
C44	C	1.215648	0.068507	0.841587
C45	C	0.633667	-0.431495	0.341599
C46	C	1.133667	0.068505	0.841599
C47	C	0.602826	-0.380870	0.301667
C48	C	1.102826	0.119130	0.801667
C49	C	0.653971	-0.330234	0.261726
C50	C	1.153971	0.169766	0.761726
C51	C	0.735951	-0.330229	0.261719
C52	C	1.235951	0.169771	0.761719
C53	C	0.483098	-0.330250	0.261742
C54	C	0.983098	0.169750	0.761742
C55	C	0.401113	-0.330256	0.261748
C56	C	0.901113	0.169744	0.761748
C57	C	0.380814	-0.431516	0.341622
C58	C	0.880814	0.068484	0.841622
C59	C	0.462794	-0.431511	0.341615
C60	C	0.962794	0.068489	0.841615
C61	C	0.513934	-0.380876	0.301673
C62	C	1.013934	0.119124	0.801673
C63	C	1.192124	-0.962840	0.435965
C64	C	1.692124	-0.462840	0.935965
C65	C	1.175571	-1.045416	0.419370
C66	C	1.675571	-0.545416	0.919370
C67	C	1.075208	-1.045545	0.318856
C68	C	1.575208	-0.545545	0.818856
C69	C	1.091756	-0.962967	0.335440
C70	C	1.591756	-0.462967	0.835440
C71	C	1.150214	-0.921621	0.393996
C72	C	1.650214	-0.421621	0.893996
C73	C	1.049846	-0.921748	0.293470
C74	C	1.549846	-0.421748	0.793470
C75	C	1.066390	-0.839177	0.310056
C76	C	1.566390	-0.339177	0.810056
C77	C	1.124843	-0.797826	0.368611
C78	C	1.624843	-0.297826	0.868611
C79	C	1.166758	-0.839051	0.410582
C80	C	1.666758	-0.339051	0.910582
C81	C	0.991384	-0.963095	0.234919
C82	C	1.491384	-0.463095	0.734919
C83	C	0.949474	-0.921876	0.192949
C84	C	1.449474	-0.421876	0.692949
C85	C	0.966021	-0.839304	0.209531
C86	C	1.466021	-0.339304	0.709531
C87	C	1.024475	-0.797953	0.268086
C88	C	1.524475	-0.297953	0.768086
C89	C	0.924107	-0.798080	0.167561
C90	C	1.424107	-0.298080	0.667561
C91	C	0.940651	-0.715509	0.184147
C92	C	1.440651	-0.215509	0.684147
C93	C	1.041019	-0.715382	0.284672
C94	C	1.541019	-0.215382	0.784672
C95	C	1.262725	-0.380880	0.301679
C96	C	1.762725	0.119120	0.801679
C97	C	1.349974	-0.380886	0.301687
C98	C	1.849974	0.119114	0.801687
C99	C	1.058043	-0.380806	0.506416
C100	C	1.558043	0.119194	1.006416
C101	C	1.058068	-0.380782	0.593670
C102	C	1.558068	0.119218	1.093670
C103	C	1.099452	-0.174643	0.343148
C104	C	1.599452	0.325357	0.843148
C105	C	1.117123	-0.086764	0.360828
C106	C	1.617123	0.413236	0.860828
C107	C	1.057982	-0.380866	0.097711
C108	C	1.557982	0.119134	0.597711
C109	C	1.058153	-0.380668	0.010502
C110	C	1.558153	0.119332	0.510502
C111	C	1.118444	-0.330213	0.644841
C112	C	1.618444	0.169787	1.144841
C113	C	1.118459	-0.330187	0.726827
C114	C	1.618459	0.169813	1.226827
C115	C	1.058100	-0.380733	0.757640
C116	C	1.558100	0.119267	1.257640
C117	C	0.997718	-0.431304	0.706463
C118	C	1.497718	0.068696	1.206463
C119	C	0.997701	-0.431326	0.624479
C120	C	1.497701	0.068674	1.124479
C121	C	0.997759	-0.431257	0.877343
C122	C	1.497759	0.068743	1.377343
C123	C	0.997777	-0.431236	0.959331
C124	C	1.497777	0.068764	1.459331
C125	C	1.118518	-0.330117	0.979690
C126	C	1.618518	0.169883	1.479690
C127	C	1.118500	-0.330139	0.897706
C128	C	1.618500	0.169861	1.397706
C129	C	1.058119	-0.380711	0.846535
C130	C	1.558119	0.119289	1.346535
H131	H	0.740751	-0.472721	0.374101
H132	H	1.240751	0.027279	0.874101
F133	F	0.861884	-0.842093	0.105254
F134	F	1.361884	-0.342093	0.605254
F135	F	0.933439	-0.485146	0.570020
F136	F	1.433439	0.014854	1.070020
F137	F	1.182741	-0.276392	0.781278
F138	F	1.682741	0.223608	1.281278
F139	F	0.790378	-0.276340	0.219212
F140	F	1.290378	0.223660	0.719212
H141	H	0.948626	-0.472394	0.984416
H142	H	1.448626	0.027606	1.484416
H143	H	0.376007	-0.289023	0.229242
H144	H	0.876007	0.210977	0.729242
H145	H	0.487901	-0.472738	0.374126
H146	H	0.987901	0.027262	0.874126
F147	F	0.579244	-0.485382	0.384108
F148	F	1.079244	0.014618	0.884108
H149	H	0.339172	-0.472742	0.374147
H150	H	0.839172	0.027258	0.874147
F151	F	0.537524	-0.276357	0.219232
F152	F	1.037524	0.223643	0.719232
H153	H	0.628855	-0.289011	0.229217
H154	H	1.128855	0.210989	0.729217
H155	H	1.088628	-0.681717	0.332349
H156	H	1.588628	-0.181717	0.832349
H157	H	0.906522	-0.681948	0.149971
H158	H	1.406522	-0.181948	0.649971
H159	H	1.027609	-1.079220	0.271181
H160	H	1.527609	-0.579220	0.771181
F161	F	1.254351	-0.918832	0.498279
F162	F	1.754351	-0.418832	0.998279
F163	F	1.142256	-0.709947	0.386458
F164	F	1.642256	-0.209947	0.886458
F165	F	1.228985	-0.795043	0.472896
F166	F	1.728985	-0.295043	0.972896
H167	H	0.948571	-0.472458	0.731558
H168	H	1.448571	0.027542	1.231558
F169	F	1.182781	-0.276295	1.034151
F170	F	1.682781	0.223705	1.534151
F171	F	1.220186	-1.089282	0.464040
F172	F	1.720186	-0.589282	0.964040
F173	F	1.182745	-0.276346	0.864914
F174	F	1.682745	0.223654	1.364914
H175	H	0.977908	-1.030329	0.221424
H176	H	1.477908	-0.530329	0.721424
F177	F	0.887255	-0.965888	0.130637
F178	F	1.387255	-0.465888	0.630637
F179	F	1.182691	-0.276417	0.612055
F180	F	1.682691	0.223583	1.112055
H181	H	0.948581	-0.472426	0.835683
H182	H	1.448581	0.027574	1.335683
