data_functionalizedCrystal
_audit_creation_method	'MofGen! by Chris Wilmer'
_symmetry_space_group_name_H-M	'P1'
_symmetry_Int_Tables_number	1
_symmetry_cell_setting	triclinic
loop_
_symmetry_equiv_pos_as_xyz
  x,y,z
_cell_length_a	13.596369
_cell_length_b	16.992694
_cell_length_c	16.992695
_cell_angle_alpha	90.668223
_cell_angle_beta	89.993811
_cell_angle_gamma	90.000436
loop_
_atom_site_label
_atom_site_type_symbol
_atom_site_fract_x
_atom_site_fract_y
_atom_site_fract_z
O1	O	0.081669	-1.050851	-0.166918
O2	O	0.581669	-0.550851	0.333082
O3	O	0.081698	-0.822451	-0.165087
O4	O	0.581698	-0.322451	0.334913
O5	O	0.081676	-0.935736	-0.051802
O6	O	0.581676	-0.435736	0.448198
O7	O	0.081691	-0.937567	-0.280202
O8	O	0.581691	-0.437567	0.219798
O9	O	-0.081907	-0.935723	-0.051795
O10	O	0.418093	-0.435723	0.448205
O11	O	-0.081885	-0.822439	-0.165080
O12	O	0.418115	-0.322439	0.334920
O13	O	-0.081914	-1.050839	-0.166911
O14	O	0.418086	-0.550839	0.333089
Zn15	Zn	-0.107872	-0.936637	-0.165994
Zn16	Zn	0.392128	-0.436637	0.334006
Zn17	Zn	0.107656	-0.936653	-0.166003
Zn18	Zn	0.607656	-0.436653	0.333997
O19	O	-0.081892	-0.937555	-0.280195
O20	O	0.418108	-0.437555	0.219805
C21	C	-0.000090	-0.793085	-0.162727
C22	C	0.499910	-0.293085	0.337273
C23	C	-0.000079	-0.705600	-0.155699
C24	C	0.499921	-0.205600	0.344301
N25	N	-0.254964	-0.936632	-0.165988
N26	N	0.245036	-0.436632	0.334012
C27	C	-0.000115	-0.933374	-0.022439
C28	C	0.499885	-0.433374	0.477561
C29	C	-0.000114	-0.926345	0.065046
C30	C	0.499886	-0.426345	0.565046
C31	C	-0.656254	-0.936652	-0.166004
C32	C	-0.156254	-0.436652	0.333996
C33	C	-0.544603	-0.936644	-0.166002
C34	C	-0.044603	-0.436644	0.333998
C35	C	-0.455613	-0.936642	-0.165997
C36	C	0.044387	-0.436642	0.334003
C37	C	-0.343954	-0.936634	-0.165993
C38	C	0.156046	-0.436634	0.334007
N39	N	0.254748	-0.936665	-0.166004
N40	N	0.754748	-0.436665	0.333996
C41	C	-0.000124	-1.080205	-0.169270
C42	C	0.499876	-0.580205	0.330730
C43	C	-0.000128	-1.167690	-0.176299
C44	C	0.499872	-0.667690	0.323701
C45	C	-0.000075	-0.659610	-0.223517
C46	C	0.499925	-0.159610	0.276483
C47	C	-0.000089	-0.577409	-0.216908
C48	C	0.499911	-0.077409	0.283092
C49	C	-0.000100	-0.541201	-0.142480
C50	C	0.499900	-0.041201	0.357520
C51	C	-0.000107	-0.587198	-0.074657
C52	C	0.499893	-0.087198	0.425343
C53	C	-0.000100	-0.669397	-0.081267
C54	C	0.499900	-0.169397	0.418733
C55	C	-0.000128	-0.295886	-0.115086
C56	C	0.499872	0.204114	0.384914
C57	C	-0.000132	-0.213681	-0.108481
C58	C	0.499868	0.286319	0.391519
C59	C	-0.000116	-0.203898	-0.250732
C60	C	0.499884	0.296102	0.249268
C61	C	-0.000104	-0.286099	-0.257335
C62	C	0.499896	0.213901	0.242665
C63	C	-0.000115	-0.332089	-0.189512
C64	C	0.499885	0.167911	0.310488
N65	N	-0.000111	-0.457178	-0.135723
N66	N	0.499889	0.042822	0.364277
N67	N	-0.000111	-0.416110	-0.196270
N68	N	0.499889	0.083890	0.303730
C69	C	-0.000098	-0.939917	-0.309559
C70	C	0.499902	-0.439917	0.190441
C71	C	-0.000093	-0.946945	-0.397044
C72	C	0.499907	-0.446945	0.102956
C73	C	-0.000124	-0.994163	0.111037
C74	C	0.499876	-0.494163	0.611037
C75	C	-0.000114	-0.987554	0.193238
C76	C	0.499886	-0.487554	0.693238
C77	C	-0.000101	-0.913127	0.229446
C78	C	0.499899	-0.413127	0.729446
C79	C	-0.000088	-0.845303	0.183449
C80	C	0.499912	-0.345303	0.683449
C81	C	-0.000091	-0.851913	0.101250
C82	C	0.499909	-0.351913	0.601250
C83	C	-0.000084	-0.885732	0.474760
C84	C	0.499916	-0.385732	0.974760
C85	C	-0.000084	-0.879127	0.556966
C86	C	0.499916	-0.379127	1.056966
C87	C	-0.000107	-1.021379	0.566749
C88	C	0.499893	-0.521379	1.066749
C89	C	-0.000116	-1.027982	0.484547
C90	C	0.499884	-0.527982	0.984547
C91	C	-0.000098	-0.960159	0.438558
C92	C	0.499902	-0.460159	0.938558
N93	N	-0.000093	-0.906369	0.313468
N94	N	0.499907	-0.406369	0.813468
N95	N	-0.000099	-0.966917	0.354537
N96	N	0.499901	-0.466917	0.854537
H97	H	-0.000085	-0.539966	-0.272133
H98	H	0.499915	-0.039966	0.227867
N99	N	-0.000068	-0.798848	0.596022
N100	N	0.499932	-0.298848	1.096022
H101	H	-0.000055	-0.756885	0.554415
H102	H	0.499945	-0.256885	1.054415
H103	H	0.060574	-0.793021	0.629910
H104	H	0.560574	-0.293021	1.129910
H105	H	-0.000127	-1.088589	0.455073
H106	H	0.499873	-0.588589	0.955073
H107	H	-0.000083	-0.315574	-0.317942
H108	H	0.499917	0.184426	0.182058
H109	H	-0.000120	-1.076596	0.604202
H110	H	0.499880	-0.576596	1.104202
N111	N	-0.000069	-0.812583	0.425163
N112	N	0.499931	-0.312583	0.925163
H113	H	-0.000065	-0.764433	0.460576
H114	H	0.499935	-0.264433	0.960576
H115	H	-0.060711	-0.812221	0.390850
H116	H	0.439289	-0.312221	0.890850
N117	N	-0.000105	-0.154296	-0.323881
N118	N	0.499895	0.345704	0.176119
H119	H	-0.000112	-0.096729	-0.308403
H120	H	0.499888	0.403271	0.191597
H121	H	-0.060744	-0.166532	-0.356092
H122	H	0.439256	0.333468	0.143908
H123	H	-0.000139	-0.333322	-0.059859
H124	H	0.499861	0.166678	0.440141
H125	H	-0.000072	-0.784703	0.212936
H126	H	0.499928	-0.284703	0.712936
N127	N	-0.000075	-0.778768	0.051641
N128	N	0.499925	-0.278768	0.551641
H129	H	-0.000068	-0.730614	0.087050
H130	H	0.499932	-0.230614	0.587050
H131	H	-0.060716	-0.778404	0.017327
H132	H	0.439284	-0.278404	0.517327
H133	H	-0.000066	-0.689084	-0.284124
H134	H	0.499934	-0.189084	0.215876
H135	H	-0.000129	-0.557710	-0.014056
H136	H	0.499871	-0.057710	0.485944
N137	N	-0.000147	-0.174616	-0.028206
N138	N	0.499853	0.325384	0.471794
H139	H	0.060487	-0.191055	0.001743
H140	H	0.560487	0.308945	0.501743
H141	H	-0.060834	-0.191067	0.001676
H142	H	0.439166	0.308933	0.501676
N143	N	-0.000111	-0.719005	-0.008121
N144	N	0.499889	-0.219005	0.491879
H145	H	-0.000118	-0.683596	0.040032
H146	H	0.499882	-0.183596	0.540032
H147	H	0.060531	-0.753323	-0.007764
H148	H	0.560531	-0.253323	0.492236
H149	H	-0.000140	-1.054770	0.081563
H150	H	0.499860	-0.554770	0.581563
H151	H	-0.000123	-1.042779	0.230680
H152	H	0.499877	-0.542779	0.730680
