data_functionalizedCrystal
_audit_creation_method	'MofGen! by Chris Wilmer'
_symmetry_space_group_name_H-M	'P1'
_symmetry_Int_Tables_number	1
_symmetry_cell_setting	triclinic
loop_
_symmetry_equiv_pos_as_xyz
  x,y,z
_cell_length_a	12.759401
_cell_length_b	21.295417
_cell_length_c	12.759393
_cell_angle_alpha	90.037048
_cell_angle_beta	90.019676
_cell_angle_gamma	90.030129
loop_
_atom_site_label
_atom_site_type_symbol
_atom_site_fract_x
_atom_site_fract_y
_atom_site_fract_z
Zn1	Zn	1.606157	-0.250572	0.593937
Zn2	Zn	1.606002	-0.355854	0.418237
Zn3	Zn	1.430456	-0.250603	0.418276
Zn4	Zn	1.430401	-0.355808	0.593878
O5	O	1.518254	-0.303209	0.506082
O6	O	1.753157	-0.264544	0.570638
O7	O	1.582673	-0.341924	0.271221
O8	O	1.453850	-0.162509	0.441619
O9	O	1.753043	-0.341894	0.441552
O10	O	1.582937	-0.162486	0.570676
O11	O	1.453700	-0.264597	0.271250
O12	O	1.283427	-0.264553	0.441562
O13	O	1.453758	-0.341815	0.740907
O14	O	1.283388	-0.341846	0.570576
O15	O	1.582885	-0.264499	0.740950
O16	O	1.582621	-0.443937	0.441495
O17	O	1.453608	-0.443903	0.570538
C18	C	1.245287	-0.303198	0.506067
C19	C	1.128510	-0.303209	0.506086
C20	C	1.073708	-0.263005	0.573404
C21	C	0.963984	-0.263012	0.573411
C22	C	0.963874	-0.343430	0.438778
C23	C	1.073596	-0.343420	0.438766
C24	C	0.814097	-0.188813	0.611194
C25	C	0.759291	-0.148615	0.678529
C26	C	0.794954	-0.139021	0.781069
C27	C	0.885420	-0.169634	0.816295
C28	C	0.940221	-0.209836	0.748966
C29	C	0.904559	-0.219419	0.646411
C30	C	1.223485	-0.417620	0.400995
C31	C	1.278287	-0.457826	0.333670
C32	C	1.242626	-0.467427	0.231128
C33	C	1.152156	-0.436825	0.195905
C34	C	1.097354	-0.396619	0.263230
C35	C	1.133022	-0.387017	0.365771
C36	C	1.518120	-0.466761	0.506029
C37	C	1.518159	-0.536729	0.506041
C38	C	1.585336	-0.569526	0.573289
C39	C	1.585373	-0.635269	0.573315
C40	C	1.518244	-0.668211	0.506074
C41	C	1.451054	-0.635406	0.438821
C42	C	1.451011	-0.569665	0.438805
N43	N	1.510303	-0.771479	0.414128
N44	N	1.510350	-0.833931	0.414146
C45	C	1.518367	-0.866286	0.506122
N46	N	1.526356	-0.833830	0.598079
N47	N	1.526315	-0.771373	0.598060
C48	C	1.518282	-0.739497	0.506085
C49	C	1.585588	-0.970369	0.573404
C50	C	1.585617	-1.036113	0.573431
C51	C	1.451304	-1.036248	0.438928
C52	C	1.451268	-0.970506	0.438910
C53	C	1.518416	-0.937570	0.506146
C54	C	1.792287	-0.303220	0.506097
C55	C	1.909064	-0.303225	0.506104
C56	C	1.518333	-0.303149	0.780115
C57	C	1.518366	-0.303123	0.896892
C58	C	1.518417	-0.139019	0.506158
C59	C	1.518486	-0.069051	0.506191
C60	C	1.518236	-0.303224	0.233115
C61	C	1.518406	-0.303072	0.116338
C62	C	1.585607	-0.262858	0.951778
C63	C	1.585625	-0.262831	1.061502
C64	C	1.451157	-0.343339	1.061445
C65	C	1.451135	-0.343363	0.951722
C66	C	1.623270	-0.188561	1.211494
C67	C	1.690527	-0.148301	1.266384
C68	C	1.793044	-0.138650	1.230792
C69	C	1.828325	-0.169267	1.140312
C70	C	1.761072	-0.209531	1.085428
C71	C	1.658541	-0.219171	1.121018
C72	C	1.413501	-0.417633	0.801729
C73	C	1.346254	-0.457901	0.746843
C74	C	1.243735	-0.467559	0.782432
C75	C	1.208459	-0.436953	0.872916
C76	C	1.275706	-0.396685	0.927802
C77	C	1.378224	-0.387026	0.892205
H78	H	0.685632	-0.123690	0.649838
N79	N	1.654530	-0.116964	1.358758
N80	N	1.699745	-0.125947	1.444364
H81	H	1.674337	-0.103794	1.509587
N82	N	1.382512	-0.669057	0.370113
N83	N	1.389543	-0.661756	0.273173
H84	H	1.341136	-0.685523	0.224643
H85	H	1.252535	-0.409801	0.484491
H86	H	1.640321	-1.062815	0.628198
H87	H	1.287236	-0.500184	0.176324
N88	N	1.103743	-0.446812	0.909296
N89	N	1.088201	-0.469147	0.998523
H90	H	1.014244	-0.476112	1.024218
H91	H	1.640009	-0.542712	0.628040
H92	H	1.396306	-0.542960	0.384042
H93	H	1.640260	-0.943551	0.628155
N94	N	1.382729	-1.069900	0.370258
N95	N	1.382770	-1.128597	0.370285
H96	H	1.334334	-1.152367	0.321788
N97	N	1.370693	-0.489087	0.369666
N98	N	1.402531	-0.480508	0.461223
H99	H	1.467793	-0.502585	0.486646
H100	H	1.496979	-0.409768	0.772737
N101	N	1.175059	-0.508700	0.726362
N102	N	1.206564	-0.536032	0.645583
H103	H	1.158062	-0.565086	0.605984
H104	H	1.396571	-0.943801	0.384145
N105	N	1.518544	-0.198402	1.247855
N106	N	1.487068	-0.171066	1.328640
H107	H	1.413104	-0.178016	1.354325
N108	N	1.129818	-0.221926	0.642143
N109	N	1.227783	-0.221919	0.642124
H110	H	1.267411	-0.192904	0.690670
H111	H	1.640068	-0.661978	0.628089
N112	N	0.921854	-0.159825	0.921038
N113	N	1.011115	-0.137475	0.936641
H114	H	1.036851	-0.130544	1.010616
H115	H	1.374989	-0.482828	0.673173
H116	H	1.640348	-0.230090	0.907139
H117	H	0.785059	-0.196614	0.527694
N118	N	1.797115	-0.240802	0.993016
N119	N	1.888657	-0.232184	0.961249
H120	H	1.914115	-0.254267	0.895978
H121	H	1.396423	-0.376102	1.106101
N122	N	1.933057	-0.159410	1.103984
N123	N	1.993093	-0.123461	1.152999
H124	H	2.067063	-0.116498	1.127340
N125	N	1.239668	-0.365418	1.020225
N126	N	1.162951	-0.329052	1.015428
H127	H	1.137503	-0.306969	1.080702
N128	N	1.032618	-0.241104	0.784954
N129	N	1.064448	-0.232538	0.876517
H130	H	1.129708	-0.254618	0.901937
N131	N	0.738957	-0.097962	0.849840
N132	N	0.658185	-0.070639	0.818383
H133	H	0.618633	-0.041639	0.866947
N134	N	1.861728	-0.097517	1.286863
N135	N	1.837908	-0.041022	1.298612
H136	H	1.886409	-0.011969	1.338215
N137	N	0.907762	-0.384500	0.370023
N138	N	0.809797	-0.384504	0.370042
H139	H	0.770167	-0.413511	0.321484
H140	H	1.123116	-0.444645	0.112409
N141	N	1.004939	-0.365365	0.227239
N142	N	0.973103	-0.373942	0.135681
H143	H	0.907835	-0.351869	0.110261
