data_functionalizedCrystal
_audit_creation_method	'MofGen! by Chris Wilmer'
_symmetry_space_group_name_H-M	'P1'
_symmetry_Int_Tables_number	1
_symmetry_cell_setting	triclinic
loop_
_symmetry_equiv_pos_as_xyz
  x,y,z
_cell_length_a	18.050589
_cell_length_b	18.050591
_cell_length_c	17.640968
_cell_angle_alpha	78.779299
_cell_angle_beta	78.773118
_cell_angle_gamma	90.027061
loop_
_atom_site_label
_atom_site_type_symbol
_atom_site_fract_x
_atom_site_fract_y
_atom_site_fract_z
Zn1	Zn	-0.210794	1.220238	-0.446869
Zn2	Zn	0.289206	1.720238	0.053131
Zn3	Zn	-0.360099	1.195024	-0.314696
Zn4	Zn	0.139901	1.695024	0.185304
Zn5	Zn	-0.235922	1.070935	-0.314711
Zn6	Zn	0.264078	1.570935	0.185289
Zn7	Zn	-0.334949	1.096000	-0.446845
Zn8	Zn	0.165051	1.596000	0.053155
O9	O	-0.285441	1.145549	-0.380780
O10	O	0.214559	1.645549	0.119220
O11	O	-0.230609	1.320818	-0.429339
O12	O	0.269391	1.820818	0.070661
O13	O	-0.364669	1.157521	-0.204085
O14	O	0.135331	1.657521	0.295915
O15	O	-0.128661	1.090803	-0.332258
O16	O	0.371339	1.590803	0.167742
O17	O	-0.340303	1.302294	-0.332233
O18	O	0.159697	1.802294	0.167767
O19	O	-0.110200	1.200495	-0.429354
O20	O	0.389800	1.700495	0.070646
O21	O	-0.273436	1.066354	-0.204096
O22	O	0.226564	1.566354	0.295904
O23	O	-0.249049	0.970335	-0.332235
O24	O	0.250951	1.470335	0.167765
O25	O	-0.297438	1.133523	-0.557461
O26	O	0.202562	1.633523	-0.057461
O27	O	-0.321804	0.988750	-0.429313
O28	O	0.178196	1.488750	0.070687
O29	O	-0.206222	1.224799	-0.557478
O30	O	0.293778	1.724799	-0.057478
O31	O	-0.460691	1.181826	-0.332209
O32	O	0.039309	1.681826	0.167791
O33	O	-0.442213	1.109074	-0.429298
O34	O	0.057787	1.609074	0.070702
C35	C	-0.285424	0.952596	-0.380774
C36	C	0.214576	1.452596	0.119226
C37	C	-0.285432	0.870053	-0.380790
C38	C	0.214568	1.370053	0.119210
C39	C	-0.325112	0.631250	-0.433509
C40	C	0.174888	1.131250	0.066491
C41	C	-0.356895	0.666905	-0.361361
C42	C	0.143105	1.166905	0.138639
C43	C	-0.285455	0.572932	-0.380788
C44	C	0.214545	1.072932	0.119212
C45	C	-0.253696	0.684358	-0.452932
C46	C	0.246304	1.184358	0.047068
C47	C	-0.285445	0.718918	-0.380793
C48	C	0.214555	1.218918	0.119207
C49	C	-0.317281	0.607493	-0.308603
C50	C	0.182719	1.107493	0.191397
C51	C	-0.214041	0.624951	-0.400222
C52	C	0.285959	1.124951	0.099778
C53	C	-0.245808	0.660575	-0.328025
C54	C	0.254192	1.160575	0.171975
C55	C	-0.285463	0.488834	-0.380787
C56	C	0.214537	0.988834	0.119213
C57	C	-0.285438	0.803014	-0.380786
C58	C	0.214562	1.303014	0.119214
C59	C	-0.478396	1.145457	-0.380767
C60	C	0.021604	1.645457	0.119233
C61	C	-0.560938	1.145491	-0.380788
C62	C	-0.060938	1.645491	0.119212
C63	C	-0.750371	1.105973	-0.433566
C64	C	-0.250371	1.605973	0.066434
C65	C	-0.813513	1.074165	-0.361439
C66	C	-0.313513	1.574165	0.138561
C67	C	-0.712066	1.145565	-0.380798
C68	C	-0.212066	1.645565	0.119202
C69	C	-0.796004	1.177412	-0.452933
C70	C	-0.296004	1.677412	0.047067
C71	C	-0.858048	1.145638	-0.380814
C72	C	-0.358048	1.645638	0.119186
C73	C	-0.774129	1.113714	-0.308633
C74	C	-0.274129	1.613714	0.191367
C75	C	-0.756606	1.217002	-0.400176
C76	C	-0.256606	1.717002	0.099824
C77	C	-0.819735	1.185210	-0.327999
C78	C	-0.319735	1.685210	0.172001
C79	C	-0.627969	1.145522	-0.380790
C80	C	-0.127969	1.645522	0.119210
C81	C	-0.942145	1.145679	-0.380815
C82	C	-0.442145	1.645679	0.119185
C83	C	-0.091730	1.145665	-0.380811
C84	C	0.408270	1.645665	0.119189
C85	C	-0.009182	1.145715	-0.380824
C86	C	0.490818	1.645715	0.119176
C87	C	-0.246222	1.184769	-0.586952
C88	C	0.253778	1.684769	-0.086952
C89	C	-0.229509	1.201483	-0.674810
C90	C	0.270491	1.701483	-0.174810
C91	C	-0.285459	1.339256	-0.380787
C92	C	0.214541	1.839256	0.119213
C93	C	-0.285466	1.421802	-0.380790
C94	C	0.214534	1.921802	0.119210
C95	C	-0.412004	1.018865	-0.963719
C96	C	0.087996	1.518865	-0.463719
C97	C	-0.396291	1.034585	-1.046275
C98	C	0.103709	1.534585	-0.546275
C99	C	-0.301315	1.129623	-1.046283
C100	C	0.198685	1.629623	-0.546283
C101	C	-0.317019	1.113908	-0.963725
C102	C	0.182981	1.613908	-0.463725
C103	C	-0.372365	1.058529	-0.922450
C104	C	0.127635	1.558529	-0.422450
C105	C	-0.277379	1.153573	-0.922456
C106	C	0.222621	1.653573	-0.422456
C107	C	-0.293084	1.137861	-0.839905
C108	C	0.206916	1.637861	-0.339905
C109	C	-0.348429	1.082486	-0.798624
C110	C	0.151571	1.582486	-0.298624
C111	C	-0.388070	1.042818	-0.839899
C112	C	0.111930	1.542818	-0.339899
C113	C	-0.222037	1.208956	-0.963733
C114	C	0.277963	1.708956	-0.463733
C115	C	-0.182397	1.248620	-0.922464
C116	C	0.317603	1.748620	-0.422464
C117	C	-0.198099	1.232905	-0.839912
C118	C	0.301901	1.732905	-0.339912
C119	C	-0.253443	1.177530	-0.798630
C120	C	0.246557	1.677530	-0.298630
C121	C	-0.158458	1.272574	-0.798636
C122	C	0.341542	1.772574	-0.298636
C123	C	-0.174163	1.256862	-0.716086
C124	C	0.325837	1.756862	-0.216086
C125	C	-0.269148	1.161819	-0.716080
C126	C	0.230852	1.661819	-0.216080
C127	C	-0.324455	1.106524	-0.175410
C128	C	0.175545	1.606524	0.324590
C129	C	-0.340958	1.089955	-0.087552
C130	C	0.159042	1.589955	0.412448
H131	H	-0.226839	0.717667	-0.513940
H132	H	0.273161	1.217667	-0.013940
H133	H	-0.212277	0.673634	-0.283391
H134	H	0.287723	1.173634	0.216609
C135	C	-0.389864	1.130610	-0.680359
C136	C	0.110136	1.630610	-0.180359
C137	C	-0.365694	1.065213	-0.707882
C138	C	0.134306	1.565213	-0.207882
H139	H	-0.400517	1.119946	-0.624339
H140	H	0.099483	1.619946	-0.124339
H141	H	-0.434234	1.146971	-0.699024
H142	H	0.065766	1.646971	-0.199024
H143	H	-0.351225	1.169263	-0.699038
H144	H	0.148775	1.669263	-0.199038
H145	H	-0.404335	1.026562	-0.689207
H146	H	0.095665	1.526562	-0.189207
H147	H	-0.321318	1.048842	-0.689209
H148	H	0.178682	1.548842	-0.189209
C149	C	-0.141391	1.379231	-0.947878
C150	C	0.358609	1.879231	-0.447878
C151	C	-0.121562	1.309491	-0.967838
C152	C	0.378438	1.809491	-0.467838
H153	H	-0.103833	1.416809	-0.975894
H154	H	0.396167	1.916809	-0.475894
H155	H	-0.145067	1.375545	-0.892814
H156	H	0.354933	1.875545	-0.392814
H157	H	-0.188718	1.392640	-0.961404
H158	H	0.311282	1.892640	-0.461404
H159	H	-0.074237	1.296078	-0.954307
H160	H	0.425763	1.796078	-0.454307
H161	H	-0.117878	1.313175	-1.022914
H162	H	0.382122	1.813175	-0.522914
H163	H	-0.849736	1.218713	-0.283330
H164	H	-0.349736	1.718713	0.216670
C165	C	-0.170726	1.170704	-1.071713
C166	C	0.329274	1.670704	-0.571713
C167	C	-0.240479	1.190494	-1.091656
C168	C	0.259521	1.690494	-0.591656
H169	H	-0.133168	1.208286	-1.099721
H170	H	0.366832	1.708286	-0.599721
H171	H	-0.157287	1.123395	-1.085252
H172	H	0.342713	1.623395	-0.585252
H173	H	-0.174415	1.167024	-1.016641
H174	H	0.325585	1.667024	-0.516641
H175	H	-0.236791	1.194168	-1.146728
H176	H	0.263209	1.694168	-0.646728
H177	H	-0.253920	1.237816	-1.078123
H178	H	0.246080	1.737816	-0.578123
C179	C	-0.790181	1.002733	-0.205871
C180	C	-0.290181	1.502733	0.294129
C181	C	-0.760680	1.077294	-0.226263
C182	C	-0.260680	1.577294	0.273737
H183	H	-0.781881	0.980251	-0.155019
H184	H	-0.281881	1.480251	0.344981
H185	H	-0.765775	0.974816	-0.243373
H186	H	-0.265775	1.474816	0.256627
H187	H	-0.842900	1.002569	-0.205378
H188	H	-0.342900	1.502569	0.294622
H189	H	-0.707960	1.077458	-0.226761
H190	H	-0.207960	1.577458	0.273239
H191	H	-0.785085	1.105219	-0.188752
H192	H	-0.285085	1.605219	0.311248
C193	C	-0.738612	0.985905	-0.473240
C194	C	-0.238612	1.485905	0.026760
C195	C	-0.709704	1.060679	-0.493721
C196	C	-0.209704	1.560679	0.006279
H197	H	-0.713502	0.957942	-0.510373
H198	H	-0.213502	1.457942	-0.010373
H199	H	-0.791211	0.985248	-0.473330
H200	H	-0.291211	1.485248	0.026670
H201	H	-0.730716	0.963812	-0.422132
H202	H	-0.230716	1.463812	0.077868
H203	H	-0.717605	1.082774	-0.544827
H204	H	-0.217605	1.582774	-0.044827
H205	H	-0.657093	1.061339	-0.493640
H206	H	-0.157093	1.561339	0.006360
C207	C	-0.480412	0.950466	-0.848174
C208	C	0.019588	1.450466	-0.348174
C209	C	-0.448925	0.981960	-0.794521
C210	C	0.051075	1.481960	-0.294521
H211	H	-0.517988	0.912907	-0.820158
H212	H	-0.017988	1.412907	-0.320158
H213	H	-0.441935	0.928185	-0.880365
H214	H	0.058065	1.428185	-0.380365
H215	H	-0.502678	0.988948	-0.880380
H216	H	-0.002678	1.488948	-0.380380
H217	H	-0.426654	0.943480	-0.762318
H218	H	0.073346	1.443480	-0.262318
H219	H	-0.487408	1.004241	-0.762317
H220	H	0.012592	1.504241	-0.262317
H221	H	-0.457055	0.973751	-0.930110
H222	H	0.042945	1.473751	-0.430110
C223	C	-0.740060	1.235497	-0.586253
C224	C	-0.240060	1.735497	-0.086253
C225	C	-0.809588	1.213741	-0.535275
C226	C	-0.309588	1.713741	-0.035275
H227	H	-0.748447	1.257926	-0.637086
H228	H	-0.248447	1.757926	-0.137086
H229	H	-0.710487	1.192335	-0.589779
H230	H	-0.210487	1.692335	-0.089779
H231	H	-0.714100	1.270997	-0.566472
H232	H	-0.214100	1.770997	-0.066472
H233	H	-0.835547	1.178237	-0.555053
H234	H	-0.335547	1.678237	-0.055053
H235	H	-0.839174	1.256909	-0.531752
H236	H	-0.339174	1.756909	-0.031752
C237	C	-0.491757	0.939054	-1.037973
C238	C	0.008243	1.439054	-0.537973
C239	C	-0.439865	0.990978	-1.091639
C240	C	0.060135	1.490978	-0.591639
H241	H	-0.518654	0.912133	-1.065981
H242	H	-0.018654	1.412133	-0.565981
H243	H	-0.526291	0.965268	-1.005772
H244	H	-0.026291	1.465268	-0.505772
H245	H	-0.465515	0.904539	-1.005780
H246	H	0.034485	1.404539	-0.505780
H247	H	-0.466108	1.025497	-1.123829
H248	H	0.033892	1.525497	-0.623829
H249	H	-0.405326	0.964764	-1.123854
H250	H	0.094674	1.464764	-0.623854
C251	C	-0.027869	1.313667	-0.824075
C252	C	0.472131	1.813667	-0.324075
C253	C	-0.097627	1.333448	-0.844011
C254	C	0.402373	1.833448	-0.344011
H255	H	0.009683	1.351253	-0.852084
H256	H	0.509683	1.851253	-0.352084
H257	H	-0.014426	1.266359	-0.837616
H258	H	0.485574	1.766359	-0.337616
H259	H	-0.031555	1.309986	-0.769003
H260	H	0.468445	1.809986	-0.269003
H261	H	-0.093942	1.337124	-0.899083
H262	H	0.406058	1.837124	-0.399083
H263	H	-0.111073	1.380769	-0.830475
H264	H	0.388927	1.880769	-0.330475
H265	H	-0.838405	1.013788	-0.345064
H266	H	-0.338405	1.513788	0.154936
H267	H	-0.731710	1.277373	-0.416585
H268	H	-0.231710	1.777373	0.083415
H269	H	-0.417287	0.685453	-0.344920
H270	H	0.082713	1.185453	0.155080
C271	C	-0.353350	0.485227	-0.226975
C272	C	0.146650	0.985227	0.273025
C273	C	-0.353642	0.562653	-0.226221
C274	C	0.146358	1.062653	0.273779
H275	H	-0.375805	0.457547	-0.176119
H276	H	0.124195	0.957547	0.323881
H277	H	-0.302764	0.470565	-0.240853
H278	H	0.197236	0.970565	0.259147
H279	H	-0.381296	0.475061	-0.264458
H280	H	0.118704	0.975061	0.235542
H281	H	-0.325691	0.572821	-0.188741
H282	H	0.174309	1.072821	0.311259
H283	H	-0.404238	0.577321	-0.212333
H284	H	0.095762	1.077321	0.287667
H285	H	-0.314199	1.116705	-0.682471
H286	H	0.185801	1.616705	-0.182471
C287	C	-0.091940	1.249566	-0.623248
C288	C	0.408060	1.749566	-0.123248
C289	C	-0.130598	1.300460	-0.670711
C290	C	0.369402	1.800460	-0.170711
H291	H	-0.065052	1.276485	-0.595231
H292	H	0.434948	1.776485	-0.095231
H293	H	-0.057397	1.223366	-0.655455
H294	H	0.442603	1.723366	-0.155455
H295	H	-0.127158	1.214338	-0.586858
H296	H	0.372842	1.714338	-0.086858
H297	H	-0.095379	1.335684	-0.707104
H298	H	0.404621	1.835684	-0.207104
H299	H	-0.165143	1.326672	-0.638500
H300	H	0.334857	1.826672	-0.138500
C301	C	-0.124957	0.569016	-0.490359
C302	C	0.375043	1.069016	0.009641
C303	C	-0.132535	0.599882	-0.422442
C304	C	0.367465	1.099882	0.077558
H305	H	-0.074638	0.553536	-0.504079
H306	H	0.425362	1.053536	-0.004079
H307	H	-0.135999	0.605978	-0.532493
H308	H	0.364001	1.105978	-0.032493
H309	H	-0.159087	0.526592	-0.480558
H310	H	0.340913	1.026592	0.019442
H311	H	-0.098409	0.642310	-0.432245
H312	H	0.401591	1.142310	0.067755
H313	H	-0.121484	0.562917	-0.380298
H314	H	0.378516	1.062917	0.119702
C315	C	-0.445226	0.634401	-0.473071
C316	C	0.054774	1.134401	0.026929
C317	C	-0.370444	0.613398	-0.493616
C318	C	0.129556	1.113398	0.006384
H319	H	-0.473213	0.623375	-0.510174
H320	H	0.026787	1.123375	-0.010174
H321	H	-0.445905	0.687032	-0.473155
H322	H	0.054095	1.187032	0.026845
H323	H	-0.467279	0.607030	-0.421953
H324	H	0.032721	1.107030	0.078047
H325	H	-0.348388	0.640774	-0.544731
H326	H	0.151612	1.140774	-0.044731
H327	H	-0.369761	0.560758	-0.493540
H328	H	0.130239	1.060758	0.006460
H329	H	-0.209254	1.221748	-1.030951
H330	H	0.290746	1.721748	-0.530951
