data_functionalizedCrystal
_audit_creation_method	'MofGen! by Chris Wilmer'
_symmetry_space_group_name_H-M	'P1'
_symmetry_Int_Tables_number	1
_symmetry_cell_setting	triclinic
loop_
_symmetry_equiv_pos_as_xyz
  x,y,z
_cell_length_a	15.995350
_cell_length_b	19.188930
_cell_length_c	14.472310
_cell_angle_alpha	89.993787
_cell_angle_beta	89.990621
_cell_angle_gamma	83.318578
loop_
_atom_site_label
_atom_site_type_symbol
_atom_site_fract_x
_atom_site_fract_y
_atom_site_fract_z
O1	O	1.110667	0.089991	-0.076773
O2	O	0.866851	0.101105	-0.076794
O3	O	0.995795	-0.006090	-0.076765
O4	O	0.981723	0.197186	-0.076802
O5	O	0.995762	-0.006083	0.076917
O6	O	0.866818	0.101111	0.076888
O7	O	1.110634	0.089998	0.076909
Cu8	Cu	0.988723	0.095555	0.090931
Cu9	Cu	0.988762	0.095547	-0.090816
O10	O	0.981690	0.197192	0.076880
C11	C	0.835641	0.100648	0.000045
C12	C	0.742696	0.099271	0.000038
C13	C	0.404967	0.094324	0.000058
C14	C	0.452680	0.017982	0.000415
C15	C	0.549365	0.019360	0.000062
C16	C	0.572518	0.096778	0.000049
C17	C	0.531312	0.134429	-0.087714
C18	C	0.434683	0.132511	-0.087781
C19	C	0.434301	0.134095	0.086984
C20	C	0.531246	0.134077	0.088137
C21	C	0.667211	0.098169	0.000040
C22	C	0.310274	0.092936	0.000060
C23	C	0.995323	-0.032099	0.000079
C24	C	0.993955	-0.109607	0.000087
C25	C	1.069615	-0.154338	0.000097
C26	C	1.068330	-0.227165	0.000082
C27	C	0.991380	-0.255258	0.000075
C28	C	0.915710	-0.210517	0.000059
C29	C	0.916997	-0.137691	0.000065
N30	N	0.932550	-0.363410	0.052371
N31	N	0.931332	-0.432592	0.052368
C32	C	0.987497	-0.474676	0.000056
N33	N	1.044938	-0.444967	-0.052240
N34	N	1.046158	-0.375779	-0.052233
C35	C	0.989976	-0.334224	0.000069
C36	C	1.061769	-0.598375	0.000050
C37	C	1.060480	-0.671204	0.000029
C38	C	0.907859	-0.654553	0.000015
C39	C	0.909149	-0.581727	0.000027
C40	C	0.986106	-0.553643	0.000048
C41	C	1.141843	0.090454	0.000068
C42	C	1.234789	0.091831	0.000069
C43	C	0.982162	0.223201	0.000034
C44	C	0.983530	0.300709	0.000020
N45	N	0.988701	0.095560	0.218762
N46	N	0.988790	0.095537	-0.218647
C47	C	0.988761	0.095545	0.592853
C48	C	0.919535	0.152710	0.553672
C49	C	0.919694	0.152918	0.446584
C50	C	0.988731	0.095552	0.407262
C51	C	1.076037	0.111464	0.446103
C52	C	1.075648	0.111870	0.553224
C53	C	0.971460	0.022298	0.553394
C54	C	0.969454	0.022787	0.446266
C55	C	0.988719	0.095555	0.302374
C56	C	0.988778	0.095543	0.697741
H57	H	0.546404	0.190533	0.093428
C58	C	1.039653	-0.035176	0.587630
C59	C	1.110693	-0.015787	0.651072
C60	C	1.178887	-0.073254	0.685316
C61	C	1.176041	-0.150110	0.656117
C62	C	1.104999	-0.169503	0.592672
C63	C	1.036805	-0.112035	0.558428
H64	H	1.112801	0.041110	0.672690
H65	H	1.231477	-0.058898	0.732282
H66	H	1.226522	-0.192651	0.681466
H67	H	1.102890	-0.226399	0.571054
H68	H	0.984215	-0.126391	0.511462
C69	C	0.569778	0.099087	-0.175940
C70	C	0.664897	0.096591	-0.194400
C71	C	0.703360	0.061241	-0.282621
C72	C	0.646705	0.028387	-0.352383
C73	C	0.551581	0.030882	-0.333926
C74	C	0.513117	0.066232	-0.245704
H75	H	0.706841	0.120912	-0.142756
H76	H	0.773777	0.059394	-0.296284
H77	H	0.675177	0.002218	-0.417690
H78	H	0.509636	0.006560	-0.385569
H79	H	0.442700	0.068078	-0.232041
C80	C	0.823210	-0.685443	0.000007
C81	C	0.760416	-0.668569	0.079804
C82	C	0.675764	-0.699460	0.079792
C83	C	0.653905	-0.747227	-0.000017
C84	C	0.716701	-0.764104	-0.079820
C85	C	0.801353	-0.733212	-0.079808
H86	H	0.776595	-0.633207	0.138889
H87	H	0.629278	-0.686967	0.138868
H88	H	0.591240	-0.770095	-0.000026
H89	H	0.700521	-0.799465	-0.138905
H90	H	0.847838	-0.745705	-0.138884
H91	H	1.122095	-0.707624	0.000033
H92	H	0.577889	-0.010236	0.062975
C93	C	0.831064	-0.241415	0.000054
C94	C	0.747835	-0.192207	0.000043
C95	C	0.663186	-0.223104	0.000032
C96	C	0.661766	-0.303208	0.000033
C97	C	0.744998	-0.352421	0.000044
C98	C	0.829647	-0.321524	0.000054
H99	H	0.748884	-0.132904	0.000043
H100	H	0.601572	-0.186673	0.000024
H101	H	0.599103	-0.326080	0.000025
H102	H	0.743949	-0.411724	0.000044
H103	H	0.891261	-0.357955	0.000062
C104	C	1.151560	-0.276381	0.000099
C105	C	1.150142	-0.356486	0.000094
C106	C	1.233372	-0.405700	0.000110
C107	C	1.318020	-0.374809	0.000132
C108	C	1.319442	-0.294700	0.000137
C109	C	1.236212	-0.245486	0.000120
H110	H	1.087478	-0.379358	0.000077
H111	H	1.232319	-0.465002	0.000107
H112	H	1.379632	-0.411240	0.000145
H113	H	1.382106	-0.271829	0.000153
H114	H	1.237264	-0.186184	0.000124
H115	H	0.402333	0.190382	0.087568
H116	H	0.854789	0.143438	0.420324
H117	H	0.847538	-0.545305	0.000023
C118	C	0.410099	0.095407	-0.176391
C119	C	0.366440	0.028170	-0.169677
C120	C	0.341861	-0.008936	-0.258287
C121	C	0.360942	0.021194	-0.353612
C122	C	0.404604	0.088435	-0.360329
C123	C	0.429182	0.125542	-0.271719
H124	H	0.352313	0.005862	-0.099109
H125	H	0.309540	-0.058713	-0.253314
H126	H	0.342747	-0.006274	-0.419207
H127	H	0.418730	0.110743	-0.430898
H128	H	0.461504	0.175318	-0.276692
C129	C	0.833766	-0.088482	0.000061
C130	C	0.770651	-0.091615	-0.079748
C131	C	0.687419	-0.042405	-0.079748
C132	C	0.667301	0.009939	0.000060
C133	C	0.730417	0.013074	0.079875
C134	C	0.813650	-0.036136	0.079876
H135	H	0.785542	-0.130365	-0.138832
H136	H	0.640696	-0.044726	-0.138833
H137	H	0.605687	0.046367	0.000060
H138	H	0.715526	0.051824	0.138960
H139	H	0.860372	-0.033815	0.138961
C140	C	1.146417	-0.567474	0.000061
C141	C	1.168273	-0.519710	0.079873
C142	C	1.252920	-0.488811	0.079884
C143	C	1.315711	-0.505675	0.000082
C144	C	1.293857	-0.553442	-0.079737
C145	C	1.209209	-0.584341	-0.079747
H146	H	1.121790	-0.507224	0.138953
H147	H	1.269098	-0.453451	0.138971
H148	H	1.378373	-0.482801	0.000090
H149	H	1.340340	-0.565928	-0.138817
H150	H	1.193031	-0.619701	-0.138835
H151	H	0.558650	0.106592	0.153064
C152	C	1.154268	-0.123449	0.000104
C153	C	1.217031	-0.140339	0.079907
C154	C	1.301685	-0.109449	0.079909
C155	C	1.323575	-0.061670	0.000106
C156	C	1.260810	-0.044777	-0.079704
C157	C	1.176156	-0.075667	-0.079705
H158	H	1.200828	-0.175710	0.138987
H159	H	1.348148	-0.121955	0.138989
H160	H	1.386241	-0.038804	0.000107
H161	H	1.277013	-0.009406	-0.138784
H162	H	1.129694	-0.063162	-0.138786
H163	H	1.091696	0.164273	0.419257
C164	C	0.934247	0.225736	0.589951
C165	C	1.008779	0.233642	0.654939
C166	C	1.023511	0.306670	0.691194
C167	C	0.963709	0.371793	0.662459
C168	C	0.889172	0.363890	0.597466
C169	C	0.874440	0.290862	0.561212
H170	H	1.053052	0.185432	0.676214
H171	H	1.078689	0.312520	0.739305
H172	H	0.974614	0.425853	0.689296
H173	H	0.844899	0.412100	0.576192
H174	H	0.819262	0.285011	0.513101
C175	C	0.887324	0.001638	0.589920
C176	C	0.873822	-0.006379	0.694564
C177	C	0.789683	-0.027031	0.731090
C178	C	0.719044	-0.039664	0.662973
C179	C	0.732544	-0.031647	0.558323
C180	C	0.816684	-0.010996	0.521797
H181	H	0.926115	0.002973	0.744994
H182	H	0.779690	-0.032965	0.808559
H183	H	0.656759	-0.054952	0.690012
H184	H	0.680251	-0.041000	0.507893
H185	H	0.826676	-0.005061	0.444327
C186	C	0.934581	0.226347	0.411932
C187	C	0.946367	0.284977	0.481732
C188	C	0.961256	0.358409	0.447080
C189	C	0.964359	0.373211	0.342629
C190	C	0.952572	0.314579	0.272822
C191	C	0.937683	0.241147	0.307474
H192	H	0.944071	0.274022	0.559059
H193	H	0.969982	0.401812	0.498756
H194	H	0.975380	0.427569	0.316978
H195	H	0.954868	0.325534	0.195495
H196	H	0.928958	0.197744	0.255798
C197	C	1.033173	-0.037381	0.410128
C198	C	1.002428	-0.097302	0.353336
C199	C	1.066156	-0.157470	0.317203
C200	C	1.160629	-0.157716	0.337862
C201	C	1.191378	-0.097792	0.394656
C202	C	1.127650	-0.037625	0.430789
H203	H	0.932490	-0.097122	0.338040
H204	H	1.043393	-0.201829	0.275159
H205	H	1.207804	-0.202255	0.311114
H206	H	1.261317	-0.097972	0.409952
H207	H	1.150414	0.006734	0.472833
H208	H	0.854420	0.143386	0.579456
C209	C	1.147338	0.057914	0.588527
C210	C	1.148987	-0.020133	0.562965
C211	C	1.220694	-0.074012	0.598398
C212	C	1.290752	-0.049846	0.659394
C213	C	1.289106	0.028205	0.684959
C214	C	1.217399	0.082085	0.649526
H215	H	1.097123	-0.038026	0.517810
H216	H	1.221912	-0.131791	0.579473
H217	H	1.343834	-0.089731	0.685624
H218	H	1.340970	0.046098	0.730114
H219	H	1.216181	0.139863	0.668451
H220	H	0.905232	0.010711	0.420881
H221	H	1.128770	0.070935	0.420631
H222	H	0.402230	0.188560	-0.091773
H223	H	1.090934	0.165288	0.578192
H224	H	0.434256	-0.012531	0.063354
C225	C	0.406674	0.100381	0.176854
C226	C	0.357113	0.036300	0.172455
C227	C	0.329486	0.002578	0.262320
C228	C	0.351420	0.032936	0.356583
C229	C	0.400984	0.097020	0.360985
C230	C	0.428611	0.130743	0.271121
H231	H	0.340873	0.013824	0.102673
H232	H	0.292796	-0.044862	0.259060
H233	H	0.330969	0.007972	0.423106
H234	H	0.417223	0.119496	0.430768
H235	H	0.465301	0.178183	0.274381
C236	C	0.550115	0.211265	-0.092146
C237	C	0.598101	0.237033	-0.175347
C238	C	0.616905	0.313869	-0.179776
C239	C	0.587724	0.364937	-0.101004
C240	C	0.539735	0.339169	-0.017798
C241	C	0.520931	0.262334	-0.013368
H242	H	0.619705	0.199229	-0.233664
H243	H	0.652430	0.332944	-0.241372
H244	H	0.601644	0.421815	-0.104283
H245	H	0.518131	0.376974	0.040519
H246	H	0.485406	0.243259	0.048227
H247	H	0.577346	-0.010441	-0.062950
H248	H	0.433211	-0.012395	-0.062166
