data_functionalizedCrystal
_audit_creation_method	'MofGen! by Chris Wilmer'
_symmetry_space_group_name_H-M	'P1'
_symmetry_Int_Tables_number	1
_symmetry_cell_setting	triclinic
loop_
_symmetry_equiv_pos_as_xyz
  x,y,z
_cell_length_a	13.032831
_cell_length_b	14.908178
_cell_length_c	13.032268
_cell_angle_alpha	93.450130
_cell_angle_beta	90.886977
_cell_angle_gamma	85.691885
loop_
_atom_site_label
_atom_site_type_symbol
_atom_site_fract_x
_atom_site_fract_y
_atom_site_fract_z
Zn1	Zn	1.463993	-0.600635	-0.736261
Zn2	Zn	1.963993	-0.100635	-0.236261
Zn3	Zn	1.478127	-0.733146	-0.554448
Zn4	Zn	1.978127	-0.233146	-0.054448
Zn5	Zn	1.315984	-0.563482	-0.545260
Zn6	Zn	1.815984	-0.063482	-0.045260
Zn7	Zn	1.284651	-0.728337	-0.704930
Zn8	Zn	1.784651	-0.228337	-0.204930
O9	O	1.385689	-0.656400	-0.635225
O10	O	1.885689	-0.156400	-0.135225
O11	O	1.608780	-0.635774	-0.729101
O12	O	2.108780	-0.135774	-0.229101
O13	O	1.475646	-0.697103	-0.410317
O14	O	1.975646	-0.197103	0.089683
O15	O	1.342816	-0.443962	-0.579863
O16	O	1.842816	0.056038	-0.079863
O17	O	1.619164	-0.733129	-0.595523
O18	O	2.119164	-0.233129	-0.095523
O19	O	1.451557	-0.471258	-0.720192
O20	O	1.951557	0.028742	-0.220192
O21	O	1.356521	-0.572452	-0.403566
O22	O	1.856521	-0.072452	0.096434
O23	O	1.168916	-0.567789	-0.549482
O24	O	1.668916	-0.067789	-0.049482
O25	O	1.289413	-0.724934	-0.851998
O26	O	1.789413	-0.224934	-0.351998
O27	O	1.145895	-0.688907	-0.666791
O28	O	1.645895	-0.188907	-0.166791
O29	O	1.421174	-0.631112	-0.875017
O30	O	1.921174	-0.131112	-0.375017
O31	O	1.445264	-0.856957	-0.565142
O32	O	1.945264	-0.356957	-0.065142
O33	O	1.303118	-0.853424	-0.675701
O34	O	1.803118	-0.353424	-0.175701
C35	C	1.120350	-0.623795	-0.603741
C36	C	1.620350	-0.123795	-0.103741
C37	C	1.006832	-0.609871	-0.590294
C38	C	1.506832	-0.109871	-0.090294
C39	C	0.944867	-0.663668	-0.642242
C40	C	1.444867	-0.163668	-0.142242
C41	C	0.827540	-0.649277	-0.628346
C42	C	1.327540	-0.149277	-0.128346
C43	C	1.372349	-0.887464	-0.618044
C44	C	1.872349	-0.387464	-0.118044
C45	C	1.366731	-0.986328	-0.610740
C46	C	1.866731	-0.486328	-0.110740
C47	C	1.469289	-1.200381	-0.743266
C48	C	1.969289	-0.700381	-0.243266
C49	C	1.464014	-1.293274	-0.736406
C50	C	1.964014	-0.793274	-0.236406
C51	C	1.350900	-1.265009	-0.590167
C52	C	1.850900	-0.765009	-0.090167
C53	C	1.356175	-1.172116	-0.597026
C54	C	1.856175	-0.672116	-0.097026
C55	C	1.415373	-1.139806	-0.673577
C56	C	1.915373	-0.639806	-0.173577
C57	C	1.420654	-1.046911	-0.680431
C58	C	1.920654	-0.546911	-0.180431
C59	C	1.307535	-1.018648	-0.534197
C60	C	1.807535	-0.518648	-0.034197
C61	C	1.302259	-1.111541	-0.527338
C62	C	1.802259	-0.611541	-0.027338
C63	C	1.652064	-0.689133	-0.666832
C64	C	2.152064	-0.189133	-0.166832
C65	C	1.765577	-0.703081	-0.680301
C66	C	2.265577	-0.203081	-0.180301
C67	C	1.350222	-0.681631	-0.901599
C68	C	1.850222	-0.181631	-0.401599
C69	C	1.335108	-0.692382	-1.015112
C70	C	1.835108	-0.192382	-0.515112
C71	C	1.399105	-0.424440	-0.652498
C72	C	1.899105	0.075560	-0.152498
C73	C	1.404822	-0.325592	-0.659858
C74	C	1.904822	0.174408	-0.159858
C75	C	1.393563	-0.650755	-1.077110
C76	C	1.893563	-0.150755	-0.577110
C77	C	1.377943	-0.661866	-1.194432
C78	C	1.877943	-0.161866	-0.694432
C79	C	1.421080	-0.631211	-0.369898
C80	C	1.921080	-0.131211	0.130102
C81	C	1.436406	-0.620233	-0.256427
C82	C	1.936406	-0.120233	0.243573
H83	H	1.468859	-1.020606	-0.742761
H84	H	1.968859	-0.520606	-0.242761
O85	O	1.518023	-0.562123	-1.211701
O86	O	2.018023	-0.062123	-0.711701
H87	H	1.594592	-0.589145	-1.240500
H88	H	2.094592	-0.089145	-0.740500
O89	O	1.287046	-1.299859	-0.507608
O90	O	1.787046	-0.799859	-0.007608
H91	H	1.316309	-1.276610	-0.430874
H92	H	1.816309	-0.776610	0.069126
O93	O	1.475173	-0.592645	-1.032380
O94	O	1.975173	-0.092645	-0.532380
H95	H	1.551743	-0.619664	-1.061179
H96	H	2.051743	-0.119664	-0.561179
O97	O	1.296320	-0.719971	-1.239155
O98	O	1.796320	-0.219971	-0.739155
H99	H	1.332984	-0.775408	-1.289812
H100	H	1.832984	-0.275408	-0.789812
H101	H	1.273493	-0.736241	-1.048891
H102	H	1.773493	-0.236241	-0.548891
O103	O	1.249385	-0.953304	-0.459028
O104	O	1.749385	-0.453304	0.040972
H105	H	1.276641	-0.965718	-0.379664
H106	H	1.776641	-0.465718	0.120336
H107	H	0.799380	-0.759792	-0.735074
H108	H	1.299380	-0.259792	-0.235074
H109	H	0.978677	-0.720376	-0.697008
H110	H	1.478677	-0.220376	-0.197008
H111	H	0.793735	-0.592559	-0.573584
H112	H	1.293735	-0.092559	-0.073584
H113	H	1.254059	-1.137861	-0.465014
H114	H	1.754059	-0.637861	0.034986
O115	O	0.962051	-0.534762	-0.517738
O116	O	1.462051	-0.034762	-0.017738
H117	H	0.909945	-0.487997	-0.561165
H118	H	1.409945	0.012003	-0.061165
O119	O	1.533143	-1.165521	-0.825817
O120	O	2.033143	-0.665521	-0.325817
H121	H	1.569750	-1.223250	-0.873125
H122	H	2.069750	-0.723250	-0.373125
H123	H	1.507912	-1.342592	-0.793158
H124	H	2.007912	-0.842592	-0.293158
