data_functionalizedCrystal
_audit_creation_method	'MofGen! by Chris Wilmer'
_symmetry_space_group_name_H-M	'P1'
_symmetry_Int_Tables_number	1
_symmetry_cell_setting	triclinic
loop_
_symmetry_equiv_pos_as_xyz
  x,y,z
_cell_length_a	10.868271
_cell_length_b	19.288864
_cell_length_c	19.288865
_cell_angle_alpha	83.136245
_cell_angle_beta	89.989638
_cell_angle_gamma	89.981837
loop_
_atom_site_label
_atom_site_type_symbol
_atom_site_fract_x
_atom_site_fract_y
_atom_site_fract_z
O1	O	0.102731	-0.921348	-0.086648
O2	O	0.102649	-0.719087	-0.098337
O3	O	0.102668	-0.826062	0.008638
O4	O	0.102712	-0.814373	-0.193623
O5	O	-0.101977	-0.826053	0.008642
O6	O	-0.101996	-0.719079	-0.098333
O7	O	-0.101914	-0.921339	-0.086644
Zn8	Zn	-0.134447	-0.820208	-0.092488
Zn9	Zn	0.135181	-0.820219	-0.092493
O10	O	-0.101933	-0.814365	-0.193619
C11	C	0.000315	-0.693207	-0.097959
C12	C	0.000283	-0.616103	-0.096830
C13	C	0.000342	-0.825682	0.034516
C14	C	0.000330	-0.824553	0.111620
N15	N	-0.318461	-0.820205	-0.092484
C16	C	-0.569467	-0.820216	-0.092492
C17	C	-0.429789	-0.820207	-0.092489
N18	N	0.319196	-0.820227	-0.092492
C19	C	0.000422	-0.947220	-0.087022
C20	C	0.000463	-1.024324	-0.088151
C21	C	0.000316	-0.571407	-0.159598
C22	C	0.000329	-0.498960	-0.158537
C23	C	0.000334	-0.471212	-0.094705
C24	C	0.000294	-0.515918	-0.031929
C25	C	0.000269	-0.588364	-0.032991
C26	C	0.072061	-0.362953	-0.044527
C27	C	0.072094	-0.290509	-0.043467
C28	C	0.000408	-0.247767	-0.091425
C29	C	-0.071295	-0.277476	-0.140455
C30	C	-0.071321	-0.349922	-0.141517
C31	C	0.000361	-0.392658	-0.093546
C32	C	0.000454	-0.124514	-0.153047
C33	C	0.000460	-0.052066	-0.151984
C34	C	0.000437	-0.069026	-0.025374
C35	C	0.000419	-0.141473	-0.026439
C36	C	0.000433	-0.169212	-0.090278
C37	C	0.000396	-0.814745	-0.219497
C38	C	0.000415	-0.815874	-0.296601
C39	C	0.000350	-0.887321	0.156316
C40	C	0.000369	-0.886260	0.228763
C41	C	0.000344	-0.822428	0.256511
C42	C	0.000331	-0.759652	0.211805
C43	C	0.000324	-0.760714	0.139359
C44	C	-0.071359	-0.772245	0.364800
C45	C	-0.071360	-0.771185	0.437244
C46	C	0.000370	-0.819148	0.479956
C47	C	0.072085	-0.868183	0.450217
C48	C	0.072078	-0.869245	0.377771
C49	C	0.000352	-0.821269	0.335065
C50	C	0.000412	-0.880770	0.603209
C51	C	0.000438	-0.879707	0.675657
C52	C	0.000388	-0.753097	0.658697
C53	C	0.000374	-0.754162	0.586250
C54	C	0.000380	-0.818000	0.558511
H55	H	0.000353	-0.462561	-0.209652
H56	H	0.130444	-0.397749	-0.005472
H57	H	0.000447	-0.147101	-0.205028
N58	N	0.000285	-0.485996	0.036920
H59	H	0.000308	-0.433319	0.028069
H60	H	0.076135	-0.502384	0.064380
H61	H	0.000359	-0.939303	0.133736
H62	H	0.000243	-0.624756	0.018124
N63	N	-0.148670	-0.381962	-0.194389
H64	H	-0.209992	-0.415418	-0.169314
H65	H	-0.093677	-0.408004	-0.224650
N66	N	-0.148614	-0.231387	-0.192190
H67	H	-0.137725	-0.180985	-0.184077
H68	H	-0.238048	-0.244897	-0.185881
N69	N	0.000407	-0.189690	0.041259
H70	H	-0.075465	-0.220105	0.043641
H71	H	0.000461	-0.161076	0.081822
H72	H	0.130495	-0.907238	0.484992
H73	H	0.000422	-0.932751	0.580622
N74	N	0.000392	-0.953961	0.276984
H75	H	0.000397	-0.994563	0.248418
H76	H	-0.075470	-0.956268	0.307419
N77	N	0.000290	-0.690801	0.241724
H78	H	0.076141	-0.663314	0.225402
H79	H	0.000244	-0.699707	0.294396
N80	N	0.149423	-0.922126	0.345693
H81	H	0.194867	-0.952351	0.383739
H82	H	0.210647	-0.897007	0.312204
N83	N	0.000465	-0.947410	0.723869
H84	H	0.000463	-0.988009	0.695300
H85	H	-0.075395	-0.949717	0.754307
N86	N	0.000375	-0.684247	0.688613
H87	H	0.000386	-0.693097	0.741290
H88	H	-0.075500	-0.656784	0.672259
N89	N	0.000303	-0.601323	-0.228450
H90	H	0.000279	-0.654000	-0.219601
H91	H	0.076176	-0.584981	-0.255911
H92	H	0.000518	-0.046435	0.026600
N93	N	0.000397	-0.003854	-0.219687
H94	H	0.000375	-0.032423	-0.260286
H95	H	0.076240	0.026579	-0.222036
N96	N	0.149429	-0.258467	0.009410
H97	H	0.194825	-0.296536	0.039636
H98	H	0.094434	-0.232381	0.039630
H99	H	-0.129777	-0.733186	0.330028
N100	N	0.000346	-0.686462	0.538036
H101	H	0.000332	-0.645862	0.566605
H102	H	-0.075523	-0.684142	0.507619
N103	N	-0.148721	-0.718304	0.469311
H104	H	-0.121968	-0.669620	0.450155
H105	H	-0.137818	-0.724969	0.521681
N106	N	0.000304	-0.693012	0.091146
H107	H	0.000295	-0.652411	0.119713
H108	H	-0.075567	-0.690691	0.060730
