data_functionalizedCrystal
_audit_creation_method	'MofGen! by Chris Wilmer'
_symmetry_space_group_name_H-M	'P1'
_symmetry_Int_Tables_number	1
_symmetry_cell_setting	triclinic
loop_
_symmetry_equiv_pos_as_xyz
  x,y,z
_cell_length_a	9.565339
_cell_length_b	14.519709
_cell_length_c	14.519709
_cell_angle_alpha	96.319855
_cell_angle_beta	90.000716
_cell_angle_gamma	90.002055
loop_
_atom_site_label
_atom_site_type_symbol
_atom_site_fract_x
_atom_site_fract_y
_atom_site_fract_z
O1	O	0.116081	-1.223867	0.120885
O2	O	0.616081	-0.723867	0.620885
O3	O	0.116124	-0.955390	0.135121
O4	O	0.616124	-0.455390	0.635121
O5	O	0.116089	-1.096747	-0.006236
O6	O	0.616089	-0.596747	0.493764
O7	O	0.116116	-1.082510	0.262241
O8	O	0.616116	-0.582510	0.762241
O9	O	-0.116431	-1.096736	-0.006227
O10	O	0.383569	-0.596736	0.493773
O11	O	-0.116396	-0.955379	0.135130
O12	O	0.383604	-0.455379	0.635130
O13	O	-0.116439	-1.223856	0.120893
O14	O	0.383561	-0.723856	0.620893
Zn15	Zn	-0.153335	-1.089616	0.128013
Zn16	Zn	0.346665	-0.589616	0.628013
Zn17	Zn	0.153020	-1.089630	0.128001
Zn18	Zn	0.653020	-0.589630	0.628001
O19	O	-0.116404	-1.082499	0.262250
O20	O	0.383596	-0.582499	0.762250
C21	C	-0.000131	-0.921025	0.134462
C22	C	0.499869	-0.421025	0.634462
C23	C	-0.000115	-0.818643	0.132474
C24	C	0.499885	-0.318643	0.632474
N25	N	-0.362415	-1.089612	0.128020
N26	N	0.137585	-0.589612	0.628020
C27	C	-0.000171	-1.096078	-0.040591
C28	C	0.499829	-0.596078	0.459409
C29	C	-0.000172	-1.094090	-0.142972
C30	C	0.499828	-0.594090	0.357028
C31	C	-0.453601	-1.024220	0.193372
C32	C	0.046399	-0.524220	0.693372
C33	C	-0.546792	-1.107587	0.211404
C34	C	-0.046792	-0.607587	0.711404
C35	C	-0.546780	-1.006281	0.109995
C36	C	-0.046780	-0.506281	0.609995
C37	C	-0.453553	-1.173021	0.146094
C38	C	0.046447	-0.673021	0.646094
C39	C	-0.453533	-1.071661	0.044649
C40	C	0.046467	-0.571661	0.544649
C41	C	-0.546681	-1.155088	0.062646
C42	C	-0.046681	-0.655088	0.562646
N43	N	0.362099	-1.089641	0.127987
N44	N	0.862099	-0.589641	0.627987
C45	C	-0.000181	-1.258221	0.121553
C46	C	0.499819	-0.758221	0.621553
C47	C	-0.000188	-1.360602	0.123541
C48	C	0.499812	-0.860602	0.623541
C49	C	-0.000179	-0.443748	0.125154
C50	C	0.499821	0.056252	0.625154
C51	C	-0.000161	-0.548056	0.127187
C52	C	0.499839	-0.048056	0.627187
C53	C	-0.000145	-0.631192	0.128814
C54	C	0.499855	-0.131192	0.628814
C55	C	-0.000130	-0.735507	0.130847
C56	C	0.499870	-0.235507	0.630847
C57	C	-0.000134	-1.086770	-0.517868
C58	C	0.499866	-0.586770	-0.017868
C59	C	-0.000145	-1.088803	-0.413560
C60	C	0.499855	-0.588803	0.086440
C61	C	-0.000154	-1.090430	-0.330423
C62	C	0.499846	-0.590430	0.169577
C63	C	-0.000163	-1.092463	-0.226109
C64	C	0.499837	-0.592463	0.273891
C65	C	-0.000141	-1.083168	0.296606
C66	C	0.499859	-0.583168	0.796606
C67	C	-0.000131	-1.085156	0.398987
C68	C	0.499869	-0.585156	0.898987
H69	H	-0.412733	-0.968970	0.248688
H70	H	0.087267	-0.468970	0.748688
H71	H	-0.412775	-1.243520	0.161410
H72	H	0.087225	-0.743520	0.661410
C73	C	-0.554208	-1.316999	0.007103
C74	C	-0.054208	-0.816999	0.507103
C75	C	-0.601526	-1.229835	-0.011981
C76	C	-0.101526	-0.729835	0.488019
H77	H	-0.588078	-1.363145	-0.038963
H78	H	-0.088078	-0.863145	0.461037
H79	H	-0.454916	-1.317723	0.007048
H80	H	0.045084	-0.817723	0.507048
H81	H	-0.587561	-1.329250	0.066165
H82	H	-0.087561	-0.829250	0.566165
H83	H	-0.568164	-1.217581	-0.071040
H84	H	-0.068164	-0.717581	0.428960
H85	H	-0.700839	-1.229109	-0.011935
H86	H	-0.200839	-0.729109	0.488065
C87	C	-0.445148	-0.963744	-0.069196
C88	C	0.054852	-0.463744	0.430804
C89	C	-0.398172	-1.051104	-0.050477
C90	C	0.101828	-0.551104	0.449523
H91	H	-0.410959	-0.951044	-0.127920
H92	H	0.089041	-0.451044	0.372080
H93	H	-0.544436	-0.963044	-0.069735
H94	H	-0.044436	-0.463044	0.430265
H95	H	-0.411884	-0.917894	-0.022633
H96	H	0.088116	-0.417894	0.477367
H97	H	-0.431444	-1.096954	-0.097037
H98	H	0.068556	-0.596954	0.402963
H99	H	-0.298863	-1.051811	-0.049945
H100	H	0.201137	-0.551811	0.450055
C101	C	-0.555055	-0.842757	0.157964
C102	C	-0.055055	-0.342757	0.657964
C103	C	-0.602052	-0.911133	0.089420
C104	C	-0.102052	-0.411133	0.589420
H105	H	-0.589167	-0.784016	0.145262
H106	H	-0.089167	-0.284016	0.645262
H107	H	-0.588367	-0.855966	0.216721
H108	H	-0.088367	-0.355966	0.716721
H109	H	-0.455753	-0.841910	0.158384
H110	H	0.044247	-0.341910	0.658384
H111	H	-0.701354	-0.911985	0.089005
H112	H	-0.201354	-0.411985	0.589005
H113	H	-0.568746	-0.897921	0.030649
H114	H	-0.068746	-0.397921	0.530649
H115	H	-0.587755	-1.122789	0.281894
H116	H	-0.087755	-0.622789	0.781894
