data_functionalizedCrystal
_audit_creation_method	'MofGen! by Chris Wilmer'
_symmetry_space_group_name_H-M	'P1'
_symmetry_Int_Tables_number	1
_symmetry_cell_setting	triclinic
loop_
_symmetry_equiv_pos_as_xyz
  x,y,z
_cell_length_a	16.109301
_cell_length_b	16.109301
_cell_length_c	14.586319
_cell_angle_alpha	89.994786
_cell_angle_beta	89.999213
_cell_angle_gamma	83.461481
loop_
_atom_site_label
_atom_site_type_symbol
_atom_site_fract_x
_atom_site_fract_y
_atom_site_fract_z
O1	O	1.103131	0.106866	-0.076185
O2	O	1.603131	0.606866	0.423815
O3	O	0.861069	0.120165	-0.076200
O4	O	1.361069	0.620165	0.423800
O5	O	0.988749	-0.007515	-0.076183
O6	O	1.488749	0.492485	0.423817
O7	O	0.975450	0.234547	-0.076203
O8	O	1.475450	0.734547	0.423797
O9	O	0.988741	-0.007517	0.076298
O10	O	1.488741	0.492483	0.576298
O11	O	0.861060	0.120164	0.076281
O12	O	1.361060	0.620164	0.576281
O13	O	1.103122	0.106864	0.076295
O14	O	1.603122	0.606864	0.576295
Cu15	Cu	0.982090	0.113514	0.090211
Cu16	Cu	1.482090	0.613514	0.590211
Cu17	Cu	0.982101	0.113516	-0.090115
Cu18	Cu	1.482101	0.613516	0.409885
O19	O	0.975441	0.234545	0.076278
O20	O	1.475441	0.734545	0.576278
C21	C	0.830090	0.119626	0.000038
C22	C	1.330090	0.619626	0.500038
C23	C	0.737794	0.118011	0.000033
C24	C	1.237794	0.618011	0.500033
C25	C	0.515522	0.190018	0.000038
C26	C	1.015522	0.690018	0.500038
C27	C	0.428801	0.188494	0.000044
C28	C	0.928801	0.688494	0.500044
C29	C	0.448676	0.037006	0.000052
C30	C	0.948676	0.537006	0.500052
C31	C	0.535394	0.038530	0.000053
C32	C	1.035394	0.538530	0.500053
C33	C	0.568815	0.115039	0.000041
C34	C	1.068815	0.615039	0.500041
C35	C	0.395376	0.111990	0.000046
C36	C	0.895376	0.611990	0.500046
C37	C	0.301350	0.110337	0.000053
C38	C	0.801350	0.610337	0.500053
C39	C	0.662847	0.116693	0.000036
C40	C	1.162847	0.616693	0.500036
C41	C	0.988206	-0.038491	0.000058
C42	C	1.488206	0.461509	0.500058
C43	C	0.986591	-0.130786	0.000059
C44	C	1.486591	0.369214	0.500059
C45	C	1.058599	-0.353059	0.000049
C46	C	1.558599	0.146941	0.500049
C47	C	1.057075	-0.439779	0.000041
C48	C	1.557075	0.060221	0.500041
C49	C	0.905586	-0.419905	0.000036
C50	C	1.405586	0.080095	0.500036
C51	C	0.907111	-0.333186	0.000037
C52	C	1.407111	0.166814	0.500037
C53	C	0.983620	-0.299766	0.000048
C54	C	1.483620	0.200234	0.500048
C55	C	0.980571	-0.473205	0.000039
C56	C	1.480571	0.026795	0.500039
C57	C	0.978918	-0.567231	0.000031
C58	C	1.478918	-0.067231	0.500031
C59	C	0.985273	-0.205734	0.000055
C60	C	1.485273	0.294266	0.500055
C61	C	1.134101	0.107404	0.000055
C62	C	1.634101	0.607404	0.500055
C63	C	1.226397	0.109019	0.000054
C64	C	1.726397	0.609019	0.500054
C65	C	0.975984	0.265521	0.000035
C66	C	1.475984	0.765521	0.500035
C67	C	0.977600	0.357816	0.000028
C68	C	1.477600	0.857816	0.500028
N69	N	0.982089	0.113512	0.217042
N70	N	1.482089	0.613512	0.717042
N71	N	0.982109	0.113511	-0.216947
N72	N	1.482109	0.613511	0.283053
C73	C	1.038644	0.056994	0.452057
C74	C	1.538644	0.556994	0.952057
C75	C	1.038647	0.056992	0.548038
C76	C	1.538647	0.556992	1.048038
C77	C	0.925547	0.170032	0.548032
C78	C	1.425547	0.670032	1.048032
C79	C	0.925541	0.170030	0.452052
C80	C	1.425541	0.670030	0.952052
C81	C	0.982095	0.113511	0.404067
C82	C	1.482095	0.613511	0.904067
C83	C	0.982103	0.113512	0.596028
C84	C	1.482103	0.613512	1.096028
C85	C	0.982105	0.113510	0.700095
C86	C	1.482105	0.613510	1.200095
C87	C	0.982092	0.113512	0.299993
C88	C	1.482092	0.613512	0.799993
H89	H	0.385413	0.249550	0.000043
H90	H	0.885413	0.749550	0.500043
N91	N	0.864538	0.230984	0.400284
N92	N	1.364538	0.730984	0.900284
H93	H	0.828716	0.266791	0.445245
H94	H	1.328716	0.766791	0.945245
H95	H	0.896350	0.267748	0.360449
H96	H	1.396350	0.767748	0.860449
H97	H	1.084694	0.010969	0.587108
H98	H	1.584694	0.510969	1.087108
H99	H	0.542730	0.252317	0.000035
H100	H	1.042730	0.752317	0.500035
H101	H	0.421454	-0.025285	0.000067
H102	H	0.921454	0.474715	0.500067
N103	N	0.592883	-0.042343	0.000067
N104	N	1.092883	0.457657	0.500067
H105	H	0.558554	-0.091043	0.000069
H106	H	1.058554	0.408957	0.500069
H107	H	0.629301	-0.045010	-0.056456
H108	H	1.129301	0.454990	0.443544
N109	N	1.099626	-0.003965	0.400287
N110	N	1.599626	0.496035	0.900287
H111	H	1.158632	0.005620	0.416980
H112	H	1.658632	0.505620	0.916980
H113	H	1.089993	-0.062949	0.417017
H114	H	1.589993	0.437051	0.917017
N115	N	1.141117	-0.317015	0.000057
N116	N	1.641117	0.182985	0.500057
H117	H	1.145130	-0.281469	-0.056464
H118	H	1.645130	0.218531	0.443536
H119	H	1.145073	-0.281528	0.056623
H120	H	1.645073	0.218472	0.556623
N121	N	1.137945	-0.497261	0.000042
N122	N	1.637945	0.002739	0.500042
H123	H	1.186640	-0.462927	0.000050
H124	H	1.686640	0.037073	0.500050
H125	H	1.140608	-0.533680	0.056567
H126	H	1.640608	-0.033680	0.556567
N127	N	0.823069	-0.455952	0.000027
N128	N	1.323069	0.044048	0.500027
H129	H	0.833479	-0.518975	0.000030
H130	H	1.333479	-0.018975	0.500030
H131	H	0.790260	-0.436457	0.056553
H132	H	1.290260	0.063543	0.556553
N133	N	0.826237	-0.275698	0.000029
N134	N	1.326237	0.224302	0.500029
H135	H	0.777538	-0.310026	0.000028
H136	H	1.277538	0.189974	0.500028
H137	H	0.823569	-0.239287	0.056554
H138	H	1.323569	0.260713	0.556554
N139	N	0.864553	0.230989	0.599788
N140	N	1.364553	0.730989	1.099788
H141	H	0.873137	0.222417	0.667873
H142	H	1.373137	0.722417	1.167873
H143	H	0.874137	0.289973	0.583001
H144	H	1.374137	0.789973	1.083001
