data_functionalizedCrystal
_audit_creation_method	'MofGen! by Chris Wilmer'
_symmetry_space_group_name_H-M	'P1'
_symmetry_Int_Tables_number	1
_symmetry_cell_setting	triclinic
loop_
_symmetry_equiv_pos_as_xyz
  x,y,z
_cell_length_a	14.519709
_cell_length_b	10.540539
_cell_length_c	12.996460
_cell_angle_alpha	89.996006
_cell_angle_beta	90.000034
_cell_angle_gamma	84.102818
loop_
_atom_site_label
_atom_site_type_symbol
_atom_site_fract_x
_atom_site_fract_y
_atom_site_fract_z
O1	O	1.224765	0.166400	-0.085428
O2	O	0.956394	0.185995	-0.085459
O3	O	1.096702	-0.008571	-0.085441
O4	O	1.084457	0.360967	-0.085445
O5	O	1.096688	-0.008582	0.085693
O6	O	0.956379	0.185985	0.085675
O7	O	1.224751	0.166389	0.085706
Cu8	Cu	1.090563	0.176186	0.101316
Cu9	Cu	1.090581	0.176199	-0.101069
O10	O	1.084442	0.360956	0.085689
C11	C	0.922022	0.185077	0.000104
C12	C	0.819626	0.182340	0.000092
C13	C	0.444676	0.172265	0.000139
C14	C	0.548999	0.175063	0.000126
C15	C	0.632148	0.177303	0.000115
C16	C	0.736477	0.180101	0.000103
C17	C	1.095777	-0.055870	0.000124
C18	C	1.093029	-0.196790	0.000118
C19	C	0.987750	-0.379142	-0.000278
C20	C	0.990535	-0.232553	0.000107
C21	C	1.142346	-0.258958	0.097849
C22	C	1.138848	-0.405467	0.097931
C23	C	1.140949	-0.405994	-0.096680
C24	C	1.141893	-0.259021	-0.097972
C25	C	1.259123	0.167308	0.000141
C26	C	1.361519	0.170044	0.000146
C27	C	1.085368	0.408255	0.000121
C28	C	1.088115	0.549175	0.000120
N29	N	1.090558	0.176176	0.243664
N30	N	1.090594	0.176198	-0.243416
C31	C	1.090580	0.176200	0.663478
C32	C	1.090571	0.176198	0.546673
C33	C	1.090569	0.176189	0.453574
C34	C	1.090560	0.176185	0.336762
H35	H	0.947268	-0.407325	-0.070364
H36	H	0.951445	-0.190402	0.070273
O37	O	1.095289	-0.438454	0.185099
C38	C	1.019839	-0.365771	0.342632
C39	C	1.069137	-0.328244	0.243945
H40	H	0.998699	-0.276692	0.390247
H41	H	0.955558	-0.413642	0.321259
H42	H	1.068830	-0.434791	0.389485
H43	H	1.020219	-0.259187	0.197046
H44	H	1.133431	-0.280443	0.265389
H45	H	1.212560	-0.454188	0.102373
H46	H	1.105809	-0.217790	-0.170271
H47	H	1.217614	-0.237372	0.101491
H48	H	1.108076	-0.216013	0.170570
O49	O	1.229323	-0.463034	-0.097412
C50	C	1.391744	-0.433818	-0.095157
C51	C	1.291714	-0.369050	-0.094310
H52	H	1.442215	-0.357861	-0.092672
H53	H	1.403279	-0.498725	-0.025176
H54	H	1.403791	-0.492830	-0.168332
H55	H	1.279598	-0.309973	-0.021183
H56	H	1.280228	-0.304217	-0.164340
H57	H	1.216620	-0.235562	-0.103864
O58	O	0.944167	-0.181440	-0.083492
C59	C	0.857364	-0.221402	-0.236055
C60	C	0.909839	-0.279444	-0.141410
H61	H	0.829613	-0.300613	-0.282920
H62	H	0.797207	-0.150844	-0.209725
H63	H	0.906487	-0.169775	-0.285627
H64	H	0.860789	-0.331136	-0.091797
H65	H	0.970007	-0.349935	-0.167811
H66	H	0.947421	-0.408943	0.069405
H67	H	1.107783	-0.437203	-0.170753
