data_functionalizedCrystal
_audit_creation_method	'MofGen! by Chris Wilmer'
_symmetry_space_group_name_H-M	'P1'
_symmetry_Int_Tables_number	1
_symmetry_cell_setting	triclinic
loop_
_symmetry_equiv_pos_as_xyz
  x,y,z
_cell_length_a	12.759399
_cell_length_b	12.759401
_cell_length_c	12.759393
_cell_angle_alpha	89.979434
_cell_angle_beta	90.030906
_cell_angle_gamma	89.986676
loop_
_atom_site_label
_atom_site_type_symbol
_atom_site_fract_x
_atom_site_fract_y
_atom_site_fract_z
Zn1	Zn	-0.418266	-1.606263	0.594007
Zn2	Zn	-0.593981	-1.606153	0.418326
Zn3	Zn	-0.418311	-1.430562	0.418343
Zn4	Zn	-0.593898	-1.430553	0.593964
O5	O	-0.506114	-1.518383	0.506160
O6	O	-0.441591	-1.753270	0.570713
O7	O	-0.570732	-1.582818	0.271307
O8	O	-0.271284	-1.453919	0.441670
O9	O	-0.570688	-1.753189	0.441641
O10	O	-0.271251	-1.583006	0.570730
O11	O	-0.441669	-1.453812	0.271320
O12	O	-0.441587	-1.283540	0.441629
O13	O	-0.570546	-1.453903	0.740991
O14	O	-0.570590	-1.283533	0.570657
O15	O	-0.441510	-1.582997	0.741022
O16	O	-0.740991	-1.582809	0.441599
O17	O	-0.740930	-1.453796	0.570640
C18	C	-0.506085	-1.245415	0.506141
C19	C	-0.506098	-1.128639	0.506157
C20	C	-0.438997	-1.073820	0.573468
C21	C	-0.439003	-0.964096	0.573473
C22	C	-0.573222	-0.964020	0.438854
C23	C	-0.573210	-1.073742	0.438845
C24	C	-0.779081	-1.518318	0.506136
C25	C	-0.895858	-1.518387	0.506161
C26	C	-0.950717	-1.585641	0.439046
C27	C	-1.060441	-1.585708	0.439081
C28	C	-1.060437	-1.451259	0.573349
C29	C	-0.950715	-1.451198	0.573319
C30	C	-0.232081	-1.518476	0.506207
C31	C	-0.115304	-1.518516	0.506227
C32	C	-0.506013	-1.518461	0.780193
C33	C	-0.505970	-1.518495	0.896970
C34	C	-0.506134	-0.792416	0.506176
C35	C	-0.506117	-0.909193	0.506172
C36	C	-0.506139	-1.518365	0.233192
C37	C	-0.505886	-1.518535	0.116416
C38	C	-0.438770	-1.585719	0.951850
C39	C	-0.438725	-1.585737	1.061574
C40	C	-0.573088	-1.451303	1.061529
C41	C	-0.573128	-1.451281	0.951806
H42	H	-0.906055	-1.640352	0.384363
H43	H	-0.384083	-1.640446	0.907205
O44	O	-0.373478	-1.650937	1.115046
C45	C	-0.387853	-1.636562	1.223650
H46	H	-0.422249	-1.555474	1.238616
H47	H	-0.443793	-1.698867	1.254794
C48	C	-0.239282	-1.745826	1.261613
C49	C	-0.281519	-1.646229	1.279995
H50	H	-0.173692	-1.751794	1.296371
H51	H	-0.229599	-1.755515	1.188445
H52	H	-0.285909	-1.797736	1.287567
H53	H	-0.234899	-1.594322	1.254030
H54	H	-0.291191	-1.636531	1.353160
H55	H	-0.627768	-1.396583	1.106190
H56	H	-0.627853	-1.118377	0.384027
O57	O	-0.373705	-1.126985	0.638882
C58	C	-0.314500	-1.055066	0.698311
H59	H	-0.310819	-0.976835	0.655289
H60	H	-0.353072	-1.043425	0.778037
C61	C	-0.207217	-1.193992	0.766489
C62	C	-0.202689	-1.097910	0.713643
H63	H	-0.138248	-1.220421	0.775952
H64	H	-0.247107	-1.242447	0.726454
H65	H	-0.239365	-1.184278	0.832921
H66	H	-0.170553	-1.107628	0.647208
H67	H	-0.162791	-1.049458	0.753668
O68	O	-0.373970	-0.910730	0.638915
C69	C	-0.433877	-0.847303	0.706688
H70	H	-0.513451	-0.830835	0.669491
H71	H	-0.445517	-0.889623	0.784521
C72	C	-0.278369	-0.763323	0.771511
C73	C	-0.376099	-0.743089	0.725821
H74	H	-0.242728	-0.699041	0.783319
H75	H	-0.238008	-0.806057	0.725855
H76	H	-0.288083	-0.798592	0.836367
H77	H	-0.366384	-0.707833	0.660961
H78	H	-0.416458	-0.700346	0.771468
H79	H	-0.627863	-0.919309	0.384052
H80	H	-0.627849	-1.396532	0.907122
H81	H	-1.105102	-1.640474	0.384430
O82	O	-0.897534	-1.385914	0.638664
C83	C	-0.924220	-1.408855	0.743405
H84	H	-1.003854	-1.449281	0.745641
H85	H	-0.862398	-1.462823	0.778817
C86	C	-0.831503	-1.256752	0.804214
C87	C	-0.929315	-1.306397	0.806961
H88	H	-0.834641	-1.193553	0.843420
H89	H	-0.813520	-1.241298	0.733648
H90	H	-0.779994	-1.301736	0.833723
H91	H	-0.980819	-1.261419	0.777440
H92	H	-0.947307	-1.321841	0.877523
H93	H	-1.105116	-1.396555	0.628025
