data_functionalizedCrystal
_audit_creation_method	'MofGen! by Chris Wilmer'
_symmetry_space_group_name_H-M	'P1'
_symmetry_Int_Tables_number	1
_symmetry_cell_setting	triclinic
loop_
_symmetry_equiv_pos_as_xyz
  x,y,z
_cell_length_a	21.395362
_cell_length_b	11.169416
_cell_length_c	21.395355
_cell_angle_alpha	89.989073
_cell_angle_beta	89.956060
_cell_angle_gamma	90.026221
loop_
_atom_site_label
_atom_site_type_symbol
_atom_site_fract_x
_atom_site_fract_y
_atom_site_fract_z
Zn1	Zn	0.957948	-0.477437	-0.354619
Zn2	Zn	0.957888	-0.678108	-0.249855
Zn3	Zn	0.853163	-0.477493	-0.249820
Zn4	Zn	0.853169	-0.678133	-0.354560
O5	O	0.905542	-0.577793	-0.302213
O6	O	1.045618	-0.504023	-0.340761
O7	O	0.943968	-0.651509	-0.162172
O8	O	0.867086	-0.309536	-0.263732
O9	O	1.045574	-0.651455	-0.263792
O10	O	0.944071	-0.309495	-0.340727
O11	O	0.867027	-0.504118	-0.162147
O12	O	0.765486	-0.504142	-0.263675
O13	O	0.867096	-0.651497	-0.442246
O14	O	0.765491	-0.651551	-0.340627
O15	O	0.944077	-0.504047	-0.442289
O16	O	0.943974	-0.846061	-0.263734
O17	O	0.867038	-0.846079	-0.340661
C18	C	0.742754	-0.577856	-0.302141
C19	C	0.673113	-0.577912	-0.302124
C20	C	0.640419	-0.654770	-0.342133
C21	C	0.574984	-0.654741	-0.342161
C22	C	0.542245	-0.577866	-0.302169
C23	C	0.574947	-0.500994	-0.262157
C24	C	0.640381	-0.501017	-0.262135
C25	C	0.438518	-0.568198	-0.245763
C26	C	0.373085	-0.568183	-0.245784
C27	C	0.340424	-0.577788	-0.302238
C28	C	0.373204	-0.587433	-0.358673
C29	C	0.438638	-0.587456	-0.358650
C30	C	0.471293	-0.577832	-0.302189
C31	C	0.236777	-0.654618	-0.342281
C32	C	0.171341	-0.654580	-0.342310
C33	C	0.171306	-0.500839	-0.262300
C34	C	0.236741	-0.500871	-0.262277
C35	C	0.269473	-0.577766	-0.302266
C36	C	0.905517	-0.889618	-0.302209
C37	C	0.905564	-1.023018	-0.302228
C38	C	1.068965	-0.577730	-0.302287
C39	C	1.138607	-0.577703	-0.302318
C40	C	0.905594	-0.577769	-0.465637
C41	C	0.905616	-0.577758	-0.535278
C42	C	0.905584	-0.264751	-0.302232
C43	C	0.905602	-0.131351	-0.302240
C44	C	0.945698	-0.500978	-0.568015
C45	C	0.945697	-0.500926	-0.633450
C46	C	0.905621	-0.577676	-0.666146
C47	C	0.865531	-0.654462	-0.633402
C48	C	0.865529	-0.654503	-0.567968
C49	C	0.900665	-0.685744	-0.769818
C50	C	0.900672	-0.685705	-0.835251
C51	C	0.905625	-0.577550	-0.867967
C52	C	0.910584	-0.469429	-0.835243
C53	C	0.910582	-0.469470	-0.769809
C54	C	0.905619	-0.577640	-0.737099
C55	C	0.945708	-0.500707	-0.971656
C56	C	0.945703	-0.500653	-1.037093
C57	C	0.865540	-0.654200	-1.037044
C58	C	0.865542	-0.654243	-0.971608
C59	C	0.905630	-0.577498	-0.938919
C60	C	0.905526	-0.577731	-0.139426
C61	C	0.905626	-0.577403	-0.069785
H62	H	0.465106	-0.560371	-0.199789
H63	H	0.832887	-0.717026	-0.541314
N64	N	0.988931	-0.417813	-1.072397
H65	H	1.033696	-0.436444	-1.061047
H66	H	0.982798	-0.429451	-1.118800
H67	H	0.144650	-0.438241	-0.229741
N68	N	0.337969	-0.597860	-0.419554
H69	H	0.349356	-0.675621	-0.440778
H70	H	0.291558	-0.596343	-0.410936
H71	H	0.978340	-0.438485	-0.541403
H72	H	0.667065	-0.717383	-0.374697
H73	H	0.978336	-0.438396	-0.660110
H74	H	0.548359	-0.717327	-0.374744
H75	H	0.465325	-0.595306	-0.404601
N76	N	0.539641	-0.418093	-0.219015
H77	H	0.493227	-0.429749	-0.225095
H78	H	0.551030	-0.436667	-0.174251
N79	N	0.337732	-0.557780	-0.184920
H80	H	0.310555	-0.630870	-0.178986
H81	H	0.368390	-0.551645	-0.149192
N82	N	0.675642	-0.418107	-0.218981
H83	H	0.664198	-0.436609	-0.174201
H84	H	0.722051	-0.429820	-0.225085
N85	N	0.272087	-0.737545	-0.385411
H86	H	0.241443	-0.786225	-0.410766
H87	H	0.299288	-0.688785	-0.414438
N88	N	0.136074	-0.737487	-0.385461
H89	H	0.147519	-0.718996	-0.430242
H90	H	0.147437	-0.823178	-0.375588
N91	N	0.915933	-0.352765	-0.870519
H92	H	0.915180	-0.369139	-0.916937
H93	H	0.879709	-0.299126	-0.859049
N94	N	0.272009	-0.417966	-0.219128
H95	H	0.241342	-0.369257	-0.193799
H96	H	0.299113	-0.466736	-0.190079
H97	H	0.914618	-0.381435	-0.743167
N98	N	0.988942	-0.417946	-0.936387
H99	H	0.979228	-0.332182	-0.947750
H100	H	0.982837	-0.429747	-0.889980
N101	N	0.822309	-0.736973	-1.072299
H102	H	0.828390	-0.725295	-1.118720
H103	H	0.832047	-0.822694	-1.060877
N104	N	0.822301	-0.737037	-0.936294
H105	H	0.796908	-0.785645	-0.966934
H106	H	0.847784	-0.792595	-0.909161
H107	H	0.896638	-0.773744	-0.861890
H108	H	0.896464	-0.773795	-0.743185
H109	H	0.832899	-0.716949	-0.660027
