data_functionalizedCrystal
_audit_creation_method	'MofGen! by Chris Wilmer'
_symmetry_space_group_name_H-M	'P1'
_symmetry_Int_Tables_number	1
_symmetry_cell_setting	triclinic
loop_
_symmetry_equiv_pos_as_xyz
  x,y,z
_cell_length_a	15.995292
_cell_length_b	23.532357
_cell_length_c	22.610064
_cell_angle_alpha	90.001483
_cell_angle_beta	90.009403
_cell_angle_gamma	83.148454
loop_
_atom_site_label
_atom_site_type_symbol
_atom_site_fract_x
_atom_site_fract_y
_atom_site_fract_z
O1	O	1.110393	0.073244	0.049208
O2	O	1.443727	0.406577	0.382541
O3	O	1.777060	0.739911	0.715875
O4	O	0.866533	0.082344	0.049206
O5	O	1.199866	0.415677	0.382540
O6	O	1.533200	0.749010	0.715873
O7	O	0.995839	-0.005113	0.049195
O8	O	1.329172	0.328221	0.382528
O9	O	1.662505	0.661554	0.715862
O10	O	0.981088	0.160700	0.049219
O11	O	1.314421	0.494034	0.382553
O12	O	1.647754	0.827367	0.715886
O13	O	0.995816	-0.005100	-0.049174
O14	O	1.329149	0.328234	0.284159
O15	O	1.662482	0.661567	0.617493
O16	O	0.866510	0.082356	-0.049163
O17	O	1.199844	0.415690	0.284171
O18	O	1.533177	0.749023	0.617504
O19	O	1.110370	0.073257	-0.049161
O20	O	1.443704	0.406590	0.284172
O21	O	1.777037	0.739923	0.617505
Zn22	Zn	0.988437	0.077809	-0.064780
Zn23	Zn	1.321770	0.411142	0.268553
Zn24	Zn	1.655103	0.744475	0.601886
Zn25	Zn	0.988467	0.077792	0.064825
Zn26	Zn	1.321800	0.411125	0.398159
Zn27	Zn	1.655133	0.744458	0.731492
O28	O	0.981065	0.160713	-0.049150
O29	O	1.314398	0.494046	0.284183
O30	O	1.647732	0.827380	0.617517
C31	C	0.835329	0.081980	0.000022
C32	C	1.168663	0.415313	0.333355
C33	C	1.501996	0.748646	0.666688
C34	C	0.742386	0.080869	0.000020
C35	C	1.075719	0.414203	0.333354
C36	C	1.409053	0.747536	0.666687
C37	C	0.404682	0.076787	0.000027
C38	C	0.738016	0.410121	0.333360
C39	C	1.071349	0.743454	0.666693
C40	C	0.427453	0.139911	0.000255
C41	C	0.760787	0.473244	0.333589
C42	C	1.094120	0.806578	0.666922
C43	C	0.524118	0.141111	0.000031
C44	C	0.857452	0.474444	0.333365
C45	C	1.190785	0.807777	0.666698
C46	C	0.572221	0.078813	0.000024
C47	C	0.905554	0.412146	0.333357
C48	C	1.238888	0.745480	0.666691
C49	C	0.543377	0.047261	-0.056152
C50	C	0.876710	0.380595	0.277181
C51	C	1.210044	0.713928	0.610514
C52	C	0.446593	0.046502	-0.056197
C53	C	0.779926	0.379835	0.277136
C54	C	1.113260	0.713168	0.610470
C55	C	0.446775	0.045198	0.055667
C56	C	0.780108	0.378531	0.389000
C57	C	1.113441	0.711865	0.722334
C58	C	0.543247	0.047537	0.056407
C59	C	0.876581	0.380870	0.389740
C60	C	1.209914	0.714204	0.723074
C61	C	0.666907	0.079954	0.000020
C62	C	1.000241	0.413288	0.333354
C63	C	1.333574	0.746621	0.666687
C64	C	0.309997	0.075644	0.000026
C65	C	0.643330	0.408978	0.333359
C66	C	0.976663	0.742311	0.666693
C67	C	0.995458	-0.026324	0.000009
C68	C	1.328792	0.307009	0.333342
C69	C	1.662125	0.640343	0.666675
C70	C	0.994349	-0.089547	0.000003
C71	C	1.327682	0.243787	0.333336
C72	C	1.661016	0.577120	0.666670
C73	C	0.987397	-0.481591	0.053656
C74	C	1.320731	-0.148258	0.386989
C75	C	1.654064	0.185076	0.720323
C76	C	0.986343	-0.540994	0.053659
C77	C	1.319676	-0.207661	0.386993
C78	C	1.653009	0.125672	0.720326
O79	O	0.985780	-0.571719	0.099262
O80	O	1.319113	-0.238385	0.432595
O81	O	1.652446	0.094948	0.765929
N82	N	0.985807	-0.570700	0.000039
N83	N	1.319141	-0.237367	0.333372
N84	N	1.652474	0.095966	0.666706
C85	C	0.986318	-0.540999	-0.053588
C86	C	1.319651	-0.207666	0.279745
C87	C	1.652985	0.125667	0.613079
O88	O	0.985765	-0.571721	-0.099196
O89	O	1.319098	-0.238388	0.234137
O90	O	1.652432	0.094945	0.567471
C91	C	0.987366	-0.481597	-0.053591
C92	C	1.320700	-0.148263	0.279742
C93	C	1.654033	0.185070	0.613076
C94	C	0.987910	-0.451894	0.000033
C95	C	1.321244	-0.118561	0.333366
C96	C	1.654577	0.214772	0.666700
C97	C	0.987940	-0.451888	0.107275
C98	C	1.321273	-0.118555	0.440609
C99	C	1.654607	0.214778	0.773942
C100	C	0.988996	-0.392489	0.107272
C101	C	1.322329	-0.059156	0.440605
C102	C	1.655663	0.274177	0.773939
C103	C	0.989509	-0.362793	0.053649
C104	C	1.322843	-0.029459	0.386982
C105	C	1.656176	0.303874	0.720315
C106	C	0.988966	-0.392495	0.000029
C107	C	1.322300	-0.059162	0.333363
C108	C	1.655633	0.274172	0.666696
C109	C	0.987871	-0.451896	-0.107217
C110	C	1.321204	-0.118563	0.226116
C111	C	1.654538	0.214771	0.559449
C112	C	0.988919	-0.392489	-0.107216
C113	C	1.322252	-0.059156	0.226118
C114	C	1.655586	0.274177	0.559451
C115	C	0.989463	-0.362787	-0.053592
C116	C	1.322796	-0.029454	0.279742
C117	C	1.656130	0.303880	0.613075
C118	C	0.990535	-0.303399	-0.053597
C119	C	1.323869	0.029934	0.279736
C120	C	1.657202	0.363267	0.613069
N121	N	0.991071	-0.273693	0.000023
N122	N	1.324404	0.059640	0.333356
N123	N	1.657738	0.392973	0.666690
C124	C	0.990558	-0.303390	0.053646
C125	C	1.323891	0.029944	0.386979
C126	C	1.657224	0.363277	0.720313
C127	C	0.984115	-0.665749	-0.053578
C128	C	1.317448	-0.332416	0.279755
C129	C	1.650781	0.000918	0.613088
C130	C	0.983072	-0.725151	-0.053576
C131	C	1.316406	-0.391818	0.279757
C132	C	1.649739	-0.058485	0.613091
C133	C	0.983095	-0.725142	0.053672
C134	C	1.316429	-0.391809	0.387005
C135	C	1.649762	-0.058475	0.720338
C136	C	0.984144	-0.665739	0.053669
C137	C	1.317477	-0.332406	0.387002
C138	C	1.650811	0.000928	0.720336
C139	C	0.984650	-0.636043	0.000042
C140	C	1.317983	-0.302710	0.333375
C141	C	1.651317	0.030624	0.666709
C142	C	0.992776	-0.178647	0.053634
C143	C	1.326110	0.154686	0.386968
C144	C	1.659443	0.488019	0.720301
C145	C	0.993836	-0.119243	0.053626
C146	C	1.327169	0.214090	0.386959
C147	C	1.660502	0.547423	0.720293
C148	C	0.993808	-0.119258	-0.053621
C149	C	1.327141	0.214076	0.279712
C150	C	1.660475	0.547409	0.613045
C151	C	0.992753	-0.178657	-0.053613
C152	C	1.326086	0.154676	0.279720
C153	C	1.659420	0.488010	0.613053
C154	C	0.992234	-0.208350	0.000019
C155	C	1.325568	0.124983	0.333353
C156	C	1.658901	0.458317	0.666686
O157	O	0.991096	-0.272637	-0.099177
O158	O	1.324429	0.060696	0.234157
O159	O	1.657763	0.394030	0.567490
O160	O	0.991100	-0.272660	0.099246
O161	O	1.324433	0.060674	0.432580
O162	O	1.657766	0.394007	0.765913
C163	C	1.141574	0.073621	0.000025
C164	C	1.474907	0.406954	0.333358
C165	C	1.808241	0.740287	0.666692
C166	C	1.234518	0.074731	0.000030
C167	C	1.567851	0.408064	0.333363
C168	C	1.901184	0.741398	0.666697
C169	C	0.981445	0.181925	0.000038
C170	C	1.314779	0.515258	0.333371
C171	C	1.648112	0.848591	0.666705
C172	C	0.982555	0.245147	0.000047
C173	C	1.315888	0.578481	0.333381
C174	C	1.649221	0.911814	0.666714
N175	N	0.988422	0.077820	-0.153233
N176	N	1.321756	0.411153	0.180101
N177	N	1.655089	0.744486	0.513434
C178	C	1.045726	0.039072	-0.561879
C179	C	1.379059	0.372405	-0.228546
C180	C	1.712392	0.705739	0.104788
C181	C	1.045730	0.039068	-0.623799
C182	C	1.379063	0.372401	-0.290466
C183	C	1.712397	0.705735	0.042868
O184	O	1.094416	0.006132	-0.655822
O185	O	1.427749	0.339465	-0.322489
O186	O	1.761082	0.672798	0.010845
N187	N	0.988466	0.077780	-0.654770
N188	N	1.321800	0.411113	-0.321437
N189	N	1.655133	0.744447	0.011897
C190	C	0.931189	0.116495	-0.623818
C191	C	1.264522	0.449828	-0.290484
C192	C	1.597855	0.783161	0.042849
O193	O	0.882481	0.149422	-0.655846
O194	O	1.215815	0.482755	-0.322513
O195	O	1.549148	0.816088	0.010820
C196	C	0.931181	0.116496	-0.561899
C197	C	1.264514	0.449829	-0.228565
C198	C	1.597848	0.783162	0.104768
C199	C	0.988454	0.077785	-0.530931
C200	C	1.321788	0.411118	-0.197598
C201	C	1.655121	0.744452	0.135736
C202	C	1.102994	0.000364	-0.530911
C203	C	1.436327	0.333698	-0.197578
C204	C	1.769660	0.667031	0.135755
C205	C	1.102990	0.000369	-0.468996
C206	C	1.436324	0.333703	-0.135663
C207	C	1.769657	0.667036	0.197671
C208	C	1.045719	0.039082	-0.438048
C209	C	1.379052	0.372415	-0.104715
C210	C	1.712385	0.705749	0.228619
C211	C	0.988451	0.077790	-0.469016
C212	C	1.321784	0.411123	-0.135682
C213	C	1.655117	0.744457	0.197651
C214	C	0.873900	0.155207	-0.530948
C215	C	1.207234	0.488541	-0.197614
C216	C	1.540567	0.821874	0.135719
C217	C	0.873897	0.155205	-0.469025
C218	C	1.207230	0.488538	-0.135691
C219	C	1.540564	0.821871	0.197642
C220	C	0.931170	0.116494	-0.438057
C221	C	1.264504	0.449827	-0.104724
C222	C	1.597837	0.783161	0.228610
C223	C	0.931176	0.116508	-0.376152
C224	C	1.264509	0.449841	-0.042819
C225	C	1.597843	0.783175	0.290515
N226	N	0.988440	0.077796	-0.345181
N227	N	1.321773	0.411129	-0.011848
N228	N	1.655106	0.744463	0.321486
C229	C	1.045711	0.039083	-0.376129
C230	C	1.379044	0.372416	-0.042796
C231	C	1.712378	0.705750	0.290538
C232	C	0.931208	0.116489	-0.753851
C233	C	1.264541	0.449823	-0.420518
C234	C	1.597875	0.783156	-0.087184
C235	C	0.931219	0.116491	-0.815769
C236	C	1.264552	0.449825	-0.482435
C237	C	1.597886	0.783158	-0.149102
C238	C	1.045760	0.039064	-0.815746
C239	C	1.379093	0.372397	-0.482413
C240	C	1.712426	0.705730	-0.149079
C241	C	1.045752	0.039065	-0.753827
C242	C	1.379085	0.372398	-0.420494
C243	C	1.712419	0.705731	-0.087161
C244	C	0.988472	0.077777	-0.722880
C245	C	1.321805	0.411111	-0.389547
C246	C	1.655139	0.744444	-0.056214
C247	C	1.045700	0.039097	-0.246102
C248	C	1.379033	0.372430	0.087232
C249	C	1.712367	0.705763	0.420565
C250	C	1.045694	0.039107	-0.184181
C251	C	1.379027	0.372440	0.149153
C252	C	1.712360	0.705773	0.482486
C253	C	0.931151	0.116532	-0.184209
C254	C	1.264484	0.449865	0.149125
C255	C	1.597817	0.783199	0.482458
C256	C	0.931159	0.116524	-0.246125
C257	C	1.264493	0.449858	0.087209
C258	C	1.597826	0.783191	0.420542
C259	C	0.988437	0.077802	-0.277069
C260	C	1.321771	0.411135	0.056264
C261	C	1.655104	0.744469	0.389597
O262	O	0.882513	0.149426	-0.344090
O263	O	1.215846	0.482759	-0.010756
O264	O	1.549179	0.816092	0.322577
O265	O	1.094403	0.006157	-0.344093
O266	O	1.427736	0.339490	-0.010759
O267	O	1.761070	0.672823	0.322574
N268	N	0.988488	0.077776	0.153278
N269	N	1.321821	0.411110	0.486611
N270	N	1.655155	0.744443	0.819944
H271	H	0.576608	0.002066	0.059794
H272	H	0.909942	0.335399	0.393128
H273	H	1.243275	0.668732	0.726461
H274	H	1.092340	0.007565	-0.271290
H275	H	1.425673	0.340898	0.062043
H276	H	1.759007	0.674231	0.395376
Cl277	Cl	0.992085	-0.215999	-0.121027
Cl278	Cl	1.325419	0.117334	0.212307
Cl279	Cl	1.658752	0.450667	0.545640
Cl280	Cl	0.994453	-0.081914	-0.121029
Cl281	Cl	1.327786	0.251420	0.212304
Cl282	Cl	1.661120	0.584753	0.545637
Cl283	Cl	1.117701	-0.009561	-0.145253
Cl284	Cl	1.451034	0.323773	0.188080
Cl285	Cl	1.784367	0.657106	0.521413
Cl286	Cl	0.571666	0.082986	0.120574
Cl287	Cl	0.905000	0.416319	0.453907
Cl288	Cl	1.238333	0.749652	0.787240
Cl289	Cl	0.425791	-0.026538	0.056244
Cl290	Cl	0.759125	0.306795	0.389577
Cl291	Cl	1.092458	0.640129	0.722910
Cl292	Cl	1.174988	-0.048301	-0.430072
Cl293	Cl	1.508321	0.285032	-0.096739
Cl294	Cl	1.841655	0.618366	0.236595
Cl295	Cl	1.175002	-0.048310	-0.569807
Cl296	Cl	1.508335	0.285024	-0.236474
Cl297	Cl	1.841669	0.618357	0.096859
Cl298	Cl	0.383921	0.177472	0.062455
Cl299	Cl	0.717254	0.510805	0.395789
Cl300	Cl	1.050588	0.844138	0.729122
Cl301	Cl	0.994521	-0.081907	0.121044
Cl302	Cl	1.327855	0.251426	0.454377
Cl303	Cl	1.661188	0.584759	0.787711
Cl304	Cl	0.992126	-0.215967	0.121059
Cl305	Cl	1.325459	0.117366	0.454393
Cl306	Cl	1.658792	0.450700	0.787726
Cl307	Cl	0.989672	-0.355157	0.174689
Cl308	Cl	1.323005	-0.021824	0.508022
Cl309	Cl	1.656338	0.311509	0.841355
H310	H	0.563238	0.069183	-0.097953
H311	H	0.896571	0.402516	0.235380
H312	H	1.229905	0.735849	0.568713
H313	H	1.092388	0.007543	-0.728617
H314	H	1.425721	0.340876	-0.395284
H315	H	1.759055	0.674210	-0.061950
Cl316	Cl	1.117756	-0.009605	-0.854665
Cl317	Cl	1.451089	0.323728	-0.521332
Cl318	Cl	1.784423	0.657061	-0.187998
H319	H	0.884591	0.148019	-0.840978
H320	H	1.217924	0.481352	-0.507645
H321	H	1.551257	0.814686	-0.174312
H322	H	0.987430	-0.476070	-0.150884
H323	H	1.320763	-0.142736	0.182450
H324	H	1.654096	0.190597	0.515783
Cl325	Cl	0.859198	0.165166	-0.714952
Cl326	Cl	1.192532	0.498499	-0.381619
Cl327	Cl	1.525865	0.831833	-0.048286
H328	H	0.827263	0.186729	-0.556153
H329	H	1.160596	0.520062	-0.222819
H330	H	1.493930	0.853395	0.110514
Cl331	Cl	0.984759	-0.628423	-0.121002
Cl332	Cl	1.318092	-0.295090	0.212331
Cl333	Cl	1.651426	0.038243	0.545665
Cl334	Cl	0.982405	-0.762486	-0.120992
Cl335	Cl	1.315738	-0.429152	0.212341
Cl336	Cl	1.649071	-0.095819	0.545675
Cl337	Cl	0.382316	0.177279	-0.061582
Cl338	Cl	0.715649	0.510612	0.271751
Cl339	Cl	1.048982	0.843945	0.605084
Cl340	Cl	0.801881	0.203874	-0.430124
Cl341	Cl	1.135215	0.537208	-0.096791
Cl342	Cl	1.468548	0.870541	0.236542
Cl343	Cl	0.987296	-0.489211	0.174697
Cl344	Cl	1.320630	-0.155877	0.508030
Cl345	Cl	1.653963	0.177456	0.841363
Cl346	Cl	0.989556	-0.355161	-0.174637
Cl347	Cl	1.322889	-0.021827	0.158697
Cl348	Cl	1.656223	0.311506	0.492030
H349	H	0.984585	-0.641559	0.097334
H350	H	1.317919	-0.308226	0.430667
H351	H	1.651252	0.025107	0.764001
Cl352	Cl	0.859156	0.165198	-0.145293
Cl353	Cl	1.192489	0.498532	0.188040
Cl354	Cl	1.525822	0.831865	0.521374
Cl355	Cl	0.553184	0.179261	0.062204
Cl356	Cl	0.886517	0.512594	0.395538
Cl357	Cl	1.219851	0.845927	0.728871
Cl358	Cl	0.552195	0.179504	-0.062240
Cl359	Cl	0.885528	0.512837	0.271093
Cl360	Cl	1.218862	0.846170	0.604427
Cl361	Cl	0.859165	0.165197	-0.285053
Cl362	Cl	1.192499	0.498530	0.048280
Cl363	Cl	1.525832	0.831864	0.381613
H364	H	0.419579	0.068363	-0.098184
H365	H	0.752912	0.401697	0.235149
H366	H	1.086245	0.735030	0.568482
H367	H	0.432439	0.000220	-0.058754
H368	H	0.765772	0.333553	0.274579
H369	H	1.099106	0.666886	0.607912
H370	H	0.575638	0.001419	-0.058247
H371	H	0.908971	0.334752	0.275087
H372	H	1.242305	0.668085	0.608420
Cl373	Cl	0.982443	-0.762485	0.121084
Cl374	Cl	1.315777	-0.429152	0.454417
Cl375	Cl	1.649110	-0.095819	0.787751
Cl376	Cl	0.402806	0.075658	0.121405
Cl377	Cl	0.736140	0.408992	0.454738
Cl378	Cl	1.069473	0.742325	0.788071
