data_functionalizedCrystal
_audit_creation_method	'MofGen! by Chris Wilmer'
_symmetry_space_group_name_H-M	'P1'
_symmetry_Int_Tables_number	1
_symmetry_cell_setting	triclinic
loop_
_symmetry_equiv_pos_as_xyz
  x,y,z
_cell_length_a	21.395364
_cell_length_b	25.639240
_cell_length_c	21.395355
_cell_angle_alpha	89.973484
_cell_angle_beta	89.975448
_cell_angle_gamma	90.047709
loop_
_atom_site_label
_atom_site_type_symbol
_atom_site_fract_x
_atom_site_fract_y
_atom_site_fract_z
Zn1	Zn	0.957850	-0.208003	-0.354227
Zn2	Zn	1.291184	0.125331	-0.020893
Zn3	Zn	1.624517	0.458664	0.312440
Zn4	Zn	0.957749	-0.295422	-0.249435
Zn5	Zn	1.291082	0.037911	0.083899
Zn6	Zn	1.624416	0.371244	0.417232
Zn7	Zn	0.853065	-0.208026	-0.249463
Zn8	Zn	1.186399	0.125308	0.083870
Zn9	Zn	1.519732	0.458641	0.417203
Zn10	Zn	0.853031	-0.295432	-0.354175
Zn11	Zn	1.186364	0.037902	-0.020841
Zn12	Zn	1.519697	0.371235	0.312492
O13	O	0.905424	-0.251721	-0.301825
O14	O	1.238757	0.081613	0.031508
O15	O	1.572090	0.414946	0.364842
O16	O	1.045515	-0.219586	-0.340335
O17	O	1.378848	0.113748	-0.007002
O18	O	1.712181	0.447081	0.326331
O19	O	0.943835	-0.283835	-0.161760
O20	O	1.277168	0.049499	0.171573
O21	O	1.610501	0.382832	0.504906
O22	O	0.867022	-0.134857	-0.263394
O23	O	1.200355	0.198476	0.069939
O24	O	1.533689	0.531809	0.403272
O25	O	1.045440	-0.283813	-0.263345
O26	O	1.378774	0.049521	0.069988
O27	O	1.712107	0.382854	0.403322
O28	O	0.944007	-0.134841	-0.340363
O29	O	1.277341	0.198493	-0.007030
O30	O	1.610674	0.531826	0.326303
O31	O	0.866924	-0.219625	-0.161782
O32	O	1.200257	0.113709	0.171552
O33	O	1.533591	0.447042	0.504885
O34	O	0.765383	-0.219634	-0.263344
O35	O	1.098716	0.113700	0.069989
O36	O	1.432049	0.447033	0.403323
O37	O	0.866963	-0.283828	-0.441860
O38	O	1.200296	0.049505	-0.108526
O39	O	1.533630	0.382838	0.224807
O40	O	0.765357	-0.283851	-0.340275
O41	O	1.098691	0.049483	-0.006942
O42	O	1.432024	0.382816	0.326392
O43	O	0.943974	-0.219595	-0.441898
O44	O	1.277307	0.113739	-0.108564
O45	O	1.610640	0.447072	0.224769
O46	O	0.943801	-0.368589	-0.263295
O47	O	1.277134	-0.035256	0.070039
O48	O	1.610468	0.298078	0.403372
O49	O	0.866865	-0.368596	-0.340247
O50	O	1.200198	-0.035262	-0.006914
O51	O	1.533532	0.298071	0.326420
C52	C	0.742636	-0.251746	-0.301807
C53	C	1.075970	0.081587	0.031526
C54	C	1.409303	0.414921	0.364859
C55	C	0.672995	-0.251770	-0.301815
C56	C	1.006328	0.081564	0.031519
C57	C	1.339662	0.414897	0.364852
C58	C	0.640343	-0.218381	-0.341965
C59	C	0.973676	0.114952	-0.008632
C60	C	1.307010	0.448285	0.324701
C61	C	0.574907	-0.218368	-0.341968
C62	C	0.908241	0.114966	-0.008634
C63	C	1.241574	0.448299	0.324699
C64	C	0.542127	-0.251751	-0.301826
C65	C	0.875460	0.081582	0.031507
C66	C	1.208793	0.414916	0.364841
C67	C	0.574787	-0.285142	-0.261667
C68	C	0.908120	0.048192	0.071666
C69	C	1.241453	0.381525	0.404999
C70	C	0.640221	-0.285151	-0.261662
C71	C	0.973554	0.048182	0.071672
C72	C	1.306887	0.381516	0.405005
C73	C	0.438400	-0.298836	-0.296781
C74	C	0.771734	0.034497	0.036553
C75	C	1.105067	0.367830	0.369886
C76	C	0.372967	-0.298828	-0.296791
C77	C	0.706301	0.034505	0.036543
C78	C	1.039634	0.367839	0.369876
C79	C	0.340306	-0.251722	-0.301840
C80	C	0.673639	0.081611	0.031493
C81	C	1.006973	0.414944	0.364827
C82	C	0.373086	-0.204624	-0.306892
C83	C	0.706419	0.128710	0.026441
C84	C	1.039752	0.462043	0.359774
C85	C	0.438520	-0.204633	-0.306887
C86	C	0.771853	0.128700	0.026447
C87	C	1.105186	0.462034	0.359780
C88	C	0.471174	-0.251745	-0.301827
C89	C	0.804508	0.081589	0.031506
C90	C	1.137841	0.414922	0.364839
C91	C	0.236701	-0.218316	-0.341995
C92	C	0.570035	0.115017	-0.008662
C93	C	0.903368	0.448350	0.324671
C94	C	0.171265	-0.218301	-0.341994
C95	C	0.504598	0.115032	-0.008660
C96	C	0.837931	0.448365	0.324673
C97	C	0.171145	-0.285080	-0.261696
C98	C	0.504478	0.048253	0.071637
C99	C	0.837812	0.381586	0.404970
C100	C	0.236580	-0.285090	-0.261695
C101	C	0.569914	0.048243	0.071638
C102	C	0.903247	0.381576	0.404972
C103	C	0.269355	-0.251709	-0.301848
C104	C	0.602688	0.081624	0.031485
C105	C	0.936021	0.414958	0.364819
C106	C	0.905335	-0.387563	-0.301776
C107	C	1.238669	-0.054230	0.031558
C108	C	1.572002	0.279103	0.364891
C109	C	0.905355	-0.445677	-0.301776
C110	C	1.238688	-0.112344	0.031558
C111	C	1.572021	0.220989	0.364891
C112	C	0.945530	-0.805993	-0.341975
C113	C	1.278863	-0.472660	-0.008642
C114	C	1.612197	-0.139326	0.324692
C115	C	0.945548	-0.860597	-0.341988
C116	C	1.278882	-0.527264	-0.008654
C117	C	1.612215	-0.193931	0.324679
O118	O	0.979601	-0.888794	-0.376116
O119	O	1.312935	-0.555461	-0.042783
O120	O	1.646268	-0.222127	0.290551
N121	N	0.905511	-0.887960	-0.301885
N122	N	1.238844	-0.554626	0.031448
N123	N	1.572177	-0.221293	0.364781
C124	C	0.865448	-0.860715	-0.261772
C125	C	1.198781	-0.527382	0.071561
C126	C	1.532114	-0.194048	0.404894
O127	O	0.831394	-0.889003	-0.227664
O128	O	1.164727	-0.555669	0.105670
O129	O	1.498060	-0.222336	0.439003
C130	C	0.865426	-0.806112	-0.261763
C131	C	1.198760	-0.472778	0.071570
C132	C	1.532093	-0.139445	0.404904
C133	C	0.905471	-0.778752	-0.301864
C134	C	1.238804	-0.445419	0.031470
C135	C	1.572138	-0.112085	0.364803
C136	C	0.985571	-0.778634	-0.382073
C137	C	1.318904	-0.445300	-0.048739
C138	C	1.652237	-0.111967	0.284594
C139	C	0.985553	-0.724033	-0.382059
C140	C	1.318886	-0.390700	-0.048726
C141	C	1.652220	-0.057366	0.284608
C142	C	0.945494	-0.696792	-0.341948
C143	C	1.278828	-0.363459	-0.008614
C144	C	1.612161	-0.030125	0.324719
C145	C	0.905453	-0.724152	-0.301850
C146	C	1.238787	-0.390818	0.031483
C147	C	1.572120	-0.057485	0.364817
C148	C	0.825361	-0.778868	-0.221654
C149	C	1.158694	-0.445534	0.111680
C150	C	1.492027	-0.112201	0.445013
C151	C	0.825342	-0.724261	-0.221648
C152	C	1.158676	-0.390927	0.111685
C153	C	1.492009	-0.057594	0.445018
C154	C	0.865387	-0.696901	-0.261749
C155	C	1.198721	-0.363568	0.071585
C156	C	1.532054	-0.030235	0.404918
C157	C	0.865377	-0.642310	-0.261725
C158	C	1.198710	-0.308977	0.071609
C159	C	1.532043	0.024357	0.404942
N160	N	0.905414	-0.614948	-0.301827
N161	N	1.238748	-0.281614	0.031506
N162	N	1.572081	0.051719	0.364840
C163	C	0.945473	-0.642189	-0.341938
C164	C	1.278806	-0.308855	-0.008605
C165	C	1.612140	0.024478	0.324728
C166	C	0.865494	-0.975385	-0.261795
C167	C	1.198828	-0.642052	0.071538
C168	C	1.532161	-0.308719	0.404871
C169	C	0.865518	-1.029988	-0.261801
C170	C	1.198852	-0.696654	0.071533
C171	C	1.532185	-0.363321	0.404866
C172	C	0.945618	-1.029867	-0.342017
C173	C	1.278952	-0.696533	-0.008684
C174	C	1.612285	-0.363200	0.324650
C175	C	0.945597	-0.975263	-0.342008
C176	C	1.278930	-0.641930	-0.008675
C177	C	1.612264	-0.308597	0.324659
C178	C	0.905532	-0.948023	-0.301897
C179	C	1.238865	-0.614690	0.031436
C180	C	1.572199	-0.281357	0.364769
C181	C	0.945433	-0.527524	-0.341906
C182	C	1.278766	-0.194190	-0.008573
C183	C	1.612100	0.139143	0.324760
C184	C	0.945413	-0.472918	-0.341887
C185	C	1.278747	-0.139585	-0.008554
C186	C	1.612080	0.193748	0.324780
C187	C	0.865311	-0.473044	-0.261673
C188	C	1.198645	-0.139711	0.071660
C189	C	1.531978	0.193622	0.404993
C190	C	0.865333	-0.527645	-0.261690
C191	C	1.198666	-0.194312	0.071644
C192	C	1.532000	0.139022	0.404977
C193	C	0.905396	-0.554883	-0.301811
C194	C	1.238729	-0.221550	0.031522
C195	C	1.572063	0.111783	0.364855
O196	O	0.831339	-0.614079	-0.227616
O197	O	1.164673	-0.280745	0.105718
O198	O	1.498006	0.052588	0.439051
O199	O	0.979515	-0.613894	-0.376047
O200	O	1.312849	-0.280561	-0.042714
O201	O	1.646182	0.052772	0.290620
C202	C	1.068847	-0.251696	-0.301843
C203	C	1.402180	0.081638	0.031490
C204	C	1.735514	0.414971	0.364824
C205	C	1.138488	-0.251685	-0.301851
C206	C	1.471822	0.081649	0.031483
C207	C	1.805155	0.414982	0.364816
C208	C	0.905476	-0.251710	-0.465248
C209	C	1.238809	0.081623	-0.131915
C210	C	1.572142	0.414957	0.201418
C211	C	0.905498	-0.251706	-0.534889
C212	C	1.238831	0.081628	-0.201556
C213	C	1.572165	0.414961	0.131777
C214	C	0.905530	-0.115348	-0.301888
C215	C	1.238863	0.217986	0.031446
C216	C	1.572196	0.551319	0.364779
C217	C	0.905575	-0.057234	-0.301915
C218	C	1.238908	0.276100	0.031419
C219	C	1.572242	0.609433	0.364752
C220	C	0.945596	-0.218258	-0.567623
C221	C	1.278929	0.115076	-0.234290
C222	C	1.612262	0.448409	0.099043
C223	C	0.945595	-0.218235	-0.633059
C224	C	1.278928	0.115098	-0.299726
C225	C	1.612261	0.448431	0.033608
C226	C	0.905503	-0.251670	-0.665758
C227	C	1.238836	0.081663	-0.332425
C228	C	1.572170	0.414997	0.000909
C229	C	0.865397	-0.285120	-0.633016
C230	C	1.198731	0.048213	-0.299683
C231	C	1.532064	0.381546	0.033651
C232	C	0.865395	-0.285138	-0.567582
C233	C	1.198728	0.048195	-0.234248
C234	C	1.532062	0.381529	0.099085
C235	C	0.900525	-0.298748	-0.769416
C236	C	1.233858	0.034585	-0.436082
C237	C	1.567192	0.367918	-0.102749
C238	C	0.900532	-0.298731	-0.834849
C239	C	1.233865	0.034602	-0.501515
C240	C	1.567198	0.367935	-0.168182
C241	C	0.905507	-0.251615	-0.867579
C242	C	1.238840	0.081719	-0.534245
C243	C	1.572173	0.415052	-0.200912
C244	C	0.910488	-0.204513	-0.834868
C245	C	1.243821	0.128820	-0.501535
C246	C	1.577155	0.462153	-0.168201
C247	C	0.910486	-0.204531	-0.769434
C248	C	1.243819	0.128802	-0.436100
C249	C	1.577152	0.462135	-0.102767
C250	C	0.905501	-0.251654	-0.736710
C251	C	1.238834	0.081679	-0.403377
C252	C	1.572167	0.415013	-0.070044
C253	C	0.945606	-0.218140	-0.971265
C254	C	1.278939	0.115194	-0.637932
C255	C	1.612272	0.448527	-0.304599
C256	C	0.945600	-0.218116	-1.036702
C257	C	1.278934	0.115217	-0.703369
C258	C	1.612267	0.448550	-0.370035
C259	C	0.865406	-0.285006	-1.036658
C260	C	1.198740	0.048327	-0.703324
C261	C	1.532073	0.381661	-0.369991
C262	C	0.865408	-0.285025	-0.971222
C263	C	1.198742	0.048309	-0.637889
C264	C	1.532075	0.381642	-0.304556
C265	C	0.905511	-0.251592	-0.938530
C266	C	1.238845	0.081741	-0.605197
C267	C	1.572178	0.415074	-0.271863
C268	C	0.905408	-0.251694	-0.139037
C269	C	1.238741	0.081640	0.194296
C270	C	1.572075	0.414973	0.527629
C271	C	0.905507	-0.251551	-0.069396
C272	C	1.238841	0.081783	0.263937
C273	C	1.572174	0.415116	0.597270
H274	H	0.346494	-0.166266	-0.311004
H275	H	0.679827	0.167067	0.022329
H276	H	1.013161	0.500401	0.355663
Br277	Br	0.810988	-0.330422	-0.926794
Br278	Br	1.144321	0.002912	-0.593461
Br279	Br	1.477655	0.336245	-0.260128
H280	H	0.464988	-0.337198	-0.292668
H281	H	0.798321	-0.003865	0.040665
H282	H	1.131654	0.329469	0.373998
Br283	Br	1.000027	-0.172767	-0.926893
Br284	Br	1.333361	0.160567	-0.593560
Br285	Br	1.666694	0.493900	-0.260227
H286	H	0.832756	-0.312224	-1.063281
H287	H	1.166090	0.021109	-0.729947
H288	H	1.499423	0.354443	-0.396614
H289	H	0.978205	-0.952990	-0.374662
H290	H	1.311538	-0.619657	-0.041328
H291	H	1.644871	-0.286324	0.292005
H292	H	0.263388	-0.191132	-0.374686
H293	H	0.596721	0.142201	-0.041353
H294	H	0.930054	0.475535	0.291980
Br295	Br	0.893780	-0.362654	-0.879235
Br296	Br	1.227113	-0.029320	-0.545902
Br297	Br	1.560447	0.304013	-0.212569
H298	H	0.548092	-0.312322	-0.228983
H299	H	0.881425	0.021011	0.104350
H300	H	1.214759	0.354344	0.437683
Br301	Br	1.000033	-0.172726	-1.081128
Br302	Br	1.333366	0.160607	-0.747795
Br303	Br	1.666700	0.493940	-0.414462
H304	H	0.144681	-0.191110	-0.374688
H305	H	0.478014	0.142224	-0.041355
H306	H	0.811347	0.475557	0.291979
H307	H	0.666806	-0.312340	-0.228965
H308	H	1.000139	0.020993	0.104368
H309	H	1.333472	0.354326	0.437702
Br310	Br	0.810971	-0.330534	-0.523154
Br311	Br	1.144305	0.002799	-0.189820
Br312	Br	1.477638	0.336132	0.143513
H313	H	1.018191	-0.800807	-0.414740
H314	H	1.351525	-0.467474	-0.081407
H315	H	1.684858	-0.134141	0.251927
H316	H	1.018159	-0.701760	-0.414714
H317	H	1.351492	-0.368427	-0.081381
H318	H	1.684826	-0.035093	0.251953
Br319	Br	0.811180	-1.067112	-0.207366
Br320	Br	1.144514	-0.733778	0.125967
Br321	Br	1.477847	-0.400445	0.459301
H322	H	0.832870	-0.953209	-0.229127
H323	H	1.166204	-0.619876	0.104206
H324	H	1.499537	-0.286543	0.437539
H325	H	0.914540	-0.166180	-0.742803
H326	H	1.247873	0.167153	-0.409470
H327	H	1.581207	0.500487	-0.076137
H328	H	0.667024	-0.191199	-0.374661
H329	H	1.000357	0.142134	-0.041327
H330	H	1.333690	0.475467	0.292006
H331	H	0.832730	-0.549922	-0.229032
H332	H	1.166064	-0.216589	0.104302
H333	H	1.499397	0.116744	0.437635
H334	H	0.896306	-0.337107	-0.742772
H335	H	1.229639	-0.003773	-0.409439
H336	H	1.562973	0.329560	-0.076105
H337	H	0.978246	-0.190995	-0.659716
H338	H	1.311579	0.142338	-0.326383
H339	H	1.644912	0.475672	0.006951
H340	H	0.978235	-1.052056	-0.374679
H341	H	1.311569	-0.718723	-0.041346
H342	H	1.644902	-0.385389	0.291988
Br343	Br	0.126664	-0.330382	-0.207210
Br344	Br	0.459997	0.002951	0.126123
Br345	Br	0.793331	0.336285	0.459456
H346	H	0.792752	-0.801135	-0.188999
H347	H	1.126085	-0.467801	0.144334
H348	H	1.459419	-0.134468	0.477667
Br349	Br	0.810982	-0.330493	-0.677391
Br350	Br	1.144315	0.002841	-0.344058
Br351	Br	1.477649	0.336174	-0.010724
H352	H	0.548317	-0.191176	-0.374662
H353	H	0.881650	0.142157	-0.041329
H354	H	1.214984	0.475490	0.292004
Br355	Br	0.999766	-0.435791	-0.396310
Br356	Br	1.333099	-0.102457	-0.062977
Br357	Br	1.666433	0.230876	0.270356
Br358	Br	0.999805	-0.564481	-0.396356
Br359	Br	1.333139	-0.231148	-0.063023
Br360	Br	1.666472	0.102185	0.270310
H361	H	0.465206	-0.166284	-0.310998
H362	H	0.798539	0.167050	0.022335
H363	H	1.131873	0.500383	0.355668
H364	H	0.263166	-0.312281	-0.229002
H365	H	0.596499	0.021052	0.104331
H366	H	0.929833	0.354386	0.437664
Br367	Br	0.328487	-0.362747	-0.289948
Br368	Br	0.661821	-0.029414	0.043386
Br369	Br	0.995154	0.303920	0.376719
H370	H	0.792715	-0.702085	-0.188986
H371	H	1.126048	-0.368751	0.144347
H372	H	1.459381	-0.035418	0.477681
Br373	Br	0.810949	-0.436064	-0.207238
Br374	Br	1.144283	-0.102731	0.126095
Br375	Br	1.477616	0.230603	0.459429
Br376	Br	1.000018	-0.172883	-0.523258
Br377	Br	1.333352	0.160450	-0.189925
Br378	Br	1.666685	0.493783	0.143409
H379	H	0.914540	-0.166147	-0.861515
H380	H	1.247874	0.167187	-0.528182
H381	H	1.581207	0.500520	-0.194849
