data_functionalizedCrystal
_audit_creation_method	'MofGen! by Chris Wilmer'
_symmetry_space_group_name_H-M	'P1'
_symmetry_Int_Tables_number	1
_symmetry_cell_setting	triclinic
loop_
_symmetry_equiv_pos_as_xyz
  x,y,z
_cell_length_a	14.519731
_cell_length_b	19.288840
_cell_length_c	17.766277
_cell_angle_alpha	89.983415
_cell_angle_beta	90.007338
_cell_angle_gamma	96.592566
loop_
_atom_site_label
_atom_site_type_symbol
_atom_site_fract_x
_atom_site_fract_y
_atom_site_fract_z
O1	O	0.114934	-0.921784	0.062722
O2	O	0.130477	-0.719578	0.062696
O3	O	-0.011566	-0.826035	0.062703
O4	O	0.256977	-0.815328	0.062715
O5	O	-0.011573	-0.826016	-0.062486
O6	O	0.130470	-0.719559	-0.062493
O7	O	0.114927	-0.921766	-0.062467
Cu8	Cu	0.122698	-0.820661	-0.073911
Cu9	Cu	0.122706	-0.820683	0.074139
O10	O	0.256970	-0.815309	-0.062474
C11	C	0.129977	-0.693690	0.000098
C12	C	0.128487	-0.616580	0.000088
C13	C	-0.045926	-0.825524	0.000108
C14	C	-0.148297	-0.824020	0.000107
C15	C	0.115426	-0.947654	0.000132
C16	C	0.116916	-1.024764	0.000147
C17	C	-0.231433	-0.822799	0.000109
C18	C	-0.335732	-0.821272	0.000115
C19	C	-0.418863	-0.820061	0.000119
C20	C	-0.523168	-0.818535	0.000123
C21	C	0.291330	-0.815820	0.000122
C22	C	0.393700	-0.817323	0.000128
C23	C	0.127776	-0.580384	0.068330
C24	C	0.126366	-0.507932	0.068339
C25	C	0.125649	-0.471681	0.000102
C26	C	0.126366	-0.507885	-0.068149
C27	C	0.127785	-0.580335	-0.068156
C28	C	0.069381	-0.362139	-0.052169
C29	C	0.067956	-0.289692	-0.052159
C30	C	0.121275	-0.248221	0.000122
C31	C	0.176008	-0.279208	0.052405
C32	C	0.177427	-0.351658	0.052398
C33	C	0.124110	-0.393121	0.000103
C34	C	0.119036	-0.133464	0.068379
C35	C	0.117631	-0.061010	0.068385
C36	C	0.117622	-0.060965	-0.068105
C37	C	0.119036	-0.133417	-0.068109
C38	C	0.119738	-0.169662	0.000135
N39	N	0.122691	-0.820650	-0.178041
C40	C	0.059825	-0.867805	-0.217425
C41	C	0.059821	-0.867809	-0.296227
C42	C	0.122698	-0.820665	-0.335641
C43	C	0.185569	-0.773502	-0.296248
C44	C	0.185566	-0.773494	-0.217448
C45	C	0.206727	-0.811673	-0.460476
C46	C	0.206732	-0.811685	-0.539275
C47	C	0.122709	-0.820683	-0.578688
C48	C	0.038679	-0.829684	-0.539292
C49	C	0.038675	-0.829677	-0.460492
C50	C	0.122709	-0.820667	-0.421087
C51	C	0.059834	-0.867845	-0.703518
C52	C	0.059828	-0.867844	-0.782321
C53	C	0.185585	-0.773540	-0.782341
C54	C	0.185582	-0.773538	-0.703539
C55	C	0.122708	-0.820694	-0.664132
N56	N	0.122705	-0.820699	0.178270
H57	H	0.128348	-0.609891	0.123900
C58	C	0.237753	-0.385734	0.109816
H59	H	0.230991	-0.434817	0.102299
H60	H	0.300877	-0.367648	0.103152
H61	H	0.218629	-0.375763	0.159399
C62	C	0.299157	-0.801780	-0.417130
H63	H	0.349201	-0.796433	-0.451876
H64	H	0.301170	-0.761338	-0.386404
H65	H	0.304127	-0.841477	-0.386376
H66	H	0.236760	-0.735095	-0.185381
H67	H	0.236764	-0.735115	-0.328343
H68	H	0.125787	-0.478456	0.123912
C69	C	0.234666	-0.233600	0.109914
H70	H	0.225994	-0.186013	0.102427
H71	H	0.215912	-0.247337	0.159454
H72	H	0.298288	-0.239304	0.103329
H73	H	0.119617	-0.162976	0.123947
C74	C	0.007755	-0.255611	-0.109668
H75	H	-0.023783	-0.290683	-0.140814
H76	H	-0.036237	-0.231587	-0.083785
H77	H	0.046154	-0.223547	-0.139896
C78	C	0.125578	-0.468015	-0.143209
H79	H	0.126212	-0.499950	-0.183855
H80	H	0.071257	-0.444986	-0.146048
H81	H	0.178798	-0.434516	-0.146038
C82	C	-0.053748	-0.839566	-0.417156
H83	H	-0.103790	-0.845021	-0.451908
H84	H	-0.055702	-0.879945	-0.386314
H85	H	-0.058778	-0.799819	-0.386520
C86	C	0.116844	-0.021195	0.143455
H87	H	0.117455	-0.053162	0.184094
H88	H	0.170057	0.012301	0.146306
H89	H	0.062516	0.001831	0.146285
C90	C	0.117139	-0.021068	-0.143164
H91	H	0.116280	0.027274	-0.133387
H92	H	0.171230	-0.027774	-0.171044
H93	H	0.063686	-0.038072	-0.171364
C94	C	0.119807	-0.173239	-0.143175
H95	H	0.120762	-0.221578	-0.133406
H96	H	0.065807	-0.166590	-0.171216
H97	H	0.173348	-0.156121	-0.171209
H98	H	0.275154	-0.804361	-0.571345
H99	H	0.025959	-0.395900	-0.094745
H100	H	0.236777	-0.735143	-0.671470
H101	H	-0.029740	-0.837011	-0.571380
C102	C	0.128553	-0.620153	-0.143225
H103	H	0.127918	-0.588190	-0.183866
H104	H	0.182868	-0.643186	-0.146067
H105	H	0.075327	-0.653645	-0.146062
H106	H	0.008627	-0.906200	-0.185342
H107	H	0.008630	-0.906241	-0.814388
H108	H	0.008626	-0.906209	-0.328299
C109	C	0.254751	-0.721682	-0.825684
H110	H	0.292191	-0.693595	-0.790939
H111	H	0.293054	-0.746716	-0.856410
H112	H	0.221672	-0.692727	-0.856438
C113	C	-0.009333	-0.919706	-0.660167
H114	H	-0.046786	-0.947783	-0.694912
H115	H	0.023737	-0.948659	-0.629411
H116	H	-0.047638	-0.894664	-0.629443
