data_functionalizedCrystal
_audit_creation_method	'MofGen! by Chris Wilmer'
_symmetry_space_group_name_H-M	'P1'
_symmetry_Int_Tables_number	1
_symmetry_cell_setting	triclinic
loop_
_symmetry_equiv_pos_as_xyz
  x,y,z
_cell_length_a	27.732048
_cell_length_b	27.732048
_cell_length_c	26.210047
_cell_angle_alpha	89.999521
_cell_angle_beta	89.996535
_cell_angle_gamma	82.642655
loop_
_atom_site_label
_atom_site_type_symbol
_atom_site_fract_x
_atom_site_fract_y
_atom_site_fract_z
O1	O	0.640931	0.057510	-0.042369
O2	O	1.140931	0.557510	0.457631
O3	O	0.500138	0.066256	-0.042385
O4	O	1.000138	0.566256	0.457615
O5	O	0.574907	-0.008514	-0.042367
O6	O	1.074907	0.491486	0.457633
O7	O	0.566162	0.132279	-0.042387
O8	O	1.066162	0.632279	0.457613
O9	O	0.574893	-0.008502	0.042491
O10	O	1.074893	0.491498	0.542491
O11	O	0.500123	0.066267	0.042473
O12	O	1.000123	0.566267	0.542473
O13	O	0.640917	0.057522	0.042489
O14	O	1.140917	0.557522	0.542489
Cu15	Cu	0.570519	0.061896	0.050229
Cu16	Cu	1.070519	0.561896	0.550229
Cu17	Cu	0.570536	0.061882	-0.050125
Cu18	Cu	1.070536	0.561882	0.449875
O19	O	0.566147	0.132291	0.042471
O20	O	1.066147	0.632291	0.542471
C21	C	0.482124	0.066078	0.000042
C22	C	0.982124	0.566078	0.500042
C23	C	0.428469	0.065525	0.000036
C24	C	0.928469	0.565525	0.500036
C25	C	0.089654	0.106229	0.000053
C26	C	0.589654	0.606229	0.500053
C27	C	-0.112006	0.104178	0.000057
C28	C	0.387994	0.604178	0.500057
O29	O	-0.143262	0.141398	0.000074
O30	O	0.356738	0.641398	0.500074
N31	N	-0.131130	0.059843	0.000063
N32	N	0.368870	0.559843	0.500063
C33	C	-0.099835	0.016017	0.000071
C34	C	0.400165	0.516017	0.500071
O35	O	-0.120728	-0.021740	0.000081
O36	O	0.379272	0.478260	0.500081
C37	C	0.101824	0.018068	0.000069
C38	C	0.601824	0.518068	0.500069
C39	C	0.120944	0.062407	0.000059
C40	C	0.620944	0.562407	0.500059
C41	C	0.108775	0.150563	0.000043
C42	C	0.608775	0.650563	0.500043
C43	C	0.159187	0.151076	0.000039
C44	C	0.659187	0.651076	0.500039
C45	C	0.190477	0.107253	0.000045
C46	C	0.690477	0.607253	0.500045
C47	C	0.171356	0.062919	0.000055
C48	C	0.671356	0.562919	0.500055
C49	C	0.133117	-0.025757	0.000081
C50	C	0.633117	0.474243	0.500081
C51	C	0.183535	-0.025240	0.000082
C52	C	0.683535	0.474760	0.500082
C53	C	0.202655	0.019098	0.000071
C54	C	0.702655	0.519098	0.500071
C55	C	0.253059	0.019609	0.000057
C56	C	0.753059	0.519609	0.500057
N57	N	0.272183	0.063944	0.000051
N58	N	0.772183	0.563944	0.500051
C59	C	0.240892	0.107766	0.000045
C60	C	0.740892	0.607766	0.500045
C61	C	-0.205709	0.014943	0.000070
C62	C	0.294291	0.514943	0.500070
C63	C	-0.256124	0.014430	0.000070
C64	C	0.243876	0.514430	0.500070
C65	C	-0.268291	0.102591	0.000057
C66	C	0.231709	0.602591	0.500057
C67	C	-0.217876	0.103104	0.000054
C68	C	0.282124	0.603104	0.500054
C69	C	-0.186585	0.059278	0.000065
C70	C	0.313415	0.559278	0.500065
C71	C	0.346761	0.108839	0.000036
C72	C	0.846761	0.608839	0.500036
C73	C	0.397178	0.109347	0.000030
C74	C	0.897178	0.609347	0.500030
C75	C	0.409341	0.021186	0.000045
C76	C	0.909341	0.521186	0.500045
C77	C	0.358929	0.020678	0.000049
C78	C	0.858929	0.520678	0.500049
C79	C	0.327639	0.064508	0.000046
C80	C	0.827639	0.564508	0.500046
O81	O	0.284343	-0.017592	0.000046
O82	O	0.784343	0.482408	0.500046
O83	O	0.261794	0.145518	0.000047
O84	O	0.761794	0.645518	0.500047
C85	C	0.039242	0.105716	0.000057
C86	C	0.539242	0.605716	0.500057
C87	C	0.020120	0.061382	0.000067
C88	C	0.520120	0.561382	0.500067
C89	C	0.051411	0.017560	0.000073
C90	C	0.551411	0.517560	0.500073
C91	C	-0.030294	0.060869	0.000066
C92	C	0.469706	0.560869	0.500066
C93	C	-0.061585	0.104691	0.000060
C94	C	0.438415	0.604691	0.500060
C95	C	-0.042461	0.149026	0.000054
C96	C	0.457539	0.649026	0.500054
C97	C	0.007951	0.149539	0.000050
C98	C	0.507951	0.649539	0.500050
C99	C	0.032287	-0.026775	0.000078
C100	C	0.532287	0.473225	0.500078
C101	C	-0.018125	-0.027284	0.000082
C102	C	0.481875	0.472716	0.500082
C103	C	-0.049416	0.016538	0.000076
C104	C	0.450584	0.516538	0.500076
C105	C	0.574716	-0.026515	0.000064
C106	C	1.074716	0.473485	0.500064
C107	C	0.574164	-0.080170	0.000068
C108	C	1.074164	0.419830	0.500068
C109	C	0.614867	-0.418985	0.000046
C110	C	1.114867	0.081015	0.500046
C111	C	0.612816	-0.620645	0.000039
C112	C	1.112816	-0.120645	0.500039
O113	O	0.650037	-0.651900	0.000021
O114	O	1.150037	-0.151900	0.500021
N115	N	0.568481	-0.639768	0.000034
N116	N	1.068481	-0.139768	0.500034
C117	C	0.524656	-0.608474	0.000028
C118	C	1.024656	-0.108474	0.500028
O119	O	0.486899	-0.629367	0.000019
O120	O	0.986899	-0.129367	0.500019
C121	C	0.526707	-0.406815	0.000032
C122	C	1.026707	0.093185	0.500032
C123	C	0.571045	-0.387694	0.000042
C124	C	1.071045	0.112306	0.500042
C125	C	0.659202	-0.399864	0.000056
C126	C	1.159202	0.100136	0.500056
C127	C	0.659714	-0.349452	0.000060
C128	C	1.159714	0.150548	0.500060
C129	C	0.615892	-0.318161	0.000056
C130	C	1.115892	0.181839	0.500056
C131	C	0.571557	-0.337282	0.000046
C132	C	1.071557	0.162718	0.500046
C133	C	0.482882	-0.375521	0.000022
C134	C	0.982882	0.124479	0.500022
C135	C	0.483399	-0.325104	0.000022
C136	C	0.983399	0.174896	0.500022
C137	C	0.527737	-0.305983	0.000032
C138	C	1.027737	0.194017	0.500032
C139	C	0.528247	-0.255580	0.000046
C140	C	1.028247	0.244420	0.500046
N141	N	0.572583	-0.236456	0.000051
N142	N	1.072583	0.263544	0.500051
C143	C	0.616405	-0.267747	0.000056
C144	C	1.116405	0.232253	0.500056
C145	C	0.523582	-0.714348	0.000027
C146	C	1.023582	-0.214348	0.500027
C147	C	0.523069	-0.764762	0.000027
C148	C	1.023069	-0.264762	0.500027
C149	C	0.611230	-0.776930	0.000037
C150	C	1.111230	-0.276930	0.500037
C151	C	0.611742	-0.726514	0.000041
C152	C	1.111742	-0.226514	0.500041
C153	C	0.567917	-0.695224	0.000032
C154	C	1.067917	-0.195224	0.500032
C155	C	0.617477	-0.161878	0.000066
C156	C	1.117477	0.338122	0.500066
C157	C	0.617986	-0.111461	0.000073
C158	C	1.117986	0.388539	0.500073
C159	C	0.529825	-0.099298	0.000060
C160	C	1.029825	0.400702	0.500060
C161	C	0.529316	-0.149710	0.000056
C162	C	1.029316	0.350290	0.500056
C163	C	0.573147	-0.180999	0.000057
C164	C	1.073147	0.319001	0.500057
O165	O	0.491047	-0.224296	0.000059
O166	O	0.991047	0.275704	0.500059
O167	O	0.654156	-0.246844	0.000054
O168	O	1.154156	0.253156	0.500054
C169	C	0.614355	-0.469397	0.000042
C170	C	1.114355	0.030603	0.500042
C171	C	0.570021	-0.488518	0.000033
C172	C	1.070021	0.011482	0.500033
C173	C	0.526198	-0.457228	0.000028
C174	C	1.026198	0.042772	0.500028
C175	C	0.569508	-0.538933	0.000033
C176	C	1.069508	-0.038933	0.500033
C177	C	0.613330	-0.570223	0.000037
C178	C	1.113330	-0.070223	0.500037
C179	C	0.657665	-0.551100	0.000042
C180	C	1.157665	-0.051100	0.500042
C181	C	0.658177	-0.500688	0.000046
C182	C	1.158177	-0.000688	0.500046
C183	C	0.481863	-0.476351	0.000023
C184	C	0.981863	0.023649	0.500023
C185	C	0.481355	-0.526764	0.000019
C186	C	0.981355	-0.026764	0.500019
C187	C	0.525177	-0.558054	0.000024
C188	C	1.025177	-0.058054	0.500024
C189	C	0.658931	0.057699	0.000061
C190	C	1.158931	0.557699	0.500061
C191	C	0.712586	0.058252	0.000064
C192	C	1.212586	0.558252	0.500064
C193	C	0.566338	0.150292	0.000040
C194	C	1.066338	0.650292	0.500040
C195	C	0.566891	0.203947	0.000032
C196	C	1.066891	0.703947	0.500032
N197	N	0.570510	0.061905	0.120813
N198	N	1.070510	0.561905	0.620813
N199	N	0.570548	0.061868	-0.120709
N200	N	1.070548	0.561868	0.379291
C201	C	0.603640	0.028781	0.473336
C202	C	1.103640	0.528781	0.973336
C203	C	0.603651	0.028774	0.686994
C204	C	1.103651	0.528774	1.186994
O205	O	0.631801	0.000614	0.714623
O206	O	1.131801	0.500614	1.214623
N207	N	0.570538	0.061871	0.713707
N208	N	1.070538	0.561871	1.213707
C209	C	0.537419	0.094970	0.687003
C210	C	1.037419	0.594970	1.187003
O211	O	0.509251	0.123117	0.714626
O212	O	1.009251	0.623117	1.214626
C213	C	0.537406	0.094974	0.473345
C214	C	1.037406	0.594974	0.973345
C215	C	0.570524	0.061878	0.446635
C216	C	1.070524	0.561878	0.946635
C217	C	0.636755	-0.004312	0.446625
C218	C	1.136755	0.495688	0.946625
C219	C	0.636754	-0.004308	0.393214
C220	C	1.136754	0.495692	0.893214
C221	C	0.603638	0.028789	0.366513
C222	C	1.103638	0.528789	0.866513
C223	C	0.570523	0.061882	0.393223
C224	C	1.070523	0.561882	0.893223
C225	C	0.504284	0.128070	0.446641
C226	C	1.004284	0.628070	0.946641
C227	C	0.504283	0.128067	0.393223
C228	C	1.004283	0.628067	0.893223
C229	C	0.537401	0.094971	0.366513
C230	C	1.037401	0.594971	0.866513
C231	C	0.537405	0.094983	0.313111
C232	C	1.037405	0.594983	0.813111
N233	N	0.570518	0.061886	0.286397
N234	N	1.070518	0.561886	0.786397
C235	C	0.603634	0.028789	0.313098
C236	C	1.103634	0.528789	0.813098
C237	C	0.537428	0.094966	0.799176
C238	C	1.037428	0.594966	1.299176
C239	C	0.537432	0.094965	0.852590
C240	C	1.037432	0.594965	1.352590
C241	C	0.603664	0.028769	0.852578
C242	C	1.103664	0.528769	1.352578
C243	C	0.603662	0.028773	0.799163
C244	C	1.103662	0.528773	1.299163
C245	C	0.570541	0.061869	0.772463
C246	C	1.070541	0.561869	1.272463
C247	C	0.603629	0.028800	0.200931
C248	C	1.103629	0.528800	0.700931
C249	C	0.603626	0.028808	0.147514
C250	C	1.103626	0.528808	0.647514
C251	C	0.537393	0.095002	0.147531
C252	C	1.037393	0.595002	0.647531
C253	C	0.537397	0.094996	0.200943
C254	C	1.037397	0.594996	0.700943
C255	C	0.570517	0.061891	0.227641
C256	C	1.070517	0.561891	0.727641
O257	O	0.509267	0.123125	0.285449
O258	O	1.009267	0.623125	0.785449
O259	O	0.631790	0.000639	0.285466
O260	O	1.131790	0.500639	0.785466
C261	C	0.603641	0.028777	0.526747
C262	C	1.103641	0.528777	1.026747
C263	C	0.570527	0.061871	0.553457
C264	C	1.070527	0.561871	1.053457
C265	C	0.537410	0.094968	0.526756
C266	C	1.037410	0.594968	1.026756
C267	C	0.570530	0.061870	0.606872
C268	C	1.070530	0.561870	1.106872
C269	C	0.603646	0.028773	0.633573
C270	C	1.103646	0.528773	1.133573
C271	C	0.636759	-0.004323	0.606859
C272	C	1.136759	0.495677	1.106859
C273	C	0.636758	-0.004320	0.553448
C274	C	1.136758	0.495680	1.053448
C275	C	0.504298	0.128064	0.553470
C276	C	1.004298	0.628064	1.053470
C277	C	0.504302	0.128058	0.606881
C278	C	1.004302	0.628058	1.106881
C279	C	0.537418	0.094961	0.633582
C280	C	1.037418	0.594961	1.133582
H281	H	0.117558	-0.061861	0.000090
H282	H	0.617558	0.438139	0.500090
F283	F	0.704304	-0.584410	0.000049
F284	F	1.204304	-0.084410	0.500049
H285	H	0.174750	0.187180	0.000030
H286	H	0.674750	0.687180	0.500030
H287	H	0.694282	-0.485125	0.000054
H288	H	1.194282	0.014875	0.500054
F289	F	-0.172413	-0.031705	0.000081
F290	F	0.327587	0.468295	0.500081
H291	H	0.630629	0.001823	0.777418
H292	H	1.130629	0.501823	1.277418
H293	H	0.083302	0.186251	0.000039
H294	H	0.583302	0.686251	0.500039
F295	F	0.475878	-0.785106	0.000026
F296	F	0.975878	-0.285106	0.500026
F297	F	0.672000	-0.039535	0.364791
F298	F	1.172000	0.460465	0.864791
F299	F	0.028294	0.196730	0.000039
F300	F	0.528294	0.696730	0.500039
H301	H	0.510432	0.121951	0.125783
H302	H	1.010432	0.621951	0.625783
F303	F	0.216833	-0.071886	0.000094
F304	F	0.716833	0.428114	0.500094
H305	H	0.445246	-0.542327	0.000016
H306	H	0.945246	-0.042327	0.500016
H307	H	-0.202311	0.139207	0.000049
H308	H	0.297689	0.639207	0.500049
H309	H	0.494146	-0.073812	0.000058
H310	H	0.994146	0.426188	0.500058
F311	F	0.672005	-0.039546	0.635286
F312	F	1.172005	0.460454	1.135286
F313	F	0.638877	-0.006417	0.119090
F314	F	1.138877	0.493583	0.619090
F315	F	0.435219	-0.443055	0.000017
F316	F	0.935219	0.056945	0.500017
H317	H	0.663725	-0.031269	0.531704
H318	H	1.163725	0.468731	1.031704
H319	H	0.343360	-0.015426	0.000050
H320	H	0.843360	0.484574	0.500050
H321	H	-0.271687	-0.021674	0.000070
H322	H	0.228313	0.478326	0.500070
H323	H	0.477330	0.155015	0.531734
H324	H	0.977330	0.655015	1.031734
F325	F	0.657869	-0.810240	0.000041
F326	F	1.157869	-0.310240	0.500041
F327	F	0.638879	-0.006434	0.229337
F328	F	1.138879	0.493566	0.729337
F329	F	0.442651	-0.025450	0.000053
F330	F	0.942651	0.474550	0.500053
H331	H	0.510434	0.121950	0.222691
H332	H	1.010434	0.621950	0.722691
F333	F	0.469029	0.163293	0.364811
F334	F	0.969029	0.663293	0.864811
F335	F	0.672004	-0.039542	0.475035
F336	F	1.172004	0.460458	0.975035
H337	H	0.487892	-0.688875	0.000020
H338	H	0.987892	-0.188875	0.500020
F339	F	0.638908	-0.006455	0.881005
F340	F	1.138908	0.493545	1.381005
F341	F	0.436752	-0.291805	0.000011
F342	F	0.936752	0.208195	0.500011
F343	F	0.502189	0.130196	0.881012
F344	F	1.002189	0.630196	1.381012
H345	H	0.477334	0.155013	0.628625
H346	H	0.977334	0.655013	1.128625
F347	F	0.502175	0.130195	0.770765
F348	F	1.002175	0.630195	1.270765
F349	F	0.706905	-0.329109	0.000060
F350	F	1.206905	0.170891	0.500060
H351	H	0.412743	0.145454	0.000021
H352	H	0.912743	0.645454	0.500021
H353	H	-0.033688	-0.063392	0.000086
H354	H	0.466312	0.436608	0.500086
F355	F	0.313468	0.155488	0.000034
F356	F	0.813468	0.655488	0.500034
H357	H	-0.067947	0.184708	0.000047
H358	H	0.432053	0.684708	0.500047
F359	F	0.469035	0.163294	0.475059
F360	F	0.969035	0.663294	0.975059
H361	H	0.057760	-0.062462	0.000085
H362	H	0.557760	0.437538	0.500085
F363	F	0.665178	-0.091114	0.000083
F364	F	1.165178	0.408886	0.500083
F365	F	-0.301601	0.149230	0.000052
F366	F	0.198399	0.649230	0.500052
F367	F	0.705848	-0.433159	0.000060
F368	F	1.205848	0.066841	0.500060
F369	F	0.664126	-0.195171	0.000067
F370	F	1.164126	0.304829	0.500067
F371	F	0.435691	-0.395860	0.000010
F372	F	0.935691	0.104140	0.500010
H373	H	0.493213	-0.165279	0.000062
H374	H	0.993213	0.334721	0.500062
F375	F	0.658932	-0.706169	0.000051
F376	F	1.158932	-0.206169	0.500051
