data_functionalizedCrystal
_audit_creation_method	'MofGen! by Chris Wilmer'
_symmetry_space_group_name_H-M	'P1'
_symmetry_Int_Tables_number	1
_symmetry_cell_setting	triclinic
loop_
_symmetry_equiv_pos_as_xyz
  x,y,z
_cell_length_a	15.944551
_cell_length_b	10.654541
_cell_length_c	9.730217
_cell_angle_alpha	89.999538
_cell_angle_beta	90.003081
_cell_angle_gamma	83.991333
loop_
_atom_site_label
_atom_site_type_symbol
_atom_site_fract_x
_atom_site_fract_y
_atom_site_fract_z
O1	O	1.115457	0.161964	-0.114138
O2	O	0.871023	0.181933	-0.114171
O3	O	0.998861	-0.010863	-0.114154
O4	O	0.987619	0.354761	-0.114155
O5	O	0.998857	-0.010865	0.114426
O6	O	0.871019	0.181931	0.114409
O7	O	1.115453	0.161963	0.114442
Zn8	Zn	0.993235	0.171947	0.150718
Zn9	Zn	0.993241	0.171949	-0.150446
O10	O	0.987615	0.354759	0.114425
C11	C	0.839722	0.181103	0.000115
C12	C	0.746462	0.178618	0.000102
C13	C	0.988442	0.401548	0.000136
C14	C	0.990910	0.540959	0.000136
C15	C	0.998034	-0.057652	0.000132
C16	C	0.995566	-0.197063	0.000123
C17	C	0.530880	0.053173	0.000128
C18	C	0.470198	0.111426	-0.112574
C19	C	0.575710	0.174122	0.000118
C20	C	0.470217	0.111453	0.112788
C21	C	0.410772	0.169770	0.000140
C22	C	0.516257	0.232408	-0.112677
C23	C	0.516282	0.232418	0.112786
C24	C	0.455618	0.290760	0.000056
C25	C	0.670727	0.176625	0.000104
C26	C	0.315756	0.167276	0.000143
C27	C	1.146754	0.162793	0.000153
C28	C	1.240014	0.165278	0.000157
N29	N	0.993238	0.171944	0.356254
C30	C	0.838045	0.570908	0.000132
C31	C	0.762776	0.651376	0.000135
C32	C	0.765100	0.782364	0.000136
C33	C	0.842702	0.832885	0.000129
C34	C	0.917972	0.752417	0.000126
C35	C	0.915639	0.621428	0.000129
C36	C	1.070835	0.722469	0.000120
C37	C	1.068513	0.591480	0.000129
C38	C	1.148437	0.772990	0.000113
C39	C	1.223709	0.692521	0.000120
C40	C	1.221381	0.561526	0.000121
C41	C	1.143782	0.511012	0.000126
N42	N	0.993245	0.171941	-0.355983
C43	C	1.106485	0.001272	0.356260
C44	C	1.163115	-0.084060	0.428202
C45	C	1.163123	-0.084061	0.572082
C46	C	1.106495	0.001277	0.644022
C47	C	1.049865	0.086610	0.572080
C48	C	1.049865	0.086604	0.428197
C49	C	0.936615	0.257274	0.572074
C50	C	0.936609	0.257283	0.428195
C51	C	0.879987	0.342612	0.644015
C52	C	0.823360	0.427953	0.572072
C53	C	0.823355	0.427951	0.428184
C54	C	0.879980	0.342615	0.356252
H55	H	0.563632	-0.047204	-0.000011
H56	H	0.449794	0.060271	-0.207855
Cl57	Cl	0.670475	0.883528	0.000131
Cl58	Cl	1.106491	0.001280	0.175381
Cl59	Cl	1.151360	0.937661	0.000101
Cl60	Cl	1.234311	-0.191344	0.662526
Cl61	Cl	1.140849	0.346342	0.000135
Cl62	Cl	0.835117	0.406237	0.000158
Cl63	Cl	0.752173	0.535217	0.662515
H64	H	0.777237	0.497435	0.369616
H65	H	1.282675	0.496015	0.000108
H66	H	0.536542	0.283527	-0.208062
H67	H	0.423041	0.391241	-0.000007
H68	H	1.209220	-0.153545	0.369616
H69	H	0.536707	0.283532	0.208072
H70	H	0.449833	0.060274	0.208066
Cl71	Cl	0.665224	0.587858	0.000129
Cl72	Cl	0.845622	0.997557	0.000101
Cl73	Cl	1.106495	0.001260	0.824901
H74	H	0.879993	0.342603	0.761169
H75	H	1.286886	0.733667	0.000095
Cl76	Cl	0.879982	0.342610	0.175373
