data_functionalizedCrystal
_audit_creation_method	'MofGen! by Chris Wilmer'
_symmetry_space_group_name_H-M	'P1'
_symmetry_Int_Tables_number	1
_symmetry_cell_setting	triclinic
loop_
_symmetry_equiv_pos_as_xyz
  x,y,z
_cell_length_a	12.594516
_cell_length_b	12.759401
_cell_length_c	12.759393
_cell_angle_alpha	90.020264
_cell_angle_beta	89.971698
_cell_angle_gamma	89.985858
loop_
_atom_site_label
_atom_site_type_symbol
_atom_site_fract_x
_atom_site_fract_y
_atom_site_fract_z
Zn1	Zn	-0.423742	-1.606242	-0.594058
Zn2	Zn	-0.601759	-1.606133	-0.418385
Zn3	Zn	-0.423789	-1.430545	-0.418391
Zn4	Zn	-0.601673	-1.430529	-0.594020
O5	O	-0.512741	-1.518362	-0.506214
O6	O	-0.447373	-1.753249	-0.570768
O7	O	-0.578206	-1.582803	-0.271365
O8	O	-0.274837	-1.453904	-0.441711
O9	O	-0.578161	-1.753169	-0.441702
O10	O	-0.274803	-1.582988	-0.570773
O11	O	-0.447453	-1.453799	-0.271369
O12	O	-0.447369	-1.283522	-0.441675
O13	O	-0.578015	-1.453876	-0.741046
O14	O	-0.578060	-1.283510	-0.570709
O15	O	-0.447290	-1.582972	-0.741074
O16	O	-0.750693	-1.582787	-0.441666
O17	O	-0.750630	-1.453771	-0.570704
C18	C	-0.512711	-1.245395	-0.506189
C19	C	-0.512724	-1.128618	-0.506204
C20	C	-0.580890	-0.964053	-0.573301
C21	C	-0.580880	-1.073777	-0.573286
C22	C	-0.444582	-1.073730	-0.439124
C23	C	-0.444598	-0.964008	-0.439135
C24	C	-0.649042	-0.909217	-0.640396
C25	C	-0.717187	-0.964097	-0.707474
C26	C	-0.717177	-1.073821	-0.707459
C27	C	-0.649023	-1.128665	-0.640366
C28	C	-0.789282	-1.518293	-0.506203
C29	C	-0.907587	-1.518360	-0.506234
C30	C	-0.976845	-1.448181	-0.576369
C31	C	-1.047713	-1.422583	-0.480501
C32	C	-1.047518	-1.544055	-0.602118
C33	C	-0.976897	-1.492711	-0.410316
C34	C	-0.976696	-1.614227	-0.531997
C35	C	-1.047532	-1.588665	-0.436064
C36	C	-0.235120	-1.518460	-0.506247
C37	C	-0.116815	-1.518502	-0.506261
C38	C	-0.512637	-1.518434	-0.780247
C39	C	-0.512593	-1.518465	-0.897024
C40	C	-0.512763	-0.792396	-0.506233
C41	C	-0.512750	-0.909172	-0.506229
C42	C	-0.580595	-1.451299	-1.061598
C43	C	-0.580634	-1.451266	-0.951874
C44	C	-0.444502	-1.585693	-0.951903
C45	C	-0.444459	-1.585719	-1.061625
C46	C	-0.648647	-1.384103	-1.116443
C47	C	-0.716737	-1.316874	-1.061571
C48	C	-0.716776	-1.316841	-0.951847
C49	C	-0.648725	-1.384038	-0.896994
C50	C	-0.512767	-1.518351	-0.233246
C51	C	-0.512511	-1.518524	-0.116470
H52	H	-0.389093	-1.118393	-0.384501
H53	H	-0.772209	-1.262091	-0.907173
H54	H	-1.078930	-1.341576	-0.458733
O55	O	-0.783334	-0.910940	-0.772791
C56	C	-0.835158	-0.877398	-0.951430
C57	C	-0.760198	-0.937679	-0.877575
H58	H	-0.816466	-0.898977	-1.036164
H59	H	-0.920980	-0.898965	-0.932928
H60	H	-0.823475	-0.789555	-0.939867
H61	H	-0.771787	-1.025536	-0.889097
H62	H	-0.674405	-0.916025	-0.896094
O63	O	-1.084402	-1.569797	-0.698918
C64	C	-1.090363	-1.524768	-0.882214
C65	C	-1.048508	-1.495519	-0.772650
H66	H	-1.061378	-1.464718	-0.941851
H67	H	-1.059902	-1.605831	-0.904823
H68	H	-1.180871	-1.525374	-0.881060
H69	H	-0.958003	-1.494853	-0.773719
H70	H	-1.079050	-1.414475	-0.750083
H71	H	-0.648759	-1.384004	-0.807650
H72	H	-0.649056	-0.819874	-0.640418
H73	H	-0.648625	-1.384124	-1.205786
H74	H	-0.772670	-1.118502	-0.762071
O75	O	-0.939629	-1.377340	-0.647013
C76	C	-0.785681	-1.298460	-0.726727
C77	C	-0.827686	-1.378742	-0.646713
H78	H	-0.695171	-1.299551	-0.726495
H79	H	-0.815864	-1.319496	-0.808284
H80	H	-0.814924	-1.216836	-0.704582
H81	H	-0.798460	-1.460394	-0.668760
H82	H	-0.797511	-1.357615	-0.565177
H83	H	-0.389014	-1.640455	-1.106303
O84	O	-0.940001	-1.466561	-0.313630
C85	C	-0.835967	-1.345559	-0.211297
C86	C	-0.877702	-1.375045	-0.320842
H87	H	-0.785572	-1.271579	-0.217095
H88	H	-0.905847	-1.330844	-0.156399
H89	H	-0.785524	-1.412483	-0.179305
H90	H	-0.928130	-1.308159	-0.352929
H91	H	-0.807775	-1.389798	-0.375669
O92	O	-0.378306	-0.910853	-0.373951
C93	C	-0.243160	-0.922376	-0.240834
C94	C	-0.318160	-0.982705	-0.314624
H95	H	-0.194528	-0.980442	-0.192833
H96	H	-0.187500	-0.871061	-0.289115
H97	H	-0.291991	-0.870950	-0.185871
H98	H	-0.269414	-1.034188	-0.369601
H99	H	-0.373822	-1.033953	-0.266277
H100	H	-1.078374	-1.648073	-0.376696
O101	O	-0.939497	-1.710813	-0.558201
C102	C	-0.933262	-1.847054	-0.688893
C103	C	-0.975442	-1.737653	-0.659345
H104	H	-0.962325	-1.868797	-0.770660
H105	H	-0.842752	-1.846269	-0.687943
H106	H	-0.963543	-1.907124	-0.629906
H107	H	-0.945239	-1.677521	-0.718303
H108	H	-1.065950	-1.738525	-0.660262
H109	H	-0.649026	-1.218010	-0.640353
H110	H	-0.772134	-1.262157	-1.106239
O111	O	-0.378506	-1.650933	-0.898461
C112	C	-0.318197	-1.710420	-0.729439
C113	C	-0.393009	-1.636498	-0.789829
H114	H	-0.329882	-1.698759	-0.641599
H115	H	-0.336888	-1.795160	-0.750939
H116	H	-0.232373	-1.692016	-0.751081
H117	H	-0.478858	-1.654808	-0.768219
H118	H	-0.374227	-1.551781	-0.768323
