data_functionalizedCrystal
_audit_creation_method	'MofGen! by Chris Wilmer'
_symmetry_space_group_name_H-M	'P1'
_symmetry_Int_Tables_number	1
_symmetry_cell_setting	triclinic
loop_
_symmetry_equiv_pos_as_xyz
  x,y,z
_cell_length_a	17.038272
_cell_length_b	17.038272
_cell_length_c	9.016244
_cell_angle_alpha	90.001386
_cell_angle_beta	90.000654
_cell_angle_gamma	91.111556
loop_
_atom_site_label
_atom_site_type_symbol
_atom_site_fract_x
_atom_site_fract_y
_atom_site_fract_z
O1	O	1.048755	0.170530	-0.123156
O2	O	1.548755	0.670530	0.376844
O3	O	0.820943	0.167822	-0.123200
O4	O	1.320943	0.667822	0.376800
O5	O	0.933495	0.055270	-0.123166
O6	O	1.433495	0.555270	0.376834
O7	O	0.936203	0.283081	-0.123189
O8	O	1.436203	0.783081	0.376811
O9	O	0.933484	0.055280	0.123514
O10	O	1.433484	0.555280	0.623514
O11	O	0.820932	0.167832	0.123481
O12	O	1.320932	0.667832	0.623481
O13	O	1.048743	0.170540	0.123525
O14	O	1.548743	0.670540	0.623525
Cu15	Cu	0.934837	0.169187	0.146027
Cu16	Cu	1.434837	0.669187	0.646027
Cu17	Cu	0.934850	0.169175	-0.145702
Cu18	Cu	1.434850	0.669175	0.354298
O19	O	0.936192	0.283091	0.123491
O20	O	1.436192	0.783091	0.623491
C21	C	0.791645	0.165364	0.000135
C22	C	1.291645	0.665364	0.500135
C23	C	0.704361	0.158016	0.000119
C24	C	1.204361	0.658016	0.500119
C25	C	0.658752	0.225479	0.000113
C26	C	1.158752	0.725479	0.500113
C27	C	0.576740	0.218570	0.000134
C28	C	1.076740	0.718570	0.500134
C29	C	0.540339	0.144197	0.000151
C30	C	1.040339	0.644197	0.500151
C31	C	0.585954	0.076728	0.000161
C32	C	1.085954	0.576728	0.500161
C33	C	0.667965	0.083638	0.000150
C34	C	1.167965	0.583638	0.500150
C35	C	0.292951	0.119787	0.000193
C36	C	0.792951	0.619787	0.500193
C37	C	0.210935	0.112882	0.000199
C38	C	0.710935	0.612882	0.500199
C39	C	0.201726	0.254725	0.000175
C40	C	0.701726	0.754725	0.500175
C41	C	0.283739	0.261628	0.000156
C42	C	0.783739	0.761628	0.500156
C43	C	0.329347	0.194159	0.000174
C44	C	0.829347	0.694159	0.500174
C45	C	0.456510	0.137133	0.000168
C46	C	0.956510	0.637133	0.500168
C47	C	0.413174	0.201224	0.000167
C48	C	0.913174	0.701224	0.500167
C49	C	0.931027	0.025982	0.000173
C50	C	1.431027	0.525982	0.500173
C51	C	0.923679	-0.061301	0.000172
C52	C	1.423679	0.438699	0.500172
C53	C	0.991142	-0.106911	0.000186
C54	C	1.491142	0.393089	0.500186
C55	C	0.984233	-0.188923	0.000171
C56	C	1.484233	0.311077	0.500171
C57	C	0.909860	-0.225324	0.000151
C58	C	1.409860	0.274676	0.500151
C59	C	0.842391	-0.179708	0.000132
C60	C	1.342391	0.320292	0.500132
C61	C	0.849301	-0.097698	0.000137
C62	C	1.349301	0.402302	0.500137
C63	C	0.885449	-0.472712	0.000126
C64	C	1.385449	0.027288	0.500126
C65	C	0.878545	-0.554728	0.000126
C66	C	1.378545	-0.054728	0.500126
C67	C	1.020387	-0.563937	0.000161
C68	C	1.520387	-0.063937	0.500161
C69	C	1.027291	-0.481924	0.000175
C70	C	1.527291	0.018076	0.500175
C71	C	0.959822	-0.436316	0.000148
C72	C	1.459822	0.063684	0.500148
C73	C	0.902796	-0.309153	0.000140
C74	C	1.402796	0.190847	0.500140
C75	C	0.966886	-0.352488	0.000149
C76	C	1.466886	0.147512	0.500149
C77	C	1.078042	0.172997	0.000187
C78	C	1.578042	0.672997	0.500187
C79	C	1.165326	0.180346	0.000193
C80	C	1.665326	0.680346	0.500193
C81	C	0.938660	0.312379	0.000148
C82	C	1.438660	0.812379	0.500148
C83	C	0.946008	0.399663	0.000141
C84	C	1.446008	0.899663	0.500141
N85	N	0.934833	0.169195	0.351213
N86	N	1.434833	0.669195	0.851213
C87	C	0.874596	0.229392	0.414165
C88	C	1.374596	0.729392	0.914165
C89	C	0.874365	0.229198	0.586056
C90	C	1.374365	0.729198	1.086056
C91	C	0.911831	0.085965	0.586692
C92	C	1.411831	0.585965	1.086692
C93	C	0.911383	0.086325	0.414748
C94	C	1.411383	0.586325	0.914748
C95	C	1.018238	0.191479	0.414564
C96	C	1.518238	0.691479	0.914564
C97	C	1.017819	0.193292	0.586520
C98	C	1.517819	0.693292	1.086520
N99	N	0.934849	0.169174	0.649112
N100	N	1.434849	0.669174	1.149112
H101	H	0.330076	0.064848	0.000209
H102	H	0.830076	0.564848	0.500209
C103	C	0.545915	-0.005080	0.000176
C104	C	1.045915	0.494920	0.500176
H105	H	0.490540	0.000465	0.000165
H106	H	0.990540	0.500465	0.500165
H107	H	0.561250	-0.033086	0.086199
H108	H	1.061250	0.466914	0.586199
H109	H	0.561247	-0.033089	-0.085858
H110	H	1.061247	0.466911	0.414142
C111	C	0.969262	0.023662	0.641789
C112	C	1.469262	0.523662	1.141789
H113	H	0.954272	-0.026195	0.602710
H114	H	1.454272	0.473805	1.102710
H115	H	0.968074	0.021669	0.747057
H116	H	1.468074	0.521669	1.247057
H117	H	1.020881	0.037076	0.609545
H118	H	1.520881	0.537076	1.109545
C119	C	1.094596	-0.614106	0.000169
C120	C	1.594596	-0.114106	0.500169
H121	H	1.079832	-0.668162	0.000150
H122	H	1.579832	-0.168162	0.500150
H123	H	1.124868	-0.602560	0.086194
H124	H	1.624868	-0.102560	0.586194
H125	H	1.124866	-0.602556	-0.085863
H126	H	1.624866	-0.102556	0.414137
H127	H	0.164583	0.309653	0.000164
H128	H	0.664583	0.809653	0.500164
C129	C	0.698786	0.307291	0.000095
C130	C	1.198786	0.807291	0.500095
H131	H	0.659874	0.346479	0.000108
H132	H	1.159874	0.846479	0.500108
H133	H	0.730584	0.312932	-0.085932
H134	H	1.230584	0.812932	0.414068
H135	H	0.730589	0.312938	0.086125
H136	H	1.230589	0.812938	0.586125
C137	C	0.893901	0.312966	0.358326
C138	C	1.393901	0.812966	0.858326
H139	H	0.856874	0.348404	0.397575
H140	H	1.356874	0.848404	0.897575
H141	H	0.891575	0.313868	0.253075
H142	H	1.391575	0.813868	0.753075
H143	H	0.945165	0.328195	0.389901
H144	H	1.445165	0.828195	0.889901
H145	H	0.817978	-0.584363	0.000134
H146	H	1.317978	-0.084363	0.500134
C147	C	1.109099	-0.441885	0.000206
C148	C	1.609099	0.058115	0.500206
H149	H	1.103552	-0.386510	0.000225
H150	H	1.603552	0.113490	0.500225
H151	H	1.137119	-0.457214	-0.085805
H152	H	1.637119	0.042786	0.414195
H153	H	1.137094	-0.457221	0.086252
H154	H	1.637094	0.042779	0.586252
H155	H	0.781835	-0.209353	0.000107
H156	H	1.281835	0.290647	0.500107
C157	C	0.170895	0.031068	0.000220
C158	C	0.670895	0.531068	0.500220
H159	H	0.209802	-0.008125	0.000241
H160	H	0.709802	0.491875	0.500241
H161	H	0.139093	0.025420	-0.085802
H162	H	0.639093	0.525420	0.414198
H163	H	0.139095	0.025434	0.086255
H164	H	0.639095	0.525434	0.586255
C165	C	0.718135	0.009428	0.000141
C166	C	1.218135	0.509428	0.500141
H167	H	0.684712	-0.035856	0.000136
H168	H	1.184712	0.464144	0.500136
H169	H	0.750324	0.009177	0.086158
H170	H	1.250324	0.509177	0.586158
H171	H	0.750313	0.009174	-0.085899
H172	H	1.250313	0.509174	0.414101
H173	H	0.539608	0.273507	0.000128
H174	H	1.039608	0.773507	0.500128
H175	H	0.313370	0.322190	0.000125
H176	H	0.813370	0.822190	0.500125
C177	C	0.453209	0.283031	0.000145
C178	C	0.953209	0.783031	0.500145
H179	H	0.414303	0.322225	0.000149
H180	H	0.914303	0.822225	0.500149
H181	H	0.485009	0.288663	-0.085881
H182	H	0.985009	0.788663	0.414119
H183	H	0.485012	0.288679	0.086176
H184	H	0.985012	0.788679	0.586176
C185	C	0.811236	-0.422553	0.000123
C186	C	1.311236	0.077447	0.500123
H187	H	0.765955	-0.455980	0.000131
H188	H	1.265955	0.044020	0.500131
H189	H	0.810980	-0.390367	-0.085895
H190	H	1.310980	0.109633	0.414105
H191	H	0.810982	-0.390372	0.086161
H192	H	1.310982	0.109628	0.586161
H193	H	1.065149	0.152728	0.629442
H194	H	1.565149	0.652728	1.129442
H195	H	0.426863	0.076578	0.000223
H196	H	0.926863	0.576578	0.500223
C197	C	0.791602	0.209585	0.355843
C198	C	1.291602	0.709585	0.855843
H199	H	0.793502	0.164788	0.293299
H200	H	1.293502	0.664788	0.793299
H201	H	0.772535	0.252888	0.301153
H202	H	1.272535	0.752888	0.801153
H203	H	0.757569	0.198842	0.437109
H204	H	1.257569	0.698842	0.937109
H205	H	1.039170	-0.226054	0.000186
H206	H	1.539170	0.273946	0.500186
H207	H	0.812585	0.214355	0.627208
H208	H	1.312585	0.714355	1.127208
C209	C	1.072953	-0.066877	0.000207
C210	C	1.572953	0.433123	0.500207
H211	H	1.112142	-0.105789	0.000200
H212	H	1.612142	0.394211	0.500200
H213	H	1.078595	-0.035075	0.086231
H214	H	1.578595	0.464925	0.586231
H215	H	1.078600	-0.035077	-0.085826
H216	H	1.578600	0.464923	0.414174
H217	H	0.794365	-0.060564	0.000125
H218	H	1.294365	0.439436	0.500125
C219	C	1.041264	0.276016	0.641648
C220	C	1.541264	0.776016	1.141648
H221	H	1.000665	0.295779	0.702562
H222	H	1.500665	0.795779	1.202562
H223	H	1.049133	0.309856	0.559026
H224	H	1.549133	0.809856	1.059026
H225	H	1.088455	0.273443	0.697404
H226	H	1.588455	0.773443	1.197404
H227	H	1.027441	-0.322847	0.000132
H228	H	1.527441	0.177153	0.500132
C229	C	0.893906	0.312501	0.643081
C230	C	1.393906	0.812501	1.143081
H231	H	0.902053	0.346767	0.561160
H232	H	1.402053	0.846767	1.061160
H233	H	0.940166	0.311458	0.701798
H234	H	1.440166	0.811458	1.201798
H235	H	0.851542	0.330679	0.701443
H236	H	1.351542	0.830679	1.201443
C237	C	0.829002	0.060995	0.360584
C238	C	1.329002	0.560995	0.860584
H239	H	0.796122	0.050587	0.443664
H240	H	1.296122	0.550587	0.943664
H241	H	0.832706	0.014917	0.301885
H242	H	1.332706	0.514917	0.801885
H243	H	0.807345	0.101869	0.302808
H244	H	1.307345	0.601869	0.802808
C245	C	0.968030	0.023586	0.358477
C246	C	1.468030	0.523586	0.858477
H247	H	0.991209	-0.002012	0.440706
H248	H	1.491209	0.497988	0.940706
H249	H	1.007960	0.047907	0.299924
H250	H	1.507960	0.547907	0.799924
H251	H	0.939855	-0.013856	0.300105
H252	H	1.439855	0.486144	0.800105
H253	H	1.063126	0.147649	0.373841
H254	H	1.563126	0.647649	0.873841
H255	H	0.842241	-0.338800	0.000128
H256	H	1.342241	0.161200	0.500128
C257	C	0.830352	0.060204	0.644868
C258	C	1.330352	0.560204	1.144868
H259	H	0.810252	0.100039	0.707178
H260	H	1.310252	0.600039	1.207178
H261	H	0.834768	0.012912	0.699773
H262	H	1.334768	0.512912	1.199773
H263	H	0.795760	0.051786	0.563527
H264	H	1.295760	0.551786	1.063527
H265	H	1.039082	0.251176	0.371209
H266	H	1.539082	0.751176	0.871209
