data_functionalizedCrystal
_audit_creation_method	'MofGen! by Chris Wilmer'
_symmetry_space_group_name_H-M	'P1'
_symmetry_Int_Tables_number	1
_symmetry_cell_setting	triclinic
loop_
_symmetry_equiv_pos_as_xyz
  x,y,z
_cell_length_a	10.654550
_cell_length_b	23.532407
_cell_length_c	9.730223
_cell_angle_alpha	89.990210
_cell_angle_beta	89.996251
_cell_angle_gamma	83.666824
loop_
_atom_site_label
_atom_site_type_symbol
_atom_site_fract_x
_atom_site_fract_y
_atom_site_fract_z
O1	O	1.665300	0.079982	-0.114431
O2	O	1.299580	0.087603	-0.114412
O3	O	1.493468	0.000933	-0.114384
O4	O	1.471412	0.166652	-0.114460
O5	O	1.493466	0.000935	0.114196
O6	O	1.299578	0.087605	0.114168
O7	O	1.665298	0.079985	0.114149
Zn8	Zn	1.482437	0.083795	0.150450
Zn9	Zn	1.482440	0.083792	-0.150714
O10	O	1.471410	0.166655	0.114120
C11	C	1.252799	0.087044	-0.000119
C12	C	1.113409	0.085370	-0.000110
C13	C	1.492905	-0.020286	-0.000087
C14	C	1.491217	-0.083514	-0.000066
C15	C	1.032306	0.136400	-0.000153
C16	C	0.901335	0.134824	-0.000176
C17	C	0.932582	0.031183	-0.000118
C18	C	1.063550	0.032760	-0.000085
C19	C	1.014265	0.196236	-0.000193
C20	C	0.883294	0.194660	-0.000216
C21	C	1.369514	-0.350474	-0.000145
C22	C	1.371082	-0.291064	-0.000135
O23	O	1.274537	-0.254948	-0.000173
N24	N	1.486349	-0.267687	-0.000125
C25	C	1.600054	-0.303723	-0.000140
O26	O	1.698241	-0.278384	-0.000132
C27	C	1.598484	-0.363133	-0.000160
C28	C	1.483210	-0.386506	-0.000156
C29	C	1.254249	-0.373849	-0.000143
C30	C	1.252681	-0.433255	-0.000150
C31	C	1.366377	-0.469287	-0.000161
C32	C	1.481642	-0.445913	-0.000164
C33	C	1.712188	-0.399168	-0.000185
C34	C	1.710608	-0.458581	-0.000206
C35	C	1.595334	-0.481955	-0.000202
C36	C	1.593770	-0.541351	-0.000182
N37	N	1.478504	-0.564728	-0.000192
C38	C	1.364807	-0.528696	-0.000181
C39	C	1.603342	-0.178959	-0.000099
C40	C	1.604914	-0.119551	-0.000069
C41	C	1.375942	-0.106896	-0.000067
C42	C	1.374372	-0.166305	-0.000087
C43	C	1.488076	-0.202337	-0.000109
C44	C	1.361523	-0.653455	-0.000197
C45	C	1.359965	-0.712867	-0.000199
C46	C	1.588936	-0.725517	-0.000209
C47	C	1.590495	-0.666110	-0.000199
C48	C	1.476778	-0.630080	-0.000198
O49	O	1.690265	-0.577502	-0.000150
O50	O	1.266636	-0.554044	-0.000207
C51	C	1.712079	0.080543	-0.000148
C52	C	1.851469	0.082217	-0.000166
C53	C	1.471972	0.187873	-0.000180
C54	C	1.473661	0.251101	-0.000210
N55	N	1.482445	0.083797	0.355987
N56	N	1.482443	0.083786	-0.356250
C57	C	1.568320	0.045432	0.427925
C58	C	1.568317	0.045425	0.571808
C59	C	1.396559	0.122152	0.571801
C60	C	1.396557	0.122156	0.427921
C61	C	1.667486	0.001136	0.427930
C62	C	1.667483	0.001129	0.571813
H63	H	1.129581	-0.008793	-0.000030
Cl64	Cl	0.869894	-0.034952	-0.000088
Cl65	Cl	1.853560	-0.503875	-0.000238
H66	H	0.840848	0.217205	-0.095894
Cl67	Cl	1.816010	0.016188	0.632099
Cl68	Cl	1.636520	-0.066440	0.367656
Cl69	Cl	1.229451	-0.195683	-0.000086
Cl70	Cl	1.215038	-0.742247	-0.000191
Cl71	Cl	1.233008	-0.061587	-0.000055
H72	H	1.042854	0.219639	0.095462
H73	H	1.684360	-0.647078	-0.000183
H74	H	1.326620	0.153390	0.369350
H75	H	1.049318	0.215288	-0.098889
Cl76	Cl	1.749836	-0.090175	-0.000054
H77	H	0.837049	0.212744	0.098460
Cl78	Cl	1.746301	-0.224251	-0.000110
Cl79	Cl	1.107757	-0.462630	-0.000162
Cl80	Cl	1.218562	-0.608168	-0.000191
Cl81	Cl	1.111296	-0.328561	-0.000131
H82	H	1.806056	-0.380148	-0.000189
H83	H	1.681505	-0.754865	-0.000211
Cl84	Cl	1.288592	0.170373	0.662241
H85	H	1.758231	0.015006	0.383292
Cl86	Cl	1.622387	-0.062728	0.640741
