data_functionalizedCrystal
_audit_creation_method	'MofGen! by Chris Wilmer'
_symmetry_space_group_name_H-M	'P1'
_symmetry_Int_Tables_number	1
_symmetry_cell_setting	triclinic
loop_
_symmetry_equiv_pos_as_xyz
  x,y,z
_cell_length_a	10.654559
_cell_length_b	10.654549
_cell_length_c	9.730223
_cell_angle_alpha	89.999624
_cell_angle_beta	89.999563
_cell_angle_gamma	84.486731
loop_
_atom_site_label
_atom_site_type_symbol
_atom_site_fract_x
_atom_site_fract_y
_atom_site_fract_z
O1	O	1.667827	0.176448	-0.114294
O2	O	1.302350	0.193243	-0.114295
O3	O	1.493492	0.002107	-0.114289
O4	O	1.476685	0.367585	-0.114300
O5	O	1.493490	0.002111	0.114291
O6	O	1.302348	0.193247	0.114285
O7	O	1.667825	0.176453	0.114286
Zn8	Zn	1.485086	0.184851	0.150577
Zn9	Zn	1.485089	0.184845	-0.150587
O10	O	1.476683	0.367589	0.114280
C11	C	1.255551	0.192009	-0.000005
C12	C	1.116108	0.188313	-0.000005
C13	C	1.064569	0.072301	0.000002
C14	C	0.933547	0.068835	-0.000008
C15	C	0.905614	0.297404	-0.000027
C16	C	1.036634	0.300869	-0.000027
C17	C	1.080694	-0.059662	0.000019
C18	C	0.949672	-0.063128	0.000008
C19	C	1.492257	-0.044689	-0.000000
C20	C	1.488565	-0.184132	-0.000005
C21	C	1.714624	0.177686	-0.000007
C22	C	1.854066	0.181383	-0.000016
C23	C	1.597628	-0.394644	-0.000014
C24	C	1.601106	-0.263623	-0.000003
C25	C	1.372538	-0.235669	-0.000003
C26	C	1.369061	-0.366687	-0.000004
C27	C	1.477918	0.414385	-0.000012
C28	C	1.481610	0.553828	-0.000017
N29	N	1.485093	0.184855	0.356114
N30	N	1.485092	0.184831	-0.356123
C31	C	1.569753	0.100249	0.428042
C32	C	1.569749	0.100233	0.571925
C33	C	1.400423	0.269441	0.571938
C34	C	1.400421	0.269450	0.428058
C35	C	1.667516	0.002561	0.428036
C36	C	1.667512	0.002546	0.571919
H37	H	1.122443	-0.109394	-0.095634
C38	C	0.841463	0.491170	0.117451
C39	C	0.818256	0.421124	-0.000045
H40	H	0.787538	0.567554	0.117433
H41	H	0.825715	0.443653	0.197150
H42	H	0.926875	0.509825	0.117441
H43	H	0.732846	0.402461	-0.000030
H44	H	0.833994	0.468650	-0.079765
C45	C	1.167803	0.437384	0.117406
C46	C	1.093306	0.428383	-0.000079
H47	H	1.202798	0.516105	0.117357
H48	H	1.117274	0.431327	0.197113
H49	H	1.233873	0.370834	0.117412
H50	H	1.027230	0.494928	-0.000080
H51	H	1.143837	0.434453	-0.079806
C52	C	1.707929	-0.075197	0.000008
C53	C	1.728637	-0.206982	-0.000005
H54	H	1.786665	-0.040233	0.000016
H55	H	1.661549	-0.047986	-0.079695
H56	H	1.661543	-0.047999	0.079727
H57	H	1.775014	-0.234181	-0.079730
H58	H	1.775035	-0.234205	0.079706
C59	C	1.889965	-0.060531	0.576663
C60	C	1.797793	0.031593	0.624653
H61	H	1.970390	-0.042593	0.609215
H62	H	1.872072	-0.140956	0.609189
H63	H	1.889954	-0.060503	0.479034
H64	H	1.797797	0.031560	0.722282
H65	H	1.815691	0.112039	0.592134
H66	H	1.126335	-0.099527	0.098717
C67	C	1.146259	-0.221198	-0.000006
C68	C	1.248827	-0.148297	-0.000007
H69	H	1.069885	-0.167257	-0.000004
H70	H	1.149662	-0.272881	-0.079709
H71	H	1.149662	-0.272882	0.079714
H72	H	1.245430	-0.096619	-0.079732
H73	H	1.245423	-0.096592	0.079704
C74	C	1.003600	-0.153620	-0.220699
C75	C	0.901563	-0.119882	-0.133213
H76	H	0.973895	-0.188662	-0.302938
H77	H	1.044905	-0.080946	-0.242120
H78	H	1.061189	-0.214152	-0.176376
H79	H	0.843978	-0.059343	-0.177533
H80	H	0.860238	-0.192565	-0.111794
H81	H	1.758699	0.033153	0.383409
H82	H	0.920302	-0.114727	0.095671
H83	H	1.637000	-0.088678	0.616537
H84	H	1.689273	-0.459357	-0.000024
H85	H	1.274579	-0.408640	-0.000000
C86	C	1.233043	0.436692	0.442529
C87	C	1.307353	0.362443	0.348992
H88	H	1.175590	0.494108	0.393714
H89	H	1.187428	0.383981	0.498642
H90	H	1.285718	0.482359	0.498651
H91	H	1.254679	0.316770	0.292876
H92	H	1.352972	0.415161	0.292856
C93	C	1.520013	-0.154173	0.423286
C94	C	1.638553	-0.127746	0.375311
H95	H	1.502129	-0.234614	0.390729
H96	H	1.520025	-0.154173	0.520901
H97	H	1.457488	-0.091662	0.390741
H98	H	1.701079	-0.190252	0.407864
H99	H	1.638551	-0.127756	0.277675
H100	H	1.331484	0.338315	0.630530
