data_functionalizedCrystal
_audit_creation_method	'MofGen! by Chris Wilmer'
_symmetry_space_group_name_H-M	'P1'
_symmetry_Int_Tables_number	1
_symmetry_cell_setting	triclinic
loop_
_symmetry_equiv_pos_as_xyz
  x,y,z
_cell_length_a	31.640172
_cell_length_b	14.560438
_cell_length_c	31.640172
_cell_angle_alpha	60.000394
_cell_angle_beta	89.999972
_cell_angle_gamma	59.993358
loop_
_atom_site_label
_atom_site_type_symbol
_atom_site_fract_x
_atom_site_fract_y
_atom_site_fract_z
Zr1	Zr	0.407170	1.005197	-0.055475
O2	O	0.339672	1.196828	-0.122959
O3	O	0.427862	0.813587	-0.034788
O4	O	0.427849	1.005208	-0.122965
O5	O	0.339694	1.005191	0.034773
O6	O	0.497406	1.005192	-0.122967
O7	O	0.339684	1.005207	-0.034783
O8	O	0.497428	0.662417	0.034764
O9	O	0.339672	1.347966	-0.122958
O10	O	0.488596	0.892379	-0.025966
O11	O	0.436694	0.892379	0.025945
O12	O	0.436680	1.117988	-0.077872
O13	O	0.384778	1.117987	-0.025960
Zr14	Zr	0.518120	1.005146	0.055455
Zr15	Zr	0.518104	1.005172	-0.055479
Zr16	Zr	0.407186	1.005171	0.055459
Zr17	Zr	0.407170	1.246244	-0.055473
Zr18	Zr	0.518120	0.764099	0.055453
O19	O	0.497429	1.196756	0.034769
O20	O	0.497406	1.196793	-0.122966
O21	O	0.339694	1.196792	0.034775
O22	O	0.585619	0.813515	0.122940
O23	O	0.585596	0.813551	-0.034795
O24	O	0.427885	0.813550	0.122946
O25	O	0.585596	1.005152	-0.034793
O26	O	0.497441	1.005135	0.122945
O27	O	0.427885	1.005151	0.122948
O28	O	0.585606	1.005136	0.034763
O29	O	0.427850	1.347946	-0.122962
O30	O	0.497441	0.662397	0.122942
O31	O	0.585619	0.662377	0.122938
O32	O	0.585606	0.662397	0.034760
O33	O	0.339685	1.347946	-0.034780
O34	O	0.427862	1.347926	-0.034784
O35	O	0.488611	0.892355	0.077852
O36	O	0.540512	0.892356	0.025941
O37	O	0.488596	1.117964	-0.025965
O38	O	0.436695	1.117964	0.025947
C39	C	0.462645	0.703658	-0.000013
C40	C	0.462645	0.601327	-0.000013
C41	C	0.323883	1.005202	-0.000004
C42	C	0.276789	1.005213	-0.000002
C43	C	0.489736	0.553251	-0.027111
C44	C	0.489738	0.457091	-0.027106
C45	C	0.435554	0.457096	0.027094
C46	C	0.435555	0.553247	0.027092
C47	C	0.546917	0.272157	-0.035032
C48	C	0.574003	0.224094	-0.062138
C49	C	0.573285	0.308833	-0.110696
C50	C	0.545473	0.441657	-0.132160
C51	C	0.518384	0.489724	-0.105057
C52	C	0.519112	0.404964	-0.056490
C53	C	0.378374	0.738191	0.035013
C54	C	0.351281	0.786266	0.062112
C55	C	0.351993	0.701534	0.110671
C56	C	0.379796	0.568721	0.132131
C57	C	0.406889	0.520646	0.105031
C58	C	0.406177	0.605383	0.056474
C59	C	-0.015222	1.005157	-0.038328
C60	C	-0.192208	1.005141	-0.038332
O61	O	-0.215086	1.005091	-0.070908
N62	N	-0.214334	1.005134	-0.000013
C63	C	-0.192207	1.005124	0.038311
O64	O	-0.215084	1.005105	0.070906
C65	C	-0.015220	1.005131	0.038317
C66	C	0.006900	1.005150	-0.000008
C67	C	0.006898	1.005175	-0.076649
C68	C	0.051141	1.005186	-0.076649
C69	C	0.073263	1.005179	-0.038329
C70	C	0.051143	1.005161	-0.000008
C71	C	0.006908	1.005111	0.076643
C72	C	0.051158	1.005109	0.076641
C73	C	0.073278	1.005129	0.038317
C74	C	0.117507	1.005166	0.038312
N75	N	0.139632	1.005172	-0.000006
C76	C	0.117510	1.005179	-0.038327
C77	C	-0.285129	1.005123	0.038305
C78	C	-0.329376	1.005123	0.038303
C79	C	-0.329374	1.005138	-0.038339
C80	C	-0.285128	1.005146	-0.038339
C81	C	-0.263004	1.005129	-0.000014
C82	C	0.210422	1.005203	-0.038325
C83	C	0.254667	1.005220	-0.038323
C84	C	0.254662	1.005198	0.038321
C85	C	0.210419	1.005189	0.038318
C86	C	0.188301	1.005187	-0.000008
O87	O	0.140415	1.005201	0.070875
O88	O	0.140401	1.005169	-0.070911
C89	C	-0.059464	1.005146	-0.038328
C90	C	-0.081584	1.005128	-0.000007
C91	C	-0.059462	1.005121	0.038313
C92	C	-0.125832	1.005128	-0.000009
C93	C	-0.147954	1.005135	-0.038329
C94	C	-0.125829	1.005141	-0.076648
C95	C	-0.081586	1.005153	-0.076648
C96	C	-0.081587	1.005115	0.076632
C97	C	-0.125830	1.005105	0.076629
C98	C	-0.147952	1.005112	0.038308
C99	C	0.601407	1.005140	-0.000015
C100	C	0.648501	1.005130	-0.000017
C101	C	0.462625	1.005204	-0.138772
C102	C	0.462618	1.005214	-0.185866
C103	C	0.462645	1.306685	-0.000007
C104	C	0.462646	1.409016	-0.000006
C105	C	0.500974	1.005140	-0.477873
C106	C	0.500985	1.005122	-0.654859
O107	O	0.533588	1.005057	-0.677733
N108	N	0.462666	1.005134	-0.676989
C109	C	0.424342	1.005140	-0.654866
O110	O	0.391752	1.005136	-0.677746
C111	C	0.424333	1.005148	-0.477879
C112	C	0.462653	1.005150	-0.455755
C113	C	0.539290	1.005140	-0.455749
C114	C	0.539286	1.005152	-0.411507
C115	C	0.500964	1.005162	-0.389389
C116	C	0.462648	1.005162	-0.411513
C117	C	0.386013	1.005146	-0.455755
C118	C	0.386015	1.005144	-0.411505
C119	C	0.424334	1.005147	-0.389381
C120	C	0.424322	1.005184	-0.345152
N121	N	0.462641	1.005173	-0.323023
C122	C	0.500963	1.005162	-0.345141
C123	C	0.424349	1.005139	-0.747788
C124	C	0.424351	1.005139	-0.792035
C125	C	0.500995	1.005119	-0.792025
C126	C	0.500990	1.005128	-0.747779
C127	C	0.462669	1.005128	-0.725659
C128	C	0.500949	1.005187	-0.252230
C129	C	0.500940	1.005204	-0.207985
C130	C	0.424298	1.005217	-0.207997
C131	C	0.424305	1.005207	-0.252240
C132	C	0.462636	1.005188	-0.274354
O133	O	0.391739	1.005234	-0.322248
O134	O	0.533554	1.005137	-0.322247
C135	C	0.500979	1.005128	-0.522115
C136	C	0.462662	1.005128	-0.544240
C137	C	0.424341	1.005138	-0.522121
C138	C	0.462664	1.005128	-0.588487
C139	C	0.500985	1.005117	-0.610605
C140	C	0.539305	1.005106	-0.588476
C141	C	0.539300	1.005118	-0.544234
C142	C	0.386021	1.005149	-0.544250
C143	C	0.386029	1.005140	-0.588493
C144	C	0.424350	1.005129	-0.610611
C145	C	0.462665	1.005139	0.138752
C146	C	0.462672	1.005129	0.185847
C147	C	0.601407	0.703627	-0.000018
C148	C	0.648501	0.601285	-0.000021
C149	C	0.462665	0.703626	0.138749
C150	C	0.462672	0.601284	0.185843
C151	C	0.601427	0.703595	0.138744
C152	C	0.648528	0.601242	0.185836
C153	C	0.323864	1.306748	-0.138764
C154	C	0.276763	1.409101	-0.185855
C155	C	0.323884	1.306716	-0.000002
C156	C	0.276789	1.409058	0.000001
C157	C	0.462625	1.306717	-0.138769
C158	C	0.462619	1.409059	-0.185863
C159	C	0.643517	0.553237	-0.027122
C160	C	0.687763	0.457089	-0.027135
C161	C	0.736992	0.408985	-0.000043
C162	C	0.741975	0.457043	0.027058
C163	C	0.697730	0.553196	0.027068
C164	C	0.489775	0.553211	0.235058
C165	C	0.489779	0.457063	0.279312
C166	C	0.462683	0.408984	0.274349
C167	C	0.435577	0.457066	0.225129
C168	C	0.435570	0.553219	0.180876
C169	C	0.697744	0.553177	0.180853
C170	C	0.742005	0.457019	0.225097
C171	C	0.737048	0.408922	0.274322
C172	C	0.687827	0.456997	0.279303
C173	C	0.643567	0.553160	0.235060
C174	C	0.227547	1.457178	-0.180873
C175	C	0.183286	1.553365	-0.225117
C176	C	0.188242	1.601467	-0.274342
C177	C	0.237463	1.553386	-0.279323
C178	C	0.281723	1.457207	-0.235080
C179	C	0.281773	1.457116	0.027097
C180	C	0.237527	1.553290	0.027098
C181	C	0.188298	1.601397	0.000005
C182	C	0.183315	1.553335	-0.027094
C183	C	0.227561	1.457169	-0.027098
C184	C	0.489720	1.457108	-0.180884
C185	C	0.489724	1.553256	-0.225129
C186	C	0.462623	1.601361	-0.274353
C187	C	0.435521	1.553302	-0.279331
C188	C	0.435520	1.457149	-0.235086
H189	H	0.511795	0.592393	-0.049181
H190	H	0.701789	0.592323	0.140776
Br191	Br	0.526505	1.618463	-0.218360
Br192	Br	0.180395	1.005188	0.090325
H193	H	0.462627	1.679655	-0.310376
H194	H	-0.011109	1.005176	-0.107854
Br195	Br	0.526555	0.618433	0.241808
H196	H	0.511789	1.417956	-0.140807
H197	H	0.603436	0.592402	-0.049189
Br198	Br	0.462698	0.278490	0.334413
H199	H	0.413456	1.592484	-0.319415
Br200	Br	0.808798	0.391792	0.218324
H201	H	0.328638	0.894416	0.044633
H202	H	0.223501	1.418019	-0.140795
H203	H	0.683799	0.417823	0.319389
H204	H	0.570499	1.005127	-0.473753
H205	H	0.596648	0.115942	-0.044657
H206	H	0.603495	0.592282	0.239124
Br207	Br	0.398732	1.391962	-0.241853
H208	H	0.683696	0.417972	-0.049204
Br209	Br	0.444621	0.340397	0.134156
H210	H	0.595338	0.269692	-0.132766
Br211	Br	0.704503	0.618386	0.063855
Br212	Br	0.377412	0.853193	-0.030888
H213	H	0.547511	0.203143	0.004512
H214	H	0.413498	0.417939	0.049162
Br215	Br	0.372293	1.005230	-0.282270
Br216	Br	0.797035	0.278491	-0.000062
H217	H	0.380373	0.499727	0.171670
Br218	Br	0.480647	0.669967	-0.134178
H219	H	0.511854	0.417925	0.319385
H220	H	0.570490	1.005148	-0.393495
H221	H	0.143212	1.592497	-0.221051
H222	H	0.782064	0.417863	0.049115
H223	H	0.413516	0.417906	0.221096
Br224	Br	0.398785	0.618444	0.114086
H225	H	0.152199	1.679782	-0.310363
Br226	Br	0.315215	0.766785	0.147444
Br227	Br	0.797121	0.278414	0.334362
H228	H	0.393096	1.005232	-0.189983
H229	H	0.393143	1.005158	-0.810050
Br230	Br	0.244181	1.618679	-0.346133
H231	H	0.321796	1.418063	-0.239143
H232	H	0.321854	1.417955	0.049163
Br233	Br	0.284683	1.005254	-0.090339
Br234	Br	0.244302	1.618494	0.063880
H235	H	0.152275	1.679702	0.000012
H236	H	0.143227	1.592519	-0.049153
Br237	Br	0.220787	1.391953	-0.063872
H238	H	0.192419	1.005199	-0.069532
Br239	Br	0.081158	1.005203	-0.128660
H240	H	0.544886	0.510651	-0.171704
H241	H	-0.267120	1.005161	-0.069546
H242	H	-0.347394	1.005146	-0.069542
H243	H	-0.267119	1.005109	0.069515
Br244	Br	-0.359399	1.005129	0.090309
H245	H	0.069170	1.005091	0.107852
Br246	Br	-0.023103	1.005084	0.128656
H247	H	0.272679	1.005198	0.069520
H248	H	-0.063579	1.005107	0.107838
H249	H	-0.063580	1.005168	-0.107855
Br250	Br	-0.155862	1.005160	-0.128656
H251	H	-0.143840	1.005100	0.107837
Br252	Br	0.552946	1.005214	-0.177963
H253	H	0.532162	1.005169	-0.270229
H254	H	0.532193	1.005128	-0.729768
Br255	Br	0.372336	1.005142	-0.717774
H256	H	0.354810	1.005143	-0.473762
Br257	Br	0.553001	1.005105	-0.822051
Br258	Br	0.591307	1.005122	-0.514215
Br259	Br	0.334005	1.005137	-0.381486
Br260	Br	0.334017	1.005148	-0.618516
Br261	Br	0.591310	1.005101	-0.618504
H262	H	0.354816	1.005156	-0.526245
