data_functionalizedCrystal
_audit_creation_method	'MofGen! by Chris Wilmer'
_symmetry_space_group_name_H-M	'P1'
_symmetry_Int_Tables_number	1
_symmetry_cell_setting	triclinic
loop_
_symmetry_equiv_pos_as_xyz
  x,y,z
_cell_length_a	12.645331
_cell_length_b	12.759400
_cell_length_c	12.759393
_cell_angle_alpha	90.032166
_cell_angle_beta	89.979239
_cell_angle_gamma	89.979361
loop_
_atom_site_label
_atom_site_type_symbol
_atom_site_fract_x
_atom_site_fract_y
_atom_site_fract_z
Zn1	Zn	1.620682	0.418231	-0.594073
Zn2	Zn	2.120682	0.918231	-0.094073
Zn3	Zn	1.620557	0.593950	-0.418392
Zn4	Zn	2.120557	1.093950	0.081608
Zn5	Zn	1.443403	0.418283	-0.418402
Zn6	Zn	1.943403	0.918283	0.081598
Zn7	Zn	1.443366	0.593865	-0.594023
Zn8	Zn	1.943366	1.093865	-0.094023
O9	O	1.532002	0.506082	-0.506223
O10	O	2.032002	1.006082	-0.006223
O11	O	1.769013	0.441554	-0.570785
O12	O	2.269013	0.941554	-0.070785
O13	O	1.597020	0.570705	-0.271372
O14	O	2.097020	1.070705	0.228628
O15	O	1.466986	0.271255	-0.441731
O16	O	1.966986	0.771255	0.058269
O17	O	1.768921	0.570655	-0.441713
O18	O	2.268921	1.070655	0.058287
O19	O	1.597233	0.271217	-0.570795
O20	O	2.097233	0.771217	-0.070795
O21	O	1.466866	0.441643	-0.271380
O22	O	1.966866	0.941643	0.228620
O23	O	1.295050	0.441560	-0.441682
O24	O	1.795050	0.941560	0.058318
O25	O	1.466924	0.570510	-0.741051
O26	O	1.966924	1.070510	-0.241051
O27	O	1.295024	0.570560	-0.570710
O28	O	1.795024	1.070560	-0.070710
O29	O	1.597198	0.441472	-0.741088
O30	O	2.097198	0.941472	-0.241088
O31	O	1.596985	0.740960	-0.441665
O32	O	2.096985	1.240960	0.058335
O33	O	1.466803	0.740898	-0.570700
O34	O	1.966803	1.240898	-0.070700
C35	C	1.256572	0.506057	-0.506192
C36	C	1.756572	1.006057	-0.006192
C37	C	1.138742	0.506072	-0.506204
C38	C	1.638742	1.006072	-0.006204
C39	C	0.971160	0.424545	-0.425481
C40	C	1.471160	0.924545	0.074519
C41	C	1.093719	0.424756	-0.425125
C42	C	1.593719	0.924756	0.074875
C43	C	1.094215	0.616750	-0.475959
C44	C	1.594215	1.116750	0.024041
C45	C	0.971617	0.616305	-0.475408
C46	C	1.471617	1.116305	0.024592
C47	C	0.971591	0.477974	-0.617485
C48	C	1.471591	0.977974	-0.117485
C49	C	1.094197	0.475501	-0.616867
C50	C	1.594197	0.975501	-0.116867
C51	C	1.531906	0.779050	-0.506199
C52	C	2.031906	1.279050	-0.006199
C53	C	1.531961	0.895826	-0.506224
C54	C	2.031961	1.395826	-0.006224
C55	C	1.599738	0.950589	-0.573481
C56	C	2.099738	1.450589	-0.073481
C57	C	1.599771	1.060313	-0.573504
C58	C	2.099771	1.560313	-0.073504
C59	C	1.464247	1.060502	-0.439003
C60	C	1.964247	1.560502	0.060997
C61	C	1.464209	0.950780	-0.438986
C62	C	1.964209	1.450780	0.061014
C63	C	1.667490	0.895635	-0.640719
C64	C	2.167490	1.395635	-0.140719
C65	C	1.735274	0.950397	-0.707981
C66	C	2.235274	1.450397	-0.207981
C67	C	1.735307	1.060121	-0.708004
C68	C	2.235307	1.560121	-0.208004
C69	C	1.667556	1.115083	-0.640765
C70	C	2.167556	1.615083	-0.140765
C71	C	1.808507	0.506108	-0.506254
C72	C	2.308507	1.006108	-0.006254
C73	C	1.926337	0.506119	-0.506267
C74	C	2.426337	1.006119	-0.006267
C75	C	1.532071	0.505975	-0.780256
C76	C	2.032071	1.005975	-0.280256
C77	C	1.532100	0.505930	-0.897033
C78	C	2.032100	1.005930	-0.397033
C79	C	1.532090	1.232049	-0.506263
C80	C	2.032090	1.732049	-0.006263
C81	C	1.532032	1.115272	-0.506263
C82	C	2.032032	1.615272	-0.006263
C83	C	1.464357	0.438715	-0.951905
C84	C	1.964357	0.938715	-0.451905
C85	C	1.464389	0.438683	-1.061629
C86	C	1.964389	0.938683	-0.561629
C87	C	1.599916	0.573085	-1.061600
C88	C	2.099916	1.073085	-0.561600
C89	C	1.599878	0.573121	-0.951877
C90	C	2.099878	1.073121	-0.451877
C91	C	1.396579	0.371523	-0.897060
C92	C	1.896579	0.871523	-0.397060
C93	C	1.328832	0.304302	-0.951932
C94	C	1.828832	0.804302	-0.451932
C95	C	1.328864	0.304271	-1.061657
C96	C	1.828864	0.804271	-0.561657
C97	C	1.396643	0.371461	-1.116509
C98	C	1.896643	0.871461	-0.616509
C99	C	1.531994	0.506113	-0.233255
C100	C	2.031994	1.006113	0.266745
C101	C	1.532170	0.505863	-0.116479
C102	C	2.032170	1.005863	0.383521
H103	H	1.122999	0.443359	-0.342708
H104	H	1.622999	0.943359	0.157292
H105	H	1.667473	0.806292	-0.640706
H106	H	2.167473	1.306292	-0.140706
H107	H	1.273642	0.249604	-0.907265
H108	H	1.773642	0.749604	-0.407265
Cl109	Cl	1.141539	0.654235	-0.351773
Cl110	Cl	1.641539	1.154235	0.148227
Cl111	Cl	0.923516	0.452927	-0.298985
Cl112	Cl	1.423516	0.952927	0.201015
H113	H	1.123825	0.342684	-0.444083
H114	H	1.623825	0.842684	0.055917
Cl115	Cl	1.379006	0.881931	-0.354428
Cl116	Cl	1.879006	1.381931	0.145572
H117	H	1.790491	1.104706	-0.762780
H118	H	2.290491	1.604706	-0.262780
H119	H	1.667576	1.204428	-0.640801
H120	H	2.167576	1.704428	-0.140801
H121	H	1.273694	0.249543	-1.106330
H122	H	1.773694	0.749543	-0.606330
Cl123	Cl	0.927387	0.653149	-0.349877
Cl124	Cl	1.427387	1.153149	0.150123
Cl125	Cl	1.396677	0.371423	-1.254449
Cl126	Cl	1.896677	0.871423	-0.754449
H127	H	1.790428	0.905642	-0.762732
H128	H	2.290428	1.405642	-0.262732
H129	H	1.655102	0.627786	-1.106269
H130	H	2.155102	1.127786	-0.606269
H131	H	1.409088	1.105261	-0.384259
H132	H	1.909088	1.605261	0.115741
Cl133	Cl	1.396539	0.371554	-0.759122
Cl134	Cl	1.896539	0.871554	-0.259122
Cl135	Cl	1.685037	0.657627	-0.882890
Cl136	Cl	2.185037	1.157627	-0.382890
Cl137	Cl	1.139157	0.349763	-0.652095
Cl138	Cl	1.639157	0.849763	-0.152095
H139	H	0.941701	0.342226	-0.444235
H140	H	1.441701	0.842226	0.055765
H141	H	0.940699	0.398675	-0.644992
H142	H	1.440699	0.898675	-0.144992
Cl143	Cl	0.925833	0.713325	-0.562282
Cl144	Cl	1.425833	1.213325	-0.062282
H145	H	1.124849	0.530581	-0.680279
H146	H	1.624849	1.030581	-0.180279
H147	H	0.942606	0.537389	-0.677678
H148	H	1.442606	1.037389	-0.177678
Cl149	Cl	1.139225	0.713100	-0.563959
Cl150	Cl	1.639225	1.213100	-0.063959
