data_functionalizedCrystal
_audit_creation_method	'MofGen! by Chris Wilmer'
_symmetry_space_group_name_H-M	'P1'
_symmetry_Int_Tables_number	1
_symmetry_cell_setting	triclinic
loop_
_symmetry_equiv_pos_as_xyz
  x,y,z
_cell_length_a	6.817900
_cell_length_b	16.255699
_cell_length_c	19.453114
_cell_angle_alpha	95.850056
_cell_angle_beta	101.709288
_cell_angle_gamma	103.489404
loop_
_atom_site_label
_atom_site_type_symbol
_atom_site_fract_x
_atom_site_fract_y
_atom_site_fract_z
V1	V	-4.006858	-0.117972	-0.219234
O2	O	-3.994740	0.004762	-0.214821
O3	O	-3.958520	-0.233046	-0.217965
O4	O	-3.949772	-0.116555	-0.314744
O5	O	-4.003549	-0.112535	-0.117372
V6	V	-4.491603	-0.103244	-0.207022
O7	O	-4.265435	-0.150277	-0.246021
O8	O	-4.683223	-0.070938	-0.180235
O9	O	-4.316734	0.011830	-0.208291
O10	O	-4.621117	-0.225978	-0.211435
O11	O	-4.612309	-0.108681	-0.308884
O12	O	-4.325482	-0.104661	-0.111512
C13	C	-3.803817	-0.261086	-0.214566
C14	C	-3.845525	-0.355163	-0.214165
C15	C	-3.756521	-0.577971	-0.209573
C16	C	-3.845302	-0.625362	-0.152973
C17	C	-3.921988	-0.527414	-0.213465
C18	C	-3.907546	-0.647653	-0.269359
C19	C	-3.995836	-0.693801	-0.212792
C20	C	-4.010195	-0.573557	-0.156822
C21	C	-4.072438	-0.595852	-0.273260
C22	C	-4.161339	-0.643219	-0.216648
C23	C	-3.879440	-0.431563	-0.213852
C24	C	-4.038396	-0.789650	-0.212400
C25	C	-3.792657	-0.112489	-0.338016
C26	C	-3.827267	-0.112092	-0.416098
C27	C	-4.025311	-0.116153	-0.456363
C28	C	-4.057832	-0.115781	-0.529729
C29	C	-3.892305	-0.111363	-0.562829
C30	C	-3.694230	-0.107296	-0.522554
C31	C	-3.661712	-0.107661	-0.449188
N32	N	-3.832586	-0.156056	-0.681707
N33	N	-3.863491	-0.155712	-0.751402
C34	C	-3.990271	-0.110263	-0.783875
N35	N	-4.085014	-0.065183	-0.744023
N36	N	-4.054114	-0.065531	-0.674322
C37	C	-3.927546	-0.110967	-0.642381
C38	C	-4.223589	-0.113919	-0.903692
C39	C	-4.256100	-0.113541	-0.977059
C40	C	-3.892497	-0.105065	-0.969883
C41	C	-3.859987	-0.105435	-0.896517
C42	C	-4.025543	-0.109866	-0.863427
C43	C	-4.134779	0.039866	-0.211688
C44	C	-4.072310	0.133942	-0.212093
C45	C	-4.145939	-0.108729	-0.088236
C46	C	-4.090568	-0.109122	-0.010154
H47	H	-4.160122	-0.119758	-0.429425
H48	H	-4.219111	-0.119092	-0.562520
C49	C	-3.582646	-0.102988	-0.631835
C50	C	-3.512279	-0.102444	-0.558935
H51	H	-3.470310	-0.099995	-0.654294
H52	H	-3.637521	-0.055067	-0.638818
H53	H	-3.687808	-0.154280	-0.651836
H54	H	-3.407127	-0.051149	-0.538933
H55	H	-3.457373	-0.150370	-0.551948
C56	C	-4.412650	-0.612176	-0.346225
C57	C	-4.201374	-0.577731	-0.341922
H58	H	-4.492237	-0.600995	-0.388621
H59	H	-4.449673	-0.586620	-0.306303
H60	H	-4.439327	-0.672279	-0.346681
H61	H	-4.174694	-0.517627	-0.341460
H62	H	-4.164338	-0.603285	-0.381855
C63	C	-4.143303	-0.592154	-0.052647
C64	C	-4.068171	-0.530153	-0.092548
H65	H	-4.179099	-0.565355	-0.012970
H66	H	-4.039160	-0.620264	-0.036447
H67	H	-4.262628	-0.632883	-0.081463
H68	H	-3.948836	-0.489427	-0.063733
H69	H	-4.172322	-0.502029	-0.108747
C70	C	-3.378890	-0.173693	-0.430119
C71	C	-3.444000	-0.103216	-0.404938
H72	H	-3.244485	-0.170954	-0.402801
H73	H	-3.374597	-0.172830	-0.478544
H74	H	-3.473418	-0.225092	-0.426077
H75	H	-3.349479	-0.051816	-0.408985
H76	H	-3.448278	-0.104071	-0.356501
C77	C	-4.025759	-0.750725	-0.376327
C78	C	-3.849482	-0.691191	-0.333554
H79	H	-3.989893	-0.777603	-0.415953
H80	H	-4.128940	-0.722182	-0.392597
H81	H	-4.077971	-0.792773	-0.349441
H82	H	-3.797278	-0.649139	-0.360439
H83	H	-3.746265	-0.719734	-0.317285
H84	H	-3.757717	-0.101461	-0.996832
C85	C	-4.430730	-0.769973	-0.220847
C86	C	-4.392940	-0.681496	-0.220665
H87	H	-4.573710	-0.793604	-0.223328
H88	H	-4.349851	-0.780643	-0.178500
H89	H	-4.394290	-0.795677	-0.260847
H90	H	-4.429366	-0.655791	-0.180662
H91	H	-4.473847	-0.670820	-0.263017
H92	H	-3.698724	-0.102137	-0.863734
C93	C	-3.504897	-0.610387	-0.080692
C94	C	-3.716281	-0.643467	-0.084316
H95	H	-3.425241	-0.621568	-0.038310
H96	H	-3.476305	-0.550326	-0.080640
H97	H	-3.469783	-0.636844	-0.120666
H98	H	-3.751398	-0.617005	-0.044344
H99	H	-3.744885	-0.703540	-0.084361
H100	H	-4.358393	-0.117524	-0.876748
C101	C	-4.613071	-0.193788	-1.015367
C102	C	-4.473807	-0.118003	-1.021321
H103	H	-4.747472	-0.196543	-1.042697
H104	H	-4.617389	-0.194637	-0.966942
H105	H	-4.568813	-0.241583	-1.032436
H106	H	-4.518057	-0.070207	-1.004247
H107	H	-4.469496	-0.117146	-1.069756
H108	H	-3.584971	-0.549455	-0.206513
