data_functionalizedCrystal
_audit_creation_method	'MofGen! by Chris Wilmer'
_symmetry_space_group_name_H-M	'P1'
_symmetry_Int_Tables_number	1
_symmetry_cell_setting	triclinic
loop_
_symmetry_equiv_pos_as_xyz
  x,y,z
_cell_length_a	12.837943
_cell_length_b	16.992695
_cell_length_c	15.455313
_cell_angle_alpha	87.152573
_cell_angle_beta	92.962828
_cell_angle_gamma	92.748581
loop_
_atom_site_label
_atom_site_type_symbol
_atom_site_fract_x
_atom_site_fract_y
_atom_site_fract_z
O1	O	-1.396731	-0.201999	-0.072117
O2	O	-0.896731	0.298001	0.427883
O3	O	-1.094086	-0.191867	-0.072122
O4	O	-0.594086	0.308133	0.427878
O5	O	-1.244195	-0.082700	-0.072113
O6	O	-0.744195	0.417300	0.427887
O7	O	-1.246622	-0.311166	-0.072127
O8	O	-0.746622	0.188834	0.427873
O9	O	-1.235608	-0.088914	0.072149
O10	O	-0.735608	0.411086	0.572149
O11	O	-1.085500	-0.198081	0.072139
O12	O	-0.585500	0.301919	0.572139
O13	O	-1.388144	-0.208213	0.072144
O14	O	-0.888144	0.291787	0.572144
Cu15	Cu	-1.236038	-0.203714	0.085314
Cu16	Cu	-0.736038	0.296286	0.585314
Cu17	Cu	-1.246192	-0.196365	-0.085292
Cu18	Cu	-0.746192	0.303635	0.414708
O19	O	-1.238036	-0.317380	0.072135
O20	O	-0.738036	0.182620	0.572135
C21	C	-1.050889	-0.191551	0.000008
C22	C	-0.550889	0.308449	0.500008
C23	C	-0.934966	-0.181343	0.000006
C24	C	-0.434966	0.318657	0.500006
C25	C	-1.431342	-0.208528	0.000012
C26	C	-0.931342	0.291472	0.500012
C27	C	-1.547265	-0.218737	0.000008
C28	C	-1.047265	0.281263	0.500008
C29	C	-0.704174	-0.304064	0.000011
C30	C	-0.204174	0.195936	0.500011
C31	C	-0.595254	-0.294477	0.000010
C32	C	-0.095254	0.205523	0.500010
C33	C	-0.608204	-0.152580	0.000009
C34	C	-0.108204	0.347420	0.500009
C35	C	-0.717124	-0.162168	0.000010
C36	C	-0.217124	0.337832	0.500010
C37	C	-0.765105	-0.237912	0.000010
C38	C	-0.265105	0.262088	0.500010
C39	C	-0.874027	-0.247499	0.000005
C40	C	-0.374027	0.252501	0.500005
C41	C	-0.886974	-0.105603	0.000010
C42	C	-0.386974	0.394397	0.500010
C43	C	-0.778054	-0.096016	0.000009
C44	C	-0.278054	0.403984	0.500009
C45	C	-1.236780	-0.056361	0.000018
C46	C	-0.736780	0.443639	0.500018
C47	C	-1.227467	0.031379	0.000017
C48	C	-0.727467	0.531379	0.500017
C49	C	-1.245450	-0.343718	0.000002
C50	C	-0.745450	0.156282	0.500002
C51	C	-1.254764	-0.431458	-0.000003
C52	C	-0.754764	0.068542	0.499997
N53	N	-1.228904	-0.208883	0.205309
N54	N	-0.728904	0.291117	0.705309
C55	C	-1.317330	0.074905	0.000020
C56	C	-0.817330	0.574905	0.500020
C57	C	-1.308573	0.157346	0.000011
C58	C	-0.808573	0.657346	0.500011
C59	C	-1.209952	0.196260	0.000007
C60	C	-0.709952	0.696260	0.500007
C61	C	-1.120082	0.152728	0.000002
C62	C	-0.620082	0.652728	0.500002
C63	C	-1.128840	0.070289	0.000004
C64	C	-0.628840	0.570289	0.500004
C65	C	-1.173653	0.442570	-0.000006
C66	C	-0.673653	0.942570	0.499994
C67	C	-1.164901	0.525016	-0.000005
C68	C	-0.664901	1.025016	0.499995
C69	C	-1.353393	0.529629	0.000002
C70	C	-0.853393	1.029629	0.500002
C71	C	-1.362142	0.447187	0.000010
C72	C	-0.862142	0.947187	0.500010
C73	C	-1.272273	0.403663	0.000000
C74	C	-0.772273	0.903663	0.500000
N75	N	-1.200998	0.280528	0.000001
N76	N	-0.700998	0.780528	0.500001
N77	N	-1.281228	0.319396	-0.000000
N78	N	-0.781228	0.819396	0.500000
N79	N	-1.253334	-0.191191	-0.205287
N80	N	-0.753334	0.308809	0.294713
C81	C	-1.292700	-0.162526	0.250707
C82	C	-0.792700	0.337474	0.750707
C83	C	-1.287315	-0.166443	0.341515
C84	C	-0.787315	0.333557	0.841515
C85	C	-1.218138	-0.216722	0.386922
C86	C	-0.718138	0.283278	0.886922
C87	C	-1.154334	-0.263081	0.341518
C88	C	-0.654334	0.236919	0.841518
C89	C	-1.159715	-0.259159	0.250712
C90	C	-0.659715	0.240841	0.750712
C91	C	-1.194911	-0.233628	0.658502
C92	C	-0.694911	0.266372	1.158502
C93	C	-1.189538	-0.237548	0.749315
C94	C	-0.689538	0.262452	1.249315
C95	C	-1.322518	-0.140908	0.749305
C96	C	-0.822518	0.359092	1.249305
C97	C	-1.327897	-0.136995	0.658497
C98	C	-0.827897	0.363005	1.158497
C99	C	-1.264089	-0.183351	0.613101
C100	C	-0.764089	0.316649	1.113101
N101	N	-1.212634	-0.220729	0.479742
N102	N	-0.712634	0.279271	0.979742
N103	N	-1.269589	-0.179339	0.520283
N104	N	-0.769589	0.320661	1.020283
H105	H	-0.913092	-0.309175	0.000006
H106	H	-0.413092	0.190825	0.500006
H107	H	-0.569114	-0.090915	0.000081
H108	H	-0.069114	0.409085	0.500081
H109	H	-0.738972	-0.034347	0.000020
H110	H	-0.238972	0.465653	0.500020
H111	H	-1.442450	0.415510	0.000014
H112	H	-0.942450	0.915510	0.500014
H113	H	-1.397637	0.043228	0.000029
H114	H	-0.897637	0.543228	0.500029
H115	H	-1.426559	0.565075	0.000009
H116	H	-0.926559	1.065075	0.500009
H117	H	-1.084587	0.556696	0.000005
H118	H	-0.584587	1.056696	0.500005
H119	H	-0.936597	-0.051737	0.000003
H120	H	-0.436597	0.448263	0.500003
N121	N	-1.090904	-0.309163	0.201750
N122	N	-0.590904	0.190837	0.701750
H123	H	-1.135884	-0.345465	0.164058
H124	H	-0.635884	0.154535	0.664058
H125	H	-1.044466	-0.273860	0.164142
H126	H	-0.544466	0.226140	0.664142
H127	H	-1.381749	0.192782	0.000015
H128	H	-0.881749	0.692782	0.500015
N129	N	-1.076727	0.395632	-0.000013
N130	N	-0.576727	0.895632	0.499987
H131	H	-1.012924	0.432795	-0.000011
H132	H	-0.512924	0.932795	0.499989
H133	H	-1.073070	0.359026	0.053467
H134	H	-0.573070	0.859026	0.553467
H135	H	-1.039783	0.184418	-0.000007
H136	H	-0.539783	0.684418	0.499993
H137	H	-1.055664	0.034850	0.000002
H138	H	-0.555664	0.534850	0.500002
N139	N	-1.114917	-0.291771	0.798301
N140	N	-0.614917	0.208229	1.298301
H141	H	-1.155440	-0.331327	0.835960
H142	H	-0.655440	0.168673	1.335960
H143	H	-1.075322	-0.320490	0.755716
H144	H	-0.575322	0.179510	1.255716
H145	H	-1.374466	-0.103167	0.786275
H146	H	-0.874466	0.396833	1.286275
N147	N	-1.126088	-0.283619	0.609546
N148	N	-0.626088	0.216381	1.109546
H149	H	-1.081451	-0.316065	0.652093
H150	H	-0.581451	0.183935	1.152093
H151	H	-1.171130	-0.319875	0.571850
H152	H	-0.671130	0.180125	1.071850
N153	N	-1.367320	-0.108301	0.201735
N154	N	-0.867320	0.391699	0.701735
H155	H	-1.406916	-0.079528	0.244277
H156	H	-0.906916	0.420472	0.744277
H157	H	-1.326734	-0.068793	0.164071
H158	H	-0.826734	0.431207	0.664071
H159	H	-1.098003	-0.304016	0.378494
H160	H	-0.598003	0.195984	0.878494
N161	N	-1.356162	-0.116473	0.390481
N162	N	-0.856162	0.383527	0.890481
H163	H	-1.400819	-0.084041	0.347936
H164	H	-0.900819	0.415959	0.847936
H165	H	-1.402525	-0.151802	0.428126
H166	H	-0.902525	0.348198	0.928126
N167	N	-0.755927	-0.385756	-0.000001
N168	N	-0.255927	0.114244	0.499999
H169	H	-0.730962	-0.417411	0.053473
H170	H	-0.230962	0.082589	0.553473
H171	H	-0.834163	-0.381726	-0.000035
H172	H	-0.334163	0.118274	0.499965
N173	N	-0.529531	-0.365827	0.000045
N174	N	-0.029531	0.134173	0.500045
H175	H	-0.576458	-0.415263	0.000056
H176	H	-0.076458	0.084737	0.500056
H177	H	-0.487223	-0.362658	-0.053425
H178	H	0.012777	0.137342	0.446575
N179	N	-1.402511	-0.082766	0.609523
N180	N	-0.902511	0.417234	1.109523
H181	H	-1.442109	-0.053992	0.652063
H182	H	-0.942109	0.446008	1.152063
H183	H	-1.361923	-0.043259	0.571860
H184	H	-0.861923	0.456741	1.071860
