data_functionalizedCrystal
_audit_creation_method	'MofGen! by Chris Wilmer'
_symmetry_space_group_name_H-M	'P1'
_symmetry_Int_Tables_number	1
_symmetry_cell_setting	triclinic
loop_
_symmetry_equiv_pos_as_xyz
  x,y,z
_cell_length_a	12.827893
_cell_length_b	18.215405
_cell_length_c	18.215399
_cell_angle_alpha	90.032960
_cell_angle_beta	90.016613
_cell_angle_gamma	90.022904
loop_
_atom_site_label
_atom_site_type_symbol
_atom_site_fract_x
_atom_site_fract_y
_atom_site_fract_z
Zn1	Zn	-1.597553	0.293013	-0.416098
Zn2	Zn	-1.597433	0.416090	-0.293027
Zn3	Zn	-1.422809	0.293037	-0.293046
Zn4	Zn	-1.422751	0.416038	-0.416052
O5	O	-1.510136	0.354545	-0.354556
O6	O	-1.743773	0.309351	-0.399784
O7	O	-1.574242	0.399798	-0.190045
O8	O	-1.446064	0.190050	-0.309397
O9	O	-1.743685	0.399775	-0.309363
O10	O	-1.574448	0.190032	-0.399803
O11	O	-1.445947	0.309392	-0.190059
O12	O	-1.276565	0.309342	-0.309352
O13	O	-1.445966	0.399687	-0.519042
O14	O	-1.276523	0.399711	-0.399724
O15	O	-1.574392	0.309301	-0.519077
O16	O	-1.574186	0.519067	-0.309318
O17	O	-1.445848	0.519029	-0.399705
C18	C	-1.238627	0.354524	-0.354535
C19	C	-1.122473	0.354533	-0.354544
C20	C	-1.070695	0.399319	-0.399193
C21	C	-0.950645	0.399329	-0.399203
C22	C	-1.510026	0.545751	-0.354520
C23	C	-1.510075	0.627550	-0.354530
C24	C	-1.510186	0.354486	-0.546509
C25	C	-1.510207	0.354461	-0.628308
C26	C	-0.782707	0.354560	-0.354571
C27	C	-0.898860	0.354551	-0.354562
C28	C	-1.510276	0.162592	-0.354607
C29	C	-1.510335	0.080793	-0.354629
C30	C	-1.577057	0.815739	-0.307552
C31	C	-1.577104	0.892598	-0.307570
C32	C	-1.443350	0.892598	-0.401612
C33	C	-1.443309	0.815741	-0.401597
C34	C	-1.510161	0.777313	-0.354563
C35	C	-1.510249	0.931029	-0.354596
C36	C	-1.510299	1.014363	-0.354616
C37	C	-1.510113	0.693974	-0.354544
C38	C	-1.443460	0.307355	-0.816510
C39	C	-1.443478	0.307340	-0.893369
C40	C	-1.577079	0.401479	-0.893343
C41	C	-1.577055	0.401497	-0.816486
C42	C	-1.510247	0.354431	-0.778071
C43	C	-1.510289	0.354398	-0.931787
C44	C	-1.510309	0.354382	-1.015121
C45	C	-1.510225	0.354447	-0.694732
C46	C	-1.510147	0.354550	-0.163350
C47	C	-1.510329	0.354368	-0.081551
H48	H	-1.077926	0.316195	-0.316329
H49	H	-1.631443	0.439835	-0.785188
H50	H	-1.115243	0.437651	-0.437413
H51	H	-0.906117	0.437674	-0.437426
O52	O	-1.642097	0.778523	-0.261845
C53	C	-1.701132	0.828924	-0.220344
H54	H	-1.704750	0.883685	-0.250502
H55	H	-1.662921	0.837164	-0.164427
C56	C	-1.807902	0.731618	-0.172764
C57	C	-1.812354	0.798875	-0.209808
H58	H	-1.876507	0.713082	-0.166262
H59	H	-1.768127	0.697662	-0.200722
H60	H	-1.776055	0.738494	-0.126171
H61	H	-1.844188	0.791997	-0.256404
H62	H	-1.852137	0.832830	-0.181857
H63	H	-1.388834	0.784453	-0.439883
H64	H	-0.943381	0.316209	-0.316332
O65	O	-1.378440	0.930042	-0.447224
C66	C	-1.392834	1.006119	-0.437169
H67	H	-1.427121	1.016640	-0.380400
H68	H	-1.448451	1.027868	-0.480863
C69	C	-1.245000	1.032706	-0.513570
C70	C	-1.287104	1.045629	-0.443843
H71	H	-1.179783	1.057079	-0.517690
H72	H	-1.235304	0.981452	-0.520347
H73	H	-1.291358	1.050830	-0.549974
H74	H	-1.240753	1.027497	-0.407440
H75	H	-1.296790	1.096881	-0.437060
O76	O	-1.642252	0.929934	-0.262029
C77	C	-1.709716	0.974302	-0.304017
H78	H	-1.716015	0.951091	-0.361983
H79	H	-1.677495	1.032584	-0.306521
C80	C	-1.810691	1.003898	-0.197000
C81	C	-1.818434	0.975387	-0.268194
H82	H	-1.877753	1.004570	-0.174902
H83	H	-1.765238	0.974009	-0.168712
H84	H	-1.783836	1.052463	-0.199097
H85	H	-1.845276	0.926819	-0.266096
H86	H	-1.863895	1.005267	-0.296481
H87	H	-1.389093	0.269006	-0.924663
O88	O	-1.378459	0.261619	-0.779307
C89	C	-1.319532	0.220055	-0.829720
H90	H	-1.315916	0.250185	-0.884496
H91	H	-1.357834	0.164160	-0.837914
C92	C	-1.212747	0.172448	-0.732448
C93	C	-1.208299	0.209458	-0.799723
H94	H	-1.144135	0.165908	-0.713944
H95	H	-1.252449	0.200448	-0.698483
H96	H	-1.244670	0.125873	-0.739286
H97	H	-1.176388	0.256035	-0.792883
H98	H	-1.168588	0.181465	-0.833686
O99	O	-1.641944	0.447124	-0.930774
C100	C	-1.627629	0.437027	-1.006854
H101	H	-1.593446	0.380229	-1.017369
H102	H	-1.571956	0.480671	-1.028647
C103	C	-1.775355	0.513530	-1.033401
C104	C	-1.733380	0.443766	-1.046316
H105	H	-1.840585	0.517690	-1.057744
H106	H	-1.784997	0.520335	-0.982145
H107	H	-1.728950	0.549892	-1.051562
H108	H	-1.779777	0.407406	-1.028146
H109	H	-1.723747	0.436955	-1.097570
