data_functionalizedCrystal
_audit_creation_method	'MofGen! by Chris Wilmer'
_symmetry_space_group_name_H-M	'P1'
_symmetry_Int_Tables_number	1
_symmetry_cell_setting	triclinic
loop_
_symmetry_equiv_pos_as_xyz
  x,y,z
_cell_length_a	31.640172
_cell_length_b	27.440280
_cell_length_c	27.440280
_cell_angle_alpha	120.008642
_cell_angle_beta	89.991245
_cell_angle_gamma	59.998923
loop_
_atom_site_label
_atom_site_type_symbol
_atom_site_fract_x
_atom_site_fract_y
_atom_site_fract_z
Zr1	Zr	0.407157	0.533429	0.063980
O2	O	0.339654	0.635127	0.141826
O3	O	0.427852	0.431744	0.040105
O4	O	0.427836	0.533435	0.141796
O5	O	0.339680	0.533426	-0.040069
O6	O	0.497393	0.533425	0.141785
O7	O	0.339670	0.533435	0.040135
O8	O	0.497422	0.351518	-0.040122
O9	O	0.339651	0.715333	0.141839
O10	O	0.488585	0.473556	0.029928
O11	O	0.436683	0.473556	-0.029919
O12	O	0.436664	0.593284	0.089810
O13	O	0.384762	0.593285	0.029963
Zr14	Zr	0.518108	0.533397	-0.063952
Zr15	Zr	0.518092	0.533412	0.063963
Zr16	Zr	0.407173	0.533413	-0.063935
Zr17	Zr	0.407152	0.661348	0.064000
Zr18	Zr	0.518112	0.405477	-0.063972
O19	O	0.497412	0.635081	-0.040077
O20	O	0.497390	0.635104	0.141802
O21	O	0.339677	0.635104	-0.040052
O22	O	0.585611	0.431699	-0.141798
O23	O	0.585588	0.431721	0.040080
O24	O	0.427875	0.431721	-0.141773
O25	O	0.585585	0.533400	0.040097
O26	O	0.497428	0.533390	-0.141768
O27	O	0.427871	0.533400	-0.141757
O28	O	0.585595	0.533390	-0.040106
O29	O	0.427830	0.715320	0.141825
O30	O	0.497434	0.351505	-0.141797
O31	O	0.585613	0.351493	-0.141810
O32	O	0.585601	0.351505	-0.040135
O33	O	0.339664	0.715320	0.040164
O34	O	0.427843	0.715307	0.040150
O35	O	0.488600	0.473541	-0.089781
O36	O	0.540502	0.473541	-0.029935
O37	O	0.488581	0.593269	0.029947
O38	O	0.436679	0.593270	-0.029900
C39	C	0.462637	0.373405	-0.000011
C40	C	0.462639	0.319100	-0.000020
C41	C	0.424305	0.026613	0.044229
C42	C	0.424305	-0.024404	0.044235
O43	O	0.391720	-0.013203	0.081837
N44	N	0.462630	-0.094119	0.000037
C45	C	0.500962	-0.112818	-0.044166
O46	O	0.533562	-0.176800	-0.081758
C47	C	0.500964	-0.061801	-0.044169
C48	C	0.462633	0.007914	0.000028
C49	C	0.385977	0.096324	0.088423
C50	C	0.385977	0.147338	0.088415
C51	C	0.424305	0.128639	0.044215
C52	C	0.462633	0.058928	0.000021
C53	C	0.539298	-0.080500	-0.088369
C54	C	0.539297	-0.029476	-0.088368
C55	C	0.500965	0.040240	-0.044171
C56	C	0.500961	0.091243	-0.044187
N57	N	0.462635	0.160958	0.000011
C58	C	0.424307	0.179656	0.044211
C59	C	0.500956	-0.219953	-0.044155
C60	C	0.500952	-0.270969	-0.044155
C61	C	0.424295	-0.182552	0.044247
C62	C	0.424297	-0.131535	0.044244
C63	C	0.462630	-0.150238	0.000043
C64	C	0.424309	0.286785	0.044193
C65	C	0.424311	0.337798	0.044181
C66	C	0.500970	0.249377	-0.044219
C67	C	0.500966	0.198367	-0.044208
C68	C	0.462634	0.217076	0.000003
O69	O	0.533530	0.080092	-0.081768
O70	O	0.391717	0.243639	0.081802
C71	C	0.323869	0.533433	0.000035
C72	C	0.276774	0.533440	0.000043
C73	C	0.011870	0.470909	-0.031256
C74	C	-0.165115	0.470897	-0.031267
O75	O	-0.164951	0.417745	-0.057873
N76	N	-0.214347	0.533394	-0.000009
C77	C	-0.219332	0.595898	0.031251
O78	O	-0.265268	0.649055	0.057833
C79	C	-0.042347	0.595909	0.031259
C80	C	0.006884	0.533408	0.000004
C81	C	0.061099	0.408413	-0.062509
C82	C	0.105343	0.408417	-0.062503
C83	C	0.100357	0.470916	-0.031244
C84	C	0.051128	0.533412	0.000010
C85	C	-0.047333	0.658412	0.062516
C86	C	-0.003081	0.658410	0.062514
C87	C	0.046150	0.595909	0.031258
C88	C	0.090385	0.595915	0.031275
N89	N	0.139617	0.533418	0.000017
C90	C	0.144603	0.470919	-0.031243
C91	C	-0.312249	0.595888	0.031246
C92	C	-0.356495	0.595885	0.031245
C93	C	-0.302275	0.470884	-0.031275
C94	C	-0.258029	0.470887	-0.031270
C95	C	-0.263017	0.533391	-0.000012
C96	C	0.237515	0.470931	-0.031228
C97	C	0.281760	0.470940	-0.031217
C98	C	0.227536	0.595941	0.031300
C99	C	0.183295	0.595932	0.031292
C100	C	0.188288	0.533422	0.000024
O101	O	0.090261	0.649039	0.057861
O102	O	0.190543	0.417770	-0.057832
C103	C	-0.032373	0.470905	-0.031262
C104	C	-0.081602	0.533401	-0.000008
C105	C	-0.086588	0.595900	0.031251
C106	C	-0.125849	0.533398	-0.000009
C107	C	-0.120863	0.470899	-0.031268
C108	C	-0.071631	0.408403	-0.062527
C109	C	-0.027387	0.408406	-0.062521
C110	C	-0.135820	0.658397	0.062510
C111	C	-0.180062	0.658388	0.062502
C112	C	-0.175076	0.595889	0.031243
C113	C	0.601396	0.533393	-0.000007
C114	C	0.648491	0.533386	-0.000014
C115	C	0.462612	0.533432	0.160016
C116	C	0.462605	0.533439	0.214319
C117	C	0.462627	0.693420	0.000040
C118	C	0.462625	0.747725	0.000048
C119	C	0.500962	0.533404	0.551014
C120	C	0.500966	0.533400	0.602032
O121	O	0.533566	0.533370	0.628403
N122	N	0.462645	0.533407	0.627556
C123	C	0.424322	0.533412	0.602056
O124	O	0.391728	0.533417	0.628450
C125	C	0.424320	0.533411	0.551036
C126	C	0.462640	0.533410	0.525518
C127	C	0.539278	0.533403	0.525496
C128	C	0.539274	0.533408	0.474482
C129	C	0.500952	0.533414	0.448985
C130	C	0.462635	0.533415	0.474504
C131	C	0.385999	0.533410	0.525534
C132	C	0.386001	0.533408	0.474510
C133	C	0.424320	0.533408	0.448992
C134	C	0.424308	0.533427	0.397993
N135	N	0.462628	0.533420	0.372469
C136	C	0.500950	0.533413	0.397966
C137	C	0.424328	0.533413	0.709200
C138	C	0.424327	0.533419	0.760222
C139	C	0.500972	0.533406	0.760195
C140	C	0.500971	0.533405	0.709175
C141	C	0.462649	0.533405	0.683677
C142	C	0.500937	0.533425	0.290832
C143	C	0.500927	0.533433	0.239815
C144	C	0.424284	0.533442	0.239845
C145	C	0.424292	0.533438	0.290860
C146	C	0.462623	0.533427	0.316351
O147	O	0.391725	0.533454	0.371589
O148	O	0.533542	0.533399	0.371560
C149	C	0.462650	0.533399	0.840015
C150	C	0.462651	0.533409	0.785721
C151	C	0.601401	0.373385	-0.000033
C152	C	0.648498	0.319073	-0.000049
C153	C	0.462657	0.373385	-0.160013
C154	C	0.462666	0.319074	-0.214325
C155	C	0.601421	0.373365	-0.160034
C156	C	0.648524	0.319047	-0.214353
C157	C	0.323844	0.693460	0.160063
C158	C	0.276740	0.747779	0.214382
C159	C	0.323864	0.693440	0.000061
C160	C	0.276767	0.747752	0.000077
C161	C	0.462607	0.693440	0.160041
C162	C	0.462598	0.747752	0.214353
C163	C	0.643515	0.293575	0.031197
C164	C	0.687763	0.242551	0.031194
C165	C	0.736993	0.217021	-0.000059
C166	C	0.741975	0.242524	-0.031305
C167	C	0.697728	0.293551	-0.031298
C168	C	0.489770	0.293560	-0.271083
C169	C	0.489776	0.242536	-0.322120
C170	C	0.462681	0.217022	-0.316397
C171	C	0.435573	0.242540	-0.259632
C172	C	0.435565	0.293567	-0.208597
C173	C	0.697742	0.293538	-0.208623
C174	C	0.742005	0.242507	-0.259656
C175	C	0.737049	0.216982	-0.316420
C176	C	0.687827	0.242496	-0.322149
C177	C	0.643565	0.293529	-0.271116
C178	C	0.227523	0.773294	0.208651
C179	C	0.183260	0.824341	0.259685
C180	C	0.188215	0.849868	0.316448
C181	C	0.237438	0.824351	0.322178
C182	C	0.281700	0.773309	0.271145
C183	C	0.281750	0.773255	-0.031163
C184	C	0.237502	0.824294	-0.031146
C185	C	0.188271	0.849826	0.000108
C186	C	0.183289	0.824321	0.031352
C187	C	0.227537	0.773286	0.031338
C188	C	0.489699	0.773250	0.208611
C189	C	0.489701	0.824274	0.259638
C190	C	0.462599	0.849804	0.316406
C191	C	0.435498	0.824301	0.322147
C192	C	0.435499	0.773274	0.271121
H193	H	0.354767	0.204100	0.124410
H194	H	0.413513	0.221759	-0.254981
O195	O	0.595734	0.318315	0.061611
C196	C	0.600835	0.284850	0.089174
H197	H	0.640322	0.263822	0.095350
H198	H	0.569092	0.323139	0.134571
H199	H	0.597215	0.240529	0.059890
H200	H	0.782065	0.221730	-0.056749
H201	H	0.223472	0.752523	0.056776
H202	H	0.773019	0.175471	-0.000060
O203	O	0.516068	0.217696	-0.377300
C204	C	0.510278	0.167177	-0.421124
H205	H	0.473676	0.175560	-0.401245
H206	H	0.507185	0.171323	-0.460465
H207	H	0.545290	0.113799	-0.437101
H208	H	0.701792	0.314305	-0.056746
H209	H	0.143185	0.845108	0.255008
H210	H	0.570478	0.533405	0.453706
O211	O	0.409248	0.318438	-0.153418
C212	C	0.415059	0.368932	-0.109593
H213	H	0.425032	0.391262	-0.129458
H214	H	0.377338	0.411857	-0.070232
H215	H	0.447503	0.344510	-0.093650
O216	O	0.538112	0.533466	0.214992
C217	C	0.514707	0.592792	0.215105
H218	H	0.474986	0.634379	0.251287
H219	H	0.540018	0.612624	0.224385
H220	H	0.510192	0.579348	0.169737
O221	O	0.516075	0.748509	0.153514
C222	C	0.539983	0.781974	0.159401
H223	H	0.545339	0.803003	0.204935
H224	H	0.579351	0.743685	0.122796
H225	H	0.514591	0.826294	0.155230
H226	H	0.241466	0.845142	0.368401
H227	H	0.462692	0.175472	-0.357958
H228	H	0.393094	0.394565	0.080170
O229	O	0.538160	0.533516	0.785003
C230	C	0.535735	0.592882	0.802223
H231	H	0.495317	0.634392	0.808964
H232	H	0.544475	0.612806	0.845741
H233	H	0.565454	0.579453	0.765889
H234	H	0.152170	0.891430	0.357998
O235	O	0.329470	0.748574	0.276822
C236	C	0.324345	0.782066	0.337868
H237	H	0.284848	0.803108	0.365079
H238	H	0.356072	0.743792	0.344981
H239	H	0.327972	0.826380	0.352907
O240	O	0.515949	0.849166	0.254129
C241	C	0.481156	0.920669	0.281778
H242	H	0.445491	0.942323	0.316569
H243	H	0.500815	0.947102	0.304423
H244	H	0.469027	0.930401	0.246703
H245	H	0.143208	0.646825	0.056751
H246	H	0.321832	0.752472	-0.056618
O247	O	0.462692	0.899310	0.365927
C248	C	0.513966	0.874355	0.365822
H249	H	0.541931	0.830936	0.318163
H250	H	0.519101	0.917929	0.384591
H251	H	0.522329	0.854021	0.394628
O252	O	0.065923	0.347714	-0.092954
C253	C	0.041954	0.343959	-0.136802
H254	H	0.039903	0.379425	-0.148408
H255	H	0.065439	0.288678	-0.178538
H256	H	0.001139	0.360737	-0.118919
H257	H	0.413432	0.845096	0.368375
O258	O	0.242440	0.848962	-0.061555
C259	C	0.295382	0.815484	-0.089136
H260	H	0.318972	0.763765	-0.095327
H261	H	0.301560	0.806677	-0.134528
H262	H	0.308424	0.848940	-0.059857
O263	O	0.409115	0.748546	0.276637
C264	C	0.371072	0.761059	0.249027
H265	H	0.382481	0.767374	0.214237
H266	H	0.367763	0.715762	0.226388
H267	H	0.332212	0.810157	0.284128
O268	O	0.516094	0.318292	-0.276757
C269	C	0.540021	0.284817	-0.337803
H270	H	0.518773	0.263786	-0.365010
H271	H	0.538551	0.323099	-0.344905
H272	H	0.582086	0.240497	-0.352856
H273	H	0.393082	0.533450	0.219080
O274	O	0.702655	0.318224	-0.153531
C275	C	0.755591	0.284720	-0.159429
H276	H	0.779196	0.263747	-0.204940
H277	H	0.761755	0.322967	-0.122789
H278	H	0.768628	0.240356	-0.155327
O279	O	0.682981	0.217659	0.061455
C280	C	0.706953	0.146156	0.021328
H281	H	0.737125	0.124502	-0.019796
H282	H	0.726587	0.119722	0.043993
H283	H	0.676532	0.136425	0.007340
O284	O	0.538273	0.533264	0.684354
C285	C	0.587324	0.473883	0.667149
H286	H	0.582880	0.432397	0.660417
H287	H	0.613372	0.453932	0.623628
H288	H	0.605384	0.487303	0.703486
H289	H	0.773094	0.175427	-0.357969
O290	O	0.387021	0.305081	0.087165
C291	C	0.353203	0.377554	0.126173
H292	H	0.355038	0.400948	0.102355
H293	H	0.311964	0.393734	0.140448
H294	H	0.365260	0.396582	0.167259
H295	H	0.532160	-0.327731	-0.080150
O296	O	0.576548	-0.148237	-0.131223
C297	C	0.604590	-0.180379	-0.104182
H298	H	0.579890	-0.149644	-0.055914
H299	H	0.615031	-0.234970	-0.129565
H300	H	0.641525	-0.182516	-0.105203
O301	O	0.145344	0.899376	0.000032
C302	C	0.160306	0.916416	-0.034235
H303	H	0.201158	0.871650	-0.067280
H304	H	0.132359	0.927016	-0.059668
H305	H	0.159499	0.964361	-0.003466
O306	O	0.135453	0.849058	0.061611
C307	C	0.108246	0.836604	0.021492
H308	H	0.136973	0.791868	-0.025588
H309	H	0.083767	0.823103	0.035028
H310	H	0.081999	0.884767	0.022593
O311	O	0.348690	0.114616	0.131390
C312	C	0.314875	0.187088	0.170398
H313	H	0.316713	0.210482	0.146581
H314	H	0.273635	0.203272	0.184672
H315	H	0.326931	0.206114	0.211485
O316	O	0.576531	0.533430	0.550199
C317	C	0.610352	0.533410	0.516716
H318	H	0.589697	0.555113	0.491208
H319	H	0.622718	0.566698	0.548093
H320	H	0.645990	0.478405	0.483773
O321	O	0.387040	-0.063848	0.087238
C322	C	0.353204	-0.058294	0.126237
H323	H	0.373851	-0.107622	0.124126
H324	H	0.340827	-0.012637	0.173790
H325	H	0.317575	-0.050132	0.112333
H326	H	0.603491	0.314292	-0.275791
O327	O	0.789824	0.217801	-0.254108
C328	C	0.817047	0.230262	-0.281751
H329	H	0.788333	0.274977	-0.284103
H330	H	0.841495	0.243795	-0.254679
H331	H	0.843326	0.182091	-0.328821
H332	H	0.532170	-0.235191	-0.080154
O333	O	0.576558	-0.047765	-0.131367
C334	C	0.610393	-0.120237	-0.170362
H335	H	0.589745	-0.143643	-0.168247
H336	H	0.622772	-0.136423	-0.217916
H337	H	0.646022	-0.139247	-0.156455
O338	O	0.387013	-0.164441	0.087093
C339	C	0.358979	-0.191295	0.060016
H340	H	0.383709	-0.237349	0.011762
H341	H	0.348488	-0.208417	0.085404
H342	H	0.322074	-0.149835	0.060986
H343	H	0.532174	0.141601	-0.080203
O344	O	0.683110	0.217597	-0.377336
C345	C	0.732734	0.167094	-0.421143
H346	H	0.762056	0.144794	-0.401253
H347	H	0.732265	0.124150	-0.460497
H348	H	0.744008	0.191498	-0.437103
O349	O	-0.007864	0.719084	0.092923
C350	C	0.016083	0.722846	0.136790
H351	H	0.046246	0.668586	0.123651
H352	H	0.035723	0.749302	0.140582
H353	H	-0.014355	0.753691	0.181610
O354	O	0.538267	0.231135	-0.087139
C355	C	0.587324	0.191801	-0.084331
H356	H	0.585008	0.167327	-0.061869
H357	H	0.616601	0.149617	-0.131440
H358	H	0.600030	0.226651	-0.057417
O359	O	0.222769	0.748516	0.153482
C360	C	0.246742	0.760988	0.122105
H361	H	0.276897	0.767332	0.141587
H362	H	0.266396	0.715659	0.072992
H363	H	0.216318	0.810059	0.126365
O364	O	0.329595	0.410242	-0.061487
C365	C	0.356808	0.406511	-0.021380
H366	H	0.328086	0.441980	0.025701
H367	H	0.381281	0.351235	-0.034937
H368	H	0.383062	0.423301	-0.022470
O369	O	0.242434	0.410166	-0.061686
C370	C	0.269740	0.372146	-0.122683
H371	H	0.294155	0.389925	-0.127785
H372	H	0.296057	0.314973	-0.141834
H373	H	0.241090	0.380795	-0.147754
O374	O	0.153124	0.347642	-0.092922
C375	C	0.148026	0.292485	-0.120498
H376	H	0.108540	0.310814	-0.126676
H377	H	0.179770	0.248770	-0.165896
H378	H	0.151647	0.273271	-0.091224
H379	H	-0.217945	0.419994	-0.056726
H380	H	-0.396579	0.646779	0.056704
O381	O	-0.297528	0.410233	-0.061636
C382	C	-0.347140	0.423641	-0.054919
H383	H	-0.376474	0.477357	-0.043391
H384	H	-0.346646	0.383732	-0.098417
H385	H	-0.358417	0.420675	-0.017518
H386	H	-0.087412	0.709307	0.087967
O387	O	-0.317167	0.656653	0.061573
C388	C	-0.344456	0.694661	0.038600
H389	H	-0.368864	0.676876	0.015708
H390	H	-0.370778	0.751837	0.076640
H391	H	-0.315795	0.686007	0.004877
H392	H	0.223485	0.646826	0.056753
H393	H	-0.067578	0.357513	-0.087976
H394	H	-0.220147	0.709288	0.087960
H395	H	0.532150	0.533415	0.311581
O396	O	0.020394	0.347631	-0.092939
C397	C	0.015296	0.292475	-0.120514
H398	H	-0.024190	0.310803	-0.126693
H399	H	0.047041	0.248758	-0.165912
H400	H	0.018916	0.273262	-0.091238
H401	H	-0.139888	0.709293	0.087967
H402	H	0.393119	0.533430	0.781000
H403	H	0.354796	0.533410	0.546303
O404	O	0.387044	0.533454	0.684530
C405	C	0.353233	0.533445	0.717995
H406	H	0.355063	0.555147	0.765215
H407	H	0.311994	0.566739	0.719919
H408	H	0.365301	0.478443	0.695912
H409	H	0.393084	0.533448	0.311642
O410	O	0.348721	0.533442	0.449834
C411	C	0.314912	0.533425	0.483293
H412	H	0.316738	0.555126	0.530514
H413	H	0.273673	0.566715	0.485214
H414	H	0.326984	0.478420	0.461206
