data_functionalizedCrystal
_audit_creation_method	'MofGen! by Chris Wilmer'
_symmetry_space_group_name_H-M	'P1'
_symmetry_Int_Tables_number	1
_symmetry_cell_setting	triclinic
loop_
_symmetry_equiv_pos_as_xyz
  x,y,z
_cell_length_a	19.188930
_cell_length_b	16.109301
_cell_length_c	15.186229
_cell_angle_alpha	89.999362
_cell_angle_beta	90.008857
_cell_angle_gamma	96.696869
loop_
_atom_site_label
_atom_site_type_symbol
_atom_site_fract_x
_atom_site_fract_y
_atom_site_fract_z
O1	O	0.089744	-1.102833	0.073183
O2	O	0.589744	-0.602833	0.573183
O3	O	0.100912	-0.860734	0.073198
O4	O	0.600912	-0.360734	0.573198
O5	O	-0.006311	-0.988770	0.073173
O6	O	0.493689	-0.488770	0.573173
O7	O	0.196967	-0.974797	0.073208
O8	O	0.696967	-0.474797	0.573208
O9	O	-0.006313	-0.988762	-0.073284
O10	O	0.493687	-0.488762	0.426716
O11	O	0.100911	-0.860726	-0.073259
O12	O	0.600911	-0.360726	0.426741
O13	O	0.089742	-1.102825	-0.073274
O14	O	0.589742	-0.602825	0.426726
Zn15	Zn	0.095326	-0.981774	-0.096520
Zn16	Zn	0.595326	-0.481774	0.403480
Zn17	Zn	0.095328	-0.981785	0.096444
Zn18	Zn	0.595328	-0.481785	0.596444
O19	O	0.196966	-0.974789	-0.073249
O20	O	0.696966	-0.474789	0.426751
C21	C	-0.032324	-0.988313	-0.000058
C22	C	0.467676	-0.488313	0.499942
C23	C	-0.109832	-0.986955	-0.000066
C24	C	0.390168	-0.486955	0.499934
C25	C	0.100459	-0.829757	-0.000029
C26	C	0.600459	-0.329757	0.499971
C27	C	0.099103	-0.737466	-0.000024
C28	C	0.599103	-0.237466	0.499976
C29	C	0.090196	-1.133802	-0.000045
C30	C	0.590196	-0.633802	0.499955
C31	C	0.091552	-1.226093	-0.000045
C32	C	0.591552	-0.726093	0.499955
C33	C	-0.154580	-1.062082	-0.000075
C34	C	0.345420	-0.562082	0.499925
C35	C	-0.227407	-1.060806	-0.000060
C36	C	0.272593	-0.560806	0.499940
C37	C	-0.255482	-0.984399	-0.000055
C38	C	0.244518	-0.484399	0.499945
C39	C	-0.210724	-0.909261	-0.000041
C40	C	0.289276	-0.409261	0.499959
C41	C	-0.137899	-0.910540	-0.000046
C42	C	0.362101	-0.410540	0.499954
N43	N	-0.363624	-0.925991	-0.049893
N44	N	0.136376	-0.425991	0.450107
N45	N	-0.432805	-0.924782	-0.049890
N46	N	0.067195	-0.424782	0.450110
C47	C	-0.474900	-0.980543	-0.000037
C48	C	0.025100	-0.480543	0.499963
N49	N	-0.445200	-1.037571	0.049802
N50	N	0.054800	-0.537571	0.549802
N51	N	-0.376013	-1.038783	0.049795
N52	N	0.123987	-0.538783	0.549795
C53	C	-0.334448	-0.983004	-0.000049
C54	C	0.165552	-0.483004	0.499951
C55	C	-0.598616	-1.054292	-0.000029
C56	C	-0.098616	-0.554292	0.499971
C57	C	-0.671443	-1.053012	-0.000010
C58	C	-0.171443	-0.553012	0.499990
C59	C	-0.654759	-0.901465	0.000001
C60	C	-0.154759	-0.401465	0.500001
C61	C	-0.581933	-0.902747	-0.000010
C62	C	-0.081933	-0.402747	0.499990
C63	C	-0.553866	-0.979162	-0.000029
C64	C	-0.053866	-0.479162	0.499971
C65	C	0.222979	-0.975246	-0.000016
C66	C	0.722979	-0.475246	0.499984
C67	C	0.300486	-0.976604	-0.000003
C68	C	0.800486	-0.476604	0.499997
N69	N	0.095325	-0.981772	-0.228213
N70	N	0.595325	-0.481772	0.271787
C71	C	0.159573	-0.514993	-0.000023
C72	C	0.659573	-0.014993	0.499977
C73	C	0.158294	-0.428277	-0.000029
C74	C	0.658294	0.071723	0.499971
C75	C	0.031076	-0.448573	-0.000048
C76	C	0.531076	0.051427	0.499952
C77	C	0.032357	-0.535287	-0.000048
C78	C	0.532357	-0.035287	0.499952
C79	C	0.096608	-0.568495	-0.000031
C80	C	0.596608	-0.068495	0.499969
C81	C	0.094047	-0.395064	-0.000037
C82	C	0.594047	0.104936	0.499963
C83	C	0.092659	-0.301043	-0.000043
C84	C	0.592659	0.198957	0.499957
C85	C	0.097996	-0.662522	-0.000027
C86	C	0.597996	-0.162522	0.499973
C87	C	0.047862	-1.038486	-0.453947
C88	C	0.547862	-0.538486	0.046053
C89	C	0.047860	-1.038488	-0.546136
C90	C	0.547860	-0.538488	-0.046136
C91	C	0.142790	-0.925074	-0.546123
C92	C	0.642790	-0.425074	-0.046123
C93	C	0.142787	-0.925068	-0.453935
C94	C	0.642787	-0.425068	0.046065
C95	C	0.095324	-0.981779	-0.407849
C96	C	0.595324	-0.481779	0.092151
C97	C	0.095325	-0.981787	-0.592227
C98	C	0.595325	-0.481787	-0.092227
C99	C	0.095323	-0.981790	-0.692183
C100	C	0.595323	-0.481790	-0.192183
C101	C	0.095325	-0.981775	-0.307887
C102	C	0.595325	-0.481775	0.192113
N103	N	0.095325	-0.981793	0.228137
N104	N	0.595325	-0.481793	0.728137
H105	H	-0.131733	-1.124306	-0.000087
H106	H	0.368267	-0.624306	0.499913
H107	H	-0.018920	-0.578851	-0.000057
H108	H	0.481080	-0.078851	0.499943
N109	N	0.228867	-0.550816	-0.000019
N110	N	0.728867	-0.050816	0.499981
H111	H	0.232238	-0.586341	0.054274
H112	H	0.732238	-0.086341	0.554274
H113	H	0.268522	-0.503718	-0.000051
H114	H	0.768522	-0.003718	0.499949
H115	H	-0.233587	-0.847050	-0.000035
H116	H	0.266413	-0.347050	0.499965
N117	N	0.193980	-0.863894	-0.404215
N118	N	0.693980	-0.363894	0.095785
H119	H	0.243538	-0.873285	-0.420242
H120	H	0.743538	-0.373285	0.079758
H121	H	0.186714	-0.872521	-0.338837
H122	H	0.686714	-0.372521	0.161163
N123	N	-0.003322	-1.099664	-0.595854
N124	N	0.496678	-0.599664	-0.095854
H125	H	-0.052882	-1.090283	-0.579821
H126	H	0.447118	-0.590283	-0.079821
H127	H	0.004807	-1.158604	-0.579775
H128	H	0.504807	-0.658604	-0.079775
H129	H	-0.575763	-1.116514	-0.000041
H130	H	-0.075763	-0.616514	0.499959
N131	N	0.226197	-0.370553	-0.000022
N132	N	0.726197	0.129447	0.499978
H133	H	0.228487	-0.334130	-0.054319
H134	H	0.728487	0.165870	0.445681
H135	H	0.267062	-0.404791	0.000019
H136	H	0.767062	0.095209	0.500019
N137	N	-0.038218	-0.412752	-0.000048
N138	N	0.461782	0.087248	0.499952
H139	H	-0.077913	-0.459806	-0.000054
H140	H	0.422087	0.040194	0.499946
H141	H	-0.041525	-0.377213	-0.054339
H142	H	0.458475	0.122787	0.445661
H143	H	0.009214	-1.084662	-0.416426
H144	H	0.509214	-0.584662	0.083574
H145	H	0.181434	-0.878902	-0.583655
H146	H	0.681434	-0.378902	-0.083655
N147	N	-0.089631	-0.829505	-0.000057
N148	N	0.410369	-0.329505	0.499943
H149	H	-0.039237	-0.841909	-0.000068
H150	H	0.460763	-0.341909	0.499932
H151	H	-0.098703	-0.796191	0.054238
H152	H	0.401297	-0.296191	0.554238
H153	H	-0.707878	-1.114193	-0.000012
H154	H	-0.207878	-0.614193	0.499988
N155	N	-0.275684	-1.141839	-0.000068
N156	N	0.224316	-0.641839	0.499932
H157	H	-0.246852	-1.190441	-0.000080
H158	H	0.253148	-0.690441	0.499920
H159	H	-0.306269	-1.144598	-0.054361
H160	H	0.193731	-0.644598	0.445639
H161	H	-0.545497	-0.841570	-0.000008
H162	H	-0.045497	-0.341570	0.499992
N163	N	-0.685029	-0.819052	0.000017
N164	N	-0.185029	-0.319052	0.500017
H165	H	-0.737954	-0.829640	0.000022
H166	H	-0.237954	-0.329640	0.500022
H167	H	-0.668667	-0.786182	-0.054275
H168	H	-0.168667	-0.286182	0.445725
