data_functionalizedCrystal
_audit_creation_method	'MofGen! by Chris Wilmer'
_symmetry_space_group_name_H-M	'P1'
_symmetry_Int_Tables_number	1
_symmetry_cell_setting	triclinic
loop_
_symmetry_equiv_pos_as_xyz
  x,y,z
_cell_length_a	12.827893
_cell_length_b	14.908178
_cell_length_c	12.827879
_cell_angle_alpha	86.637317
_cell_angle_beta	89.958408
_cell_angle_gamma	93.314160
loop_
_atom_site_label
_atom_site_type_symbol
_atom_site_fract_x
_atom_site_fract_y
_atom_site_fract_z
Zn1	Zn	1.573885	-0.358862	-0.566822
Zn2	Zn	2.073885	0.141138	-0.066822
Zn3	Zn	1.563607	-0.509850	-0.381973
Zn4	Zn	2.063607	-0.009850	0.118027
Zn5	Zn	1.399049	-0.358993	-0.392086
Zn6	Zn	1.899049	0.141007	0.107914
Zn7	Zn	1.389018	-0.509698	-0.556683
Zn8	Zn	1.889018	-0.009698	-0.056683
O9	O	1.481390	-0.434351	-0.474391
O10	O	1.981390	0.065649	0.025609
O11	O	1.718757	-0.378901	-0.542312
O12	O	2.218757	0.121099	-0.042312
O13	O	1.541675	-0.489957	-0.237070
O14	O	2.041675	0.010043	0.262930
O15	O	1.430741	-0.232716	-0.423741
O16	O	1.930741	0.267284	0.076259
O17	O	1.711205	-0.489831	-0.406504
O18	O	2.211205	0.010169	0.093496
O19	O	1.559192	-0.232620	-0.552119
O20	O	2.059192	0.267380	-0.052119
O21	O	1.420775	-0.379123	-0.244501
O22	O	1.920775	0.120877	0.255499
O23	O	1.251483	-0.378975	-0.413910
O24	O	1.751483	0.121025	0.086090
O25	O	1.413644	-0.489571	-0.704272
O26	O	1.913644	0.010429	-0.204272
O27	O	1.244113	-0.489697	-0.534838
O28	O	1.744113	0.010303	-0.034838
O29	O	1.549465	-0.378753	-0.711721
O30	O	2.049465	0.121247	-0.211721
O31	O	1.531947	-0.636089	-0.396672
O32	O	2.031947	-0.136089	0.103328
O33	O	1.403677	-0.635977	-0.525031
O34	O	1.903677	-0.135977	-0.025031
C35	C	1.209881	-0.434334	-0.474372
C36	C	1.709881	0.065666	0.025628
C37	C	1.093727	-0.434349	-0.474387
C38	C	1.593727	0.065651	0.025613
C39	C	1.045672	-0.379554	-0.541682
C40	C	1.545672	0.120446	-0.041682
C41	C	0.925621	-0.379568	-0.541699
C42	C	1.425621	0.120432	-0.041699
C43	C	1.465637	-0.668771	-0.458677
C44	C	1.965637	-0.168771	0.041323
C45	C	1.458993	-0.769057	-0.451989
C46	C	1.958993	-0.269057	0.048011
C47	C	1.580164	-0.957255	-0.573245
C48	C	2.080164	-0.457255	-0.073245
C49	C	1.573926	-1.051483	-0.566965
C50	C	2.073926	-0.551483	-0.066965
C51	C	1.440273	-1.051741	-0.433155
C52	C	1.940273	-0.551741	0.066845
C53	C	1.446512	-0.957514	-0.439435
C54	C	1.946512	-0.457514	0.060565
C55	C	1.516461	-0.910274	-0.509482
C56	C	2.016461	-0.410274	-0.009482
C57	C	1.522704	-0.816045	-0.515756
C58	C	2.022704	-0.316045	-0.015756
C59	C	1.389047	-0.816305	-0.381951
C60	C	1.889047	-0.316305	0.118049
C61	C	1.382808	-0.910533	-0.375671
C62	C	1.882808	-0.410533	0.124329
C63	C	1.753959	-0.434368	-0.474410
C64	C	2.253959	0.065632	0.025590
C65	C	1.870111	-0.434375	-0.474419
C66	C	2.370111	0.065625	0.025581
C67	C	1.481582	-0.434130	-0.746976
C68	C	1.981582	0.065870	-0.246976
C69	C	1.481664	-0.434036	-0.863136
C70	C	1.981664	0.065964	-0.363136
C71	C	1.497232	-0.199015	-0.490189
C72	C	1.997232	0.300985	0.009811
C73	C	1.503984	-0.098729	-0.496921
C74	C	2.003984	0.401271	0.003079
C75	C	1.481263	-0.434506	-0.202870
C76	C	1.981263	0.065494	0.297130
C77	C	1.481400	-0.434345	-0.086728
C78	C	1.981400	0.065655	0.413272
C79	C	1.541907	-0.488546	0.088782
C80	C	2.041907	0.011454	0.588782
C81	C	1.541766	-0.488713	-0.031256
C82	C	2.041766	0.011287	0.468744
H83	H	1.579662	-0.777583	-0.572788
H84	H	2.079662	-0.277583	-0.072788
H85	H	1.593342	-0.535383	-0.072620
H86	H	2.093342	-0.035383	0.427380
H87	H	0.911444	-0.481294	-0.416808
H88	H	1.411444	0.018706	0.083192
N89	N	1.655614	-0.906296	-0.648778
N90	N	2.155614	-0.406296	-0.148778
H91	H	1.695029	-0.950358	-0.688217
H92	H	2.195029	-0.450358	-0.188217
H93	H	1.615661	-0.867175	-0.699709
H94	H	2.115661	-0.367175	-0.199709
N95	N	0.870873	-0.317429	-0.618026
N96	N	1.370873	0.182571	-0.118026
H97	H	0.792873	-0.326248	-0.607221
H98	H	1.292873	0.173752	-0.107221
H99	H	0.894205	-0.252965	-0.606219
H100	H	1.394205	0.247035	-0.106219
H101	H	1.045991	-0.481269	-0.416785
H102	H	1.545991	0.018731	0.083215
N103	N	1.642645	-1.102154	-0.635730
N104	N	2.142645	-0.602154	-0.135730
H105	H	1.628082	-1.169015	-0.621125
H106	H	2.128082	-0.669015	-0.121125
H107	H	1.627460	-1.085609	-0.711452
H108	H	2.127460	-0.585609	-0.211452
H109	H	1.383320	-1.090220	-0.376132
H110	H	1.883320	-0.590220	0.123868
N111	N	1.307372	-0.961486	-0.300121
N112	N	1.807372	-0.461486	0.199879
H113	H	1.313086	-1.028308	-0.305815
H114	H	1.813086	-0.528308	0.194185
H115	H	1.324752	-0.945087	-0.226599
H116	H	1.824752	-0.445087	0.273401
N117	N	1.320331	-0.765635	-0.313172
N118	N	1.820331	-0.265635	0.186828
H119	H	1.335493	-0.782112	-0.237425
H120	H	1.835493	-0.282112	0.262575
H121	H	1.334929	-0.698789	-0.327861
H122	H	1.834929	-0.198789	0.172139
N123	N	1.610377	-0.550199	0.151957
N124	N	2.110377	-0.050199	0.651957
H125	H	1.600765	-0.541346	0.228755
H126	H	2.100765	-0.041346	0.728755
H127	H	1.590312	-0.614778	0.137481
H128	H	2.090312	-0.114778	0.637481
N129	N	1.413070	-0.372518	-0.031966
N130	N	1.913070	0.127482	0.468034
H131	H	1.362553	-0.409454	0.015995
H132	H	1.862553	0.090546	0.515995
H133	H	1.458181	-0.330425	0.010233
H134	H	1.958181	0.169575	0.510233
N135	N	1.108889	-0.317413	-0.618003
N136	N	1.608889	0.182587	-0.118003
H137	H	1.185688	-0.326220	-0.607182
H138	H	1.685688	0.173780	-0.107182
H139	H	1.088973	-0.331504	-0.691677
H140	H	1.588973	0.168496	-0.191677
H141	H	1.429987	-0.387487	0.089160
H142	H	1.929987	0.112513	0.589160
