data_functionalizedCrystal
_audit_creation_method	'MofGen! by Chris Wilmer'
_symmetry_space_group_name_H-M	'P1'
_symmetry_Int_Tables_number	1
_symmetry_cell_setting	triclinic
loop_
_symmetry_equiv_pos_as_xyz
  x,y,z
_cell_length_a	27.732048
_cell_length_b	27.732025
_cell_length_c	7.681481
_cell_angle_alpha	84.320682
_cell_angle_beta	95.681056
_cell_angle_gamma	82.638061
loop_
_atom_site_label
_atom_site_type_symbol
_atom_site_fract_x
_atom_site_fract_y
_atom_site_fract_z
O1	O	0.636326	0.062119	-0.146147
O2	O	0.495531	0.070866	-0.146192
O3	O	0.570305	-0.003903	-0.146222
O4	O	0.561552	0.136889	-0.146118
O5	O	0.579509	-0.013126	0.146632
O6	O	0.504734	0.061643	0.146662
O7	O	0.645530	0.052896	0.146707
Zn8	Zn	0.576593	0.055805	0.193181
Zn9	Zn	0.564467	0.067957	-0.192667
O10	O	0.570755	0.127665	0.146736
C11	C	0.482125	0.066071	0.000228
C12	C	0.428470	0.065519	0.000207
C13	C	0.089655	0.106220	0.000314
C14	C	-0.112004	0.104169	0.000328
O15	O	-0.143260	0.141386	0.000432
N16	N	-0.131125	0.059834	0.000292
C17	C	-0.099828	0.016009	0.000264
O18	O	-0.120719	-0.021748	0.000252
C19	C	0.101830	0.018060	0.000262
C20	C	0.120948	0.062398	0.000280
C21	C	0.108773	0.150554	0.000334
C22	C	0.159185	0.151067	0.000320
C23	C	0.190478	0.107245	0.000287
C24	C	0.171360	0.062911	0.000267
C25	C	0.133127	-0.025765	0.000247
C26	C	0.183544	-0.025248	0.000251
C27	C	0.202662	0.019090	0.000269
C28	C	0.253064	0.019602	0.000221
N29	N	0.272185	0.063937	0.000257
C30	C	0.240892	0.107758	0.000290
C31	C	-0.205702	0.014935	0.000261
C32	C	-0.256117	0.014422	0.000258
C33	C	-0.268289	0.102582	0.000326
C34	C	-0.217874	0.103095	0.000316
C35	C	-0.186581	0.059270	0.000297
C36	C	0.346760	0.108832	0.000261
C37	C	0.397177	0.109341	0.000240
C38	C	0.409345	0.021181	0.000182
C39	C	0.358933	0.020672	0.000194
C40	C	0.327642	0.064501	0.000239
O41	O	0.284349	-0.017596	0.000137
O42	O	0.261793	0.145509	0.000341
C43	C	0.039243	0.105707	0.000327
C44	C	0.020125	0.061373	0.000307
C45	C	0.051418	0.017551	0.000273
C46	C	-0.030289	0.060860	0.000304
C47	C	-0.061583	0.104682	0.000337
C48	C	-0.042461	0.149016	0.000373
C49	C	0.007950	0.149529	0.000360
C50	C	0.032297	-0.026783	0.000237
C51	C	-0.018115	-0.027292	0.000249
C52	C	-0.049408	0.016529	0.000282
C53	C	0.574724	-0.026521	0.000187
C54	C	0.574174	-0.080175	0.000135
C55	C	0.565264	-0.458316	-0.159399
C56	C	0.567315	-0.256655	-0.159455
O57	O	0.563333	-0.226311	-0.295222
N58	N	0.572588	-0.236461	0.000176
C59	C	0.577352	-0.266687	0.159831
O60	O	0.581890	-0.244884	0.295605
C61	C	0.575305	-0.468347	0.159885
C62	C	0.570026	-0.488537	0.000245
C63	C	0.559986	-0.478507	-0.319026
C64	C	0.559471	-0.528918	-0.319010
C65	C	0.564233	-0.559140	-0.159367
C66	C	0.569511	-0.538949	0.000260
C67	C	0.580072	-0.498573	0.319539
C68	C	0.579561	-0.548991	0.319538
C69	C	0.574283	-0.569181	0.159898
C70	C	0.573758	-0.619583	0.159919
N71	N	0.568485	-0.639776	0.000289
C72	C	0.563722	-0.609555	-0.159354
C73	C	0.578426	-0.160812	0.159791
C74	C	0.578937	-0.110397	0.159778
C75	C	0.568900	-0.100368	-0.159508
C76	C	0.568386	-0.150784	-0.159493
C77	C	0.573152	-0.181005	0.000161
C78	C	0.562640	-0.715424	-0.159309
C79	C	0.562123	-0.765841	-0.159279
C80	C	0.572163	-0.775865	0.160006
C81	C	0.572677	-0.725452	0.159977
C82	C	0.567917	-0.695233	0.000305
O83	O	0.577743	-0.649956	0.295615
O84	O	0.559196	-0.631368	-0.295108
C85	C	0.565779	-0.407904	-0.159414
C86	C	0.571057	-0.387714	0.000213
C87	C	0.575819	-0.417935	0.159857
C88	C	0.571568	-0.337298	0.000200
C89	C	0.566805	-0.307077	-0.159443
C90	C	0.561532	-0.327271	-0.319073
C91	C	0.561017	-0.377683	-0.319057
C92	C	0.581093	-0.397741	0.319487
C93	C	0.581607	-0.347329	0.319458
C94	C	0.576844	-0.317107	0.159815
C95	C	0.658935	0.057691	0.000283
C96	C	0.712590	0.058244	0.000292
C97	C	0.566336	0.150284	0.000323
C98	C	0.566886	0.203938	0.000364
N99	N	0.584873	0.047511	0.456512
N100	N	0.556192	0.076248	-0.455998
H101	H	0.174745	0.187172	0.000335
N102	N	0.555124	-0.447648	-0.482128
N103	N	0.550414	-0.465692	-0.624626
H104	H	0.546976	-0.443901	-0.739829
H105	H	0.614156	0.018181	0.531706
N106	N	0.519454	0.113042	0.449722
N107	N	0.492486	0.140059	0.531884
H108	H	0.466539	0.166046	0.465291
N109	N	0.416696	0.154638	0.000247
N110	N	0.388746	0.193760	0.000278
H111	H	0.402529	0.225750	0.000284
H112	H	0.321289	0.144522	0.000303
N113	N	-0.198356	0.148389	0.000333
N114	N	-0.226308	0.187510	0.000353
H115	H	-0.212526	0.219501	0.000368
H116	H	0.583226	-0.093961	0.289774
N117	N	0.076820	0.195325	0.000379
N118	N	0.093907	0.234902	0.000403
H119	H	0.071342	0.266525	0.000425
N120	N	-0.300254	0.147349	0.000359
N121	N	-0.302590	0.180815	-0.123047
H122	H	-0.325166	0.212430	-0.123013
H123	H	-0.271678	-0.021681	0.000216
H124	H	0.343366	-0.015431	0.000153
N125	N	-0.173747	-0.029839	0.000243
N126	N	-0.190832	-0.069417	0.000209
H127	H	-0.168267	-0.101039	0.000190
H128	H	0.209022	-0.060937	0.000237
N129	N	0.113615	-0.071060	0.000220
N130	N	0.141570	-0.110179	0.000201
H131	H	0.127792	-0.142172	0.000183
N132	N	0.562992	-0.171397	-0.322576
N133	N	0.558738	-0.144402	-0.465095
H134	H	0.554928	-0.158957	-0.580281
H135	H	0.558765	-0.690825	-0.289329
H136	H	0.434833	-0.014497	0.000149
H137	H	0.583444	-0.573595	0.449551
N138	N	0.578057	-0.704832	0.323057
N139	N	0.582303	-0.731823	0.465583
H140	H	0.586105	-0.717264	0.580763
H141	H	0.565019	-0.075753	-0.289496
N142	N	0.027467	0.194823	0.000410
N143	N	0.021636	0.220389	0.123882
H144	H	0.035416	0.252381	0.123922
N145	N	-0.074439	0.193775	0.000397
N146	N	-0.119449	0.193304	0.000409
H147	H	-0.142036	0.224913	0.000435
N148	N	-0.037632	-0.072590	0.000209
N149	N	-0.009681	-0.111710	0.000181
H150	H	-0.023462	-0.143702	0.000164
N151	N	0.587003	-0.326702	0.482525
N152	N	0.587467	-0.281690	0.482513
H153	H	0.591281	-0.267123	0.597674
H154	H	0.057772	-0.062469	0.000215
N155	N	0.583280	-0.191675	0.322889
N156	N	0.550026	-0.216214	0.358521
H157	H	0.553451	-0.238009	0.473712
H158	H	0.557823	-0.782276	-0.289284
H159	H	0.584376	-0.482144	0.449536
N160	N	0.554101	-0.549549	-0.482066
N161	N	0.553653	-0.594563	-0.482063
H162	H	0.549866	-0.609132	-0.597228
H163	H	0.576038	-0.800480	0.289983
H164	H	0.556718	-0.394116	-0.449053
N165	N	0.556674	-0.296403	-0.482162
N166	N	0.551967	-0.314431	-0.624692
H167	H	0.548540	-0.292630	-0.739869
N168	N	0.585962	-0.428601	0.482584
N169	N	0.590672	-0.410560	0.625086
H170	H	0.594110	-0.432352	0.740285
