data_functionalizedCrystal
_audit_creation_method	'MofGen! by Chris Wilmer'
_symmetry_space_group_name_H-M	'P1'
_symmetry_Int_Tables_number	1
_symmetry_cell_setting	triclinic
loop_
_symmetry_equiv_pos_as_xyz
  x,y,z
_cell_length_a	12.759401
_cell_length_b	25.639240
_cell_length_c	12.759393
_cell_angle_alpha	89.955715
_cell_angle_beta	89.981504
_cell_angle_gamma	90.033035
loop_
_atom_site_label
_atom_site_type_symbol
_atom_site_fract_x
_atom_site_fract_y
_atom_site_fract_z
Zn1	Zn	1.606123	-0.208116	-0.593890
Zn2	Zn	2.106123	0.291884	-0.093890
Zn3	Zn	1.605962	-0.295563	-0.418171
Zn4	Zn	2.105962	0.204437	0.081829
Zn5	Zn	1.430425	-0.208143	-0.418229
Zn6	Zn	1.930425	0.291857	0.081771
Zn7	Zn	1.430358	-0.295523	-0.593813
Zn8	Zn	1.930358	0.204477	-0.093813
O9	O	1.518217	-0.251836	-0.506026
O10	O	2.018217	0.248164	-0.006026
O11	O	1.753123	-0.219721	-0.570589
O12	O	2.253123	0.280279	-0.070589
O13	O	1.582637	-0.283995	-0.271158
O14	O	2.082637	0.216005	0.228842
O15	O	1.453827	-0.134975	-0.441588
O16	O	1.953827	0.365025	0.058412
O17	O	1.753005	-0.283968	-0.441489
O18	O	2.253005	0.216032	0.058511
O19	O	1.582912	-0.134954	-0.570645
O20	O	2.082912	0.365046	-0.070645
O21	O	1.453671	-0.219768	-0.271200
O22	O	1.953671	0.280232	0.228800
O23	O	1.283395	-0.219729	-0.441513
O24	O	1.783395	0.280271	0.058487
O25	O	1.453713	-0.283899	-0.740844
O26	O	1.953713	0.216101	-0.240844
O27	O	1.283346	-0.283926	-0.570513
O28	O	1.783346	0.216074	-0.070513
O29	O	1.582847	-0.219682	-0.740901
O30	O	2.082847	0.280318	-0.240901
O31	O	1.582573	-0.368723	-0.441414
O32	O	2.082573	0.131277	0.058586
O33	O	1.453557	-0.368693	-0.570457
O34	O	1.953557	0.131307	-0.070457
C35	C	1.245250	-0.251827	-0.506011
C36	C	1.745250	0.248173	-0.006011
C37	C	1.128473	-0.251835	-0.506030
C38	C	1.628473	0.248165	-0.006030
C39	C	0.963882	-0.285322	-0.573102
C40	C	1.463882	0.214678	-0.073102
C41	C	1.073606	-0.285316	-0.573091
C42	C	1.573606	0.214684	-0.073091
C43	C	1.073611	-0.218362	-0.438968
C44	C	1.573611	0.281638	0.061032
C45	C	0.963889	-0.218371	-0.438974
C46	C	1.463889	0.281629	0.061026
C47	C	1.518069	-0.387679	-0.505943
C48	C	2.018069	0.112321	-0.005943
C49	C	1.518101	-0.445793	-0.505943
C50	C	2.018101	0.054207	-0.005943
C51	C	1.585465	-0.806107	-0.573347
C52	C	2.085465	-0.306107	-0.073347
C53	C	1.585496	-0.860711	-0.573368
C54	C	2.085496	-0.360711	-0.073368
O55	O	1.642594	-0.888906	-0.630593
O56	O	2.142594	-0.388906	-0.130593
N57	N	1.518363	-0.888075	-0.506127
N58	N	2.018363	-0.388075	-0.006127
C59	C	1.451187	-0.860832	-0.438868
C60	C	1.951187	-0.360832	0.061132
O61	O	1.394088	-0.889121	-0.381677
O62	O	1.894088	-0.389121	0.118323
C63	C	1.451152	-0.806229	-0.438853
C64	C	1.951152	-0.306229	0.061147
C65	C	1.518297	-0.778868	-0.506091
C66	C	2.018297	-0.278868	-0.006091
C67	C	1.652603	-0.778745	-0.640580
C68	C	2.152603	-0.278745	-0.140580
C69	C	1.652574	-0.724145	-0.640557
C70	C	2.152574	-0.224145	-0.140557
C71	C	1.585405	-0.696906	-0.573301
C72	C	2.085405	-0.196906	-0.073301
C73	C	1.518267	-0.724267	-0.506068
C74	C	2.018267	-0.224267	-0.006068
C75	C	1.383971	-0.778987	-0.371599
C76	C	1.883971	-0.278987	0.128401
C77	C	1.383941	-0.724380	-0.371591
C78	C	1.883941	-0.224380	0.128409
C79	C	1.451086	-0.697019	-0.438829
C80	C	1.951086	-0.197019	0.061171
C81	C	1.451068	-0.642427	-0.438788
C82	C	1.951068	-0.142427	0.061212
N83	N	1.518201	-0.615063	-0.506029
N84	N	2.018201	-0.115063	-0.006029
C85	C	1.585370	-0.642302	-0.573286
C86	C	2.085370	-0.142302	-0.073286
C87	C	1.451266	-0.975503	-0.438906
C88	C	1.951266	-0.475503	0.061094
C89	C	1.451306	-1.030105	-0.438916
C90	C	1.951306	-0.530105	0.061084
C91	C	1.585613	-1.029980	-0.573418
C92	C	2.085613	-0.529980	-0.073418
C93	C	1.585578	-0.975377	-0.573403
C94	C	2.085578	-0.475377	-0.073403
C95	C	1.518398	-0.948139	-0.506148
C96	C	2.018398	-0.448139	-0.006148
C97	C	1.585302	-0.527637	-0.573232
C98	C	2.085302	-0.027637	-0.073232
C99	C	1.585270	-0.473032	-0.573200
C100	C	2.085270	0.026968	-0.073200
C101	C	1.450959	-0.473162	-0.438702
C102	C	1.950959	0.026838	0.061298
C103	C	1.450995	-0.527762	-0.438730
C104	C	1.950995	-0.027762	0.061270
C105	C	1.518170	-0.554999	-0.506003
C106	C	2.018170	-0.054999	-0.006003
O107	O	1.393996	-0.614198	-0.381596
O108	O	1.893996	-0.114198	0.118404
O109	O	1.642450	-0.614006	-0.630477
O110	O	2.142450	-0.114006	-0.130477
C111	C	1.792250	-0.251846	-0.506041
C112	C	2.292250	0.248154	-0.006041
C113	C	1.909027	-0.251850	-0.506047
C114	C	2.409027	0.248150	-0.006047
C115	C	1.518291	-0.251783	-0.780059
C116	C	2.018291	0.248217	-0.280059
C117	C	1.518322	-0.251761	-0.896836
C118	C	2.018322	0.248239	-0.396836
C119	C	1.518395	-0.115463	-0.506131
C120	C	2.018395	0.384537	-0.006131
C121	C	1.518471	-0.057349	-0.506176
C122	C	2.018471	0.442651	-0.006176
C123	C	1.451193	-0.218312	-0.951720
C124	C	1.951193	0.281688	-0.451720
C125	C	1.451218	-0.218296	-1.061444
C126	C	1.951218	0.281704	-0.561444
C127	C	1.585508	-0.285179	-1.061391
C128	C	2.085508	0.214821	-0.561391
C129	C	1.585478	-0.285197	-0.951669
C130	C	2.085478	0.214803	-0.451669
C131	C	1.518205	-0.251851	-0.233058
C132	C	2.018205	0.248149	0.266942
C133	C	1.518377	-0.251726	-0.116282
C134	C	2.018377	0.248274	0.383718
H135	H	1.118264	-0.312572	-0.627693
H136	H	1.618264	0.187428	-0.127693
Cl137	Cl	1.142587	-0.176274	-0.354659
Cl138	Cl	1.642587	0.323726	0.145341
Cl139	Cl	0.894917	-0.327411	-0.657418
Cl140	Cl	1.394917	0.172589	-0.157418
Cl141	Cl	0.894923	-0.176291	-0.354666
Cl142	Cl	1.394923	0.323709	0.145334
H143	H	1.329232	-0.702205	-0.316825
H144	H	1.829232	-0.202205	0.183175
Cl145	Cl	1.366597	-0.562160	-0.354188
Cl146	Cl	1.866597	-0.062160	0.145812
Cl147	Cl	1.669688	-0.438638	-0.657733
Cl148	Cl	2.169688	0.061362	-0.157733
H149	H	1.396554	-0.191059	-1.106125
H150	H	1.896554	0.308941	-0.606125
Cl151	Cl	1.366764	-0.176280	-0.882791
Cl152	Cl	1.866764	0.323720	-0.382791
Cl153	Cl	1.669756	-0.561869	-0.657802
Cl154	Cl	2.169756	-0.061869	-0.157802
H155	H	1.707245	-0.701870	-0.695311
H156	H	2.207245	-0.201870	-0.195311
Cl157	Cl	1.737052	-0.812979	-0.725146
Cl158	Cl	2.237052	-0.312979	-0.225146
H159	H	1.640252	-0.953102	-0.628154
H160	H	2.140252	-0.453102	-0.128154
H161	H	1.640185	-0.312401	-1.106049
H162	H	2.140185	0.187599	-0.606049
Cl163	Cl	1.670053	-1.064234	-0.657971
Cl164	Cl	2.170053	-0.564234	-0.157971
Cl165	Cl	1.669871	-0.327253	-0.882667
Cl166	Cl	2.169871	0.172747	-0.382667
H167	H	1.396641	-1.052378	-0.384152
H168	H	1.896641	-0.552378	0.115848
Cl169	Cl	1.366810	-0.941266	-0.354341
Cl170	Cl	1.866810	-0.441266	0.145659
H171	H	1.329295	-0.801255	-0.316847
H172	H	1.829295	-0.301255	0.183153
H173	H	1.396274	-0.450975	-0.383939
H174	H	1.896274	0.049025	0.116061
