data_functionalizedCrystal
_audit_creation_method	'MofGen! by Chris Wilmer'
_symmetry_space_group_name_H-M	'P1'
_symmetry_Int_Tables_number	1
_symmetry_cell_setting	triclinic
loop_
_symmetry_equiv_pos_as_xyz
  x,y,z
_cell_length_a	13.033409
_cell_length_b	13.897448
_cell_length_c	13.897441
_cell_angle_alpha	89.969401
_cell_angle_beta	97.170691
_cell_angle_gamma	82.848469
loop_
_atom_site_label
_atom_site_type_symbol
_atom_site_fract_x
_atom_site_fract_y
_atom_site_fract_z
Zn1	Zn	1.597502	-0.571054	-0.357736
Zn2	Zn	1.930835	-0.237721	-0.024403
Zn3	Zn	2.264168	0.095613	0.308931
Zn4	Zn	1.597387	-0.732362	-0.196451
Zn5	Zn	1.930720	-0.399029	0.136882
Zn6	Zn	2.264053	-0.065696	0.470216
Zn7	Zn	1.422758	-0.550634	-0.216980
Zn8	Zn	1.756092	-0.217300	0.116353
Zn9	Zn	2.089425	0.116033	0.449687
Zn10	Zn	1.422738	-0.711844	-0.378218
Zn11	Zn	1.756072	-0.378510	-0.044885
Zn12	Zn	2.089405	-0.045177	0.288449
O13	O	1.510096	-0.641474	-0.287346
O14	O	1.843430	-0.308140	0.045987
O15	O	2.176763	0.025193	0.379320
O16	O	1.743708	-0.609585	-0.319178
O17	O	2.077041	-0.276252	0.014155
O18	O	2.410375	0.057082	0.347489
O19	O	1.574182	-0.708297	-0.064197
O20	O	1.907515	-0.374963	0.269136
O21	O	2.240849	-0.041630	0.602470
O22	O	1.445995	-0.418368	-0.235671
O23	O	1.779328	-0.085034	0.097662
O24	O	2.112661	0.248299	0.430995
O25	O	1.743624	-0.728098	-0.200682
O26	O	2.076957	-0.394764	0.132651
O27	O	2.410290	-0.061431	0.465984
O28	O	1.574378	-0.433370	-0.339084
O29	O	1.907711	-0.100037	-0.005751
O30	O	2.241045	0.233296	0.327582
O31	O	1.445883	-0.574782	-0.079280
O32	O	1.779217	-0.241448	0.254054
O33	O	2.112550	0.091885	0.587387
O34	O	1.276534	-0.554885	-0.255532
O35	O	1.609867	-0.221552	0.077801
O36	O	1.943201	0.111781	0.411135
O37	O	1.445961	-0.693127	-0.510478
O38	O	1.779294	-0.359793	-0.177145
O39	O	2.112628	-0.026460	0.156189
O40	O	1.276520	-0.673326	-0.373993
O41	O	1.609853	-0.339993	-0.040659
O42	O	1.943186	-0.006659	0.292674
O43	O	1.574359	-0.589689	-0.495430
O44	O	1.907692	-0.256356	-0.162097
O45	O	2.241025	0.076978	0.171237
O46	O	1.574163	-0.864616	-0.220543
O47	O	1.907496	-0.531282	0.112790
O48	O	2.240830	-0.197949	0.446124
O49	O	1.445850	-0.849541	-0.354086
O50	O	1.779183	-0.516207	-0.020753
O51	O	2.112516	-0.182874	0.312580
C52	C	1.238613	-0.609664	-0.319213
C53	C	1.571947	-0.276331	0.014120
C54	C	1.905280	0.057003	0.347454
C55	C	1.122472	-0.596079	-0.332869
C56	C	1.455805	-0.262746	0.000465
C57	C	1.789138	0.070588	0.333798
C58	C	1.510020	-0.892079	-0.287327
C59	C	1.843353	-0.558746	0.046006
C60	C	2.176687	-0.225412	0.379339
C61	C	1.510083	-0.999300	-0.287340
C62	C	1.843416	-0.665967	0.045993
C63	C	2.176750	-0.332634	0.379326
C64	C	0.950608	-0.634529	-0.294352
C65	C	1.283942	-0.301196	0.038982
C66	C	1.617275	0.032137	0.372315
C67	C	1.070647	-0.648574	-0.280233
C68	C	1.403980	-0.315240	0.053100
C69	C	1.737314	0.018093	0.386434
C70	C	1.510193	-1.195608	-0.287388
C71	C	1.843526	-0.862275	0.045946
C72	C	2.176859	-0.528941	0.379279
C73	C	1.510129	-1.086368	-0.287365
C74	C	1.843462	-0.753035	0.045969
C75	C	2.176795	-0.419702	0.379302
C76	C	1.782639	-0.673408	-0.255356
C77	C	2.115973	-0.340075	0.077978
C78	C	2.449306	-0.006741	0.411311
C79	C	1.898781	-0.687017	-0.241723
C80	C	2.232114	-0.353683	0.091610
C81	C	2.565448	-0.020350	0.424944
C82	C	1.510170	-0.641397	-0.538931
C83	C	1.843504	-0.308064	-0.205597
C84	C	2.176837	0.025270	0.127736
C85	C	1.510202	-0.641364	-0.646141
C86	C	1.843535	-0.308031	-0.312808
C87	C	2.176869	0.025302	0.020526
C88	C	1.510201	-0.389893	-0.287383
C89	C	1.843535	-0.056559	0.045950
C90	C	2.176868	0.276774	0.379284
C91	C	1.510246	-0.282684	-0.287399
C92	C	1.843579	0.050649	0.045935
C93	C	2.176913	0.383983	0.379268
C94	C	1.510230	-0.641302	-0.842433
C95	C	1.843564	-0.307969	-0.509100
C96	C	2.176897	0.025364	-0.175766
C97	C	1.510211	-0.641339	-0.733203
C98	C	1.843545	-0.308006	-0.399869
C99	C	2.176878	0.025328	-0.066536
C100	C	1.510083	-0.641487	-0.036734
C101	C	1.843416	-0.308154	0.296600
C102	C	2.176749	0.025179	0.629933
C103	C	1.510253	-0.641272	0.070500
C104	C	1.843587	-0.307939	0.403833
C105	C	2.176920	0.025395	0.737167
H106	H	0.906112	-0.579199	-0.349865
H107	H	1.239445	-0.245866	-0.016532
H108	H	1.572778	0.087467	0.316802
H109	H	0.943278	-0.742355	-0.186219
H110	H	1.276611	-0.409022	0.147115
H111	H	1.609944	-0.075689	0.480448
H112	H	1.115140	-0.703916	-0.224725
H113	H	1.448473	-0.370583	0.108609
H114	H	1.781806	-0.037250	0.441942
Cl115	Cl	1.053788	-0.510643	-0.418582
Cl116	Cl	1.387121	-0.177310	-0.085249
Cl117	Cl	1.720455	0.156024	0.248085
