data_functionalizedCrystal
_audit_creation_method	'MofGen! by Chris Wilmer'
_symmetry_space_group_name_H-M	'P1'
_symmetry_Int_Tables_number	1
_symmetry_cell_setting	triclinic
loop_
_symmetry_equiv_pos_as_xyz
  x,y,z
_cell_length_a	23.532407
_cell_length_b	23.532361
_cell_length_c	22.010155
_cell_angle_alpha	90.011417
_cell_angle_beta	90.002989
_cell_angle_gamma	97.160828
loop_
_atom_site_label
_atom_site_type_symbol
_atom_site_fract_x
_atom_site_fract_y
_atom_site_fract_z
O1	O	-0.069007	0.755286	0.050455
O2	O	0.430993	1.255286	0.550455
O3	O	-0.079038	0.589419	0.050468
O4	O	0.420962	1.089419	0.550468
O5	O	0.008910	0.677354	0.050468
O6	O	0.508910	1.177354	0.550468
O7	O	-0.156955	0.667351	0.050454
O8	O	0.343045	1.167351	0.550454
O9	O	0.008910	0.677328	-0.050582
O10	O	0.508910	1.177328	0.449418
O11	O	-0.079038	0.589393	-0.050583
O12	O	0.420962	1.089393	0.449417
O13	O	-0.069007	0.755260	-0.050596
O14	O	0.430993	1.255260	0.449404
Cu15	Cu	-0.074023	0.672324	-0.059816
Cu16	Cu	0.425977	1.172324	0.440184
Cu17	Cu	-0.074023	0.672355	0.059688
Cu18	Cu	0.425977	1.172355	0.559688
O19	O	-0.156955	0.667324	-0.050596
O20	O	0.343045	1.167324	0.449404
C21	C	-0.078787	0.568189	-0.000056
C22	C	0.421213	1.068189	0.499944
C23	C	-0.078032	0.504971	-0.000050
C24	C	0.421968	1.004971	0.499950
C25	C	-0.074728	0.231741	0.055029
C26	C	0.425272	0.731741	0.555029
C27	C	-0.075443	0.291141	0.055031
C28	C	0.424557	0.791141	0.555031
O29	O	-0.075793	0.321879	0.101875
O30	O	0.424207	0.821879	0.601875
N31	N	-0.075804	0.320832	-0.000052
N32	N	0.424196	0.820832	0.499948
C33	C	-0.075445	0.291122	-0.055140
C34	C	0.424555	0.791122	0.444860
O35	O	-0.075817	0.321831	-0.101992
O36	O	0.424183	0.821831	0.398008
C37	C	-0.074726	0.231724	-0.055141
C38	C	0.425274	0.731724	0.444859
C39	C	-0.074370	0.202035	-0.000054
C40	C	0.425630	0.702035	0.499946
C41	C	-0.074372	0.202052	0.110111
C42	C	0.425628	0.702052	0.610111
C43	C	-0.073658	0.142657	0.110110
C44	C	0.426342	0.642657	0.610110
C45	C	-0.073301	0.112950	0.055026
C46	C	0.426699	0.612950	0.555026
C47	C	-0.073657	0.142639	-0.000056
C48	C	0.426343	0.642639	0.499944
C49	C	-0.074362	0.202015	-0.110228
C50	C	0.425638	0.702015	0.389772
C51	C	-0.073642	0.142612	-0.110224
C52	C	0.426358	0.642612	0.389776
C53	C	-0.073287	0.112923	-0.055138
C54	C	0.426713	0.612923	0.444862
C55	C	-0.072585	0.053536	-0.055141
C56	C	0.427415	0.553536	0.444859
N57	N	-0.072224	0.023845	-0.000058
N58	N	0.427776	0.523845	0.499942
C59	C	-0.072582	0.053552	0.055025
C60	C	0.427418	0.553552	0.555025
C61	C	-0.076954	0.415862	-0.055134
C62	C	0.423046	0.915862	0.444866
C63	C	-0.077677	0.475258	-0.055134
C64	C	0.422323	0.975258	0.444866
C65	C	-0.077674	0.475274	0.055037
C66	C	0.422326	0.975274	0.555037
C67	C	-0.076955	0.415876	0.055036
C68	C	0.423045	0.915876	0.555036
C69	C	-0.076593	0.386171	-0.000051
C70	C	0.423407	0.886171	0.499949
C71	C	-0.071083	-0.071184	0.055017
C72	C	0.428917	0.428816	0.555017
C73	C	-0.070372	-0.130585	0.055011
C74	C	0.429628	0.369415	0.555011
C75	C	-0.070371	-0.130595	-0.055160
C76	C	0.429629	0.369405	0.444840
C77	C	-0.071086	-0.071199	-0.055153
C78	C	0.428914	0.428801	0.444847
C79	C	-0.071440	-0.041495	-0.000060
C80	C	0.428560	0.458505	0.499940
O81	O	-0.072232	0.022761	-0.101962
O82	O	0.427768	0.522761	0.398038
O83	O	-0.072202	0.022836	0.101869
O84	O	0.427798	0.522836	0.601869
C85	C	-0.178171	0.667592	-0.000073
C86	C	0.321829	1.167592	0.499927
C87	C	-0.241388	0.668358	-0.000079
C88	C	0.258612	1.168358	0.499921
C89	C	-0.640499	0.621124	-0.000044
C90	C	-0.140499	1.121124	0.499956
C91	C	-0.699899	0.621835	-0.000040
C92	C	-0.199899	1.121835	0.499960
O93	O	-0.736651	0.578048	-0.000014
O94	O	-0.236651	1.078048	0.499986
N95	N	-0.722517	0.674113	-0.000045
N96	N	-0.222517	1.174113	0.499955
C97	C	-0.685730	0.725682	-0.000048
C98	C	-0.185730	1.225682	0.499952
O99	O	-0.710423	0.770214	-0.000051
O100	O	-0.210423	1.270214	0.499949
C101	C	-0.626331	0.724970	-0.000048
C102	C	-0.126331	1.224970	0.499952
C103	C	-0.603718	0.672689	-0.000049
C104	C	-0.103718	1.172689	0.499951
C105	C	-0.617885	0.568847	-0.000045
C106	C	-0.117885	1.068847	0.499955
C107	C	-0.558489	0.568136	-0.000050
C108	C	-0.058489	1.068136	0.499950
C109	C	-0.521707	0.619701	-0.000055
C110	C	-0.021707	1.119701	0.499945
C111	C	-0.544322	0.671978	-0.000054
C112	C	-0.044322	1.171978	0.499946
C113	C	-0.589546	0.776539	-0.000046
C114	C	-0.089546	1.276539	0.499954
C115	C	-0.530144	0.775822	-0.000046
C116	C	-0.030144	1.275822	0.499954
C117	C	-0.507530	0.723541	-0.000047
C118	C	-0.007530	1.223541	0.499953
C119	C	-0.448144	0.722832	-0.000064
C120	C	0.051856	1.222832	0.499936
N121	N	-0.425527	0.670555	-0.000059
N122	N	0.074473	1.170555	0.499941
C123	C	-0.462308	0.618989	-0.000055
C124	C	0.037692	1.118989	0.499945
C125	C	-0.810473	0.727174	-0.000047
C126	C	-0.310473	1.227174	0.499953
C127	C	-0.869870	0.727886	-0.000052
C128	C	-0.369870	1.227886	0.499948
C129	C	-0.884035	0.624039	-0.000043
C130	C	-0.384035	1.124039	0.499957
C131	C	-0.824636	0.623327	-0.000042
C132	C	-0.324636	1.123327	0.499958
C133	C	-0.787855	0.674896	-0.000042
C134	C	-0.287855	1.174896	0.499958
C135	C	-0.337572	0.617499	-0.000066
C136	C	0.162428	1.117499	0.499934
C137	C	-0.278170	0.616793	-0.000074
C138	C	0.221830	1.116793	0.499926
C139	C	-0.264010	0.720640	-0.000080
C140	C	0.235990	1.220640	0.499920
C141	C	-0.323407	0.721347	-0.000075
C142	C	0.176593	1.221347	0.499925
C143	C	-0.360187	0.669772	-0.000066
C144	C	0.139813	1.169772	0.499934
O145	O	-0.411357	0.766596	-0.000088
O146	O	0.088643	1.266596	0.499912
O147	O	-0.437608	0.574465	-0.000043
O148	O	0.062392	1.074465	0.499957
C149	C	0.030126	0.677086	-0.000053
C150	C	0.530126	1.177086	0.499947
C151	C	0.093343	0.676320	-0.000044
C152	C	0.593343	1.176320	0.499956
C153	C	-0.069258	0.776489	-0.000071
C154	C	0.430742	1.276489	0.499929
C155	C	-0.070014	0.839708	-0.000073
C156	C	0.429986	1.339708	0.499927
N157	N	-0.074022	0.672306	-0.143868
N158	N	0.425978	1.172306	0.356132
C159	C	-0.108377	0.706701	-0.563654
C160	C	0.391623	1.206701	-0.063654
C161	C	-0.108376	0.706708	-0.627262
C162	C	0.391624	1.206708	-0.127262
O163	O	-0.137582	0.735932	-0.660158
O164	O	0.362418	1.235932	-0.160158
N165	N	-0.074016	0.672366	-0.659075
N166	N	0.425984	1.172366	-0.159075
C167	C	-0.039651	0.638020	-0.627278
C168	C	0.460349	1.138020	-0.127278
O169	O	-0.010425	0.608810	-0.660179
O170	O	0.489575	1.108810	-0.160179
C171	C	-0.039650	0.638016	-0.563672
C172	C	0.460350	1.138016	-0.063672
C173	C	-0.074016	0.672356	-0.531861
C174	C	0.425984	1.172356	-0.031861
C175	C	-0.142741	0.741039	-0.531843
C176	C	0.357259	1.241039	-0.031843
C177	C	-0.142743	0.741031	-0.468240
C178	C	0.357257	1.241031	0.031760
C179	C	-0.108382	0.706686	-0.436447
C180	C	0.391618	1.206686	0.063553
C181	C	-0.074018	0.672348	-0.468258
C182	C	0.425982	1.172348	0.031742
C183	C	-0.005282	0.603673	-0.531876
C184	C	0.494718	1.103673	-0.031876
C185	C	-0.005284	0.603673	-0.468265
C186	C	0.494716	1.103673	0.031735
C187	C	-0.039650	0.638013	-0.436455
C188	C	0.460350	1.138013	0.063545
C189	C	-0.039659	0.637996	-0.372862
C190	C	0.460341	1.137996	0.127138
N191	N	-0.074019	0.672338	-0.341048
N192	N	0.425981	1.172338	0.158952
C193	C	-0.108380	0.706683	-0.372841
C194	C	0.391620	1.206683	0.127159
C195	C	-0.039656	0.638030	-0.760856
C196	C	0.460344	1.138030	-0.260856
C197	C	-0.039659	0.638030	-0.824462
C198	C	0.460341	1.138030	-0.324462
C199	C	-0.108384	0.706719	-0.824440
C200	C	0.391616	1.206719	-0.324440
C201	C	-0.108382	0.706716	-0.760834
C202	C	0.391618	1.206716	-0.260834
C203	C	-0.074015	0.672372	-0.729042
C204	C	0.425985	1.172372	-0.229042
C205	C	-0.108383	0.706664	-0.239270
C206	C	0.391617	1.206664	0.260730
C207	C	-0.108383	0.706651	-0.175661
C208	C	0.391617	1.206651	0.324339
C209	C	-0.039657	0.637964	-0.175688
C210	C	0.460343	1.137964	0.324312
C211	C	-0.039658	0.637974	-0.239291
C212	C	0.460342	1.137974	0.260709
C213	C	-0.074023	0.672329	-0.271080
C214	C	0.425977	1.172329	0.228920
O215	O	-0.010466	0.608789	-0.339925
O216	O	0.489534	1.108789	0.160075
O217	O	-0.137596	0.735893	-0.339932
O218	O	0.362404	1.235893	0.160068
N219	N	-0.074018	0.672377	0.143740
N220	N	0.425982	1.172377	0.643740
H221	H	-0.073367	0.118489	0.154967
H222	H	0.426633	0.618489	0.654967
H223	H	-0.077965	0.499472	0.099889
H224	H	0.422035	0.999472	0.599889
N225	N	-0.177833	0.776116	-0.435742
N226	N	0.322167	1.276116	0.064258
N227	N	-0.177832	0.776118	-0.378951
N228	N	0.322168	1.276118	0.121049
H229	H	-0.202614	0.800900	-0.356001
H230	H	0.297386	1.300900	0.143999
N231	N	-0.492566	0.828495	-0.000055
N232	N	0.007434	1.328495	0.499945
N233	N	-0.439532	0.827858	-0.000061
N234	N	0.060468	1.327858	0.499939
H235	H	-0.412992	0.865058	-0.000070
H236	H	0.087008	1.365058	0.499930
N237	N	-0.078052	0.505589	-0.111398
N238	N	0.421948	1.005589	0.388602
N239	N	-0.118602	0.533252	-0.123692
N240	N	0.381398	1.033252	0.376308
H241	H	-0.118865	0.554673	-0.163429
H242	H	0.381135	1.054673	0.336571
H243	H	0.022703	0.575706	-0.442384
H244	H	0.522703	1.075706	0.057616
N245	N	-0.074734	0.232383	0.166388
N246	N	0.425266	0.732383	0.666388
N247	N	-0.074414	0.205857	0.215559
N248	N	0.425586	0.705857	0.715559
H249	H	-0.074672	0.227273	0.255309
H250	H	0.425328	0.727273	0.755309
H251	H	-0.076666	0.391679	-0.099996
H252	H	0.423334	0.891679	0.400004
N253	N	0.029824	0.568604	-0.564369
N254	N	0.529824	1.068604	-0.064369
N255	N	0.029829	0.568606	-0.621160
N256	N	0.529829	1.068606	-0.121160
H257	H	0.054625	0.543836	-0.644108
H258	H	0.554625	1.043836	-0.144108
N259	N	-0.801549	0.569919	-0.000048
N260	N	-0.301549	1.069919	0.499952
N261	N	-0.834403	0.523885	-0.000049
N262	N	-0.334403	1.023885	0.499951
H263	H	-0.818101	0.486163	-0.000053
H264	H	-0.318101	0.986163	0.499947
N265	N	-0.143480	0.741752	-0.271746
N266	N	0.356520	1.241752	0.228254
N267	N	-0.121049	0.779539	-0.307225
N268	N	0.378951	1.279539	0.192775
H269	H	-0.145839	0.804317	-0.330163
H270	H	0.354161	1.304317	0.169837
H271	H	-0.234052	0.762623	-0.000087
H272	H	0.265948	1.262623	0.499913
H273	H	-0.136371	0.734614	-0.149763
H274	H	0.363629	1.234614	0.350237
H275	H	-0.607948	0.819111	-0.000045
H276	H	-0.107948	1.319111	0.499955
N277	N	-0.177843	0.776131	-0.564303
N278	N	0.322157	1.276131	-0.064303
N279	N	-0.208517	0.806785	-0.535880
N280	N	0.291483	1.306785	-0.035880
H281	H	-0.233314	0.831569	-0.558800
H282	H	0.266686	1.331569	-0.058800
H283	H	-0.136367	0.734678	-0.734938
H284	H	0.363633	1.234678	-0.234938
H285	H	-0.341820	0.763918	-0.000083
H286	H	0.158180	1.263918	0.499917
H287	H	-0.136363	0.734684	-0.850337
H288	H	0.363637	1.234684	-0.350337
N289	N	-0.073281	0.112260	-0.166491
N290	N	0.426719	0.612260	0.333509
N291	N	-0.072645	0.059226	-0.166490
N292	N	0.427355	0.559226	0.333510
H293	H	-0.072392	0.037790	-0.206228
H294	H	0.427608	0.537790	0.293772
H295	H	-0.074649	0.226177	-0.155085
H296	H	0.425351	0.726177	0.344915
N297	N	-0.004561	0.602939	-0.856942
N298	N	0.495439	1.102939	-0.356942
N299	N	0.026111	0.572276	-0.828540
N300	N	0.526111	1.072276	-0.328540
H301	H	0.050903	0.547493	-0.851477
H302	H	0.550903	1.047493	-0.351477
N303	N	-0.076593	0.385561	0.111310
N304	N	0.423407	0.885561	0.611310
N305	N	-0.076915	0.412098	0.160485
N306	N	0.423085	0.912098	0.660485
H307	H	-0.076658	0.390692	0.200232
H308	H	0.423342	0.890692	0.700232
N309	N	-0.921621	0.571370	-0.000026
N310	N	-0.421621	1.071370	0.499974
N311	N	-0.956341	0.560202	0.042575
N312	N	-0.456341	1.060202	0.542575
H313	H	-0.982888	0.523007	0.042587
H314	H	-0.482888	1.023007	0.542587
N315	N	-0.071478	-0.040882	-0.111427
N316	N	0.428522	0.459118	0.388573
N317	N	-0.071176	-0.067419	-0.160604
N318	N	0.428824	0.432581	0.339396
H319	H	-0.071456	-0.046012	-0.200349
H320	H	0.428544	0.453988	0.299651
H321	H	-0.540082	0.525563	-0.000046
H322	H	-0.040082	1.025563	0.499954
N323	N	-0.070008	-0.160955	-0.111418
N324	N	0.429992	0.339045	0.388582
N325	N	-0.069367	-0.213989	-0.111405
N326	N	0.430633	0.286011	0.388595
H327	H	-0.069107	-0.235433	-0.151137
H328	H	0.430893	0.264567	0.348863
H329	H	-0.011672	0.610057	-0.734976
H330	H	0.488328	1.110057	-0.234976
N331	N	-0.004561	0.602885	-0.271779
N332	N	0.495439	1.102885	0.228221
N333	N	0.026111	0.572218	-0.243382
N334	N	0.526111	1.072218	0.256618
H335	H	0.050902	0.547437	-0.266322
H336	H	0.550902	1.047437	0.233678
N337	N	-0.004557	0.602899	-0.143188
N338	N	0.495443	1.102899	0.356812
N339	N	0.033203	0.625369	-0.107685
N340	N	0.533203	1.125369	0.392315
H341	H	0.057997	0.600610	-0.084727
H342	H	0.557997	1.100610	0.415273
N343	N	-0.070013	-0.160903	0.111289
N344	N	0.429987	0.339097	0.611289
N345	N	-0.070332	-0.134367	0.160465
N346	N	0.429668	0.365633	0.660465
H347	H	-0.070078	-0.155776	0.200211
H348	H	0.429922	0.344224	0.700211
H349	H	-0.071372	-0.047006	0.099880
H350	H	0.428628	0.452994	0.599880
H351	H	-0.367511	0.575502	-0.000059
H352	H	0.132489	1.075502	0.499941
N353	N	-0.255081	0.563382	-0.000081
N354	N	0.244919	1.063382	0.499919
N355	N	-0.287932	0.517346	-0.000076
N356	N	0.212068	1.017346	0.499924
H357	H	-0.271628	0.479625	-0.000081
H358	H	0.228372	0.979625	0.499919
H359	H	-0.647827	0.526854	-0.000039
H360	H	-0.147827	1.026854	0.499961
N361	N	-0.892966	0.781290	-0.000071
N362	N	-0.392966	1.281290	0.499929
N363	N	-0.881592	0.815962	-0.042672
N364	N	-0.381592	1.315962	0.457328
H365	H	-0.897901	0.853680	-0.042684
H366	H	-0.397901	1.353680	0.457316
N367	N	-0.772912	0.779859	-0.000050
N368	N	-0.272912	1.279859	0.499950
N369	N	-0.793119	0.826528	-0.000054
N370	N	-0.293119	1.326528	0.499946
H371	H	-0.766595	0.863738	-0.000055
H372	H	-0.266595	1.363738	0.499945
