data_functionalizedCrystal
_audit_creation_method	'MofGen! by Chris Wilmer'
_symmetry_space_group_name_H-M	'P1'
_symmetry_Int_Tables_number	1
_symmetry_cell_setting	triclinic
loop_
_symmetry_equiv_pos_as_xyz
  x,y,z
_cell_length_a	13.897449
_cell_length_b	21.395361
_cell_length_c	21.395355
_cell_angle_alpha	90.021511
_cell_angle_beta	89.976610
_cell_angle_gamma	89.968012
loop_
_atom_site_label
_atom_site_type_symbol
_atom_site_fract_x
_atom_site_fract_y
_atom_site_fract_z
Zn1	Zn	1.474641	0.249490	-0.354229
Zn2	Zn	1.474490	0.354250	-0.249446
Zn3	Zn	1.313322	0.249492	-0.249468
Zn4	Zn	1.313275	0.354236	-0.354188
O5	O	1.393932	0.301867	-0.301833
O6	O	1.609602	0.263391	-0.340337
O7	O	1.453068	0.340360	-0.161771
O8	O	1.334804	0.161814	-0.263391
O9	O	1.609492	0.340358	-0.263354
O10	O	1.453324	0.161812	-0.340358
O11	O	1.334659	0.263395	-0.161787
O12	O	1.178334	0.263382	-0.263351
O13	O	1.334723	0.340334	-0.441872
O14	O	1.178299	0.340337	-0.340289
O15	O	1.453278	0.263378	-0.441901
O16	O	1.453022	0.441926	-0.263314
O17	O	1.334578	0.441915	-0.340268
C18	C	1.143318	0.301858	-0.301818
C19	C	1.036104	0.301870	-0.301827
C20	C	1.393805	0.464654	-0.301798
C21	C	1.393838	0.534296	-0.301804
C22	C	1.394012	0.301854	-0.465256
C23	C	1.394046	0.301849	-0.534897
C24	C	0.839809	0.301872	-0.301844
C25	C	0.949041	0.301869	-0.301833
C26	C	1.645525	0.301876	-0.301847
C27	C	1.752739	0.301879	-0.301854
C28	C	1.394086	0.138443	-0.301881
C29	C	1.394152	0.068802	-0.301902
C30	C	1.455567	0.566993	-0.261775
C31	C	1.455612	0.632429	-0.261789
C32	C	1.393911	0.665164	-0.301825
C33	C	1.332178	0.632458	-0.341862
C34	C	1.332142	0.567024	-0.341851
C35	C	1.307060	0.768880	-0.306736
C36	C	1.307094	0.834313	-0.306743
C37	C	1.394023	0.866985	-0.301862
C38	C	1.480920	0.834215	-0.296962
C39	C	1.480884	0.768781	-0.296951
C40	C	1.393944	0.736116	-0.301842
C41	C	1.455806	0.970635	-0.261846
C42	C	1.455852	1.036071	-0.261865
C43	C	1.332410	1.036100	-0.341934
C44	C	1.332372	0.970665	-0.341919
C45	C	1.394069	0.937936	-0.301872
C46	C	1.455775	0.261776	-0.567627
C47	C	1.455774	0.261749	-0.633063
C48	C	1.394054	0.301806	-0.665766
C49	C	1.332313	0.341882	-0.633028
C50	C	1.332309	0.341903	-0.567594
C51	C	1.386393	0.358221	-0.769428
C52	C	1.386404	0.358201	-0.834861
C53	C	1.394060	0.301740	-0.867587
C54	C	1.401725	0.245297	-0.834871
C55	C	1.401722	0.245318	-0.769437
C56	C	1.394051	0.301787	-0.736718
C57	C	1.455790	0.261634	-0.971269
C58	C	1.455782	0.261606	-1.036706
C59	C	1.332327	0.341745	-1.036670
C60	C	1.332330	0.341767	-0.971235
C61	C	1.394067	0.301713	-0.938538
C62	C	1.393908	0.301834	-0.139045
C63	C	1.394061	0.301663	-0.069404
H64	H	1.505882	0.659056	-0.229193
O65	O	1.222700	0.866173	-0.311394
C66	C	1.114693	0.940174	-0.263459
C67	C	1.210282	0.904121	-0.258102
H68	H	1.104632	0.970873	-0.220384
H69	H	1.052510	0.905616	-0.266918
H70	H	1.116202	0.970756	-0.307069
H71	H	1.208868	0.873538	-0.214493
H72	H	1.272424	0.938713	-0.254678
O73	O	1.222522	0.737244	-0.311462
C74	C	1.050120	0.744247	-0.321214
C75	C	1.145781	0.780152	-0.315845
H76	H	0.988053	0.778923	-0.324772
H77	H	1.039877	0.713655	-0.278108
H78	H	1.051624	0.713575	-0.364785
H79	H	1.144346	0.810858	-0.272299
H80	H	1.155989	0.810705	-0.358982
H81	H	1.282057	0.374495	-0.659659
O82	O	1.515851	1.067739	-0.222920
C83	C	1.638311	1.060802	-0.143521
C84	C	1.570396	1.024860	-0.187584
H85	H	1.682443	1.026151	-0.114949
H86	H	1.594111	1.091467	-0.110700
H87	H	1.688707	1.091406	-0.172330
H88	H	1.519986	0.994223	-0.158825
H89	H	1.614656	0.994236	-0.220406
O90	O	1.515681	0.222906	-0.535770
C91	C	1.570289	0.187354	-0.434982
C92	C	1.502433	0.231427	-0.470983
H93	H	1.559587	0.194217	-0.382596
H94	H	1.648092	0.198334	-0.447806
H95	H	1.553376	0.136843	-0.447899
H96	H	1.519259	0.281952	-0.458086
H97	H	1.424650	0.220392	-0.458157
H98	H	1.407961	0.199361	-0.742802
O99	O	1.272512	0.380728	-1.068455
C100	C	1.259467	0.465278	-1.142345
C101	C	1.327319	0.421176	-1.106375
H102	H	1.303750	0.497983	-1.173022
H103	H	1.215371	0.493972	-1.107733
H104	H	1.209033	0.436494	-1.172942
H105	H	1.377811	0.449912	-1.075777
H106	H	1.371347	0.392480	-1.141021
O107	O	1.515598	0.535299	-0.222861
C108	C	1.638001	0.542179	-0.143422
C109	C	1.570078	0.578152	-0.187468
H110	H	1.682051	0.576810	-0.114785
H111	H	1.688465	0.511519	-0.172184
H112	H	1.593713	0.511569	-0.110656
H113	H	1.614288	0.608797	-0.220242
H114	H	1.519611	0.608773	-0.158666
H115	H	1.380168	0.404160	-0.861494
H116	H	1.379901	0.404187	-0.742789
O117	O	1.515647	0.222634	-0.939529
C118	C	1.562607	0.116068	-0.919544
C119	C	1.494745	0.160163	-0.955516
H120	H	1.545746	0.065552	-0.932466
H121	H	1.552000	0.122918	-0.867146
H122	H	1.640370	0.127100	-0.932422
H123	H	1.416957	0.149158	-0.942690
H124	H	1.505435	0.153305	-1.007904
O125	O	1.515834	0.222802	-0.664768
C126	C	1.638257	0.143303	-0.657903
C127	C	1.570304	0.187386	-0.621921
H128	H	1.682299	0.114648	-0.623277
H129	H	1.688727	0.172036	-0.688530
H130	H	1.593993	0.110555	-0.688547
H131	H	1.614490	0.220142	-0.591243
H132	H	1.519832	0.158614	-0.591334
H133	H	1.551638	0.742101	-0.292963
O134	O	1.272474	0.380789	-0.939467
C135	C	1.225504	0.487369	-0.919460
C136	C	1.293373	0.443249	-0.955463
H137	H	1.242363	0.537876	-0.932390
H138	H	1.236103	0.480559	-0.867068
H139	H	1.147743	0.476325	-0.932301
H140	H	1.371160	0.454265	-0.942674
H141	H	1.282690	0.450067	-1.007847
O142	O	1.272507	1.067988	-0.380770
C143	C	1.217907	1.168806	-0.416307
C144	C	1.285775	1.132767	-0.372279
H145	H	1.228625	1.221186	-0.409467
H146	H	1.140106	1.156042	-0.405258
H147	H	1.234794	1.155862	-0.466828
H148	H	1.268975	1.145691	-0.321743
H149	H	1.363556	1.145534	-0.383382
O150	O	1.409034	0.190395	-0.866578
C151	C	1.339493	0.089207	-0.886595
C152	C	1.331110	0.151345	-0.850637
H153	H	1.276490	0.057623	-0.873730
H154	H	1.409946	0.065122	-0.873736
H155	H	1.338217	0.098895	-0.938980
H156	H	1.332344	0.141712	-0.798244
H157	H	1.260665	0.175412	-0.863548
O158	O	1.515789	0.222761	-1.068573
C159	C	1.646055	0.214311	-1.142464
C160	C	1.578147	0.258375	-1.106422
H161	H	1.696502	0.243088	-1.173064
H162	H	1.601848	0.181547	-1.173127
H163	H	1.690133	0.185673	-1.107843
H164	H	1.534054	0.287054	-1.140998
H165	H	1.622409	0.291098	-1.075750
O166	O	1.565365	0.865968	-0.292339
C167	C	1.673452	0.939768	-0.340331
C168	C	1.577810	0.903835	-0.345652
H169	H	1.683535	0.970402	-0.383421
H170	H	1.735588	0.905132	-0.336868
H171	H	1.672007	0.970405	-0.296734
H172	H	1.579161	0.873197	-0.389246
H173	H	1.515715	0.938504	-0.349079
O174	O	1.515603	0.938808	-0.222885
C175	C	1.528602	0.864941	-0.138314
C176	C	1.460772	0.900955	-0.182387
H177	H	1.484299	0.834317	-0.105569
H178	H	1.572722	0.899524	-0.109663
H179	H	1.579014	0.834286	-0.167118
H180	H	1.410302	0.931611	-0.153631
H181	H	1.416720	0.866338	-0.211040
H182	H	1.281942	0.659116	-0.374461
H183	H	1.282038	0.374534	-0.540946
H184	H	1.282102	0.944040	-0.374512
H185	H	1.281874	0.540401	-0.374448
