data_functionalizedCrystal
_audit_creation_method	'MofGen! by Chris Wilmer'
_symmetry_space_group_name_H-M	'P1'
_symmetry_Int_Tables_number	1
_symmetry_cell_setting	triclinic
loop_
_symmetry_equiv_pos_as_xyz
  x,y,z
_cell_length_a	18.050590
_cell_length_b	18.050589
_cell_length_c	18.050583
_cell_angle_alpha	90.031910
_cell_angle_beta	89.997484
_cell_angle_gamma	90.015041
loop_
_atom_site_label
_atom_site_type_symbol
_atom_site_fract_x
_atom_site_fract_y
_atom_site_fract_z
Zn1	Zn	-1.135301	0.295868	-0.419568
Zn2	Zn	-0.635301	0.795868	0.080432
Zn3	Zn	-1.135209	0.420081	-0.295387
Zn4	Zn	-0.635209	0.920081	0.204613
Zn5	Zn	-1.011117	0.295880	-0.295432
Zn6	Zn	-0.511117	0.795880	0.204568
Zn7	Zn	-1.011068	0.419992	-0.419576
Zn8	Zn	-0.511068	0.919992	0.080424
O9	O	-1.073174	0.357955	-0.357491
O10	O	-0.573174	0.857955	0.142509
O11	O	-1.239213	0.312377	-0.403073
O12	O	-0.739213	0.812377	0.096927
O13	O	-1.118730	0.403648	-0.191468
O14	O	-0.618730	0.903648	0.308532
O15	O	-1.027650	0.191954	-0.311914
O16	O	-0.527650	0.691954	0.188086
O17	O	-1.239146	0.403635	-0.311838
O18	O	-0.739146	0.903635	0.188162
O19	O	-1.118886	0.191945	-0.403116
O20	O	-0.618886	0.691945	0.096884
O21	O	-1.027561	0.312398	-0.191501
O22	O	-0.527561	0.812398	0.308499
O23	O	-0.907186	0.312312	-0.311922
O24	O	-0.407186	0.812312	0.188078
O25	O	-1.027565	0.403484	-0.523499
O26	O	-0.527565	0.903484	-0.023499
O27	O	-0.907150	0.403496	-0.403130
O28	O	-0.407150	0.903496	0.096870
O29	O	-1.118838	0.312290	-0.523493
O30	O	-0.618838	0.812290	-0.023493
O31	O	-1.118682	0.523993	-0.311846
O32	O	-0.618682	1.023993	0.188154
O33	O	-1.027476	0.523928	-0.403087
O34	O	-0.527476	1.023928	0.096913
C35	C	-0.880221	0.357896	-0.357532
C36	C	-0.380221	0.857896	0.142468
C37	C	-0.797676	0.357889	-0.357568
C38	C	-0.297676	0.857889	0.142432
C39	C	-0.598227	0.407609	-0.407059
C40	C	-0.098227	0.907609	0.092941
C41	C	-0.548834	0.339888	-0.425331
C42	C	-0.048834	0.839888	0.074669
C43	C	-0.646545	0.357924	-0.357539
C44	C	-0.146545	0.857924	0.142461
C45	C	-0.548856	0.425679	-0.339273
C46	C	-0.048856	0.925679	0.160727
C47	C	-0.500560	0.357965	-0.357513
C48	C	-0.000560	0.857965	0.142487
C49	C	-0.598240	0.290167	-0.375847
C50	C	-0.098240	0.790167	0.124153
C51	C	-0.598267	0.376004	-0.289757
C52	C	-0.098267	0.876004	0.210243
C53	C	-0.548896	0.308236	-0.308004
C54	C	-0.048896	0.808236	0.191996
C55	C	-0.730644	0.357902	-0.357556
C56	C	-0.230644	0.857902	0.142444
C57	C	-0.416464	0.357979	-0.357495
C58	C	0.083536	0.857979	0.142505
C59	C	-1.073084	0.550907	-0.357478
C60	C	-0.573084	1.050907	0.142522
C61	C	-1.073114	0.633453	-0.357498
C62	C	-0.573114	1.133453	0.142502
C63	C	-1.073206	0.357876	-0.551196
C64	C	-0.573206	0.857876	-0.051196
C65	C	-1.073220	0.357842	-0.633742
C66	C	-0.573220	0.857842	-0.133742
C67	C	-0.266879	0.358004	-0.357462
C68	C	0.233121	0.858004	0.142538
C69	C	-0.349425	0.357999	-0.357481
C70	C	0.150575	0.857999	0.142519
C71	C	-1.073284	0.164249	-0.357519
C72	C	-0.573284	0.664249	0.142481
C73	C	-1.073331	0.081704	-0.357531
C74	C	-0.573331	0.581704	0.142469
C75	C	-1.023565	0.832895	-0.407097
C76	C	-0.523565	1.332895	0.092903
C77	C	-1.005465	0.882341	-0.339336
C78	C	-0.505465	1.382341	0.160664
C79	C	-1.073186	0.784583	-0.357508
C80	C	-0.573186	1.284583	0.142492
C81	C	-1.091322	0.882219	-0.425277
C82	C	-0.591322	1.382219	0.074723
C83	C	-1.073256	0.930568	-0.357523
C84	C	-0.573256	1.430568	0.142477
C85	C	-1.055052	0.832942	-0.289710
C86	C	-0.555052	1.332942	0.210290
C87	C	-1.140940	0.832816	-0.375697
C88	C	-0.640940	1.332816	0.124303
C89	C	-1.122867	0.882239	-0.307889
C90	C	-0.622867	1.382239	0.192111
C91	C	-1.073145	0.700485	-0.357500
C92	C	-0.573145	1.200485	0.142500
C93	C	-1.073297	1.014665	-0.357523
C94	C	-0.573297	1.514665	0.142477
C95	C	-1.122904	0.308227	-0.833190
C96	C	-0.622904	0.808227	-0.333190
C97	C	-1.055171	0.290035	-0.882605
C98	C	-0.555171	0.790035	-0.382605
C99	C	-1.073250	0.357829	-0.784873
C100	C	-0.573250	0.857829	-0.284873
C101	C	-1.141011	0.375974	-0.882539
C102	C	-0.641011	0.875974	-0.382539
C103	C	-1.073285	0.357815	-0.930858
C104	C	-0.573285	0.857815	-0.430858
C105	C	-1.005481	0.339602	-0.833201
C106	C	-0.505481	0.839602	-0.333201
C107	C	-1.091366	0.425573	-0.833130
C108	C	-0.591366	0.925573	-0.333130
C109	C	-1.023586	0.407407	-0.882523
C110	C	-0.523586	0.907407	-0.382523
C111	C	-1.073231	0.357835	-0.700774
C112	C	-0.573231	0.857835	-0.200774
C113	C	-1.073296	0.357810	-1.014954
C114	C	-0.573296	0.857810	-0.514954
C115	C	-1.073184	0.357980	-0.164539
C116	C	-0.573184	0.857980	0.335461
C117	C	-1.073314	0.357805	-0.081993
C118	C	-0.573314	0.857805	0.418007
H119	H	-0.527372	0.266188	-0.266116
H120	H	-0.027372	0.766188	0.233884
H121	H	-0.619889	0.449554	-0.448980
H122	H	-0.119889	0.949554	0.051020
Br123	Br	-1.029424	0.797020	-0.194168
Br124	Br	-0.529424	1.297020	0.305832
H125	H	-0.527121	0.324608	-0.482642
H126	H	-0.027121	0.824608	0.017358
Br127	Br	-1.192862	0.918124	-0.237927
Br128	Br	-0.692862	1.418124	0.262073
Br129	Br	-0.953525	0.796781	-0.476898
Br130	Br	-0.453525	1.296781	0.023102
H131	H	-1.198192	0.811047	-0.391100
H132	H	-0.698192	1.311047	0.108900
H133	H	-0.981562	0.449348	-0.904048
H134	H	-0.481562	0.949348	-0.404048
H135	H	-0.619841	0.232868	-0.391350
H136	H	-0.119841	0.732868	0.108650
H137	H	-1.198301	0.391325	-0.904215
H138	H	-0.698301	0.891325	-0.404215
Br139	Br	-0.634456	0.401488	-0.194246
Br140	Br	-0.134456	0.901488	0.305754
H141	H	-1.106634	0.903865	-0.482582
H142	H	-0.606634	1.403865	0.017418
H143	H	-0.527161	0.482960	-0.323837
H144	H	-0.027161	0.982960	0.176163
H145	H	-0.948201	0.904112	-0.323965
H146	H	-0.448201	1.404112	0.176035
H147	H	-1.164827	0.266254	-0.811526
H148	H	-0.664827	0.766254	-0.311526
H149	H	-0.948174	0.324183	-0.811619
H150	H	-0.448174	0.824183	-0.311619
Br151	Br	-1.029647	0.194542	-0.918829
Br152	Br	-0.529647	0.694542	-0.418829
H153	H	-1.106699	0.482852	-0.811384
H154	H	-0.606699	0.982852	-0.311384
