data_functionalizedCrystal
_audit_creation_method	'MofGen! by Chris Wilmer'
_symmetry_space_group_name_H-M	'P1'
_symmetry_Int_Tables_number	1
_symmetry_cell_setting	triclinic
loop_
_symmetry_equiv_pos_as_xyz
  x,y,z
_cell_length_a	14.908571
_cell_length_b	25.639239
_cell_length_c	14.908308
_cell_angle_alpha	93.262277
_cell_angle_beta	90.175053
_cell_angle_gamma	86.734636
loop_
_atom_site_label
_atom_site_type_symbol
_atom_site_fract_x
_atom_site_fract_y
_atom_site_fract_z
Zn1	Zn	1.345148	-0.272845	-0.587542
Zn2	Zn	1.353683	-0.355542	-0.437170
Zn3	Zn	1.203468	-0.262803	-0.428541
Zn4	Zn	1.194711	-0.354921	-0.578822
O5	O	1.274253	-0.311528	-0.508019
O6	O	1.472104	-0.288277	-0.574855
O7	O	1.340994	-0.339297	-0.310201
O8	O	1.222355	-0.190974	-0.449671
O9	O	1.478375	-0.349035	-0.464378
O10	O	1.326446	-0.198352	-0.566488
O11	O	1.230632	-0.271162	-0.303862
O12	O	1.076483	-0.270560	-0.441216
O13	O	1.207430	-0.347976	-0.705803
O14	O	1.070049	-0.338239	-0.551626
O15	O	1.317955	-0.287675	-0.712209
O16	O	1.332503	-0.428620	-0.455922
O17	O	1.215707	-0.428164	-0.559993
C18	C	1.040642	-0.303242	-0.494539
C19	C	0.940701	-0.299711	-0.488793
C20	C	0.746258	-0.363649	-0.592813
C21	C	0.652355	-0.360332	-0.587418
C22	C	0.658987	-0.289761	-0.472613
C23	C	0.752891	-0.293077	-0.478008
C24	C	0.796523	-0.330022	-0.538109
C25	C	0.890429	-0.333341	-0.543499
C26	C	0.897060	-0.262767	-0.428700
C27	C	0.803156	-0.259451	-0.423304
C28	C	1.274104	-0.447364	-0.507969
C29	C	1.274121	-0.505479	-0.507982
C30	C	1.335213	-0.866081	-0.453936
C31	C	1.335247	-0.920687	-0.453950
O32	O	1.387035	-0.949120	-0.407943
N33	N	1.274407	-0.947774	-0.508087
C34	C	1.213536	-0.920253	-0.562222
O35	O	1.161791	-0.948307	-0.608272
C36	C	1.213506	-0.865649	-0.562212
C37	C	1.274344	-0.838564	-0.508064
C38	C	1.396046	-0.838996	-0.399793
C39	C	1.396010	-0.784393	-0.399778
C40	C	1.335142	-0.756876	-0.453906
C41	C	1.274309	-0.783961	-0.508048
C42	C	1.152640	-0.838129	-0.616350
C43	C	1.152616	-0.783521	-0.616336
C44	C	1.213454	-0.756436	-0.562188
C45	C	1.213404	-0.701842	-0.562161
N46	N	1.274244	-0.674754	-0.508024
C47	C	1.335113	-0.702272	-0.453896
C48	C	1.213603	-1.034927	-0.562239
C49	C	1.213627	-1.089530	-0.562245
C50	C	1.335339	-1.089960	-0.453974
C51	C	1.335310	-1.035355	-0.453964
C52	C	1.274442	-1.007839	-0.508102
C53	C	1.335033	-0.587603	-0.453867
C54	C	1.334989	-0.532996	-0.453854
C55	C	1.213280	-0.532571	-0.562128
C56	C	1.213320	-0.587173	-0.562138
C57	C	1.274204	-0.614688	-0.508005
O58	O	1.161645	-0.673375	-0.608147
O59	O	1.386857	-0.674211	-0.407862
C60	C	1.508776	-0.319846	-0.521552
C61	C	1.608716	-0.323390	-0.527319
C62	C	1.260764	-0.318877	-0.742543
C63	C	1.255015	-0.322008	-0.842483
C64	C	1.274426	-0.175163	-0.508090
C65	C	1.274499	-0.117052	-0.508120
C66	C	1.359301	-0.265089	-1.036954
C67	C	1.353903	-0.268030	-1.130857
C68	C	1.238817	-0.330827	-1.124193
C69	C	1.244215	-0.327887	-1.030291
C70	C	1.304460	-0.295017	-0.986674
C71	C	1.309862	-0.292079	-0.892770
C72	C	1.194772	-0.354874	-0.886108
C73	C	1.189374	-0.357814	-0.980011
C74	C	1.287741	-0.304171	-0.274410
C75	C	1.293664	-0.300899	-0.174480
H76	H	1.384531	-0.510945	-0.409757
H77	H	1.445552	-0.762344	-0.355688
H78	H	0.925953	-0.363425	-0.592435
H79	H	1.163784	-0.609227	-0.606233
H80	H	0.767618	-0.229369	-0.374374
H81	H	1.408359	-0.238328	-1.001442
H82	H	1.358918	-0.265316	-0.857259
H83	H	0.937996	-0.235387	-0.384154
C84	C	1.146337	-0.502298	-0.621676
H85	H	1.110105	-0.526247	-0.653926
H86	H	1.178447	-0.483416	-0.662850
H87	H	1.109150	-0.478560	-0.584986
C88	C	1.414232	-0.235113	-1.186163
H89	H	1.450887	-0.215120	-1.146735
H90	H	1.377761	-0.212262	-1.220824
H91	H	1.451283	-0.257652	-1.225041
H92	H	0.781785	-0.393734	-0.641745
H93	H	0.611432	-0.387713	-0.631965
C94	C	1.123111	-0.393970	-1.027989
H95	H	1.091220	-0.411371	-0.984592
H96	H	1.155374	-0.419113	-1.066596
H97	H	1.081845	-0.373727	-1.062367
C98	C	1.172546	-0.366974	-1.172181
H99	H	1.177189	-0.364438	-1.235307
H100	H	1.113029	-0.356698	-1.153307
H101	H	1.186548	-0.402091	-1.157545
C102	C	1.402292	-1.120235	-0.394431
H103	H	1.393596	-1.156634	-0.402201
H104	H	1.392652	-1.108950	-0.333249
H105	H	1.461936	-1.113806	-0.411124
C106	C	0.610982	-0.249130	-0.406500
H107	H	0.547858	-0.251976	-0.411119
H108	H	0.625637	-0.214969	-0.420636
H109	H	0.629825	-0.255388	-0.346946
C110	C	1.134444	-0.387795	-0.830798
H111	H	1.146283	-0.381335	-0.768625
H112	H	1.146676	-0.423870	-0.846933
H113	H	1.073152	-0.378481	-0.842704
C114	C	1.462995	-0.869258	-0.340236
H115	H	1.454311	-0.905659	-0.347986
H116	H	1.453341	-0.857962	-0.279060
H117	H	1.522638	-0.862825	-0.356924
C118	C	1.401997	-0.617861	-0.394316
H119	H	1.438211	-0.593903	-0.362065
H120	H	1.439186	-0.641598	-0.430996
H121	H	1.369895	-0.636743	-0.353127
H122	H	1.164029	-1.012526	-0.606321
C123	C	1.402237	-1.005567	-0.394410
H124	H	1.438493	-1.029781	-0.362181
H125	H	1.370125	-0.981845	-0.353217
H126	H	1.439402	-0.986705	-0.431098
H127	H	1.164079	-1.111578	-0.606329
H128	H	1.103095	-0.860172	-0.660439
H129	H	1.103051	-0.761120	-0.660424
