data_functionalizedCrystal
_audit_creation_method	'MofGen! by Chris Wilmer'
_symmetry_space_group_name_H-M	'P1'
_symmetry_Int_Tables_number	1
_symmetry_cell_setting	triclinic
loop_
_symmetry_equiv_pos_as_xyz
  x,y,z
_cell_length_a	31.640171
_cell_length_b	31.640172
_cell_length_c	19.851628
_cell_angle_alpha	89.999210
_cell_angle_beta	59.974462
_cell_angle_gamma	59.992468
loop_
_atom_site_label
_atom_site_type_symbol
_atom_site_fract_x
_atom_site_fract_y
_atom_site_fract_z
Zr1	Zr	0.462748	0.407058	-0.088667
O2	O	0.550970	0.339546	-0.196314
O3	O	0.374537	0.427770	-0.055621
O4	O	0.462753	0.427749	-0.196229
O5	O	0.462746	0.339566	0.055156
O6	O	0.462744	0.497306	-0.196214
O7	O	0.462754	0.339567	-0.055706
O8	O	0.304941	0.497344	0.055308
O9	O	0.620549	0.339527	-0.196366
O10	O	0.410808	0.488494	-0.041572
O11	O	0.410809	0.436583	0.041152
O12	O	0.514672	0.436557	-0.124396
O13	O	0.514673	0.384646	-0.041672
Zr14	Zr	0.462721	0.517990	0.088169
Zr15	Zr	0.462734	0.517993	-0.088643
Zr16	Zr	0.462735	0.407055	0.088145
Zr17	Zr	0.573717	0.407028	-0.088750
Zr18	Zr	0.351751	0.518020	0.088252
O19	O	0.550932	0.497278	0.055123
O20	O	0.550950	0.497282	-0.196281
O21	O	0.550952	0.339542	0.055089
O22	O	0.374498	0.585502	0.195816
O23	O	0.374517	0.585506	-0.055588
O24	O	0.374518	0.427766	0.195782
O25	O	0.462723	0.585482	-0.055654
O26	O	0.462715	0.497299	0.195731
O27	O	0.462724	0.427742	0.195716
O28	O	0.462715	0.585480	0.055208
O29	O	0.620538	0.427706	-0.196348
O30	O	0.304931	0.497342	0.195849
O31	O	0.304920	0.585521	0.195868
O32	O	0.304930	0.585523	0.055326
O33	O	0.620538	0.339525	-0.055825
O34	O	0.620527	0.427703	-0.055806
O35	O	0.410796	0.488491	0.123898
O36	O	0.410796	0.540402	0.041174
O37	O	0.514660	0.488465	-0.041650
O38	O	0.514660	0.436554	0.041074
C39	C	0.323928	0.462562	-0.000145
C40	C	0.276818	0.462574	-0.000110
C41	C	0.462752	0.323761	-0.000279
C42	C	0.462758	0.276666	-0.000289
C43	C	-0.059404	0.435427	0.042939
C44	C	0.117550	0.435455	0.043012
O45	O	0.140412	0.412430	0.079771
N46	N	0.139678	0.462555	-0.000161
C47	C	0.117563	0.489654	-0.043350
O48	O	0.140440	0.512710	-0.080063
C49	C	-0.059393	0.489629	-0.043418
C50	C	-0.081515	0.462522	-0.000249
C51	C	-0.081526	0.408323	0.086105
C52	C	-0.125760	0.408314	0.086083
C53	C	-0.147871	0.435409	0.042895
C54	C	-0.125749	0.462513	-0.000271
C55	C	-0.081511	0.516730	-0.086602
C56	C	-0.125754	0.516723	-0.086613
C57	C	-0.147876	0.489616	-0.043445
C58	C	-0.192093	0.489600	-0.043482
N59	N	-0.214222	0.462499	-0.000309
C60	C	-0.192110	0.435404	0.042879
C61	C	0.210468	0.489664	-0.043313
C62	C	0.254707	0.489670	-0.043298
C63	C	0.254691	0.435471	0.043066
C64	C	0.210453	0.435463	0.043045
C65	C	0.188339	0.462563	-0.000141
C66	C	-0.285003	0.435387	0.042829
C67	C	-0.329239	0.435378	0.042800
C68	C	-0.329221	0.489579	-0.043560
C69	C	-0.284987	0.489585	-0.043535
C70	C	-0.262881	0.462488	-0.000335
O71	O	-0.214987	0.512616	-0.080214
O72	O	-0.215005	0.412361	0.079601
C73	C	-0.015170	0.435436	0.042962
C74	C	0.006952	0.462540	-0.000204
C75	C	-0.015159	0.489635	-0.043393
C76	C	0.051191	0.462546	-0.000189
C77	C	0.073303	0.435450	0.042999
C78	C	0.051174	0.408350	0.086172
C79	C	0.006941	0.408341	0.086150
C80	C	0.006969	0.516736	-0.086566
C81	C	0.051203	0.516742	-0.086541
C82	C	0.073314	0.489647	-0.043352
C83	C	0.408513	0.011770	0.043001
C84	C	0.408502	-0.165215	0.043017
O85	O	0.362393	-0.165045	0.079815
N86	N	0.462718	-0.214455	-0.000217
C87	C	0.516940	-0.219448	-0.043454
O88	O	0.563053	-0.265391	-0.080220
C89	C	0.516949	-0.042464	-0.043465
C90	C	0.462730	0.006776	-0.000235
C91	C	0.354298	0.061007	0.086228
C92	C	0.354301	0.105251	0.086220
C93	C	0.408519	0.100257	0.042984
C94	C	0.462733	0.051019	-0.000243
C95	C	0.571171	-0.047457	-0.086697
C96	C	0.571168	-0.003206	-0.086694
C97	C	0.516949	0.046034	-0.043464
C98	C	0.516954	0.090269	-0.043487
N99	N	0.462739	0.139509	-0.000253
C100	C	0.408521	0.144503	0.042983
C101	C	0.516931	-0.312366	-0.043447
C102	C	0.516928	-0.356612	-0.043445
C103	C	0.408491	-0.302375	0.043027
C104	C	0.408494	-0.258129	0.043021
C105	C	0.462715	-0.263126	-0.000212
C106	C	0.408532	0.237415	0.042962
C107	C	0.408540	0.281660	0.042947
C108	C	0.516977	0.227420	-0.043522
C109	C	0.516970	0.183179	-0.043511
C110	C	0.462742	0.188180	-0.000263
O111	O	0.563039	0.090137	-0.080259
O112	O	0.362415	0.190450	0.079759
C113	C	0.408509	-0.032473	0.043009
C114	C	0.462724	-0.081711	-0.000219
C115	C	0.516942	-0.086705	-0.043454
C116	C	0.462722	-0.125957	-0.000217
C117	C	0.408504	-0.120963	0.043019
C118	C	0.354289	-0.071723	0.086253
C119	C	0.354292	-0.027479	0.086245
C120	C	0.571157	-0.135945	-0.086689
C121	C	0.571150	-0.180186	-0.086678
C122	C	0.516932	-0.175192	-0.043442
C123	C	0.601540	0.462486	-0.000353
C124	C	0.648650	0.462473	-0.000389
C125	C	0.462750	0.462527	-0.221414
C126	C	0.462756	0.462529	-0.296475
C127	C	0.462717	0.601287	-0.000220
C128	C	0.462711	0.648382	-0.000210
C129	C	0.519374	0.434203	-0.522979
C130	C	0.491061	0.483018	-0.545312
C131	C	0.462740	0.462527	-0.433882
C132	C	0.491057	0.413715	-0.545290
C133	C	0.462730	0.462521	-0.566614
C134	C	0.434428	0.511370	-0.455225
C135	C	0.434431	0.442032	-0.455206
C136	C	0.406077	0.490876	-0.477485
C137	C	0.462748	0.462530	-0.357419
C138	C	0.462717	0.462523	-0.643071
C139	C	0.462718	0.462520	0.220915
C140	C	0.462712	0.462519	0.295977
C141	C	0.323910	0.601325	-0.000115
C142	C	0.276795	0.648433	-0.000070
C143	C	0.323912	0.462558	0.221020
C144	C	0.276797	0.462570	0.296116
C145	C	0.323894	0.601322	0.221049
C146	C	0.276773	0.648428	0.296156
C147	C	0.601574	0.323726	-0.221547
C148	C	0.648695	0.276620	-0.296654
C149	C	0.601558	0.323723	-0.000383
C150	C	0.648673	0.276615	-0.000428
C151	C	0.601557	0.462490	-0.221518
C152	C	0.648672	0.462478	-0.296614
C153	C	0.254676	0.643460	-0.043249
C154	C	0.210412	0.687718	-0.043223
C155	C	0.188265	0.736949	-0.000013
C156	C	0.210389	0.741922	0.043167
C157	C	0.254655	0.697664	0.043136
C158	C	0.254664	0.489671	0.374582
C159	C	0.210401	0.489680	0.445150
C160	C	0.188268	0.462590	0.437250
C161	C	0.210404	0.435486	0.358776
C162	C	0.254670	0.435474	0.288210
C163	C	0.254644	0.697652	0.288246
C164	C	0.210375	0.741917	0.358809
C165	C	0.188233	0.736959	0.437283
C166	C	0.210366	0.687730	0.445191
C167	C	0.254637	0.643465	0.374628
C168	C	0.670829	0.227396	-0.288744
C169	C	0.715112	0.183131	-0.359308
C170	C	0.737257	0.188089	-0.437781
C171	C	0.715121	0.237318	-0.445689
C172	C	0.670842	0.281583	-0.375126
C173	C	0.670797	0.281588	0.042743
C174	C	0.715073	0.237330	0.042697
C175	C	0.737222	0.188099	-0.000515
C176	C	0.715096	0.183126	-0.043692
C177	C	0.670824	0.227384	-0.043650
C178	C	0.670791	0.489573	-0.288688
C179	C	0.715055	0.489572	-0.359243
C180	C	0.737201	0.462473	-0.437723
C181	C	0.715078	0.435378	-0.445647
C182	C	0.670812	0.435382	-0.375094
H183	H	-0.347247	0.413302	0.077952
N184	N	0.646962	0.222010	-0.090209
H185	H	0.602525	0.239167	-0.050562
H186	H	0.654702	0.239149	-0.133678
H187	H	0.192377	0.413431	0.352356
N188	N	0.582799	0.402528	-0.547459
H189	H	0.611574	0.388426	-0.609620
H190	H	0.589453	0.425132	-0.524059
H191	H	0.652821	0.321661	-0.381577
N192	N	0.402762	0.419055	-0.403769
H193	H	0.367178	0.445679	-0.347394
H194	H	0.388755	0.408296	-0.431811
N195	N	0.278535	0.518885	0.383119
H196	H	0.309937	0.514770	0.326514
H197	H	0.244723	0.556788	0.414346
H198	H	0.733136	0.143036	-0.078874
N199	N	0.186481	0.682386	0.529832
H200	H	0.155076	0.717899	0.573327
H201	H	0.168144	0.662829	0.536380
H202	H	0.733157	0.241349	-0.509591
H203	H	0.652807	0.413316	-0.381559
N204	N	0.785014	0.140344	-0.513885
H205	H	0.795671	0.108410	-0.496959
H206	H	0.769580	0.140370	-0.547789
H207	H	0.272707	0.603377	-0.078446
N208	N	0.278490	0.590378	0.383176
H209	H	0.270783	0.570817	0.355850
H210	H	0.322920	0.570830	0.355820
N211	N	0.186625	0.518888	-0.089906
H212	H	0.142183	0.546163	-0.050284
H213	H	0.207404	0.536020	-0.117251
H214	H	0.733116	0.413315	-0.509555
H215	H	0.652766	0.511640	-0.224792
H216	H	0.652767	0.321671	0.077937
H217	H	0.733063	0.511636	-0.352774
H218	H	0.152220	0.772983	0.000007
H219	H	0.192350	0.782012	0.078347
N220	N	0.646953	0.222035	-0.204114
H221	H	0.680727	0.202482	-0.197538
H222	H	0.615533	0.257559	-0.160653
N223	N	0.784940	0.462477	-0.513816
H224	H	0.795588	0.483755	-0.496879
H225	H	0.821651	0.425758	-0.547775
H226	H	-0.267009	0.413320	0.078005
N227	N	0.738931	0.242699	0.089269
H228	H	0.718175	0.280604	0.116655
H229	H	0.731231	0.225520	0.132688
H230	H	-0.011067	0.386268	0.121302
N231	N	0.075060	0.545982	-0.133100
H232	H	0.119505	0.521133	-0.176581
H233	H	0.054294	0.563145	-0.160407
H234	H	-0.143769	0.386243	0.121239
N235	N	0.140518	0.462614	0.513370
H236	H	0.103783	0.478048	0.513440
H237	H	0.155972	0.425903	0.513353
H238	H	0.773271	0.152065	-0.000542
N239	N	-0.057685	0.379099	0.132696
H240	H	-0.078420	0.361932	0.160036
H241	H	-0.013241	0.351852	0.093024
H242	H	-0.143758	0.538793	-0.121779
N243	N	0.738980	0.130039	-0.350767
H244	H	0.718225	0.133618	-0.290346
H245	H	0.731287	0.110497	-0.378150
H246	H	0.192445	0.413390	0.078197
H247	H	0.272722	0.511736	-0.078460
N248	N	0.278537	0.406248	0.089655
H249	H	0.322981	0.378976	0.050030
H250	H	0.270759	0.431148	0.133143
N251	N	-0.057657	0.545966	-0.133165
H252	H	-0.078386	0.563130	-0.160518
H253	H	-0.065394	0.573218	-0.093476
H254	H	-0.266969	0.511652	-0.078697
H255	H	-0.011031	0.538801	-0.121734
N256	N	0.522758	0.505978	-0.596751
H257	H	0.501797	0.542638	-0.562999
H258	H	0.565535	0.484524	-0.614548
H259	H	-0.347229	0.511638	-0.078727
H260	H	0.192382	0.511753	0.509041
H261	H	0.272684	0.413407	0.224322
H262	H	0.069187	0.386285	0.121334
N263	N	0.350014	-0.296997	0.089658
H264	H	0.347602	-0.314149	0.133116
H265	H	0.315697	-0.259083	0.117001
H266	H	0.364386	0.321753	0.078153
H267	H	0.310150	0.145340	0.121419
N268	N	0.350045	0.242812	0.089607
H269	H	0.315706	0.280720	0.116986
H270	H	0.347683	0.225634	0.049958
N271	N	0.278513	0.703014	0.203617
H272	H	0.296878	0.722554	0.197002
H273	H	0.309894	0.667491	0.160154
N274	N	0.278508	0.703031	0.089713
H275	H	0.257757	0.740936	0.117090
H276	H	0.270797	0.685859	0.133140
H277	H	0.310145	0.065083	0.121440
N278	N	0.350016	-0.205023	0.089645
H279	H	0.315672	-0.208579	0.117030
H280	H	0.347646	-0.185480	0.133068
H281	H	0.561079	-0.396702	-0.078659
H282	H	0.561087	-0.316443	-0.078658
H283	H	0.192359	0.781997	0.352355
N284	N	0.629651	-0.100559	-0.133319
H285	H	0.663992	-0.096999	-0.160699
H286	H	0.632006	-0.120092	-0.093659
N287	N	0.402759	0.566071	-0.403961
H288	H	0.402981	0.565734	-0.353262
H289	H	0.424014	0.581559	-0.437714
H290	H	0.152184	0.773006	0.494733
H291	H	0.358152	0.514859	-0.458838
N292	N	0.522773	0.359039	-0.596705
H293	H	0.565551	0.337681	-0.614499
H294	H	0.501773	0.343388	-0.562895
H295	H	0.615323	-0.007280	-0.121890
N296	N	0.575446	0.130068	-0.090149
H297	H	0.609793	0.133620	-0.117544
H298	H	0.577806	0.110533	-0.050494
H299	H	0.310141	0.012610	0.121449
N300	N	0.575453	0.222039	-0.090158
H301	H	0.567223	0.257541	-0.083596
H302	H	0.599124	0.202468	-0.067498
H303	H	0.310142	-0.067663	0.121452
N304	N	0.186558	0.682343	-0.089798
H305	H	0.168193	0.662803	-0.067125
H306	H	0.155181	0.717864	-0.083220
N307	N	0.629633	-0.233294	-0.133311
H308	H	0.663977	-0.229738	-0.160697
H309	H	0.631989	-0.252827	-0.093651
H310	H	0.615309	-0.140019	-0.121899
