data_functionalizedCrystal
_audit_creation_method	'MofGen! by Chris Wilmer'
_symmetry_space_group_name_H-M	'P1'
_symmetry_Int_Tables_number	1
_symmetry_cell_setting	triclinic
loop_
_symmetry_equiv_pos_as_xyz
  x,y,z
_cell_length_a	19.288864
_cell_length_b	11.295501
_cell_length_c	19.288865
_cell_angle_alpha	94.616591
_cell_angle_beta	83.136245
_cell_angle_gamma	94.625353
loop_
_atom_site_label
_atom_site_type_symbol
_atom_site_fract_x
_atom_site_fract_y
_atom_site_fract_z
O1	O	0.925526	0.099423	0.090825
O2	O	1.425526	0.599423	0.590825
O3	O	0.723262	0.099344	0.102510
O4	O	1.223262	0.599344	0.602510
O5	O	0.830237	0.099362	-0.004464
O6	O	1.330237	0.599362	0.495536
O7	O	0.818550	0.099405	0.197798
O8	O	1.318550	0.599405	0.697798
O9	O	0.821906	-0.098694	-0.012788
O10	O	1.321906	0.401306	0.487212
O11	O	0.714931	-0.098712	0.094186
O12	O	1.214931	0.401288	0.594186
O13	O	0.917195	-0.098633	0.082501
O14	O	1.417195	0.401367	0.582501
Cu15	Cu	0.815302	-0.116757	0.087583
Cu16	Cu	1.315302	0.383243	0.587583
Cu17	Cu	0.825154	0.117468	0.097427
Cu18	Cu	1.325154	0.617468	0.597427
O19	O	0.810220	-0.098651	0.189475
O20	O	1.310220	0.401349	0.689475
C21	C	0.693219	0.000305	0.097971
C22	C	1.193219	0.500305	0.597971
C23	C	0.616115	0.000274	0.096841
C24	C	1.116115	0.500274	0.596841
C25	C	0.571420	0.000306	0.159610
C26	C	1.071420	0.500306	0.659610
C27	C	0.498973	0.000319	0.158550
C28	C	0.998973	0.500319	0.658550
C29	C	0.471226	0.000324	0.094718
C30	C	0.971226	0.500324	0.594718
C31	C	0.515930	0.000285	0.031941
C32	C	1.015930	0.500285	0.531941
C33	C	0.588375	0.000260	0.033002
C34	C	1.088375	0.500260	0.533002
C35	C	0.365884	0.069741	0.047457
C36	C	0.865884	0.569741	0.547457
C37	C	0.293440	0.069773	0.046398
C38	C	0.793440	0.569773	0.546398
C39	C	0.247783	0.000395	0.091442
C40	C	0.747783	0.500395	0.591442
C41	C	0.274577	-0.069000	0.137556
C42	C	0.774577	0.431000	0.637556
C43	C	0.347021	-0.069025	0.138618
C44	C	0.847021	0.430975	0.638618
C45	C	0.392673	0.000350	0.093560
C46	C	0.892673	0.500350	0.593560
C47	C	0.124533	0.000439	0.153066
C48	C	0.624533	0.500439	0.653066
C49	C	0.052085	0.000445	0.152003
C50	C	0.552085	0.500445	0.652003
C51	C	0.069044	0.000423	0.025392
C52	C	0.569044	0.500423	0.525392
C53	C	0.141490	0.000405	0.026456
C54	C	0.641490	0.500405	0.526456
C55	C	0.169230	0.000419	0.090295
C56	C	0.669230	0.500419	0.590295
N57	N	0.808378	-0.281497	0.080659
N58	N	1.308378	0.218503	0.580659
C59	C	0.881921	-0.530741	0.154222
C60	C	1.381921	-0.030741	0.654222
C61	C	0.876694	-0.655408	0.148984
C62	C	1.376694	-0.155408	0.648984
C63	C	0.792700	-0.655500	0.064941
C64	C	1.292700	-0.155500	0.564941
C65	C	0.797928	-0.530833	0.070179
C66	C	1.297928	-0.030833	0.570179
C67	C	0.842539	-0.468458	0.114822
C68	C	1.342539	0.031542	0.614822
C69	C	0.847762	-0.343789	0.120064
C70	C	1.347762	0.156211	0.620064
C71	C	0.763772	-0.343884	0.036018
C72	C	1.263772	0.156116	0.536018
C73	C	0.758545	-0.468551	0.030779
C74	C	1.258545	0.031449	0.530779
C75	C	0.947237	0.000409	0.087039
C76	C	1.447237	0.500409	0.587039
C77	C	1.024343	0.000448	0.088170
C78	C	1.524343	0.500448	0.588170
C79	C	0.825696	0.000331	-0.034502
C80	C	1.325696	0.500331	0.465498
C81	C	0.824566	0.000320	-0.111607
C82	C	1.324566	0.500320	0.388393
N83	N	0.832084	0.282208	0.104346
N84	N	1.332084	0.782208	0.604346
C85	C	0.887335	0.000339	-0.156302
C86	C	1.387335	0.500339	0.343698
C87	C	0.886275	0.000357	-0.228748
C88	C	1.386275	0.500357	0.271252
C89	C	0.822442	0.000333	-0.256497
C90	C	1.322442	0.500333	0.243503
C91	C	0.759665	0.000320	-0.211791
C92	C	1.259665	0.500320	0.288209
C93	C	0.760727	0.000314	-0.139346
C94	C	1.260727	0.500314	0.360654
C95	C	0.769343	-0.069062	-0.367701
C96	C	1.269343	0.430938	0.132299
C97	C	0.768283	-0.069063	-0.440145
C98	C	1.268283	0.430937	0.059855
C99	C	0.819163	0.000358	-0.479941
C100	C	1.319163	0.500358	0.020059
C101	C	0.871114	0.069764	-0.447286
C102	C	1.371114	0.569764	0.052714
C103	C	0.872176	0.069758	-0.374841
C104	C	1.372176	0.569758	0.125159
C105	C	0.821283	0.000340	-0.335051
C106	C	1.321283	0.500340	0.164949
C107	C	0.880787	0.000399	-0.603192
C108	C	1.380787	0.500399	-0.103192
C109	C	0.879725	0.000424	-0.675639
C110	C	1.379725	0.500424	-0.175639
C111	C	0.753113	0.000376	-0.658681
C112	C	1.253113	0.500376	-0.158681
C113	C	0.754177	0.000362	-0.586235
C114	C	1.254177	0.500362	-0.086235
C115	C	0.818016	0.000368	-0.558495
C116	C	1.318016	0.500368	-0.058495
C117	C	0.814761	0.000383	0.219513
C118	C	1.314761	0.500383	0.719513
C119	C	0.815891	0.000402	0.296618
C120	C	1.315891	0.500402	0.796618
H121	H	0.594000	0.000319	0.211593
H122	H	1.094000	0.500319	0.711593
Br123	Br	0.427841	0.163902	-0.013682
Br124	Br	0.927841	0.663902	0.486318
H125	H	0.237404	-0.125495	0.174235
H126	H	0.737404	0.374505	0.674235
Br127	Br	0.698005	-0.553213	-0.029805
Br128	Br	1.198005	-0.053213	0.470195
H129	H	0.462575	0.000341	0.209666
H130	H	0.962575	0.500341	0.709666
Br131	Br	0.710315	-0.259351	-0.017451
Br132	Br	1.210315	0.240649	0.482549
Br133	Br	0.383384	-0.163202	0.201196
Br134	Br	0.883384	0.336798	0.701196
Br135	Br	0.942461	-0.446082	0.214808
Br136	Br	1.442461	0.053918	0.714808
Br137	Br	0.732165	-0.740173	0.004356
Br138	Br	1.232165	-0.240173	0.504356
Br139	Br	0.973974	0.000379	-0.118657
Br140	Br	1.473974	0.500379	0.381343
H141	H	0.727909	-0.125599	-0.335304
H142	H	1.227909	0.374401	0.164696
H143	H	0.147119	0.000433	0.205047
H144	H	0.647119	0.500433	0.705047
Br145	Br	0.930147	-0.739932	0.202454
Br146	Br	1.430147	-0.239932	0.702454
Br147	Br	0.697784	-0.163263	-0.484457
Br148	Br	1.197784	0.336737	0.015543
H149	H	0.930841	0.000446	-0.712030
H150	H	1.430841	0.500446	-0.212030
Br151	Br	0.971467	0.000388	-0.289418
Br152	Br	1.471467	0.500388	0.210582
H153	H	0.914475	0.126273	-0.348256
H154	H	1.414475	0.626273	0.151744
Br155	Br	0.908304	-0.259136	0.180650
Br156	Br	1.408304	0.240864	0.680650
Br157	Br	0.673034	0.000303	-0.249447
Br158	Br	1.173034	0.500303	0.250553
H159	H	0.932769	0.000409	-0.580605
H160	H	1.432769	0.500409	-0.080605
H161	H	0.709612	0.000298	-0.102954
H162	H	1.209612	0.500298	0.397046
Br163	Br	0.940171	0.163984	-0.501286
Br164	Br	1.440171	0.663984	-0.001286
Br165	Br	0.666480	0.000355	-0.696331
Br166	Br	1.166480	0.500355	-0.196331
Br167	Br	0.668986	0.000335	-0.525572
Br168	Br	1.168986	0.500335	-0.025572
Br169	Br	0.478275	0.000279	-0.054690
Br170	Br	0.978275	0.500279	0.445310
H171	H	0.046456	0.000501	-0.026579
H172	H	0.546456	0.500501	0.473421
Br173	Br	0.202152	0.000365	-0.058736
Br174	Br	0.702152	0.500365	0.441264
Br175	Br	-0.008576	0.000478	0.237197
Br176	Br	0.491424	0.500478	0.737197
H177	H	0.271631	0.126283	0.008852
H178	H	0.771631	0.626283	0.508852
H179	H	0.624766	0.000235	-0.018114
H180	H	1.124766	0.500235	0.481886
