data_functionalizedCrystal
_audit_creation_method	'MofGen! by Chris Wilmer'
_symmetry_space_group_name_H-M	'P1'
_symmetry_Int_Tables_number	1
_symmetry_cell_setting	triclinic
loop_
_symmetry_equiv_pos_as_xyz
  x,y,z
_cell_length_a	15.711784
_cell_length_b	23.532357
_cell_length_c	14.184742
_cell_angle_alpha	104.871693
_cell_angle_beta	99.905229
_cell_angle_gamma	101.208546
loop_
_atom_site_label
_atom_site_type_symbol
_atom_site_fract_x
_atom_site_fract_y
_atom_site_fract_z
O1	O	1.161558	0.326954	0.083533
O2	O	0.910274	0.283665	0.083517
O3	O	1.043512	0.223984	0.083505
O4	O	1.028320	0.386636	0.083545
O5	O	1.008775	0.193674	-0.083362
O6	O	0.875538	0.253355	-0.083350
O7	O	1.126821	0.296644	-0.083334
Cu8	Cu	0.998008	0.272232	-0.098579
Cu9	Cu	1.039088	0.308077	0.098761
O10	O	0.993584	0.356325	-0.083322
C11	C	0.860764	0.261439	0.000081
C12	C	0.764991	0.240361	0.000075
C13	C	0.640742	0.161012	0.000054
C14	C	0.730734	0.180824	0.000060
C15	C	0.709263	0.280112	0.000089
C16	C	0.619269	0.260310	0.000087
C17	C	0.585015	0.200759	0.000069
C18	C	0.563542	0.300057	0.000103
C19	C	0.473555	0.280255	0.000096
C20	C	0.439293	0.220707	0.000075
C21	C	0.495027	0.180958	0.000063
C22	C	0.597796	0.359606	0.000114
C23	C	0.542070	0.399353	0.000129
C24	C	0.452082	0.379553	0.000130
C25	C	0.417820	0.320004	0.000108
C26	C	0.396347	0.419302	0.000142
C27	C	0.306360	0.399501	0.000136
C28	C	0.327833	0.300203	0.000102
C29	C	1.025762	0.187531	0.000068
C30	C	1.024617	0.124069	0.000059
C31	C	1.036387	-0.252933	0.091072
C32	C	1.035302	-0.312562	0.091077
O33	O	1.050814	-0.329352	0.168435
N34	N	1.015829	-0.358909	0.000119
C35	C	0.997430	-0.345626	-0.090851
O36	O	0.980766	-0.390524	-0.168217
C37	C	0.998510	-0.285999	-0.090855
C38	C	1.017993	-0.239653	0.000109
C39	C	1.055868	-0.206588	0.182028
C40	C	1.056955	-0.146963	0.182022
C41	C	1.038561	-0.133683	0.091060
C42	C	1.019080	-0.180028	0.000103
C43	C	0.980106	-0.272718	-0.181824
C44	C	0.981186	-0.213086	-0.181821
C45	C	1.000670	-0.166739	-0.090856
C46	C	1.001773	-0.107123	-0.090866
N47	N	1.021247	-0.060776	0.000092
C48	C	1.039641	-0.074056	0.091055
C49	C	0.995164	-0.470846	-0.090834
C50	C	0.994090	-0.530472	-0.090830
C51	C	1.031960	-0.497403	0.091098
C52	C	1.033040	-0.437776	0.091093
C53	C	1.014637	-0.424499	0.000124
C54	C	1.041923	0.051160	0.091035
C55	C	1.043011	0.110789	0.091021
C56	C	1.005137	0.077714	-0.090906
C57	C	1.004052	0.018091	-0.090893
C58	C	1.022444	0.004816	0.000086
O59	O	0.986266	-0.090288	-0.168184
O60	O	1.056291	-0.029155	0.168408
C61	C	1.176332	0.318871	0.000104
C62	C	1.272106	0.339950	0.000117
C63	C	1.011333	0.392779	0.000117
C64	C	1.012480	0.456243	0.000133
N65	N	0.969120	0.247022	-0.237377
C66	C	0.884328	0.173006	-0.394963
C67	C	0.906184	0.192089	-0.289921
C68	C	1.010223	0.282895	-0.289862
C69	C	0.988373	0.263821	-0.394907
C70	C	0.925426	0.208876	-0.447449
C71	C	1.029471	0.299691	-0.447392
C72	C	1.007626	0.280617	-0.552427
C73	C	0.944684	0.225674	-0.604977
C74	C	0.903581	0.189802	-0.552484
C75	C	1.092423	0.354634	-0.394848
C76	C	1.133521	0.390504	-0.447333
C77	C	1.111671	0.371433	-0.552370
C78	C	1.048729	0.316489	-0.604920
C79	C	1.152774	0.407304	-0.604863
C80	C	1.130929	0.388230	-0.709898
C81	C	1.026884	0.297415	-0.709955
N82	N	1.067982	0.333285	0.237560
H83	H	0.569971	0.447839	0.000140
H84	H	1.110208	0.370162	-0.309321
N85	N	1.175244	0.426918	-0.766519
H86	H	1.208634	0.403071	-0.810091
H87	H	1.218388	0.464614	-0.717234
H88	H	0.978238	-0.568202	-0.164902
H89	H	0.966187	-0.202283	-0.255900
H90	H	1.046935	-0.508226	0.165165
N91	N	1.220665	0.466564	-0.548193
H92	H	1.279737	0.465136	-0.566460
H93	H	1.228197	0.473171	-0.473707
H94	H	1.072818	-0.109232	0.256095
N95	N	0.694853	0.380964	0.000113
H96	H	0.733625	0.377481	0.061968
H97	H	0.708013	0.424709	0.000080
N98	N	0.983054	-0.031899	-0.189000
H99	H	0.971570	-0.014435	-0.246625
H100	H	0.928280	-0.063880	-0.192965
N101	N	0.975324	-0.456528	-0.188956
H102	H	0.962827	-0.494939	-0.246570
H103	H	1.028443	-0.425984	-0.192920
N104	N	1.201417	0.449762	-0.390661
H105	H	1.209022	0.456402	-0.316157
H106	H	1.180180	0.484214	-0.409010
N107	N	0.246251	0.442370	0.000156
H108	H	0.270094	0.478754	0.062025
H109	H	0.184065	0.420739	0.000109
H110	H	0.424249	0.467787	0.000147
H111	H	1.058880	0.148524	0.165098
N112	N	1.061783	0.036849	0.189160
H113	H	1.074297	0.075264	0.246772
H114	H	1.115658	0.019359	0.193110
H115	H	0.366017	0.204583	0.000060
N116	N	0.985306	0.092045	-0.189013
H117	H	0.988950	0.136852	-0.175205
H118	H	0.923352	0.067881	-0.228736
H119	H	0.964242	-0.310445	-0.255897
N120	N	0.458073	0.116725	0.000031
H121	H	0.392609	0.110214	0.000024
H122	H	0.491362	0.109736	0.061884
N123	N	0.746210	0.344342	0.000119
H124	H	0.712978	0.351370	-0.061729
H125	H	0.811675	0.350816	0.000159
N126	N	0.603778	0.096782	0.000028
H127	H	0.579793	0.097590	0.061880
H128	H	0.652769	0.074637	-0.000017
H129	H	1.070845	-0.217392	0.256105
H130	H	1.048903	-0.400043	0.165164
H131	H	0.975618	0.252677	-0.752738
H132	H	0.926903	0.210143	-0.690503
H133	H	0.852315	0.145064	-0.595267
H134	H	0.833062	0.128268	-0.437746
H135	H	0.872710	0.162876	-0.247191
N136	N	0.290870	0.235975	0.000090
H137	H	0.324096	0.228950	0.061944
H138	H	0.298343	0.206517	-0.061812
N139	N	1.078119	0.342152	-0.233190
H140	H	1.085725	0.348793	-0.158686
H141	H	1.056883	0.376605	-0.251539
H142	H	0.776105	0.148453	0.000051
