data_functionalizedCrystal
_audit_creation_method	'MofGen! by Chris Wilmer'
_symmetry_space_group_name_H-M	'P1'
_symmetry_Int_Tables_number	1
_symmetry_cell_setting	triclinic
loop_
_symmetry_equiv_pos_as_xyz
  x,y,z
_cell_length_a	16.120490
_cell_length_b	16.120531
_cell_length_c	19.076919
_cell_angle_alpha	95.042833
_cell_angle_beta	90.498645
_cell_angle_gamma	89.829344
loop_
_atom_site_label
_atom_site_type_symbol
_atom_site_fract_x
_atom_site_fract_y
_atom_site_fract_z
Zn1	Zn	1.231038	0.416792	0.468362
Zn2	Zn	1.564371	0.750125	0.801695
Zn3	Zn	1.897704	1.083459	1.135029
Zn4	Zn	1.229460	0.550799	0.356325
Zn5	Zn	1.562793	0.884132	0.689658
Zn6	Zn	1.896126	1.217466	1.022992
Zn7	Zn	1.098166	0.404165	0.344463
Zn8	Zn	1.431499	0.737498	0.677797
Zn9	Zn	1.764832	1.070832	1.011130
Zn10	Zn	1.084906	0.548707	0.467713
Zn11	Zn	1.418240	0.882040	0.801047
Zn12	Zn	1.751573	1.215374	1.134380
O13	O	1.160892	0.480116	0.409216
O14	O	1.494226	0.813449	0.742549
O15	O	1.827559	1.146782	1.075883
O16	O	1.346932	0.440728	0.458736
O17	O	1.680265	0.774062	0.792069
O18	O	2.013598	1.107395	1.125402
O19	O	1.216932	0.526938	0.256283
O20	O	1.550265	0.860272	0.589616
O21	O	1.883599	1.193605	0.922950
O22	O	1.122001	0.289266	0.356206
O23	O	1.455334	0.622600	0.689539
O24	O	1.788667	0.955933	1.022873
O25	O	1.345773	0.539182	0.376422
O26	O	1.679106	0.872516	0.709756
O27	O	2.012439	1.205849	1.043089
O28	O	1.219621	0.298543	0.447234
O29	O	1.552955	0.631877	0.780567
O30	O	1.886288	0.965210	1.113901
O31	O	1.120471	0.419207	0.247568
O32	O	1.453804	0.752540	0.580902
O33	O	1.787137	1.085874	0.914235
O34	O	0.980303	0.417179	0.355577
O35	O	1.313637	0.750512	0.688911
O36	O	1.646970	1.083845	1.022244
O37	O	1.099402	0.535617	0.566268
O38	O	1.432736	0.868951	0.899601
O39	O	1.766069	1.202284	1.232935
O40	O	0.970562	0.523373	0.446128
O41	O	1.303895	0.856707	0.779462
O42	O	1.637228	1.190040	1.112795
O43	O	1.206764	0.438700	0.566744
O44	O	1.540098	0.772033	0.900078
O45	O	1.873431	1.105367	1.233411
O46	O	1.204075	0.667095	0.375793
O47	O	1.537408	1.000428	0.709127
O48	O	1.870742	1.333762	1.042460
O49	O	1.097872	0.665558	0.457630
O50	O	1.431206	0.998892	0.790963
O51	O	1.764539	1.332225	1.124297
C52	C	0.945328	0.468679	0.399496
C53	C	1.278661	0.802013	0.732829
C54	C	1.611995	1.135346	1.066162
C55	C	0.853107	0.463808	0.395355
C56	C	1.186440	0.797141	0.728688
C57	C	1.519774	1.130474	1.062022
C58	C	0.638367	0.505379	0.430696
C59	C	0.971701	0.838713	0.764029
C60	C	1.305034	1.172046	1.097363
C61	C	0.684262	0.454921	0.387794
C62	C	1.017595	0.788254	0.721127
C63	C	1.350929	1.121588	1.054461
C64	C	0.778216	0.459867	0.392002
C65	C	1.111549	0.793200	0.725336
C66	C	1.444883	1.126534	1.058669
C67	C	0.544405	0.500434	0.426489
C68	C	0.877738	0.833768	0.759822
C69	C	1.211072	1.167101	1.093156
C70	C	1.149386	0.696555	0.417945
C71	C	1.482719	1.029888	0.751278
C72	C	1.816052	1.363221	1.084612
C73	C	1.144538	0.789153	0.421706
C74	C	1.477871	1.122487	0.755039
C75	C	1.811204	1.455820	1.088373
C76	C	1.135691	0.958693	0.428588
C77	C	1.469024	1.292027	0.761921
C78	C	1.802357	1.625360	1.095254
C79	C	1.186127	1.000698	0.389806
C80	C	1.519461	1.334031	0.723139
C81	C	1.852794	1.667364	1.056472
C82	C	1.181205	1.095035	0.393635
C83	C	1.514538	1.428369	0.726968
C84	C	1.847871	1.761702	1.060301
C85	C	1.140612	0.864347	0.424760
C86	C	1.473945	1.197680	0.758093
C87	C	1.807279	1.531014	1.091426
C88	C	1.377298	0.491597	0.418975
C89	C	1.710632	0.824931	0.752308
C90	C	2.043965	1.158264	1.085641
C91	C	1.469518	0.496490	0.423133
C92	C	1.802851	0.829823	0.756466
C93	C	2.136184	1.163157	1.089800
C94	C	1.151780	0.488334	0.592752
C95	C	1.485114	0.821667	0.926085
C96	C	1.818447	1.155000	1.259418
C97	C	1.147897	0.491836	0.670964
C98	C	1.481231	0.825169	1.004297
C99	C	1.814564	1.158502	1.337630
C100	C	1.172437	1.262831	0.400455
C101	C	1.505770	1.596165	0.733788
C102	C	1.839104	1.929498	1.067122
C103	C	1.177283	1.170232	0.396685
C104	C	1.510616	1.503565	0.730019
C105	C	1.843950	1.836899	1.063352
C106	C	1.170020	0.471872	0.226394
C107	C	1.503353	0.805205	0.559727
C108	C	1.836687	1.138539	0.893060
C109	C	1.174076	0.468144	0.148180
C110	C	1.507409	0.801477	0.481513
C111	C	1.840743	1.134811	0.814847
C112	C	1.201968	0.443024	0.707957
C113	C	1.535301	0.776357	1.041291
C114	C	1.868635	1.109690	1.374624
C115	C	1.198309	0.446310	0.781445
C116	C	1.531643	0.779644	1.114779
C117	C	1.864976	1.112977	1.448112
C118	C	1.140584	0.498414	0.817939
C119	C	1.473917	0.831748	1.151272
C120	C	1.807251	1.165081	1.484605
C121	C	1.086508	0.547228	0.780940
C122	C	1.419841	0.880562	1.114273
C123	C	1.753174	1.213895	1.447607
C124	C	1.090163	0.543937	0.707453
C125	C	1.423496	0.877270	1.040786
C126	C	1.756829	1.210603	1.374120
C127	C	1.123655	0.513666	1.037694
C128	C	1.456988	0.846999	1.371028
C129	C	1.790321	1.180333	1.704361
C130	C	1.120005	0.516956	1.111186
C131	C	1.453339	0.850289	1.444520
C132	C	1.786672	1.183623	1.777853
C133	C	1.231807	0.416036	1.111686
C134	C	1.565140	0.749370	1.445020
C135	C	1.898473	1.082703	1.778353
C136	C	1.235460	0.412753	1.038198
C137	C	1.568793	0.746086	1.371532
C138	C	1.902127	1.079420	1.704865
C139	C	1.181381	0.461564	1.001206
C140	C	1.514714	0.794897	1.334539
C141	C	1.848048	1.128230	1.667872
N142	N	1.136845	0.501777	0.893055
N143	N	1.470178	0.835111	1.226389
N144	N	1.803511	1.168444	1.559722
N145	N	1.185117	0.458196	0.926090
N146	N	1.518450	0.791529	1.259423
N147	N	1.851783	1.124862	1.592757
H148	H	1.233004	0.965808	0.353727
H149	H	1.566337	1.299142	0.687060
H150	H	1.899670	1.632475	1.020394
H151	H	0.669636	0.552290	0.470582
H152	H	1.002969	0.885623	0.803916
H153	H	1.336302	1.218956	1.137249
H154	H	1.088817	0.993580	0.464662
H155	H	1.422150	1.326913	0.797996
H156	H	1.755483	1.660247	1.131329
N157	N	0.642856	0.392779	0.334948
N158	N	0.976189	0.726112	0.668282
N159	N	1.309523	1.059446	1.001615
H160	H	0.607522	0.353651	0.360459
H161	H	0.940855	0.686984	0.693792
H162	H	1.274188	1.020317	1.027126
H163	H	0.606764	0.423322	0.302092
H164	H	0.940098	0.756655	0.635425
H165	H	1.273431	1.089988	0.968758
N166	N	1.264235	0.386831	0.668599
N167	N	1.597568	0.720164	1.001933
N168	N	1.930901	1.053498	1.335266
H169	H	1.297931	0.356407	0.703188
H170	H	1.631265	0.689740	1.036522
H171	H	1.964598	1.023074	1.369855
H172	H	1.234034	0.345122	0.635032
H173	H	1.567367	0.678455	0.968365
H174	H	1.900700	1.011788	1.301698
H175	H	1.079631	0.553424	1.007585
H176	H	1.412965	0.886757	1.340918
H177	H	1.746298	1.220091	1.674251
H178	H	1.242341	0.406564	0.811562
H179	H	1.575675	0.739898	1.144896
H180	H	1.909008	1.073231	1.478229
H181	H	1.282468	0.370327	1.008491
H182	H	1.615802	0.703660	1.341824
H183	H	1.949135	1.036993	1.675157
H184	H	1.275834	0.376297	1.141814
H185	H	1.609167	0.709630	1.475147
H186	H	1.942500	1.042963	1.808480
N187	N	1.057744	0.573159	1.150550
N188	N	1.391078	0.906493	1.483884
N189	N	1.724411	1.239826	1.817217
H190	H	1.024039	0.603581	1.115965
H191	H	1.357372	0.936914	1.449299
H192	H	1.690706	1.270248	1.782632
H193	H	1.019644	0.538577	1.177946
H194	H	1.352977	0.871910	1.511280
H195	H	1.686310	1.205244	1.844613
H196	H	1.039503	0.589649	0.810659
H197	H	1.372837	0.922983	1.143992
H198	H	1.706170	1.256316	1.477325
H199	H	1.046125	0.583676	0.677333
H200	H	1.379458	0.917009	1.010667
H201	H	1.712791	1.250343	1.344000
