data_functionalizedCrystal
_audit_creation_method	'MofGen! by Chris Wilmer'
_symmetry_space_group_name_H-M	'P1'
_symmetry_Int_Tables_number	1
_symmetry_cell_setting	triclinic
loop_
_symmetry_equiv_pos_as_xyz
  x,y,z
_cell_length_a	14.971486
_cell_length_b	19.288865
_cell_length_c	14.048226
_cell_angle_alpha	89.988335
_cell_angle_beta	89.998499
_cell_angle_gamma	83.375189
loop_
_atom_site_label
_atom_site_type_symbol
_atom_site_fract_x
_atom_site_fract_y
_atom_site_fract_z
O1	O	1.186458	0.090517	-0.079062
O2	O	0.925999	0.101357	-0.079090
O3	O	1.063754	-0.005169	-0.079056
O4	O	1.048702	0.197043	-0.079096
O5	O	1.063738	-0.005175	0.079265
O6	O	0.925982	0.101351	0.079232
O7	O	1.186441	0.090511	0.079259
Zn8	Zn	1.056209	0.095930	0.104382
Zn9	Zn	1.056231	0.095938	-0.104213
O10	O	1.048686	0.197037	0.079226
C11	C	0.892669	0.100869	0.000068
C12	C	0.793379	0.099416	0.000058
C13	C	0.735816	0.161997	0.000047
C14	C	0.642524	0.160628	0.000062
C15	C	0.606797	0.096677	0.000080
C16	C	0.664368	0.034092	0.000094
C17	C	0.757658	0.035461	0.000086
C18	C	0.469921	0.031241	0.000108
C19	C	0.376624	0.029871	0.000113
C20	C	0.354786	0.156407	0.000083
C21	C	0.448077	0.157777	0.000075
C22	C	0.505641	0.095191	0.000087
C23	C	1.063262	-0.031050	0.000107
C24	C	1.061808	-0.108158	0.000115
C25	C	1.142636	-0.152591	0.000128
C26	C	1.141271	-0.225043	0.000113
C27	C	1.059071	-0.253058	0.000104
C28	C	0.978232	-0.208615	0.000085
C29	C	0.979600	-0.136166	0.000091
C30	C	0.994448	-0.361558	0.055554
C31	C	0.993083	-0.434007	0.055554
C32	C	1.054848	-0.476517	0.000082
C33	C	1.117994	-0.446571	-0.055378
C34	C	1.119362	-0.374121	-0.055372
C35	C	1.057579	-0.331617	0.000097
C36	C	1.134201	-0.599511	0.000077
C37	C	1.132832	-0.671963	0.000056
C38	C	0.969791	-0.655535	0.000038
C39	C	0.971163	-0.583084	0.000050
C40	C	1.053370	-0.555077	0.000074
C41	C	1.219771	0.090999	0.000099
C42	C	1.319061	0.092452	0.000103
C43	C	1.049178	0.222918	0.000060
C44	C	1.050632	0.300026	0.000046
N45	N	1.056201	0.095924	0.246743
N46	N	1.056246	0.095939	-0.246574
C47	C	1.117218	0.048774	0.296576
C48	C	1.117224	0.048773	0.396233
C49	C	1.056217	0.095927	0.446056
C50	C	0.995193	0.143079	0.396217
C51	C	0.995183	0.143076	0.296561
C52	C	0.995219	0.143084	0.603931
C53	C	0.995229	0.143089	0.703593
C54	C	1.117259	0.048782	0.703603
C55	C	1.117250	0.048778	0.603947
C56	C	1.056227	0.095932	0.554115
H57	H	1.209576	-0.129793	0.000145
H58	H	0.347539	-0.022204	0.000130
Cl59	Cl	1.193932	-0.010503	0.458882
H60	H	0.945550	0.181485	0.744154
H61	H	0.595658	0.211588	0.000052
Cl62	Cl	0.619455	-0.046304	0.000123
Cl63	Cl	0.918500	0.202363	0.541288
Cl64	Cl	0.918469	0.202350	0.233915
Cl65	Cl	1.193950	-0.010496	0.541311
Cl66	Cl	1.193922	-0.010506	0.233951
Cl67	Cl	1.193973	-0.010494	0.766254
H68	H	0.902863	-0.678344	0.000026
H69	H	0.945515	0.181470	0.436788
H70	H	1.198655	-0.708141	0.000062
Cl71	Cl	0.913705	-0.471647	0.125277
H72	H	0.516788	-0.019723	0.000119
Cl73	Cl	0.780719	0.242397	0.000018
Cl74	Cl	0.869544	-0.527222	0.000038
H75	H	1.207093	-0.261227	0.000120
Cl76	Cl	0.877979	-0.080304	0.000075
Cl77	Cl	0.282420	0.235087	0.000070
Cl78	Cl	1.198735	-0.336476	-0.125095
Cl79	Cl	0.492989	0.238174	0.000042
H80	H	0.804527	-0.015498	0.000094
H81	H	1.168289	-0.481182	-0.100548
Cl82	Cl	0.874896	-0.243834	0.000066
Cl83	Cl	1.237545	-0.564298	0.000113
H84	H	0.944148	-0.326952	0.100731
