data_functionalizedCrystal
_audit_creation_method	'MofGen! by Chris Wilmer'
_symmetry_space_group_name_H-M	'P1'
_symmetry_Int_Tables_number	1
_symmetry_cell_setting	triclinic
loop_
_symmetry_equiv_pos_as_xyz
  x,y,z
_cell_length_a	17.699083
_cell_length_b	10.654550
_cell_length_c	16.176319
_cell_angle_alpha	89.994395
_cell_angle_beta	89.998611
_cell_angle_gamma	83.883959
loop_
_atom_site_label
_atom_site_type_symbol
_atom_site_fract_x
_atom_site_fract_y
_atom_site_fract_z
O1	O	1.005088	0.158809	-0.068628
O2	O	1.505088	0.658809	0.431372
O3	O	0.784841	0.179470	-0.068655
O4	O	1.284841	0.679470	0.431345
O5	O	0.900029	-0.013688	-0.068638
O6	O	1.400029	0.486312	0.431362
O7	O	0.889901	0.351967	-0.068646
O8	O	1.389901	0.851967	0.431354
O9	O	0.900013	-0.013701	0.068855
O10	O	1.400013	0.486299	0.568855
O11	O	0.784825	0.179458	0.068838
O12	O	1.284825	0.679458	0.568838
O13	O	1.005072	0.158797	0.068865
O14	O	1.505072	0.658797	0.568865
Cu15	Cu	0.894947	0.169126	0.081406
Cu16	Cu	1.394947	0.669126	0.581406
Cu17	Cu	0.894966	0.169141	-0.081196
Cu18	Cu	1.394966	0.669141	0.418804
O19	O	0.889885	0.351955	0.068848
O20	O	1.389885	0.851955	0.568848
C21	C	0.756632	0.178724	0.000088
C22	C	1.256632	0.678724	0.500088
C23	C	0.672599	0.176503	0.000078
C24	C	1.172599	0.676503	0.500078
C25	C	0.624699	0.289883	0.000076
C26	C	1.124699	0.789883	0.500076
C27	C	0.545743	0.287788	0.000086
C28	C	1.045743	0.787788	0.500086
C29	C	0.514688	0.172313	0.000093
C30	C	1.014688	0.672313	0.500093
C31	C	0.562594	0.058924	0.000098
C32	C	1.062594	0.558924	0.500098
C33	C	0.641549	0.061020	0.000093
C34	C	1.141549	0.561020	0.500093
C35	C	0.244177	0.050470	0.000118
C36	C	0.744177	0.550470	0.500118
C37	C	0.165216	0.048383	0.000121
C38	C	0.665216	0.548383	0.500121
C39	C	0.148371	0.277239	0.000112
C40	C	0.648371	0.777239	0.500112
C41	C	0.227326	0.279334	0.000107
C42	C	0.727326	0.779334	0.500107
C43	C	0.275225	0.165946	0.000116
C44	C	0.775225	0.665946	0.500116
C45	C	0.360839	0.168219	0.000106
C46	C	0.860839	0.668219	0.500106
C47	C	0.429076	0.170039	0.000097
C48	C	0.929076	0.670039	0.500097
C49	C	0.899277	-0.060479	0.000107
C50	C	1.399277	0.439521	0.500107
C51	C	0.897052	-0.199884	0.000104
C52	C	1.397052	0.300116	0.500104
C53	C	0.964873	-0.280557	0.000115
C54	C	1.464873	0.219443	0.500115
C55	C	0.962778	-0.411541	0.000109
C56	C	1.462778	0.088459	0.500109
C57	C	0.825036	-0.381166	0.000085
C58	C	1.325036	0.118834	0.500085
C59	C	0.827132	-0.250185	0.000085
C60	C	1.327132	0.249815	0.500085
C61	C	1.034794	-0.230256	0.000134
C62	C	1.534794	0.269744	0.500134
C63	C	1.102620	-0.310930	0.000146
C64	C	1.602620	0.189070	0.500146
C65	C	1.100525	-0.441914	0.000140
C66	C	1.600525	0.058086	0.500140
C67	C	1.030603	-0.492224	0.000122
C68	C	1.530603	0.007776	0.500122
C69	C	1.033282	0.159543	0.000120
C70	C	1.533282	0.659543	0.500120
C71	C	1.117314	0.161764	0.000125
C72	C	1.617314	0.661764	0.500125
C73	C	0.890637	0.398746	0.000100
C74	C	1.390637	0.898746	0.500100
C75	C	0.892861	0.538151	0.000098
C76	C	1.392861	1.038151	0.500098
N77	N	0.894940	0.169115	0.195771
N78	N	1.394940	0.669115	0.695771
N79	N	0.894980	0.169142	-0.195561
N80	N	1.394980	0.669142	0.304439
C81	C	0.945960	0.083619	0.239042
C82	C	1.445960	0.583619	0.739042
C83	C	0.945964	0.083618	0.325590
C84	C	1.445964	0.583618	0.825590
C85	C	0.894950	0.169120	0.368863
C86	C	1.394950	0.669120	0.868863
C87	C	0.843924	0.254619	0.325586
C88	C	1.343924	0.754619	0.825586
C89	C	0.843917	0.254614	0.239040
C90	C	1.343917	0.754614	0.739040
C91	C	0.843950	0.254643	0.674614
C92	C	1.343950	0.754643	1.174614
C93	C	0.843962	0.254644	0.761165
C94	C	1.343962	0.754644	1.261165
C95	C	0.945997	0.083647	0.761163
C96	C	1.445997	0.583647	1.261163
C97	C	0.945990	0.083642	0.674618
C98	C	1.445990	0.583642	1.174618
C99	C	0.894962	0.169136	0.631348
C100	C	1.394962	0.669136	1.131348
C101	C	0.894957	0.169135	0.537503
C102	C	1.394957	0.669135	1.037503
C103	C	0.894958	0.169128	0.462706
C104	C	1.394958	0.669128	0.962706
H105	H	0.649978	0.383916	0.000069
H106	H	1.149978	0.883916	0.500069
F107	F	0.750626	-0.434715	0.000067
F108	F	1.250626	0.065285	0.500067
H109	H	1.155752	-0.507596	0.000141
H110	H	1.655752	-0.007596	0.500141
H111	H	0.802370	0.324231	0.203809
H112	H	1.302370	0.824231	0.703809
H113	H	0.506745	0.380114	0.000084
H114	H	1.006745	0.880114	0.500084
H115	H	0.987508	0.014000	0.360821
H116	H	1.487508	0.514000	0.860821
H117	H	0.771906	-0.184498	0.000077
H118	H	1.271906	0.315502	0.500077
F119	F	0.260372	0.402239	0.000095
F120	F	0.760372	0.902239	0.500095
H121	H	0.680549	-0.031306	0.000094
H122	H	1.180549	0.468694	0.500094
H123	H	0.109361	0.369564	0.000109
H124	H	0.609361	0.869564	0.500109
H125	H	1.028903	-0.598881	0.000108
H126	H	1.528903	-0.098881	0.500108
F127	F	1.000305	-0.007349	0.807221
F128	F	1.500305	0.492651	1.307221
F129	F	1.177030	-0.257384	0.000155
F130	F	1.677030	0.242616	0.500155
H131	H	1.036507	-0.123604	0.000142
H132	H	1.536507	0.376396	0.500142
F133	F	0.789645	0.345635	0.628569
F134	F	1.289645	0.845635	1.128569
F135	F	1.000261	-0.007379	0.192995
F136	F	1.500261	0.492621	0.692995
H137	H	0.987533	0.014023	0.639387
H138	H	1.487533	0.514023	1.139387
H139	H	0.802384	0.324232	0.360824
H140	H	1.302384	0.824232	0.860824
F141	F	0.132167	-0.074528	0.000128
F142	F	0.632167	0.425472	0.500128
H143	H	0.283168	-0.041858	0.000126
H144	H	0.783168	0.458142	0.500126
F145	F	0.529541	-0.063975	0.000110
F146	F	1.029541	0.436025	0.500110
H147	H	0.802418	0.324272	0.796397
H148	H	1.302418	0.824272	1.296397
