data_functionalizedCrystal
_audit_creation_method	'MofGen! by Chris Wilmer'
_symmetry_space_group_name_H-M	'P1'
_symmetry_Int_Tables_number	1
_symmetry_cell_setting	triclinic
loop_
_symmetry_equiv_pos_as_xyz
  x,y,z
_cell_length_a	29.839134
_cell_length_b	16.959455
_cell_length_c	16.959447
_cell_angle_alpha	89.985678
_cell_angle_beta	90.020456
_cell_angle_gamma	89.997040
loop_
_atom_site_label
_atom_site_type_symbol
_atom_site_fract_x
_atom_site_fract_y
_atom_site_fract_z
Zn1	Zn	0.178881	1.208461	-0.446963
Zn2	Zn	0.678881	1.708461	0.053037
Zn3	Zn	0.254014	1.208416	-0.314807
Zn4	Zn	0.754014	1.708416	0.185193
Zn5	Zn	0.178895	1.076289	-0.314800
Zn6	Zn	0.678895	1.576289	0.185200
Zn7	Zn	0.253981	1.076287	-0.446946
Zn8	Zn	0.753981	1.576287	0.053054
O9	O	0.216443	1.142363	-0.380879
O10	O	0.716443	1.642363	0.119121
O11	O	0.188856	1.319066	-0.429442
O12	O	0.688856	1.819066	0.070558
O13	O	0.244069	1.190871	-0.204195
O14	O	0.744069	1.690871	0.295805
O15	O	0.116026	1.093842	-0.332336
O16	O	0.616026	1.593842	0.167664
O17	O	0.244056	1.319033	-0.332348
O18	O	0.744056	1.819033	0.167652
O19	O	0.116016	1.190948	-0.429436
O20	O	0.616016	1.690948	0.070564
O21	O	0.188880	1.093799	-0.204190
O22	O	0.688880	1.593799	0.295810
O23	O	0.188847	0.965678	-0.332320
O24	O	0.688847	1.465678	0.167680
O25	O	0.243999	1.093837	-0.557559
O26	O	0.743999	1.593837	-0.057559
O27	O	0.244012	0.965676	-0.429406
O28	O	0.744012	1.465676	0.070594
O29	O	0.188823	1.190945	-0.557572
O30	O	0.688823	1.690945	-0.057572
O31	O	0.316877	1.190869	-0.332331
O32	O	0.816877	1.690869	0.167669
O33	O	0.316852	1.093794	-0.429413
O34	O	0.816852	1.593794	0.070587
C35	C	0.216428	0.936997	-0.380861
C36	C	0.716428	1.436997	0.119139
C37	C	0.216432	0.849140	-0.380872
C38	C	0.716432	1.349140	0.119128
C39	C	0.187695	0.477641	-0.330432
C40	C	0.687695	0.977641	0.169568
C41	C	0.245228	0.477688	-0.431372
C42	C	0.745228	0.977688	0.068628
C43	C	0.245221	0.560234	-0.431367
C44	C	0.745221	1.060234	0.068633
C45	C	0.216452	0.601487	-0.380893
C46	C	0.716452	1.101487	0.119107
C47	C	0.187688	0.560195	-0.330424
C48	C	0.687688	1.060195	0.169576
C49	C	0.273987	0.601533	-0.481829
C50	C	0.773987	1.101533	0.018171
C51	C	0.273982	0.684084	-0.481826
C52	C	0.773982	1.184084	0.018174
C53	C	0.245210	0.725339	-0.431355
C54	C	0.745210	1.225339	0.068645
C55	C	0.216445	0.684041	-0.380885
C56	C	0.716445	1.184041	0.119115
C57	C	0.187676	0.725294	-0.330411
C58	C	0.687676	1.225294	0.169589
C59	C	0.158908	0.683998	-0.279943
C60	C	0.658908	1.183998	0.220057
C61	C	0.158916	0.601450	-0.279953
C62	C	0.658916	1.101450	0.220047
C63	C	0.245202	0.807887	-0.431346
C64	C	0.745202	1.307887	0.068654
C65	C	0.187669	0.807848	-0.330403
C66	C	0.687669	1.307848	0.169597
C67	C	0.099264	1.142401	-0.380887
C68	C	0.599264	1.642401	0.119113
C69	C	0.049330	1.142417	-0.380891
C70	C	0.549330	1.642417	0.119109
C71	C	-0.260311	1.091840	-0.330355
C72	C	0.239689	1.591840	0.169645
C73	C	-0.447984	1.091845	-0.330362
C74	C	0.052016	1.591845	0.169638
O75	O	-0.472247	1.048826	-0.287394
O76	O	0.027753	1.548826	0.212606
N77	N	-0.471455	1.142405	-0.380915
N78	N	0.028545	1.642405	0.119085
C79	C	-0.448005	1.192964	-0.431474
C80	C	0.051995	1.692964	0.068526
O81	O	-0.472275	1.235963	-0.474478
O82	O	0.027725	1.735963	0.025522
C83	C	-0.260333	1.192955	-0.431470
C84	C	0.239667	1.692955	0.068530
C85	C	-0.236864	1.142397	-0.380908
C86	C	0.263136	1.642397	0.119092
C87	C	-0.236842	1.041286	-0.279798
C88	C	0.263158	1.541286	0.220202
C89	C	-0.189927	1.041288	-0.279793
C90	C	0.310073	1.541288	0.220207
C91	C	-0.166480	1.091845	-0.330346
C92	C	0.333520	1.591845	0.169654
C93	C	-0.189949	1.142399	-0.380903
C94	C	0.310051	1.642399	0.119097
C95	C	-0.236884	1.243509	-0.482031
C96	C	0.263116	1.743509	0.017969
C97	C	-0.189963	1.243501	-0.482027
C98	C	0.310037	1.743501	0.017973
C99	C	-0.166494	1.192943	-0.431465
C100	C	0.333506	1.692943	0.068535
C101	C	-0.119586	1.192958	-0.431452
C102	C	0.380414	1.692958	0.068548
N103	N	-0.096115	1.142398	-0.380899
N104	N	0.403885	1.642398	0.119101
C105	C	-0.119562	1.091841	-0.330346
C106	C	0.380438	1.591841	0.169654
C107	C	-0.546536	1.192966	-0.431471
C108	C	-0.046536	1.692966	0.068529
C109	C	-0.593453	1.192970	-0.431471
C110	C	-0.093453	1.692970	0.068529
C111	C	-0.593429	1.091849	-0.330361
C112	C	-0.093429	1.591849	0.169639
C113	C	-0.546511	1.091851	-0.330357
C114	C	-0.046511	1.591851	0.169643
C115	C	-0.523065	1.142406	-0.380918
C116	C	-0.023065	1.642406	0.119082
C117	C	-0.021036	1.091851	-0.330340
C118	C	0.478964	1.591851	0.169660
C119	C	0.025883	1.091860	-0.330338
C120	C	0.525883	1.591860	0.169662
C121	C	0.025855	1.192977	-0.431451
C122	C	0.525855	1.692977	0.068549
C123	C	-0.021061	1.192971	-0.431451
C124	C	0.478939	1.692971	0.068549
C125	C	-0.044505	1.142402	-0.380893
C126	C	0.455495	1.642402	0.119107
O127	O	-0.095295	1.235948	-0.474403
O128	O	0.404705	1.735948	0.025597
O129	O	-0.095284	1.048837	-0.287360
O130	O	0.404716	1.548837	0.212640
C131	C	-0.307226	1.091838	-0.330359
C132	C	0.192774	1.591838	0.169641
C133	C	-0.330695	1.142392	-0.380916
C134	C	0.169305	1.642392	0.119084
C135	C	-0.307248	1.192949	-0.431469
C136	C	0.192752	1.692949	0.068531
C137	C	-0.377613	1.142395	-0.380917
C138	C	0.122387	1.642395	0.119083
C139	C	-0.401060	1.091839	-0.330364
C140	C	0.098940	1.591839	0.169636
C141	C	-0.377589	1.041279	-0.279811
C142	C	0.122411	1.541279	0.220189
C143	C	-0.330673	1.041281	-0.279806
C144	C	0.169327	1.541281	0.220194
C145	C	-0.330719	1.243509	-0.482022
C146	C	0.169281	1.743509	0.017978
C147	C	-0.377635	1.243503	-0.482022
C148	C	0.122365	1.743503	0.017978
C149	C	-0.401082	1.192946	-0.431469
C150	C	0.098918	1.692946	0.068531
C151	C	0.333165	1.142347	-0.380888
C152	C	0.833165	1.642347	0.119112
C153	C	0.383100	1.142413	-0.380918
C154	C	0.883100	1.642413	0.119082
C155	C	0.216406	1.142396	-0.587047
C156	C	0.716406	1.642396	-0.087047
C157	C	0.216390	1.142410	-0.674904
C158	C	0.716390	1.642410	-0.174904
C159	C	0.216458	1.348531	-0.380898
C160	C	0.716458	1.848531	0.119102
C161	C	0.216464	1.436388	-0.380906
C162	C	0.716464	1.936388	0.119094
C163	C	0.245070	1.091945	-1.046376
C164	C	0.745070	1.591945	-0.546376
C165	C	0.187615	1.193064	-1.046384
C166	C	0.687615	1.693064	-0.546384
C167	C	0.187625	1.193043	-0.963838
C168	C	0.687625	1.693043	-0.463838
C169	C	0.216358	1.142473	-0.922557
C170	C	0.716358	1.642473	-0.422557
C171	C	0.245081	1.091924	-0.963822
C172	C	0.745081	1.591924	-0.463822
C173	C	0.158905	1.243597	-0.922567
C174	C	0.658905	1.743597	-0.422567
C175	C	0.158914	1.243579	-0.840016
C176	C	0.658914	1.743579	-0.340016
C177	C	0.187645	1.193004	-0.798733
C178	C	0.687645	1.693004	-0.298733
C179	C	0.216369	1.142452	-0.840003
C180	C	0.716369	1.642452	-0.340003
C181	C	0.245102	1.091882	-0.798723
C182	C	0.745102	1.591882	-0.298723
C183	C	0.273824	1.041326	-0.839991
C184	C	0.773824	1.541326	-0.339991
C185	C	0.273812	1.041349	-0.922540
C186	C	0.773812	1.541349	-0.422540
C187	C	0.187657	1.192980	-0.716185
C188	C	0.687657	1.692980	-0.216185
C189	C	0.245113	1.091861	-0.716169
C190	C	0.745113	1.591861	-0.216169
C191	C	0.216447	1.142376	-0.175513
C192	C	0.716447	1.642376	0.324487
C193	C	0.216337	1.142515	-0.087657
C194	C	0.716337	1.642515	0.412343
H195	H	0.135486	0.717598	-0.238844
H196	H	0.635486	1.217598	0.261156
H197	H	0.297413	0.567938	-0.522917
H198	H	0.797413	1.067938	-0.022917
C199	C	-0.619264	1.248599	-0.487082
C200	C	-0.119264	1.748599	0.012918
N201	N	-0.638702	1.290498	-0.528972
N202	N	-0.138702	1.790498	-0.028972
H203	H	0.135496	0.567819	-0.238864
H204	H	0.635496	1.067819	0.261136
H205	H	-0.040120	1.050672	-0.289172
H206	H	0.459880	1.550672	0.210828
C207	C	0.156008	1.248683	-1.091796
C208	C	0.656008	1.748683	-0.591796
N209	N	0.132197	1.290573	-1.126003
N210	N	0.632197	1.790573	-0.626003
H211	H	-0.527450	1.234139	-0.472644
H212	H	-0.027450	1.734139	0.027356
H213	H	-0.255985	1.284677	-0.523204
H214	H	0.244015	1.784677	-0.023204
H215	H	0.164272	0.444015	-0.289345
H216	H	0.664272	0.944015	0.210655
H217	H	0.297406	0.717700	-0.522920
H218	H	0.797406	1.217700	-0.022920
H219	H	0.268507	1.050673	-0.682564
H220	H	0.768507	1.550673	-0.182564
H221	H	0.268625	0.841506	-0.472433
H222	H	0.768625	1.341506	0.027567
C223	C	-0.403389	0.985664	-0.224204
C224	C	0.096611	1.485664	0.275796
N225	N	-0.422825	0.943774	-0.182328
N226	N	0.077175	1.443774	0.317672
H227	H	-0.255929	1.000113	-0.238632
H228	H	0.244071	1.500113	0.261368
C229	C	0.305429	0.985700	-0.794572
C230	C	0.805429	1.485700	-0.294572
N231	N	0.329233	0.943803	-0.760358
N232	N	0.829233	1.443803	-0.260358
C233	C	-0.520700	1.036228	-0.274741
C234	C	-0.020700	1.536228	0.225259
N235	N	-0.501261	0.994329	-0.232851
N236	N	-0.001261	1.494329	0.267149
C237	C	-0.164175	1.299120	-0.537647
C238	C	0.335825	1.799120	-0.037647
N239	N	-0.144753	1.341016	-0.579537
N240	N	0.355247	1.841016	-0.079537
C241	C	0.276874	0.432307	-0.486888
C242	C	0.776874	0.932307	0.013112
N243	N	0.300710	0.398122	-0.528707
N244	N	0.800710	0.898122	-0.028707
C245	C	0.127296	1.299212	-0.967980
C246	C	0.627296	1.799212	-0.467980
N247	N	0.103484	1.341098	-1.002190
N248	N	0.603484	1.841098	-0.502190
C249	C	0.051696	1.036237	-0.274716
C250	C	0.551696	1.536237	0.225284
N251	N	0.071136	0.994342	-0.232825
N252	N	0.571136	1.494342	0.267175
H253	H	-0.040169	1.234148	-0.472615
H254	H	0.459831	1.734148	0.027385
H255	H	0.164238	0.841431	-0.289305
H256	H	0.664238	1.341431	0.210695
C257	C	0.305401	0.985738	-0.967941
C258	C	0.805401	1.485738	-0.467941
N259	N	0.329194	0.943851	-1.002141
N260	N	0.829194	1.443851	-0.502141
C261	C	-0.164118	0.985662	-0.224179
C262	C	0.335882	1.485662	0.275821
N263	N	-0.144681	0.943758	-0.182290
N264	N	0.355319	1.443758	0.317710
C265	C	0.156065	1.248590	-0.670793
C266	C	0.656065	1.748590	-0.170793
N267	N	0.132267	1.290476	-0.636605
N268	N	0.632267	1.790476	-0.136605
H269	H	0.135526	1.284744	-0.806422
H270	H	0.635526	1.784744	-0.306422
C271	C	-0.619229	1.036232	-0.274757
C272	C	-0.119229	1.536232	0.225243
N273	N	-0.638664	0.994339	-0.232883
N274	N	-0.138664	1.494339	0.267117
H275	H	-0.311569	1.000111	-0.238634
H276	H	0.188431	1.500111	0.261366
C277	C	-0.304934	1.299137	-0.537629
C278	C	0.195066	1.799137	-0.037629
N279	N	-0.285515	1.341045	-0.579510
N280	N	0.214485	1.841045	-0.079510
H281	H	0.268453	1.050781	-1.079980
H282	H	0.768453	1.550781	-0.579980
H283	H	0.044954	1.234141	-0.472607
H284	H	0.544954	1.734141	0.027393
H285	H	-0.396740	1.284680	-0.523194
H286	H	0.103260	1.784680	-0.023194
