data_functionalizedCrystal
_audit_creation_method	'MofGen! by Chris Wilmer'
_symmetry_space_group_name_H-M	'P1'
_symmetry_Int_Tables_number	1
_symmetry_cell_setting	triclinic
loop_
_symmetry_equiv_pos_as_xyz
  x,y,z
_cell_length_a	14.519709
_cell_length_b	17.666332
_cell_length_c	14.519709
_cell_angle_alpha	90.000270
_cell_angle_beta	83.680144
_cell_angle_gamma	90.003734
loop_
_atom_site_label
_atom_site_type_symbol
_atom_site_fract_x
_atom_site_fract_y
_atom_site_fract_z
O1	O	1.223874	0.062839	0.120893
O2	O	0.955397	0.062861	0.135129
O3	O	1.096754	0.062856	-0.006227
O4	O	1.082517	0.062844	0.262250
O5	O	1.096729	-0.063040	-0.006235
O6	O	0.955372	-0.063036	0.135122
O7	O	1.223849	-0.063058	0.120885
Cu8	Cu	1.089608	-0.074542	0.128003
Cu9	Cu	1.089638	0.074345	0.128012
O10	O	1.082492	-0.063053	0.262242
C11	C	0.921025	-0.000084	0.134462
C12	C	0.818643	-0.000076	0.132474
N13	N	1.089594	-0.179262	0.127996
C14	C	0.443748	-0.000110	0.125154
C15	C	0.548056	-0.000100	0.127187
C16	C	0.631192	-0.000092	0.128814
C17	C	0.735507	-0.000084	0.130847
C18	C	1.152207	-0.218873	0.065434
C19	C	1.152213	-0.298121	0.065429
C20	C	1.089614	-0.337754	0.128003
C21	C	1.026989	-0.298132	0.190570
C22	C	1.026979	-0.218886	0.190566
N23	N	1.078009	-0.462176	0.209587
N24	N	1.078024	-0.537456	0.209587
C25	C	1.089638	-0.576518	0.128016
N26	N	1.101255	-0.537455	0.046442
N27	N	1.101245	-0.462168	0.046442
C28	C	1.089617	-0.423683	0.128013
C29	C	1.152261	-0.702059	0.065444
C30	C	1.152259	-0.781308	0.065438
C31	C	1.027040	-0.781318	0.190587
C32	C	1.027037	-0.702070	0.190584
C33	C	1.089652	-0.662446	0.128014
C34	C	1.258221	-0.000111	0.121553
C35	C	1.360602	-0.000115	0.123541
N36	N	1.089659	0.179065	0.128011
C37	C	1.083168	-0.000106	0.296605
C38	C	1.085156	-0.000112	0.398987
C39	C	1.096078	-0.000089	-0.040591
C40	C	1.094090	-0.000078	-0.142972
C41	C	1.092476	-0.000082	0.773883
C42	C	1.090443	-0.000091	0.669575
C43	C	1.088816	-0.000098	0.586438
C44	C	1.086783	-0.000105	0.482123
H45	H	1.203190	-0.186613	0.014483
O46	O	1.219795	-0.824032	-0.002049
H47	H	1.209276	-0.885795	0.008455
H48	H	1.203243	-0.669795	0.014492
H49	H	0.976067	-0.813586	0.241532
H50	H	1.203202	-0.330379	0.014482
H51	H	0.976018	-0.330405	0.241517
O52	O	0.959451	-0.176154	0.258053
H53	H	0.915924	-0.217023	0.301569
H54	H	0.976055	-0.669816	0.241532
