data_functionalizedCrystal
_audit_creation_method	'MofGen! by Chris Wilmer'
_symmetry_space_group_name_H-M	'P1'
_symmetry_Int_Tables_number	1
_symmetry_cell_setting	triclinic
loop_
_symmetry_equiv_pos_as_xyz
  x,y,z
_cell_length_a	17.077404
_cell_length_b	12.759400
_cell_length_c	17.077396
_cell_angle_alpha	90.025586
_cell_angle_beta	90.019501
_cell_angle_gamma	90.014910
loop_
_atom_site_label
_atom_site_type_symbol
_atom_site_fract_x
_atom_site_fract_y
_atom_site_fract_z
Zn1	Zn	1.200099	-0.418260	0.443859
Zn2	Zn	1.700099	0.081740	0.943859
Zn3	Zn	1.200025	-0.593961	0.312599
Zn4	Zn	1.700025	-0.093961	0.812599
Zn5	Zn	1.068831	-0.418297	0.312606
Zn6	Zn	1.568831	0.081703	0.812606
Zn7	Zn	1.068818	-0.593898	0.443823
Zn8	Zn	1.568818	-0.093898	0.943823
O9	O	1.134443	-0.506104	0.378222
O10	O	1.634443	-0.006104	0.878222
O11	O	1.309936	-0.441578	0.426459
O12	O	1.809936	0.058422	0.926459
O13	O	1.182597	-0.570700	0.202753
O14	O	1.682597	-0.070700	0.702753
O15	O	1.086281	-0.271271	0.330035
O16	O	1.586281	0.228729	0.830035
O17	O	1.309882	-0.570664	0.330023
O18	O	1.809882	-0.070664	0.830023
O19	O	1.182723	-0.271244	0.426466
O20	O	1.682723	0.228756	0.926466
O21	O	1.086209	-0.441641	0.202759
O22	O	1.586209	0.058359	0.702759
O23	O	0.958983	-0.441580	0.330001
O24	O	1.458983	0.058420	0.830001
O25	O	1.086258	-0.570558	0.553674
O26	O	1.586258	-0.070558	1.053674
O27	O	0.958973	-0.570594	0.426405
O28	O	1.458973	-0.070594	0.926405
O29	O	1.182710	-0.441517	0.553701
O30	O	1.682710	0.058483	1.053701
O31	O	1.182584	-0.740973	0.329988
O32	O	1.682584	-0.240973	0.829988
O33	O	1.086186	-0.740927	0.426398
O34	O	1.586186	-0.240927	0.926398
C35	C	0.930496	-0.506085	0.378200
C36	C	1.430496	-0.006085	0.878200
C37	C	0.843246	-0.506102	0.378209
C38	C	1.343246	-0.006102	0.878209
C39	C	1.134397	-0.779071	0.378205
C40	C	1.634397	-0.279071	0.878205
C41	C	1.134449	-0.895848	0.378225
C42	C	1.634449	-0.395848	0.878225
C43	C	0.802271	-0.573381	0.428326
C44	C	1.302271	-0.073381	0.928326
C45	C	0.720291	-0.573383	0.428339
C46	C	1.220291	-0.073383	0.928339
C47	C	0.679286	-0.506111	0.378230
C48	C	1.179286	-0.006111	0.878230
C49	C	0.720267	-0.438825	0.328111
C50	C	1.220267	0.061175	0.828111
C51	C	0.802246	-0.438818	0.328103
C52	C	1.302246	0.061182	0.828103
C53	C	0.549397	-0.438846	0.328130
C54	C	1.049397	0.061154	0.828130
C55	C	0.467412	-0.438854	0.328136
C56	C	0.967412	0.061146	0.828136
C57	C	0.467442	-0.573410	0.428366
C58	C	0.967442	-0.073410	0.928366
C59	C	0.549421	-0.573404	0.428358
C60	C	1.049421	-0.073404	0.928358
C61	C	0.590395	-0.506119	0.378237
C62	C	1.090395	-0.006119	0.878237
C63	C	1.184699	-0.950699	0.328080
C64	C	1.684699	-0.450699	0.828080
C65	C	1.184747	-1.060423	0.328104
C66	C	1.684747	-0.560423	0.828104
C67	C	1.084289	-1.060435	0.428420
C68	C	1.584289	-0.560435	0.928420
C69	C	1.084245	-0.950713	0.428399
C70	C	1.584245	-0.450713	0.928399
C71	C	1.242695	-0.950693	0.270160
C72	C	1.742695	-0.450693	0.770160
C73	C	1.242743	-1.060417	0.270185
C74	C	1.742743	-0.560417	0.770185
C75	C	1.339188	-0.506124	0.378244
C76	C	1.839188	-0.006124	0.878244
C77	C	1.426437	-0.506132	0.378253
C78	C	1.926437	-0.006132	0.878253
C79	C	1.134491	-0.506026	0.582966
C80	C	1.634491	-0.006026	1.082966
C81	C	1.134511	-0.505993	0.670216
C82	C	1.634511	-0.005993	1.170216
C83	C	1.134512	-0.232071	0.378255
C84	C	1.634512	0.267929	0.878255
C85	C	1.134541	-0.115294	0.378270
C86	C	1.634541	0.384706	0.878270
C87	C	1.134441	-0.506105	0.174274
C88	C	1.634441	-0.006105	0.674274
C89	C	1.134573	-0.505842	0.087025
C90	C	1.634573	-0.005842	0.587025
C91	C	1.184735	-0.438796	0.711221
C92	C	1.684735	0.061204	1.211221
C93	C	1.184745	-0.438761	0.793202
C94	C	1.684745	0.061239	1.293202
C95	C	1.134533	-0.505930	0.834175
C96	C	1.634533	-0.005930	1.334175
C97	C	1.084304	-0.573130	0.793165
C98	C	1.584304	-0.073130	1.293165
C99	C	1.084291	-0.573159	0.711186
C100	C	1.584291	-0.073159	1.211186
C101	C	1.084335	-0.573066	0.964035
C102	C	1.584335	-0.073066	1.464035
C103	C	1.084349	-0.573039	1.046019
C104	C	1.584349	-0.073039	1.546019
C105	C	1.184789	-0.438669	1.046051
C106	C	1.684789	0.061331	1.546051
C107	C	1.184777	-0.438698	0.964072
C108	C	1.684777	0.061302	1.464072
C109	C	1.134547	-0.505900	0.923066
C110	C	1.634547	-0.005900	1.423066
H111	H	0.835651	-0.628165	0.469129
H112	H	1.335651	-0.128165	0.969129
F113	F	1.238228	-0.367277	0.836839
F114	F	1.738228	0.132723	1.336839
F115	F	1.238248	-0.367149	1.089692
F116	F	1.738248	0.132851	1.589692
F117	F	0.593003	-0.367232	0.274786
F118	F	1.093003	0.132768	0.774786
H119	H	1.043415	-1.105120	0.469271
H120	H	1.543415	-0.605120	0.969271
H121	H	0.582804	-0.628188	0.469157
H122	H	1.082804	-0.128188	0.969157
F123	F	0.845854	-0.367209	0.274763
F124	F	1.345854	0.132791	0.774763
F125	F	0.423833	-0.645009	0.481717
F126	F	0.923833	-0.145009	0.981717
H127	H	1.220936	-0.916737	0.212385
H128	H	1.720936	-0.416737	0.712385
F129	F	1.221519	-1.099443	0.190711
F130	F	1.721519	-0.599443	0.690711
H131	H	1.303470	-0.920837	0.286490
H132	H	1.803470	-0.420837	0.786490
H133	H	1.043335	-0.906054	0.469238
H134	H	1.543335	-0.406054	0.969238
H135	H	1.225668	-0.384010	0.930713
H136	H	1.725668	0.115990	1.430713
H137	H	1.043460	-0.627731	1.079378
H138	H	1.543460	-0.127731	1.579378
F139	F	1.030874	-0.644588	0.920396
F140	F	1.530874	-0.144588	1.420396
F141	F	1.030861	-0.644611	0.836774
F142	F	1.530861	-0.144611	1.336774
H143	H	1.300500	-1.094364	0.292013
H144	H	1.800500	-0.594364	0.792013
F145	F	1.238182	-0.367311	0.667621
F146	F	1.738182	0.132689	1.167621
F147	F	0.676625	-0.367222	0.274786
F148	F	1.176625	0.132778	0.774786
H149	H	0.686933	-0.628169	0.469149
H150	H	1.186933	-0.128169	0.969149
F151	F	0.423774	-0.367260	0.274802
F152	F	0.923774	0.132740	0.774802
F153	F	1.030833	-0.644676	0.667545
F154	F	1.530833	-0.144676	1.167545
