data_functionalizedCrystal
_audit_creation_method	'MofGen! by Chris Wilmer'
_symmetry_space_group_name_H-M	'P1'
_symmetry_Int_Tables_number	1
_symmetry_cell_setting	triclinic
loop_
_symmetry_equiv_pos_as_xyz
  x,y,z
_cell_length_a	10.908878
_cell_length_b	11.026607
_cell_length_c	17.766277
_cell_angle_alpha	89.996915
_cell_angle_beta	89.990578
_cell_angle_gamma	84.335404
loop_
_atom_site_label
_atom_site_type_symbol
_atom_site_fract_x
_atom_site_fract_y
_atom_site_fract_z
O1	O	1.662468	-0.179075	-0.062582
O2	O	1.309533	-0.088535	-0.062585
O3	O	1.456750	-0.304555	-0.062581
O4	O	1.515251	0.036945	-0.062586
O5	O	1.456714	-0.304558	0.062607
O6	O	1.309498	-0.088538	0.062603
O7	O	1.662433	-0.179078	0.062607
Cu8	Cu	1.485962	-0.133808	0.074036
Cu9	Cu	1.486004	-0.133805	-0.074014
O10	O	1.515216	0.036942	0.062603
C11	C	1.263630	-0.080075	0.000009
C12	C	1.126902	-0.054876	0.000007
C13	C	1.445939	-0.347589	0.000012
C14	C	1.413766	-0.475811	0.000009
C15	C	1.056640	-0.146821	0.000008
C16	C	0.915324	-0.120779	0.000007
C17	C	1.502601	-0.567544	0.000009
C18	C	1.469351	-0.700068	0.000006
C19	C	1.708336	-0.187538	0.000011
C20	C	1.845063	-0.212737	0.000008
C21	C	1.526026	0.079976	0.000008
C22	C	1.558199	0.208198	0.000006
N23	N	1.485941	-0.133813	0.178166
N24	N	1.486032	-0.133812	-0.178145
C25	C	1.551165	-0.229433	0.217555
C26	C	1.551171	-0.229440	0.296357
C27	C	1.485970	-0.133808	0.335767
C28	C	1.420732	-0.038179	0.296368
C29	C	1.420718	-0.038181	0.217568
C30	C	1.494303	-0.024971	0.460603
C31	C	1.494326	-0.024969	0.539402
C32	C	1.486006	-0.133801	0.578813
C33	C	1.477687	-0.242645	0.539416
C34	C	1.477673	-0.242647	0.460615
C35	C	1.485977	-0.133796	0.421212
C36	C	1.551238	-0.229436	0.703648
C37	C	1.551235	-0.229443	0.782451
C38	C	1.420805	-0.038173	0.782461
C39	C	1.420799	-0.038175	0.703659
C40	C	1.486023	-0.133807	0.664257
H41	H	1.101105	-0.244817	0.000006
H42	H	1.658877	-0.772236	-0.000050
O43	O	1.503315	0.092423	0.581885
H44	H	1.420455	0.111888	0.617808
H45	H	1.082437	0.043120	0.000002
O46	O	1.621524	-0.332601	0.661134
H47	H	1.692442	-0.295823	0.625213
H48	H	1.604343	-0.307314	0.814522
O49	O	1.468602	-0.359947	0.418049
H50	H	1.547843	-0.426497	0.433092
O51	O	1.280410	-0.501720	0.000013
H52	H	1.275221	-0.601744	0.000018
O53	O	1.621527	-0.332575	0.338853
H54	H	1.692432	-0.295746	0.374743
H55	H	1.604270	-0.307304	0.185476
H56	H	1.367641	0.039684	0.328460
H57	H	1.470911	-0.331266	0.571502
H58	H	0.870864	-0.022776	0.000002
H59	H	1.367711	0.039688	0.814548
O60	O	1.350468	0.064969	0.661168
H61	H	1.305138	0.131474	0.701808
O62	O	1.503287	0.092417	0.418096
H63	H	1.509097	0.168095	0.458728
H64	H	0.889522	-0.310740	0.000004
H65	H	1.367604	0.039686	0.185497
H66	H	1.603272	-0.547968	0.000015
H67	H	1.368674	-0.719637	-0.000000
