data_functionalizedCrystal
_audit_creation_method	'MofGen! by Chris Wilmer'
_symmetry_space_group_name_H-M	'P1'
_symmetry_Int_Tables_number	1
_symmetry_cell_setting	triclinic
loop_
_symmetry_equiv_pos_as_xyz
  x,y,z
_cell_length_a	10.540510
_cell_length_b	16.974813
_cell_length_c	16.053802
_cell_angle_alpha	88.912550
_cell_angle_beta	87.392914
_cell_angle_gamma	83.953113
loop_
_atom_site_label
_atom_site_type_symbol
_atom_site_fract_x
_atom_site_fract_y
_atom_site_fract_z
O1	O	1.690018	0.107672	-0.076708
O2	O	2.023351	0.441005	0.256625
O3	O	2.356685	0.774339	0.589959
O4	O	1.320483	0.118162	-0.077417
O5	O	1.653817	0.451495	0.255916
O6	O	1.987150	0.784828	0.589250
O7	O	1.514955	-0.001761	-0.069310
O8	O	1.848288	0.331572	0.264023
O9	O	2.181622	0.664906	0.597356
O10	O	1.495546	0.227594	-0.084815
O11	O	1.828879	0.560928	0.248519
O12	O	2.162213	0.894261	0.581852
O13	O	1.504251	0.004813	0.069104
O14	O	1.837584	0.338146	0.402438
O15	O	2.170917	0.671479	0.735771
O16	O	1.309779	0.124735	0.060998
O17	O	1.643112	0.458068	0.394331
O18	O	1.976446	0.791402	0.727664
O19	O	1.679314	0.114245	0.061707
O20	O	2.012647	0.447579	0.395040
O21	O	2.345980	0.780912	0.728373
Zn22	Zn	1.492847	0.120534	0.083328
Zn23	Zn	1.826180	0.453867	0.416662
Zn24	Zn	2.159513	0.787201	0.749995
Zn25	Zn	1.506950	0.111873	-0.099039
Zn26	Zn	1.840283	0.445206	0.234295
Zn27	Zn	2.173617	0.778540	0.567628
O28	O	1.484842	0.234168	0.053600
O29	O	1.818175	0.567501	0.386933
O30	O	2.151508	0.900834	0.720267
C31	C	1.508666	-0.027843	0.001880
C32	C	1.841999	0.305491	0.335214
C33	C	2.175333	0.638824	0.668547
C34	C	1.505858	-0.115352	0.007791
C35	C	1.839192	0.217981	0.341124
C36	C	2.172525	0.551315	0.674457
C37	C	1.267836	0.120667	-0.008157
C38	C	1.601170	0.454000	0.325176
C39	C	1.934503	0.787333	0.658510
C40	C	1.126912	0.118328	-0.007999
C41	C	1.460246	0.451661	0.325334
C42	C	1.793579	0.784995	0.658668
C43	C	1.510377	-0.160043	-0.064882
C44	C	1.843711	0.173291	0.268452
C45	C	2.177044	0.506624	0.601785
C46	C	1.507731	-0.242266	-0.059326
C47	C	1.841064	0.091067	0.274007
C48	C	2.174398	0.424401	0.607341
C49	C	1.500575	-0.279798	0.018903
C50	C	1.833908	0.053536	0.352237
C51	C	2.167242	0.386869	0.685570
C52	C	1.496052	-0.235101	0.091581
C53	C	1.829385	0.098232	0.424915
C54	C	2.162719	0.431566	0.758248
C55	C	1.498689	-0.152878	0.086025
C56	C	1.832022	0.180455	0.419358
C57	C	2.165356	0.513788	0.752691
C58	C	1.492053	-0.525322	0.043613
C59	C	1.825387	-0.191989	0.376946
C60	C	2.158720	0.141345	0.710280
C61	C	1.489420	-0.607551	0.049164
C62	C	1.822754	-0.274218	0.382497
C63	C	2.156087	0.059116	0.715831
C64	C	1.501097	-0.614710	-0.101744
C65	C	1.834430	-0.281377	0.231589
C66	C	2.167764	0.051957	0.564923
C67	C	1.503741	-0.532486	-0.107294
C68	C	1.837075	-0.199153	0.226040
C69	C	2.170408	0.134180	0.559373
C70	C	1.499212	-0.487796	-0.034616
C71	C	1.832545	-0.154463	0.298718
C72	C	2.165878	0.178871	0.632051
N73	N	1.497874	-0.363844	0.024584
N74	N	1.831207	-0.030510	0.357918
N75	N	2.164540	0.302823	0.691251
N76	N	1.501904	-0.403751	-0.040297
N77	N	1.835237	-0.070418	0.293036
N78	N	2.168570	0.262916	0.626369
C79	C	0.908554	0.201622	-0.013949
C80	C	1.241887	0.534956	0.319385
C81	C	1.575221	0.868289	0.652718
C82	C	1.055098	0.204132	-0.013800
C83	C	1.388431	0.537465	0.319533
C84	C	1.721764	0.870799	0.652866
C85	C	1.076529	0.078158	0.074010
C86	C	1.409862	0.411491	0.407343
C87	C	1.743196	0.744825	0.740676
C88	C	0.929784	0.076274	0.074198
C89	C	1.263118	0.409607	0.407532
C90	C	1.596451	0.742941	0.740865
C91	C	0.942171	0.067012	-0.083084
C92	C	1.275504	0.400345	0.250249
C93	C	1.608837	0.733679	0.583583
C94	C	1.088547	0.071032	-0.084399
C95	C	1.421880	0.404366	0.248935
C96	C	1.755214	0.737699	0.582268
C97	C	1.731961	0.111740	-0.007555
C98	C	2.065294	0.445074	0.325778
C99	C	2.398627	0.778407	0.659111
C100	C	1.872885	0.114079	-0.007719
C101	C	2.206218	0.447412	0.325615
C102	C	2.539552	0.780745	0.658948
C103	C	1.491131	0.260250	-0.017593
C104	C	1.824464	0.593583	0.315741
C105	C	2.157798	0.926916	0.649074
C106	C	1.493939	0.347758	-0.023508
C107	C	1.827272	0.681092	0.309825
C108	C	2.160606	1.014425	0.643158
N109	N	1.483231	0.126444	0.207789
N110	N	1.816564	0.459777	0.541122
N111	N	2.149897	0.793111	0.874456
N112	N	1.516576	0.105957	-0.223499
N113	N	1.849909	0.439290	0.109834
N114	N	2.183243	0.772623	0.443168
C115	C	1.566009	0.075435	0.254931
C116	C	1.899342	0.408769	0.588265
C117	C	2.232676	0.742102	0.921598
C118	C	1.559294	0.079577	0.342058
C119	C	1.892628	0.412911	0.675391
C120	C	2.225961	0.746244	1.008725
C121	C	1.469807	0.134732	0.382041
C122	C	1.803140	0.468066	0.715374
C123	C	2.136473	0.801399	1.048707
C124	C	1.387020	0.185743	0.334892
C125	C	1.720353	0.519077	0.668226
C126	C	2.053686	0.852410	1.001559
C127	C	1.393729	0.181597	0.247768
C128	C	1.727062	0.514930	0.581101
C129	C	2.060396	0.848264	0.914434
C130	C	1.440499	0.152821	0.642228
C131	C	1.773832	0.486155	0.975561
C132	C	2.107165	0.819488	1.308894
C133	C	1.433798	0.156965	0.729359
C134	C	1.767131	0.490299	1.062692
C135	C	2.100464	0.823632	1.396025
C136	C	1.606072	0.050798	0.736518
C137	C	1.939405	0.384131	1.069852
C138	C	2.272739	0.717465	1.403185
C139	C	1.612779	0.046660	0.649391
C140	C	1.946112	0.379993	0.982725
C141	C	2.279445	0.713326	1.316058
C142	C	1.529987	0.097668	0.602251
C143	C	1.863320	0.431001	0.935584
C144	C	2.196654	0.764334	1.268917
N145	N	1.462944	0.138969	0.471098
N146	N	1.796277	0.472302	0.804432
N147	N	2.129610	0.805636	1.137765
N148	N	1.536845	0.093427	0.513195
N149	N	1.870178	0.426760	0.846529
N150	N	2.203511	0.760093	1.179862
H151	H	1.516211	-0.129491	-0.128585
H152	H	1.849545	0.203842	0.204749
H153	H	2.182878	0.537176	0.538082
Cl154	Cl	1.663359	0.015450	0.401324
Cl155	Cl	1.996692	0.348784	0.734657
Cl156	Cl	2.330026	0.682117	1.067991
H157	H	0.884665	0.109097	0.131253
H158	H	1.217998	0.442431	0.464586
H159	H	1.551331	0.775764	0.797919
H160	H	1.638885	0.030526	0.222383
H161	H	1.972218	0.363859	0.555717
H162	H	2.305551	0.697192	0.889050
H163	H	1.360922	0.201882	0.761908
H164	H	1.694256	0.535216	1.095241
H165	H	2.027589	0.868549	1.428575
H166	H	1.314150	0.230649	0.367452
H167	H	1.647483	0.563982	0.700785
H168	H	1.980817	0.897316	1.034118
H169	H	1.326321	0.223133	0.209385
H170	H	1.659654	0.556466	0.542718
H171	H	1.992987	0.889799	0.876052
H172	H	1.373088	0.194356	0.603852
H173	H	1.706422	0.527689	0.937186
H174	H	2.039755	0.861022	1.270519
H175	H	1.511416	-0.278650	-0.118504
H176	H	1.844749	0.054683	0.214830
H177	H	2.178083	0.388017	0.548163
Cl178	Cl	1.150414	-0.019156	0.085141
Cl179	Cl	1.483747	0.314177	0.418474
Cl180	Cl	1.817081	0.647510	0.751808
H181	H	1.509570	-0.501934	-0.170996
H182	H	1.842904	-0.168601	0.162337
H183	H	2.176237	0.164733	0.495670
Cl184	Cl	1.506788	-0.670896	-0.193104
Cl185	Cl	1.840122	-0.337563	0.140229
Cl186	Cl	2.173455	-0.004230	0.473562
H187	H	1.490218	-0.265665	0.155277
H188	H	1.823551	0.067668	0.488611
H189	H	2.156884	0.401001	0.821944
H190	H	1.483586	-0.638106	0.112871
H191	H	1.816920	-0.304773	0.446204
H192	H	2.150253	0.028561	0.779538
H193	H	1.494991	-0.116491	0.145202
H194	H	1.828325	0.216843	0.478536
H195	H	2.161658	0.550176	0.811869
Cl196	Cl	0.894944	-0.022538	0.086489
Cl197	Cl	1.228278	0.310795	0.419822
Cl198	Cl	1.561611	0.644129	0.753155
H199	H	1.685647	0.001748	0.616839
H200	H	2.018980	0.335082	0.950173
H201	H	2.352313	0.668415	1.283506
H202	H	1.673476	0.009269	0.774908
H203	H	2.006809	0.342602	1.108241
H204	H	2.340142	0.675935	1.441575
Cl205	Cl	1.486339	-0.469149	0.134980
Cl206	Cl	1.819672	-0.135816	0.468314
Cl207	Cl	2.153006	0.197517	0.801647
Cl208	Cl	0.849974	0.249083	-0.104954
Cl209	Cl	1.183308	0.582416	0.228380
Cl210	Cl	1.516641	0.915749	0.561713
H211	H	0.920775	0.002565	-0.079264
H212	H	1.254108	0.335898	0.254070
H213	H	1.587442	0.669231	0.587403
Cl214	Cl	1.091591	0.261662	0.070220
Cl215	Cl	1.424924	0.594996	0.403554
Cl216	Cl	1.758257	0.928329	0.736887
H217	H	1.102495	0.111456	0.130769
H218	H	1.435828	0.444789	0.464102
H219	H	1.769161	0.778122	0.797436
H220	H	1.121332	0.100214	-0.145032
H221	H	1.454665	0.433547	0.188301
H222	H	1.787998	0.766880	0.521635
Cl223	Cl	0.883187	0.104406	-0.178404
Cl224	Cl	1.216521	0.437739	0.154930
Cl225	Cl	1.549854	0.771072	0.488263
H226	H	1.088443	0.235804	-0.072784
H227	H	1.421776	0.569137	0.260549
H228	H	1.755109	0.902470	0.593883
H229	H	0.860318	0.237535	0.040167
H230	H	1.193652	0.570868	0.373500
H231	H	1.526985	0.904202	0.706834
H232	H	1.138681	0.008162	-0.084937
H233	H	1.472015	0.341496	0.248396
H234	H	1.805348	0.674829	0.581729
