data_functionalizedCrystal
_audit_creation_method	'MofGen! by Chris Wilmer'
_symmetry_space_group_name_H-M	'P1'
_symmetry_Int_Tables_number	1
_symmetry_cell_setting	triclinic
loop_
_symmetry_equiv_pos_as_xyz
  x,y,z
_cell_length_a	8.559649
_cell_length_b	14.853567
_cell_length_c	7.088929
_cell_angle_alpha	83.771294
_cell_angle_beta	95.325015
_cell_angle_gamma	76.706797
loop_
_atom_site_label
_atom_site_type_symbol
_atom_site_fract_x
_atom_site_fract_y
_atom_site_fract_z
O1	O	2.103683	-0.020180	-0.158959
O2	O	1.638582	0.026373	-0.158964
O3	O	1.883556	-0.129002	-0.158967
O4	O	1.858710	0.135195	-0.158956
O5	O	1.916294	-0.149808	0.159008
O6	O	1.671320	0.005566	0.159011
O7	O	2.136422	-0.040986	0.159016
Cu8	Cu	1.906860	-0.019609	0.188047
Cu9	Cu	1.868144	0.004996	-0.187995
O10	O	1.891448	0.114389	0.159019
C11	C	1.595429	0.019497	0.000023
C12	C	1.418072	0.029999	0.000021
C13	C	1.898798	-0.172915	0.000015
C14	C	1.895423	-0.272761	-0.000002
C15	C	1.735645	-0.674122	0.000033
C16	C	2.026680	-0.715759	0.000036
C17	C	2.029851	-0.621946	0.000024
C18	C	1.885917	-0.554217	0.000020
C19	C	1.738813	-0.580300	0.000028
C20	C	2.176955	-0.595857	0.000037
C21	C	2.180133	-0.502039	0.000027
C22	C	2.036196	-0.434307	0.000010
C23	C	1.889085	-0.460395	0.000015
C24	C	1.745151	-0.392666	0.000011
C25	C	1.598037	-0.418751	0.000002
C26	C	1.594876	-0.512568	0.000010
C27	C	2.039357	-0.340490	0.000002
C28	C	1.748318	-0.298844	0.000005
C29	C	2.179574	-0.034110	0.000025
C30	C	2.356930	-0.044611	0.000015
C31	C	1.876205	0.158302	0.000033
C32	C	1.879579	0.258149	0.000037
N33	N	1.934103	-0.036917	0.452535
N34	N	1.840913	0.022296	-0.452483
H35	H	1.334725	0.101914	0.000013
H36	H	1.475103	-0.533816	0.000005
H37	H	2.030702	-0.098278	0.534189
H38	H	1.440266	-0.116520	0.000002
H39	H	1.615868	-0.695364	0.000018
O40	O	2.166566	-0.781447	-0.000215
C41	C	2.397323	-0.835009	-0.165016
C42	C	2.238952	-0.760537	-0.164941
H43	H	2.455876	-0.818141	-0.298203
H44	H	2.483516	-0.835528	-0.032040
H45	H	2.369756	-0.906537	-0.164912
H46	H	2.266367	-0.688971	-0.165112
H47	H	2.152807	-0.760100	-0.297905
H48	H	1.631107	-0.243703	-0.000006
O49	O	1.725852	0.095607	0.450215
C50	C	1.626592	0.262819	0.388711
C51	C	1.757024	0.179879	0.499004
H52	H	1.651729	0.330972	0.428147
H53	H	1.628809	0.261480	0.228480
H54	H	1.502594	0.257399	0.427957
H55	H	1.881085	0.185245	0.459919
H56	H	1.754663	0.181246	0.659209
H57	H	1.480848	-0.363595	0.000012
H58	H	2.299921	-0.480810	0.000032
O59	O	2.182117	-0.315017	-0.000244
C60	C	2.337677	-0.222531	-0.165038
C61	C	2.175900	-0.251283	-0.164970
H62	H	2.332717	-0.171014	-0.298225
H63	H	2.360142	-0.188286	-0.032063
H64	H	2.439991	-0.287073	-0.164929
H65	H	2.073485	-0.186789	-0.165146
H66	H	2.153575	-0.285562	-0.297934
H67	H	2.294140	-0.651009	0.000058
