data_functionalizedCrystal
_audit_creation_method	'MofGen! by Chris Wilmer'
_symmetry_space_group_name_H-M	'P1'
_symmetry_Int_Tables_number	1
_symmetry_cell_setting	triclinic
loop_
_symmetry_equiv_pos_as_xyz
  x,y,z
_cell_length_a	14.044220
_cell_length_b	14.519709
_cell_length_c	13.101039
_cell_angle_alpha	86.641741
_cell_angle_beta	86.332523
_cell_angle_gamma	91.565489
loop_
_atom_site_label
_atom_site_type_symbol
_atom_site_fract_x
_atom_site_fract_y
_atom_site_fract_z
O1	O	0.119055	-1.238528	0.085082
O2	O	0.452389	-0.905194	0.418416
O3	O	0.785722	-0.571861	0.751749
O4	O	0.133688	-0.971233	0.085114
O5	O	0.467021	-0.637900	0.418447
O6	O	0.800355	-0.304566	0.751781
O7	O	-0.011619	-1.100868	0.085089
O8	O	0.321714	-0.767534	0.418422
O9	O	0.655048	-0.434201	0.751755
O10	O	0.264362	-1.108893	0.085108
O11	O	0.597696	-0.775560	0.418441
O12	O	0.931029	-0.442226	0.751774
O13	O	-0.001176	-1.091568	-0.085340
O14	O	0.332157	-0.758235	0.247994
O15	O	0.665490	-0.424901	0.581327
O16	O	0.144131	-0.961933	-0.085314
O17	O	0.477464	-0.628600	0.248019
O18	O	0.810798	-0.295266	0.581353
O19	O	0.129498	-1.229228	-0.085346
O20	O	0.462832	-0.895895	0.247988
O21	O	0.796165	-0.562561	0.581321
Zn22	Zn	0.138473	-1.094104	-0.112389
Zn23	Zn	0.471806	-0.760771	0.220944
Zn24	Zn	0.805139	-0.427437	0.554278
Zn25	Zn	0.124714	-1.106357	0.112157
Zn26	Zn	0.458047	-0.773023	0.445491
Zn27	Zn	0.791380	-0.439690	0.778824
O28	O	0.274805	-1.099593	-0.085320
O29	O	0.608139	-0.766260	0.248013
O30	O	0.941472	-0.432926	0.581346
C31	C	0.138227	-0.932168	-0.000096
C32	C	0.471560	-0.598835	0.333237
C33	C	0.804894	-0.265502	0.666571
C34	C	0.136183	-0.829623	-0.000084
C35	C	0.469516	-0.496290	0.333249
C36	C	0.802849	-0.162956	0.666582
C37	C	-0.041718	-1.092705	-0.000126
C38	C	0.291615	-0.759372	0.333208
C39	C	0.624949	-0.426039	0.666541
C40	C	-0.146962	-1.082228	-0.000126
C41	C	0.186372	-0.748895	0.333208
C42	C	0.519705	-0.415561	0.666541
N43	N	0.147862	-1.085748	-0.265636
N44	N	0.481195	-0.752415	0.067697
N45	N	0.814529	-0.419082	0.401031
C46	C	-0.339657	-1.063075	-0.000109
C47	C	-0.006323	-0.729741	0.333225
C48	C	0.327010	-0.396408	0.666558
C49	C	-0.397163	-1.137382	-0.000114
C50	C	-0.063830	-0.804049	0.333219
C51	C	0.269503	-0.470716	0.666552
C52	C	-0.504385	-1.126725	-0.000105
C53	C	-0.171052	-0.793392	0.333229
C54	C	0.162281	-0.460059	0.666562
C55	C	-0.232424	-1.073730	-0.000118
C56	C	0.100909	-0.740397	0.333215
C57	C	0.434242	-0.407064	0.666549
C58	C	0.304904	-1.107756	-0.000104
C59	C	0.638238	-0.774422	0.333229
C60	C	0.971571	-0.441089	0.666563
C61	C	0.410147	-1.118233	-0.000097
C62	C	0.743481	-0.784900	0.333236
C63	C	1.076814	-0.451566	0.666569
C64	C	0.124959	-1.268292	-0.000133
C65	C	0.458292	-0.934959	0.333200
C66	C	0.791626	-0.601626	0.666533
C67	C	0.127003	-1.370838	-0.000138
C68	C	0.460336	-1.037505	0.333195
C69	C	0.793670	-0.704172	0.666528
C70	C	0.128661	-0.454118	-0.000131
C71	C	0.461995	-0.120784	0.333202
C72	C	0.795328	0.212549	0.666535
C73	C	0.130750	-0.558595	-0.000118
C74	C	0.464083	-0.225262	0.333215
C75	C	0.797417	0.108072	0.666549
C76	C	0.132422	-0.641867	-0.000107
C77	C	0.465755	-0.308534	0.333226
C78	C	0.799088	0.024800	0.666560
C79	C	0.134511	-0.746351	-0.000095
C80	C	0.467844	-0.413017	0.333238
C81	C	0.801178	-0.079684	0.666571
C82	C	0.160646	-1.074381	-0.474676
C83	C	0.493979	-0.741048	-0.141343
C84	C	0.827312	-0.407714	0.191990
C85	C	0.102536	-1.126083	-0.525562
C86	C	0.435870	-0.792750	-0.192229
C87	C	0.769203	-0.459417	0.141105
C88	C	0.109649	-1.119759	-0.641879
C89	C	0.442982	-0.786425	-0.308546
C90	C	0.776316	-0.453092	0.024787
C91	C	0.153534	-1.080705	-0.358348
C92	C	0.486867	-0.747372	-0.025015
C93	C	0.820201	-0.414038	0.308318
N94	N	0.115317	-1.114719	0.265404
N95	N	0.448650	-0.781386	0.598737
N96	N	0.781983	-0.448052	0.932071
H97	H	-0.365875	-1.209007	-0.000054
H98	H	-0.032541	-0.875674	0.333279
H99	H	0.300792	-0.542341	0.666613
H100	H	-0.370948	-0.991459	-0.000098
H101	H	-0.037615	-0.658126	0.333236
H102	H	0.295719	-0.324793	0.666569
H103	H	0.215734	-1.025371	-0.518464
H104	H	0.549067	-0.692038	-0.185130
H105	H	0.882400	-0.358704	0.148203
H106	H	0.047446	-1.175098	-0.481769
H107	H	0.380779	-0.841765	-0.148436
H108	H	0.714112	-0.508431	0.184897
