data_functionalizedCrystal
_audit_creation_method	'MofGen! by Chris Wilmer'
_symmetry_space_group_name_H-M	'P1'
_symmetry_Int_Tables_number	1
_symmetry_cell_setting	triclinic
loop_
_symmetry_equiv_pos_as_xyz
  x,y,z
_cell_length_a	6.817900
_cell_length_b	10.992421
_cell_length_c	17.982968
_cell_angle_alpha	94.187483
_cell_angle_beta	102.451960
_cell_angle_gamma	108.764763
loop_
_atom_site_label
_atom_site_type_symbol
_atom_site_fract_x
_atom_site_fract_y
_atom_site_fract_z
V1	V	-4.042210	-0.178964	-0.237538
O2	O	-4.001706	0.007362	-0.233027
O3	O	-4.020285	-0.353665	-0.235903
O4	O	-3.988383	-0.176755	-0.341141
O5	O	-4.033829	-0.170773	-0.127060
V6	V	-4.523111	-0.156613	-0.224325
O7	O	-4.309221	-0.227993	-0.266521
O8	O	-4.706298	-0.107585	-0.195342
O9	O	-4.321830	0.018087	-0.225960
O10	O	-4.681012	-0.342939	-0.228836
O11	O	-4.648889	-0.164804	-0.334803
O12	O	-4.353732	-0.158823	-0.120722
C13	C	-3.871902	-0.396236	-0.232153
C14	C	-3.935226	-0.539059	-0.231506
C15	C	-3.831206	-0.170568	-0.366394
C16	C	-3.868655	-0.169917	-0.451090
C17	C	-4.069144	-0.176050	-0.494761
C18	C	-4.104319	-0.175438	-0.574342
C19	C	-3.939007	-0.168703	-0.610251
C20	C	-3.738499	-0.162566	-0.566573
C21	C	-3.703322	-0.163169	-0.486993
C22	C	-3.880357	-0.160133	-0.887510
C23	C	-3.915553	-0.159534	-0.967096
C24	C	-4.281355	-0.172402	-0.974859
C25	C	-4.246178	-0.173005	-0.895279
C26	C	-4.045671	-0.166861	-0.851608
C27	C	-4.007532	-0.167522	-0.765317
C28	C	-3.977148	-0.168051	-0.696540
C29	C	-3.804470	-0.734320	-0.226296
C30	C	-3.738276	-0.585678	-0.226667
C31	C	-4.027382	-0.577335	-0.160457
C32	C	-4.091846	-0.725874	-0.159704
C33	C	-4.179181	-0.765194	-0.305352
C34	C	-4.109660	-0.616688	-0.306894
C35	C	-4.133556	0.060652	-0.229708
C36	C	-4.049470	0.203474	-0.230359
C37	C	-4.174251	-0.165013	-0.095465
C38	C	-4.116040	-0.165657	-0.010768
H39	H	-4.267571	-0.180424	-0.609895
H40	H	-3.603897	-0.157074	-0.595815
H41	H	-3.763346	-0.780996	-0.276749
C42	C	-3.640287	-0.551206	-0.295245
C43	C	-3.621863	-0.659057	-0.350057
C44	C	-3.523865	-0.624593	-0.418637
C45	C	-3.444292	-0.482279	-0.432405
C46	C	-3.462713	-0.374418	-0.377592
C47	C	-3.560711	-0.408882	-0.309012
H48	H	-3.680770	-0.764416	-0.339866
H49	H	-3.510229	-0.704440	-0.459213
H50	H	-3.371748	-0.456767	-0.483172
H51	H	-3.403806	-0.269060	-0.387783
H52	H	-3.574347	-0.329036	-0.268436
H53	H	-4.203770	-0.181543	-0.465531
H54	H	-4.156539	-0.814983	-0.359114
C55	C	-4.021924	-0.584752	-0.377905
C56	C	-4.005849	-0.693824	-0.432467
C57	C	-3.918094	-0.661868	-0.503474
C58	C	-3.846414	-0.520840	-0.519918
C59	C	-3.862488	-0.411758	-0.465354
C60	C	-3.950242	-0.443714	-0.394348
H61	H	-4.058912	-0.798231	-0.420296
H62	H	-3.906196	-0.742619	-0.543865
H63	H	-3.781453	-0.497184	-0.572481
H64	H	-3.809424	-0.307352	-0.477526
H65	H	-3.962140	-0.362964	-0.353956
H66	H	-3.705079	-0.754606	-0.172213
C67	C	-3.559646	-0.514506	-0.153521
C68	C	-3.601031	-0.531878	-0.073426
C69	C	-3.422422	-0.460734	-0.000264
C70	C	-3.202429	-0.372216	-0.007197
C71	C	-3.161034	-0.354839	-0.087294
C72	C	-3.339643	-0.425984	-0.160456
H73	H	-3.763892	-0.597408	-0.068292
H74	H	-3.453066	-0.473598	0.059029
H75	H	-3.070212	-0.319551	0.046962
H76	H	-2.998173	-0.289310	-0.092428
H77	H	-3.308999	-0.413120	-0.219749
C78	C	-3.965268	-0.749160	-0.083500
C79	C	-3.989547	-0.694315	-0.006056
C80	C	-3.862956	-0.717592	0.070149
C81	C	-3.712086	-0.795714	0.068911
C82	C	-3.687801	-0.850564	-0.008536
C83	C	-3.814391	-0.827287	-0.084741
H84	H	-4.101236	-0.636480	-0.005137
H85	H	-3.880935	-0.676988	0.127480
H86	H	-3.618376	-0.812945	0.125323
H87	H	-3.576112	-0.908399	-0.009455
H88	H	-3.796412	-0.867891	-0.142072
H89	H	-4.257035	-0.586521	-0.314829
H90	H	-4.380799	-0.178496	-0.866047
H91	H	-4.444618	-0.177399	-1.010425
H92	H	-3.780922	-0.154046	-0.996330
H93	H	-3.717120	-0.155176	-0.851967
H94	H	-3.540050	-0.158143	-0.451433
H95	H	-4.268091	-0.766757	-0.159592
H96	H	-4.172766	-0.547103	-0.161276
H97	H	-3.903719	-0.522814	-0.104645
H98	H	-4.357901	-0.806330	-0.309076
