data_functionalizedCrystal
_audit_creation_method	'MofGen! by Chris Wilmer'
_symmetry_space_group_name_H-M	'P1'
_symmetry_Int_Tables_number	1
_symmetry_cell_setting	triclinic
loop_
_symmetry_equiv_pos_as_xyz
  x,y,z
_cell_length_a	16.974800
_cell_length_b	16.974813
_cell_length_c	14.586319
_cell_angle_alpha	86.341649
_cell_angle_beta	93.653309
_cell_angle_gamma	83.627081
loop_
_atom_site_label
_atom_site_type_symbol
_atom_site_fract_x
_atom_site_fract_y
_atom_site_fract_z
O1	O	1.049039	0.100721	-0.005848
O2	O	1.382372	0.434055	0.327486
O3	O	1.715706	0.767388	0.660819
O4	O	0.818818	0.113570	-0.023890
O5	O	1.152151	0.446903	0.309443
O6	O	1.485485	0.780236	0.642776
O7	O	0.940346	-0.007965	-0.005848
O8	O	1.273680	0.325368	0.327485
O9	O	1.607013	0.658701	0.660819
O10	O	0.927510	0.222256	-0.023890
O11	O	1.260844	0.555589	0.309443
O12	O	1.594177	0.888923	0.642776
O13	O	0.940338	-0.007967	0.146632
O14	O	1.273671	0.325366	0.479966
O15	O	1.607005	0.658700	0.813299
O16	O	0.818810	0.113568	0.128590
O17	O	1.152143	0.446901	0.461923
O18	O	1.485476	0.780235	0.795256
O19	O	1.049031	0.100719	0.146633
O20	O	1.382364	0.434053	0.479966
O21	O	1.715697	0.767386	0.813299
Cu22	Cu	0.933919	0.107144	0.151534
Cu23	Cu	1.267253	0.440477	0.484867
Cu24	Cu	1.600586	0.773810	0.818201
Cu25	Cu	0.933929	0.107146	-0.028792
Cu26	Cu	1.267263	0.440479	0.304542
Cu27	Cu	1.600596	0.773812	0.637875
O28	O	0.927502	0.222254	0.128590
O29	O	1.260835	0.555588	0.461923
O30	O	1.594169	0.888921	0.795257
C31	C	0.789356	0.113082	0.050199
C32	C	1.122689	0.446415	0.383532
C33	C	1.456022	0.779749	0.716866
C34	C	0.701580	0.111622	0.043792
C35	C	1.034914	0.444956	0.377125
C36	C	1.368247	0.778289	0.710458
C37	C	0.660344	0.110934	0.123901
C38	C	0.993677	0.444267	0.457234
C39	C	1.327010	0.777600	0.790568
C40	C	0.577871	0.109549	0.117884
C41	C	0.911204	0.442883	0.451217
C42	C	1.244538	0.776216	0.784551
C43	C	0.536636	0.108860	0.031757
C44	C	0.869969	0.442193	0.365090
C45	C	1.203303	0.775526	0.698424
C46	C	0.577879	0.109546	-0.048358
C47	C	0.911212	0.442879	0.284975
C48	C	1.244546	0.776213	0.618309
C49	C	0.660351	0.110925	-0.042340
C50	C	0.993684	0.444258	0.290993
C51	C	1.327017	0.777591	0.624327
C52	C	0.289983	0.104732	0.004846
C53	C	0.623316	0.438065	0.338179
C54	C	0.956649	0.771398	0.671512
C55	C	0.207505	0.103355	-0.001167
C56	C	0.540838	0.436689	0.332167
C57	C	0.874172	0.770022	0.665500
C58	C	0.207503	0.103357	0.165076
C59	C	0.540836	0.436691	0.498410
C60	C	0.874169	0.770024	0.831743
C61	C	0.289976	0.104741	0.171086
C62	C	0.623309	0.438074	0.504420
C63	C	0.956642	0.771407	0.837753
C64	C	0.331212	0.105423	0.090972
C65	C	0.664545	0.438756	0.424305
C66	C	0.997879	0.772090	0.757639
N67	N	0.452336	0.107447	0.025604
N68	N	0.785669	0.440781	0.358938
N69	N	1.119002	0.774114	0.692271
N70	N	0.415512	0.106830	0.097126
N71	N	0.748845	0.440163	0.430459
N72	N	1.082178	0.773496	0.763792
C73	C	0.939854	-0.037424	0.072541
C74	C	1.273187	0.295909	0.405874
C75	C	1.606521	0.629243	0.739207
C76	C	0.938390	-0.125199	0.078942
C77	C	1.271723	0.208134	0.412275
C78	C	1.605056	0.541468	0.745609
C79	C	0.937708	-0.166431	-0.001167
C80	C	1.271041	0.166903	0.332166
C81	C	1.604375	0.500236	0.665500
C82	C	0.936327	-0.248904	0.004850
C83	C	1.269660	0.084429	0.338183
C84	C	1.602994	0.417763	0.671516
C85	C	0.935633	-0.290145	0.090977
C86	C	1.268966	0.043188	0.424310
C87	C	1.602300	0.376522	0.757644
C88	C	0.936312	-0.248908	0.171092
C89	C	1.269646	0.084426	0.504425
C90	C	1.602979	0.417759	0.837759
C91	C	0.937688	-0.166435	0.165074
C92	C	1.271021	0.166898	0.498407
C93	C	1.604354	0.500232	0.831740
C94	C	0.931514	-0.536802	0.117889
C95	C	1.264847	-0.203468	0.451222
C96	C	1.598180	0.129865	0.784556
C97	C	0.930141	-0.619280	0.123901
C98	C	1.263474	-0.285947	0.457235
C99	C	1.596807	0.047386	0.790568
C100	C	0.930154	-0.619271	-0.042342
C101	C	1.263487	-0.285937	0.290992
C102	C	1.596820	0.047396	0.624325
C103	C	0.931534	-0.536797	-0.048352
C104	C	1.264867	-0.203464	0.284981
C105	C	1.598201	0.129869	0.618315
C106	C	0.932209	-0.495566	0.031762
C107	C	1.265542	-0.162233	0.365096
C108	C	1.598876	0.171100	0.698429
N109	N	0.934224	-0.374446	0.097130
N110	N	1.267557	-0.041113	0.430463
N111	N	1.600890	0.292220	0.763796
N112	N	0.933612	-0.411266	0.025609
N113	N	1.266946	-0.077932	0.358942
N114	N	1.600279	0.255401	0.692275
C115	C	1.078493	0.101207	0.072541
C116	C	1.411826	0.434540	0.405874
C117	C	1.745159	0.767874	0.739208
C118	C	1.166268	0.102667	0.078942
C119	C	1.499601	0.436000	0.412276
C120	C	1.832935	0.769333	0.745609
C121	C	0.927995	0.251713	0.050199
C122	C	1.261328	0.585046	0.383533
C123	C	1.594661	0.918380	0.716866
C124	C	0.929459	0.339488	0.043792
C125	C	1.262792	0.672822	0.377126
C126	C	1.596126	1.006155	0.710459
N127	N	0.933918	0.107142	0.278366
N128	N	1.267251	0.440475	0.611699
N129	N	1.600585	0.773808	0.945032
N130	N	0.933937	0.107141	-0.155623
N131	N	1.267270	0.440475	0.177711
N132	N	1.600603	0.773808	0.511044
C133	C	0.987749	0.053344	0.521361
C134	C	1.321082	0.386677	0.854695
C135	C	1.654415	0.720011	1.188028
C136	C	0.987751	0.053342	0.617343
C137	C	1.321084	0.386675	0.950676
C138	C	1.654418	0.720009	1.284010
C139	C	0.880100	0.160942	0.601374
C140	C	1.213434	0.494275	0.934708
C141	C	1.546767	0.827608	1.268041
C142	C	0.880095	0.160939	0.505395
C143	C	1.213428	0.494272	0.838728
C144	C	1.546762	0.827606	1.172061
C145	C	0.933924	0.107141	0.465391
C146	C	1.267257	0.440474	0.798724
C147	C	1.600590	0.773808	1.132058
C148	C	0.933931	0.107142	0.657352
C149	C	1.267265	0.440475	0.990686
C150	C	1.600598	0.773808	1.324019
C151	C	0.933933	0.107140	0.761420
C152	C	1.267267	0.440473	1.094753
C153	C	1.600600	0.773807	1.428086
C154	C	0.933921	0.107142	0.361317
C155	C	1.267254	0.440475	0.694650
C156	C	1.600587	0.773808	1.027984
H157	H	0.693910	0.111502	0.194034
H158	H	1.027244	0.444835	0.527368
H159	H	1.360577	0.778169	0.860701
Cl160	Cl	0.929303	-0.671108	-0.143050
Cl161	Cl	1.262637	-0.337775	0.190283
Cl162	Cl	1.595970	-0.004442	0.523616
H163	H	0.938232	-0.132864	0.230306
H164	H	1.271565	0.200469	0.563639
H165	H	1.604898	0.533803	0.896973
H166	H	0.544301	0.108975	0.183119
H167	H	0.877635	0.442309	0.516452
H168	H	1.210968	0.775642	0.849785
H169	H	0.323548	0.105285	-0.060389
H170	H	0.656881	0.438618	0.272944
H171	H	0.990214	0.771951	0.606277
Cl172	Cl	0.812436	0.228573	0.651669
Cl173	Cl	1.145770	0.561907	0.985003
Cl174	Cl	1.479103	0.895240	1.318336
Cl175	Cl	1.055418	-0.014293	0.687704
Cl176	Cl	1.388751	0.319040	1.021037
Cl177	Cl	1.722084	0.652373	1.354370
Cl178	Cl	0.341807	0.105613	0.279365
Cl179	Cl	0.675140	0.438947	0.612698
Cl180	Cl	1.008474	0.772280	0.946031
Cl181	Cl	0.932408	-0.484957	-0.156631
Cl182	Cl	1.265741	-0.151624	0.176703
Cl183	Cl	1.599075	0.181709	0.510036
H184	H	0.544300	0.108979	-0.118484
H185	H	0.877633	0.442312	0.214849
H186	H	1.210966	0.775646	0.548182
Cl187	Cl	0.812420	0.228571	0.435025
Cl188	Cl	1.145754	0.561905	0.768358
Cl189	Cl	1.479087	0.895238	1.101692
Cl190	Cl	0.155659	0.102496	0.265785
Cl191	Cl	0.488992	0.435829	0.599119
Cl192	Cl	0.822326	0.769163	0.932452
H193	H	0.173933	0.102796	-0.071306
H194	H	0.507267	0.436129	0.262028
H195	H	0.840600	0.769463	0.595361
Cl196	Cl	0.938586	-0.114593	-0.109447
Cl197	Cl	1.271919	0.218740	0.223886
Cl198	Cl	1.605252	0.552073	0.557220
Cl199	Cl	0.712192	0.111787	-0.143053
Cl200	Cl	1.045525	0.445120	0.190281
Cl201	Cl	1.378859	0.778453	0.523614
Cl202	Cl	0.935472	-0.300735	-0.095864
Cl203	Cl	1.268805	0.032599	0.237470
Cl204	Cl	1.602138	0.365932	0.570803
H205	H	0.932079	-0.503243	0.183125
H206	H	1.265412	-0.169910	0.516459
H207	H	1.598746	0.163423	0.849792
Cl208	Cl	0.929273	-0.671126	0.232184
Cl209	Cl	1.262607	-0.337793	0.565518
Cl210	Cl	1.595940	-0.004459	0.898851
Cl211	Cl	0.935430	-0.300752	0.279366
Cl212	Cl	1.268764	0.032581	0.612700
Cl213	Cl	1.602097	0.365914	0.946033
Cl214	Cl	1.055416	-0.014291	0.471075
Cl215	Cl	1.388749	0.319042	0.804408
Cl216	Cl	1.722082	0.652376	1.137742
