data_functionalizedCrystal
_audit_creation_method	'MofGen! by Chris Wilmer'
_symmetry_space_group_name_H-M	'P1'
_symmetry_Int_Tables_number	1
_symmetry_cell_setting	triclinic
loop_
_symmetry_equiv_pos_as_xyz
  x,y,z
_cell_length_a	14.908742
_cell_length_b	13.897448
_cell_length_c	14.908308
_cell_angle_alpha	93.267188
_cell_angle_beta	96.760659
_cell_angle_gamma	86.724243
loop_
_atom_site_label
_atom_site_type_symbol
_atom_site_fract_x
_atom_site_fract_y
_atom_site_fract_z
Zn1	Zn	1.354248	-0.494143	-0.431772
Zn2	Zn	1.362892	-0.646655	-0.280418
Zn3	Zn	1.211622	-0.476589	-0.289179
Zn4	Zn	1.202865	-0.646601	-0.440481
O5	O	1.282907	-0.565997	-0.360463
O6	O	1.482056	-0.521744	-0.404383
O7	O	1.350109	-0.616772	-0.154918
O8	O	1.230589	-0.343940	-0.308117
O9	O	1.488407	-0.633794	-0.293184
O10	O	1.335376	-0.356837	-0.412879
O11	O	1.238971	-0.491825	-0.161355
O12	O	1.083799	-0.491772	-0.316562
O13	O	1.215664	-0.633701	-0.565989
O14	O	1.077365	-0.616679	-0.427722
O15	O	1.326884	-0.521691	-0.559590
O16	O	1.341617	-0.781625	-0.301629
O17	O	1.224045	-0.781585	-0.419227
C18	C	1.047740	-0.552316	-0.374038
C19	C	0.947133	-0.546487	-0.379867
C20	C	0.802017	-0.480048	-0.446062
C21	C	0.896546	-0.485516	-0.440590
C22	C	0.903185	-0.601996	-0.324615
C23	C	0.808656	-0.596527	-0.330088
C24	C	0.758076	-0.535550	-0.390812
C25	C	0.663546	-0.530077	-0.396279
C26	C	0.670186	-0.646562	-0.280310
C27	C	0.764715	-0.652030	-0.274838
C28	C	1.282842	-0.816606	-0.360440
C29	C	1.282896	-0.923824	-0.360456
C30	C	1.282988	-1.120128	-0.360508
C31	C	1.282934	-1.010891	-0.360482
C32	C	1.518992	-0.579733	-0.346835
C33	C	1.619598	-0.585586	-0.341027
C34	C	1.269333	-0.579648	-0.596550
C35	C	1.263548	-0.585465	-0.697156
C36	C	1.282995	-0.314412	-0.360504
C37	C	1.283033	-0.207202	-0.360521
C38	C	1.368490	-0.479738	-0.879545
C39	C	1.363058	-0.485200	-0.974073
C40	C	1.247248	-0.601847	-0.980743
C41	C	1.252680	-0.596385	-0.886215
C42	C	1.313304	-0.535329	-0.835619
C43	C	1.318740	-0.529872	-0.741088
C44	C	1.202926	-0.646513	-0.747760
C45	C	1.197494	-0.651976	-0.842288
C46	C	1.296480	-0.552333	-0.125291
C47	C	1.302440	-0.546254	-0.024675
H48	H	0.760834	-0.430388	-0.495497
Br49	Br	0.971845	-0.684757	-0.242222
Br50	Br	0.594901	-0.447319	-0.478685
Br51	Br	0.956179	-0.410193	-0.515579
Br52	Br	0.833367	-0.734785	-0.192434
Br53	Br	1.437953	-0.409748	-1.033686
Br54	Br	1.450776	-0.396894	-0.810874
Br55	Br	0.610547	-0.721882	-0.205315
H56	H	1.157992	-0.691782	-0.711986
H57	H	1.368105	-0.480159	-0.699894
H58	H	1.197890	-0.651555	-1.021954
Br59	Br	1.115220	-0.734829	-0.910962
