data_functionalizedCrystal
_audit_creation_method	'MofGen! by Chris Wilmer'
_symmetry_space_group_name_H-M	'P1'
_symmetry_Int_Tables_number	1
_symmetry_cell_setting	triclinic
loop_
_symmetry_equiv_pos_as_xyz
  x,y,z
_cell_length_a	17.077404
_cell_length_b	21.395362
_cell_length_c	17.077396
_cell_angle_alpha	90.031646
_cell_angle_beta	90.018362
_cell_angle_gamma	90.025469
loop_
_atom_site_label
_atom_site_type_symbol
_atom_site_fract_x
_atom_site_fract_y
_atom_site_fract_z
Zn1	Zn	1.200029	-0.249472	0.443802
Zn2	Zn	1.199926	-0.354254	0.312528
Zn3	Zn	1.068761	-0.249490	0.312552
Zn4	Zn	1.068719	-0.354212	0.443755
O5	O	1.134359	-0.301857	0.378159
O6	O	1.309863	-0.263382	0.426398
O7	O	1.182501	-0.340381	0.202684
O8	O	1.086235	-0.161810	0.329992
O9	O	1.309787	-0.340364	0.329952
O10	O	1.182678	-0.161797	0.426421
O11	O	1.086135	-0.263412	0.202702
O12	O	0.958909	-0.263372	0.329947
O13	O	1.086163	-0.340294	0.553608
O14	O	0.958877	-0.340311	0.426341
O15	O	1.182636	-0.263342	0.553642
O16	O	1.182460	-0.441926	0.329906
O17	O	1.086062	-0.441896	0.426317
C18	C	0.930411	-0.301839	0.378142
C19	C	0.843161	-0.301847	0.378153
C20	C	0.802211	-0.261834	0.428449
C21	C	0.720231	-0.261838	0.428452
C22	C	0.679202	-0.301859	0.378163
C23	C	0.720157	-0.341874	0.327862
C24	C	0.802136	-0.341866	0.327855
C25	C	0.549287	-0.341888	0.327881
C26	C	0.467303	-0.341897	0.327889
C27	C	0.467382	-0.261859	0.428479
C28	C	0.549361	-0.261852	0.428472
C29	C	0.590311	-0.301868	0.378171
C30	C	1.134267	-0.464645	0.378121
C31	C	1.134299	-0.534286	0.378131
C32	C	1.184742	-1.036077	0.328085
C33	C	1.184712	-0.970642	0.328067
C34	C	1.134470	-0.937924	0.378215
C35	C	1.084240	-0.970648	0.428372
C36	C	1.084265	-1.036082	0.428383
C37	C	1.128190	-0.834222	0.448914
C38	C	1.128170	-0.768789	0.448904
C39	C	1.134387	-0.736104	0.378180
C40	C	1.140640	-0.768859	0.307463
C41	C	1.140666	-0.834293	0.307475
C42	C	1.134436	-0.866972	0.378208
C43	C	1.184578	-0.632436	0.328003
C44	C	1.184543	-0.566999	0.327983
C45	C	1.084074	-0.567006	0.428295
C46	C	1.084105	-0.632442	0.428308
C47	C	1.134361	-0.665152	0.378163
C48	C	1.339103	-0.301876	0.378177
C49	C	1.426353	-0.301883	0.378185
C50	C	1.134406	-0.301811	0.582903
C51	C	1.134427	-0.301791	0.670153
C52	C	1.134473	-0.138434	0.378214
C53	C	1.134521	-0.068793	0.378238
C54	C	1.134357	-0.301858	0.174211
C55	C	1.134489	-0.301701	0.086962
C56	C	1.184662	-0.261719	0.711163
C57	C	1.184672	-0.261698	0.793143
C58	C	1.134449	-0.301753	0.834113
C59	C	1.084208	-0.341827	0.793098
C60	C	1.084195	-0.341845	0.711119
C61	C	1.084239	-0.341790	0.963968
C62	C	1.084253	-0.341773	1.045952
C63	C	1.184716	-0.261643	1.045992
C64	C	1.184703	-0.261661	0.964013
C65	C	1.134463	-0.301736	0.923004
H66	H	0.686893	-0.229256	0.469410
F67	F	1.030725	-0.384493	0.667474
H68	H	1.225562	-0.229104	0.677811
F69	F	1.030660	-0.667261	0.481695
F70	F	1.237996	-0.532181	0.274600
F71	F	1.238227	-1.070887	0.274714
F72	F	1.030594	-0.532190	0.481659
F73	F	0.423799	-0.219270	0.482011
F74	F	0.845718	-0.384454	0.274323
F75	F	1.030766	-0.384441	0.920324
F76	F	0.593026	-0.219262	0.482001
F77	F	0.423638	-0.384504	0.274381
H78	H	1.225603	-0.229048	0.930658
F79	F	1.238163	-0.935816	0.274682
H80	H	0.686745	-0.374457	0.286912
H81	H	1.123083	-0.742122	0.506484
H82	H	1.043370	-1.062719	0.469226
F83	F	1.238166	-0.219069	0.836785
F84	F	1.147317	-0.869152	0.232216
H85	H	1.043313	-0.374439	0.826462
F86	F	1.238186	-0.218993	1.089638
F87	F	0.592867	-0.384481	0.274348
F88	F	0.845870	-0.219240	0.481978
H89	H	1.145704	-0.742248	0.249874
H90	H	1.123269	-0.860829	0.506523
F91	F	1.238060	-0.667251	0.274631
F92	F	1.030794	-0.384399	1.089554
H93	H	1.043331	-0.944006	0.469202
