data_functionalizedCrystal
_audit_creation_method	'MofGen! by Chris Wilmer'
_symmetry_space_group_name_H-M	'P1'
_symmetry_Int_Tables_number	1
_symmetry_cell_setting	triclinic
loop_
_symmetry_equiv_pos_as_xyz
  x,y,z
_cell_length_a	6.817900
_cell_length_b	13.212940
_cell_length_c	12.908943
_cell_angle_alpha	89.852885
_cell_angle_beta	100.860631
_cell_angle_gamma	106.299459
loop_
_atom_site_label
_atom_site_type_symbol
_atom_site_fract_x
_atom_site_fract_y
_atom_site_fract_z
V1	V	-4.004577	-0.143204	-0.315033
O2	O	-3.983829	0.008223	-0.323209
O3	O	-3.964596	-0.285240	-0.299247
O4	O	-3.942691	-0.140413	-0.458649
O5	O	-4.005887	-0.137607	-0.162704
V6	V	-4.488861	-0.125161	-0.298469
O7	O	-4.264165	-0.182783	-0.351367
O8	O	-4.679470	-0.085583	-0.262135
O9	O	-4.305635	0.016875	-0.314255
O10	O	-4.627005	-0.276589	-0.290293
O11	O	-4.604948	-0.130759	-0.450798
O12	O	-4.327541	-0.127953	-0.154854
C13	C	-3.812082	-0.319884	-0.290760
C14	C	-3.860590	-0.435996	-0.278811
C15	C	-4.015958	-0.683252	-0.446683
C16	C	-4.061538	-0.792350	-0.435460
C17	C	-3.997315	-0.763294	-0.245144
C18	C	-3.951735	-0.654195	-0.256367
C19	C	-3.961063	-0.614179	-0.357139
C20	C	-3.915497	-0.505078	-0.368361
C21	C	-3.851261	-0.476023	-0.178046
C22	C	-3.896840	-0.585122	-0.166823
C23	C	-3.784138	-0.135141	-0.494091
C24	C	-3.814878	-0.133798	-0.611408
C25	C	-4.236508	-0.141640	-0.841607
C26	C	-4.265401	-0.140380	-0.951837
C27	C	-3.901557	-0.130008	-0.942100
C28	C	-3.872664	-0.131269	-0.831870
C29	C	-4.040148	-0.137087	-0.781628
C30	C	-4.011256	-0.138355	-0.671396
C31	C	-3.647410	-0.127976	-0.661660
C32	C	-3.676303	-0.126716	-0.771890
C33	C	-4.121492	0.051513	-0.322738
C34	C	-4.052222	0.167624	-0.334694
C35	C	-4.149436	-0.133228	-0.119405
C36	C	-4.097934	-0.134565	-0.002088
H37	H	-3.889246	-0.617719	-0.084776
H38	H	-3.539948	-0.121975	-0.812812
H39	H	-3.487518	-0.124273	-0.612813
O40	O	-4.456308	-0.144867	-1.009947
C41	C	-4.597914	-0.150247	-0.941958
H42	H	-4.539395	-0.182818	-0.864018
H43	H	-4.611719	-0.067849	-0.926504
C44	C	-4.884871	-0.183430	-1.089579
C45	C	-4.813005	-0.223442	-0.993854
H46	H	-5.017553	-0.228576	-1.121591
H47	H	-4.789469	-0.179801	-1.135385
H48	H	-4.896358	-0.114765	-1.076687
H49	H	-4.801494	-0.292100	-1.006748
H50	H	-4.908411	-0.227084	-0.948051
H51	H	-3.923116	-0.472500	-0.450416
H52	H	-4.023595	-0.650671	-0.528737
H53	H	-3.806562	-0.419771	-0.105133
H54	H	-4.147635	-0.143097	-0.630491
O55	O	-4.114926	-0.859304	-0.522556
C56	C	-4.113328	-0.800583	-0.613900
H57	H	-4.134608	-0.720394	-0.595656
H58	H	-3.958232	-0.788785	-0.640162
C59	C	-4.266213	-0.959186	-0.725255
C60	C	-4.292367	-0.860700	-0.702850
H61	H	-4.376645	-0.996270	-0.780126
H62	H	-4.267283	-0.998749	-0.663715
H63	H	-4.136960	-0.949341	-0.747134
H64	H	-4.421605	-0.870547	-0.680958
H65	H	-4.291323	-0.821140	-0.764388
O66	O	-3.988392	-0.802353	-0.147340
C67	C	-4.040304	-0.913456	-0.156640
H68	H	-4.137358	-0.942684	-0.238531
H69	H	-3.891575	-0.939046	-0.144787
C70	C	-4.047612	-0.924868	0.028390
C71	C	-4.166830	-0.960767	-0.072187
H72	H	-4.125651	-0.954054	0.080488
H73	H	-4.012630	-0.850016	0.034658
H74	H	-3.923678	-0.946196	0.038253
H75	H	-4.290747	-0.939428	-0.082053
H76	H	-4.201836	-1.035617	-0.078454
H77	H	-4.372887	-0.146389	-0.800700
H78	H	-3.765205	-0.125265	-0.983026
