data_functionalizedCrystal
_audit_creation_method	'MofGen! by Chris Wilmer'
_symmetry_space_group_name_H-M	'P1'
_symmetry_Int_Tables_number	1
_symmetry_cell_setting	triclinic
loop_
_symmetry_equiv_pos_as_xyz
  x,y,z
_cell_length_a	6.817900
_cell_length_b	9.582860
_cell_length_c	17.329378
_cell_angle_alpha	89.750827
_cell_angle_beta	103.025558
_cell_angle_gamma	111.206767
loop_
_atom_site_label
_atom_site_type_symbol
_atom_site_fract_x
_atom_site_fract_y
_atom_site_fract_z
V1	V	-4.044328	-0.176482	-0.244906
O2	O	-3.990394	0.039960	-0.240392
O3	O	-4.035265	-0.380210	-0.243089
O4	O	-3.985548	-0.159955	-0.351783
O5	O	-4.040455	-0.181820	-0.130945
V6	V	-4.524203	-0.152226	-0.231293
O7	O	-4.313587	-0.229692	-0.274768
O8	O	-4.705141	-0.099016	-0.201431
O9	O	-4.310059	0.051502	-0.233110
O10	O	-4.695534	-0.368668	-0.235807
O11	O	-4.645473	-0.146888	-0.345254
O12	O	-4.359776	-0.168753	-0.124416
C13	C	-3.890172	-0.430306	-0.239188
C14	C	-3.963980	-0.596767	-0.238415
C15	C	-3.826752	-0.149347	-0.377838
C16	C	-3.860237	-0.137183	-0.465210
C17	C	-3.941582	-0.267126	-0.517386
C18	C	-3.973053	-0.255693	-0.599481
C19	C	-3.923163	-0.114316	-0.629398
C20	C	-3.841816	0.015636	-0.577216
C21	C	-3.810361	0.004202	-0.495123
C22	C	-4.014866	-0.073005	-0.876709
C23	C	-4.046322	-0.061580	-0.958809
C24	C	-4.177561	-0.332911	-0.981068
C25	C	-4.146088	-0.344332	-0.898972
C26	C	-4.064755	-0.214381	-0.846798
C27	C	-3.955323	-0.102627	-0.713312
C28	C	-4.032611	-0.226072	-0.762886
C29	C	-4.118496	0.101590	-0.237009
C30	C	-4.023926	0.268050	-0.237787
C31	C	-4.181916	-0.179366	-0.098357
C32	C	-4.127668	-0.191523	-0.010984
H33	H	-3.982198	-0.382249	-0.493034
C34	C	-4.200966	-0.499847	-0.866069
H35	H	-4.253933	-0.575602	-0.908902
H36	H	-4.074224	-0.505481	-0.831950
H37	H	-4.308630	-0.514410	-0.837065
C38	C	-4.267049	-0.475845	-1.038461
H39	H	-4.278658	-0.448794	-1.091638
H40	H	-4.171674	-0.529009	-1.027024
H41	H	-4.406065	-0.537909	-1.032137
C42	C	-3.991607	0.093935	-0.991720
H43	H	-3.938729	0.169690	-0.948891
H44	H	-3.883972	0.108573	-1.020739
H45	H	-4.118438	0.099482	-1.025826
C46	C	-3.925377	0.069937	-0.819327
H47	H	-3.900146	0.155771	-0.848904
H48	H	-4.027563	0.066671	-0.789396
H49	H	-3.793170	0.075573	-0.784283
H50	H	-3.744125	0.110015	-0.452641
C51	C	-3.786932	0.171148	-0.610122
H52	H	-3.817292	0.159351	-0.666486
H53	H	-3.872003	0.220561	-0.594655
H54	H	-3.637605	0.229468	-0.589534
H55	H	-4.073239	-0.341181	-0.738524
H56	H	-3.914700	0.012483	-0.737679
H57	H	-4.039299	-0.361507	-0.641960
