data_functionalizedCrystal
_audit_creation_method	'MofGen! by Chris Wilmer'
_symmetry_space_group_name_H-M	'P1'
_symmetry_Int_Tables_number	1
_symmetry_cell_setting	triclinic
loop_
_symmetry_equiv_pos_as_xyz
  x,y,z
_cell_length_a	14.971482
_cell_length_b	15.995292
_cell_length_c	14.048226
_cell_angle_alpha	89.999488
_cell_angle_beta	90.004139
_cell_angle_gamma	83.540612
loop_
_atom_site_label
_atom_site_type_symbol
_atom_site_fract_x
_atom_site_fract_y
_atom_site_fract_z
O1	O	1.186798	0.109100	0.079141
O2	O	1.520132	0.442433	0.412475
O3	O	1.853465	0.775767	0.745808
O4	O	0.926380	0.122171	0.079145
O5	O	1.259713	0.455504	0.412478
O6	O	1.593047	0.788837	0.745812
O7	O	1.063735	-0.006249	0.079145
O8	O	1.397068	0.327085	0.412478
O9	O	1.730402	0.660418	0.745811
O10	O	1.049443	0.237519	0.079142
O11	O	1.382777	0.570853	0.412475
O12	O	1.716110	0.904186	0.745809
O13	O	1.063722	-0.006247	-0.079177
O14	O	1.397055	0.327086	0.254157
O15	O	1.730389	0.660419	0.587490
O16	O	0.926367	0.122172	-0.079176
O17	O	1.259700	0.455505	0.254157
O18	O	1.593034	0.788838	0.587491
O19	O	1.186785	0.109101	-0.079180
O20	O	1.520119	0.442435	0.254153
O21	O	1.853452	0.775768	0.587487
Zn22	Zn	1.056574	0.115637	-0.104315
Zn23	Zn	1.389907	0.448970	0.229018
Zn24	Zn	1.723241	0.782303	0.562352
Zn25	Zn	1.056591	0.115635	0.104280
Zn26	Zn	1.389925	0.448968	0.437614
Zn27	Zn	1.723258	0.782302	0.770947
O28	O	1.049430	0.237520	-0.079179
O29	O	1.382764	0.570854	0.254154
O30	O	1.716097	0.904187	0.587487
C31	C	0.893049	0.121587	-0.000015
C32	C	1.226383	0.454921	0.333318
C33	C	1.559716	0.788254	0.666652
C34	C	0.793755	0.119837	-0.000013
C35	C	1.127088	0.453170	0.333320
C36	C	1.460421	0.786504	0.666653
C37	C	0.747104	0.119014	-0.086315
C38	C	1.080437	0.452347	0.247018
C39	C	1.413771	0.785680	0.580352
C40	C	0.653808	0.117356	-0.086316
C41	C	0.987141	0.450689	0.247017
C42	C	1.320474	0.784023	0.580351
C43	C	0.607163	0.116528	-0.000014
C44	C	0.940496	0.449861	0.333319
C45	C	1.273830	0.783194	0.666652
C46	C	0.653821	0.117349	0.086294
C47	C	0.987154	0.450682	0.419628
C48	C	1.320487	0.784016	0.752961
C49	C	0.747116	0.119001	0.086294
C50	C	1.080449	0.452334	0.419628
C51	C	1.413783	0.785667	0.752961
C52	C	0.459363	0.113908	0.086288
C53	C	0.792697	0.447242	0.419622
C54	C	1.126030	0.780575	0.752955
C55	C	0.366061	0.112258	0.086289
C56	C	0.699395	0.445592	0.419622
C57	C	1.032728	0.778925	0.752955
C58	C	0.366055	0.112264	-0.086322
C59	C	0.699389	0.445597	0.247011
C60	C	1.032722	0.778930	0.580344
C61	C	0.459351	0.113915	-0.086322
C62	C	0.792684	0.447249	0.247011
C63	C	1.126017	0.780582	0.580344
C64	C	0.506001	0.114738	-0.000013
C65	C	0.839335	0.448071	0.333320
C66	C	1.172668	0.781405	0.666653
C67	C	1.063147	-0.037444	-0.000014
C68	C	1.396480	0.295889	0.333320
C69	C	1.729813	0.629222	0.666653
C70	C	1.061403	-0.130399	-0.000006
C71	C	1.394736	0.202934	0.333327
C72	C	1.728070	0.536268	0.666660
C73	C	1.054992	-0.468144	-0.000015
C74	C	1.388325	-0.134810	0.333318
C75	C	1.721659	0.198523	0.666652
C76	C	1.154131	-0.444733	-0.000370
C77	C	1.487465	-0.111400	0.332963
C78	C	1.820798	0.221933	0.666296
C79	C	1.156016	-0.348056	-0.000010
C80	C	1.489349	-0.014723	0.333323
C81	C	1.822682	0.318611	0.666657
C82	C	1.058173	-0.300585	-0.000011
C83	C	1.391507	0.032749	0.333322
C84	C	1.724840	0.366082	0.666655
C85	C	1.008616	-0.329735	0.090396
C86	C	1.341949	0.003598	0.423729
C87	C	1.675282	0.336931	0.757062
C88	C	1.007422	-0.426527	0.090468
C89	C	1.340756	-0.093194	0.423801
C90	C	1.674089	0.240140	0.757135
C91	C	1.005383	-0.426385	-0.089573
C92	C	1.338716	-0.093051	0.243760
C93	C	1.672050	0.240282	0.577094
C94	C	1.009057	-0.329889	-0.090764
C95	C	1.342390	0.003445	0.242569
C96	C	1.675723	0.336778	0.575902
C97	C	1.059966	-0.205887	-0.000006
C98	C	1.393299	0.127447	0.333327
C99	C	1.726632	0.460780	0.666661
C100	C	1.053197	-0.562841	-0.000014
C101	C	1.386530	-0.229508	0.333319
C102	C	1.719863	0.103825	0.666653
C103	C	1.220116	0.109685	-0.000018
C104	C	1.553449	0.443018	0.333316
C105	C	1.886783	0.776351	0.666649
C106	C	1.319411	0.111435	-0.000013
C107	C	1.652744	0.444768	0.333320
C108	C	1.986077	0.778101	0.666653
C109	C	1.050018	0.268716	-0.000019
C110	C	1.383352	0.602049	0.333314
C111	C	1.716685	0.935383	0.666648
C112	C	1.051762	0.361671	-0.000020
C113	C	1.385096	0.695004	0.333313
C114	C	1.718429	1.028337	0.666647
N115	N	1.056569	0.115637	-0.246676
N116	N	1.389902	0.448971	0.086658
N117	N	1.723236	0.782304	0.419991
C118	C	1.002370	0.064759	-0.703542
C119	C	1.335704	0.398092	-0.370208
C120	C	1.669037	0.731426	-0.036875
C121	C	1.002367	0.064757	-0.603884
C122	C	1.335700	0.398090	-0.270551
C123	C	1.669034	0.731423	0.062783
C124	C	1.056593	0.115628	-0.554046
C125	C	1.389926	0.448961	-0.220712
C126	C	1.723259	0.782295	0.112621
C127	C	1.110832	0.166499	-0.603870
C128	C	1.444165	0.499832	-0.270537
C129	C	1.777498	0.833166	0.062797
C130	C	1.110839	0.166496	-0.703526
C131	C	1.444173	0.499830	-0.370193
C132	C	1.777506	0.833163	-0.036859
C133	C	1.110811	0.166502	-0.396156
C134	C	1.444144	0.499835	-0.062823
C135	C	1.777477	0.833169	0.270511
C136	C	1.110802	0.166506	-0.296493
C137	C	1.444135	0.499839	0.036840
C138	C	1.777469	0.833173	0.370174
C139	C	1.002338	0.064762	-0.296514
C140	C	1.335672	0.398096	0.036819
C141	C	1.669005	0.731429	0.370153
C142	C	1.002346	0.064760	-0.396170
C143	C	1.335679	0.398093	-0.062836
C144	C	1.669012	0.731426	0.270497
C145	C	1.056584	0.115632	-0.445987
C146	C	1.389917	0.448965	-0.112654
C147	C	1.723251	0.782299	0.220679
N148	N	1.056603	0.115628	0.246641
N149	N	1.389937	0.448961	0.579974
N150	N	1.723270	0.782295	0.913308
H151	H	0.497326	0.114595	-0.156597
H152	H	0.830659	0.447928	0.176736
H153	H	1.163992	0.781261	0.510070
Cl154	Cl	1.179025	0.230445	-0.766154
Cl155	Cl	1.512358	0.563778	-0.432821
Cl156	Cl	1.845692	0.897111	-0.099487
H157	H	1.154954	0.207933	-0.255917
H158	H	1.488287	0.541266	0.077416
H159	H	1.821621	0.874600	0.410749
Cl160	Cl	0.307409	0.111230	-0.194825
Cl161	Cl	0.640743	0.444563	0.138508
Cl162	Cl	0.974076	0.777897	0.471842
H163	H	0.785075	0.119695	-0.156592
H164	H	1.118408	0.453028	0.176741
H165	H	1.451741	0.786361	0.510074
Cl166	Cl	0.595163	0.116336	-0.194815
Cl167	Cl	0.928496	0.449669	0.138518
Cl168	Cl	1.261830	0.783002	0.471851
H169	H	1.041754	-0.453310	0.158050
H170	H	1.375088	-0.119977	0.491383
H171	H	1.708421	0.213357	0.824716
Cl172	Cl	0.934152	0.000809	-0.233887
Cl173	Cl	1.267485	0.334143	0.099446
Cl174	Cl	1.600819	0.667476	0.432780
Cl175	Cl	1.179001	0.230454	-0.458782
Cl176	Cl	1.512334	0.563787	-0.125449
Cl177	Cl	1.845667	0.897120	0.207884
H178	H	1.154987	0.207915	-0.563284
H179	H	1.488321	0.541249	-0.229950
H180	H	1.821654	0.874582	0.103383
H181	H	0.328086	0.111585	0.156563
H182	H	0.661419	0.444918	0.489897
H183	H	0.994752	0.778251	0.823230
H184	H	0.497343	0.114579	0.156570
H185	H	0.830677	0.447912	0.489904
H186	H	1.164010	0.781245	0.823237
Cl187	Cl	0.934168	0.000813	-0.458823
Cl188	Cl	1.267501	0.334146	-0.125489
Cl189	Cl	1.600835	0.667480	0.207844
H190	H	0.615836	0.116669	0.156563
H191	H	0.949169	0.450002	0.489896
H192	H	1.282502	0.783335	0.823230
Cl193	Cl	0.898793	-0.279099	-0.099197
Cl194	Cl	1.232126	0.054234	0.234136
Cl195	Cl	1.565459	0.387567	0.567469
Cl196	Cl	0.805763	0.120032	0.194793
Cl197	Cl	1.139096	0.453365	0.528126
Cl198	Cl	1.472430	0.786699	0.861460
Cl199	Cl	0.895200	-0.449107	0.096809
Cl200	Cl	1.228533	-0.115774	0.430143
Cl201	Cl	1.561866	0.217560	0.763476
Cl202	Cl	1.215917	-0.318616	-0.100080
Cl203	Cl	1.549251	0.014717	0.233254
Cl204	Cl	1.882584	0.348051	0.566587
H205	H	1.192339	-0.472692	-0.065205
H206	H	1.525672	-0.139359	0.268128
H207	H	1.859005	0.193974	0.601462
H208	H	1.192137	-0.473714	0.064100
H209	H	1.525470	-0.140381	0.397433
H210	H	1.858804	0.192953	0.730766
H211	H	0.936617	-0.297939	0.093756
H212	H	1.269950	0.035395	0.427089
H213	H	1.603284	0.368728	0.760423
Cl214	Cl	1.216305	-0.319575	0.100224
Cl215	Cl	1.549638	0.013758	0.433557
Cl216	Cl	1.882972	0.347092	0.766891
H217	H	1.043040	-0.309641	0.157677
H218	H	1.376374	0.023692	0.491010
H219	H	1.709707	0.357025	0.824343
H220	H	1.036598	-0.454442	-0.158101
H221	H	1.369932	-0.121109	0.175232
H222	H	1.703265	0.212225	0.508565
H223	H	1.045142	-0.311287	-0.157647
H224	H	1.378476	0.022046	0.175686
H225	H	1.711809	0.355380	0.509020
H226	H	0.932409	-0.440447	-0.090183
H227	H	1.265742	-0.107114	0.243150
H228	H	1.599076	0.226219	0.576484
Cl229	Cl	0.934193	0.000807	-0.766186
Cl230	Cl	1.267526	0.334140	-0.432852
Cl231	Cl	1.600859	0.667473	-0.099519
Cl232	Cl	0.934157	0.000831	-0.541260
Cl233	Cl	1.267490	0.334164	-0.207927
Cl234	Cl	1.600823	0.667497	0.125406
