data_functionalizedCrystal
_audit_creation_method	'MofGen! by Chris Wilmer'
_symmetry_space_group_name_H-M	'P1'
_symmetry_Int_Tables_number	1
_symmetry_cell_setting	triclinic
loop_
_symmetry_equiv_pos_as_xyz
  x,y,z
_cell_length_a	16.109301
_cell_length_b	23.532407
_cell_length_c	14.586319
_cell_angle_alpha	89.991566
_cell_angle_beta	89.999213
_cell_angle_gamma	83.155079
loop_
_atom_site_label
_atom_site_type_symbol
_atom_site_fract_x
_atom_site_fract_y
_atom_site_fract_z
O1	O	1.102555	0.073202	-0.076192
O2	O	0.860422	0.082312	-0.076208
O3	O	0.988790	-0.005148	-0.076183
O4	O	0.974187	0.160662	-0.076217
O5	O	0.988781	-0.005149	0.076298
O6	O	0.860413	0.082311	0.076273
O7	O	1.102546	0.073201	0.076289
Cu8	Cu	0.981479	0.077756	0.090204
Cu9	Cu	0.981489	0.077757	-0.090123
O10	O	0.974178	0.160660	0.076264
C11	C	0.829445	0.081942	0.000031
C12	C	0.737159	0.080836	0.000026
C13	C	0.514498	0.130160	0.000026
C14	C	0.427786	0.129116	0.000032
C15	C	0.448476	0.025348	0.000050
C16	C	0.535187	0.026393	0.000050
C17	C	0.568195	0.078801	0.000034
C18	C	0.394773	0.076712	0.000039
C19	C	0.300755	0.075580	0.000046
C20	C	0.662218	0.079933	0.000029
C21	C	0.988414	-0.026366	0.000060
C22	C	0.987296	-0.089587	0.000067
C23	C	1.056249	-0.488436	0.000021
C24	C	1.055210	-0.547840	0.000014
O25	O	1.119130	-0.584349	-0.000015
N26	N	0.978895	-0.570748	0.000010
C27	C	0.903614	-0.534248	0.000003
O28	O	0.838607	-0.559187	-0.000002
C29	C	0.904654	-0.474845	0.000004
C30	C	0.980973	-0.451941	0.000018
C31	C	1.132562	-0.465531	0.000034
C32	C	1.133601	-0.406131	0.000043
C33	C	1.058325	-0.369636	0.000039
C34	C	0.982012	-0.392541	0.000026
C35	C	0.829373	-0.438346	-0.000009
C36	C	0.830419	-0.378940	-0.000009
C37	C	0.906739	-0.356036	0.000004
C38	C	0.907774	-0.296645	0.000031
N39	N	0.984089	-0.273738	0.000035
C40	C	1.059365	-0.310233	0.000039
C41	C	0.901437	-0.658998	0.000001
C42	C	0.900396	-0.718400	0.000007
C43	C	1.051993	-0.731988	0.000016
C44	C	1.053032	-0.672585	0.000017
C45	C	0.977752	-0.636091	0.000005
C46	C	1.061539	-0.185488	0.000058
C47	C	1.062571	-0.126082	0.000071
C48	C	0.910975	-0.112499	0.000057
C49	C	0.909943	-0.171900	0.000049
C50	C	0.985232	-0.208394	0.000047
O51	O	0.843888	-0.260102	0.000057
O52	O	1.124361	-0.285285	0.000032
C53	C	1.133523	0.073570	0.000048
C54	C	1.225809	0.074677	0.000047
C55	C	0.974554	0.181878	0.000019
C56	C	0.975672	0.245100	0.000006
N57	N	0.981477	0.077754	0.217035
N58	N	0.981497	0.077754	-0.216954
C59	C	1.038338	0.039040	0.452053
C60	C	1.038340	0.039039	0.548034
C61	C	0.924631	0.116470	0.548021
C62	C	0.924625	0.116468	0.452042
C63	C	0.981483	0.077754	0.404060
C64	C	0.981491	0.077754	0.596021
C65	C	0.981494	0.077753	0.700088
C66	C	0.981480	0.077754	0.299986
H67	H	0.384069	0.170939	0.000028
C68	C	0.780432	0.149880	0.577586
C69	C	0.862138	0.159024	0.600770
H70	H	0.741853	0.176149	0.610156
H71	H	0.772295	0.155423	0.513564
H72	H	0.771733	0.111867	0.593331
H73	H	0.870839	0.197036	0.585019
H74	H	0.870279	0.153485	0.664807
C75	C	0.874988	0.215054	0.422456
C76	C	0.862129	0.159028	0.399281
H77	H	0.836408	0.241325	0.389879
H78	H	0.866851	0.220593	0.486477
H79	H	0.930423	0.221241	0.406716
H80	H	0.806695	0.152839	0.415028
H81	H	0.870259	0.153486	0.335246
C82	C	1.151697	-0.067153	-0.078297
C83	C	1.146466	-0.100906	0.000081
H84	H	1.203486	-0.051609	-0.078287
H85	H	1.148144	-0.090038	-0.131463
H86	H	1.107012	-0.036916	-0.078285
H87	H	1.191148	-0.131146	0.000066
H88	H	1.150027	-0.078020	0.053261
H89	H	1.084635	0.007514	0.587107
C90	C	0.485334	0.232625	0.000020
C91	C	0.550782	0.187766	0.000020
H92	H	0.507735	0.268188	0.000024
H93	H	0.451947	0.230062	-0.053150
H94	H	0.451943	0.230050	0.053197
H95	H	0.584170	0.190338	-0.053160
H96	H	0.584183	0.190329	0.053196
C97	C	0.324742	-0.022329	0.000048
C98	C	0.412190	-0.032256	0.000056
H99	H	0.302343	-0.057893	0.000044
H100	H	0.306284	-0.001189	0.053215
H101	H	0.306292	-0.001179	-0.053132
H102	H	0.430641	-0.053403	0.053240
H103	H	0.430655	-0.053405	-0.053117
H104	H	0.849688	-0.082774	0.000057
H105	H	1.122847	-0.215195	0.000053
C106	C	0.811279	-0.777303	-0.078387
C107	C	0.816504	-0.743574	0.000001
H108	H	0.759487	-0.792845	-0.078390
H109	H	0.814839	-0.754404	-0.131546
H110	H	0.855961	-0.807543	-0.078377
H111	H	0.771825	-0.713332	-0.000012
H112	H	0.812936	-0.766474	0.053175
C113	C	0.644702	-0.032635	0.078445
C114	C	0.594218	-0.030066	0.000058
H115	H	0.681141	-0.067491	0.078453
H116	H	0.676766	-0.001278	0.078434
H117	H	0.610435	-0.030889	0.131611
H118	H	0.628485	-0.031809	-0.053108
H119	H	0.562152	-0.061432	0.000061
H120	H	0.769115	-0.349228	-0.000020
C121	C	1.283338	-0.425547	0.000042
C122	C	1.217495	-0.380960	0.000045
H123	H	1.335132	-0.410009	0.000036
H124	H	1.279774	-0.448436	0.053212
H125	H	1.279766	-0.448428	-0.053136
H126	H	1.221062	-0.358081	0.053226
H127	H	1.221060	-0.358061	-0.053130
C128	C	1.219372	-0.540203	-0.078345
C129	C	1.215317	-0.505639	0.000039
H130	H	1.270468	-0.564958	-0.078338
H131	H	1.173789	-0.562354	-0.078344
H132	H	1.216623	-0.516737	-0.131513
H133	H	1.218059	-0.529106	0.053207
H134	H	1.260913	-0.483487	0.000045
C135	C	1.202771	-0.691997	0.000019
C136	C	1.136925	-0.647412	0.000017
H137	H	1.254564	-0.676457	0.000011
H138	H	1.199209	-0.714883	0.053192
H139	H	1.199202	-0.714881	-0.053155
H140	H	1.140490	-0.624530	0.053195
H141	H	1.140489	-0.624515	-0.053161
H142	H	1.113286	-0.761714	0.000016
C143	C	0.751484	-0.651543	0.000007
C144	C	0.818680	-0.618885	0.000006
H145	H	0.700396	-0.626780	0.000015
H146	H	0.754236	-0.674987	-0.053165
H147	H	0.754244	-0.675004	0.053182
H148	H	0.815924	-0.595428	-0.053173
H149	H	0.815927	-0.595431	0.053184
C150	C	0.679638	-0.418923	-0.000046
C151	C	0.745478	-0.463511	-0.000033
H152	H	0.627842	-0.434460	-0.000067
H153	H	0.683192	-0.396046	0.053129
H154	H	0.683220	-0.396030	-0.053219
H155	H	0.741900	-0.486402	0.053144
H156	H	0.741922	-0.486398	-0.053212
H157	H	0.847797	-0.190549	0.000064
H158	H	1.084634	0.007516	0.412989
