data_functionalizedCrystal
_audit_creation_method	'MofGen! by Chris Wilmer'
_symmetry_space_group_name_H-M	'P1'
_symmetry_Int_Tables_number	1
_symmetry_cell_setting	triclinic
loop_
_symmetry_equiv_pos_as_xyz
  x,y,z
_cell_length_a	17.699077
_cell_length_b	17.699092
_cell_length_c	18.366186
_cell_angle_alpha	89.995439
_cell_angle_beta	89.991511
_cell_angle_gamma	83.283472
loop_
_atom_site_label
_atom_site_type_symbol
_atom_site_fract_x
_atom_site_fract_y
_atom_site_fract_z
O1	O	1.004086	0.095690	-0.060537
O2	O	1.504086	0.595690	0.439463
O3	O	0.783708	0.108148	-0.060540
O4	O	1.283708	0.608148	0.439460
O5	O	0.900120	-0.008270	-0.060537
O6	O	1.400120	0.491730	0.439463
O7	O	0.887674	0.212108	-0.060541
O8	O	1.387674	0.712108	0.439459
O9	O	0.900100	-0.008276	0.060562
O10	O	1.400100	0.491724	0.560562
O11	O	0.783688	0.108142	0.060559
O12	O	1.283688	0.608142	0.560559
O13	O	1.004067	0.095685	0.060562
O14	O	1.504067	0.595685	0.560562
Zn15	Zn	0.893874	0.101912	0.079788
Zn16	Zn	1.393874	0.601912	0.579788
Zn17	Zn	0.893900	0.101920	-0.079766
Zn18	Zn	1.393900	0.601920	0.420234
O19	O	0.887654	0.212102	0.060559
O20	O	1.387654	0.712102	0.560559
C21	C	0.755501	0.107699	0.000009
C22	C	1.255501	0.607699	0.500009
C23	C	0.671482	0.106362	0.000007
C24	C	1.171482	0.606362	0.500007
C25	C	0.632004	0.105729	0.066020
C26	C	1.132004	0.605729	0.566020
C27	C	0.553062	0.104461	0.066020
C28	C	1.053062	0.604461	0.566020
C29	C	0.513598	0.103831	0.000008
C30	C	1.013598	0.603831	0.500008
C31	C	0.553082	0.104462	-0.066009
C32	C	1.053082	0.604462	0.433991
C33	C	0.632024	0.105725	-0.066009
C34	C	1.132024	0.605725	0.433991
C35	C	0.234718	0.099369	-0.066010
C36	C	0.734718	0.599369	0.433990
C37	C	0.155771	0.098108	-0.066005
C38	C	0.655771	0.598108	0.433995
C39	C	0.155756	0.098105	0.066019
C40	C	0.655756	0.598105	0.566019
C41	C	0.234698	0.099368	0.066019
C42	C	0.734698	0.599368	0.566019
C43	C	0.274176	0.099994	0.000002
C44	C	0.774176	0.599994	0.500002
C45	C	0.359774	0.101368	0.000002
C46	C	0.859774	0.601368	0.500002
C47	C	0.428000	0.102463	0.000008
C48	C	0.928000	0.602463	0.500008
C49	C	0.899663	-0.036470	0.000011
C50	C	1.399663	0.463530	0.500011
C51	C	0.898322	-0.120487	0.000008
C52	C	1.398322	0.379513	0.500008
C53	C	0.897705	-0.159952	-0.066004
C54	C	1.397705	0.340048	0.433996
C55	C	0.896440	-0.238895	-0.066005
C56	C	1.396440	0.261105	0.433995
C57	C	0.895798	-0.278373	0.000007
C58	C	1.395798	0.221627	0.500007
C59	C	0.896413	-0.238902	0.066024
C60	C	1.396413	0.261098	0.566024
C61	C	0.897672	-0.159960	0.066024
C62	C	1.397672	0.340040	0.566024
C63	C	0.891333	-0.557267	0.066025
C64	C	1.391333	-0.057267	0.566025
C65	C	0.890075	-0.636215	0.066020
C66	C	1.390075	-0.136215	0.566020
C67	C	0.890100	-0.636202	-0.066004
C68	C	1.390100	-0.136202	0.433996
C69	C	0.891359	-0.557260	-0.066004
C70	C	1.391359	-0.057260	0.433996
C71	C	0.891970	-0.517796	0.000013
C72	C	1.391970	-0.017796	0.500013
C73	C	0.893341	-0.432197	0.000013
C74	C	1.393341	0.067803	0.500013
C75	C	0.894433	-0.363971	0.000008
C76	C	1.394433	0.136029	0.500008
C77	C	1.032274	0.096133	0.000011
C78	C	1.532274	0.596133	0.500011
C79	C	1.116292	0.097470	0.000008
C80	C	1.616292	0.597470	0.500008
C81	C	0.888111	0.240302	0.000009
C82	C	1.388111	0.740302	0.500009
C83	C	0.889452	0.324320	0.000007
C84	C	1.389452	0.824320	0.500007
N85	N	0.893862	0.101907	0.188679
N86	N	1.393862	0.601907	0.688679
N87	N	0.893918	0.101919	-0.188657
N88	N	1.393918	0.601919	0.311343
C89	C	0.945426	0.050382	0.226781
C90	C	1.445426	0.550382	0.726781
C91	C	0.945431	0.050379	0.303008
C92	C	1.445431	0.550379	0.803008
C93	C	0.893879	0.101913	0.341132
C94	C	1.393879	0.601913	0.841132
C95	C	0.842305	0.153441	0.303020
C96	C	1.342305	0.653441	0.803020
C97	C	0.842296	0.153438	0.226794
C98	C	1.342296	0.653438	0.726794
C99	C	0.883838	0.170862	0.461891
C100	C	1.383838	0.670862	0.961891
C101	C	0.883851	0.170866	0.538116
C102	C	1.383851	0.670866	1.038116
C103	C	0.893900	0.101922	0.576239
C104	C	1.393900	0.601922	1.076239
C105	C	0.903951	0.032972	0.538128
C106	C	1.403951	0.532972	1.038128
C107	C	0.903943	0.032969	0.461902
C108	C	1.403943	0.532969	0.961902
C109	C	0.893882	0.101922	0.423786
C110	C	1.393882	0.601922	0.923786
C111	C	0.945472	0.050390	0.696996
C112	C	1.445472	0.550390	1.196996
C113	C	0.945472	0.050386	0.773225
C114	C	1.445472	0.550386	1.273225
C115	C	0.842349	0.153455	0.773236
C116	C	1.342349	0.653455	1.273236
C117	C	0.842346	0.153452	0.697008
C118	C	1.342346	0.653452	1.197008
C119	C	0.893912	0.101921	0.658893
C120	C	1.393912	0.601921	1.158893
H121	H	0.898231	-0.127815	-0.119759
H122	H	1.398231	0.372185	0.380241
C123	C	0.112363	0.097407	-0.138627
C124	C	0.612363	0.597407	0.361373
N125	N	0.079669	0.096878	-0.193323
N126	N	0.579669	0.596878	0.306677
C127	C	0.889361	-0.679638	0.138642
C128	C	1.389361	-0.179638	0.638642
N129	N	0.888823	-0.712345	0.193338
N130	N	1.388823	-0.212345	0.693338
H131	H	0.891885	-0.525121	-0.119758
H132	H	1.391885	-0.025121	0.380242
C133	C	0.509669	0.103767	-0.138623
C134	C	1.009669	0.603767	0.361377
N135	N	0.476971	0.103247	-0.193318
N136	N	0.976971	0.603247	0.306682
C137	C	1.002143	-0.006311	0.184858
C138	C	1.502143	0.493689	0.684858
N139	N	1.044860	-0.049016	0.153281
N140	N	1.544860	0.450984	0.653281
H141	H	0.664129	0.106248	0.119774
H142	H	1.164129	0.606248	0.619774
C143	C	0.895701	-0.282330	0.138638
C144	C	1.395701	0.217670	0.638638
N145	N	0.895167	-0.315040	0.193333
N146	N	1.395167	0.184960	0.693333
H147	H	0.266852	0.099877	-0.119765
H148	H	0.766852	0.599877	0.380235
C149	C	0.675449	0.106423	-0.138627
C150	C	1.175449	0.606423	0.361373
N151	N	0.708156	0.106947	-0.193326
N152	N	1.208156	0.606947	0.306674
C153	C	0.278104	0.100059	0.138637
C154	C	0.778104	0.600059	0.638637
N155	N	0.310797	0.100575	0.193335
N156	N	0.810797	0.600575	0.693335
H157	H	0.889598	-0.668342	-0.119758
H158	H	1.389598	-0.168342	0.380242
C159	C	1.002187	-0.006311	0.815137
C160	C	1.502187	0.493689	1.315137
N161	N	1.044903	-0.049020	0.846706
N162	N	1.544903	0.450980	1.346706
H163	H	0.800372	0.195412	0.804275
H164	H	1.300372	0.695412	1.304275
H165	H	0.895940	-0.271023	-0.119759
H166	H	1.395940	0.228977	0.380241
H167	H	0.891845	-0.525147	0.119780
H168	H	1.391845	-0.025147	0.619780
H169	H	0.898165	-0.127828	0.119778
H170	H	1.398165	0.372172	0.619778
C171	C	1.002165	-0.006297	0.344929
C172	C	1.502165	0.493703	0.844929
N173	N	1.044901	-0.048982	0.376501
N174	N	1.544901	0.451018	0.876501
H175	H	0.800361	0.195412	0.665983
H176	H	1.300361	0.695412	1.165983
H177	H	0.912125	-0.023173	0.430875
H178	H	1.412125	0.476827	0.930875
H179	H	0.875672	0.227010	0.569140
H180	H	1.375672	0.727010	1.069140
H181	H	0.520924	0.103933	0.119774
H182	H	1.020924	0.603933	0.619774
C183	C	0.112325	0.097407	0.138640
C184	C	0.612325	0.597407	0.638640
N185	N	0.079614	0.096882	0.193336
N186	N	0.579614	0.596882	0.693336
C187	C	1.002188	-0.006302	0.655066
C188	C	1.502188	0.493698	1.155066
N189	N	1.044905	-0.049004	0.623487
N190	N	1.544905	0.450996	1.123487
C191	C	0.872783	0.246710	0.419962
C192	C	1.372783	0.746710	0.919962
N193	N	0.864457	0.303838	0.388383
N194	N	1.364457	0.803838	0.888383
C195	C	0.785594	0.210126	0.344957
C196	C	1.285594	0.710126	0.844957
N197	N	0.742875	0.252819	0.376544
N198	N	1.242875	0.752819	0.876544
H199	H	0.912134	-0.023169	0.569167
H200	H	1.412134	0.476831	1.069167
H201	H	0.800306	0.195396	0.195771
H202	H	1.300306	0.695396	0.695771
