data_functionalizedCrystal
_audit_creation_method	'MofGen! by Chris Wilmer'
_symmetry_space_group_name_H-M	'P1'
_symmetry_Int_Tables_number	1
_symmetry_cell_setting	triclinic
loop_
_symmetry_equiv_pos_as_xyz
  x,y,z
_cell_length_a	17.699097
_cell_length_b	16.992695
_cell_length_c	16.776229
_cell_angle_alpha	90.003575
_cell_angle_beta	90.009351
_cell_angle_gamma	86.978327
loop_
_atom_site_label
_atom_site_type_symbol
_atom_site_fract_x
_atom_site_fract_y
_atom_site_fract_z
O1	O	1.010247	0.099192	0.066356
O2	O	0.790672	0.112080	0.066343
O3	O	0.899579	-0.008505	0.066343
O4	O	0.901340	0.219777	0.066356
O5	O	0.899566	-0.008505	-0.066234
O6	O	0.790659	0.112080	-0.066234
O7	O	1.010234	0.099192	-0.066221
Zn8	Zn	0.900444	0.105636	-0.087277
Zn9	Zn	0.900462	0.105636	0.087399
O10	O	0.901326	0.219777	-0.066221
C11	C	0.762440	0.111616	0.000053
C12	C	0.678336	0.110226	0.000048
C13	C	0.162094	0.101701	0.072347
C14	C	0.241119	0.103003	0.072343
C15	C	0.280618	0.103654	0.000073
C16	C	0.241089	0.102997	-0.072199
C17	C	0.162066	0.101690	-0.072194
C18	C	0.559781	0.108267	-0.072220
C19	C	0.638810	0.109576	-0.072219
C20	C	0.638835	0.109579	0.072318
C21	C	0.559811	0.108272	0.072323
C22	C	0.520289	0.107611	0.000052
C23	C	0.434601	0.106198	0.000057
C24	C	0.366305	0.105073	0.000067
C25	C	0.897308	-0.037714	0.000055
C26	C	0.890551	-0.124745	0.000054
C27	C	0.955748	-0.175107	0.000057
C28	C	0.949395	-0.256881	0.000065
C29	C	0.877843	-0.288293	0.000063
C30	C	0.812641	-0.237925	0.000063
C31	C	0.818995	-0.156152	0.000061
C32	C	0.851507	-0.531842	0.000073
C33	C	0.845158	-0.613622	0.000072
C34	C	0.981912	-0.632572	0.000075
C35	C	0.988260	-0.550797	0.000069
C36	C	0.923058	-0.500436	0.000073
N37	N	0.871347	-0.371880	0.000068
N38	N	0.929555	-0.416851	0.000073
C39	C	1.038466	0.099655	0.000071
C40	C	1.122570	0.101046	0.000081
C41	C	0.903598	0.248985	0.000069
C42	C	0.910355	0.336017	0.000075
N43	N	0.900438	0.105635	-0.206488
C44	C	0.949210	0.153130	-0.248196
C45	C	0.949218	0.153127	-0.331648
C46	C	0.900450	0.105633	-0.373391
C47	C	0.851676	0.058132	-0.331677
C48	C	0.851672	0.058131	-0.248226
C49	C	0.851691	0.058133	-0.668224
C50	C	0.851697	0.058139	-0.751681
C51	C	0.949237	0.153129	-0.751646
C52	C	0.949233	0.153128	-0.668195
C53	C	0.900462	0.105625	-0.626489
C54	C	0.900455	0.105627	-0.536000
C55	C	0.900453	0.105634	-0.463877
N56	N	0.900474	0.105631	0.206610
H57	H	0.670968	0.110107	-0.131074
O58	O	0.996726	0.199223	-0.792073
C59	C	1.125945	0.229656	-0.817603
C60	C	1.072253	0.177413	-0.771759
H61	H	1.187021	0.212030	-0.801208
H62	H	1.113022	0.294064	-0.801178
H63	H	1.117538	0.221514	-0.884414
H64	H	1.080631	0.185486	-0.704937
H65	H	1.085190	0.113024	-0.788250
O66	O	1.057727	-0.520197	0.000182
C67	C	1.144295	-0.438913	0.068894
C68	C	1.065594	-0.473497	0.068859
H69	H	1.150688	-0.401162	0.124422
H70	H	1.150701	-0.401056	0.013448
H71	H	1.189786	-0.488973	0.068860
H72	H	1.020056	-0.423488	0.068922
H73	H	1.059253	-0.511375	0.124300
H74	H	0.765904	-0.115148	0.000059
O75	O	0.743093	-0.268342	-0.000043
C76	C	0.624273	-0.277199	-0.068752
C77	C	0.703007	-0.242689	-0.068721
H78	H	0.591847	-0.256486	-0.124281
H79	H	0.591761	-0.256421	-0.013307
H80	H	0.630946	-0.344295	-0.068713
H81	H	0.696403	-0.175593	-0.068787
H82	H	0.735490	-0.263530	-0.124161
O83	O	0.996616	0.199341	-0.372039
C84	C	1.093388	0.293537	-0.363198
C85	C	1.039734	0.241248	-0.317357
H86	H	1.128274	0.327419	-0.319008
H87	H	1.058820	0.336933	-0.402251
H88	H	1.132828	0.254918	-0.402283
H89	H	1.000283	0.279804	-0.278229
H90	H	1.074349	0.197847	-0.278354
H91	H	0.786889	-0.639193	0.000058
O92	O	0.996532	0.199246	-0.627524
C93	C	1.039784	0.241311	-0.498949
C94	C	0.986165	0.189059	-0.544908
H95	H	1.031432	0.233080	-0.432146
H96	H	1.026800	0.305727	-0.515296
H97	H	1.100861	0.223765	-0.515390
H98	H	0.925070	0.206534	-0.528491
H99	H	0.999214	0.124655	-0.528557
O100	O	0.804301	0.011923	-0.792108
C101	C	0.707527	-0.082273	-0.783345
C102	C	0.761173	-0.029991	-0.737461
H103	H	0.672632	-0.116161	-0.739182
H104	H	0.742101	-0.125664	-0.822391
H105	H	0.668094	-0.043649	-0.822441
H106	H	0.800617	-0.068551	-0.698322
H107	H	0.726552	0.013406	-0.698465
H108	H	0.811979	0.019452	-0.634277
H109	H	0.671023	0.110115	0.131164
H110	H	0.811972	0.019457	-0.365670
O111	O	0.804185	0.012087	-0.207745
C112	C	0.674972	-0.018409	-0.182278
C113	C	0.728663	0.033807	-0.228157
H114	H	0.613901	-0.000879	-0.198777
H115	H	0.683280	-0.010247	-0.115454
H116	H	0.687995	-0.082805	-0.198680
H117	H	0.715672	0.098222	-0.211822
H118	H	0.720344	0.025578	-0.294969
O119	O	0.123652	0.100963	0.142502
C120	C	0.038957	0.031570	0.226416
C121	C	0.082434	0.032319	0.146927
H122	H	0.005634	-0.023930	0.230027
H123	H	-0.001695	0.085767	0.230048
H124	H	0.080797	0.032299	0.278050
H125	H	0.040650	0.031563	0.095247
H126	H	0.123097	-0.021872	0.143364
O127	O	0.279585	0.103750	0.142493
C128	C	0.364312	0.173149	0.226402
C129	C	0.320807	0.172393	0.146916
H130	H	0.397638	0.228649	0.230011
H131	H	0.404965	0.118952	0.230031
H132	H	0.322492	0.172425	0.278039
H133	H	0.362571	0.173143	0.095233
H134	H	0.280143	0.226585	0.143356
O135	O	0.788095	-0.483041	0.000030
C136	C	0.651783	-0.472882	0.000059
C137	C	0.723538	-0.528243	0.000092
H138	H	0.599571	-0.509405	0.000126
H139	H	0.651281	-0.434143	-0.055438
H140	H	0.651381	-0.434102	0.055528
H141	H	0.723988	-0.567072	-0.055339
H142	H	0.724012	-0.566928	0.055627
H143	H	0.273256	0.103522	-0.131043
O144	O	0.521519	0.107745	0.142577
C145	C	0.492859	0.175258	0.266102
C146	C	0.536277	0.175950	0.186575
H147	H	0.504762	0.230404	0.301690
H148	H	0.512025	0.120706	0.301791
H149	H	0.429596	0.174174	0.253673
H150	H	0.599548	0.177063	0.198932
H151	H	0.517048	0.230496	0.150911
O152	O	0.521377	0.107482	-0.142403
C153	C	0.436597	0.038113	-0.226277
C154	C	0.480063	0.038898	-0.146768
H155	H	0.403172	-0.017323	-0.229825
H156	H	0.478381	0.038752	-0.277955
H157	H	0.396018	0.092367	-0.229890
H158	H	0.520643	-0.015346	-0.143077
H159	H	0.438236	0.038300	-0.095128
O160	O	0.123760	0.100952	-0.142444
C161	C	0.103991	0.032626	-0.265961
C162	C	0.147437	0.033379	-0.186439
H163	H	0.123106	-0.022009	-0.301546
H164	H	0.115927	0.087690	-0.301656
H165	H	0.040728	0.031616	-0.253525
H166	H	0.210711	0.034362	-0.198802
H167	H	0.135437	-0.021681	-0.150769
O168	O	1.045322	-0.681381	0.000046
C169	C	1.181634	-0.691546	0.000110
C170	C	1.109881	-0.636181	0.000120
H171	H	1.233848	-0.655024	0.000188
H172	H	1.182131	-0.730296	-0.055383
H173	H	1.182039	-0.730313	0.055583
H174	H	1.109429	-0.597364	-0.055315
H175	H	1.109412	-0.597485	0.055650
H176	H	1.002486	-0.297883	0.000065
O177	O	1.025313	-0.144727	0.000096
C178	C	1.160283	-0.172164	0.000064
C179	C	1.081547	-0.206670	0.000034
H180	H	1.205769	-0.222227	-0.000004
H181	H	1.166730	-0.134379	0.055560
H182	H	1.166635	-0.134330	-0.055406
H183	H	1.075141	-0.244539	0.055466
H184	H	1.075134	-0.244410	-0.055500
H185	H	0.988918	0.191811	-0.214215
