data_functionalizedCrystal
_audit_creation_method	'MofGen! by Chris Wilmer'
_symmetry_space_group_name_H-M	'P1'
_symmetry_Int_Tables_number	1
_symmetry_cell_setting	triclinic
loop_
_symmetry_equiv_pos_as_xyz
  x,y,z
_cell_length_a	10.540514
_cell_length_b	10.540535
_cell_length_c	9.616153
_cell_angle_alpha	89.996418
_cell_angle_beta	89.992599
_cell_angle_gamma	84.519401
loop_
_atom_site_label
_atom_site_type_symbol
_atom_site_fract_x
_atom_site_fract_y
_atom_site_fract_z
O1	O	1.685908	0.178743	-0.115668
O2	O	1.316491	0.195632	-0.115667
O3	O	1.509630	0.002480	-0.115654
O4	O	1.492768	0.371895	-0.115682
O5	O	1.509604	0.002484	0.115638
O6	O	1.316464	0.195636	0.115624
O7	O	1.685881	0.178747	0.115624
Zn8	Zn	1.501168	0.187192	0.152346
Zn9	Zn	1.501203	0.187187	-0.152390
O10	O	1.492741	0.371899	0.115610
C11	C	1.269174	0.194375	-0.000021
C12	C	1.128224	0.190605	-0.000021
C13	C	1.057516	0.328746	-0.000034
C14	C	0.910903	0.324871	-0.000566
C15	C	0.935903	0.115476	-0.131845
C16	C	1.082442	0.120330	-0.131949
C17	C	1.082815	0.118290	0.131082
C18	C	0.935836	0.116957	0.132808
C19	C	1.508354	-0.044821	-0.000007
C20	C	1.504574	-0.185769	-0.000005
C21	C	1.363558	-0.222427	-0.000015
C22	C	1.359581	-0.369027	-0.000565
C23	C	1.568961	-0.395102	-0.131859
C24	C	1.571961	-0.248337	-0.131945
C25	C	1.573982	-0.248471	0.131086
C26	C	1.567460	-0.394816	0.132794
C27	C	1.733198	0.180005	-0.000025
C28	C	1.874148	0.183774	-0.000035
C29	C	1.494018	0.419200	-0.000040
C30	C	1.497798	0.560148	-0.000051
N31	N	1.501154	0.187195	0.360321
N32	N	1.501228	0.187174	-0.360365
C33	C	1.397521	0.290172	0.580684
C34	C	1.397749	0.290558	0.419516
C35	C	1.633878	0.217317	0.418767
C36	C	1.633314	0.218046	0.579985
C37	C	1.473383	0.053759	0.580243
C38	C	1.470337	0.054624	0.419016
H39	H	0.913591	0.011844	-0.136366
H40	H	1.548998	-0.022903	0.618364
N41	N	1.347874	0.015792	0.634160
H42	H	1.307791	0.084700	0.697643
H43	H	1.288966	0.004024	0.553324
N44	N	1.498907	-0.432724	0.261984
H45	H	1.558860	-0.490763	0.320838
H46	H	1.468919	-0.353869	0.316956
H47	H	1.309396	-0.180458	0.094498
N48	N	1.703765	-0.457832	-0.137876
H49	H	1.720040	-0.516003	-0.055020
H50	H	1.715926	-0.509180	-0.226353
N51	N	0.879552	0.177521	-0.262298
H52	H	0.837523	0.112520	-0.318907
H53	H	0.814084	0.249862	-0.236209
N54	N	1.563765	-0.051786	0.365673
H55	H	1.627679	-0.015402	0.302422
H56	H	1.609729	-0.096310	0.446788
H57	H	0.868228	0.378590	0.093899
H58	H	1.658774	0.313552	0.378369
H59	H	1.310325	-0.178958	-0.094399
H60	H	1.086044	0.384786	0.094473
N61	N	1.285848	-0.407882	0.124559
H62	H	1.209818	-0.451703	0.092722
H63	H	1.342759	-0.468210	0.184174
N64	N	1.738676	0.122554	0.631685
H65	H	1.701005	0.055880	0.690081
H66	H	1.785268	0.080248	0.549679
N67	N	1.286197	-0.406709	-0.126425
H68	H	1.256323	-0.328044	-0.181773
H69	H	1.343180	-0.466714	-0.186330
N70	N	1.145412	-0.016676	0.132807
H71	H	1.121270	-0.062474	0.045879
H72	H	1.241018	-0.015204	0.136480
H73	H	1.677731	-0.226285	0.132371
H74	H	1.110677	0.170209	-0.230863
H75	H	1.529967	-0.206014	0.231033
N76	N	0.903765	-0.019264	0.143854
H77	H	0.984940	-0.078511	0.142910
H78	H	0.856261	-0.030787	0.233496
H79	H	1.114297	0.164276	0.231021
N80	N	1.340966	0.024450	0.368464
H81	H	1.340688	0.021428	0.263487
H82	H	1.321700	-0.060890	0.406643
H83	H	1.523924	-0.208154	-0.230852
N84	N	1.738598	0.120658	0.367978
H85	H	1.741867	0.122558	0.263034
H86	H	1.822993	0.141932	0.406916
N87	N	1.701083	-0.459788	0.143887
H88	H	1.718436	-0.519597	0.062586
H89	H	1.764181	-0.393460	0.143005
H90	H	1.675338	-0.225315	-0.137558
H91	H	0.894828	0.166870	0.230322
H92	H	1.520158	-0.425991	-0.230334
H93	H	1.299132	0.272436	0.380003
N94	N	1.266476	0.266552	0.632092
H95	H	1.273057	0.188859	0.694100
H96	H	1.228892	0.343105	0.686430
H97	H	1.087754	0.383962	-0.094425
H98	H	1.415647	0.389541	0.380929
H99	H	1.415187	0.388594	0.621174
N100	N	0.855624	0.395706	-0.126474
H101	H	0.926514	0.429566	-0.181850
H102	H	0.809892	0.335840	-0.186325
H103	H	1.657667	0.315381	0.617566
H104	H	1.130450	0.018856	-0.137569
