data_functionalizedCrystal
_audit_creation_method	'MofGen! by Chris Wilmer'
_symmetry_space_group_name_H-M	'P1'
_symmetry_Int_Tables_number	1
_symmetry_cell_setting	triclinic
loop_
_symmetry_equiv_pos_as_xyz
  x,y,z
_cell_length_a	16.109301
_cell_length_b	15.995292
_cell_length_c	15.186229
_cell_angle_alpha	89.999448
_cell_angle_beta	89.999362
_cell_angle_gamma	83.465048
loop_
_atom_site_label
_atom_site_type_symbol
_atom_site_fract_x
_atom_site_fract_y
_atom_site_fract_z
O1	O	1.103137	0.107627	-0.073167
O2	O	0.861076	0.121021	-0.073180
O3	O	0.988749	-0.007569	-0.073174
O4	O	0.975465	0.236217	-0.073172
O5	O	0.988740	-0.007571	0.073283
O6	O	0.861068	0.121019	0.073277
O7	O	1.103129	0.107625	0.073291
Zn8	Zn	0.982097	0.114322	0.096537
Zn9	Zn	0.982108	0.114324	-0.096426
O10	O	0.975456	0.236215	0.073285
C11	C	0.830097	0.120478	0.000047
C12	C	0.737802	0.118851	0.000042
C13	C	0.515534	0.191371	0.000053
C14	C	0.428813	0.189836	0.000058
C15	C	0.448678	0.037269	0.000053
C16	C	0.535397	0.038805	0.000054
C17	C	0.568822	0.115858	0.000049
C18	C	0.395383	0.112788	0.000054
C19	C	0.301357	0.111123	0.000060
C20	C	0.662854	0.117524	0.000045
C21	C	0.988204	-0.038765	0.000052
C22	C	0.986583	-0.131718	0.000046
C23	C	0.980624	-0.469454	0.000053
C24	C	1.072775	-0.446167	0.000385
C25	C	1.074526	-0.349492	0.000052
C26	C	0.983581	-0.301899	0.000050
C27	C	0.937515	-0.330987	-0.083584
C28	C	0.936405	-0.427777	-0.083651
C29	C	0.934514	-0.427636	0.082898
C30	C	0.937929	-0.331144	0.084000
C31	C	0.985247	-0.207204	0.000045
C32	C	0.978955	-0.564150	0.000052
C33	C	1.134108	0.108169	0.000062
C34	C	1.226403	0.109795	0.000061
C35	C	0.976001	0.267411	0.000057
C36	C	0.977622	0.360364	0.000058
N37	N	0.982095	0.114320	0.228230
N38	N	0.982116	0.114320	-0.228119
C39	C	1.038648	0.057399	0.453955
C40	C	1.038651	0.057397	0.546145
C41	C	0.925558	0.171243	0.546149
C42	C	0.925552	0.171240	0.453961
C43	C	0.982102	0.114319	0.407867
C44	C	0.982110	0.114320	0.592244
C45	C	0.982112	0.114318	0.692200
C46	C	0.982098	0.114320	0.307904
H47	H	0.421452	-0.025465	0.000063
O48	O	0.855845	-0.445230	-0.088308
C49	C	0.844942	-0.492592	-0.164899
H50	H	0.907849	-0.526070	-0.186677
H51	H	0.817964	-0.448838	-0.219607
C52	C	0.707235	-0.517091	-0.118493
C53	C	0.784498	-0.558215	-0.145237
H54	H	0.669948	-0.557568	-0.106367
H55	H	0.714579	-0.485180	-0.066894
H56	H	0.684765	-0.480631	-0.164088
H57	H	0.806972	-0.594666	-0.099638
H58	H	0.777157	-0.590134	-0.196828
H59	H	0.879501	0.217592	0.416433
O60	O	0.587049	-0.034631	0.000010
C61	C	0.538954	-0.102969	0.000029
H62	H	0.474226	-0.081704	-0.027700
H63	H	0.532784	-0.126591	0.070291
C64	C	0.661688	-0.200554	-0.023350
C65	C	0.582190	-0.174438	-0.057414
H66	H	0.688359	-0.244642	-0.058780
H67	H	0.694092	-0.154514	-0.023359
H68	H	0.656536	-0.220233	0.035201
H69	H	0.587344	-0.154750	-0.115960
H70	H	0.549788	-0.220477	-0.057416
O71	O	0.853562	-0.444197	0.083691
C72	C	0.812822	-0.406420	0.158259
H73	H	0.847244	-0.352023	0.181559
H74	H	0.812502	-0.454983	0.213170
C75	C	0.679980	-0.439845	0.105447
C76	C	0.722252	-0.373029	0.134060
H77	H	0.624111	-0.419251	0.090522
H78	H	0.707426	-0.465299	0.055211
H79	H	0.679721	-0.480309	0.151211
H80	H	0.722519	-0.332572	0.088293
H81	H	0.694803	-0.347567	0.184288
H82	H	1.084693	0.011050	0.416427
H83	H	0.542745	0.254113	0.000055
O84	O	0.377168	0.263267	0.000019
C85	C	0.425270	0.331601	0.000039
H86	H	0.489997	0.310331	-0.027691
H87	H	0.431441	0.355219	0.070302
C88	C	0.302543	0.429197	-0.023336
C89	C	0.382040	0.403075	-0.057402
H90	H	0.275876	0.473288	-0.058765
H91	H	0.270135	0.383160	-0.023346
H92	H	0.307697	0.448873	0.035215
H93	H	0.376884	0.383390	-0.115948
H94	H	0.414446	0.449110	-0.057403
O95	O	0.977863	-0.309105	0.157906
C96	C	0.936331	-0.335650	0.232852
H97	H	0.899300	-0.389619	0.214077
H98	H	0.891904	-0.280929	0.259514
C99	C	1.046481	-0.299378	0.327122
C100	C	1.001005	-0.365669	0.304064
H101	H	1.086374	-0.317891	0.371051
H102	H	1.074461	-0.281491	0.276630
H103	H	1.009450	-0.253783	0.349335
H104	H	1.038035	-0.411258	0.281841
H105	H	0.973033	-0.383564	0.354554
O106	O	1.117676	-0.326875	0.071524
C107	C	1.200063	-0.367388	0.068358
H108	H	1.216983	-0.385283	-0.002597
H109	H	1.204836	-0.426578	0.110727
C110	C	1.239973	-0.285532	0.190665
C111	C	1.260757	-0.307504	0.103515
H112	H	1.277412	-0.248595	0.212355
H113	H	1.184467	-0.258240	0.192800
H114	H	1.243951	-0.334863	0.225961
H115	H	1.256769	-0.258174	0.068219
H116	H	1.316264	-0.334787	0.101374
H117	H	1.084695	0.011047	0.583668
H118	H	0.879517	0.217588	0.583688
H119	H	1.108290	-0.474175	0.060363
O120	O	1.114789	-0.480818	-0.070828
C121	C	1.061277	-0.526065	-0.120933
H122	H	0.993532	-0.500910	-0.106715
H123	H	1.072202	-0.595569	-0.102628
C124	C	1.162786	-0.546476	-0.237063
C125	C	1.079580	-0.515575	-0.219605
H126	H	1.174077	-0.540009	-0.297928
H127	H	1.198839	-0.515995	-0.203305
H128	H	1.171879	-0.604394	-0.221802
H129	H	1.070490	-0.457656	-0.234856
H130	H	1.043524	-0.546046	-0.253368
H131	H	1.110824	-0.331097	-0.060001
H132	H	0.871548	-0.298157	0.089050
H133	H	0.968316	-0.454601	-0.146167
O134	O	0.975689	-0.306931	-0.157775
C135	C	0.973502	-0.218568	-0.158932
H136	H	0.965958	-0.193300	-0.088852
H137	H	0.918563	-0.190356	-0.200770
C138	C	1.064781	-0.225321	-0.284417
C139	C	1.055523	-0.194287	-0.198343
H140	H	1.115373	-0.210342	-0.308732
H141	H	1.066252	-0.284853	-0.283641
H142	H	1.018993	-0.201808	-0.319272
H143	H	1.101304	-0.217807	-0.163488
H144	H	1.054061	-0.134758	-0.199115
O145	O	0.969063	-0.461420	0.158443
C146	C	1.035461	-0.523462	0.137556
H147	H	1.059936	-0.511095	0.068894
H148	H	1.012278	-0.588179	0.139221
C149	C	1.076188	-0.535705	0.289575
C150	C	1.106252	-0.520511	0.205246
H151	H	1.119854	-0.533888	0.331331
H152	H	1.031452	-0.493908	0.303648
H153	H	1.056869	-0.589635	0.290950
H154	H	1.125561	-0.466578	0.203870
H155	H	1.150993	-0.562299	0.191175
H156	H	0.870591	-0.299101	-0.086695
