data_functionalizedCrystal
_audit_creation_method	'MofGen! by Chris Wilmer'
_symmetry_space_group_name_H-M	'P1'
_symmetry_Int_Tables_number	1
_symmetry_cell_setting	triclinic
loop_
_symmetry_equiv_pos_as_xyz
  x,y,z
_cell_length_a	16.959454
_cell_length_b	16.959455
_cell_length_c	16.959447
_cell_angle_alpha	90.014322
_cell_angle_beta	89.978370
_cell_angle_gamma	89.999112
loop_
_atom_site_label
_atom_site_type_symbol
_atom_site_fract_x
_atom_site_fract_y
_atom_site_fract_z
Zn1	Zn	0.314730	1.208472	0.446956
Zn2	Zn	0.814730	1.708472	0.946956
Zn3	Zn	0.446923	1.208432	0.314798
Zn4	Zn	0.946923	1.708432	0.814798
Zn5	Zn	0.314755	1.076301	0.314794
Zn6	Zn	0.814755	1.576301	0.814794
Zn7	Zn	0.446864	1.076303	0.446937
Zn8	Zn	0.946864	1.576303	0.946937
O9	O	0.380818	1.142377	0.380871
O10	O	0.880818	1.642377	0.880871
O11	O	0.332280	1.319078	0.429435
O12	O	0.832280	1.819078	0.929435
O13	O	0.429425	1.190887	0.204186
O14	O	0.929425	1.690887	0.704186
O15	O	0.204141	1.093850	0.332332
O16	O	0.704141	1.593850	0.832332
O17	O	0.429401	1.319048	0.332339
O18	O	0.929401	1.819048	0.832339
O19	O	0.204123	1.190956	0.429431
O20	O	0.704123	1.690956	0.929431
O21	O	0.332323	1.093811	0.204184
O22	O	0.832323	1.593811	0.704184
O23	O	0.332265	0.965690	0.332313
O24	O	0.832265	1.465690	0.832313
O25	O	0.429301	1.093853	0.557550
O26	O	0.929301	1.593853	1.057550
O27	O	0.429325	0.965692	0.429398
O28	O	0.929325	1.465692	0.929398
O29	O	0.332223	1.190957	0.557565
O30	O	0.832223	1.690957	1.057565
O31	O	0.557526	1.190889	0.332320
O32	O	1.057526	1.690889	0.832320
O33	O	0.557482	1.093814	0.429401
O34	O	1.057482	1.593814	0.929401
C35	C	0.380792	0.937011	0.380853
C36	C	0.880792	1.437011	0.880853
C37	C	0.380800	0.849154	0.380864
C38	C	0.880800	1.349154	0.880864
C39	C	0.174650	1.142407	0.380884
C40	C	0.674650	1.642407	0.880884
C41	C	0.086793	1.142420	0.380889
C42	C	0.586793	1.642420	0.880889
C43	C	0.330238	0.477653	0.330425
C44	C	0.830238	0.977653	0.830425
C45	C	0.431463	0.477704	0.431363
C46	C	0.931463	0.977704	0.931363
C47	C	0.431452	0.560250	0.431358
C48	C	0.931452	1.060250	0.931358
C49	C	0.380834	0.601501	0.380885
C50	C	0.880834	1.101501	0.880885
C51	C	0.330226	0.560207	0.330417
C52	C	0.830226	1.060207	0.830417
C53	C	0.482064	0.601550	0.481820
C54	C	0.982064	1.101550	0.981820
C55	C	0.482055	0.684101	0.481816
C56	C	0.982055	1.184101	0.981816
C57	C	0.431432	0.725354	0.431347
C58	C	0.931432	1.225354	0.931347
C59	C	0.380822	0.684055	0.380877
C60	C	0.880822	1.184055	0.880877
C61	C	0.330204	0.725306	0.330404
C62	C	0.830204	1.225306	0.830404
C63	C	0.279589	0.684009	0.279938
C64	C	0.779589	1.184009	0.779938
C65	C	0.279603	0.601460	0.279947
C66	C	0.779603	1.101460	0.779947
C67	C	0.431418	0.807903	0.431337
C68	C	0.931418	1.307903	0.931337
C69	C	0.330193	0.807860	0.330396
C70	C	0.830193	1.307860	0.830396
C71	C	-0.284666	1.192978	0.330356
C72	C	0.215334	1.692978	0.830356
C73	C	-0.284699	1.091893	0.431448
C74	C	0.215301	1.591893	0.931448
C75	C	-0.202153	1.091890	0.431447
C76	C	0.297847	1.591890	0.931447
C77	C	-0.160860	1.142430	0.380899
C78	C	0.339140	1.642430	0.880899
C79	C	-0.202113	1.192975	0.330352
C80	C	0.297887	1.692975	0.830352
C81	C	-0.160894	1.041341	0.481987
C82	C	0.339106	1.541341	0.981987
C83	C	-0.078343	1.041335	0.481988
C84	C	0.421657	1.541335	0.981988
C85	C	-0.037048	1.091880	0.431443
C86	C	0.462952	1.591880	0.931443
C87	C	-0.078306	1.142427	0.380895
C88	C	0.421694	1.642427	0.880895
C89	C	-0.037013	1.192967	0.330346
C90	C	0.462987	1.692967	0.830346
C91	C	-0.078270	1.243519	0.279801
C92	C	0.421730	1.743519	0.779801
C93	C	-0.160818	1.243520	0.279807
C94	C	0.339182	1.743520	0.779807
C95	C	0.045500	1.091879	0.431437
C96	C	0.545500	1.591879	0.931437
C97	C	0.045540	1.192964	0.330342
C98	C	0.545540	1.692964	0.830342
C99	C	0.586184	1.142369	0.380876
C100	C	1.086184	1.642369	0.880876
C101	C	0.674041	1.142437	0.380905
C102	C	1.174041	1.642437	0.880905
C103	C	0.380753	1.142410	0.587040
C104	C	0.880753	1.642410	1.087040
C105	C	0.380725	1.142424	0.674896
C106	C	0.880725	1.642424	1.174896
C107	C	0.380845	1.348545	0.380890
C108	C	0.880845	1.848545	0.880890
C109	C	0.380856	1.436402	0.380898
C110	C	0.880856	1.936402	0.880898
C111	C	0.380826	1.142390	0.175505
C112	C	0.880826	1.642390	0.675505
C113	C	0.380631	1.142529	0.087649
C114	C	0.880631	1.642529	0.587649
C115	C	0.431185	1.091960	1.046367
C116	C	0.931185	1.591960	1.546367
C117	C	0.330097	1.193076	1.046377
C118	C	0.830097	1.693076	1.546377
C119	C	0.330114	1.193055	0.963831
C120	C	0.830114	1.693055	1.463831
C121	C	0.380668	1.142487	0.922549
C122	C	0.880668	1.642487	1.422549
C123	C	0.431205	1.091940	0.963813
C124	C	0.931205	1.591940	1.463813
C125	C	0.279584	1.243607	0.922561
C126	C	0.779584	1.743607	1.422561
C127	C	0.279599	1.243589	0.840010
C128	C	0.779599	1.743589	1.340010
C129	C	0.330149	1.193016	0.798727
C130	C	0.830149	1.693016	1.298727
C131	C	0.380688	1.142466	0.839996
C132	C	0.880688	1.642466	1.339996
C133	C	0.431242	1.091898	0.798714
C134	C	0.931242	1.591898	1.298714
C135	C	0.481777	1.041343	0.839981
C136	C	0.981777	1.541343	1.339981
C137	C	0.481756	1.041367	0.922530
C138	C	0.981756	1.541367	1.422530
C139	C	0.330171	1.192992	0.716178
C140	C	0.830171	1.692992	1.216178
C141	C	0.431262	1.091877	0.716160
C142	C	0.931262	1.591877	1.216160
H143	H	0.288968	0.841441	0.289299
H144	H	0.788968	1.341441	0.789299
O145	O	0.085750	1.241964	0.281224
O146	O	0.585750	1.741964	0.781224
C147	C	0.133515	1.196974	0.230146
C148	C	0.633515	1.696974	0.730146
H149	H	0.145858	1.137062	0.257992
H150	H	0.645858	1.637062	0.757992
H151	H	0.191574	1.229168	0.219589
H152	H	0.691574	1.729168	0.719589
H153	H	0.101740	1.188312	0.171555
H154	H	0.601740	1.688312	0.671555
H155	H	0.238397	0.567828	0.238859
H156	H	0.738397	1.067828	0.738859
H157	H	-0.044759	1.000172	0.523144
H158	H	0.455241	1.500172	1.023144
H159	H	-0.194517	1.000188	0.523138
H160	H	0.305483	1.500188	1.023138
H161	H	-0.318322	1.050740	0.472599
H162	H	0.181678	1.550740	0.972599
H163	H	0.288943	1.234251	1.079994
H164	H	0.788943	1.734251	1.579994
H165	H	0.472630	0.841524	0.472423
H166	H	0.972630	1.341524	0.972423
O167	O	-0.038123	1.292704	0.230817
O168	O	0.461877	1.792704	0.730817
C169	C	0.009629	1.343740	0.275829
C170	C	0.509629	1.843740	0.775829
H171	H	-0.015269	1.348624	0.338086
H172	H	0.484731	1.848624	0.838086
H173	H	0.010579	1.404570	0.247257
H174	H	0.510579	1.904570	0.747257
H175	H	0.072189	1.319296	0.278544
H176	H	0.572189	1.819296	0.778544
H177	H	0.472422	1.050690	0.682554
H178	H	0.972422	1.550690	1.182554
H179	H	0.238450	1.284753	0.806417
H180	H	0.738450	1.784753	1.306417
O181	O	0.480248	1.042929	1.086571
O182	O	0.980248	1.542929	1.586571
C183	C	0.469377	1.053769	1.168284
C184	C	0.969377	1.553769	1.668284
H185	H	0.443496	1.114775	1.179567
H186	H	0.943496	1.614775	1.679567
H187	H	0.528575	1.048403	1.199649
H188	H	1.028575	1.548403	1.699649
H189	H	0.427271	1.006895	1.191711
H190	H	0.927271	1.506895	1.691711
H191	H	0.238430	1.284782	0.956179
H192	H	0.738430	1.784782	1.456179
O193	O	0.280976	1.242011	0.676126
O194	O	0.780976	1.742011	1.176126
C195	C	0.202189	1.224774	0.696324
C196	C	0.702189	1.724774	1.196324
H197	H	0.198178	1.161635	0.719020
H198	H	0.698178	1.661635	1.219020
H199	H	0.163152	1.231576	0.642042
H200	H	0.663152	1.731576	1.142042
H201	H	0.181526	1.267171	0.744242
H202	H	0.681526	1.767171	1.244242
O203	O	0.530924	0.992336	0.799785
O204	O	1.030924	1.492336	1.299785
C205	C	0.582002	1.037333	0.752050
C206	C	1.082002	1.537333	1.252050
H207	H	0.554132	1.097237	0.739704
H208	H	1.054132	1.597237	1.239704
H209	H	0.592600	1.005135	0.693991
H210	H	1.092600	1.505135	1.193991
H211	H	0.640574	1.046010	0.783853
H212	H	1.140574	1.546010	1.283853
H213	H	0.522901	1.000210	0.956137
H214	H	1.022901	1.500210	1.456137
H215	H	0.238379	0.717606	0.238839
H216	H	0.738379	1.217606	0.738839
H217	H	-0.194414	1.284676	0.238655
H218	H	0.305586	1.784676	0.738655
O219	O	-0.324652	1.242039	0.281147
O220	O	0.175348	1.742039	0.781147
C221	C	-0.304471	1.224735	0.202364
C222	C	0.195529	1.724735	0.702364
H223	H	-0.244536	1.194344	0.200721
H224	H	0.255464	1.694344	0.700721
H225	H	-0.301632	1.281774	0.166924
H226	H	0.198368	1.781774	0.666924
H227	H	-0.350925	1.184095	0.175742
H228	H	0.149075	1.684095	0.675742
O229	O	0.085664	1.042890	0.480568
O230	O	0.585664	1.542890	0.980568
C231	C	0.133381	1.087897	0.531639
C232	C	0.633381	1.587897	1.031639
H233	H	0.145756	1.147796	0.503771
H234	H	0.645756	1.647796	1.003771
H235	H	0.191427	1.055702	0.542224
H236	H	0.691427	1.555702	1.042224
H237	H	0.101547	1.096586	0.590218
H238	H	0.601547	1.596586	1.090218
O239	O	0.281186	0.437506	0.281320
O240	O	0.781186	0.937506	0.781320
C241	C	0.326125	0.389725	0.230213
C242	C	0.826125	0.889725	0.730213
H243	H	0.388372	0.414602	0.225225
H244	H	0.888372	0.914602	0.725225
H245	H	0.297460	0.388764	0.169430
H246	H	0.797460	0.888764	0.669430
H247	H	0.328883	0.327171	0.254655
H248	H	0.828883	0.827171	0.754655
O249	O	0.480515	0.437595	0.480473
O250	O	0.980515	0.937595	0.980473
C251	C	0.435577	0.389841	0.531580
C252	C	0.935577	0.889841	1.031580
H253	H	0.373327	0.414716	0.536559
H254	H	0.873327	0.914716	1.036559
H255	H	0.464236	0.388919	0.592366
H256	H	0.964236	0.888919	1.092366
H257	H	0.432829	0.327273	0.507144
H258	H	0.932829	0.827273	1.007144
O259	O	0.531114	0.561438	0.530929
O260	O	1.031114	1.061438	1.030929
C261	C	0.486170	0.513691	0.582039
C262	C	0.986170	1.013691	1.082039
H263	H	0.423924	0.538576	0.587021
H264	H	0.923924	1.038576	1.087021
H265	H	0.514831	0.512767	0.642824
H266	H	1.014831	1.012767	1.142824
H267	H	0.483412	0.451123	0.557605
H268	H	0.983412	0.951123	1.057605
H269	H	0.523268	0.717719	0.522909
H270	H	1.023268	1.217719	1.022909
