data_functionalizedCrystal
_audit_creation_method	'MofGen! by Chris Wilmer'
_symmetry_space_group_name_H-M	'P1'
_symmetry_Int_Tables_number	1
_symmetry_cell_setting	triclinic
loop_
_symmetry_equiv_pos_as_xyz
  x,y,z
_cell_length_a	12.759401
_cell_length_b	12.759400
_cell_length_c	12.759393
_cell_angle_alpha	90.030896
_cell_angle_beta	90.020120
_cell_angle_gamma	90.017891
loop_
_atom_site_label
_atom_site_type_symbol
_atom_site_fract_x
_atom_site_fract_y
_atom_site_fract_z
Zn1	Zn	-1.606203	0.418317	-0.594032
Zn2	Zn	-1.606075	0.594036	-0.418354
Zn3	Zn	-1.430505	0.418359	-0.418366
Zn4	Zn	-1.430471	0.593942	-0.593990
O5	O	-1.518313	0.506164	-0.506185
O6	O	-1.753207	0.441648	-0.570740
O7	O	-1.582746	0.570789	-0.271334
O8	O	-1.453879	0.271333	-0.441691
O9	O	-1.753113	0.570748	-0.441670
O10	O	-1.582963	0.271302	-0.570752
O11	O	-1.453755	0.441720	-0.271343
O12	O	-1.283479	0.441629	-0.441651
O13	O	-1.453822	0.570589	-0.741017
O14	O	-1.283455	0.570629	-0.570681
O15	O	-1.582931	0.441557	-0.741047
O16	O	-1.582713	0.741045	-0.441630
O17	O	-1.453698	0.740976	-0.570669
C18	C	-1.245346	0.506125	-0.506163
C19	C	-1.128569	0.506133	-0.506179
C20	C	-1.073749	0.439035	-0.573488
C21	C	-0.964025	0.439049	-0.573492
C22	C	-0.963951	0.573269	-0.438874
C23	C	-1.073673	0.573249	-0.438866
C24	C	-1.073791	0.361547	-0.651212
C25	C	-0.964067	0.361561	-0.651216
C26	C	-1.518217	0.779131	-0.506167
C27	C	-1.518271	0.895908	-0.506194
C28	C	-0.792347	0.506191	-0.506201
C29	C	-0.909123	0.506168	-0.506191
C30	C	-1.451071	0.950772	-0.573330
C31	C	-1.451112	1.060496	-0.573336
C32	C	-1.585562	1.060482	-0.439067
C33	C	-1.585515	0.950760	-0.439057
C34	C	-1.373451	0.950781	-0.650852
C35	C	-1.373492	1.060506	-0.650858
C36	C	-1.518387	0.506058	-0.780219
C37	C	-1.518418	0.506013	-0.896996
C38	C	-1.518406	1.232131	-0.506219
C39	C	-1.518359	1.115354	-0.506211
C40	C	-1.585655	0.438820	-0.951875
C41	C	-1.585680	0.438782	-1.061599
C42	C	-1.451229	0.573139	-1.061555
C43	C	-1.451199	0.573171	-0.951833
C44	C	-1.663282	0.361253	-0.951902
C45	C	-1.663307	0.361215	-1.061626
C46	C	-1.518300	0.506194	-0.233218
C47	C	-1.518473	0.505943	-0.116442
H48	H	-1.118303	0.627877	-0.384046
C49	C	-0.923874	0.391145	-0.761091
N50	N	-0.893602	0.413428	-0.843846
H51	H	-1.634203	0.283904	-1.095672
C52	C	-0.903555	0.647096	-0.364838
N53	N	-0.858066	0.702706	-0.309073
C54	C	-0.918086	0.257093	-0.612041
N55	N	-0.883452	0.178410	-0.582536
C56	C	-1.402893	1.100649	-0.760812
N57	N	-1.425037	1.130885	-0.843627
H58	H	-1.744675	0.383013	-1.091407
H59	H	-1.103568	0.280145	-0.629558
H60	H	-1.640225	0.906090	-0.384380
C61	C	-1.659527	1.120829	-0.365221
N62	N	-1.715240	1.166282	-0.309599
H63	H	-1.296224	1.094611	-0.621647
C64	C	-1.119812	0.401041	-0.755557
N65	N	-1.154476	0.430792	-0.834150
H66	H	-1.292079	0.921080	-0.628988
H67	H	-1.402543	0.916678	-0.728166
H68	H	-1.396445	0.627882	-0.907154
H69	H	-1.396499	0.627814	-1.106216
H70	H	-1.641524	0.279887	-0.922144
H71	H	-1.740550	0.390427	-0.917868
