data_functionalizedCrystal
_audit_creation_method	'MofGen! by Chris Wilmer'
_symmetry_space_group_name_H-M	'P1'
_symmetry_Int_Tables_number	1
_symmetry_cell_setting	triclinic
loop_
_symmetry_equiv_pos_as_xyz
  x,y,z
_cell_length_a	12.759401
_cell_length_b	12.827893
_cell_length_c	12.827885
_cell_angle_alpha	90.025051
_cell_angle_beta	90.018136
_cell_angle_gamma	90.002553
loop_
_atom_site_label
_atom_site_type_symbol
_atom_site_fract_x
_atom_site_fract_y
_atom_site_fract_z
Zn1	Zn	1.606333	-0.416009	0.590851
Zn2	Zn	2.106333	0.083991	1.090851
Zn3	Zn	1.606263	-0.590786	0.416126
Zn4	Zn	2.106263	-0.090786	0.916126
Zn5	Zn	1.430636	-0.416057	0.416128
Zn6	Zn	1.930636	0.083943	0.916128
Zn7	Zn	1.430658	-0.590706	0.590830
Zn8	Zn	1.930658	-0.090706	1.090830
O9	O	1.518472	-0.503390	0.503484
O10	O	2.018472	-0.003390	1.003484
O11	O	1.753344	-0.439207	0.567682
O12	O	2.253344	0.060793	1.067682
O13	O	1.582927	-0.567662	0.269890
O14	O	2.082927	-0.067662	0.769890
O15	O	1.453963	-0.269815	0.439316
O16	O	1.953963	0.230185	0.939316
O17	O	1.753293	-0.567615	0.439312
O18	O	2.253293	-0.067615	0.939312
O19	O	1.583046	-0.269779	0.567684
O20	O	2.083046	0.230221	1.067684
O21	O	1.453895	-0.439289	0.269892
O22	O	1.953895	0.060711	0.769892
O23	O	1.283618	-0.439211	0.439295
O24	O	1.783618	0.060789	0.939295
O25	O	1.454000	-0.567478	0.737069
O26	O	1.954000	-0.067478	1.237069
O27	O	1.283634	-0.567525	0.567647
O28	O	1.783634	-0.067525	1.067647
O29	O	1.583067	-0.439129	0.737085
O30	O	2.083067	0.060871	1.237085
O31	O	1.582948	-0.737012	0.439291
O32	O	2.082948	-0.237012	0.939291
O33	O	1.453932	-0.736953	0.567645
O34	O	1.953932	-0.236953	1.067645
C35	C	1.245505	-0.503365	0.503469
C36	C	1.745505	-0.003365	1.003469
C37	C	1.128728	-0.503380	0.503488
C38	C	1.628728	-0.003380	1.003488
C39	C	1.073886	-0.436644	0.570434
C40	C	1.573886	0.063356	1.070434
C41	C	0.964162	-0.436664	0.570440
C42	C	1.464162	0.063336	1.070440
C43	C	0.964132	-0.570165	0.436552
C44	C	1.464132	-0.070165	0.936552
C45	C	1.073854	-0.570139	0.436541
C46	C	1.573854	-0.070139	0.936541
C47	C	1.128760	-0.369885	0.637380
C48	C	1.628760	0.130115	1.137380
C49	C	1.073918	-0.303144	0.704332
C50	C	1.573918	0.196856	1.204332
C51	C	0.964194	-0.303164	0.704339
C52	C	1.464194	0.196836	1.204339
C53	C	0.909312	-0.369925	0.637393
C54	C	1.409312	0.130075	1.137393
C55	C	1.518463	-0.774899	0.503488
C56	C	2.018463	-0.274899	1.003488
C57	C	1.518555	-0.891053	0.503525
C58	C	2.018555	-0.391053	1.003525
C59	C	1.518544	-0.503289	0.776054
C60	C	2.018544	-0.003289	1.276054
C61	C	1.518574	-0.503246	0.892207
C62	C	2.018574	-0.003246	1.392207
C63	C	1.792505	-0.503415	0.503499
C64	C	2.292505	-0.003415	1.003499
C65	C	1.909282	-0.503426	0.503506
C66	C	2.409282	-0.003426	1.003506
C67	C	1.518510	-0.230819	0.503503
C68	C	2.018510	0.269181	1.003503
C69	C	1.518526	-0.114666	0.503511
C70	C	2.018526	0.385334	1.003511
C71	C	1.454665	-0.062899	0.440000
C72	C	1.954665	0.437101	0.940000
C73	C	1.454680	0.057151	0.440007
C74	C	1.954680	0.557151	0.940007
C75	C	1.518461	-0.503414	0.231974
C76	C	2.018461	-0.003414	0.731974
C77	C	1.518634	-0.503163	0.115821
C78	C	2.018634	-0.003163	0.615821
C79	C	1.582448	-0.439723	0.944000
C80	C	2.082448	0.060277	1.444000
C81	C	1.582481	-0.439677	1.064051
C82	C	2.082481	0.060323	1.564051
H83	H	1.118610	-0.248784	0.758830
H84	H	1.618610	0.251216	1.258830
H85	H	1.573207	-0.070111	0.557894
H86	H	2.073207	0.429889	1.057894
Br87	Br	1.148290	-0.660718	0.345693
Br88	Br	1.648290	-0.160718	0.845693
H89	H	1.218103	-0.369861	0.637382
H90	H	1.718103	0.130139	1.137382
H91	H	1.637104	-0.385368	0.899465
H92	H	2.137104	0.114632	1.399465
H93	H	1.637169	-0.385296	1.108591
H94	H	2.137169	0.114704	1.608591
H95	H	0.919544	-0.248813	0.758847
H96	H	1.419544	0.251187	1.258847
H97	H	0.819967	-0.369913	0.637382
H98	H	1.319967	0.130087	1.137382
H99	H	1.463907	-0.557591	0.936743
H100	H	1.963907	-0.057591	1.436743
H101	H	1.399977	-0.107456	0.385625
H102	H	1.899977	0.392544	0.885625
Br103	Br	0.889650	-0.660764	0.345705
Br104	Br	1.389650	-0.160764	0.845705
Br105	Br	1.363557	0.131344	0.349366
Br106	Br	1.863557	0.631344	0.849366
H107	H	1.573236	0.064435	0.557897
H108	H	2.073236	0.564435	1.057897
Br109	Br	1.427490	-0.593825	1.041599
Br110	Br	1.927490	-0.093825	1.541599
