data_functionalizedCrystal
_audit_creation_method	'MofGen! by Chris Wilmer'
_symmetry_space_group_name_H-M	'P1'
_symmetry_Int_Tables_number	1
_symmetry_cell_setting	triclinic
loop_
_symmetry_equiv_pos_as_xyz
  x,y,z
_cell_length_a	16.992694
_cell_length_b	10.540539
_cell_length_c	15.455313
_cell_angle_alpha	92.694186
_cell_angle_beta	87.142206
_cell_angle_gamma	87.596857
loop_
_atom_site_label
_atom_site_type_symbol
_atom_site_fract_x
_atom_site_fract_y
_atom_site_fract_z
O1	O	1.045302	0.264111	-0.072015
O2	O	0.817001	0.261155	-0.072041
O3	O	0.936360	0.078379	-0.072026
O4	O	0.925943	0.446887	-0.072030
O5	O	0.929534	0.088785	0.072235
O6	O	0.810175	0.271561	0.072220
O7	O	1.038476	0.274517	0.072246
Cu8	Cu	0.923702	0.273989	0.085405
Cu9	Cu	0.931774	0.261683	-0.085200
O10	O	0.919117	0.457293	0.072232
C11	C	0.784354	0.262557	0.000086
C12	C	0.697247	0.251216	0.000077
C13	C	0.647619	0.360636	0.000076
C14	C	0.565773	0.349973	0.000088
C15	C	0.533555	0.229889	0.000094
C16	C	0.583189	0.120461	0.000097
C17	C	0.665034	0.131125	0.000092
C18	C	0.289709	0.185692	0.000118
C19	C	0.207858	0.175036	0.000121
C20	C	0.190446	0.404549	0.000114
C21	C	0.272294	0.415202	0.000103
C22	C	0.321921	0.305774	0.000110
N23	N	0.449895	0.218988	0.000104
N24	N	0.405579	0.316677	0.000107
C25	C	0.932166	0.036211	0.000103
C26	C	0.929829	-0.104941	0.000098
C27	C	0.840284	-0.296163	-0.000236
C28	C	0.842638	-0.149316	0.000089
C29	C	0.967891	-0.157014	0.082483
C30	C	0.964912	-0.303812	0.082552
C31	C	0.974447	-0.316010	-0.081500
C32	C	0.975302	-0.169037	-0.082589
C33	C	1.071122	0.273115	0.000117
C34	C	1.158230	0.284456	0.000121
C35	C	0.923311	0.499461	0.000101
C36	C	0.925648	0.640612	0.000100
N37	N	0.918030	0.282645	0.205400
N38	N	0.937452	0.253018	-0.205195
C39	C	0.968756	0.205027	0.250801
C40	C	0.964474	0.211585	0.341608
C41	C	0.909469	0.295768	0.387013
C42	C	0.858738	0.373389	0.341607
C43	C	0.863017	0.366823	0.250801
C44	C	0.891000	0.324073	0.658593
C45	C	0.886727	0.330635	0.749405
C46	C	0.992462	0.168829	0.749400
C47	C	0.996739	0.162277	0.658592
C48	C	0.946005	0.239893	0.613193
N49	N	0.905093	0.302477	0.479833
N50	N	0.950379	0.233177	0.520375
H51	H	0.181630	0.077244	0.000125
O52	O	0.136922	0.522571	0.000113
H53	H	0.145691	0.583885	0.058907
H54	H	0.947484	-0.135239	-0.143535
H55	H	0.556951	0.022687	0.000115
O56	O	0.512242	0.467989	0.000088
H57	H	0.548396	0.553281	0.000073
H58	H	1.039106	-0.139658	-0.087557
H59	H	0.849692	0.387274	0.621636
O60	O	0.794895	-0.092168	0.078440
H61	H	0.796404	0.013035	0.078941
H62	H	1.033766	0.105637	0.786371
O63	O	1.056065	0.071466	0.609630
H64	H	1.116488	0.095169	0.627060
H65	H	0.813948	0.441928	0.378581
O66	O	0.343231	0.067673	0.000126
H67	H	0.307075	-0.017617	0.000123
O68	O	0.718568	0.013110	0.000089
H69	H	0.682417	-0.072185	0.000087
H70	H	0.812416	-0.113837	-0.058968
O71	O	0.827390	0.421436	0.798372
H72	H	0.858807	0.489551	0.839723
H73	H	0.821710	0.430026	0.213837
O74	O	1.019188	0.127865	0.390572
H75	H	1.006966	0.146557	0.461343
O76	O	0.682362	0.490160	0.000079
H77	H	0.665245	0.538908	-0.058712
O78	O	0.307043	0.544722	0.000118
H79	H	0.258781	0.619021	0.000133
O80	O	0.941013	-0.367082	-0.164212
H81	H	0.976450	-0.335206	-0.220782
H82	H	0.808637	-0.332013	-0.059316
H83	H	0.930988	-0.330261	0.144129
O84	O	0.791160	-0.334477	0.077578
H85	H	0.827280	-0.398353	0.116493
H86	H	1.031777	-0.128883	0.085553
O87	O	1.047732	-0.359802	0.087533
H88	H	1.089732	-0.282004	0.089889
H89	H	0.935843	-0.112522	0.143784
H90	H	1.037451	-0.357811	-0.082047
O91	O	1.028080	0.114224	0.201828
H92	H	1.062626	0.061344	0.248658
