data_functionalizedCrystal
_audit_creation_method	'MofGen! by Chris Wilmer'
_symmetry_space_group_name_H-M	'P1'
_symmetry_Int_Tables_number	1
_symmetry_cell_setting	triclinic
loop_
_symmetry_equiv_pos_as_xyz
  x,y,z
_cell_length_a	10.654562
_cell_length_b	17.019294
_cell_length_c	9.130313
_cell_angle_alpha	86.119786
_cell_angle_beta	89.996930
_cell_angle_gamma	83.940708
loop_
_atom_site_label
_atom_site_type_symbol
_atom_site_fract_x
_atom_site_fract_y
_atom_site_fract_z
O1	O	1.666089	0.110838	-0.135872
O2	O	1.300447	0.121384	-0.137184
O3	O	1.493469	0.001335	-0.122046
O4	O	1.473067	0.230887	-0.151011
O5	O	1.493466	0.001338	0.121553
O6	O	1.300444	0.121387	0.106414
O7	O	1.666086	0.110842	0.107726
Cu8	Cu	1.483265	0.116114	0.129313
Cu9	Cu	1.483268	0.116111	-0.158771
O10	O	1.473064	0.230890	0.092588
C11	C	1.253660	0.120609	-0.015285
C12	C	1.114254	0.118286	-0.014984
C13	C	1.048739	0.117204	0.117926
C14	C	0.917751	0.115028	0.118176
C15	C	0.917804	0.115019	-0.147407
C16	C	1.048791	0.117189	-0.147655
C17	C	1.048707	0.117213	0.271259
C18	C	0.917719	0.115037	0.271509
C19	C	1.492694	-0.028057	0.003459
C20	C	1.490374	-0.115640	0.014502
C21	C	1.489288	-0.156784	-0.113095
C22	C	1.487100	-0.239077	-0.102715
C23	C	1.486007	-0.280225	0.035263
C24	C	1.487089	-0.239075	0.162870
C25	C	1.489268	-0.156783	0.152488
C26	C	1.479420	-0.528693	0.073252
C27	C	1.477245	-0.610991	0.083624
C28	C	1.477254	-0.610987	-0.181962
C29	C	1.479440	-0.528694	-0.192331
C30	C	1.480515	-0.487551	-0.064725
C31	C	1.483775	-0.364342	0.045877
C32	C	1.482739	-0.403435	-0.075340
C33	C	1.712873	0.111616	-0.014177
C34	C	1.852279	0.113939	-0.014486
C35	C	1.473839	0.260282	-0.032921
C36	C	1.476159	0.347865	-0.043973
N37	N	1.483272	0.116117	0.331935
N38	N	1.483271	0.116102	-0.361392
C39	C	1.568764	0.062977	0.415288
C40	C	1.568761	0.062968	0.568626
C41	C	1.397770	0.169244	0.555244
C42	C	1.397768	0.169249	0.401909
C43	C	1.667488	0.001622	0.423015
C44	C	1.667485	0.001612	0.576353
H45	H	0.864487	0.114126	-0.255423
H46	H	1.328144	0.212513	0.334045
F47	F	1.118515	0.118325	-0.289114
F48	F	1.628767	-0.073274	0.647960
H49	H	1.490185	-0.123287	-0.225452
H50	H	1.763784	0.015130	0.616259
H51	H	1.476348	-0.644491	0.195988
F52	F	1.110293	0.045962	0.357214
F53	F	1.480548	-0.484914	0.209063
H54	H	1.077380	0.174744	0.311576
F55	F	0.880202	0.039906	0.343425
F56	F	1.485946	-0.282862	-0.238522
F57	F	0.856097	0.186292	0.339456
H58	H	1.490134	-0.123283	0.256391
H59	H	1.480332	-0.495197	-0.304688
H60	H	1.476376	-0.644495	-0.285851
H61	H	1.486191	-0.272584	0.275215
H62	H	1.483620	-0.369928	-0.187681
F63	F	1.482606	-0.408141	0.192720
F64	F	1.306774	0.225788	0.629727
F65	F	1.640702	-0.077626	0.378608
F66	F	1.786270	0.026745	0.357669
