data_functionalizedCrystal
_audit_creation_method	'MofGen! by Chris Wilmer'
_symmetry_space_group_name_H-M	'P1'
_symmetry_Int_Tables_number	1
_symmetry_cell_setting	triclinic
loop_
_symmetry_equiv_pos_as_xyz
  x,y,z
_cell_length_a	33.428889
_cell_length_b	33.428139
_cell_length_c	33.424847
_cell_angle_alpha	60.004234
_cell_angle_beta	60.008465
_cell_angle_gamma	59.994972
loop_
_atom_site_label
_atom_site_type_symbol
_atom_site_fract_x
_atom_site_fract_y
_atom_site_fract_z
O1	O	0.055565	-0.584504	0.488714
O2	O	0.388898	-0.251170	0.822047
O3	O	0.722231	0.082163	1.155380
O4	O	0.020982	-0.455083	0.393778
O5	O	0.354315	-0.121749	0.727111
O6	O	0.687649	0.211584	1.060445
O7	O	0.102943	-0.536959	0.393689
O8	O	0.436276	-0.203625	0.727023
O9	O	0.769610	0.129708	1.060356
O10	O	-0.026396	-0.502628	0.488803
O11	O	0.306937	-0.169295	0.822136
O12	O	0.640271	0.164039	1.155469
O13	O	0.130140	-0.509767	0.420792
O14	O	0.463473	-0.176433	0.754125
O15	O	0.796807	0.156900	1.087459
O16	O	0.048179	-0.427891	0.420881
O17	O	0.381513	-0.094558	0.754214
O18	O	0.714846	0.238776	1.087548
O19	O	0.082762	-0.557312	0.515817
O20	O	0.416095	-0.223979	0.849150
O21	O	0.749429	0.109355	1.182483
Cu22	Cu	0.067954	-0.490119	0.470823
Cu23	Cu	0.401287	-0.156785	0.804157
Cu24	Cu	0.734621	0.176548	1.137490
Cu25	Cu	0.035790	-0.522276	0.438771
Cu26	Cu	0.369123	-0.188943	0.772105
Cu27	Cu	0.702457	0.144391	1.105438
O28	O	0.000801	-0.475436	0.515906
O29	O	0.334134	-0.142103	0.849239
O30	O	0.667468	0.191231	1.182572
N31	N	0.090577	-0.467504	0.493370
N32	N	0.423910	-0.134171	0.826703
N33	N	0.757244	0.199163	1.160036
N34	N	0.013171	-0.544895	0.416225
N35	N	0.346504	-0.211561	0.749558
N36	N	0.679838	0.121772	1.082892
C37	C	0.143377	-0.280390	0.546067
C38	C	0.476711	0.052944	0.879400
C39	C	0.810044	0.386277	1.212733
C40	C	0.143515	-0.414755	0.680369
C41	C	0.476848	-0.081422	1.013702
C42	C	0.810182	0.251912	1.347036
C43	C	0.143392	-0.414735	0.546069
C44	C	0.476726	-0.081401	0.879402
C45	C	0.810059	0.251932	1.212735
C46	C	0.277766	-0.414702	0.545966
C47	C	0.611099	-0.081369	0.879300
C48	C	0.944433	0.251964	1.212633
C49	C	0.158177	-0.324719	0.560828
C50	C	0.491510	0.008614	0.894161
C51	C	0.824843	0.341947	1.227495
C52	C	0.158255	-0.399967	0.636038
C53	C	0.491588	-0.066634	0.969372
C54	C	0.824921	0.266700	1.302705
C55	C	0.233434	-0.399936	0.560773
C56	C	0.566767	-0.066603	0.894107
C57	C	0.900101	0.266730	1.227440
C58	C	0.158186	-0.399955	0.560829
C59	C	0.491520	-0.066622	0.894163
C60	C	0.824853	0.266712	1.227496
C61	C	0.124540	-0.223964	0.527278
C62	C	0.457874	0.109369	0.860611
C63	C	0.791207	0.442702	1.193945
C64	C	0.124565	-0.433545	0.527281
C65	C	0.457898	-0.100211	0.860614
C66	C	0.791232	0.233122	1.193948
C67	C	0.177014	-0.381145	0.579617
C68	C	0.510347	-0.047812	0.912950
C69	C	0.843681	0.285522	1.246283
C70	C	0.359814	-0.400540	0.502735
C71	C	0.693147	-0.067207	0.836068
C72	C	1.026480	0.266127	1.169401
C73	C	0.411105	-0.417624	0.485606
C74	C	0.744439	-0.084291	0.818939
C75	C	1.077772	0.249042	1.152272
C76	C	0.411136	-0.500620	0.517255
C77	C	0.744469	-0.167287	0.850588
C78	C	1.077802	0.166047	1.183922
C79	C	0.359845	-0.483534	0.534385
C80	C	0.693179	-0.150201	0.867719
C81	C	1.026512	0.183132	1.201052
C82	C	0.136887	-0.198305	0.476855
C83	C	0.470220	0.135028	0.810188
C84	C	0.803554	0.468362	1.143522
C85	C	0.119761	-0.147011	0.459777
C86	C	0.453094	0.186323	0.793110
C87	C	0.786427	0.519656	1.126443
C88	C	0.077945	-0.147038	0.543547
C89	C	0.411279	0.186295	0.876880
C90	C	0.744612	0.519629	1.210214
C91	C	0.095072	-0.198332	0.560625
C92	C	0.428405	0.135001	0.893959
C93	C	0.761738	0.468334	1.227292
C94	C	0.074134	-0.421169	0.539710
C95	C	0.407467	-0.087836	0.873043
C96	C	0.740801	0.245497	1.206377
C97	C	0.057023	-0.438269	0.522625
C98	C	0.390357	-0.104936	0.855958
C99	C	0.723690	0.228397	1.189292
C100	C	0.140770	-0.480120	0.480694
C101	C	0.474103	-0.146787	0.814027
C102	C	0.807436	0.186546	1.147361
C103	C	0.157883	-0.463020	0.497773
C104	C	0.491216	-0.129687	0.831106
C105	C	0.824549	0.203646	1.164440
C106	C	0.074339	-0.421208	0.762475
C107	C	0.407673	-0.087874	1.095808
C108	C	0.741006	0.245459	1.429141
C109	C	0.057288	-0.438323	0.813768
C110	C	0.390622	-0.104989	1.147101
C111	C	0.723955	0.228344	1.480435
C112	C	0.141075	-0.480183	0.813699
C113	C	0.474409	-0.146850	1.147032
C114	C	0.807742	0.186484	1.480366
C115	C	0.158125	-0.463069	0.762404
C116	C	0.491458	-0.129736	1.095738
C117	C	0.824792	0.203597	1.429071
C118	C	0.124756	-0.433580	0.736794
C119	C	0.458089	-0.100247	1.070127
C120	C	0.791423	0.233086	1.403460
C121	C	0.334186	-0.433494	0.527123
C122	C	0.667519	-0.100160	0.860456
C123	C	1.000853	0.233173	1.193790
C124	C	-0.173769	-0.597444	0.363037
C125	C	0.159564	-0.264111	0.696370
C126	C	0.492898	0.069223	1.029704
C127	C	-0.039302	-0.597595	0.228856
C128	C	0.294031	-0.264262	0.562190
C129	C	0.627365	0.069071	0.895523
C130	C	-0.039496	-0.597587	0.363300
C131	C	0.293837	-0.264254	0.696634
C132	C	0.627171	0.069080	1.029967
C133	C	-0.039512	-0.731889	0.363237
C134	C	0.293821	-0.398555	0.696570
C135	C	0.627154	-0.065222	1.029904
C136	C	-0.129442	-0.612265	0.348329
C137	C	0.203891	-0.278932	0.681662
C138	C	0.537225	0.054402	1.014996
C139	C	-0.054138	-0.612351	0.273187
C140	C	0.279196	-0.279018	0.606520
C141	C	0.612529	0.054316	0.939854
C142	C	-0.054257	-0.687554	0.348440
C143	C	0.279077	-0.354220	0.681773
C144	C	0.612410	-0.020887	1.015106
C145	C	-0.054247	-0.612346	0.348477
C146	C	0.279087	-0.279013	0.681810
C147	C	0.612420	0.054320	1.015143
C148	C	-0.230191	-0.578579	0.381758
C149	C	0.103143	-0.245246	0.715091
C150	C	0.436476	0.088087	1.048424
C151	C	-0.020722	-0.578803	0.382168
C152	C	0.312611	-0.245470	0.715502
C153	C	0.645944	0.087863	1.048835
C154	C	-0.073020	-0.631130	0.329609
C155	C	0.260313	-0.297797	0.662942
C156	C	0.593646	0.035537	0.996275
C157	C	-0.053713	-0.813916	0.406386
C158	C	0.279620	-0.480582	0.739719
C159	C	0.612954	-0.147249	1.073052
C160	C	-0.036654	-0.865210	0.423504
C161	C	0.296680	-0.531877	0.756837
C162	C	0.630013	-0.198544	1.090170
C163	C	0.046338	-0.865293	0.391984
C164	C	0.379672	-0.531960	0.725317
C165	C	0.713005	-0.198626	1.058651
C166	C	0.029278	-0.813999	0.374865
C167	C	0.362611	-0.480666	0.708198
C168	C	0.695944	-0.147333	1.041532
C169	C	-0.255900	-0.590938	0.432169
C170	C	0.077434	-0.257605	0.765502
C171	C	0.410767	0.075729	1.098835
C172	C	-0.307191	-0.573786	0.449185
C173	C	0.026143	-0.240453	0.782518
C174	C	0.359476	0.092880	1.115851
C175	C	-0.307060	-0.531922	0.365377
C176	C	0.026273	-0.198589	0.698710
C177	C	0.359606	0.134744	1.032043
C178	C	-0.255769	-0.549074	0.348360
C179	C	0.077564	-0.215741	0.681694
C180	C	0.410897	0.117593	1.015027
C181	C	-0.033081	-0.528377	0.369764
C182	C	0.300252	-0.195044	0.703097
C183	C	0.633586	0.138290	1.036431
C184	C	-0.016014	-0.511306	0.386922
C185	C	0.317319	-0.177973	0.720255
C186	C	0.650652	0.155360	1.053589
C187	C	0.025770	-0.595083	0.428877
C188	C	0.359103	-0.261750	0.762210
C189	C	0.692437	0.071584	1.095544
C190	C	0.008703	-0.612156	0.411725
C191	C	0.342037	-0.278823	0.745058
C192	C	0.675370	0.054510	1.078392
C193	C	-0.032755	-0.528393	0.146761
C194	C	0.300578	-0.195060	0.480095
C195	C	0.633911	0.138273	0.813428
C196	C	-0.015585	-0.511324	0.095468
C197	C	0.317748	-0.177991	0.428801
C198	C	0.651081	0.155342	0.762135
C199	C	0.026262	-0.595106	0.095516
C200	C	0.359596	-0.261773	0.428850
C201	C	0.692929	0.071560	0.762183
C202	C	0.009094	-0.612174	0.146811
C203	C	0.342427	-0.278841	0.480144
C204	C	0.675760	0.054493	0.813478
C205	C	-0.020417	-0.578816	0.172432
C206	C	0.312917	-0.245483	0.505765
C207	C	0.646250	0.087850	0.839099
C208	C	-0.020748	-0.788312	0.382068
C209	C	0.312585	-0.454979	0.715401
C210	C	0.645918	-0.121646	1.048735
N211	N	0.436037	-0.467415	0.493101
N212	N	0.769370	-0.134082	0.826434
N213	N	1.102703	0.199251	1.159768
O214	O	0.592642	-0.471896	0.376066
O215	O	0.925976	-0.138562	0.709399
O216	O	1.259309	0.194771	1.042732
O217	O	0.592838	-0.567146	0.505347
O218	O	0.926172	-0.233812	0.838681
O219	O	1.259505	0.099521	1.172014
O220	O	0.592754	-0.566928	0.423360
O221	O	0.926087	-0.233595	0.756693
O222	O	1.259421	0.099738	1.090026
O223	O	0.592727	-0.472113	0.458053
O224	O	0.926060	-0.138780	0.791386
O225	O	1.259393	0.194553	1.124720
O226	O	0.511269	-0.539835	0.450606
O227	O	0.844602	-0.206502	0.783940
O228	O	1.177936	0.126832	1.117273
O229	O	0.511353	-0.540052	0.532594
O230	O	0.844687	-0.206719	0.865927
O231	O	1.178020	0.126614	1.199260
O232	O	0.511157	-0.444802	0.403312
O233	O	0.844491	-0.111469	0.736645
O234	O	1.177824	0.221864	1.069979
Cu235	Cu	0.503815	-0.489954	0.470441
Cu236	Cu	0.837148	-0.156620	0.803774
Cu237	Cu	1.170482	0.176713	1.137107
Cu238	Cu	0.600180	-0.521995	0.438219
Cu239	Cu	0.933514	-0.188661	0.771552
Cu240	Cu	1.266847	0.144672	1.104885
O241	O	0.511242	-0.445020	0.485300
O242	O	0.844575	-0.111687	0.818633
O243	O	1.177908	0.221647	1.151966
N244	N	0.667959	-0.544533	0.415554
N245	N	1.001292	-0.211200	0.748887
N246	N	1.334625	0.122134	1.082220
N247	N	0.090544	-0.122107	0.493359
N248	N	0.423877	0.211226	0.826692
N249	N	0.757210	0.544560	1.160026
O250	O	-0.026406	0.034587	0.488773
O251	O	0.306927	0.367920	0.822106
O252	O	0.640260	0.701254	1.155439
O253	O	0.102877	0.034627	0.393499
O254	O	0.436211	0.367960	0.726832
O255	O	0.769544	0.701294	1.060165
O256	O	0.020848	0.034591	0.393771
O257	O	0.354182	0.367924	0.727104
O258	O	0.687515	0.701258	1.060438
O259	O	0.055623	0.034623	0.488500
O260	O	0.388956	0.367956	0.821834
O261	O	0.722289	0.701290	1.155167
O262	O	0.048051	-0.046899	0.420925
O263	O	0.381384	0.286434	0.754259
O264	O	0.714717	0.619767	1.087592
O265	O	0.130080	-0.046864	0.420653
O266	O	0.463413	0.286470	0.753986
O267	O	0.796746	0.619803	1.087320
O268	O	0.000796	-0.046903	0.515927
O269	O	0.334129	0.286430	0.849260
O270	O	0.667463	0.619763	1.182594
Cu271	Cu	0.067922	-0.054324	0.470769
Cu272	Cu	0.401255	0.279009	0.804103
Cu273	Cu	0.734588	0.612343	1.137436
Cu274	Cu	0.035752	0.042048	0.438656
Cu275	Cu	0.369085	0.375381	0.771990
Cu276	Cu	0.702418	0.708714	1.105323
O277	O	0.082825	-0.046867	0.515655
O278	O	0.416158	0.286466	0.848988
O279	O	0.749491	0.619799	1.182321
N280	N	0.013123	0.109830	0.416068
N281	N	0.346457	0.443164	0.749401
N282	N	0.679790	0.776497	1.082734
N283	N	0.090892	-0.467554	0.838649
N284	N	0.424225	-0.134221	1.171982
N285	N	0.757559	0.199112	1.505315
O286	O	0.086330	-0.584488	0.995334
O287	O	0.419663	-0.251154	1.328668
O288	O	0.752996	0.082179	1.662001
O289	O	-0.008902	-0.455160	0.995379
O290	O	0.324432	-0.121826	1.328712
O291	O	0.657765	0.211507	1.662045
O292	O	-0.008679	-0.537172	0.995355
O293	O	0.324654	-0.203839	1.328689
O294	O	0.657988	0.129495	1.662022
O295	O	0.086107	-0.502475	0.995358
O296	O	0.419441	-0.169142	1.328691
O297	O	0.752774	0.164192	1.662024
O298	O	0.018452	-0.509990	0.913868
O299	O	0.351785	-0.176657	1.247201
O300	O	0.685119	0.156676	1.580535
O301	O	0.018230	-0.427978	0.913891
O302	O	0.351563	-0.094645	1.247225
O303	O	0.684896	0.238689	1.580558
O304	O	0.113461	-0.557306	0.913847
O305	O	0.446794	-0.223973	1.247180
O306	O	0.780128	0.109361	1.580514
Cu307	Cu	0.068323	-0.490160	0.906429
Cu308	Cu	0.401656	-0.156827	1.239762
Cu309	Cu	0.734989	0.176507	1.573095
Cu310	Cu	0.036237	-0.522306	1.002797
Cu311	Cu	0.369570	-0.188972	1.336130
Cu312	Cu	0.702903	0.144361	1.669464
O313	O	0.113239	-0.475293	0.913870
O314	O	0.446572	-0.141960	1.247204
O315	O	0.779905	0.191373	1.580537
N316	N	0.013667	-0.544916	1.070577
N317	N	0.347000	-0.211583	1.403910
N318	N	0.680333	0.121750	1.737244
C319	C	0.031339	-0.425179	0.394250
C320	C	0.364672	-0.091845	0.727583
C321	C	0.698005	0.241488	1.060917
C322	C	0.132837	-0.526572	0.394139
C323	C	0.466170	-0.193239	0.727473
C324	C	0.799503	0.140095	1.060806
C325	C	0.072405	-0.587216	0.515344
C326	C	0.405738	-0.253883	0.848678
C327	C	0.739072	0.079450	1.182011
C328	C	-0.029093	-0.485823	0.515455
C329	C	0.304240	-0.152490	0.848788
C330	C	0.637574	0.180844	1.182122
C331	C	0.552119	-0.566716	0.535258
C332	C	0.885453	-0.233383	0.868592
C333	C	1.218786	0.099951	1.201925
C334	C	0.552016	-0.566447	0.433726
C335	C	0.885350	-0.233114	0.767060
C336	C	1.218683	0.100220	1.100393
C337	C	0.551873	-0.445232	0.373402
C338	C	0.885207	-0.111898	0.706735
C339	C	1.218540	0.221435	1.040069
C340	C	0.551980	-0.445502	0.474933
C341	C	0.885313	-0.112168	0.808266
C342	C	1.218646	0.221165	1.141600
C343	C	0.132731	-0.006013	0.393923
C344	C	0.466065	0.327320	0.727256
C345	C	0.799398	0.660654	1.060590
C346	C	0.031182	-0.006158	0.394293
C347	C	0.364516	0.327176	0.727627
C348	C	0.697849	0.660509	1.060960
C349	C	-0.029092	-0.006163	0.515469
C350	C	0.304241	0.327171	0.848802
C351	C	0.637575	0.660504	1.182136
C352	C	0.072491	-0.006119	0.515133
C353	C	0.405825	0.327214	0.848466
C354	C	0.739158	0.660547	1.181799
C355	C	-0.008451	-0.425276	0.954641
C356	C	0.324883	-0.091943	1.287974
C357	C	0.658216	0.241391	1.621307
C358	C	-0.008170	-0.526833	0.954596
C359	C	0.325163	-0.193500	1.287929
C360	C	0.658497	0.139834	1.621263
C361	C	0.113010	-0.587190	0.954585
C362	C	0.446343	-0.253856	1.287918
C363	C	0.779677	0.079477	1.621252
C364	C	0.112735	-0.485627	0.954611
C365	C	0.446069	-0.152293	1.287945
C366	C	0.779402	0.181040	1.621278
H367	H	0.016234	-0.428240	0.834672
H368	H	0.349567	-0.094906	1.168005
H369	H	0.682900	0.238427	1.501339
H370	H	0.168250	-0.504186	0.834549
H371	H	0.501583	-0.170853	1.167882
H372	H	0.834917	0.162481	1.501216
H373	H	-0.038348	-0.388133	0.954654
H374	H	0.294985	-0.054800	1.287988
H375	H	0.628318	0.278533	1.621321
H376	H	0.023949	-0.388000	0.364433
H377	H	0.357282	-0.054666	0.697767
H378	H	0.690616	0.278667	1.031100
C379	C	0.183022	-0.536453	0.353789
C380	C	0.516355	-0.203120	0.687123
C381	C	0.849688	0.130213	1.020456
N382	N	0.220822	-0.543896	0.323398
N383	N	0.554155	-0.210562	0.656732
N384	N	0.887489	0.122771	0.990065
H385	H	0.552170	-0.596617	0.572390
H386	H	0.885503	-0.263284	0.905723
H387	H	1.218837	0.070050	1.239057
C388	C	-0.048382	-0.536845	0.954548
C389	C	0.284951	-0.203512	1.287881
C390	C	0.618285	0.129822	1.621214
N391	N	-0.078670	-0.544386	0.954510
N392	N	0.254664	-0.211053	1.287844
N393	N	0.587997	0.122281	1.621177
H394	H	0.551811	-0.415327	0.336274
H395	H	0.885144	-0.081993	0.669608
H396	H	1.218478	0.251340	1.002941
H397	H	0.169783	-0.005775	0.363939
H398	H	0.503117	0.327558	0.697273
H399	H	0.836450	0.660891	1.030606
H400	H	0.023733	-0.006162	0.364531
H401	H	0.357066	0.327171	0.697864
H402	H	0.690399	0.660505	1.031198
C403	C	-0.079260	-0.006149	0.555867
C404	C	0.254074	0.327184	0.889200
C405	C	0.587407	0.660518	1.222533
N406	N	-0.117050	-0.006128	0.586290
N407	N	0.216283	0.327205	0.919624
N408	N	0.549617	0.660539	1.252957
H409	H	0.142910	-0.624330	0.954565
H410	H	0.476243	-0.290997	1.287898
H411	H	0.809577	0.042336	1.621232
H412	H	0.552029	-0.596233	0.426301
H413	H	0.885363	-0.262899	0.759635
H414	H	1.218696	0.070434	1.092968
H415	H	0.142514	-0.478200	0.954606
H416	H	0.475847	-0.144867	1.287939
H417	H	0.809180	0.188466	1.621273
H418	H	0.047163	-0.397193	0.741627
H419	H	0.380496	-0.063859	1.074960
H420	H	0.713830	0.269474	1.408293
H421	H	0.199181	-0.473148	0.741498
H422	H	0.532514	-0.139815	1.074831
H423	H	0.865848	0.193519	1.408164
H424	H	0.551974	-0.415718	0.482355
H425	H	0.885307	-0.082385	0.815689
H426	H	1.218640	0.250948	1.149022
C427	C	0.082552	-0.006111	0.555341
C428	C	0.415885	0.327223	0.888674
C429	C	0.749219	0.660556	1.222007
N430	N	0.090131	-0.006104	0.585626
N431	N	0.423464	0.327229	0.918959
N432	N	0.756797	0.660562	1.252292
C433	C	0.082387	-0.637442	0.555628
C434	C	0.415720	-0.304109	0.888961
C435	C	0.749053	0.029224	1.222294
N436	N	0.089905	-0.675273	0.585969
N437	N	0.423239	-0.341940	0.919302
N438	N	0.756572	-0.008607	1.252635
H439	H	-0.066242	-0.478508	0.545321
H440	H	0.267091	-0.145175	0.878654
H441	H	0.600425	0.188159	1.211987
H442	H	0.015959	-0.428182	0.532734
H443	H	0.349292	-0.094848	0.866067
H444	H	0.682625	0.238485	1.199401
C445	C	0.037481	-0.388739	0.572160
C446	C	0.370814	-0.055405	0.905493
C447	C	0.704148	0.277928	1.238827
N448	N	0.009873	-0.364309	0.596600
N449	N	0.343206	-0.030976	0.929934
N450	N	0.676539	0.302358	1.263267
H451	H	0.198948	-0.473094	0.487648
H452	H	0.532281	-0.139760	0.820982
H453	H	0.865614	0.193573	1.154315
C454	C	0.177426	-0.512547	0.448237
C455	C	0.510760	-0.179214	0.781570
C456	C	0.844093	0.154119	1.114904
N457	N	0.205034	-0.536970	0.423789
N458	N	0.538368	-0.203636	0.757123
N459	N	0.871701	0.129697	1.090456
H460	H	0.432025	-0.541365	0.523165
H461	H	0.765359	-0.208032	0.856498
H462	H	1.098692	0.125302	1.189831
C463	C	0.439298	-0.381372	0.458774
C464	C	0.772631	-0.048038	0.792108
C465	C	1.105965	0.285295	1.125441
N466	N	0.460533	-0.354066	0.438561
N467	N	0.793867	-0.020733	0.771895
N468	N	1.127200	0.312601	1.105228
C469	C	0.331589	-0.345492	0.494747
C470	C	0.664923	-0.012159	0.828080
C471	C	0.998256	0.321175	1.161413
N472	N	0.310333	-0.304030	0.488729
N473	N	0.643666	0.029303	0.822062
N474	N	0.976999	0.362637	1.155396
C475	C	0.331659	-0.519790	0.561214
C476	C	0.664992	-0.186457	0.894547
C477	C	0.998326	0.146877	1.227880
N478	N	0.310429	-0.547100	0.581420
N479	N	0.643763	-0.213766	0.914754
N480	N	0.977096	0.119567	1.248087
H481	H	0.053957	-0.126168	0.570702
H482	H	0.387290	0.207165	0.904036
H483	H	0.720623	0.540498	1.237369
C484	C	0.133340	-0.118783	0.404307
C485	C	0.466674	0.214550	0.737640
C486	C	0.800007	0.547883	1.070974
N487	N	0.143569	-0.097524	0.362527
N488	N	0.476902	0.235809	0.695860
N489	N	0.810235	0.569142	1.029193
C490	C	0.081490	-0.226554	0.616094
C491	C	0.414824	0.106779	0.949427
C492	C	0.748157	0.440113	1.282760
N493	N	0.071260	-0.247811	0.657874
N494	N	0.404593	0.085522	0.991208
N495	N	0.737927	0.418855	1.324541
C496	C	-0.029171	-0.455854	0.067237
C497	C	0.304162	-0.122521	0.400570
C498	C	0.637496	0.210813	0.733904
N499	N	-0.039403	-0.414073	0.045973
N500	N	0.293930	-0.080740	0.379307
N501	N	0.627263	0.252594	0.712640
C502	C	0.169302	-0.226497	0.440169
C503	C	0.502635	0.106837	0.773502
C504	C	0.835968	0.440170	1.106836
N505	N	0.193717	-0.247732	0.412537
N506	N	0.527050	0.085601	0.745871
N507	N	0.860383	0.418935	1.079204
H508	H	-0.056788	-0.501226	0.167618
H509	H	0.276545	-0.167893	0.500951
H510	H	0.609879	0.165440	0.834284
H511	H	0.019144	-0.653235	0.167709
H512	H	0.352478	-0.319902	0.501043
H513	H	0.685811	0.013431	0.834376
C514	C	0.058715	-0.631803	0.067335
C515	C	0.392048	-0.298470	0.400669
C516	C	0.725382	0.034863	0.734002
N517	N	0.083161	-0.659444	0.046109
N518	N	0.416494	-0.326110	0.379443
N519	N	0.749828	0.007223	0.712776
H520	H	-0.057039	-0.501216	0.345698
H521	H	0.276295	-0.167883	0.679031
H522	H	0.609628	0.165450	1.012364
H523	H	0.049734	-0.622248	0.452940
H524	H	0.383067	-0.288914	0.786274
H525	H	0.716401	0.044419	1.119607
C526	C	0.022299	-0.667628	0.425368
C527	C	0.355633	-0.334294	0.758702
C528	C	0.688966	-0.000961	1.092035
N529	N	0.032542	-0.709409	0.435644
N530	N	0.365876	-0.376075	0.768977
N531	N	0.699209	-0.042742	1.102310
C532	C	0.065543	-0.785840	0.348127
C533	C	0.398877	-0.452506	0.681460
C534	C	0.732210	-0.119173	1.014794
N535	N	0.092860	-0.764630	0.327993
N536	N	0.426193	-0.431297	0.661326
N537	N	0.759527	-0.097964	0.994660
C538	C	0.101368	-0.893547	0.384062
C539	C	0.434701	-0.560214	0.717395
C540	C	0.768035	-0.226881	1.050729
N541	N	0.142818	-0.914830	0.378095
N542	N	0.476151	-0.581497	0.711428
N543	N	0.809484	-0.248164	1.044761
C544	C	-0.029606	-0.455835	0.373276
C545	C	0.303727	-0.122502	0.706610
C546	C	0.637061	0.210831	1.039943
N547	N	-0.039842	-0.414055	0.362997
N548	N	0.293491	-0.080721	0.696331
N549	N	0.626824	0.252612	1.029664
H550	H	-0.094449	-0.793002	0.412253
H551	H	0.238884	-0.459669	0.745586
H552	H	0.572217	-0.126335	1.078919
C553	C	-0.227767	-0.623391	0.468909
C554	C	0.105567	-0.290058	0.802243
C555	C	0.438900	0.043276	1.135576
N556	N	-0.206575	-0.647834	0.496582
N557	N	0.126758	-0.314501	0.829916
N558	N	0.460091	0.018833	1.163249
C559	C	-0.072919	-0.893376	0.450261
C560	C	0.260414	-0.560043	0.783595
C561	C	0.593748	-0.226710	1.116928
N562	N	-0.100234	-0.914592	0.470420
N563	N	0.233099	-0.581258	0.803753
N564	N	0.566433	-0.247925	1.137087
H565	H	-0.328125	-0.583847	0.490235
H566	H	0.005209	-0.250514	0.823568
H567	H	0.338542	0.082819	1.156901
H568	H	-0.234840	-0.539009	0.307312
H569	H	0.098493	-0.205675	0.640646
H570	H	0.431826	0.127658	0.973979
C571	C	-0.335197	-0.499470	0.328637
C572	C	-0.001864	-0.166136	0.661971
C573	C	0.331469	0.167197	0.995304
N574	N	-0.356388	-0.475025	0.300964
N575	N	-0.023055	-0.141691	0.634298
N576	N	0.310278	0.191642	0.967631
