data_functionalizedCrystal
_audit_creation_method	'MofGen! by Chris Wilmer'
_symmetry_space_group_name_H-M	'P1'
_symmetry_Int_Tables_number	1
_symmetry_cell_setting	triclinic
loop_
_symmetry_equiv_pos_as_xyz
  x,y,z
_cell_length_a	14.044190
_cell_length_b	14.044191
_cell_length_c	16.053802
_cell_angle_alpha	87.186691
_cell_angle_beta	92.795827
_cell_angle_gamma	93.191777
loop_
_atom_site_label
_atom_site_type_symbol
_atom_site_fract_x
_atom_site_fract_y
_atom_site_fract_z
O1	O	0.226523	1.280865	-0.069406
O2	O	0.218210	1.004193	-0.069416
O3	O	0.084031	1.138371	-0.069394
O4	O	0.360702	1.146686	-0.069427
O5	O	0.091383	1.130983	0.069463
O6	O	0.225562	0.996804	0.069442
O7	O	0.233875	1.273476	0.069452
Zn8	Zn	0.230886	1.133967	0.091494
Zn9	Zn	0.221199	1.143702	-0.091457
O10	O	0.368054	1.139298	0.069431
C11	C	0.218249	0.964876	0.000012
C12	C	0.207402	0.858733	0.000009
C13	C	0.264502	0.613276	0.000011
C14	C	0.187586	0.664399	0.000018
C15	C	0.198614	0.772537	0.000013
C16	C	0.253476	0.505129	0.000016
C17	C	0.052085	1.131041	0.000037
C18	C	-0.054058	1.120193	0.000044
C19	C	-0.299517	1.177295	0.000013
C20	C	-0.248393	1.100378	0.000016
C21	C	-0.140255	1.111406	0.000031
C22	C	-0.407664	1.166269	-0.000002
C23	C	0.400000	1.146629	-0.000002
C24	C	0.506143	1.157476	-0.000015
C25	C	0.233836	1.312793	0.000022
C26	C	0.244683	1.418936	0.000020
N27	N	0.237497	1.127331	0.216353
N28	N	0.214581	1.150345	-0.216317
C29	C	0.180428	1.184449	0.260056
C30	C	0.185062	1.179816	0.347462
C31	C	0.246771	1.118069	0.391163
C32	C	0.303843	1.060945	0.347454
C33	C	0.299203	1.065574	0.260050
C34	C	0.267012	1.097849	0.652570
C35	C	0.271650	1.093227	0.739980
C36	C	0.152868	1.212097	0.739982
C37	C	0.148237	1.216724	0.652576
C38	C	0.205305	1.159597	0.608874
N39	N	0.251512	1.113335	0.480506
N40	N	0.200559	1.164327	0.519533
H41	H	0.338629	0.650720	-0.000001
H42	H	-0.285839	1.026246	0.000009
H43	H	-0.262073	1.251421	0.000024
O44	O	0.099076	0.619884	0.000060
C45	C	0.029725	0.688717	0.000040
H46	H	0.063483	0.757279	0.026328
H47	H	-0.031209	0.660473	0.040355
H48	H	0.000823	0.704060	-0.066577
H49	H	0.130182	1.234733	0.224480
O50	O	0.363914	1.001015	0.389809
C51	C	0.458613	1.025665	0.368441
H52	H	0.458260	1.065819	0.304974
H53	H	0.499355	0.958032	0.365448
H54	H	0.494800	1.073074	0.417619
O55	O	0.129602	1.235408	0.389785
C56	C	0.074134	1.290891	0.332471
H57	H	0.110059	1.298564	0.270156
H58	H	0.067421	1.364572	0.357711
H59	H	0.000070	1.254405	0.323200
O60	O	0.322315	1.042270	0.610084
C61	C	0.263499	0.981737	0.559527
H62	H	0.189468	0.972351	0.585882
H63	H	0.295949	0.909204	0.558537
H64	H	0.257521	1.014704	0.493282
O65	O	0.354688	1.010231	0.217502
C66	C	0.415274	1.069015	0.166936
H67	H	0.382918	1.141202	0.153838
H68	H	0.423718	1.033696	0.105476
H69	H	0.488176	1.079681	0.200602
O70	O	0.088207	1.276723	0.610256
C71	C	0.038845	1.326162	0.667573
H72	H	0.037739	1.283631	0.729886
H73	H	-0.037498	1.335620	0.642332
H74	H	0.076378	1.399213	0.676850
H75	H	0.321905	1.042944	0.775558
O76	O	0.097465	1.267485	0.782563
C77	C	0.114806	1.250181	0.869080
H78	H	0.144661	1.176663	0.881025
H79	H	0.045171	1.252930	0.902310
H80	H	0.168605	1.306956	0.893864
