data_functionalizedCrystal
_audit_creation_method	'MofGen! by Chris Wilmer'
_symmetry_space_group_name_H-M	'P1'
_symmetry_Int_Tables_number	1
_symmetry_cell_setting	triclinic
loop_
_symmetry_equiv_pos_as_xyz
  x,y,z
_cell_length_a	33.359672
_cell_length_b	33.359674
_cell_length_c	33.359725
_cell_angle_alpha	90.002336
_cell_angle_beta	59.997790
_cell_angle_gamma	119.999824
loop_
_atom_site_label
_atom_site_type_symbol
_atom_site_fract_x
_atom_site_fract_y
_atom_site_fract_z
O1	O	0.353587	-0.274991	-0.011927
O2	O	0.271501	-0.216698	0.011867
O3	O	0.353584	-0.216698	-0.070218
O4	O	0.271504	-0.274991	0.070158
O5	O	0.286913	-0.283369	-0.070217
O6	O	0.204830	-0.283369	0.011868
O7	O	0.286915	-0.341662	-0.011926
Cu8	Cu	0.239785	-0.318603	-0.000029
Cu9	Cu	0.318632	-0.239757	-0.000030
O10	O	0.204833	-0.341662	0.070158
C11	C	0.117512	-0.073731	0.028809
C12	C	0.068931	-0.098077	0.029147
C13	C	0.117509	-0.146322	0.028814
C14	C	0.068928	-0.170558	0.029151
C15	C	0.044923	-0.146320	0.028809
C16	C	0.141407	-0.098079	0.029151
C17	C	0.196155	0.004722	0.022919
C18	C	0.222880	0.054297	0.019200
C19	C	0.199944	0.079161	0.017331
C20	C	0.228920	0.132913	0.013296
C21	C	0.150277	0.054455	0.019187
C22	C	0.123552	0.004883	0.022908
C23	C	0.146493	-0.019981	0.024772
C24	C	-0.027638	-0.146130	0.022914
C25	C	-0.073493	-0.168979	0.019194
C26	C	-0.096492	-0.216782	0.017330
C27	C	-0.146209	-0.241558	0.013295
C28	C	-0.073644	-0.241744	0.019190
C29	C	-0.027793	-0.218897	0.022912
C30	C	-0.004790	-0.171090	0.024771
C31	C	0.196149	-0.146136	0.022928
C32	C	0.222876	-0.168985	0.019206
C33	C	0.199936	-0.216787	0.017342
C34	C	0.228910	-0.241565	0.013312
C35	C	0.150274	-0.241745	0.019196
C36	C	0.123547	-0.218899	0.022915
C37	C	0.146487	-0.171094	0.024781
O38	O	-0.279069	-0.341655	-0.011947
O39	O	-0.162484	-0.283360	0.011844
O40	O	-0.162479	-0.283364	-0.070239
O41	O	-0.279074	-0.341650	0.070137
O42	O	-0.162476	-0.216692	-0.070243
O43	O	-0.162482	-0.216688	0.011840
O44	O	-0.279066	-0.274982	-0.011951
Cu45	Cu	-0.220774	-0.239747	-0.000056
Cu46	Cu	-0.220777	-0.318595	-0.000051
O47	O	-0.279072	-0.274978	0.070133
C48	C	0.440913	-0.146329	-0.367177
C49	C	0.489495	-0.098086	-0.391412
C50	C	0.440913	-0.146329	-0.294588
C51	C	0.489495	-0.098086	-0.318933
C52	C	0.513502	-0.073740	-0.367176
C53	C	0.417016	-0.170565	-0.318934
C54	C	0.362270	-0.219081	-0.366989
C55	C	0.335546	-0.242087	-0.389839
C56	C	0.358484	-0.217283	-0.437640
C57	C	0.329509	-0.242225	-0.462417
C58	C	0.408152	-0.169473	-0.462601
C59	C	0.434876	-0.146469	-0.439753
C60	C	0.411933	-0.171273	-0.391947
C61	C	0.586065	0.004714	-0.439927
C62	C	0.631921	0.054287	-0.462933
C63	C	0.654919	0.079151	-0.438129
C64	C	0.704637	0.132902	-0.463070
C65	C	0.632069	0.054444	-0.390319
C66	C	0.586218	0.004872	-0.367315
C67	C	0.563216	-0.019991	-0.392119
C68	C	0.362270	-0.219081	-0.216134
C69	C	0.335542	-0.242085	-0.166558
C70	C	0.358480	-0.217281	-0.141694
C71	C	0.329505	-0.242223	-0.087942
C72	C	0.408143	-0.169473	-0.166398
C73	C	0.434872	-0.146467	-0.215972
C74	C	0.411933	-0.171273	-0.240838
C75	C	0.513517	-0.412027	-0.028902
C76	C	0.489511	-0.460269	-0.029242
C77	C	0.440925	-0.412028	-0.028898
C78	C	0.417029	-0.460271	-0.029238
C79	C	0.440928	-0.484616	-0.028901
C80	C	0.489508	-0.387792	-0.029238
C81	C	0.586081	-0.339274	-0.023012
C82	C	0.631938	-0.316267	-0.019295
C83	C	0.654938	-0.341070	-0.017432
C84	C	0.704657	-0.316127	-0.013400
C85	C	0.632089	-0.388880	-0.019290
C86	C	0.586236	-0.411885	-0.023009
C87	C	0.563232	-0.387082	-0.024867
C88	C	0.435229	-0.563069	-0.023015
C89	C	0.408662	-0.612643	-0.019298
C90	C	0.358994	-0.637507	-0.017431
C91	C	0.330184	-0.691258	-0.013399
C92	C	0.335888	-0.612801	-0.019285
C93	C	0.362454	-0.563229	-0.023004
C94	C	0.412123	-0.538365	-0.024867
C95	C	0.435220	-0.339277	-0.023003
C96	C	0.408646	-0.316273	-0.019276
C97	C	0.358978	-0.341078	-0.017410
C98	C	0.330165	-0.316137	-0.013373
C99	C	0.335875	-0.388886	-0.019265
C100	C	0.362444	-0.411892	-0.022990
C101	C	0.412117	-0.387085	-0.024859
O102	O	0.286933	0.291016	-0.011949
O103	O	0.204848	0.150641	0.011842
O104	O	0.286934	0.232718	-0.070242
O105	O	0.204846	0.208939	0.070135
O106	O	0.353602	0.232716	-0.070238
O107	O	0.271516	0.150639	0.011846
O108	O	0.353601	0.291014	-0.011945
Cu109	Cu	0.318646	0.220827	-0.000049
Cu110	Cu	0.239803	0.220829	-0.000054
O111	O	0.271514	0.208937	0.070139
O112	O	0.837498	0.291002	-0.495832
O113	O	0.720911	0.150628	-0.437542
O114	O	0.720908	0.232707	-0.437536
O115	O	0.837501	0.208922	-0.495838
O116	O	0.720909	0.232709	-0.504208
O117	O	0.720912	0.150629	-0.504214
O118	O	0.837499	0.291004	-0.562504
Cu119	Cu	0.779206	0.220817	-0.539447
Cu120	Cu	0.779204	0.220815	-0.460599
O121	O	0.837502	0.208924	-0.562510
O122	O	0.271499	-0.274996	-0.562510
O123	O	0.353583	-0.216699	-0.504219
O124	O	0.271499	-0.216701	-0.504213
O125	O	0.353584	-0.274994	-0.562515
O126	O	0.204829	-0.283371	-0.437542
O127	O	0.286913	-0.283369	-0.437547
O128	O	0.204829	-0.341666	-0.495839
Cu129	Cu	0.239784	-0.318605	-0.460605
Cu130	Cu	0.318629	-0.239760	-0.539452
O131	O	0.286914	-0.341664	-0.495844
C132	C	0.044913	-0.484622	0.367117
C133	C	0.068919	-0.460277	0.391353
C134	C	0.117502	-0.412033	0.294528
C135	C	0.141398	-0.387798	0.318875
C136	C	0.117501	-0.412034	0.367118
C137	C	0.068920	-0.460276	0.318874
C138	C	-0.027650	-0.563076	0.366926
C139	C	-0.073506	-0.612649	0.389775
C140	C	-0.096504	-0.637513	0.437576
C141	C	-0.146222	-0.691265	0.462352
C142	C	-0.073655	-0.612807	0.462538
C143	C	-0.027803	-0.563235	0.439692
C144	C	-0.004801	-0.538372	0.391885
C145	C	0.123202	-0.412223	0.439871
C146	C	0.149770	-0.389374	0.462878
C147	C	0.199437	-0.341572	0.438075
C148	C	0.228247	-0.316796	0.463017
C149	C	0.222541	-0.316611	0.390264
C150	C	0.195974	-0.339458	0.367259
C151	C	0.146307	-0.387264	0.392063
C152	C	0.123205	-0.412221	0.216073
C153	C	0.149777	-0.389373	0.166497
C154	C	0.199444	-0.341571	0.141635
C155	C	0.228255	-0.316795	0.087883
C156	C	0.222548	-0.316613	0.166340
C157	C	0.195980	-0.339459	0.215914
C158	C	0.146308	-0.387263	0.240779
C159	C	0.117538	-0.073747	-0.367204
C160	C	0.141435	-0.098094	-0.391438
C161	C	0.044944	-0.146333	-0.294613
C162	C	0.068952	-0.170570	-0.318957
C163	C	0.117536	-0.146337	-0.367200
C164	C	0.068953	-0.098090	-0.318960
C165	C	0.123241	0.004709	-0.367018
C166	C	0.149810	0.054282	-0.389869
C167	C	0.199480	0.079143	-0.437671
C168	C	0.228292	0.132895	-0.462450
C169	C	0.222584	0.054435	-0.462631
C170	C	0.196015	0.004864	-0.439782
C171	C	0.146346	-0.019997	-0.391975
C172	C	0.196182	-0.146152	-0.439951
C173	C	0.222906	-0.169003	-0.462956
C174	C	0.199966	-0.216805	-0.438150
C175	C	0.228941	-0.241583	-0.463090
C176	C	0.150296	-0.241763	-0.390340
C177	C	0.123571	-0.218914	-0.367337
C178	C	0.146516	-0.171108	-0.392143
C179	C	-0.027622	-0.146140	-0.216160
C180	C	-0.073477	-0.168985	-0.166583
C181	C	-0.096477	-0.216787	-0.141718
C182	C	-0.146198	-0.241561	-0.087966
C183	C	-0.073627	-0.241747	-0.166421
C184	C	-0.027772	-0.218904	-0.215995
C185	C	-0.004772	-0.171100	-0.240863
C186	C	-0.559087	-0.412008	0.367094
C187	C	-0.582986	-0.460250	0.391332
C188	C	-0.486495	-0.412011	0.294506
C189	C	-0.510504	-0.460253	0.318854
C190	C	-0.559088	-0.484598	0.367097
C191	C	-0.510503	-0.387774	0.318851
C192	C	-0.564788	-0.339255	0.366903
C193	C	-0.591356	-0.316247	0.389752
C194	C	-0.641026	-0.341049	0.437554
C195	C	-0.669837	-0.316106	0.462329
C196	C	-0.664132	-0.388859	0.462516
C197	C	-0.637563	-0.411865	0.439670
C198	C	-0.587894	-0.387063	0.391863
C199	C	-0.637735	-0.563049	0.439851
C200	C	-0.664460	-0.612623	0.462858
C201	C	-0.641521	-0.637487	0.438055
C202	C	-0.670498	-0.691239	0.462998
C203	C	-0.591851	-0.612783	0.390245
C204	C	-0.565125	-0.563211	0.367239
C205	C	-0.588069	-0.538347	0.392042
C206	C	-0.413927	-0.339261	0.216051
C207	C	-0.368073	-0.316259	0.166474
C208	C	-0.345074	-0.341064	0.141612
C209	C	-0.295353	-0.316124	0.087860
C210	C	-0.367925	-0.388872	0.166317
C211	C	-0.413780	-0.411877	0.215892
C212	C	-0.436778	-0.387069	0.240756
C213	C	0.513514	0.249625	-0.367189
C214	C	0.489508	0.249961	-0.391427
C215	C	0.440928	0.249639	-0.294605
C216	C	0.417032	0.249974	-0.318952
C217	C	0.440927	0.249627	-0.367194
C218	C	0.489508	0.249973	-0.318948
C219	C	0.586074	0.243733	-0.366995
C220	C	0.631928	0.240010	-0.389841
C221	C	0.654924	0.238136	-0.437642
C222	C	0.704640	0.234097	-0.462414
C223	C	0.632075	0.239990	-0.462604
C224	C	0.586226	0.243715	-0.439760
C225	C	0.563225	0.245584	-0.391956
C226	C	0.435225	0.243725	-0.439945
C227	C	0.408657	0.240003	-0.462953
C228	C	0.358992	0.238143	-0.438152
C229	C	0.330182	0.234106	-0.463094
C230	C	0.335889	0.240008	-0.390343
C231	C	0.362457	0.243732	-0.367337
C232	C	0.412122	0.245588	-0.392139
C233	C	0.435227	0.243760	-0.216150
C234	C	0.408656	0.240045	-0.166575
C235	C	0.358990	0.238184	-0.141715
C236	C	0.330181	0.234160	-0.087964
C237	C	0.335887	0.240036	-0.166421
C238	C	0.362454	0.243749	-0.215994
C239	C	0.412123	0.245612	-0.240856
O240	O	0.353642	0.290996	-0.562541
O241	O	0.271549	0.150620	-0.504250
O242	O	0.353625	0.232694	-0.504240
O243	O	0.271565	0.208921	-0.562552
O244	O	0.286949	0.232697	-0.437571
O245	O	0.204872	0.150622	-0.437582
O246	O	0.286966	0.290998	-0.495873
Cu247	Cu	0.239831	0.220810	-0.460640
Cu248	Cu	0.318683	0.220807	-0.539483
O249	O	0.204889	0.208924	-0.495884
C250	C	0.117521	0.192028	0.367091
C251	C	0.068941	0.191695	0.391324
C252	C	0.117521	0.192017	0.294502
C253	C	0.068941	0.191683	0.318845
C254	C	0.044935	0.192031	0.367086
C255	C	0.141416	0.191681	0.318849
C256	C	0.196161	0.197916	0.366906
C257	C	0.222885	0.201637	0.389757
C258	C	0.199948	0.203511	0.437557
C259	C	0.228922	0.207547	0.462335
C260	C	0.150282	0.201659	0.462515
C261	C	0.123559	0.197936	0.439666
C262	C	0.146500	0.196067	0.391862
C263	C	-0.027624	0.197935	0.439833
C264	C	-0.073477	0.201659	0.462836
C265	C	-0.096474	0.203521	0.438030
C266	C	-0.146190	0.207561	0.462968
C267	C	-0.073626	0.201656	0.390221
C268	C	-0.027777	0.197931	0.367220
C269	C	-0.004776	0.196072	0.392026
C270	C	0.196160	0.197893	0.216052
C271	C	0.222888	0.201609	0.166476
C272	C	0.199950	0.203471	0.141611
C273	C	0.228924	0.207496	0.087861
C274	C	0.150289	0.201622	0.166313
C275	C	0.123561	0.197908	0.215886
C276	C	0.146499	0.196044	0.240753
H277	H	0.048837	-0.210196	0.029697
C278	C	-0.718775	-0.416144	0.515102
C279	C	-0.718397	-0.433713	0.557520
C280	C	-0.773038	-0.461000	0.610105
C281	C	-0.828058	-0.470718	0.620272
C282	C	-0.828438	-0.453149	0.577852
C283	C	-0.773796	-0.425862	0.525267
H284	H	-0.677666	-0.426519	0.549996
H285	H	-0.772757	-0.474005	0.641507
H286	H	-0.868507	-0.490917	0.659198
H287	H	-0.869168	-0.460343	0.585377
H288	H	-0.774078	-0.412856	0.493865
H289	H	0.083112	-0.015232	0.024421
H290	H	0.262985	-0.277684	0.370072
C291	C	0.516652	-0.486674	-0.029972
C292	C	0.482222	-0.534256	0.012061
C293	C	0.509359	-0.560661	0.011337
C294	C	0.570928	-0.539483	-0.031421
C295	C	0.605361	-0.491899	-0.073458
C296	C	0.578223	-0.465494	-0.072733
H297	H	0.436642	-0.549936	0.043716
H298	H	0.483869	-0.595886	0.042455
H299	H	0.591017	-0.559029	-0.031958
H300	H	0.650941	-0.476220	-0.105112
H301	H	0.603714	-0.430269	-0.103851
C302	C	-0.002340	-0.093545	0.024967
C303	C	0.022502	-0.051133	-0.017832
C304	C	0.047803	0.001454	-0.015783
C305	C	0.048263	0.011629	0.029064
C306	C	0.023420	-0.030784	0.071865
C307	C	-0.001881	-0.083371	0.069817
H308	H	0.022163	-0.058665	-0.051033
H309	H	0.066193	0.032851	-0.047468
H310	H	0.066992	0.050557	0.030580
H311	H	0.023760	-0.023252	0.105066
H312	H	-0.020271	-0.114768	0.101501
C313	C	0.124362	-0.416835	0.139327
C314	C	0.063944	-0.434450	0.157406
C315	C	0.038532	-0.461916	0.130233
C316	C	0.073538	-0.471769	0.084981
C317	C	0.133960	-0.454154	0.066900
C318	C	0.159372	-0.426687	0.094072
H319	H	0.038027	-0.427157	0.190906
H320	H	-0.006196	-0.474956	0.143618
H321	H	0.054727	-0.492101	0.064866
H322	H	0.159877	-0.461447	0.033399
H323	H	0.204100	-0.413647	0.080687
H324	H	-0.008926	-0.542833	0.328001
H325	H	-0.092357	-0.280673	-0.146172
C326	C	-0.662974	-0.464453	0.467121
C327	C	-0.723390	-0.506789	0.484730
C328	C	-0.748800	-0.559378	0.512180
C329	C	-0.713794	-0.569631	0.522021
C330	C	-0.653374	-0.527294	0.504413
C331	C	-0.627964	-0.474705	0.476962
H332	H	-0.749306	-0.499200	0.477444
H333	H	-0.793526	-0.590718	0.525215
H334	H	-0.732604	-0.608560	0.542342
H335	H	-0.627457	-0.534883	0.511698
H336	H	-0.583237	-0.443364	0.463927
H337	H	0.083125	0.196403	0.235997
C338	C	-0.002642	0.195877	0.314635
C339	C	-0.040098	0.154098	0.303394
C340	C	-0.014962	0.152044	0.250808
C341	C	0.047630	0.191768	0.209463
C342	C	0.085089	0.233550	0.220701
C343	C	0.059953	0.235605	0.273287
H344	H	-0.086435	0.124689	0.334002
H345	H	-0.042692	0.121114	0.242489
H346	H	0.066237	0.190248	0.170535
H347	H	0.131427	0.262959	0.190094
H348	H	0.087684	0.266534	0.281607
H349	H	0.650807	0.238464	-0.501529
H350	H	-0.092078	-0.148658	-0.146474
H351	H	-0.008904	0.196415	0.460037
C352	C	0.434070	0.238013	-0.139399
C353	C	0.452552	0.277749	-0.116544
C354	C	0.477963	0.275715	-0.089363
C355	C	0.484893	0.233945	-0.085038
C356	C	0.466411	0.194206	-0.107895
C357	C	0.441000	0.196240	-0.135075
H358	H	0.447422	0.308672	-0.119744
H359	H	0.491645	0.305133	-0.072443
H360	H	0.503704	0.232440	-0.064918
H361	H	0.471540	0.163283	-0.104694
H362	H	0.427318	0.166822	-0.151995
C363	C	0.194212	-0.334251	0.292475
C364	C	0.249408	-0.321092	0.244896
C365	C	0.302222	-0.267549	0.218498
C366	C	0.299839	-0.227164	0.239679
C367	C	0.244642	-0.240322	0.287261
C368	C	0.191828	-0.293866	0.313659
H369	H	0.251173	-0.350988	0.229214
H370	H	0.343083	-0.257808	0.183275
H371	H	0.338935	-0.187528	0.220138
H372	H	0.242876	-0.210427	0.302943
H373	H	0.150967	-0.303606	0.348882
C374	C	-0.510495	-0.536033	0.314649
C375	C	-0.510968	-0.554116	0.272314
C376	C	-0.456338	-0.526937	0.219722
C377	C	-0.401237	-0.481675	0.209465
C378	C	-0.400762	-0.463590	0.251801
C379	C	-0.455391	-0.490769	0.304393
H380	H	-0.551759	-0.587624	0.279905
H381	H	-0.456690	-0.540325	0.188382
H382	H	-0.360797	-0.461555	0.170533
H383	H	-0.359971	-0.430082	0.244210
H384	H	-0.455040	-0.477381	0.335733
H385	H	0.214828	-0.015253	-0.460105
H386	H	0.262995	-0.277688	0.146092
C387	C	0.489502	-0.093878	-0.243149
C388	C	0.544604	-0.083622	-0.288413
C389	C	0.599234	-0.031032	-0.315590
C390	C	0.598761	0.011301	-0.297502
C391	C	0.543657	0.001046	-0.252236
C392	C	0.489027	-0.051544	-0.225059
H393	H	0.544956	-0.114960	-0.301805
H394	H	0.640026	-0.023441	-0.349099
H395	H	0.639202	0.050231	-0.317620
H396	H	0.543305	0.032385	-0.238844
H397	H	0.448235	-0.059135	-0.191550
H398	H	0.131609	0.203185	0.501440
C399	C	0.337044	0.245788	-0.243173
C400	C	0.276622	0.202985	-0.225085
C401	C	0.251211	0.205022	-0.252264
C402	C	0.286221	0.249863	-0.297531
C403	C	0.346646	0.292669	-0.315621
C404	C	0.372057	0.290631	-0.288442
H405	H	0.250703	0.169789	-0.191573
H406	H	0.206480	0.173334	-0.238872
H407	H	0.267410	0.251371	-0.317650
H408	H	0.372565	0.325865	-0.349133
H409	H	0.416788	0.322319	-0.301835
C410	C	0.277500	-0.141531	0.017172
C411	C	0.330519	-0.092829	-0.024598
C412	C	0.385147	-0.065374	-0.026636
C413	C	0.386758	-0.086620	0.013096
C414	C	0.333738	-0.135324	0.054869
C415	C	0.279109	-0.162779	0.056907
H416	H	0.329328	-0.077100	-0.054013
H417	H	0.424396	-0.029320	-0.057559
H418	H	0.427197	-0.066296	0.011587
H419	H	0.334928	-0.151054	0.084283
H420	H	0.239860	-0.198833	0.087830
C421	C	-0.342627	-0.416163	0.138970
C422	C	-0.379954	-0.464823	0.134516
C423	C	-0.354653	-0.492111	0.107168
C424	C	-0.292024	-0.470738	0.084273
C425	C	-0.254693	-0.422075	0.088725
C426	C	-0.279994	-0.394788	0.116074
H427	H	-0.426320	-0.480646	0.151465
H428	H	-0.382289	-0.528134	0.103871
H429	H	-0.273295	-0.490938	0.064028
H430	H	-0.208328	-0.406252	0.071777
H431	H	-0.252358	-0.358764	0.119370
H432	H	0.214866	-0.107227	-0.460154
C433	C	-0.483348	-0.334225	0.292438
C434	C	-0.517754	-0.321054	0.284814
C435	C	-0.490596	-0.267507	0.258398
C436	C	-0.429031	-0.227131	0.239607
C437	C	-0.394622	-0.240301	0.247230
C438	C	-0.421780	-0.293848	0.273646
H439	H	-0.563331	-0.350943	0.298724
H440	H	-0.516068	-0.257757	0.252754
H441	H	-0.408927	-0.187492	0.220052
H442	H	-0.349045	-0.210412	0.233319
H443	H	-0.396308	-0.303598	0.279290
H444	H	-0.573175	-0.633035	0.370052
C445	C	-0.002326	-0.093557	-0.243512
C446	C	-0.001872	-0.083390	-0.288817
C447	C	0.023426	-0.030806	-0.316168
C448	C	0.048269	0.011611	-0.298215
C449	C	0.047815	0.001445	-0.252908
C450	C	0.022518	-0.051139	-0.225557
H451	H	-0.020263	-0.114790	-0.302108
H452	H	0.023761	-0.023280	-0.349707
H453	H	0.066995	0.050537	-0.318462
H454	H	0.066206	0.032845	-0.239616
H455	H	0.022182	-0.058665	-0.192018
H456	H	0.509600	0.250519	-0.299402
H457	H	-0.009205	-0.543119	0.460019
C458	C	-0.719094	-0.639795	0.515446
C459	C	-0.718630	-0.621708	0.557782
C460	C	-0.773265	-0.648884	0.610371
C461	C	-0.828363	-0.694147	0.620624
C462	C	-0.828829	-0.712237	0.578287
C463	C	-0.774195	-0.685060	0.525698
H464	H	-0.677842	-0.588199	0.550194
H465	H	-0.772920	-0.635493	0.641712
H466	H	-0.868807	-0.714265	0.659553
H467	H	-0.869618	-0.745745	0.585876
H468	H	-0.774540	-0.698452	0.494357
C469	C	0.068568	-0.464807	0.243423
C470	C	0.015453	-0.476142	0.247877
C471	C	-0.039180	-0.528731	0.275225
C472	C	-0.040698	-0.569983	0.298118
C473	C	0.012420	-0.558648	0.293665
C474	C	0.067053	-0.506060	0.266317
H475	H	0.016575	-0.445604	0.230930
H476	H	-0.078501	-0.537121	0.278522
H477	H	-0.081140	-0.608912	0.318363
H478	H	0.011298	-0.589186	0.310612
H479	H	0.106374	-0.497669	0.263020
C480	C	-0.098607	0.203710	0.515422
C481	C	-0.061152	0.245492	0.526661
C482	C	-0.086286	0.247542	0.579248
C483	C	-0.148875	0.207812	0.620597
C484	C	-0.186333	0.166028	0.609359
C485	C	-0.161199	0.163977	0.556771
H486	H	-0.014817	0.274905	0.496051
H487	H	-0.058557	0.278474	0.587567
H488	H	-0.167480	0.209330	0.659525
H489	H	-0.232668	0.136614	0.639968
H490	H	-0.188928	0.133045	0.548453
C491	C	0.657058	0.237972	-0.362384
C492	C	0.719646	0.277709	-0.383628
C493	C	0.744782	0.275675	-0.356172
C494	C	0.707330	0.233904	-0.307472
C495	C	0.644738	0.194164	-0.286225
C496	C	0.619603	0.196198	-0.313681
H497	H	0.747373	0.308633	-0.419680
H498	H	0.791116	0.305094	-0.371900
H499	H	0.725937	0.232399	-0.287147
H500	H	0.617011	0.163240	-0.250173
H501	H	0.573269	0.166779	-0.297953
C502	C	0.516647	-0.334242	-0.029978
C503	C	0.578211	-0.293858	-0.072745
C504	C	0.605348	-0.240311	-0.073486
C505	C	0.570921	-0.227148	-0.031460
C506	C	0.509353	-0.267533	0.011310
C507	C	0.482216	-0.321080	0.012051
H508	H	0.603699	-0.303602	-0.103858
H509	H	0.650924	-0.210415	-0.105147
H510	H	0.591009	-0.187509	-0.032008
H511	H	0.483865	-0.257790	0.042423
H512	H	0.436640	-0.350976	0.043713
C513	C	0.561087	0.245751	-0.467211
C514	C	0.536355	0.202939	-0.484814
C515	C	0.511214	0.204974	-0.512263
C516	C	0.510804	0.249821	-0.522111
C517	C	0.535536	0.292636	-0.504508
C518	C	0.560678	0.290602	-0.477058
H519	H	0.536658	0.169737	-0.477524
H520	H	0.492905	0.173278	-0.525294
H521	H	0.492192	0.251327	-0.542431
H522	H	0.535233	0.325838	-0.511797
H523	H	0.578986	0.322297	-0.464028
H524	H	0.475667	0.245239	-0.460144
C525	C	-0.098954	-0.640161	0.515123
C526	C	-0.099402	-0.685461	0.525289
C527	C	-0.124698	-0.712812	0.577873
C528	C	-0.149546	-0.694862	0.620292
C529	C	-0.149099	-0.649559	0.610128
C530	C	-0.123803	-0.622208	0.557543
H531	H	-0.081007	-0.698751	0.493887
H532	H	-0.125028	-0.746348	0.585398
H533	H	-0.168272	-0.715108	0.659219
H534	H	-0.167494	-0.636269	0.641530
H535	H	-0.123472	-0.588672	0.550019
H536	H	-0.622080	-0.479793	0.430971
H537	H	0.048819	-0.479822	0.430995
H538	H	0.214838	0.196372	0.236297
H539	H	-0.092106	-0.632760	0.369448
H540	H	0.214842	0.196391	0.327982
C541	C	-0.098945	-0.294331	0.017138
C542	C	-0.123795	-0.336745	0.059939
C543	C	-0.149094	-0.389331	0.057888
C544	C	-0.149542	-0.399503	0.013036
C545	C	-0.124690	-0.357088	-0.029768
C546	C	-0.099392	-0.304502	-0.027717
H547	H	-0.123464	-0.329216	0.093144
H548	H	-0.167490	-0.420730	0.089574
H549	H	-0.168269	-0.438431	0.011517
H550	H	-0.125021	-0.364617	-0.062973
H551	H	-0.080996	-0.273103	-0.059404
H552	H	0.427462	-0.277347	-0.017767
C553	C	-0.098925	0.203707	0.362933
C554	C	-0.161556	0.163981	0.384309
C555	C	-0.186852	0.166030	0.357019
C556	C	-0.149517	0.207805	0.308352
C557	C	-0.086882	0.247534	0.286974
C558	C	-0.061585	0.245485	0.314264
H559	H	-0.189198	0.133053	0.420337
H560	H	-0.233219	0.136619	0.372845
H561	H	-0.168243	0.209322	0.288151
H562	H	-0.059240	0.278461	0.250946
H563	H	-0.015218	0.274895	0.298438
H564	H	0.131614	0.203142	0.146063
H565	H	0.475667	-0.319074	-0.024528
C566	C	0.489862	0.245807	-0.243498
C567	C	0.489470	0.203007	-0.225536
C568	C	0.544102	0.205049	-0.252882
C569	C	0.599127	0.249890	-0.298190
C570	C	0.599521	0.292694	-0.316155
C571	C	0.544889	0.290652	-0.288809
H572	H	0.448735	0.169809	-0.191994
H573	H	0.543810	0.173362	-0.239583
H574	H	0.639569	0.251402	-0.318433
H575	H	0.640256	0.325891	-0.349697
H576	H	0.545181	0.322338	-0.302108
H577	H	0.048864	-0.078540	-0.299417
C578	C	-0.342942	-0.263672	0.139302
C579	C	-0.342540	-0.253424	0.094048
C580	C	-0.317412	-0.200837	0.066873
C581	C	-0.292686	-0.158499	0.084952
C582	C	-0.293087	-0.168747	0.130208
C583	C	-0.318215	-0.221333	0.157383
H584	H	-0.360845	-0.284766	0.080662
H585	H	-0.317116	-0.193252	0.033371
H586	H	-0.274085	-0.119572	0.064835
H587	H	-0.274782	-0.137405	0.143594
H588	H	-0.318511	-0.228919	0.190885
H589	H	0.083119	0.196425	0.459990
H590	H	0.048839	-0.078529	0.029694
H591	H	0.295439	-0.633054	-0.017761
C592	C	0.434069	0.237951	-0.515539
C593	C	0.452567	0.277681	-0.556890
C594	C	0.477975	0.275628	-0.609477
C595	C	0.484885	0.233845	-0.620712
C596	C	0.466386	0.194111	-0.579359
C597	C	0.440978	0.196164	-0.526772
H598	H	0.447453	0.308615	-0.548575
H599	H	0.491669	0.305042	-0.640089
H600	H	0.503693	0.232325	-0.659639
H601	H	0.471501	0.163177	-0.587675
H602	H	0.427285	0.166750	-0.496161
C603	C	0.337040	-0.536054	-0.025043
C604	C	0.318551	-0.513198	0.014692
C605	C	0.293135	-0.486023	0.012655
C606	C	0.286208	-0.481703	-0.029117
C607	C	0.304698	-0.504560	-0.068855
C608	C	0.330113	-0.531735	-0.066818
H609	H	0.323678	-0.516395	0.045617
H610	H	0.279448	-0.469103	0.042072
H611	H	0.267394	-0.461587	-0.030626
H612	H	0.299570	-0.501363	-0.099780
H613	H	0.343800	-0.548655	-0.096235
C614	C	0.068564	-0.464807	0.467157
C615	C	0.015447	-0.476138	0.515816
C616	C	-0.039189	-0.528724	0.543101
C617	C	-0.040709	-0.569980	0.521728
C618	C	0.012410	-0.558651	0.473067
C619	C	0.067046	-0.506064	0.445781
H620	H	0.016571	-0.445597	0.531640
H621	H	-0.078511	-0.537110	0.579124
H622	H	-0.081154	-0.608907	0.541927
H623	H	0.011286	-0.589192	0.457243
H624	H	0.106368	-0.497678	0.409759
C625	C	0.337038	-0.246368	-0.314405
C626	C	0.372174	-0.256078	-0.304234
C627	C	0.346938	-0.283364	-0.251648
C628	C	0.286566	-0.300940	-0.209232
C629	C	0.251426	-0.291230	-0.219402
C630	C	0.276662	-0.263944	-0.271988
H631	H	0.416868	-0.243067	-0.335633
H632	H	0.372951	-0.290552	-0.244120
H633	H	0.267884	-0.321139	-0.170305
H634	H	0.206731	-0.304241	-0.188003
H635	H	0.250648	-0.256756	-0.279516
C636	C	0.124400	0.081461	-0.362418
C637	C	0.117481	0.085795	-0.313723
C638	C	0.092070	0.112976	-0.286275
C639	C	0.073578	0.135824	-0.307522
C640	C	0.080496	0.131491	-0.356219
C641	C	0.105907	0.104309	-0.383667
H642	H	0.131171	0.068881	-0.297993
H643	H	0.086949	0.116184	-0.250226
H644	H	0.054767	0.155945	-0.287203
H645	H	0.066806	0.148405	-0.371950
H646	H	0.111028	0.101102	-0.419716
H647	H	0.427482	-0.632752	-0.017790
H648	H	0.214783	-0.319132	0.328334
C649	C	0.124355	-0.416832	0.515466
C650	C	0.117441	-0.465525	0.526706
C651	C	0.092031	-0.492979	0.579294
C652	C	0.073534	-0.471739	0.620642
C653	C	0.080447	-0.423043	0.609403
C654	C	0.105858	-0.395589	0.556815
H655	H	0.131134	-0.481251	0.496096
H656	H	0.086913	-0.529028	0.587614
H657	H	0.054723	-0.492062	0.659572
H658	H	0.066755	-0.407318	0.640013
H659	H	0.110976	-0.359541	0.548495
H660	H	0.131604	0.074708	0.017665
H661	H	0.567355	-0.319073	-0.024528
C662	C	0.281252	0.237960	-0.363059
C663	C	0.279728	0.277688	-0.384439
C664	C	0.225093	0.275641	-0.357154
C665	C	0.171980	0.233866	-0.308489
C666	C	0.173502	0.194135	-0.287106
C667	C	0.228137	0.196182	-0.314392
H668	H	0.319047	0.308615	-0.420467
H669	H	0.223967	0.305052	-0.372983
H670	H	0.131535	0.232351	-0.288291
H671	H	0.134183	0.163209	-0.251079
H672	H	0.229263	0.166771	-0.298563
H673	H	0.426818	-0.149274	-0.146148
C674	C	0.657068	-0.263681	-0.017249
C675	C	0.719654	-0.222335	-0.056987
C676	C	0.744789	-0.169746	-0.054944
C677	C	0.707337	-0.158503	-0.013162
C678	C	0.644747	-0.199850	0.026579
C679	C	0.619613	-0.252439	0.024536
H680	H	0.747382	-0.230657	-0.087919
H681	H	0.791122	-0.139138	-0.084363
H682	H	0.725943	-0.119574	-0.011649
H683	H	0.617020	-0.191528	0.057511
H684	H	0.573279	-0.283046	0.053955
C685	C	-0.098621	-0.141521	0.017148
C686	C	-0.061166	-0.092828	-0.024633
C687	C	-0.086299	-0.065373	-0.026680
C688	C	-0.148887	-0.086611	0.013054
C689	C	-0.186345	-0.135306	0.054839
C690	C	-0.161213	-0.162761	0.056885
H691	H	-0.014832	-0.077105	-0.054050
H692	H	-0.058570	-0.029326	-0.057611
H693	H	-0.167492	-0.066287	0.011539
H694	H	-0.232680	-0.151030	0.084255
H695	H	-0.188942	-0.198809	0.087817
H696	H	0.180497	-0.078532	0.029700
H697	H	0.048825	-0.479823	0.299329
C698	C	0.041812	0.190973	0.444868
C699	C	-0.019748	0.148214	0.485268
C700	C	-0.046870	0.147497	0.538809
C701	C	-0.012430	0.189537	0.551950
C702	C	0.049134	0.232299	0.511549
C703	C	0.076256	0.233017	0.458008
H704	H	-0.045246	0.117091	0.475541
H705	H	-0.092444	0.115841	0.568717
H706	H	-0.032507	0.189006	0.591585
H707	H	0.074631	0.263423	0.521276
H708	H	0.121830	0.264672	0.428100
H709	H	0.567351	0.245258	-0.328072
H710	H	-0.656419	-0.542806	0.460050
C711	C	-0.002637	-0.246360	-0.243171
C712	C	0.059951	-0.225119	-0.266022
C713	C	0.085086	-0.252575	-0.293196
C714	C	0.047634	-0.301272	-0.297520
C715	C	-0.014957	-0.322516	-0.274668
C716	C	-0.040093	-0.295059	-0.247493
H717	H	0.087678	-0.189068	-0.262822
H718	H	0.131420	-0.236849	-0.310113
H719	H	0.066241	-0.321597	-0.317636
H720	H	-0.042685	-0.358567	-0.277867
H721	H	-0.086427	-0.310786	-0.230577
C722	C	0.281251	0.237989	-0.139075
C723	C	0.279732	0.277727	-0.116185
C724	C	0.225097	0.275683	-0.088838
C725	C	0.171982	0.233900	-0.084381
C726	C	0.173499	0.194159	-0.107272
C727	C	0.228133	0.196203	-0.134619
H728	H	0.319053	0.308660	-0.119483
H729	H	0.223974	0.305102	-0.071893
H730	H	0.131538	0.232386	-0.064138
H731	H	0.134178	0.163226	-0.103973
H732	H	0.229256	0.166784	-0.151564
H733	H	-0.432385	-0.450805	0.236006
H734	H	0.343629	-0.450820	-0.024499
H735	H	0.650823	-0.409073	-0.017773
H736	H	-0.490409	-0.479799	0.299306
C737	C	0.194225	0.190938	0.292442
C738	C	0.191845	0.148175	0.313624
C739	C	0.244651	0.147433	0.287215
C740	C	0.299838	0.189453	0.239623
C741	C	0.302221	0.232219	0.218437
C742	C	0.249414	0.232961	0.244847
H743	H	0.150990	0.117067	0.348857
H744	H	0.242888	0.115775	0.302898
H745	H	0.338929	0.188903	0.220073
H746	H	0.343075	0.263327	0.183204
H747	H	0.251178	0.264619	0.229164
H748	H	0.426826	-0.149279	-0.501527
H749	H	0.343643	0.245246	-0.328410
C750	C	0.280918	-0.294675	-0.139388
C751	C	0.227899	-0.305926	-0.135073
C752	C	0.173272	-0.358518	-0.107901
C753	C	0.171664	-0.399858	-0.085044
C754	C	0.224685	-0.388608	-0.089358
C755	C	0.279312	-0.336016	-0.116530
H756	H	0.229088	-0.275323	-0.151993
H757	H	0.134023	-0.366845	-0.104707
H758	H	0.131226	-0.438789	-0.064929
H759	H	0.223497	-0.419211	-0.072438
H760	H	0.318561	-0.327689	-0.119724
H761	H	0.650802	0.074696	-0.370125
C762	C	0.194249	-0.071697	-0.444986
C763	C	0.191877	-0.052898	-0.485377
C764	C	0.244689	-0.026504	-0.538923
C765	C	0.299873	-0.018909	-0.552078
C766	C	0.302247	-0.037708	-0.511687
C767	C	0.249435	-0.064102	-0.458141
H768	H	0.151025	-0.058519	-0.475639
H769	H	0.242931	-0.012587	-0.568823
H770	H	0.338967	0.000630	-0.591716
H771	H	0.343099	-0.032087	-0.521425
H772	H	0.251193	-0.078019	-0.428241
C773	C	0.277510	0.203638	0.139309
C774	C	0.277027	0.160827	0.157398
C775	C	0.331653	0.162860	0.130228
C776	C	0.386763	0.207703	0.084969
C777	C	0.387248	0.250517	0.066877
C778	C	0.332622	0.248485	0.094047
H779	H	0.236230	0.127629	0.190904
H780	H	0.331294	0.131165	0.143620
H781	H	0.427200	0.209207	0.064856
H782	H	0.428045	0.283716	0.033372
H783	H	0.332981	0.280179	0.080655
H784	H	0.295426	-0.409085	-0.017742
C785	C	0.277512	0.203674	0.362306
C786	C	0.277037	0.160865	0.344695
C787	C	0.331664	0.162899	0.317246
C788	C	0.386767	0.207741	0.307408
C789	C	0.387244	0.250553	0.325019
C790	C	0.332617	0.248519	0.352468
H791	H	0.236245	0.127668	0.351977
H792	H	0.331310	0.131207	0.304209
H793	H	0.427205	0.209246	0.287088
H794	H	0.428036	0.283750	0.317736
H795	H	0.332971	0.280211	0.365504
H796	H	0.214829	-0.107212	0.024450
C797	C	0.277227	0.081786	-0.515217
C798	C	0.278760	0.104687	-0.556476
C799	C	0.333402	0.132034	-0.609061
C800	C	0.386511	0.136482	-0.620386
C801	C	0.384980	0.113580	-0.579125
C802	C	0.330338	0.086233	-0.526540
H803	H	0.239445	0.101395	-0.548094
H804	H	0.334535	0.148987	-0.639605
H805	H	0.426960	0.156726	-0.659313
H806	H	0.424296	0.116872	-0.587508
H807	H	0.329205	0.069280	-0.495996
C808	C	0.489509	-0.093882	-0.467204
C809	C	0.542530	-0.082638	-0.515902
C810	C	0.597165	-0.030051	-0.543352
C811	C	0.598778	0.011292	-0.522104
C812	C	0.545755	0.000049	-0.473403
C813	C	0.491121	-0.052537	-0.445953
H814	H	0.541338	-0.113244	-0.531634
H815	H	0.636416	-0.021729	-0.579404
H816	H	0.639222	0.050220	-0.542424
H817	H	0.546948	0.030655	-0.457671
H818	H	0.451869	-0.060860	-0.409901
H819	H	0.048852	0.191137	0.299295
H820	H	0.263317	0.074407	0.017690
C821	C	0.221386	-0.022630	0.024976
C822	C	0.281758	-0.004675	-0.017819
C823	C	0.306993	-0.032026	-0.015766
C824	C	0.271855	-0.077332	0.029082
C825	C	0.211479	-0.095289	0.071880
C826	C	0.186245	-0.067939	0.069827
H827	H	0.307773	0.028865	-0.051020
H828	H	0.351687	-0.018732	-0.047448
H829	H	0.290535	-0.097579	0.030601
H830	H	0.185465	-0.128830	0.105082
H831	H	0.141550	-0.081232	0.101509
C832	C	0.277540	-0.141548	-0.515544
C833	C	0.277077	-0.123931	-0.557882
C834	C	0.331711	-0.096480	-0.610470
C835	C	0.386809	-0.086646	-0.620722
C836	C	0.387275	-0.104263	-0.578383
C837	C	0.332640	-0.131714	-0.525795
H838	H	0.236288	-0.131210	-0.550294
H839	H	0.331367	-0.083438	-0.641812
H840	H	0.427253	-0.066324	-0.659651
H841	H	0.428063	-0.096984	-0.585971
H842	H	0.332985	-0.144756	-0.494453
H843	H	0.083107	-0.239224	0.024428
C844	C	-0.002647	-0.246342	0.024948
C845	C	0.022084	-0.263946	-0.017864
C846	C	0.047237	-0.291387	-0.015833
C847	C	0.047657	-0.301224	0.029010
C848	C	0.022925	-0.283619	0.071825
C849	C	-0.002228	-0.256178	0.069794
H850	H	0.021774	-0.256665	-0.051063
H851	H	0.065546	-0.304419	-0.047528
H852	H	0.066277	-0.321537	0.030514
H853	H	0.023235	-0.290901	0.105024
H854	H	-0.020537	-0.243146	0.101489
H855	H	0.567634	-0.450812	-0.024522
C856	C	0.125061	-0.294349	-0.363051
C857	C	0.064693	-0.336763	-0.345483
C858	C	0.039455	-0.389348	-0.318193
C859	C	0.074585	-0.399519	-0.308471
C860	C	0.134956	-0.357103	-0.326040
C861	C	0.160194	-0.304518	-0.353330
H862	H	0.038685	-0.329236	-0.352680
H863	H	-0.005236	-0.420747	-0.305188
H864	H	0.055902	-0.438445	-0.288269
H865	H	0.160964	-0.364630	-0.318843
H866	H	0.204885	-0.273119	-0.366335
C867	C	-0.565944	-0.263662	0.362295
C868	C	-0.600953	-0.253407	0.352460
C869	C	-0.575541	-0.200818	0.325006
C870	C	-0.515120	-0.158485	0.307387
C871	C	-0.480107	-0.168738	0.317222
C872	C	-0.505520	-0.221327	0.344677
H873	H	-0.645684	-0.284746	0.365502
H874	H	-0.601460	-0.193228	0.317725
H875	H	-0.496308	-0.119556	0.287064
H876	H	-0.435377	-0.137399	0.304180
H877	H	-0.479601	-0.228917	0.351957
C878	C	0.125035	-0.294332	0.017144
C879	C	0.106671	-0.335588	0.056878
C880	C	0.081432	-0.388175	0.054828
C881	C	0.074558	-0.399506	0.013044
C882	C	0.092922	-0.358249	-0.026693
C883	C	0.118161	-0.305662	-0.024643
H884	H	0.111760	-0.327202	0.087812
H885	H	0.067838	-0.418716	0.084244
H886	H	0.055875	-0.438434	0.011527
H887	H	0.087833	-0.366635	-0.057626
H888	H	0.131755	-0.275121	-0.054059
H889	H	0.509580	-0.078539	-0.299382
H890	H	0.509586	-0.078542	-0.431051
H891	H	0.377914	-0.210198	-0.299385
H892	H	0.343591	-0.239283	-0.236379
H893	H	0.377938	0.250520	-0.299405
H894	H	0.083127	-0.239238	-0.328411
C895	C	0.280916	-0.294674	-0.362384
C896	C	0.227891	-0.305918	-0.313689
C897	C	0.173261	-0.358508	-0.286236
C898	C	0.171655	-0.399852	-0.307480
C899	C	0.224681	-0.388608	-0.356178
C900	C	0.279312	-0.336019	-0.383630
H901	H	0.229078	-0.275312	-0.297961
H902	H	0.134007	-0.366831	-0.250187
H903	H	0.131214	-0.438782	-0.287158
H904	H	0.223494	-0.419215	-0.371906
H905	H	0.318565	-0.327696	-0.419680
H906	H	0.650521	0.074397	-0.501861
H907	H	0.567341	-0.015529	-0.460129
H908	H	0.567616	-0.015243	-0.328388
H909	H	0.214794	-0.319135	0.236028
H910	H	0.377933	-0.479817	-0.029780
H911	H	0.475673	-0.542826	-0.024534
H912	H	0.048852	-0.210211	-0.299410
H913	H	0.082795	-0.015532	-0.328093
H914	H	-0.432649	-0.319058	0.236294
H915	H	-0.524342	-0.319055	0.327978
H916	H	0.509604	0.250505	-0.431066
