data_functionalizedCrystal
_audit_creation_method	'MofGen! by Chris Wilmer'
_symmetry_space_group_name_H-M	'P1'
_symmetry_Int_Tables_number	1
_symmetry_cell_setting	triclinic
loop_
_symmetry_equiv_pos_as_xyz
  x,y,z
_cell_length_a	8.965430
_cell_length_b	14.853567
_cell_length_c	10.489716
_cell_angle_alpha	95.917967
_cell_angle_beta	89.995536
_cell_angle_gamma	89.999157
loop_
_atom_site_label
_atom_site_type_symbol
_atom_site_fract_x
_atom_site_fract_y
_atom_site_fract_z
O1	O	0.123923	-1.197288	0.166521
O2	O	0.123947	-0.934938	0.186359
O3	O	0.123940	-1.072094	-0.009227
O4	O	0.123930	-1.060132	0.362107
O5	O	-0.124139	-1.072083	-0.009214
O6	O	-0.124132	-0.934927	0.186372
O7	O	-0.124156	-1.197276	0.166534
Cu8	Cu	-0.146796	-1.066101	0.176454
Cu9	Cu	0.146586	-1.066114	0.176439
O10	O	-0.124149	-1.060120	0.362120
C11	C	-0.000089	-0.901339	0.185467
C12	C	-0.000080	-0.801240	0.182773
N13	N	-0.353145	-1.066097	0.176464
C14	C	-0.000095	-1.071190	-0.056743
C15	C	-0.000081	-1.068501	-0.198343
C16	C	-0.450447	-1.002648	0.266887
C17	C	-0.549870	-1.084275	0.291781
C18	C	-0.549850	-0.984505	0.151580
C19	C	-0.450378	-1.147766	0.201417
C20	C	-0.450350	-1.047942	0.061165
C21	C	-0.549727	-1.129628	0.086011
N22	N	0.352935	-1.066124	0.176419
C23	C	-0.000117	-1.230876	0.167426
C24	C	-0.000117	-1.330974	0.170120
C25	C	-0.000110	-0.387999	0.055204
C26	C	-0.000114	-0.368007	0.287565
C27	C	-0.000110	-0.462054	0.290098
C28	C	-0.000103	-0.519079	0.175182
C29	C	-0.000101	-0.482056	0.057734
C30	C	-0.000097	-0.499085	0.407544
C31	C	-0.000090	-0.593138	0.410081
C32	C	-0.000094	-0.650164	0.295164
C33	C	-0.000094	-0.613136	0.177711
C34	C	-0.000087	-0.670160	0.062795
C35	C	-0.000097	-0.633134	-0.054659
C36	C	-0.000104	-0.539082	-0.057183
C37	C	-0.000087	-0.744216	0.297689
C38	C	-0.000078	-0.764217	0.065325
C39	C	-0.000103	-1.152609	-0.296961
C40	C	0.122213	-1.108170	-0.373830
C41	C	-0.122373	-1.108139	-0.373780
C42	C	0.122336	-1.024097	-0.273346
C43	C	-0.122361	-1.024078	-0.273292
C44	C	-0.000015	-0.979577	-0.350111
C45	C	-0.000111	-1.061025	0.409636
C46	C	-0.000115	-1.063714	0.551236
H47	H	-0.406856	-0.949040	0.343423
C48	C	-0.000043	-0.347631	-0.072184
C49	C	-0.000022	-0.253059	-0.049814
C50	C	0.000059	-0.215842	-0.167133
H51	H	-0.086527	-0.367059	-0.119598
H52	H	0.086506	-0.367099	-0.119521
H53	H	-0.086562	-0.233600	-0.002496
H54	H	0.086455	-0.233607	-0.002419
H55	H	0.086608	-0.235309	-0.214471
H56	H	-0.086426	-0.235276	-0.214538
H57	H	0.000087	-0.151672	-0.151971
H58	H	-0.406868	-1.216795	0.222561
C59	C	-0.607583	-1.201123	-0.016141
C60	C	-0.693443	-1.159541	-0.104937
C61	C	-0.746749	-1.225373	-0.199060
H62	H	-0.667339	-1.243426	0.022869
H63	H	-0.525732	-1.231674	-0.058784
H64	H	-0.775283	-1.129005	-0.062299
H65	H	-0.633719	-1.117244	-0.143979
H66	H	-0.664898	-1.255924	-0.241703
H67	H	-0.806499	-1.267673	-0.160039
H68	H	-0.805000	-1.197169	-0.259326
H69	H	-0.406602	-1.032542	-0.036289
H70	H	0.225859	-0.988615	-0.229650
C71	C	0.000192	-0.306140	0.412363
C72	C	0.127840	-0.322968	0.483051
C73	C	0.128182	-0.265981	0.598019
H74	H	-0.086218	-0.317390	0.460673
H75	H	0.000273	-0.244811	0.394086
H76	H	0.127746	-0.384283	0.501332
H77	H	0.214271	-0.311713	0.434781
H78	H	0.128263	-0.204652	0.579741
H79	H	0.041767	-0.277235	0.646317
H80	H	0.214796	-0.277385	0.645989
H81	H	-0.000081	-0.679576	-0.148223
C82	C	-0.607899	-0.892399	0.123709
C83	C	-0.557561	-0.826228	0.218680
C84	C	-0.610982	-0.741367	0.193048
H85	H	-0.713842	-0.893103	0.123147
H86	H	-0.572313	-0.879009	0.042462
H87	H	-0.593155	-0.839614	0.299906
H88	H	-0.451625	-0.825494	0.219257
H89	H	-0.575396	-0.727977	0.111801
H90	H	-0.716923	-0.742081	0.192486
H91	H	-0.576824	-0.696458	0.257474
C92	C	-0.260194	-0.976624	-0.214869
C93	C	-0.261133	-0.886564	-0.243258
C94	C	-0.388104	-0.842833	-0.189474
H95	H	-0.258824	-0.978119	-0.124565
H96	H	-0.347066	-1.006550	-0.249455
H97	H	-0.174283	-0.856647	-0.208666
H98	H	-0.262525	-0.885042	-0.333551
H99	H	-0.474977	-0.872759	-0.224060
H100	H	-0.386723	-0.844335	-0.099172
H101	H	-0.388765	-0.781726	-0.208738
C102	C	0.260041	-1.155432	-0.432607
C103	C	0.258889	-1.151509	-0.565391
C104	C	0.385837	-1.195031	-0.619572
H105	H	0.260046	-1.216885	-0.414960
H106	H	0.346940	-1.126149	-0.396944
H107	H	0.172013	-1.180794	-0.601042
H108	H	0.258906	-1.090068	-0.583074
H109	H	0.472736	-1.165748	-0.583909
H110	H	0.385831	-1.256480	-0.601916
H111	H	0.385079	-1.192367	-0.709669
C112	C	0.000381	-0.881940	-0.381529
C113	C	0.128681	-0.838332	-0.330243
C114	C	0.129113	-0.748394	-0.359176
H115	H	-0.085581	-0.851749	-0.345586
H116	H	-0.000368	-0.880705	-0.471900
H117	H	0.129416	-0.839562	-0.239890
H118	H	0.214663	-0.868497	-0.366177
H119	H	0.128363	-0.747159	-0.449547
H120	H	0.043146	-0.718211	-0.323232
H121	H	0.216169	-0.718797	-0.324393
H122	H	0.000015	-1.225769	-0.273106
C123	C	0.000136	-0.499002	-0.184786
C124	C	0.127754	-0.527929	-0.254279
C125	C	0.128023	-0.491031	-0.371835
H126	H	0.000215	-0.434824	-0.170010
H127	H	-0.086326	-0.518544	-0.232179
H128	H	0.214193	-0.508382	-0.206895
H129	H	0.127701	-0.592102	-0.269089
H130	H	0.041561	-0.510573	-0.419229
H131	H	0.128099	-0.426854	-0.357047
H132	H	0.214603	-0.510659	-0.419006
C133	C	-0.260211	-1.155639	-0.432115
C134	C	-0.259637	-1.246127	-0.405675
C135	C	-0.386590	-1.289916	-0.459375
H136	H	-0.259831	-1.153186	-0.522245
H137	H	-0.347108	-1.126419	-0.396325
H138	H	-0.172763	-1.275339	-0.441470
H139	H	-0.260040	-1.248607	-0.315555
H140	H	-0.473487	-1.260696	-0.423585
H141	H	-0.386198	-1.287456	-0.549502
H142	H	-0.386224	-1.351314	-0.441433
H143	H	-0.593582	-1.099650	0.389267
H144	H	-0.000078	-0.810641	-0.028255
H145	H	-0.000087	-0.452649	0.501102
H146	H	-0.000082	-0.623276	0.505720
H147	H	-0.000081	-0.774359	0.393318
