data_functionalizedCrystal
_audit_creation_method	'MofGen! by Chris Wilmer'
_symmetry_space_group_name_H-M	'P1'
_symmetry_Int_Tables_number	1
_symmetry_cell_setting	triclinic
loop_
_symmetry_equiv_pos_as_xyz
  x,y,z
_cell_length_a	14.853567
_cell_length_b	15.944551
_cell_length_c	13.930277
_cell_angle_alpha	89.994493
_cell_angle_beta	89.995755
_cell_angle_gamma	83.566834
loop_
_atom_site_label
_atom_site_type_symbol
_atom_site_fract_x
_atom_site_fract_y
_atom_site_fract_z
O1	O	1.196228	0.109664	-0.079767
O2	O	0.933751	0.122728	-0.079783
O3	O	1.072157	-0.006071	-0.079766
O4	O	1.057822	0.238463	-0.079784
O5	O	1.072138	-0.006073	0.079896
O6	O	0.933732	0.122725	0.079878
O7	O	1.196208	0.109662	0.079895
Zn8	Zn	1.064967	0.116193	0.105236
Zn9	Zn	1.064993	0.116197	-0.105125
O10	O	1.057803	0.238460	0.079878
C11	C	0.900154	0.122135	0.000045
C12	C	0.800072	0.120361	0.000039
C13	C	0.387646	0.036354	0.000067
C14	C	0.366169	0.189369	0.000055
C15	C	0.460201	0.191037	0.000051
C16	C	0.517960	0.115362	0.000055
C17	C	0.481687	0.038019	0.000061
C18	C	0.496480	0.268379	0.000035
C19	C	0.590517	0.270050	0.000031
C20	C	0.648278	0.194374	0.000041
C21	C	0.612000	0.117028	0.000049
C22	C	0.669759	0.041353	0.000052
C23	C	0.633483	-0.035994	0.000066
C24	C	0.539448	-0.037657	0.000071
C25	C	0.742313	0.196036	0.000036
C26	C	0.763800	0.043018	0.000046
C27	C	1.071552	-0.037367	0.000065
C28	C	1.069768	-0.130615	0.000065
C29	C	0.979713	-0.345572	0.000047
C30	C	1.021522	-0.406544	0.078772
C31	C	1.066541	-0.301344	0.000058
C32	C	1.021562	-0.406524	-0.078642
C33	C	1.063416	-0.466260	0.000046
C34	C	1.108373	-0.361088	0.078848
C35	C	1.108401	-0.361062	-0.078636
C36	C	1.150273	-0.422017	0.000109
C37	C	1.068338	-0.206340	0.000065
C38	C	1.061626	-0.561263	0.000046
C39	C	1.229806	0.110255	0.000064
C40	C	1.329887	0.112029	0.000064
C41	C	1.058407	0.269756	0.000044
C42	C	1.060191	0.363004	0.000038
N43	N	1.064957	0.116190	0.248803
N44	N	1.065010	0.116193	-0.248691
C45	C	1.003704	0.173206	0.701064
C46	C	1.126306	0.059181	0.701049
C47	C	1.126295	0.059178	0.600553
C48	C	1.064989	0.116191	0.550308
C49	C	1.003693	0.173207	0.600559
C50	C	1.187596	0.002169	0.550295
C51	C	1.187588	0.002164	0.449793
C52	C	1.126277	0.059174	0.399546
C53	C	1.064978	0.116192	0.449803
C54	C	1.003672	0.173205	0.399558
C55	C	0.942368	0.230220	0.449814
C56	C	0.942382	0.230217	0.550312
C57	C	1.126263	0.059177	0.299047
C58	C	1.003661	0.173206	0.299053
H59	H	0.449447	0.329989	0.000023
H60	H	0.907643	-0.312344	0.000121
H61	H	1.145102	-0.340890	-0.145191
O62	O	0.625602	0.345253	0.000068
C63	C	0.554457	0.411687	0.000040
H64	H	0.490572	0.388068	0.030267
H65	H	0.574110	0.465676	0.046393
H66	H	0.541160	0.435038	-0.076559
O67	O	0.777447	0.271212	-0.000107
C68	C	0.747959	0.317337	-0.082816
H69	H	0.682738	0.294373	-0.110380
H70	H	0.734917	0.387272	-0.064230
H71	H	0.802376	0.307664	-0.140718
H72	H	1.222407	-0.455095	0.000158
O73	O	0.819941	-0.030473	0.000217
C74	C	0.874998	-0.034080	0.082888
H75	H	0.840568	0.008835	0.140684
H76	H	0.885564	-0.101728	0.110650
H77	H	0.943380	-0.012264	0.064181
H78	H	1.176179	0.012760	0.258134
O79	O	0.977560	-0.430533	0.158096
C80	C	0.887678	-0.391212	0.157826
H81	H	0.866764	-0.372988	0.081218
H82	H	0.840639	-0.436715	0.187560
H83	H	0.882949	-0.332142	0.204480
H84	H	0.680523	-0.097609	0.000062
H85	H	1.145059	-0.341058	0.145478
H86	H	0.509903	-0.100629	0.000105
H87	H	0.984834	-0.426641	-0.145203
H88	H	0.953734	0.219631	0.258150
O89	O	0.882941	0.285637	0.400895
C90	C	0.931221	0.337555	0.342772
H91	H	1.001765	0.304222	0.327718
H92	H	0.893597	0.350776	0.272099
H93	H	0.937343	0.399647	0.381495
H94	H	0.892471	0.276637	0.591236
H95	H	0.953789	0.219625	0.741984
O96	O	0.310160	0.262932	0.000176
C97	C	0.326582	0.309873	0.082874
H98	H	0.397910	0.289327	0.110445
H99	H	0.319975	0.379921	0.064271
H100	H	0.275142	0.298329	0.140777
O101	O	1.247164	-0.053302	0.401129
C102	C	1.301292	-0.103607	0.467028
H103	H	1.264341	-0.104614	0.538678
H104	H	1.315038	-0.170666	0.438001
H105	H	1.368263	-0.076219	0.477695
H106	H	1.237514	-0.044246	0.591208
O107	O	0.352264	-0.038705	0.000038
C108	C	0.256880	-0.023955	0.000072
H109	H	0.234801	0.041569	-0.030160
H110	H	0.228002	-0.073451	-0.046273
H111	H	0.230708	-0.028055	0.076674
O112	O	1.185770	0.003834	0.750001
C113	C	1.172654	0.016077	0.849481
H114	H	1.100984	0.047350	0.863217
H115	H	1.182687	-0.047516	0.887686
H116	H	1.223684	0.058295	0.877981
