data_functionalizedCrystal
_audit_creation_method	'MofGen! by Chris Wilmer'
_symmetry_space_group_name_H-M	'P1'
_symmetry_Int_Tables_number	1
_symmetry_cell_setting	triclinic
loop_
_symmetry_equiv_pos_as_xyz
  x,y,z
_cell_length_a	21.395362
_cell_length_b	15.297327
_cell_length_c	21.395355
_cell_angle_alpha	99.659679
_cell_angle_beta	89.956060
_cell_angle_gamma	99.725883
loop_
_atom_site_label
_atom_site_type_symbol
_atom_site_fract_x
_atom_site_fract_y
_atom_site_fract_z
Zn1	Zn	0.914743	-0.358918	-0.397693
Zn2	Zn	0.896524	-0.509774	-0.311034
Zn3	Zn	0.809953	-0.358960	-0.292899
Zn4	Zn	0.791803	-0.509792	-0.415741
O5	O	0.853256	-0.434361	-0.354342
O6	O	1.000007	-0.378904	-0.386234
O7	O	0.885011	-0.489778	-0.220951
O8	O	0.839075	-0.232697	-0.291658
O9	O	0.986621	-0.489737	-0.322566
O10	O	0.916063	-0.232666	-0.368649
O11	O	0.821408	-0.378975	-0.207628
O12	O	0.719864	-0.378993	-0.309158
O13	O	0.808140	-0.489769	-0.501023
O14	O	0.706530	-0.489810	-0.399409
O15	O	0.898464	-0.378922	-0.487764
O16	O	0.867411	-0.636034	-0.340066
O17	O	0.790473	-0.636048	-0.416993
C18	C	0.690462	-0.434409	-0.354275
C19	C	0.620816	-0.434451	-0.354263
C20	C	0.581167	-0.492229	-0.401206
C21	C	0.515734	-0.492207	-0.401232
C22	C	0.489952	-0.434416	-0.354304
C23	C	0.529610	-0.376627	-0.307357
C24	C	0.595042	-0.376644	-0.307337
C25	C	0.387100	-0.427148	-0.297026
C26	C	0.321669	-0.427137	-0.297046
C27	C	0.288138	-0.434357	-0.354366
C28	C	0.320045	-0.441608	-0.411670
C29	C	0.385477	-0.441625	-0.411650
C30	C	0.419003	-0.434390	-0.354321
C31	C	0.177539	-0.492115	-0.401340
C32	C	0.112106	-0.492086	-0.401366
C33	C	0.125983	-0.376510	-0.307486
C34	C	0.191415	-0.376534	-0.307465
C35	C	0.217189	-0.434341	-0.354392
C36	C	0.825013	-0.668778	-0.382470
C37	C	0.812988	-0.769063	-0.394524
C38	C	0.939459	-1.051594	-0.268402
C39	C	0.950757	-0.957372	-0.257073
C40	C	0.916316	-0.910290	-0.291435
C41	C	0.870575	-0.957440	-0.337127
C42	C	0.859272	-1.051671	-0.348454
C43	C	0.836129	-0.910367	-0.371487
C44	C	0.790387	-0.957517	-0.417179
C45	C	0.779087	-1.051739	-0.428503
C46	C	0.813528	-1.098821	-0.394142
C47	C	0.847431	-0.816135	-0.360160
C48	C	0.767244	-0.816212	-0.440212
C49	C	0.755946	-0.910435	-0.451540
C50	C	1.016685	-0.434314	-0.354409
C51	C	1.086328	-0.434294	-0.354438
C52	C	0.853310	-0.434343	-0.517763
C53	C	0.853333	-0.434335	-0.587403
C54	C	0.881626	-0.199029	-0.326118
C55	C	0.893716	-0.098744	-0.314090
C56	C	0.900363	-0.376615	-0.613213
C57	C	0.900367	-0.376576	-0.678643
C58	C	0.853345	-0.434273	-0.718264
C59	C	0.806307	-0.491998	-0.692447
C60	C	0.806301	-0.492029	-0.627017
C61	C	0.838610	-0.515514	-0.831685
C62	C	0.838620	-0.515485	-0.897115
C63	C	0.853361	-0.434178	-0.920074
C64	C	0.868104	-0.352898	-0.877594
C65	C	0.868098	-0.352928	-0.812164
C66	C	0.853346	-0.434246	-0.789213
C67	C	0.900398	-0.376411	-1.016830
C68	C	0.900397	-0.376370	-1.082262
C69	C	0.806339	-0.491801	-1.096065
C70	C	0.806338	-0.491833	-1.030634
C71	C	0.853370	-0.434139	-0.991020
C72	C	0.853246	-0.434314	-0.191548
C73	C	0.853374	-0.434068	-0.121878
H74	H	0.508615	-0.329571	-0.269149
H75	H	0.884674	-0.777754	-0.322957
H76	H	0.880108	-0.286690	-0.896285
H77	H	0.718703	-0.948837	-0.488743
H78	H	0.938664	-0.329568	-0.699661
N79	N	0.608965	-0.554560	-0.451829
H80	H	0.656433	-0.545804	-0.444696
H81	H	0.589736	-0.618975	-0.449740
H82	H	0.295694	-0.421238	-0.250386
H83	H	0.768048	-0.538770	-1.128323
N84	N	1.000095	-0.906519	-0.207802
H85	H	1.020202	-0.950641	-0.187756
H86	H	1.033771	-0.867367	-0.228643
H87	H	0.414396	-0.421264	-0.250345
N88	N	0.729749	-1.102585	-0.477783
H89	H	0.750515	-1.141621	-0.511542
H90	H	0.696041	-1.141688	-0.456943
H91	H	0.292746	-0.447486	-0.458346
N92	N	0.755604	-0.554075	-1.002790
H93	H	0.725812	-0.590615	-1.037815
H94	H	0.776059	-0.595840	-0.980668
H95	H	0.483445	-0.539257	-0.439461
H96	H	0.198525	-0.539180	-0.439553
N97	N	0.069336	-0.554412	-0.451997
H98	H	0.082455	-0.540512	-0.495109
H99	H	0.072945	-0.618831	-0.449854
H100	H	0.104993	-0.329452	-0.269279
N101	N	0.822722	-0.603145	-0.942930
H102	H	0.854079	-0.643522	-0.936415
H103	H	0.778455	-0.633782	-0.935180
N104	N	0.951122	-0.314095	-1.110092
H105	H	0.994201	-0.328101	-1.100422
H106	H	0.943936	-0.322844	-1.157545
H107	H	0.768000	-0.539030	-0.606004
N108	N	0.928498	-0.808665	-0.279218
H109	H	0.962702	-0.785940	-0.245059
H110	H	0.942698	-0.785994	-0.319509
N111	N	0.976592	-1.102373	-0.231334
H112	H	0.962487	-1.169218	-0.245440
H113	H	1.023322	-1.085837	-0.239145
N114	N	0.822719	-0.603216	-0.806926
H115	H	0.813390	-0.654701	-0.843763
H116	H	0.859889	-0.611583	-0.780815
N117	N	0.801343	-1.200449	-0.406363
H118	H	0.830105	-1.223116	-0.377663
H119	H	0.755624	-1.223152	-0.397540
H120	H	0.768020	-0.538973	-0.724710
N121	N	0.234186	-0.314210	-0.256837
H122	H	0.207927	-0.277592	-0.227113
H123	H	0.256877	-0.350873	-0.232188
N124	N	0.730089	-0.765444	-0.477274
H125	H	0.744190	-0.698598	-0.463167
H126	H	0.737847	-0.781868	-0.524009
H127	H	0.627326	-0.329591	-0.269110
N128	N	0.951087	-0.314389	-0.570487
H129	H	0.980881	-0.277816	-0.596770
H130	H	0.930615	-0.272652	-0.538307
H131	H	0.938691	-0.329428	-0.984574
N132	N	0.419893	-0.449443	-0.473451
H133	H	0.388727	-0.454016	-0.509769
H134	H	0.453688	-0.394489	-0.472726
N135	N	0.884000	-0.265271	-0.766347
H136	H	0.893341	-0.213755	-0.790814
H137	H	0.846832	-0.256917	-0.738166
