data_functionalizedCrystal
_audit_creation_method	'MofGen! by Chris Wilmer'
_symmetry_space_group_name_H-M	'P1'
_symmetry_Int_Tables_number	1
_symmetry_cell_setting	triclinic
loop_
_symmetry_equiv_pos_as_xyz
  x,y,z
_cell_length_a	21.295420
_cell_length_b	21.295418
_cell_length_c	21.295411
_cell_angle_alpha	89.972970
_cell_angle_beta	89.983421
_cell_angle_gamma	90.025651
loop_
_atom_site_label
_atom_site_type_symbol
_atom_site_fract_x
_atom_site_fract_y
_atom_site_fract_z
Zn1	Zn	0.962319	-0.250666	-0.355921
Zn2	Zn	1.295652	0.082667	-0.022588
Zn3	Zn	1.628985	0.416000	0.310746
Zn4	Zn	0.962242	-0.355931	-0.250650
Zn5	Zn	1.295575	-0.022598	0.082684
Zn6	Zn	1.628908	0.310735	0.416017
Zn7	Zn	0.857057	-0.250677	-0.250666
Zn8	Zn	1.190390	0.082657	0.082668
Zn9	Zn	1.523723	0.415990	0.416001
Zn10	Zn	0.857017	-0.355898	-0.355881
Zn11	Zn	1.190350	-0.022565	-0.022548
Zn12	Zn	1.523684	0.310768	0.310786
O13	O	0.909658	-0.303293	-0.303279
O14	O	1.242992	0.030040	0.030054
O15	O	1.576325	0.363374	0.363387
O16	O	1.050398	-0.264639	-0.341966
O17	O	1.383731	0.068694	-0.008633
O18	O	1.717064	0.402027	0.324700
O19	O	0.948273	-0.341987	-0.162562
O20	O	1.281606	-0.008654	0.170771
O21	O	1.614940	0.324680	0.504104
O22	O	0.871069	-0.162586	-0.264652
O23	O	1.204402	0.170747	0.068682
O24	O	1.537735	0.504081	0.402015
O25	O	1.050341	-0.341977	-0.264624
O26	O	1.383674	-0.008644	0.068709
O27	O	1.717008	0.324690	0.402043
O28	O	0.948404	-0.162578	-0.341982
O29	O	1.281738	0.170755	-0.008649
O30	O	1.615071	0.504088	0.324684
O31	O	0.870994	-0.264657	-0.162574
O32	O	1.204327	0.068676	0.170759
O33	O	1.537661	0.402010	0.504092
O34	O	0.768962	-0.264625	-0.264613
O35	O	1.102295	0.068708	0.068720
O36	O	1.435629	0.402042	0.402054
O37	O	0.871001	-0.341921	-0.443976
O38	O	1.204334	-0.008588	-0.110642
O39	O	1.537668	0.324745	0.222691
O40	O	0.768933	-0.341931	-0.341914
O41	O	1.102266	-0.008598	-0.008581
O42	O	1.435599	0.324736	0.324753
O43	O	0.948366	-0.264608	-0.444005
O44	O	1.281699	0.068726	-0.110672
O45	O	1.615032	0.402059	0.222662
O46	O	0.948234	-0.444016	-0.264585
O47	O	1.281568	-0.110683	0.068748
O48	O	1.614901	0.222650	0.402082
O49	O	0.870926	-0.443992	-0.341898
O50	O	1.204260	-0.110659	-0.008565
O51	O	1.537593	0.222674	0.324768
C52	C	0.746107	-0.303276	-0.303261
C53	C	1.079440	0.030057	0.030072
C54	C	1.412773	0.363391	0.363405
C55	C	0.676139	-0.303284	-0.303268
C56	C	1.009472	0.030049	0.030065
C57	C	1.342805	0.363383	0.363398
C58	C	0.176682	-0.343620	-0.343491
C59	C	0.510015	-0.010287	-0.010158
C60	C	0.843349	0.323046	0.323176
C61	C	0.242425	-0.343621	-0.343484
C62	C	0.575758	-0.010287	-0.010151
C63	C	0.909091	0.323046	0.323182
C64	C	0.275299	-0.303307	-0.303299
C65	C	0.608633	0.030026	0.030034
C66	C	0.941966	0.363359	0.363368
C67	C	0.242426	-0.263002	-0.263106
C68	C	0.575759	0.070331	0.070227
C69	C	0.909093	0.403664	0.403561
C70	C	0.176685	-0.263008	-0.263109
C71	C	0.510018	0.070326	0.070224
C72	C	0.843351	0.403659	0.403557
N73	N	0.378538	-0.248191	-0.298565
N74	N	0.711871	0.085143	0.034768
N75	N	1.045204	0.418476	0.368102
N76	N	0.440989	-0.248187	-0.298565
N77	N	0.774322	0.085146	0.034768
N78	N	1.107656	0.418479	0.368101
C79	C	0.473374	-0.303290	-0.303286
C80	C	0.806707	0.030044	0.030048
C81	C	1.140041	0.363377	0.363381
N82	N	0.440948	-0.358397	-0.308018
N83	N	0.774281	-0.025064	0.025316
N84	N	1.107615	0.308270	0.358649
N85	N	0.378491	-0.358400	-0.308021
N86	N	0.711824	-0.025066	0.025313
N87	N	1.045158	0.308267	0.358646
C88	C	0.346585	-0.303297	-0.303291
C89	C	0.679918	0.030036	0.030043
C90	C	1.013251	0.363369	0.363376
C91	C	0.577525	-0.343596	-0.343466
C92	C	0.910858	-0.010262	-0.010133
C93	C	1.244191	0.323071	0.323201
C94	C	0.643269	-0.343597	-0.343455
C95	C	0.976602	-0.010264	-0.010121
C96	C	1.309935	0.323070	0.323212
C97	C	0.643269	-0.262973	-0.263080
C98	C	0.976602	0.070360	0.070253
C99	C	1.309935	0.403694	0.403587
C100	C	0.577526	-0.262977	-0.263088
C101	C	0.910860	0.070356	0.070246
C102	C	1.244193	0.403689	0.403579
C103	C	0.544658	-0.303288	-0.303284
C104	C	0.877992	0.030046	0.030049
C105	C	1.211325	0.363379	0.363383
C106	C	0.909585	-0.466845	-0.303249
C107	C	1.242918	-0.133511	0.030084
C108	C	1.576251	0.199822	0.363417
C109	C	0.909611	-0.536813	-0.303257
C110	C	1.242944	-0.203480	0.030076
C111	C	1.576277	0.129854	0.363409
C112	C	0.950064	-1.036262	-0.263124
C113	C	1.283397	-0.702929	0.070209
C114	C	1.616730	-0.369596	0.403543
C115	C	0.950040	-0.970520	-0.263109
C116	C	1.283373	-0.637187	0.070224
C117	C	1.616707	-0.303853	0.403558
C118	C	0.909747	-0.937652	-0.303323
C119	C	1.243080	-0.604319	0.030010
C120	C	1.576414	-0.270986	0.363343
C121	C	0.869464	-0.970533	-0.343544
C122	C	1.202797	-0.637199	-0.010211
C123	C	1.536130	-0.303866	0.323122
C124	C	0.869484	-1.036274	-0.343554
C125	C	1.202818	-0.702940	-0.010220
C126	C	1.536151	-0.369607	0.323113
N127	N	0.904850	-0.834402	-0.358406
N128	N	1.238184	-0.501069	-0.025073
N129	N	1.571517	-0.167736	0.308260
N130	N	0.904834	-0.771951	-0.358396
N131	N	1.238168	-0.438618	-0.025062
N132	N	1.571501	-0.105284	0.308271
C133	C	0.909681	-0.739578	-0.303297
C134	C	1.243015	-0.406244	0.030036
C135	C	1.576348	-0.072911	0.363370
N136	N	0.914557	-0.772015	-0.248208
N137	N	1.247891	-0.438682	0.085125
N138	N	1.581224	-0.105348	0.418459
N139	N	0.914577	-0.834472	-0.248219
N140	N	1.247910	-0.501139	0.085114
N141	N	1.581243	-0.167805	0.418447
C142	C	0.909720	-0.866367	-0.303318
C143	C	1.243053	-0.533034	0.030016
C144	C	1.576387	-0.199700	0.363349
C145	C	0.949933	-0.635420	-0.263059
C146	C	1.283267	-0.302086	0.070274
C147	C	1.616600	0.031247	0.403607
C148	C	0.949905	-0.569676	-0.263043
C149	C	1.283238	-0.236343	0.070290
C150	C	1.616571	0.096991	0.403623
C151	C	0.869332	-0.569690	-0.343484
C152	C	1.202665	-0.236357	-0.010151
C153	C	1.535999	0.096977	0.323182
C154	C	0.869357	-0.635432	-0.343495
C155	C	1.202690	-0.302099	-0.010161
C156	C	1.536024	0.031234	0.323172
C157	C	0.909661	-0.668293	-0.303283
C158	C	1.242994	-0.334960	0.030050
C159	C	1.576328	-0.001627	0.363384
C160	C	1.073849	-0.303311	-0.303298
C161	C	1.407182	0.030023	0.030035
C162	C	1.740515	0.363356	0.363369
C163	C	1.143817	-0.303318	-0.303306
C164	C	1.477150	0.030015	0.030028
C165	C	1.810483	0.363348	0.363361
C166	C	0.909687	-0.303260	-0.467470
C167	C	1.243021	0.030074	-0.134136
C168	C	1.576354	0.363407	0.199197
C169	C	0.909700	-0.303245	-0.537438
C170	C	1.243033	0.030088	-0.204104
C171	C	1.576366	0.363421	0.129229
C172	C	0.909749	-0.139103	-0.303323
C173	C	1.243083	0.194230	0.030010
C174	C	1.576416	0.527564	0.363343
C175	C	0.909788	-0.069135	-0.303342
C176	C	1.243122	0.264199	0.029991
C177	C	1.576455	0.597532	0.363325
C178	C	0.950009	-0.343381	-1.036890
C179	C	1.283342	-0.010047	-0.703557
C180	C	1.616676	0.323286	-0.370224
C181	C	0.949998	-0.343401	-0.971148
C182	C	1.283331	-0.010067	-0.637814
C183	C	1.616664	0.323266	-0.304481
C184	C	0.909759	-0.303147	-0.938277
C185	C	1.243093	0.030186	-0.604944
C186	C	1.576426	0.363519	-0.271611
C187	C	0.869518	-0.262882	-0.971155
C188	C	1.202851	0.070451	-0.637822
C189	C	1.536184	0.403785	-0.304488
C190	C	0.869526	-0.262867	-1.036896
C191	C	1.202859	0.070466	-0.703563
C192	C	1.536192	0.403799	-0.370230
N193	N	0.904948	-0.248068	-0.835071
N194	N	1.238281	0.085266	-0.501737
N195	N	1.571615	0.418599	-0.168404
N196	N	0.904944	-0.248083	-0.772619
N197	N	1.238277	0.085250	-0.439286
N198	N	1.571611	0.418583	-0.105952
C199	C	0.909732	-0.303190	-0.740203
C200	C	1.243065	0.030144	-0.406869
C201	C	1.576398	0.363477	-0.073536
N202	N	0.914536	-0.358281	-0.772597
N203	N	1.247869	-0.024948	-0.439264
N204	N	1.581202	0.308386	-0.105930
N205	N	0.914543	-0.358265	-0.835054
N206	N	1.247876	-0.024931	-0.501721
N207	N	1.581210	0.308402	-0.168387
C208	C	0.909746	-0.303159	-0.866992
C209	C	1.243079	0.030175	-0.533659
C210	C	1.576412	0.363508	-0.200325
C211	C	0.949955	-0.343477	-0.636047
C212	C	1.283289	-0.010144	-0.302714
C213	C	1.616622	0.323189	0.030619
C214	C	0.949939	-0.343498	-0.570304
C215	C	1.283273	-0.010165	-0.236970
C216	C	1.616606	0.323168	0.096363
C217	C	0.869463	-0.262974	-0.570312
C218	C	1.202796	0.070359	-0.236979
C219	C	1.536129	0.403693	0.096354
C220	C	0.869475	-0.262959	-0.636055
C221	C	1.202808	0.070375	-0.302721
C222	C	1.536142	0.403708	0.030612
C223	C	0.909725	-0.303209	-0.668918
C224	C	1.243058	0.030124	-0.335585
C225	C	1.576391	0.363457	-0.002252
C226	C	0.909666	-0.303281	-0.139728
C227	C	1.242999	0.030052	0.193606
C228	C	1.576332	0.363386	0.526939
C229	C	0.909775	-0.303118	-0.069760
C230	C	1.243109	0.030215	0.263573
C231	C	1.576442	0.363549	0.596907
H232	H	0.670035	-0.230151	-0.230358
H233	H	1.003368	0.103182	0.102975
H234	H	1.336701	0.436516	0.436309
Cl235	Cl	1.000596	-0.676734	-0.212505
Cl236	Cl	1.333929	-0.343400	0.120829
Cl237	Cl	1.667262	-0.010067	0.454162
H238	H	0.149925	-0.376447	-0.376220
H239	H	0.483258	-0.043113	-0.042886
H240	H	0.816592	0.290220	0.290447
Cl241	Cl	0.818808	-0.929214	-0.394098
Cl242	Cl	1.152142	-0.595881	-0.060765
Cl243	Cl	1.485475	-0.262548	0.272569
H244	H	0.982699	-0.376291	-0.543542
H245	H	1.316033	-0.042958	-0.210209
H246	H	1.649366	0.290376	0.123125
H247	H	0.982727	-0.376253	-0.662806
H248	H	1.316061	-0.042920	-0.329473
H249	H	1.649394	0.290413	0.003860
H250	H	0.269189	-0.376440	-0.376210
H251	H	0.602522	-0.043106	-0.042877
H252	H	0.935855	0.290227	0.290457
Cl253	Cl	0.283753	-0.212325	-0.212585
Cl254	Cl	0.617087	0.121008	0.120748
Cl255	Cl	0.950420	0.454342	0.454082
H256	H	0.550767	-0.230157	-0.230367
H257	H	0.884100	0.103177	0.102967
H258	H	1.217434	0.436510	0.436300
Cl259	Cl	0.135366	-0.212336	-0.212588
Cl260	Cl	0.468700	0.120997	0.120745
Cl261	Cl	0.802033	0.454330	0.454079
Cl262	Cl	0.818884	-0.212349	-0.677379
Cl263	Cl	1.152217	0.120985	-0.344046
Cl264	Cl	1.485550	0.454318	-0.010712
Cl265	Cl	0.536202	-0.394274	-0.393994
Cl266	Cl	0.869535	-0.060940	-0.060661
Cl267	Cl	1.202869	0.272393	0.272673
Cl268	Cl	0.684586	-0.394272	-0.393974
Cl269	Cl	1.017919	-0.060939	-0.060641
Cl270	Cl	1.351252	0.272395	0.272693
H271	H	0.836698	-0.230200	-0.543550
H272	H	1.170031	0.103133	-0.210216
H273	H	1.503365	0.436466	0.123117
Cl274	Cl	1.000729	-1.077570	-0.212570
Cl275	Cl	1.334063	-0.744237	0.120764
Cl276	Cl	1.667396	-0.410903	0.454097
H277	H	0.982838	-0.943750	-0.230357
H278	H	1.316171	-0.610417	0.102976
H279	H	1.649505	-0.277084	0.436309
Cl280	Cl	1.000542	-0.528350	-0.212478
Cl281	Cl	1.333875	-0.195017	0.120855
Cl282	Cl	1.667208	0.138317	0.454188
Cl283	Cl	0.818850	-1.077601	-0.394120
Cl284	Cl	1.152183	-0.744268	-0.060786
Cl285	Cl	1.485517	-0.410935	0.272547
H286	H	0.836522	-0.542930	-0.376225
H287	H	1.169856	-0.209596	-0.042892
H288	H	1.503189	0.123737	0.290442
H289	H	0.836562	-0.662197	-0.376246
H290	H	1.169895	-0.328864	-0.042913
H291	H	1.503229	0.004469	0.290420
H292	H	0.982782	-0.376158	-1.063644
H293	H	1.316115	-0.042824	-0.730310
H294	H	1.649448	0.290509	-0.396977
Cl295	Cl	1.000581	-0.394021	-0.929817
Cl296	Cl	1.333914	-0.060687	-0.596484
Cl297	Cl	1.667248	0.272646	-0.263150
H298	H	0.836754	-0.230108	-0.944388
H299	H	1.170088	0.103225	-0.611055
H300	H	1.503421	0.436559	-0.277721
Cl301	Cl	0.818938	-0.212251	-1.078221
Cl302	Cl	1.152272	0.121082	-0.744887
Cl303	Cl	1.485605	0.454416	-0.411554
