data_functionalizedCrystal
_audit_creation_method	'MofGen! by Chris Wilmer'
_symmetry_space_group_name_H-M	'P1'
_symmetry_Int_Tables_number	1
_symmetry_cell_setting	triclinic
loop_
_symmetry_equiv_pos_as_xyz
  x,y,z
_cell_length_a	16.992694
_cell_length_b	11.026607
_cell_length_c	15.455313
_cell_angle_alpha	93.255562
_cell_angle_beta	87.142206
_cell_angle_gamma	99.627120
loop_
_atom_site_label
_atom_site_type_symbol
_atom_site_fract_x
_atom_site_fract_y
_atom_site_fract_z
O1	O	1.079936	0.255850	-0.072014
O2	O	1.579936	0.755850	0.427986
O3	O	0.851247	0.252986	-0.072040
O4	O	1.351247	0.752986	0.427960
O5	O	0.946638	0.075927	-0.072026
O6	O	1.446638	0.575927	0.427974
O7	O	0.984545	0.432909	-0.072028
O8	O	1.484545	0.932909	0.427972
O9	O	0.941177	0.086007	0.072235
O10	O	1.441177	0.586007	0.572235
O11	O	0.845786	0.263067	0.072221
O12	O	1.345786	0.763067	0.572221
O13	O	1.074474	0.265931	0.072247
O14	O	1.574474	0.765931	0.572247
Cu15	Cu	0.959632	0.265419	0.085406
Cu16	Cu	1.459632	0.765419	0.585406
Cu17	Cu	0.966090	0.253498	-0.085199
Cu18	Cu	1.466090	0.753498	0.414801
O19	O	0.979084	0.442990	0.072233
O20	O	1.479084	0.942990	0.572233
C21	C	0.818785	0.254344	0.000087
C22	C	1.318785	0.754344	0.500087
C23	C	0.730190	0.243358	0.000077
C24	C	1.230190	0.743358	0.500077
C25	C	0.936914	0.035078	0.000103
C26	C	1.436914	0.535078	0.500103
C27	C	0.916067	-0.101658	0.000097
C28	C	1.416067	0.398342	0.500097
C29	C	0.694911	0.349355	0.000078
C30	C	1.194911	0.849355	0.500078
C31	C	0.611666	0.339026	0.000090
C32	C	1.111666	0.839026	0.500090
C33	C	0.563702	0.222699	0.000095
C34	C	1.063702	0.722699	0.500095
C35	C	0.598986	0.116694	0.000098
C36	C	1.098986	0.616694	0.500098
C37	C	0.682229	0.127024	0.000092
C38	C	1.182229	0.627024	0.500092
C39	C	0.314060	0.179884	0.000119
C40	C	0.814060	0.679884	0.500119
C41	C	0.230811	0.169561	0.000122
C42	C	0.730811	0.669561	0.500122
C43	C	0.243497	0.391895	0.000115
C44	C	0.743497	0.891895	0.500115
C45	C	0.326741	0.402215	0.000104
C46	C	0.826741	0.902215	0.500104
C47	C	0.362018	0.296210	0.000111
C48	C	0.862018	0.796210	0.500111
N49	N	0.478612	0.212138	0.000105
N50	N	0.978612	0.712138	0.500105
N51	N	0.447106	0.306772	0.000108
N52	N	0.947106	0.806772	0.500108
C53	C	0.973629	-0.169881	0.000103
C54	C	1.473629	0.330119	0.500103
C55	C	0.952084	-0.311205	0.000097
C56	C	1.452084	0.188795	0.500097
C57	C	1.106937	0.264572	0.000118
C58	C	1.606937	0.764572	0.500118
C59	C	1.195532	0.275558	0.000122
C60	C	1.695532	0.775558	0.500122
C61	C	0.988808	0.483838	0.000102
C62	C	1.488808	0.983838	0.500102
C63	C	1.009655	0.620574	0.000102
C64	C	1.509655	1.120574	0.500102
N65	N	0.955095	0.273804	0.205401
N66	N	1.455095	0.773804	0.705401
N67	N	0.970632	0.245104	-0.205194
N68	N	1.470632	0.745104	0.294806
C69	C	0.995642	0.198614	0.250801
C70	C	1.495642	0.698614	0.750801
C71	C	0.992220	0.204967	0.341609
C72	C	1.492220	0.704967	0.841609
C73	C	0.948255	0.286517	0.387014
C74	C	1.448255	0.786517	0.887014
C75	C	0.907702	0.361709	0.341608
C76	C	1.407702	0.861709	0.841608
C77	C	0.911120	0.355349	0.250802
C78	C	1.411120	0.855349	0.750802
C79	C	0.933497	0.313936	0.658594
C80	C	1.433497	0.813936	1.158594
C81	C	0.930084	0.320293	0.749406
C82	C	1.430084	0.820293	1.249406
C83	C	1.014601	0.163549	0.749400
C84	C	1.514601	0.663549	1.249400
C85	C	1.018019	0.157201	0.658593
C86	C	1.518019	0.657201	1.158593
C87	C	0.977463	0.232389	0.613194
C88	C	1.477463	0.732389	1.113194
N89	N	0.944758	0.293015	0.479834
N90	N	1.444758	0.793015	0.979834
N91	N	0.980956	0.225883	0.520376
N92	N	1.480956	0.725883	1.020376
H93	H	0.733959	0.444082	0.000072
H94	H	1.233959	0.944082	0.500072
O95	O	0.860285	0.449676	0.390575
O96	O	1.360285	0.949676	0.890575
H97	H	0.864727	0.441479	0.461346
H98	H	1.364727	0.941479	0.961346
O99	O	0.378465	0.527691	0.000118
O100	O	0.878465	1.027691	0.500118
H101	H	0.367742	0.574918	-0.058673
H102	H	0.867742	1.074918	0.441327
O103	O	0.720288	0.012701	0.000095
O104	O	1.220288	0.512701	0.500095
H105	H	0.703497	-0.046698	-0.058704
H106	H	1.203497	0.453302	0.441296
O107	O	0.205450	0.506227	0.000126
O108	O	0.705450	1.006227	0.500126
H109	H	0.139507	0.479508	0.000141
H110	H	0.639507	0.979508	0.500141
H111	H	1.053819	0.090797	0.621625
H112	H	1.553819	0.590797	1.121625
O113	O	1.096066	-0.318216	0.000110
O114	O	1.596066	0.181784	0.500110
H115	H	1.128294	-0.350571	-0.058692
H116	H	1.628294	0.149429	0.441308
O117	O	0.889767	0.395047	0.609638
O118	O	1.389767	0.895047	1.109638
H119	H	0.845366	0.336582	0.568283
H120	H	1.345366	0.836582	1.068283
H121	H	0.878101	0.416575	0.213838
H122	H	1.378101	0.916575	0.713838
O123	O	1.043059	0.110651	0.201829
O124	O	1.543059	0.610651	0.701829
H125	H	1.070671	0.059425	0.248658
H126	H	1.570671	0.559425	0.748658
O127	O	0.573612	0.453351	0.000090
O128	O	1.073612	0.953351	0.500090
H129	H	0.620950	0.535974	0.000075
H130	H	1.120950	1.035974	0.500075
H131	H	0.850837	-0.147876	0.000084
H132	H	1.350837	0.352124	0.500084
O133	O	1.035970	0.123894	0.390579
O134	O	1.535970	0.623894	0.890579
H135	H	1.067130	0.066139	0.343750
H136	H	1.567130	0.566139	0.843750
O137	O	1.060039	-0.108679	0.000113
O138	O	1.560039	0.391321	0.500113
H139	H	1.063401	-0.007281	0.000121
H140	H	1.563401	0.492719	0.500121
H141	H	0.886850	-0.357418	0.000084
H142	H	1.386850	0.142582	0.500084
H143	H	1.047619	0.102333	0.786372
H144	H	1.547619	0.602333	1.286372
O145	O	0.179072	0.044089	0.000136
O146	O	0.679072	0.544089	0.500136
H147	H	0.217586	-0.027889	0.000150
H148	H	0.717586	0.472111	0.500150
O149	O	0.882651	0.408239	0.798385
O150	O	1.382651	0.908239	1.298385
H151	H	0.855015	0.459442	0.751562
H152	H	1.355015	0.959442	1.251562
H153	H	0.342772	0.093566	0.000125
H154	H	0.842772	0.593566	0.500125
H155	H	0.559926	0.021978	0.000115
H156	H	1.059926	0.521978	0.500115
