data_functionalizedCrystal
_audit_creation_method	'MofGen! by Chris Wilmer'
_symmetry_space_group_name_H-M	'P1'
_symmetry_Int_Tables_number	1
_symmetry_cell_setting	triclinic
loop_
_symmetry_equiv_pos_as_xyz
  x,y,z
_cell_length_a	14.908783
_cell_length_b	12.645330
_cell_length_c	14.908308
_cell_angle_alpha	93.270006
_cell_angle_beta	89.788727
_cell_angle_gamma	93.303471
loop_
_atom_site_label
_atom_site_type_symbol
_atom_site_fract_x
_atom_site_fract_y
_atom_site_fract_z
Zn1	Zn	1.345358	-0.370780	-0.587849
Zn2	Zn	1.845358	0.129220	-0.087849
Zn3	Zn	1.353958	-0.537293	-0.437498
Zn4	Zn	1.853958	-0.037293	0.062502
Zn5	Zn	1.203671	-0.369633	-0.428821
Zn6	Zn	1.703671	0.130367	0.071179
Zn7	Zn	1.194986	-0.557593	-0.579121
Zn8	Zn	1.694986	-0.057593	-0.079121
O9	O	1.274493	-0.458825	-0.508322
O10	O	1.774493	0.041175	-0.008322
O11	O	1.472325	-0.384853	-0.575190
O12	O	1.972325	0.115147	-0.075190
O13	O	1.341256	-0.506077	-0.310524
O14	O	1.841256	-0.006077	0.189476
O15	O	1.222502	-0.221437	-0.449937
O16	O	1.722502	0.278563	0.050063
O17	O	1.478644	-0.507190	-0.464727
O18	O	1.978644	-0.007190	0.035273
O19	O	1.326598	-0.222279	-0.566775
O20	O	1.826598	0.277721	-0.066775
O21	O	1.230841	-0.382898	-0.304148
O22	O	1.730841	0.117102	0.195852
O23	O	1.076692	-0.402581	-0.441474
O24	O	1.576692	0.097419	0.058526
O25	O	1.207699	-0.541787	-0.706103
O26	O	1.707699	-0.041787	-0.206103
O27	O	1.070311	-0.540675	-0.551899
O28	O	1.570311	-0.040675	-0.051899
O29	O	1.318177	-0.404536	-0.712515
O30	O	1.818177	0.095464	-0.212515
O31	O	1.332834	-0.688334	-0.456264
O32	O	1.832834	-0.188334	0.043736
O33	O	1.216038	-0.703248	-0.560313
O34	O	1.716038	-0.203248	-0.060313
C35	C	1.040876	-0.473707	-0.494798
C36	C	1.540876	0.026293	0.005202
C37	C	0.940932	-0.480101	-0.489034
C38	C	1.440932	0.019899	0.010966
C39	C	0.746536	-0.364924	-0.593402
C40	C	1.246536	0.135076	-0.093402
C41	C	0.652630	-0.370928	-0.587989
C42	C	1.152630	0.129072	-0.087989
C43	C	0.659212	-0.498107	-0.472790
C44	C	1.159212	0.001893	0.027210
C45	C	0.753118	-0.492103	-0.478203
C46	C	1.253118	0.007897	0.021797
C47	C	0.796777	-0.425510	-0.538512
C48	C	1.296777	0.074490	-0.038512
C49	C	0.890685	-0.419513	-0.543929
C50	C	1.390685	0.080487	-0.043929
C51	C	0.897265	-0.546684	-0.428727
C52	C	1.397265	-0.046684	0.071273
C53	C	0.803359	-0.552689	-0.423314
C54	C	1.303359	-0.052689	0.076686
C55	C	1.274450	-0.734256	-0.508304
C56	C	1.774450	-0.234256	-0.008304
C57	C	1.274512	-0.852084	-0.508331
C58	C	1.774512	-0.352084	-0.008331
C59	C	1.348065	-0.887538	-0.442938
C60	C	1.848065	-0.387538	0.057062
C61	C	1.347919	-1.010091	-0.442681
C62	C	1.847919	-0.510091	0.057319
C63	C	1.181226	-1.024310	-0.477394
C64	C	1.681226	-0.524310	0.022606
C65	C	1.181613	-0.901651	-0.476886
C66	C	1.681613	-0.401651	0.023114
C67	C	1.293499	-0.902421	-0.604845
C68	C	1.793499	-0.402421	-0.104845
C69	C	1.295663	-1.024855	-0.604487
C70	C	1.795663	-0.524855	-0.104487
C71	C	1.509022	-0.443885	-0.521900
C72	C	2.009022	0.056115	-0.021900
C73	C	1.608965	-0.437518	-0.527686
C74	C	2.108965	0.062482	-0.027686
C75	C	1.261010	-0.475554	-0.742846
C76	C	1.761010	0.024446	-0.242846
C77	C	1.255264	-0.482683	-0.842786
C78	C	1.755264	0.017317	-0.342786
C79	C	1.274560	-0.182317	-0.508362
C80	C	1.774560	0.317683	-0.008362
C81	C	1.274588	-0.064487	-0.508379
C82	C	1.774588	0.435513	-0.008379
C83	C	1.359505	-0.353136	-1.037263
C84	C	1.859505	0.146864	-0.537263
C85	C	1.354109	-0.359831	-1.131165
C86	C	1.854109	0.140169	-0.631165
C87	C	1.239072	-0.502761	-1.124495
C88	C	1.739072	-0.002761	-0.624495
C89	C	1.244468	-0.496066	-1.030593
C90	C	1.744468	0.003934	-0.530593
C91	C	1.304687	-0.421253	-0.986980
C92	C	1.804687	0.078747	-0.486980
C93	C	1.310087	-0.414564	-0.893076
C94	C	1.810087	0.085436	-0.393076
C95	C	1.195047	-0.557488	-0.886407
C96	C	1.695047	-0.057488	-0.386407
C97	C	1.189651	-0.564183	-0.980310
C98	C	1.689651	-0.064183	-0.480310
C99	C	1.287976	-0.442080	-0.274714
C100	C	1.787976	0.057920	0.225286
C101	C	1.293896	-0.434642	-0.174785
C102	C	1.793896	0.065358	0.325215
H103	H	1.417313	-1.036762	-0.462675
H104	H	1.917313	-0.536762	0.037325
N105	N	0.793636	-0.293124	-0.658456
N106	N	1.293636	0.206876	-0.158456
H107	H	0.778103	-0.217405	-0.643669
H108	H	1.278103	0.282595	-0.143669
H109	H	0.860732	-0.298613	-0.653522
H110	H	1.360732	0.201387	-0.153522
N111	N	0.598440	-0.305573	-0.647183
N112	N	1.098440	0.194427	-0.147183
H113	H	0.640351	-0.262476	-0.686205
H114	H	1.140351	0.237524	-0.186205
H115	H	0.557092	-0.354246	-0.686490
H116	H	1.057092	0.145754	-0.186490
N117	N	1.159512	-0.859021	-0.383227
N118	N	1.659512	-0.359021	0.116773
H119	H	1.159546	-0.779076	-0.381959
H120	H	1.659546	-0.279076	0.118041
H121	H	1.098209	-0.888997	-0.365328
H122	H	1.598209	-0.388997	0.134672
H123	H	1.359122	-0.353648	-0.857568
H124	H	1.859122	0.146352	-0.357568
H125	H	1.164146	-1.051510	-0.407444
H126	H	1.664146	-0.551510	0.092556
H127	H	0.623650	-0.552310	-0.423680
H128	H	1.123650	-0.052310	0.076320
H129	H	1.360109	-0.868753	-0.632014
H130	H	1.860109	-0.368753	-0.132014
N131	N	1.331831	-1.043745	-0.348128
N132	N	1.831831	-0.543745	0.151872
H133	H	1.384566	-1.083154	-0.328039
H134	H	1.884566	-0.583154	0.171961
H135	H	1.324781	-0.978887	-0.306512
H136	H	1.824781	-0.478887	0.193488
N137	N	1.174090	-0.583406	-1.171540
N138	N	1.674090	-0.083406	-0.671540
H139	H	1.178980	-0.577293	-1.238656
H140	H	1.678980	-0.077293	-0.738656
H141	H	1.188980	-0.657074	-1.155950
H142	H	1.688980	-0.157074	-0.655950
H143	H	0.767800	-0.606902	-0.374209
H144	H	1.267800	-0.106902	0.125791
H145	H	0.926230	-0.365291	-0.593037
H146	H	1.426230	0.134709	-0.093037
N147	N	1.332197	-0.841526	-0.348906
N148	N	1.832197	-0.341526	0.151094
H149	H	1.270916	-0.867543	-0.327489
H150	H	1.770916	-0.367543	0.172511
H151	H	1.379780	-0.864691	-0.307390
H152	H	1.879780	-0.364691	0.192610
H153	H	0.938181	-0.596027	-0.384038
H154	H	1.438181	-0.096027	0.115962
H155	H	1.398745	-0.304360	-1.172102
H156	H	1.898745	0.195640	-0.672102
N157	N	1.106930	-0.871451	-0.536855
N158	N	1.606930	-0.371451	-0.036855
H159	H	1.073899	-0.937803	-0.563500
H160	H	1.573899	-0.437803	-0.063500
H161	H	1.063775	-0.827685	-0.500382
H162	H	1.563775	-0.327685	-0.000382
H163	H	1.417667	-0.854623	-0.462755
H164	H	1.917667	-0.354623	0.037245
H165	H	1.125189	-1.060354	-0.523334
H166	H	1.625189	-0.560354	-0.023334
H167	H	1.140620	-0.625092	-1.015832
H168	H	1.640620	-0.125092	-0.515832
N169	N	1.135923	-0.630970	-0.832175
N170	N	1.635923	-0.130970	-0.332175
H171	H	1.148479	-0.615382	-0.766069
H172	H	1.648479	-0.115382	-0.266069
H173	H	1.070764	-0.619740	-0.844870
H174	H	1.570764	-0.119740	-0.344870
H175	H	1.364343	-1.050791	-0.627755
H176	H	1.864343	-0.550791	-0.127755
H177	H	1.245602	-1.062364	-0.656257
H178	H	1.745602	-0.562364	-0.156257
N179	N	1.222459	-0.873180	-0.669476
N180	N	1.722459	-0.373180	-0.169476
H181	H	1.178184	-0.827555	-0.636449
H182	H	1.678184	-0.327555	-0.136449
H183	H	1.251827	-0.832591	-0.719209
H184	H	1.751827	-0.332591	-0.219209
H185	H	1.408542	-0.292225	-1.001753
H186	H	1.908542	0.207775	-0.501753
