data_functionalizedCrystal
_audit_creation_method	'MofGen! by Chris Wilmer'
_symmetry_space_group_name_H-M	'P1'
_symmetry_Int_Tables_number	1
_symmetry_cell_setting	triclinic
loop_
_symmetry_equiv_pos_as_xyz
  x,y,z
_cell_length_a	19.805405
_cell_length_b	19.077105
_cell_length_c	19.805399
_cell_angle_alpha	87.684312
_cell_angle_beta	89.970699
_cell_angle_gamma	87.722641
loop_
_atom_site_label
_atom_site_type_symbol
_atom_site_fract_x
_atom_site_fract_y
_atom_site_fract_z
Zn1	Zn	-0.311118	1.075967	-0.424213
Zn2	Zn	-0.424303	1.075878	-0.311018
Zn3	Zn	-0.306582	0.958271	-0.306498
Zn4	Zn	-0.419714	0.958233	-0.419627
O5	O	-0.365429	1.017087	-0.365339
O6	O	-0.329951	1.174446	-0.413008
O7	O	-0.408709	1.060256	-0.215701
O8	O	-0.212469	0.973937	-0.322141
O9	O	-0.413107	1.174381	-0.329844
O10	O	-0.215802	1.060407	-0.408625
O11	O	-0.322220	0.973851	-0.212380
O12	O	-0.317770	0.859775	-0.317694
O13	O	-0.405287	0.973872	-0.514953
O14	O	-0.400888	0.859748	-0.400809
O15	O	-0.325501	1.060370	-0.518322
O16	O	-0.518409	1.060219	-0.325397
O17	O	-0.515037	0.973786	-0.405192
C18	C	-0.358340	0.834224	-0.358264
C19	C	-0.355323	0.755994	-0.355253
C20	C	-0.397246	0.719246	-0.397044
C21	C	-0.394403	0.645740	-0.394219
C22	C	-0.349639	0.608985	-0.349598
C23	C	-0.307712	0.645739	-0.307805
C24	C	-0.310552	0.719243	-0.310634
C25	C	-0.336493	0.389152	-0.336506
C26	C	-0.333657	0.315643	-0.333678
C27	C	-0.420348	0.315650	-0.420093
C28	C	-0.423187	0.389155	-0.422915
C29	C	-0.381257	0.425902	-0.381125
N30	N	-0.346733	0.533851	-0.346707
N31	N	-0.384160	0.501035	-0.384020
C32	C	-0.541282	1.017008	-0.365303
C33	C	-0.616515	1.017039	-0.365313
C34	C	-0.653594	1.062088	-0.323811
C35	C	-0.724284	1.062118	-0.323827
C36	C	-0.757893	1.017094	-0.365342
C37	C	-0.720809	0.972043	-0.406849
C38	C	-0.650121	0.972017	-0.406836
C39	C	-1.005887	0.972147	-0.406903
C40	C	-1.076580	0.972174	-0.406911
C41	C	-1.080049	1.062248	-0.323894
C42	C	-1.009361	1.062222	-0.323881
C43	C	-0.972283	1.017173	-0.365390
C44	C	-0.895634	1.017142	-0.365373
C45	C	-0.834541	1.017121	-0.365356
C46	C	-0.188890	1.017186	-0.365390
C47	C	-0.113660	1.017228	-0.365412
C48	C	-0.365388	1.017127	-0.541883
C49	C	-0.365371	1.017144	-0.617116
C50	C	-0.372547	1.200665	-0.372442
C51	C	-0.375580	1.278894	-0.375469
C52	C	-0.323824	1.062184	-0.654216
C53	C	-0.323805	1.062191	-0.724904
C54	C	-0.365336	1.017161	-0.758492
C55	C	-0.406884	0.972115	-0.721387
C56	C	-0.406899	0.972105	-0.650700
C57	C	-0.406822	0.972155	-1.006462
C58	C	-0.406805	0.972170	-1.077155
C59	C	-0.323728	1.062241	-1.080667
C60	C	-0.323743	1.062231	-1.009979
C61	C	-0.365289	1.017183	-0.972881
C62	C	-0.365308	1.017175	-0.896232
C63	C	-0.365320	1.017172	-0.835140
C64	C	-0.365423	1.017088	-0.189483
C65	C	-0.365255	1.017208	-0.114256
H66	H	-0.271261	0.615807	-0.271477
C67	C	-1.113549	0.922652	-0.452586
H68	H	-1.081344	0.895824	-0.477311
H69	H	-1.139980	0.892010	-0.425493
H70	H	-1.142124	0.949578	-0.483142
H71	H	-0.454484	0.285722	-0.454117
H72	H	-0.276410	0.749163	-0.276607
H73	H	-0.289898	1.098919	-1.110881
H74	H	-0.626234	1.098748	-0.290001
C75	C	-0.765068	1.111669	-0.278171
H76	H	-0.734927	1.138472	-0.253438
H77	H	-0.793787	1.142332	-0.305274
H78	H	-0.791642	1.084767	-0.247622
H79	H	-0.440626	0.935498	-1.104500
C80	C	-0.972394	1.111750	-0.278217
H81	H	-1.004602	1.138590	-0.253506
H82	H	-0.943817	1.084838	-0.247659
H83	H	-0.945966	1.142391	-0.305321
H84	H	-0.975703	0.935465	-0.440700
C85	C	-0.452568	0.922584	-0.758332
H86	H	-0.446614	0.929045	-0.805745
H87	H	-0.440833	0.875298	-0.744919
H88	H	-0.498448	0.932862	-0.747131
C89	C	-0.290384	0.429565	-0.290526
H90	H	-0.263326	0.397145	-0.263540
H91	H	-0.262031	0.458266	-0.317567
H92	H	-0.317353	0.458211	-0.262090
C93	C	-0.757778	0.922516	-0.452513
H94	H	-0.805187	0.928977	-0.446572
H95	H	-0.746553	0.932782	-0.498394
H96	H	-0.744404	0.875227	-0.440732
H97	H	-0.440723	0.935421	-0.620494
C98	C	-1.120836	1.111806	-0.278239
H99	H	-1.167750	1.105380	-0.284195
H100	H	-1.108893	1.101526	-0.232355
H101	H	-1.111036	1.159087	-0.290011
H102	H	-0.297198	0.285719	-0.297346
C103	C	-0.609334	0.922464	-0.452489
H104	H	-0.639474	0.895649	-0.477213
H105	H	-0.582761	0.949362	-0.483036
H106	H	-0.580613	0.891800	-0.425381
H107	H	-0.433700	0.749166	-0.433377
H108	H	-0.290007	1.098855	-0.626874
C109	C	-0.278108	1.111740	-0.765711
H110	H	-0.253383	1.138563	-0.735584
H111	H	-0.247564	1.084841	-0.792252
H112	H	-0.305188	1.142396	-0.794467
C113	C	-0.278057	1.111762	-0.973036
H114	H	-0.253305	1.138583	-1.005256
H115	H	-0.305140	1.142410	-0.946639
H116	H	-0.247527	1.084843	-0.944429
C117	C	-0.452524	0.922611	-0.965660
H118	H	-0.446583	0.929046	-0.918750
H119	H	-0.498396	0.932888	-0.977630
H120	H	-0.440778	0.875327	-0.975417
C121	C	-0.440559	0.605320	-0.440148
H122	H	-0.467643	0.637737	-0.467109
H123	H	-0.413638	0.576649	-0.468598
H124	H	-0.468896	0.576644	-0.413056
H125	H	-0.459640	0.419076	-0.459249
