data_functionalizedCrystal
_audit_creation_method	'MofGen! by Chris Wilmer'
_symmetry_space_group_name_H-M	'P1'
_symmetry_Int_Tables_number	1
_symmetry_cell_setting	triclinic
loop_
_symmetry_equiv_pos_as_xyz
  x,y,z
_cell_length_a	21.295419
_cell_length_b	21.295412
_cell_length_c	21.295417
_cell_angle_alpha	89.969332
_cell_angle_beta	90.045308
_cell_angle_gamma	89.976510
loop_
_atom_site_label
_atom_site_type_symbol
_atom_site_fract_x
_atom_site_fract_y
_atom_site_fract_z
Zn1	Zn	0.962349	-0.355911	-0.250376
Zn2	Zn	0.962253	-0.250637	-0.355645
Zn3	Zn	0.857074	-0.250656	-0.250421
Zn4	Zn	0.857042	-0.355868	-0.355639
O5	O	0.909680	-0.303268	-0.303020
O6	O	1.050426	-0.341956	-0.264324
O7	O	0.948275	-0.162550	-0.341708
O8	O	0.871093	-0.264645	-0.162325
O9	O	1.050355	-0.264611	-0.341665
O10	O	0.948438	-0.341975	-0.162293
O11	O	0.871000	-0.162564	-0.264400
O12	O	0.768980	-0.264603	-0.264394
O13	O	0.871037	-0.443963	-0.341654
O14	O	0.768957	-0.341902	-0.341697
O15	O	0.948406	-0.443995	-0.264319
O16	O	0.948243	-0.264570	-0.443733
O17	O	0.870945	-0.341883	-0.443729
C18	C	0.746128	-0.303250	-0.303050
C19	C	0.676160	-0.303258	-0.303078
C20	C	0.643352	-0.343593	-0.262873
C21	C	0.577610	-0.343596	-0.262856
C22	C	0.544677	-0.303269	-0.303056
C23	C	0.577493	-0.262926	-0.343264
C24	C	0.643234	-0.262920	-0.343275
N25	N	0.441402	-0.298349	-0.358134
N26	N	0.378951	-0.298359	-0.358121
C27	C	0.346603	-0.303283	-0.303023
N28	N	0.379065	-0.308210	-0.247937
N29	N	0.441523	-0.308205	-0.247950
C30	C	0.473392	-0.303271	-0.303048
C31	C	0.242510	-0.343624	-0.262796
C32	C	0.176766	-0.343622	-0.262778
C33	C	0.176650	-0.262955	-0.343192
C34	C	0.242393	-0.262953	-0.343204
C35	C	0.275318	-0.303291	-0.303007
C36	C	0.909729	-0.467458	-0.302981
C37	C	0.909750	-0.537427	-0.302964
C38	C	0.869524	-0.570291	-0.262706
C39	C	0.869521	-0.636033	-0.262694
C40	C	0.909757	-0.668909	-0.302934
C41	C	0.949986	-0.636037	-0.343201
C42	C	0.949982	-0.570296	-0.343216
N43	N	0.964861	-0.772147	-0.307728
N44	N	0.964862	-0.834599	-0.307710
C45	C	0.909768	-0.866984	-0.302892
N46	N	0.854671	-0.834558	-0.298081
N47	N	0.854671	-0.772101	-0.298096
C48	C	0.909764	-0.740194	-0.302923
C49	C	0.869536	-0.971134	-0.262619
C50	C	0.869533	-1.036878	-0.262611
C51	C	0.950003	-1.036880	-0.343115
C52	C	0.950000	-0.971137	-0.343126
C53	C	0.909768	-0.938268	-0.302874
C54	C	1.073870	-0.303286	-0.302990
C55	C	1.143838	-0.303294	-0.302977
C56	C	0.909597	-0.303233	-0.466572
C57	C	0.909619	-0.303239	-0.536540
C58	C	0.909667	-0.139716	-0.303014
C59	C	0.909768	-0.069749	-0.302853
C60	C	0.949904	-0.263024	-0.569388
C61	C	0.949934	-0.263038	-0.635130
C62	C	0.909667	-0.303261	-0.668022
C63	C	0.869379	-0.343485	-0.635166
C64	C	0.869355	-0.343474	-0.569425
N65	N	0.854600	-0.308054	-0.771302
N66	N	0.854624	-0.308061	-0.833754
C67	C	0.909738	-0.303297	-0.866097
N68	N	0.964827	-0.298514	-0.833629
N69	N	0.964801	-0.298505	-0.771172
C70	C	0.909689	-0.303278	-0.739308
C71	C	0.950058	-0.263095	-0.970230
C72	C	0.950089	-0.263113	-1.035974
C73	C	0.869528	-0.343557	-1.036009
C74	C	0.869503	-0.343541	-0.970267
C75	C	0.909767	-0.303307	-0.937381
C76	C	0.909780	-0.303317	-0.138830
C77	C	0.909822	-0.303338	-0.068862
H78	H	0.669946	-0.230073	-0.376016
H79	H	0.982759	-0.944379	-0.375907
H80	H	0.982745	-0.662809	-0.375965
C81	C	0.278730	-0.387987	-0.218578
H82	H	0.249773	-0.412004	-0.194623
H83	H	0.304365	-0.415369	-0.242698
H84	H	0.304392	-0.363952	-0.191122
H85	H	0.269105	-0.230110	-0.375946
C86	C	0.825039	-0.387710	-0.533288
H87	H	0.830794	-0.381944	-0.489425
H88	H	0.782752	-0.378463	-0.544118
H89	H	0.834240	-0.430018	-0.544019
C90	C	0.825267	-0.534138	-0.218434
H91	H	0.801306	-0.563131	-0.194458
H92	H	0.849363	-0.508509	-0.191009
H93	H	0.797818	-0.508477	-0.242526
C94	C	0.140677	-0.387993	-0.218550
H95	H	0.169705	-0.412018	-0.194618
H96	H	0.115047	-0.363969	-0.191083
H97	H	0.115021	-0.415378	-0.242668
H98	H	0.982742	-0.543538	-0.375999
H99	H	0.982691	-0.230264	-0.542615
C100	C	0.825277	-0.672195	-0.218404
H101	H	0.831040	-0.716055	-0.224163
H102	H	0.834520	-0.661436	-0.176111
H103	H	0.782970	-0.661407	-0.227624
C104	C	0.140433	-0.218599	-0.387413
H105	H	0.096580	-0.224382	-0.381652
H106	H	0.151194	-0.176319	-0.378152
H107	H	0.151171	-0.227741	-0.429724
C108	C	0.825269	-0.934975	-0.218360
H109	H	0.801301	-0.963966	-0.194390
H110	H	0.849355	-0.909343	-0.190929
H111	H	0.797827	-0.909316	-0.242463
C112	C	0.994396	-0.218867	-1.072110
H113	H	0.988648	-0.224638	-1.115974
H114	H	0.985190	-0.176565	-1.061375
H115	H	1.036688	-0.228109	-1.061283
C116	C	0.541511	-0.387968	-0.218632
H117	H	0.497642	-0.382190	-0.224381
H118	H	0.552296	-0.430244	-0.227905
H119	H	0.552318	-0.378833	-0.176323
H120	H	0.836595	-0.376236	-0.661951
H121	H	0.836771	-1.063635	-0.229830
C122	C	0.994262	-1.073035	-0.387378
H123	H	0.988506	-1.116896	-0.381601
H124	H	0.985025	-1.062244	-0.429677
H125	H	1.036564	-1.062279	-0.378154
C126	C	0.994352	-0.218846	-0.934054
H127	H	1.018357	-0.194903	-0.963036
H128	H	0.970279	-0.191390	-0.908456
H129	H	1.021759	-0.242952	-0.908360
C130	C	0.825236	-0.387805	-1.072179
H131	H	0.801241	-0.411757	-1.043197
H132	H	0.797830	-0.363707	-1.097876
H133	H	0.849317	-0.415262	-1.097775
H134	H	0.836697	-0.376286	-0.943520
H135	H	0.670156	-0.376439	-0.230141
C136	C	0.541270	-0.218570	-0.387485
H137	H	0.497418	-0.224355	-0.381725
H138	H	0.552029	-0.176291	-0.378220
H139	H	0.552010	-0.227709	-0.429795
C140	C	0.994244	-0.218794	-0.671271
H141	H	1.018217	-0.194828	-0.642270
H142	H	1.021670	-0.242898	-0.696872
H143	H	0.970176	-0.191350	-0.696960
