data_functionalizedCrystal
_audit_creation_method	'MofGen! by Chris Wilmer'
_symmetry_space_group_name_H-M	'P1'
_symmetry_Int_Tables_number	1
_symmetry_cell_setting	triclinic
loop_
_symmetry_equiv_pos_as_xyz
  x,y,z
_cell_length_a	17.699077
_cell_length_b	17.699083
_cell_length_c	9.730223
_cell_angle_alpha	89.997786
_cell_angle_beta	90.000360
_cell_angle_gamma	83.281795
loop_
_atom_site_label
_atom_site_type_symbol
_atom_site_fract_x
_atom_site_fract_y
_atom_site_fract_z
O1	O	1.004074	0.095686	-0.114274
O2	O	0.783695	0.108144	-0.114281
O3	O	0.900111	-0.008274	-0.114266
O4	O	0.887659	0.212104	-0.114290
O5	O	0.900110	-0.008271	0.114314
O6	O	0.783694	0.108147	0.114298
O7	O	1.004073	0.095689	0.114306
Zn8	Zn	0.893883	0.101918	0.150594
Zn9	Zn	0.893885	0.101915	-0.150570
O10	O	0.887657	0.212107	0.114290
C11	C	0.755498	0.107700	0.000008
C12	C	0.671479	0.106363	0.000005
C13	C	0.899664	-0.036470	0.000025
C14	C	0.898326	-0.120488	0.000025
C15	C	0.632011	0.105734	0.124606
C16	C	0.553069	0.104466	0.124607
C17	C	0.513595	0.103832	0.000007
C18	C	0.553069	0.104458	-0.124603
C19	C	0.632011	0.105721	-0.124603
C20	C	0.234706	0.099365	-0.124605
C21	C	0.155758	0.098104	-0.124595
C22	C	0.155763	0.098110	0.124606
C23	C	0.234705	0.099373	0.124605
C24	C	0.274173	0.099995	-0.000004
C25	C	0.359772	0.101369	-0.000004
C26	C	0.427997	0.102464	0.000006
C27	C	0.966659	-0.169110	0.000029
C28	C	0.965397	-0.248054	0.000017
C29	C	0.895800	-0.278373	0.000011
C30	C	0.827461	-0.229744	0.000002
C31	C	0.828724	-0.150803	0.000005
C32	C	0.822366	-0.548107	-0.000009
C33	C	0.821108	-0.627055	-0.000007
C34	C	0.959039	-0.645358	0.000003
C35	C	0.960302	-0.566417	0.000006
C36	C	0.891963	-0.517795	-0.000010
C37	C	0.893333	-0.432196	0.000001
C38	C	0.894430	-0.363971	0.000010
C39	C	1.032271	0.096133	0.000013
C40	C	1.116289	0.097470	0.000007
C41	C	0.888104	0.240303	-0.000003
C42	C	0.889443	0.324321	-0.000013
N43	N	0.893888	0.101921	0.356130
N44	N	0.893887	0.101906	-0.356106
C45	C	0.945449	0.050388	0.428063
C46	C	0.945448	0.050379	0.571946
C47	C	0.842319	0.153441	0.571951
C48	C	0.842318	0.153446	0.428070
C49	C	1.004992	-0.009112	0.428062
C50	C	1.004990	-0.009121	0.571945
H51	H	0.664144	0.106257	0.226070
N52	N	0.277285	0.100052	0.258990
H53	H	0.303813	0.147475	0.264540
H54	H	0.240262	0.099429	0.337853
H55	H	1.016974	-0.541735	0.000018
N56	N	0.510497	0.103786	0.258995
H57	H	0.547548	0.103846	0.337928
H58	H	0.471881	0.150435	0.264833
H59	H	0.123620	0.097600	0.226069
N60	N	1.039099	-0.300497	0.000038
H61	H	1.041658	-0.333654	-0.084699
H62	H	1.083336	-0.269257	0.000105
H63	H	0.123621	0.097587	-0.226066
N64	N	1.081854	0.007243	0.623682
H65	H	1.092795	0.058664	0.589124
H66	H	1.081832	0.007199	0.727478
N67	N	0.748661	-0.495673	-0.000022
H68	H	0.746106	-0.462510	0.084706
H69	H	0.746158	-0.462564	-0.084819
N70	N	0.277269	0.100030	-0.258998
H71	H	0.240282	0.099437	-0.337927
H72	H	0.303802	0.147451	-0.264445
N73	N	0.988687	-0.085993	0.376329
H74	H	0.940920	-0.079839	0.318645
H75	H	1.032852	-0.109303	0.318720
H76	H	1.014683	-0.684956	0.000009
N77	N	0.510499	0.103764	-0.258997
H78	H	0.454500	0.102870	-0.240092
H79	H	0.518073	0.150884	-0.313420
H80	H	0.764431	-0.651737	-0.000010
H81	H	0.800326	0.195402	0.369504
N82	N	0.786704	0.209019	0.649540
H83	H	0.733008	0.200367	0.624495
H84	H	0.794591	0.201168	0.751579
N85	N	0.674585	0.106393	-0.258993
H86	H	0.637601	0.105799	-0.337928
H87	H	0.701116	0.153816	-0.264432
H88	H	1.023333	-0.144431	0.000043
H89	H	1.059754	0.008742	0.383436
N90	N	0.981424	-0.081695	0.631068
H91	H	0.970036	-0.116755	0.553809
H92	H	1.024046	-0.107473	0.689508
N93	N	0.752395	-0.262441	-0.000014
H94	H	0.761962	-0.319829	-0.000010
H95	H	0.722498	-0.244645	0.084722
N96	N	0.755022	-0.098356	-0.000008
H97	H	0.710741	-0.129540	-0.000011
H98	H	0.752539	-0.065204	0.084727
