data_functionalizedCrystal
_audit_creation_method	'MofGen! by Chris Wilmer'
_symmetry_space_group_name_H-M	'P1'
_symmetry_Int_Tables_number	1
_symmetry_cell_setting	triclinic
loop_
_symmetry_equiv_pos_as_xyz
  x,y,z
_cell_length_a	15.500227
_cell_length_b	17.038272
_cell_length_c	17.038272
_cell_angle_alpha	91.111556
_cell_angle_beta	93.033254
_cell_angle_gamma	86.956295
loop_
_atom_site_label
_atom_site_type_symbol
_atom_site_fract_x
_atom_site_fract_y
_atom_site_fract_z
O1	O	0.071836	-1.052160	-0.167139
O2	O	0.571836	-0.552160	0.332861
O3	O	0.071862	-0.824350	-0.164430
O4	O	0.571862	-0.324350	0.335570
O5	O	0.071842	-0.936901	-0.051879
O6	O	0.571842	-0.436901	0.448121
O7	O	0.071856	-0.939609	-0.279690
O8	O	0.571856	-0.439609	0.220310
O9	O	-0.072045	-0.930069	-0.058680
O10	O	0.427955	-0.430069	0.441320
O11	O	-0.072026	-0.817518	-0.171231
O12	O	0.427974	-0.317518	0.328769
O13	O	-0.072051	-1.045328	-0.173940
O14	O	0.427949	-0.545328	0.326060
Cu15	Cu	-0.085177	-0.930799	-0.173207
Cu16	Cu	0.414823	-0.430799	0.326793
Cu17	Cu	0.084987	-0.938879	-0.165164
Cu18	Cu	0.584987	-0.438879	0.334836
O19	O	-0.072032	-0.932777	-0.286491
O20	O	0.427968	-0.432777	0.213509
C21	C	-0.000079	-0.791641	-0.165368
C22	C	0.499921	-0.291641	0.334632
C23	C	-0.000069	-0.704358	-0.158019
C24	C	0.499931	-0.204358	0.341981
C25	C	-0.000101	-0.931022	-0.025987
C26	C	0.499899	-0.431022	0.474013
C27	C	-0.000100	-0.923674	0.061297
C28	C	0.499900	-0.423674	0.561297
N29	N	-0.204861	-0.925122	-0.178864
N30	N	0.295139	-0.425122	0.321136
C31	C	-0.250145	-0.972833	-0.131192
C32	C	0.249855	-0.472833	0.368808
C33	C	-0.340718	-0.968547	-0.135478
C34	C	0.159282	-0.468547	0.364522
C35	C	-0.386003	-0.916555	-0.187440
C36	C	0.113997	-0.416555	0.312560
C37	C	-0.340712	-0.868839	-0.235114
C38	C	0.159288	-0.368839	0.264886
C39	C	-0.250142	-0.873121	-0.230823
C40	C	0.249858	-0.373121	0.269177
C41	C	-0.659467	-0.901128	-0.202884
C42	C	-0.159467	-0.401128	0.297116
C43	C	-0.750044	-0.896851	-0.207172
C44	C	-0.250044	-0.396851	0.292828
C45	C	-0.750044	-0.996559	-0.107535
C46	C	-0.250044	-0.496559	0.392465
C47	C	-0.659471	-1.000840	-0.103252
C48	C	-0.159471	-0.500840	0.396748
C49	C	-0.614188	-0.953121	-0.150923
C50	C	-0.114188	-0.453121	0.349077
C51	C	-0.478582	-0.912174	-0.191824
C52	C	0.021418	-0.412174	0.308176
C53	C	-0.521610	-0.957498	-0.146534
C54	C	-0.021610	-0.457498	0.353466
N55	N	0.204671	-0.944561	-0.159501
N56	N	0.704671	-0.444561	0.340499
C57	C	-0.000109	-1.078037	-0.173003
C58	C	0.499891	-0.578037	0.326997
C59	C	-0.000113	-1.165320	-0.180351
C60	C	0.499887	-0.665320	0.319649
C61	C	-0.000066	-0.658749	-0.225482
C62	C	0.499934	-0.158749	0.274518
C63	C	-0.000078	-0.576737	-0.218574
C64	C	0.499922	-0.076737	0.281426
C65	C	-0.000088	-0.540335	-0.144201
C66	C	0.499912	-0.040335	0.355799
C67	C	-0.000094	-0.585950	-0.076733
C68	C	0.499906	-0.085950	0.423267
C69	C	-0.000088	-0.667961	-0.083642
C70	C	0.499912	-0.167961	0.416358
C71	C	-0.000112	-0.292946	-0.119792
C72	C	0.499888	0.207054	0.380208
C73	C	-0.000116	-0.210929	-0.112887
C74	C	0.499884	0.289071	0.387113
C75	C	-0.000102	-0.201721	-0.254729
C76	C	0.499898	0.298279	0.245271
C77	C	-0.000091	-0.283734	-0.261632
C78	C	0.499909	0.216266	0.238368
C79	C	-0.000101	-0.329342	-0.194164
C80	C	0.499899	0.170658	0.305836
C81	C	-0.000098	-0.456505	-0.137138
C82	C	0.499902	0.043495	0.362862
C83	C	-0.000098	-0.413170	-0.201228
C84	C	0.499902	0.086830	0.298772
C85	C	-0.000087	-0.938656	-0.312383
C86	C	0.499913	-0.438656	0.187617
C87	C	-0.000082	-0.946004	-0.399667
C88	C	0.499918	-0.446004	0.100333
C89	C	-0.000108	-0.991137	0.106906
C90	C	0.499892	-0.491137	0.606906
C91	C	-0.000100	-0.984229	0.188918
C92	C	0.499900	-0.484229	0.688918
C93	C	-0.000088	-0.909856	0.225320
C94	C	0.499912	-0.409856	0.725320
C95	C	-0.000077	-0.842388	0.179705
C96	C	0.499923	-0.342388	0.679705
C97	C	-0.000080	-0.849297	0.097694
C98	C	0.499920	-0.349297	0.597694
C99	C	-0.000074	-0.885446	0.472708
C100	C	0.499926	-0.385446	0.972708
C101	C	-0.000074	-0.878541	0.554725
C102	C	0.499926	-0.378541	1.054725
C103	C	-0.000094	-1.020383	0.563932
C104	C	0.499906	-0.520383	1.063932
C105	C	-0.000102	-1.027286	0.481919
C106	C	0.499898	-0.527286	0.981919
C107	C	-0.000087	-0.959818	0.436312
C108	C	0.499913	-0.459818	0.936312
C109	C	-0.000082	-0.902792	0.309149
C110	C	0.499918	-0.402792	0.809149
C111	C	-0.000087	-0.966882	0.352484
C112	C	0.499913	-0.466882	0.852484
H113	H	-0.377588	-1.007397	-0.096659
H114	H	0.122412	-0.507397	0.403341
H115	H	-0.000075	-0.539605	-0.273510
H116	H	0.499925	-0.039605	0.226490
H117	H	-0.000096	-0.164579	-0.309658
H118	H	0.499904	0.335421	0.190342
C119	C	-0.222328	-1.011204	0.002993
C120	C	0.277672	-0.511204	0.502993
C121	C	-0.200393	-1.029982	-0.074054
C122	C	0.299607	-0.529982	0.425946
H123	H	-0.191617	-1.046482	0.038274
H124	H	0.308383	-0.546482	0.538274
H125	H	-0.282747	-1.015472	0.007236
H126	H	0.217253	-0.515472	0.507236
H127	H	-0.207481	-0.958926	0.015725
H128	H	0.292519	-0.458926	0.515725
H129	H	-0.215246	-1.082258	-0.086788
H130	H	0.284754	-0.582258	0.413212
H131	H	-0.139961	-1.025721	-0.078300
H132	H	0.360039	-0.525721	0.421700
H133	H	-0.000114	-0.556305	-0.016177
H134	H	0.499886	-0.056305	0.483823
C135	C	-0.479548	-0.818008	-0.285939
C136	C	0.020452	-0.318008	0.214061
C137	C	-0.390488	-0.811688	-0.292235
C138	C	0.109512	-0.311688	0.207765
H139	H	-0.510275	-0.782729	-0.321209
H140	H	-0.010275	-0.282729	0.178791
H141	H	-0.494400	-0.805291	-0.233664
H142	H	0.005600	-0.305291	0.266336
H143	H	-0.494371	-0.870289	-0.298688
H144	H	0.005629	-0.370289	0.201312
H145	H	-0.375664	-0.759408	-0.279480
H146	H	0.124336	-0.259408	0.220520
H147	H	-0.375630	-0.824400	-0.344521
H148	H	0.124370	-0.324400	0.155479
C149	C	-0.000087	-0.668831	0.057256
C150	C	0.499913	-0.168831	0.557256
C151	C	-0.000083	-0.718098	-0.009484
C152	C	0.499917	-0.218098	0.490516
H153	H	-0.000081	-0.699785	0.103038
H154	H	0.499919	-0.199785	0.603038
H155	H	-0.050263	-0.634280	0.054630
H156	H	0.449737	-0.134280	0.554630
H157	H	0.050091	-0.639025	0.059366
H158	H	0.550091	-0.139025	0.559366
H159	H	-0.050264	-0.747900	-0.011598
H160	H	0.449736	-0.247900	0.488402
H161	H	0.050098	-0.752663	-0.006858
H162	H	0.550098	-0.252663	0.493142
H163	H	-0.622602	-1.043177	-0.060940
H164	H	-0.122602	-0.543177	0.439060
H165	H	-0.786921	-1.035409	-0.068723
H166	H	-0.286921	-0.535409	0.431277
C167	C	0.073893	-0.503549	-0.287773
C168	C	0.573893	-0.003549	0.212227
C169	C	-0.000081	-0.453178	-0.282979
C170	C	0.499919	0.046822	0.217021
H171	H	0.073907	-0.528249	-0.338245
H172	H	0.573907	-0.028249	0.161755
H173	H	0.073880	-0.542443	-0.248585
H174	H	0.573880	-0.042443	0.251415
H175	H	0.124059	-0.474113	-0.279753
H176	H	0.624059	0.025887	0.220247
H177	H	-0.050248	-0.482615	-0.290993
H178	H	0.449752	0.017385	0.209007
H179	H	-0.000076	-0.414278	-0.322178
H180	H	0.499924	0.085722	0.177822
H181	H	-0.484736	-0.999827	-0.104223
H182	H	0.015264	-0.499827	0.395777
H183	H	-0.000073	-0.794361	0.060560
H184	H	0.499927	-0.294361	0.560560
H185	H	-0.622605	-0.862274	-0.241701
H186	H	-0.122605	-0.362274	0.258299
H187	H	-0.213271	-0.834269	-0.269642
H188	H	0.286729	-0.334269	0.230358
H189	H	-0.000077	-1.027437	0.322844
H190	H	0.499923	-0.527437	0.822844
H191	H	-0.000075	-0.842237	0.338796
H192	H	0.499925	-0.342237	0.838796
H193	H	-0.000130	-0.426857	-0.076584
H194	H	0.499870	0.073143	0.423416
H195	H	-0.000123	-1.051699	0.077273
H196	H	0.499877	-0.551699	0.577273
C197	C	-0.777964	-0.762636	-0.245466
C198	C	-0.277964	-0.262636	0.254534
C199	C	-0.799831	-0.839688	-0.264282
C200	C	-0.299831	-0.339688	0.235718
H201	H	-0.808707	-0.727349	-0.280718
H202	H	-0.308707	-0.227349	0.219282
H203	H	-0.717552	-0.758355	-0.249743
H204	H	-0.217552	-0.258355	0.250257
H205	H	-0.792817	-0.749943	-0.193179
H206	H	-0.292817	-0.249943	0.306821
H207	H	-0.784972	-0.852383	-0.316568
H208	H	-0.284972	-0.352383	0.183432
H209	H	-0.860257	-0.843972	-0.260012
H210	H	-0.360257	-0.343972	0.239988
H211	H	-0.000123	-0.181294	-0.052321
H212	H	0.499877	0.318706	0.447679
H213	H	-0.000111	-1.087848	0.452287
H214	H	0.499889	-0.587848	0.952287
H215	H	-0.000108	-1.039164	0.226049
H216	H	0.499892	-0.539164	0.726049
C217	C	-0.000063	-0.641401	-0.364992
C218	C	0.499937	-0.141401	0.135008
C219	C	-0.000058	-0.698757	-0.307237
C220	C	0.499942	-0.198757	0.192763
H221	H	-0.000065	-0.666100	-0.415464
H222	H	0.499935	-0.166100	0.084536
H223	H	0.050109	-0.611983	-0.356976
H224	H	0.550109	-0.111983	0.143024
H225	H	-0.050245	-0.607229	-0.361711
H226	H	0.449755	-0.107229	0.138289
H227	H	0.050128	-0.732926	-0.310514
H228	H	0.550128	-0.232926	0.189486
H229	H	-0.050234	-0.728189	-0.315255
H230	H	0.449766	-0.228189	0.184745
C231	C	0.073933	-0.374087	-0.348182
C232	C	0.573933	0.125913	0.151818
C233	C	-0.000053	-0.323730	-0.343391
C234	C	0.499947	0.176270	0.156609
H235	H	0.073968	-0.398770	-0.398661
H236	H	0.573968	0.101230	0.101339
H237	H	0.073917	-0.412994	-0.309008
H238	H	0.573917	0.087006	0.190992
H239	H	0.124091	-0.344642	-0.340139
H240	H	0.624091	0.155358	0.159861
H241	H	-0.050212	-0.353176	-0.351429
H242	H	0.449788	0.146824	0.148571
H243	H	-0.000045	-0.284817	-0.382577
H244	H	0.499955	0.215183	0.117423
C245	C	-0.000120	-0.293798	0.021105
C246	C	0.499880	0.206202	0.521105
C247	C	-0.000117	-0.343071	-0.045631
C248	C	0.499883	0.156929	0.454369
H249	H	-0.000118	-0.324748	0.066890
H250	H	0.499882	0.175252	0.566890
H251	H	-0.050294	-0.259245	0.018475
H252	H	0.449706	0.240755	0.518475
H253	H	0.050060	-0.263995	0.023214
H254	H	0.550060	0.236005	0.523214
H255	H	-0.050300	-0.372870	-0.047743
H256	H	0.449700	0.127130	0.452257
H257	H	0.050062	-0.377638	-0.043000
H258	H	0.550062	0.122362	0.457000
H259	H	-0.000105	-1.075311	0.601074
H260	H	0.499895	-0.575311	1.101074
H261	H	-0.515461	-0.869842	-0.234135
H262	H	-0.015461	-0.369842	0.265865
H263	H	-0.000078	-0.817974	0.584359
H264	H	0.499922	-0.317974	1.084359
C265	C	-0.000073	-0.744549	0.471855
C266	C	0.499927	-0.244549	0.971855
C267	C	-0.000073	-0.811285	0.422583
C268	C	0.499927	-0.311285	0.922583
H269	H	-0.000081	-0.698764	0.440905
H270	H	0.499919	-0.198764	0.940905
H271	H	0.050102	-0.747184	0.506399
H272	H	0.550102	-0.247184	1.006399
H273	H	-0.050252	-0.742435	0.501669
H274	H	0.449748	-0.242435	1.001669
H275	H	0.050109	-0.813402	0.392773
H276	H	0.550109	-0.313402	0.892773
H277	H	-0.050254	-0.808649	0.388026
H278	H	0.449746	-0.308649	0.888026
C279	C	-0.000074	-0.768814	0.301330
C280	C	0.499926	-0.268814	0.801330
C281	C	-0.000068	-0.760635	0.219715
C282	C	0.499932	-0.260635	0.719715
H283	H	-0.000076	-0.718341	0.326028
H284	H	0.499924	-0.218341	0.826028
H285	H	0.050097	-0.799197	0.319029
H286	H	0.550097	-0.299197	0.819029
H287	H	-0.050257	-0.794441	0.314285
H288	H	0.449743	-0.294441	0.814285
H289	H	0.050119	-0.735013	0.206761
H290	H	0.550119	-0.235013	0.706761
H291	H	-0.050244	-0.730240	0.202011
H292	H	0.449756	-0.230240	0.702011
