data_functionalizedCrystal
_audit_creation_method	'MofGen! by Chris Wilmer'
_symmetry_space_group_name_H-M	'P1'
_symmetry_Int_Tables_number	1
_symmetry_cell_setting	triclinic
loop_
_symmetry_equiv_pos_as_xyz
  x,y,z
_cell_length_a	19.121275
_cell_length_b	19.120786
_cell_length_c	12.827885
_cell_angle_alpha	87.523932
_cell_angle_beta	92.419751
_cell_angle_gamma	90.130801
loop_
_atom_site_label
_atom_site_type_symbol
_atom_site_fract_x
_atom_site_fract_y
_atom_site_fract_z
Zn1	Zn	1.059836	-0.324800	-0.502913
Zn2	Zn	1.054742	-0.442057	-0.321034
Zn3	Zn	0.942598	-0.319834	-0.335943
Zn4	Zn	0.937569	-0.437008	-0.503492
O5	O	0.998686	-0.380925	-0.415845
O6	O	1.157261	-0.344546	-0.472304
O7	O	1.039839	-0.425879	-0.176775
O8	O	0.962386	-0.222383	-0.364090
O9	O	1.153519	-0.430694	-0.338679
O10	O	1.048520	-0.226031	-0.486761
O11	O	0.957447	-0.336082	-0.187729
O12	O	0.843829	-0.331186	-0.364651
O13	O	0.953815	-0.422088	-0.649652
O14	O	0.840135	-0.417273	-0.487748
O15	O	1.043644	-0.339650	-0.649226
O16	O	1.034962	-0.539497	-0.339240
O17	O	0.948876	-0.535787	-0.473291
C18	C	0.816545	-0.373143	-0.427881
C19	C	0.738624	-0.369831	-0.433053
C20	C	0.990840	-0.563082	-0.404732
C21	C	0.987547	-0.641013	-0.400008
C22	C	0.700068	-0.413055	-0.365816
C23	C	0.626853	-0.409943	-0.370690
C24	C	0.592195	-0.363603	-0.442797
C25	C	0.630756	-0.320377	-0.510040
C26	C	0.703970	-0.323493	-0.505171
C27	C	0.371234	-0.351957	-0.460990
C28	C	0.298015	-0.348843	-0.465852
C29	C	0.294116	-0.438410	-0.326503
C30	C	0.367332	-0.441519	-0.321635
C31	C	0.405887	-0.398296	-0.388883
C32	C	0.517357	-0.360419	-0.447778
C33	C	0.480723	-0.401483	-0.383906
C34	C	1.030812	-0.679462	-0.461714
C35	C	1.027715	-0.752686	-0.457278
C36	C	0.981357	-0.787459	-0.391129
C37	C	0.938087	-0.749004	-0.329421
C38	C	0.941181	-0.675781	-0.333863
C39	C	0.969771	-1.008452	-0.374522
C40	C	0.966682	-1.081680	-0.370082
C41	C	1.056310	-1.085357	-0.497941
C42	C	1.059403	-1.012133	-0.502373
C43	C	1.016130	-0.973684	-0.440669
C44	C	0.978192	-0.862306	-0.386590
C45	C	1.019292	-0.898839	-0.445214
C46	C	1.181538	-0.388737	-0.403764
C47	C	1.259459	-0.392067	-0.398615
C48	C	0.998737	-0.380859	-0.688417
C49	C	0.998758	-0.380832	-0.804570
C50	C	1.006582	-0.198057	-0.427024
C51	C	1.009947	-0.120129	-0.431788
C52	C	1.043213	-0.340030	-0.856145
C53	C	1.043237	-0.340001	-0.976196
C54	C	0.998678	-0.380941	-0.144335
C55	C	0.998801	-0.380777	-0.028185
H56	H	0.728281	-0.450787	-0.307096
O57	O	0.400885	-0.486594	-0.251559
C58	C	0.389292	-0.575067	-0.113806
C59	C	0.351203	-0.524067	-0.193140
H60	H	0.349141	-0.605367	-0.066538
H61	H	0.421990	-0.613272	-0.157115
H62	H	0.424951	-0.544276	-0.058979
H63	H	0.315508	-0.554800	-0.247988
H64	H	0.318549	-0.485862	-0.149763
H65	H	0.489130	-0.322688	-0.506486
H66	H	1.091539	-1.116669	-0.548178
O67	O	1.088740	-0.298404	-1.029044
C68	C	1.209441	-0.269445	-1.056799
C69	C	1.157985	-0.316613	-0.996891
H70	H	1.265436	-0.284140	-1.030811
H71	H	1.201430	-0.276852	-1.144201
H72	H	1.199542	-0.212382	-1.039685
H73	H	1.167853	-0.373693	-1.013919
H74	H	1.166008	-0.309145	-0.909507
O75	O	0.589507	-0.451954	-0.305264
C76	C	0.593366	-0.541142	-0.166566
C77	C	0.635745	-0.493590	-0.240587
H78	H	0.630731	-0.574828	-0.114271
H79	H	0.560473	-0.507482	-0.116182
H80	H	0.557512	-0.576355	-0.214508
H81	H	0.671638	-0.458369	-0.192728
H82	H	0.668593	-0.527292	-0.290974
O83	O	0.953489	-0.422493	-0.975161
C84	C	0.940033	-0.516734	-0.846683
C85	C	0.991423	-0.469527	-0.906655
H86	H	0.970683	-0.554782	-0.791299
H87	H	0.904800	-0.483001	-0.799895
H88	H	0.906565	-0.547399	-0.904524
H89	H	1.024938	-0.438854	-0.848887
H90	H	1.026608	-0.503298	-0.953459
O91	O	0.256557	-0.480371	-0.261296
C92	C	0.142040	-0.515243	-0.206997
C93	C	0.184490	-0.467689	-0.280920
H94	H	0.083767	-0.504996	-0.222821
H95	H	0.153959	-0.572416	-0.220810
H96	H	0.156979	-0.503487	-0.122571
H97	H	0.169576	-0.479383	-0.365373
H98	H	0.172567	-0.410531	-0.267017
O99	O	0.892992	-0.782669	-0.265142
C100	C	0.804451	-0.771289	-0.138745
C101	C	0.855477	-0.733077	-0.211517
H102	H	0.774117	-0.731212	-0.095353
H103	H	0.766283	-0.803995	-0.186974
H104	H	0.835220	-0.806961	-0.079976
H105	H	0.824766	-0.697370	-0.270299
H106	H	0.893645	-0.700416	-0.163220
O107	O	0.953276	-0.422402	-0.857880
C108	C	0.832588	-0.451345	-0.897236
C109	C	0.884020	-0.404207	-0.836828
H110	H	0.776584	-0.436661	-0.880221
H111	H	0.840634	-0.443894	-0.984569
H112	H	0.842479	-0.508418	-0.871581
H113	H	0.874161	-0.347116	-0.862395
H114	H	0.875962	-0.411718	-0.749507
O115	O	1.075768	-0.645714	-0.526126
C116	C	1.110702	-0.624679	-0.703045
C117	C	1.059737	-0.662925	-0.630214
H118	H	1.097769	-0.638591	-0.787213
H119	H	1.105480	-0.565731	-0.695713
H120	H	1.166627	-0.641438	-0.680108
H121	H	1.003790	-0.646223	-0.653104
H122	H	1.065020	-0.721865	-0.637556
O123	O	0.264456	-0.303813	-0.536000
C124	C	0.276045	-0.215285	-0.673676
C125	C	0.314138	-0.266256	-0.594306
H126	H	0.316196	-0.184896	-0.720822
H127	H	0.240421	-0.246033	-0.728611
H128	H	0.243308	-0.177154	-0.630295
H129	H	0.346912	-0.304399	-0.637600
H130	H	0.349719	-0.235462	-0.539373
O131	O	0.408704	-0.310068	-0.526410
C132	C	0.491838	-0.304258	-0.662562
C133	C	0.449429	-0.351782	-0.588544
H134	H	0.524786	-0.337964	-0.712801
H135	H	0.454516	-0.270617	-0.714999
H136	H	0.527646	-0.269001	-0.614620
H137	H	0.413619	-0.387082	-0.636403
H138	H	0.486791	-0.385376	-0.536104
H139	H	1.097151	-0.983822	-0.556236
H140	H	0.602531	-0.282649	-0.568756
O141	O	0.921582	-1.115348	-0.305804
C142	C	0.833032	-1.103980	-0.179418
C143	C	0.884060	-1.065761	-0.252180
H144	H	0.802693	-1.063906	-0.136028
H145	H	0.794870	-1.136686	-0.227654
H146	H	0.863801	-1.139651	-0.120647
H147	H	0.853350	-1.030054	-0.310964
H148	H	0.922223	-1.033099	-0.203876
H149	H	0.508944	-0.439216	-0.325202
O150	O	0.927668	-0.971078	-0.314732
C151	C	0.836533	-0.884440	-0.311801
C152	C	0.884162	-0.926734	-0.379645
H153	H	0.801357	-0.848567	-0.364254
H154	H	0.802824	-0.921843	-0.263784
H155	H	0.870198	-0.851562	-0.257124
H156	H	0.850551	-0.959615	-0.434381
H157	H	0.917875	-0.889293	-0.427590
H158	H	0.735361	-0.288295	-0.559922
H159	H	1.062952	-0.783989	-0.507517
H160	H	0.905949	-0.644476	-0.283617
H161	H	1.057035	-0.870524	-0.499076
H162	H	0.940449	-0.890626	-0.332729
O163	O	1.088577	-0.298449	-0.802637
C164	C	1.129870	-0.260516	-0.634205
C165	C	1.078466	-0.307653	-0.694667
H166	H	1.121703	-0.267930	-0.546902
H167	H	1.185898	-0.275231	-0.651037
H168	H	1.120029	-0.203446	-0.659932
H169	H	1.088243	-0.364736	-0.668976
H170	H	1.022455	-0.292878	-0.677833
