data_functionalizedCrystal
_audit_creation_method	'MofGen! by Chris Wilmer'
_symmetry_space_group_name_H-M	'P1'
_symmetry_Int_Tables_number	1
_symmetry_cell_setting	triclinic
loop_
_symmetry_equiv_pos_as_xyz
  x,y,z
_cell_length_a	30.711293
_cell_length_b	30.706025
_cell_length_c	30.700862
_cell_angle_alpha	120.000090
_cell_angle_beta	90.000363
_cell_angle_gamma	59.983279
loop_
_atom_site_label
_atom_site_type_symbol
_atom_site_fract_x
_atom_site_fract_y
_atom_site_fract_z
O1	O	-0.298560	-0.384230	-0.012980
O2	O	-0.235274	-0.295030	0.012880
O3	O	-0.235240	-0.384228	-0.076322
O4	O	-0.298594	-0.295033	0.076221
O5	O	-0.307688	-0.311777	-0.076313
O6	O	-0.307723	-0.222579	0.012889
O7	O	-0.371009	-0.311779	-0.012971
Cu8	Cu	-0.345981	-0.260564	-0.000040
Cu9	Cu	-0.260302	-0.346246	-0.000051
O10	O	-0.371043	-0.222581	0.076231
C11	C	-0.110241	0.007429	0.039176
C12	C	-0.136559	-0.018656	0.039547
C13	C	-0.031366	-0.071445	0.039179
C14	C	-0.057804	-0.097410	0.039549
C15	C	-0.110216	-0.071444	0.039181
C16	C	-0.057829	-0.018657	0.039545
C17	C	-0.158445	0.183349	0.024886
C18	C	-0.183278	0.233174	0.020846
C19	C	-0.235216	0.258168	0.018819
C20	C	-0.262141	0.312185	0.014429
C21	C	-0.262319	0.233337	0.020837
C22	C	-0.237488	0.183521	0.024884
C23	C	-0.185548	0.158527	0.026909
C24	C	-0.237917	-0.133888	0.024905
C25	C	-0.262900	-0.162751	0.020870
C26	C	-0.235942	-0.216724	0.018843
C27	C	-0.263022	-0.248028	0.014459
C28	C	-0.183998	-0.241828	0.020858
C29	C	-0.159019	-0.212960	0.024903
C30	C	-0.185984	-0.158988	0.026923
C31	C	0.158800	-0.133894	0.024896
C32	C	0.212660	-0.162763	0.020852
C33	C	0.239689	-0.216736	0.018827
C34	C	0.298088	-0.248042	0.014439
C35	C	0.212860	-0.241839	0.020842
C36	C	0.159003	-0.212970	0.024884
C37	C	0.131975	-0.158993	0.026916
C38	C	-0.158625	0.104505	0.031292
C39	C	-0.137164	0.061446	0.034788
C40	C	0.027030	-0.102747	0.034793
C41	C	0.073577	-0.127696	0.031299
C42	C	-0.137301	-0.102744	0.034797
C43	C	-0.158892	-0.127692	0.031305
C44	C	-0.371613	-0.469667	-0.018875
C45	C	-0.344722	-0.523429	-0.015183
C46	C	-0.424026	-0.443579	-0.019241
C47	C	-0.371645	-0.390783	-0.018864
C48	C	-0.344788	-0.360201	-0.015161
C49	C	-0.424058	-0.364815	-0.019230
C50	C	-0.450493	-0.390785	-0.018865
C51	C	-0.507941	-0.360206	-0.015162
C52	C	-0.345298	-0.443577	-0.019240
C53	C	-0.110049	-0.535722	-0.503977
C54	C	-0.057625	-0.588516	-0.530318
C55	C	-0.110049	-0.535722	-0.425101
C56	C	-0.057625	-0.588515	-0.451562
C57	C	-0.031170	-0.614604	-0.503986
C58	C	-0.136385	-0.509754	-0.451553
C59	C	-0.237823	-0.393668	-0.552126
C60	C	-0.262827	-0.364627	-0.576949
C61	C	-0.235874	-0.389554	-0.628899
C62	C	-0.262979	-0.358063	-0.655813
C63	C	-0.183918	-0.443527	-0.656025
C64	C	-0.158921	-0.472568	-0.631204
C65	C	-0.185876	-0.447636	-0.579252
C66	C	0.159041	-0.790545	-0.631770
C67	C	0.212907	-0.840376	-0.656777
C68	C	0.239931	-0.865372	-0.629829
C69	C	0.298337	-0.919396	-0.656935
C70	C	0.213082	-0.840537	-0.577873
C71	C	0.159216	-0.790715	-0.552871
C72	C	0.132199	-0.765719	-0.579825
C73	C	-0.237824	-0.393667	-0.234876
C74	C	-0.262826	-0.364622	-0.181005
C75	C	-0.235873	-0.389549	-0.153987
C76	C	-0.262978	-0.358057	-0.095576
C77	C	-0.183919	-0.443517	-0.180839
C78	C	-0.158920	-0.472558	-0.234708
C79	C	-0.185879	-0.447631	-0.261724
C80	C	-0.158764	-0.479128	-0.552341
C81	C	-0.137156	-0.504230	-0.530889
C82	C	-0.137156	-0.504230	-0.366693
C83	C	-0.158765	-0.479128	-0.320135
C84	C	0.027236	-0.668627	-0.531096
C85	C	0.073791	-0.711691	-0.552708
O86	O	0.469843	-0.311788	-0.012980
O87	O	0.317331	-0.222593	0.012869
O88	O	0.406527	-0.311801	-0.076328
O89	O	0.380647	-0.222580	0.076217
O90	O	0.406550	-0.384244	-0.076324
O91	O	0.317353	-0.295036	0.012873
O92	O	0.469866	-0.384231	-0.012976
Cu93	Cu	0.393612	-0.346248	-0.000051
Cu94	Cu	0.393585	-0.260576	-0.000056
O95	O	0.380670	-0.295023	0.076221
O96	O	-0.370916	0.456546	-0.013002
O97	O	-0.307555	0.329869	0.012853
O98	O	-0.307548	0.329849	-0.076346
O99	O	-0.370924	0.456566	0.076198
O100	O	-0.235127	0.329849	-0.076348
O101	O	-0.235134	0.329868	0.012852
O102	O	-0.298495	0.456545	-0.013003
Cu103	Cu	-0.260202	0.393207	-0.000076
Cu104	Cu	-0.345848	0.393208	-0.000074
O105	O	-0.298503	0.456565	0.076196
O106	O	0.470124	-1.063774	-0.692551
O107	O	0.317595	-0.937080	-0.629197
O108	O	0.406754	-0.937078	-0.629194
O109	O	0.380966	-1.063776	-0.692554
O110	O	0.406756	-0.937080	-0.701640
O111	O	0.317597	-0.937082	-0.701643
O112	O	0.470126	-1.063776	-0.764997
Cu113	Cu	0.393862	-1.000429	-0.739935
Cu114	Cu	0.393860	-1.000427	-0.654259
O115	O	0.380968	-1.063778	-0.765000
O116	O	-0.298597	-0.295029	-0.764570
O117	O	-0.235239	-0.384228	-0.701240
O118	O	-0.235275	-0.295029	-0.701227
O119	O	-0.298561	-0.384229	-0.764583
O120	O	-0.307722	-0.222580	-0.628773
O121	O	-0.307686	-0.311779	-0.628786
O122	O	-0.371045	-0.222580	-0.692115
Cu123	Cu	-0.345981	-0.260564	-0.653835
Cu124	Cu	-0.260303	-0.346244	-0.739521
O125	O	-0.371008	-0.311779	-0.692128
C126	C	-0.450593	-0.137148	0.234779
C127	C	-0.508050	-0.083387	0.261663
C128	C	-0.424138	-0.163236	0.261112
C129	C	-0.371714	-0.216030	0.155895
C130	C	-0.344832	-0.246610	0.098435
C131	C	-0.345378	-0.241998	0.182347
C132	C	-0.371715	-0.216029	0.234771
C133	C	-0.344834	-0.246608	0.261647
C134	C	-0.424137	-0.163237	0.182355
C135	C	0.374767	-0.216006	0.234769
C136	C	0.378475	-0.246579	0.261651
C137	C	0.374383	-0.163215	0.261103
C138	C	0.374766	-0.216018	0.155887
C139	C	0.378472	-0.246603	0.098428
C140	C	0.374382	-0.163227	0.182341
C141	C	0.374743	-0.137134	0.234764
C142	C	0.378425	-0.083375	0.261641
C143	C	0.374406	-0.241980	0.182345
C144	C	-0.371658	0.609254	0.234748
C145	C	-0.344802	0.639837	0.261628
C146	C	-0.424072	0.635225	0.261084
C147	C	-0.371624	0.530362	0.155866
C148	C	-0.344731	0.476594	0.098406
C149	C	-0.424038	0.556453	0.182323
C150	C	-0.450507	0.609253	0.234747
C151	C	-0.507956	0.639835	0.261628
C152	C	-0.345309	0.556454	0.182323
C153	C	0.432912	-0.614317	-0.503984
C154	C	0.433272	-0.588236	-0.530323
C155	C	0.432889	-0.535433	-0.425107
C156	C	0.433249	-0.509471	-0.451565
C157	C	0.432887	-0.535444	-0.503989
C158	C	0.433274	-0.588225	-0.451561
C159	C	0.418691	-0.790245	-0.552141
C160	C	0.414670	-0.840075	-0.576966
C161	C	0.412651	-0.865075	-0.628915
C162	C	0.408281	-0.919097	-0.655831
C163	C	0.414657	-0.840247	-0.656039
C164	C	0.418685	-0.790427	-0.631216
C165	C	0.420702	-0.765426	-0.579265
C166	C	0.418589	-0.473019	-0.631763
C167	C	0.414543	-0.444160	-0.656767
C168	C	0.412498	-0.390184	-0.629818
C169	C	0.408103	-0.358883	-0.656921
C170	C	0.414506	-0.365072	-0.577862
C171	C	0.418561	-0.393937	-0.552863
C172	C	0.420599	-0.447912	-0.579819
C173	C	0.418598	-0.472961	-0.234886
C174	C	0.414547	-0.444086	-0.181015
C175	C	0.412504	-0.390110	-0.153995
C176	C	0.408109	-0.358797	-0.095584
C177	C	0.414508	-0.365010	-0.180845
C178	C	0.418557	-0.393886	-0.234713
C179	C	0.420607	-0.447866	-0.261731
C180	C	0.425065	-0.711401	-0.552351
C181	C	0.428545	-0.668338	-0.530898
C182	C	0.428497	-0.504124	-0.366699
C183	C	0.424997	-0.479170	-0.320142
C184	C	0.428493	-0.504148	-0.531096
C185	C	0.424991	-0.479204	-0.552705
O186	O	0.406520	-0.311722	0.371239
O187	O	0.380652	-0.222546	0.307887
O188	O	0.469843	-0.311740	0.307881
O189	O	0.317328	-0.222529	0.371245
O190	O	0.469864	-0.384194	0.235435
O191	O	0.380673	-0.295000	0.235441
O192	O	0.406541	-0.384176	0.298793
Cu193	Cu	0.393609	-0.346204	0.260502
Cu194	Cu	0.393584	-0.260518	0.346177
O195	O	0.317349	-0.294983	0.298799
C196	C	-0.031313	-0.071565	-0.504016
C197	C	-0.057748	-0.097537	-0.530352
C198	C	-0.110196	0.007326	-0.425134
C199	C	-0.136510	-0.018766	-0.451590
C200	C	-0.110162	-0.071565	-0.504015
C201	C	-0.057781	-0.018765	-0.451591
C202	C	0.158856	-0.134018	-0.552184
C203	C	0.212715	-0.162887	-0.577013
C204	C	0.239750	-0.216870	-0.628963
C205	C	0.298150	-0.248180	-0.655882
C206	C	0.212921	-0.241981	-0.656085
C207	C	0.159064	-0.213108	-0.631259
C208	C	0.132032	-0.159124	-0.579306
C209	C	-0.158251	-0.213634	-0.631786
C210	C	-0.183057	-0.242678	-0.656789
C211	C	-0.234995	-0.217752	-0.629837
C212	C	-0.261892	-0.249242	-0.656938
C213	C	-0.262129	-0.163773	-0.577880
C214	C	-0.237327	-0.134725	-0.552882
C215	C	-0.185383	-0.159664	-0.579841
C216	C	-0.158420	0.183292	-0.234912
C217	C	-0.183257	0.233126	-0.181041
C218	C	-0.235197	0.258125	-0.154017
C219	C	-0.262129	0.312156	-0.095606
C220	C	-0.262295	0.233287	-0.180865
C221	C	-0.237456	0.183453	-0.234734
C222	C	-0.185518	0.158463	-0.261755
C223	C	0.073634	-0.127823	-0.552389
C224	C	0.027085	-0.102871	-0.530933
C225	C	-0.137125	0.061357	-0.366725
C226	C	-0.158591	0.104427	-0.320167
C227	C	-0.137055	-0.103060	-0.531121
C228	C	-0.158492	-0.128165	-0.552728
H229	H	0.234870	-0.285787	0.019195
C230	C	-0.287127	0.526939	0.153624
C231	C	-0.272813	0.520870	0.101905
C232	C	-0.214631	0.491349	0.073205
C233	C	-0.170763	0.467895	0.096225
C234	C	-0.185076	0.473963	0.147948
C235	C	-0.243258	0.503485	0.176647
H236	H	-0.305287	0.538232	0.084861
H237	H	-0.204036	0.486857	0.034916
H238	H	-0.127693	0.446042	0.074980
H239	H	-0.152601	0.456601	0.164991
H240	H	-0.253853	0.507977	0.214936
C241	C	0.434034	-0.452086	-0.422877
C242	C	0.434422	-0.423380	-0.365089
C243	C	0.435208	-0.365997	-0.336403
C244	C	0.435606	-0.337320	-0.365507
C245	C	0.435218	-0.366026	-0.423298
C246	C	0.434432	-0.423409	-0.451984
H247	H	0.434127	-0.444608	-0.343542
H248	H	0.435495	-0.344747	-0.293622
H249	H	0.436188	-0.294842	-0.344272
H250	H	0.435513	-0.344798	-0.444845
H251	H	0.434145	-0.444659	-0.494765
H252	H	0.420252	-0.516969	-0.653716
C253	C	-0.452786	0.692621	0.319274
C254	C	-0.429788	0.690051	0.363165
C255	C	-0.458504	0.747445	0.421352
C256	C	-0.510217	0.807410	0.435649
C257	C	-0.533218	0.809983	0.391757
C258	C	-0.504503	0.752589	0.333569
H259	H	-0.391504	0.645659	0.352583
H260	H	-0.441477	0.745540	0.453844
H261	H	-0.531474	0.849897	0.478723
H262	H	-0.571502	0.854375	0.402339
H263	H	-0.521530	0.754494	0.301078
H264	H	-0.305128	-0.320683	-0.554859
H265	H	-0.115959	-0.233942	-0.653741
H266	H	0.433876	-0.610080	-0.573398
H267	H	-0.304607	0.253694	0.019189
C268	C	-0.319430	0.260782	-0.151144
C269	C	-0.365509	0.287768	-0.170659
C270	C	-0.422641	0.315261	-0.140940
C271	C	-0.433696	0.315768	-0.091706
C272	C	-0.387616	0.288781	-0.072188
C273	C	-0.330484	0.261289	-0.101907
H274	H	-0.357327	0.287394	-0.207107
H275	H	-0.456752	0.335239	-0.155388
H276	H	-0.475989	0.336120	-0.069706
H277	H	-0.395798	0.289156	-0.035740
H278	H	-0.296372	0.241311	-0.087459
C279	C	-0.154272	-0.470945	-0.713166
C280	C	-0.135162	-0.536546	-0.759265
C281	C	-0.105513	-0.563965	-0.816408
C282	C	-0.094975	-0.525784	-0.827452
C283	C	-0.114086	-0.460179	-0.781352
C284	C	-0.143735	-0.432759	-0.724209
H285	H	-0.142962	-0.564814	-0.751091
H286	H	-0.091366	-0.612531	-0.850534
H287	H	-0.073028	-0.546081	-0.869752
H288	H	-0.106286	-0.431911	-0.789526
H289	H	-0.157882	-0.384193	-0.690082
C290	C	-0.452706	-0.473066	-0.020043
C291	C	-0.429683	-0.539966	-0.066517
C292	C	-0.458366	-0.569447	-0.067318
C293	C	-0.510073	-0.532027	-0.021645
C294	C	-0.533099	-0.465123	0.024832
C295	C	-0.504415	-0.435642	0.025633
H296	H	-0.391404	-0.567670	-0.100330
H297	H	-0.441321	-0.618974	-0.101724
H298	H	-0.531306	-0.553850	-0.022238
H299	H	-0.571377	-0.437419	0.058645
H300	H	-0.521461	-0.386115	0.060039
H301	H	0.137161	-0.233412	0.026528
H302	H	0.412847	-0.321127	-0.555922
C303	C	-0.287190	-0.299387	0.153648
C304	C	-0.243323	-0.296797	0.176658
C305	C	-0.185138	-0.354184	0.147960
C306	C	-0.170819	-0.414161	0.096251
C307	C	-0.214688	-0.416754	0.073238
C308	C	-0.272873	-0.359367	0.101936
H309	H	-0.253921	-0.252395	0.214939
H310	H	-0.152664	-0.352264	0.164996
H311	H	-0.127747	-0.456643	0.075007
H312	H	-0.204089	-0.461155	0.034957
H313	H	-0.305347	-0.361287	0.084900
H314	H	0.433871	-0.610053	-0.430320
C315	C	-0.319261	-0.136347	-0.548230
C316	C	-0.364079	-0.116408	-0.571458
C317	C	-0.421211	-0.088984	-0.541807
C318	C	-0.433526	-0.081499	-0.488928
C319	C	-0.388707	-0.101439	-0.465696
C320	C	-0.331575	-0.128863	-0.495347
H321	H	-0.354964	-0.121948	-0.610606
H322	H	-0.454389	-0.074223	-0.559005
H323	H	-0.475818	-0.061199	-0.466978
H324	H	-0.397822	-0.095899	-0.426549
H325	H	-0.298397	-0.143623	-0.478149
C326	C	-0.319974	-0.305258	-0.151468
C327	C	-0.331142	-0.245375	-0.102281
C328	C	-0.388291	-0.186013	-0.072745
C329	C	-0.434273	-0.186534	-0.092396
C330	C	-0.423107	-0.246419	-0.141586
C331	C	-0.365957	-0.305781	-0.171122
H332	H	-0.297102	-0.244988	-0.087731
H333	H	-0.396557	-0.141682	-0.036331
H334	H	-0.476579	-0.142590	-0.070532
H335	H	-0.457147	-0.246806	-0.156136
H336	H	-0.357691	-0.350112	-0.207536
H337	H	0.137359	-0.770500	-0.510570
H338	H	0.412907	-0.464608	-0.699068
H339	H	0.412912	-0.464525	-0.159157
H340	H	0.420270	-0.516917	-0.256883
C341	C	-0.452808	-0.133739	0.153660
C342	C	-0.473233	-0.066842	0.176687
C343	C	-0.501892	-0.037346	0.147990
C344	C	-0.510126	-0.074746	0.096265
C345	C	-0.489700	-0.141647	0.073235
C346	C	-0.461041	-0.171144	0.101932
H347	H	-0.467139	-0.039153	0.214980
H348	H	-0.517013	0.012179	0.165039
H349	H	-0.531340	-0.052911	0.075022
H350	H	-0.495794	-0.169336	0.034942
H351	H	-0.445920	-0.220668	0.084883
C352	C	-0.452767	-0.307429	-0.020029
C353	C	-0.504484	-0.247458	0.025640
C354	C	-0.533194	-0.190076	0.024837
C355	C	-0.510187	-0.192666	-0.021634
C356	C	-0.458468	-0.252640	-0.067306
C357	C	-0.429757	-0.310022	-0.066504
H358	H	-0.521518	-0.245538	0.060044
H359	H	-0.571481	-0.145679	0.058647
H360	H	-0.531440	-0.150189	-0.022228
H361	H	-0.441434	-0.254559	-0.101710
H362	H	-0.391471	-0.354418	-0.100314
C363	C	-0.029038	-0.154937	-0.588541
C364	C	-0.020760	-0.214904	-0.602836
C365	C	0.007950	-0.272303	-0.661021
C366	C	0.028381	-0.269735	-0.704911
C367	C	0.020103	-0.209765	-0.690617
C368	C	-0.008606	-0.152365	-0.632432
H369	H	-0.035885	-0.216808	-0.570345
H370	H	0.014077	-0.316697	-0.671602
H371	H	0.049633	-0.312225	-0.747983
H372	H	0.035228	-0.207861	-0.723108
H373	H	-0.014734	-0.107972	-0.621850
C374	C	0.242171	-0.135151	0.018635
C375	C	0.246866	-0.127630	-0.026758
C376	C	0.276377	-0.100015	-0.028973
C377	C	0.301193	-0.079920	0.014206
C378	C	0.296499	-0.087440	0.059603
C379	C	0.266988	-0.115055	0.061817
H380	H	0.228495	-0.142506	-0.058725
H381	H	0.279852	-0.094448	-0.062578
H382	H	0.323039	-0.059478	0.012567
H383	H	0.314870	-0.072565	0.091569
H384	H	0.263513	-0.120622	0.095423
H385	H	-0.445259	0.534614	0.161080
H386	H	-0.179626	0.003184	0.040147
C387	C	-0.452827	-0.133743	0.319302
C388	C	-0.461065	-0.171156	0.333597
C389	C	-0.489750	-0.141668	0.391785
C390	C	-0.510197	-0.074766	0.435677
C391	C	-0.501959	-0.037349	0.421382
C392	C	-0.473274	-0.066838	0.363194
H393	H	-0.445929	-0.220685	0.301105
H394	H	-0.495848	-0.169366	0.402367
H395	H	-0.531431	-0.052937	0.478751
H396	H	-0.517096	0.012179	0.453874
H397	H	-0.467176	-0.039139	0.352613
H398	H	0.420335	-0.769896	-0.509842
C399	C	-0.029154	0.010834	0.040347
C400	C	0.028617	-0.017856	0.040757
C401	C	0.057292	0.011634	0.041560
C402	C	0.028195	0.069814	0.041954
C403	C	-0.029579	0.098508	0.041545
C404	C	-0.058254	0.069018	0.040742
H405	H	0.050159	-0.060928	0.040465
H406	H	0.100061	-0.009608	0.041863
H407	H	0.049422	0.091645	0.042549
H408	H	-0.051121	0.141580	0.041837
H409	H	-0.101022	0.090260	0.040439
H410	H	0.373839	-0.284468	0.161104
C411	C	0.412457	-0.867379	-0.547130
C412	C	0.363740	-0.867821	-0.536433
C413	C	0.361526	-0.895124	-0.506596
C414	C	0.408030	-0.921985	-0.487456
C415	C	0.456751	-0.921544	-0.498153
C416	C	0.458965	-0.894241	-0.527990
H417	H	0.329311	-0.847935	-0.550601
H418	H	0.325459	-0.895450	-0.498677
H419	H	0.406391	-0.942196	-0.465369
H420	H	0.491179	-0.941429	-0.483985
H421	H	0.495032	-0.893915	-0.535909
C422	C	-0.267299	0.156208	0.027102
C423	C	-0.286416	0.129336	-0.019416
C424	C	-0.316227	0.102022	-0.017199
C425	C	-0.326921	0.101580	0.031535
C426	C	-0.307804	0.128453	0.078057
C427	C	-0.277993	0.155767	0.075840
H428	H	-0.278500	0.129662	-0.055495
H429	H	-0.330379	0.082128	-0.051638
H430	H	-0.348989	0.081360	0.033176
H431	H	-0.315720	0.128127	0.114136
H432	H	-0.263841	0.175660	0.110279
H433	H	0.412842	-0.321057	-0.158840
C434	C	0.412436	-0.867747	-0.713180
C435	C	0.363716	-0.868237	-0.724224
C436	C	0.361494	-0.895736	-0.781366
C437	C	0.407992	-0.922745	-0.827464
C438	C	0.456716	-0.922256	-0.816422
C439	C	0.458938	-0.894757	-0.759279
H440	H	0.329292	-0.848243	-0.690098
H441	H	0.325425	-0.896098	-0.789541
H442	H	0.406348	-0.943101	-0.869765
H443	H	0.491140	-0.942251	-0.850547
H444	H	0.495006	-0.894395	-0.751105
C445	C	-0.320031	-0.135143	0.018646
C446	C	-0.364955	-0.115041	0.061823
C447	C	-0.422086	-0.087433	0.059598
C448	C	-0.434294	-0.079927	0.014196
C449	C	-0.389369	-0.100030	-0.028984
C450	C	-0.332238	-0.127638	-0.026759
H451	H	-0.355919	-0.120597	0.095436
H452	H	-0.455342	-0.072552	0.091564
H453	H	-0.476586	-0.059490	0.012549
H454	H	-0.398405	-0.094474	-0.062596
H455	H	-0.298982	-0.142519	-0.058725
C456	C	0.420891	-0.763118	-0.661050
C457	C	0.418668	-0.790612	-0.718189
C458	C	0.420871	-0.763301	-0.748022
C459	C	0.425298	-0.708495	-0.720715
C460	C	0.427521	-0.680998	-0.663573
C461	C	0.425317	-0.708309	-0.633740
H462	H	0.415391	-0.831185	-0.738406
H463	H	0.419226	-0.783656	-0.790323
H464	H	0.426929	-0.688278	-0.742799
H465	H	0.430798	-0.640425	-0.643356
H466	H	0.426963	-0.687953	-0.591439
H467	H	-0.302234	-0.465410	-0.019831
C468	C	0.373582	-0.133705	0.319289
C469	C	0.419239	-0.127668	0.333566
C470	C	0.418441	-0.098154	0.391749
C471	C	0.371986	-0.074677	0.435655
C472	C	0.326326	-0.080714	0.421379
C473	C	0.327123	-0.110227	0.363196
H474	H	0.453630	-0.145047	0.301064
H475	H	0.452242	-0.093686	0.402317
H476	H	0.371395	-0.052830	0.478725
H477	H	0.291934	-0.063334	0.453882
H478	H	0.293322	-0.114695	0.352629
H479	H	0.420197	-0.373488	-0.510562
H480	H	-0.036384	-0.610342	-0.430320
H481	H	0.420186	-0.373443	-0.256570
H482	H	0.373783	-0.141402	0.161096
C483	C	-0.194690	0.010733	-0.422899
C484	C	-0.223799	0.068926	-0.365110
C485	C	-0.281977	0.098423	-0.336422
C486	C	-0.311045	0.069726	-0.365524
C487	C	-0.281936	0.011530	-0.423316
C488	C	-0.223758	-0.017967	-0.452004
H489	H	-0.202281	0.090172	-0.343565
H490	H	-0.303526	0.141504	-0.293640
H491	H	-0.354112	0.091561	-0.344287
H492	H	-0.303454	-0.009716	-0.444862
H493	H	-0.202210	-0.061048	-0.494786
H494	H	-0.036556	0.003068	-0.430352
H495	H	-0.161188	0.253344	-0.159184
H496	H	-0.116135	0.162957	-0.256914
C497	C	0.129121	-0.074634	-0.495041
C498	C	0.158625	-0.047010	-0.465210
C499	C	0.128888	0.012373	-0.408068
C500	C	0.069647	0.044132	-0.380756
C501	C	0.040139	0.016508	-0.410586
C502	C	0.069876	-0.042875	-0.467729
H503	H	0.202482	-0.070520	-0.485428
H504	H	0.150732	0.032821	-0.385985
H505	H	0.047634	0.088090	-0.338455
H506	H	-0.003718	0.040018	-0.390368
H507	H	0.048032	-0.063323	-0.489811
H508	H	-0.036387	-0.610349	-0.573393
H509	H	0.234554	-0.142438	-0.554927
C510	C	0.242658	-0.301359	-0.713227
C511	C	0.267538	-0.303026	-0.758060
C512	C	0.297274	-0.362406	-0.815204
C513	C	0.302131	-0.420120	-0.827514
C514	C	0.277251	-0.418456	-0.782680
C515	C	0.247515	-0.359075	-0.725536
H516	H	0.263943	-0.260300	-0.748947
H517	H	0.315692	-0.363638	-0.848393
H518	H	0.324144	-0.464077	-0.869816
H519	H	0.280846	-0.461181	-0.791792
H520	H	0.229097	-0.357843	-0.692347
H521	H	-0.036557	-0.139886	0.040147
H522	H	0.136797	-0.089945	0.026549
H523	H	0.137224	-0.233554	-0.653345
H524	H	-0.259777	-0.373364	-0.256869
H525	H	-0.259876	-0.089942	0.026552
H526	H	-0.160960	-0.286629	-0.699090
H527	H	-0.116154	0.163004	0.026536
H528	H	-0.161207	0.253387	0.019202
H529	H	-0.116728	-0.233401	0.026547
C530	C	-0.194570	-0.452360	-0.422849
C531	C	-0.223663	-0.423654	-0.451931
C532	C	-0.281845	-0.366260	-0.423225
C533	C	-0.310934	-0.337571	-0.365438
C534	C	-0.281841	-0.366276	-0.336353
C535	C	-0.223659	-0.423671	-0.365058
H536	H	-0.202130	-0.444892	-0.494711
H537	H	-0.303382	-0.345011	-0.444756
H538	H	-0.354004	-0.295084	-0.344188
H539	H	-0.303375	-0.345039	-0.293572
H540	H	-0.202123	-0.444920	-0.343527
H541	H	-0.259777	-0.373364	-0.509826
H542	H	-0.162050	-0.285770	0.019215
H543	H	-0.116620	-0.516513	-0.653294
H544	H	0.137047	-0.770199	-0.653721
H545	H	-0.259424	-0.090774	-0.510581
H546	H	0.234764	-0.860591	-0.699078
C547	C	0.242802	-0.868032	-0.548229
C548	C	0.267704	-0.936091	-0.571463
C549	C	0.297426	-0.963584	-0.541817
C550	C	0.302246	-0.923018	-0.488937
C551	C	0.277344	-0.854954	-0.465701
C552	C	0.247622	-0.827461	-0.495346
H553	H	0.264136	-0.966125	-0.610610
H554	H	0.315860	-1.013970	-0.559019
H555	H	0.324248	-0.943369	-0.466992
H556	H	0.280912	-0.824920	-0.426553
H557	H	0.229188	-0.777075	-0.478144
H558	H	-0.116617	-0.516500	-0.256568
H559	H	-0.161971	-0.463810	-0.158836
H560	H	-0.259524	0.163233	-0.256591
