data_functionalizedCrystal
_audit_creation_method	'MofGen! by Chris Wilmer'
_symmetry_space_group_name_H-M	'P1'
_symmetry_Int_Tables_number	1
_symmetry_cell_setting	triclinic
loop_
_symmetry_equiv_pos_as_xyz
  x,y,z
_cell_length_a	19.288864
_cell_length_b	11.892095
_cell_length_c	19.288865
_cell_angle_alpha	93.870403
_cell_angle_beta	96.863755
_cell_angle_gamma	93.899284
loop_
_atom_site_label
_atom_site_type_symbol
_atom_site_fract_x
_atom_site_fract_y
_atom_site_fract_z
O1	O	0.925821	0.094380	-0.082175
O2	O	1.425821	0.594380	0.417825
O3	O	0.723557	0.094304	-0.093868
O4	O	1.223557	0.594304	0.406132
O5	O	0.830532	0.094322	0.013108
O6	O	1.330532	0.594322	0.513108
O7	O	0.818846	0.094362	-0.189151
O8	O	1.318846	0.594362	0.310849
O9	O	0.821613	-0.093687	0.004202
O10	O	1.321613	0.406313	0.504202
O11	O	0.714638	-0.093705	-0.102773
O12	O	1.214638	0.406295	0.397227
O13	O	0.916902	-0.093629	-0.091081
O14	O	1.416902	0.406371	0.408919
Zn15	Zn	0.814354	-0.123517	-0.098341
Zn16	Zn	1.314354	0.376483	0.401659
Zn17	Zn	0.826105	0.124192	-0.086608
Zn18	Zn	1.326105	0.624192	0.413392
O19	O	0.809926	-0.093647	-0.198057
O20	O	1.309926	0.406353	0.301943
C21	C	0.693220	0.000290	-0.097945
C22	C	1.193220	0.500290	0.402055
C23	C	0.616115	0.000260	-0.096817
C24	C	1.116115	0.500260	0.403183
N25	N	0.806338	-0.292573	-0.106349
N26	N	1.306338	0.207427	0.393651
C27	C	0.571421	0.000290	-0.159584
C28	C	1.071421	0.500290	0.340416
C29	C	0.498974	0.000303	-0.158523
C30	C	0.998974	0.500303	0.341477
C31	C	0.471227	0.000307	-0.094690
C32	C	0.971227	0.500307	0.405310
C33	C	0.515931	0.000270	-0.031916
C34	C	1.015931	0.500270	0.468084
C35	C	0.588375	0.000247	-0.032979
C36	C	1.088375	0.500247	0.467021
C37	C	0.366091	0.066203	-0.041390
C38	C	0.866091	0.566203	0.458610
C39	C	0.293648	0.066234	-0.040328
C40	C	0.793648	0.566234	0.459672
C41	C	0.247784	0.000375	-0.091407
C42	C	0.747784	0.500375	0.408593
C43	C	0.274372	-0.065500	-0.143559
C44	C	0.774372	0.434500	0.356441
C45	C	0.346816	-0.065523	-0.144622
C46	C	0.846816	0.434477	0.355378
C47	C	0.392674	0.000332	-0.093530
C48	C	0.892674	0.500332	0.406470
C49	C	0.124534	0.000417	-0.153027
C50	C	0.624534	0.500417	0.346973
C51	C	0.052086	0.000422	-0.151964
C52	C	0.552086	0.500422	0.348036
C53	C	0.069045	0.000402	-0.025355
C54	C	0.569045	0.500402	0.474645
C55	C	0.141491	0.000385	-0.026421
C56	C	0.641491	0.500385	0.473579
C57	C	0.169231	0.000398	-0.090259
C58	C	0.669231	0.500398	0.409741
C59	C	0.889899	-0.529207	-0.022835
C60	C	1.389899	-0.029207	0.477165
C61	C	0.884301	-0.647550	-0.028437
C62	C	1.384301	-0.147550	0.471563
C63	C	0.789543	-0.647603	-0.123152
C64	C	1.289543	-0.147603	0.376848
C65	C	0.795141	-0.529261	-0.117549
C66	C	1.295141	-0.029261	0.382451
C67	C	0.845321	-0.470067	-0.067390
C68	C	1.345321	0.029933	0.432610
C69	C	0.850921	-0.351722	-0.061792
C70	C	1.350921	0.148278	0.438208
C71	C	0.756160	-0.351777	-0.156502
C72	C	1.256160	0.148223	0.343498
C73	C	0.750563	-0.470120	-0.162105
C74	C	1.250563	0.029880	0.337895
C75	C	0.947239	0.000388	-0.087004
C76	C	1.447239	0.500388	0.412996
C77	C	1.024344	0.000425	-0.088131
C78	C	1.524344	0.500425	0.411869
C79	C	0.825697	0.000314	0.034531
C80	C	1.325697	0.500314	0.534531
C81	C	0.824567	0.000303	0.111634
C82	C	1.324567	0.500303	0.611634
N83	N	0.834126	0.293248	-0.078595
N84	N	1.334126	0.793248	0.421405
C85	C	0.814762	0.000364	-0.219480
C86	C	1.314762	0.500364	0.280520
C87	C	0.815892	0.000382	-0.296583
C88	C	1.315892	0.500382	0.203417
C89	C	0.887336	0.000321	0.156331
C90	C	1.387336	0.500321	0.656331
C91	C	0.886276	0.000339	0.228779
C92	C	1.386276	0.500339	0.728779
C93	C	0.822443	0.000316	0.256526
C94	C	1.322443	0.500316	0.756526
C95	C	0.759666	0.000304	0.211819
C96	C	1.259666	0.500304	0.711819
C97	C	0.760728	0.000298	0.139373
C98	C	1.260728	0.500298	0.639373
C99	C	0.769138	-0.065559	0.361693
C100	C	1.269138	0.434441	0.861693
C101	C	0.768078	-0.065559	0.434137
C102	C	1.268078	0.434441	0.934137
C103	C	0.819164	0.000340	0.479973
C104	C	1.319164	0.500340	0.979973
C105	C	0.871321	0.066225	0.453355
C106	C	1.371321	0.566225	0.953355
C107	C	0.872383	0.066219	0.380910
C108	C	1.372383	0.566219	0.880910
C109	C	0.821284	0.000323	0.335080
C110	C	1.321284	0.500323	0.835080
C111	C	0.880788	0.000378	0.603227
C112	C	1.380788	0.500378	1.103227
C113	C	0.879726	0.000403	0.675676
C114	C	1.379726	0.500403	1.175676
C115	C	0.753114	0.000357	0.658713
C116	C	1.253114	0.500357	1.158713
C117	C	0.754178	0.000344	0.586266
C118	C	1.254178	0.500344	1.086266
C119	C	0.818017	0.000349	0.558527
C120	C	1.318017	0.500349	1.058527
H121	H	0.594001	0.000303	-0.211566
H122	H	1.094001	0.500303	0.288434
Br123	Br	0.697299	-0.154981	0.470254
Br124	Br	1.197299	0.345019	0.970254
H125	H	0.719863	-0.303612	-0.192784
H126	H	1.219863	0.196388	0.307216
H127	H	0.939318	0.000330	0.133752
H128	H	1.439318	0.500330	0.633752
Br129	Br	-0.008574	0.000453	-0.237155
Br130	Br	0.491426	0.500453	0.262845
H131	H	0.920600	-0.695699	0.007845
H132	H	1.420600	-0.195699	0.507845
H133	H	0.462576	0.000324	-0.209636
H134	H	0.962576	0.500324	0.290364
Br135	Br	0.031396	0.000389	0.061276
Br136	Br	0.531396	0.500389	0.561276
H137	H	0.932770	0.000388	0.580641
H138	H	1.432770	0.500388	1.080641
H139	H	0.403429	0.119840	0.000207
H140	H	0.903429	0.619840	0.500207
Br141	Br	0.940658	0.155665	0.515552
Br142	Br	1.440658	0.655665	1.015552
Br143	Br	0.212137	-0.154882	-0.212888
Br144	Br	0.712137	0.345118	0.287112
H145	H	0.701140	0.000343	0.681304
H146	H	1.201140	0.500343	1.181304
Br147	Br	0.971468	0.000368	0.289452
Br148	Br	1.471468	0.500368	0.789452
H149	H	0.368461	-0.119164	-0.187084
H150	H	0.868461	0.380836	0.312916
Br151	Br	0.257571	0.155649	0.030439
Br152	Br	0.757571	0.655649	0.530439
H153	H	0.177883	0.000366	0.024691
H154	H	0.677883	0.500366	0.524691
H155	H	0.493335	0.000290	0.020058
H156	H	0.993335	0.500290	0.520058
Br157	Br	0.721436	-0.727949	-0.191212
Br158	Br	1.221436	-0.227949	0.308788
H159	H	0.891782	-0.303527	-0.020951
H160	H	1.391782	0.196473	0.479049
H161	H	0.914850	0.119867	0.359241
H162	H	1.414850	0.619867	0.859241
Br163	Br	0.668987	0.000318	0.525602
Br164	Br	1.168987	0.500318	1.025602
Br165	Br	0.682460	-0.550462	-0.230172
Br166	Br	1.182460	-0.050462	0.269828
H167	H	0.930842	0.000424	0.712069
H168	H	1.430842	0.500424	1.212069
H169	H	0.930762	-0.481010	0.018002
H170	H	1.430762	0.018990	0.518002
H171	H	0.727535	-0.119228	0.324378
H172	H	1.227535	0.380772	0.824378
Br173	Br	0.673035	0.000287	0.249473
Br174	Br	1.173035	0.500287	0.749473
H175	H	0.147120	0.000411	-0.205009
H176	H	0.647120	0.500411	0.294991
Br177	Br	0.649037	0.000203	0.052210
Br178	Br	1.149037	0.500203	0.552210
H179	H	0.709613	0.000283	0.102980
H180	H	1.209613	0.500283	0.602980
