data_functionalizedCrystal
_audit_creation_method	'MofGen! by Chris Wilmer'
_symmetry_space_group_name_H-M	'P1'
_symmetry_Int_Tables_number	1
_symmetry_cell_setting	triclinic
loop_
_symmetry_equiv_pos_as_xyz
  x,y,z
_cell_length_a	6.817900
_cell_length_b	15.866870
_cell_length_c	14.858572
_cell_angle_alpha	112.093349
_cell_angle_beta	104.524003
_cell_angle_gamma	102.655915
loop_
_atom_site_label
_atom_site_type_symbol
_atom_site_fract_x
_atom_site_fract_y
_atom_site_fract_z
V1	V	-4.065742	-0.133334	-0.335668
O2	O	-4.024422	0.005786	-0.282457
O3	O	-4.044008	-0.263781	-0.378402
O4	O	-4.022016	-0.131555	-0.461520
O5	O	-4.046567	-0.127355	-0.198764
V6	V	-4.545308	-0.116661	-0.313823
O7	O	-4.335678	-0.169906	-0.383586
O8	O	-4.725569	-0.080089	-0.265904
O9	O	-4.343835	0.013786	-0.271088
O10	O	-4.704024	-0.255781	-0.367033
O11	O	-4.681880	-0.122640	-0.450726
O12	O	-4.365828	-0.118440	-0.187971
C13	C	-3.895345	-0.295573	-0.384726
C14	C	-3.958894	-0.402217	-0.420506
C15	C	-3.867290	-0.126905	-0.490749
C16	C	-3.913000	-0.126314	-0.593930
C17	C	-3.935468	-0.683610	-0.088619
C18	C	-3.995192	-0.783823	-0.122270
C19	C	-4.088163	-0.811550	-0.302100
C20	C	-4.028436	-0.711337	-0.268463
C21	C	-3.952093	-0.647375	-0.161721
C22	C	-4.045061	-0.675101	-0.341565
C23	C	-3.985349	-0.574898	-0.307931
C24	C	-3.909012	-0.510929	-0.201194
C25	C	-3.892381	-0.547171	-0.128087
C26	C	-4.121418	-0.739066	-0.448307
C27	C	-4.138044	-0.702830	-0.521409
C28	C	-4.078317	-0.602624	-0.487775
C29	C	-4.001980	-0.538656	-0.381038
C30	C	-4.094948	-0.566383	-0.560882
C31	C	-4.035236	-0.466179	-0.527248
C32	C	-3.942268	-0.438452	-0.347404
C33	C	-4.080298	-0.124154	-0.971758
C34	C	-4.033742	-0.124755	-0.866634
C35	C	-3.996650	-0.125235	-0.782847
C36	C	-3.950091	-0.125834	-0.677716
C37	C	-4.155841	0.045573	-0.264763
C38	C	-4.071532	0.152216	-0.228990
C39	C	-4.183896	-0.123093	-0.158737
C40	C	-4.117424	-0.123679	-0.055554
H41	H	-3.880070	-0.386369	-0.260483
H42	H	-4.157133	-0.618476	-0.647792
C43	C	-4.133103	-0.503643	-0.708391
C44	C	-4.053498	-0.426341	-0.607600
H45	H	-4.144370	-0.479046	-0.757996
H46	H	-4.271720	-0.545281	-0.721816
H47	H	-4.037178	-0.539016	-0.713720
H48	H	-4.149431	-0.390972	-0.602269
H49	H	-3.914860	-0.384686	-0.594170
C50	C	-3.987239	-0.559441	0.047571
C51	C	-3.851537	-0.613283	0.028713
H52	H	-3.935416	-0.516019	0.120001
H53	H	-4.129703	-0.602241	0.026683
H54	H	-3.988597	-0.523534	0.008829
H55	H	-3.850191	-0.649196	0.067449
H56	H	-3.709035	-0.570477	0.049612
C57	C	-4.021642	-0.379549	-0.207926
C58	C	-3.843371	-0.400782	-0.164218
H59	H	-3.981109	-0.311549	-0.185102
H60	H	-4.135226	-0.400227	-0.186365
H61	H	-4.069469	-0.412460	-0.281958
H62	H	-3.795555	-0.367876	-0.090186
H63	H	-3.729751	-0.380093	-0.185774
C64	C	-3.598412	-0.413779	0.020042
C65	C	-3.808453	-0.476860	-0.010751
H66	H	-3.546604	-0.370380	0.092478
H67	H	-3.599790	-0.377858	-0.018675
H68	H	-3.506390	-0.450323	0.007219
H69	H	-3.900479	-0.440317	0.002065
H70	H	-3.807089	-0.512785	0.027978
C71	C	-3.897281	-0.746346	0.058883
C72	C	-3.976901	-0.823652	-0.041906
H73	H	-3.885984	-0.770937	0.108492
H74	H	-3.993190	-0.710976	0.064215
H75	H	-3.758651	-0.704705	0.072299
H76	H	-4.115539	-0.865290	-0.055325
H77	H	-3.880990	-0.859039	-0.047242
H78	H	-4.150336	-0.863641	-0.389009
H79	H	-4.170038	-0.820658	-0.475688
C80	C	-4.270845	-0.868748	-0.652823
C81	C	-4.221947	-0.773143	-0.638736
H82	H	-4.322625	-0.912152	-0.725257
H83	H	-4.378804	-0.882603	-0.625444
H84	H	-4.144253	-0.876330	-0.617335
H85	H	-4.348543	-0.765559	-0.674219
H86	H	-4.113980	-0.759283	-0.666128
