data_functionalizedCrystal
_audit_creation_method	'MofGen! by Chris Wilmer'
_symmetry_space_group_name_H-M	'P1'
_symmetry_Int_Tables_number	1
_symmetry_cell_setting	triclinic
loop_
_symmetry_equiv_pos_as_xyz
  x,y,z
_cell_length_a	21.395364
_cell_length_b	14.908506
_cell_length_c	21.395355
_cell_angle_alpha	93.281598
_cell_angle_beta	89.975448
_cell_angle_gamma	93.334836
loop_
_atom_site_label
_atom_site_type_symbol
_atom_site_fract_x
_atom_site_fract_y
_atom_site_fract_z
Zn1	Zn	0.943516	-0.358914	-0.368652
Zn2	Zn	1.443516	0.141086	0.131348
Zn3	Zn	0.937390	-0.509759	-0.269923
Zn4	Zn	1.437390	-0.009759	0.230077
Zn5	Zn	0.838729	-0.358954	-0.263890
Zn6	Zn	1.338729	0.141046	0.236110
Zn7	Zn	0.832671	-0.509775	-0.374664
Zn8	Zn	1.332671	-0.009775	0.125336
O9	O	0.888076	-0.434350	-0.319282
O10	O	1.388076	0.065650	0.180718
O11	O	1.030382	-0.378901	-0.355564
O12	O	1.530382	0.121099	0.144436
O13	O	0.924274	-0.489764	-0.181445
O14	O	1.424274	0.010236	0.318555
O15	O	0.857728	-0.232700	-0.272747
O16	O	1.357728	0.267300	0.227253
O17	O	1.025881	-0.489726	-0.283028
O18	O	1.525881	0.010274	0.216972
O19	O	0.934715	-0.232671	-0.349715
O20	O	1.434715	0.267329	0.150285
O21	O	0.851788	-0.378968	-0.177013
O22	O	1.351788	0.121032	0.322987
O23	O	0.750247	-0.378984	-0.278576
O24	O	1.250247	0.121016	0.221424
O25	O	0.847403	-0.489753	-0.461544
O26	O	1.347403	0.010247	0.038456
O27	O	0.745796	-0.489792	-0.359961
O28	O	1.245796	0.010208	0.140039
O29	O	0.928840	-0.378916	-0.457127
O30	O	1.428840	0.121084	0.042873
O31	O	0.918400	-0.636010	-0.288857
O32	O	1.418400	-0.136010	0.211143
O33	O	0.841463	-0.636021	-0.365810
O34	O	1.341463	-0.136021	0.134190
C35	C	0.725287	-0.434394	-0.319266
C36	C	1.225287	0.065606	0.180734
C37	C	0.655644	-0.434435	-0.319275
C38	C	1.155644	0.065565	0.180725
C39	C	0.625293	-0.376823	-0.357111
C40	C	1.125293	0.123177	0.142889
C41	C	0.559859	-0.376799	-0.357112
C42	C	1.059859	0.123201	0.142888
C43	C	0.524777	-0.434403	-0.319286
C44	C	1.024777	0.065597	0.180714
C45	C	0.555136	-0.492019	-0.281443
C46	C	1.055136	0.007981	0.218557
C47	C	0.620569	-0.492035	-0.281438
C48	C	1.120569	0.007965	0.218562
C49	C	0.417806	-0.515650	-0.317506
C50	C	0.917806	-0.015650	0.182494
C51	C	0.352374	-0.515635	-0.317515
C52	C	0.852374	-0.015635	0.182485
C53	C	0.322958	-0.434353	-0.319297
C54	C	0.822958	0.065647	0.180703
C55	C	0.358984	-0.353083	-0.321083
C56	C	0.858984	0.146917	0.178917
C57	C	0.424417	-0.353099	-0.321078
C58	C	0.924417	0.146901	0.178922
C59	C	0.453825	-0.434392	-0.319287
C60	C	0.953825	0.065608	0.180713
C61	C	0.221656	-0.376710	-0.357136
C62	C	0.721656	0.123290	0.142864
C63	C	0.156220	-0.376685	-0.357133
C64	C	0.656220	0.123315	0.142867
C65	C	0.151499	-0.491913	-0.281467
C66	C	0.651499	0.008087	0.218533
C67	C	0.216933	-0.491931	-0.281467
C68	C	0.716933	0.008069	0.218533
C69	C	0.252008	-0.434331	-0.319305
C70	C	0.752008	0.065669	0.180695
C71	C	0.878626	-0.668750	-0.328654
C72	C	1.378626	-0.168750	0.171346
C73	C	0.874641	-0.769028	-0.332685
C74	C	1.374641	-0.269028	0.167315
C75	C	0.828936	-0.910403	-0.378392
C76	C	1.328936	-0.410403	0.121608
C77	C	0.832679	-0.816183	-0.374610
C78	C	1.332679	-0.316183	0.125390
C79	C	0.912863	-0.816098	-0.294540
C80	C	1.412863	-0.316098	0.205460
C81	C	0.909120	-0.910317	-0.298323
C82	C	1.409120	-0.410317	0.201677
C83	C	0.867154	-0.957466	-0.340249
C84	C	1.367154	-0.457466	0.159751
C85	C	0.863408	-1.051688	-0.344028
C86	C	1.363408	-0.551688	0.155972
C87	C	0.943595	-1.051601	-0.263962
C88	C	1.443595	-0.551601	0.236038
C89	C	0.947339	-0.957381	-0.260180
C90	C	1.447339	-0.457381	0.239820
C91	C	1.051501	-0.434307	-0.319299
C92	C	1.551501	0.065693	0.180701
C93	C	1.121143	-0.434289	-0.319306
C94	C	1.621143	0.065711	0.180694
C95	C	0.888129	-0.434332	-0.482705
C96	C	1.388129	0.065668	0.017295
C97	C	0.888152	-0.434324	-0.552346
C98	C	1.388152	0.065676	-0.052346
C99	C	0.897581	-0.199035	-0.309887
C100	C	1.397581	0.300965	0.190113
C101	C	0.901631	-0.098758	-0.305884
C102	C	1.401631	0.401242	0.194116
C103	C	0.930554	-0.376609	-0.582760
C104	C	1.430554	0.123391	-0.082760
C105	C	0.930555	-0.376570	-0.648194
C106	C	1.430555	0.123430	-0.148194
C107	C	0.888159	-0.434263	-0.683212
C108	C	1.388159	0.065737	-0.183212
C109	C	0.845748	-0.491982	-0.652790
C110	C	1.345748	0.008018	-0.152790
C111	C	0.845745	-0.492013	-0.587357
C112	C	1.345745	0.007987	-0.087357
C113	C	0.879937	-0.515498	-0.790134
C114	C	1.379937	-0.015498	-0.290134
C115	C	0.879945	-0.515469	-0.855566
C116	C	1.379945	-0.015469	-0.355566
C117	C	0.888167	-0.434168	-0.885029
C118	C	1.388167	0.065832	-0.385029
C119	C	0.896394	-0.352893	-0.849051
C120	C	1.396394	0.147107	-0.349051
C121	C	0.896390	-0.352924	-0.783618
C122	C	1.396390	0.147076	-0.283618
C123	C	0.888158	-0.434236	-0.754163
C124	C	1.388158	0.065764	-0.254163
C125	C	0.930573	-0.376405	-0.986394
C126	C	1.430573	0.123595	-0.486394
C127	C	0.930569	-0.376365	-1.051829
C128	C	1.430569	0.123635	-0.551829
C129	C	0.845765	-0.491785	-1.056424
C130	C	1.345765	0.008215	-0.556424
C131	C	0.845766	-0.491817	-0.990990
C132	C	1.345766	0.008183	-0.490990
C133	C	0.888173	-0.434129	-0.955979
C134	C	1.388173	0.065871	-0.455979
C135	C	0.888063	-0.434304	-0.156493
C136	C	1.388063	0.065696	0.343507
C137	C	0.888172	-0.434057	-0.086842
C138	C	1.388172	0.065943	0.413158
H139	H	0.653847	-0.329919	-0.387921
H140	H	1.153847	0.170081	0.112079
H141	H	0.974716	-1.089930	-0.232903
H142	H	1.474716	-0.589930	0.267097
C143	C	0.653956	-0.555420	-0.239817
C144	C	1.153956	-0.055420	0.260183
N145	N	0.679104	-0.603165	-0.208469
N146	N	1.179104	-0.103165	0.291531
H147	H	0.801559	-0.777866	-0.405670
H148	H	1.301559	-0.277866	0.094330
H149	H	0.794766	-0.948792	-0.412532
H150	H	1.294766	-0.448792	0.087468
H151	H	0.811227	-0.538953	-0.681305
H152	H	1.311227	-0.038953	-0.181305
C153	C	0.959024	-0.764218	-0.248426
C154	C	1.459024	-0.264218	0.251574
N155	N	0.993792	-0.725141	-0.213692
N156	N	1.493792	-0.225141	0.286308
H157	H	0.981508	-0.918982	-0.226045
H158	H	1.481508	-0.418982	0.273955
C159	C	0.977207	-0.313082	-0.681657
C160	C	1.477207	0.186918	-0.181657
N161	N	1.012347	-0.265265	-0.706860
N162	N	1.512347	0.234735	-0.206860
C163	C	0.977196	-0.313138	-0.544251
C164	C	1.477196	0.186862	-0.044251
N165	N	1.012324	-0.265327	-0.515245
N166	N	1.512324	0.234673	-0.015245
C167	C	0.799129	-0.555249	-1.094939
C168	C	1.299129	-0.055249	-0.594939
N169	N	0.764001	-0.603051	-1.123953
N170	N	1.264001	-0.103051	-0.623953
C171	C	0.799098	-0.555509	-0.553900
C172	C	1.299098	-0.055509	-0.053900
N173	N	0.763963	-0.603337	-0.528700
N174	N	1.263963	-0.103337	-0.028700
C175	C	0.905432	-0.263523	-0.744046
C176	C	1.405432	0.236477	-0.244046
N177	N	0.912238	-0.196185	-0.714240
N178	N	1.412238	0.303815	-0.214240
C179	C	0.516545	-0.555385	-0.239834
C180	C	1.016545	-0.055385	0.260166
N181	N	0.487478	-0.603112	-0.208491
N182	N	0.987478	-0.103112	0.291509
C183	C	0.526465	-0.313424	-0.398739
C184	C	1.026465	0.186576	0.101261
N185	N	0.501315	-0.265692	-0.430095
N186	N	1.001315	0.234308	0.069905
C187	C	0.905438	-0.263454	-0.881455
C188	C	1.405438	0.236546	-0.381455
N189	N	0.912250	-0.196091	-0.905864
N190	N	1.412250	0.303909	-0.405864
C191	C	0.977215	-0.312939	-0.947879
C192	C	1.477215	0.187061	-0.447879
N193	N	1.012346	-0.265135	-0.918872
N194	N	1.512346	0.234865	-0.418872
C195	C	0.312752	-0.605032	-0.315543
C196	C	0.812752	-0.105032	0.184457
N197	N	0.282910	-0.672368	-0.314054
N198	N	0.782910	-0.172368	0.185946
H199	H	0.250216	-0.329803	-0.387942
H200	H	0.750216	0.170197	0.112058
C201	C	0.977217	-0.312868	-1.085284
C202	C	1.477217	0.187132	-0.585284
N203	N	1.012353	-0.265043	-1.110483
N204	N	1.512353	0.234957	-0.610483
C205	C	0.122835	-0.313302	-0.398757
C206	C	0.622835	0.186698	0.101243
N207	N	0.097688	-0.265562	-0.430109
N208	N	0.597688	0.234438	0.069891
C209	C	0.799121	-0.555313	-0.957533
C210	C	1.299121	-0.055313	-0.457533
N211	N	0.763985	-0.603139	-0.932333
N212	N	1.263985	-0.103139	-0.432333
H213	H	0.241645	-0.538849	-0.250660
H214	H	0.741645	-0.038849	0.249340
C215	C	0.870894	-0.604871	-0.895135
C216	C	1.370894	-0.104871	-0.395135
N217	N	0.864075	-0.672212	-0.924937
N218	N	1.364075	-0.172212	-0.424937
H219	H	0.453747	-0.286927	-0.322531
H220	H	0.953747	0.213073	0.177469
C221	C	0.326633	-0.263665	-0.323038
C222	C	0.826633	0.236335	0.176962
N223	N	0.302263	-0.196318	-0.324510
N224	N	0.802263	0.303682	0.175490
H225	H	0.873074	-0.581686	-0.766151
H226	H	1.373074	-0.081686	-0.266151
H227	H	0.122936	-0.538816	-0.250668
H228	H	0.622936	-0.038816	0.249332
H229	H	0.441750	-0.581844	-0.316054
H230	H	0.941750	-0.081844	0.183946
H231	H	0.829239	-1.090075	-0.378169
H232	H	1.329239	-0.590075	0.121831
