data_functionalizedCrystal
_audit_creation_method	'MofGen! by Chris Wilmer'
_symmetry_space_group_name_H-M	'P1'
_symmetry_Int_Tables_number	1
_symmetry_cell_setting	triclinic
loop_
_symmetry_equiv_pos_as_xyz
  x,y,z
_cell_length_a	27.732048
_cell_length_b	10.268362
_cell_length_c	27.732048
_cell_angle_alpha	90.010224
_cell_angle_beta	97.357345
_cell_angle_gamma	90.000911
loop_
_atom_site_label
_atom_site_type_symbol
_atom_site_fract_x
_atom_site_fract_y
_atom_site_fract_z
O1	O	0.640927	-0.108146	-0.057517
O2	O	1.140927	0.391854	0.442483
O3	O	0.500134	-0.108188	-0.066263
O4	O	1.000134	0.391812	0.433737
O5	O	0.574903	-0.108141	0.008507
O6	O	1.074903	0.391859	0.508507
O7	O	0.566158	-0.108193	-0.132287
O8	O	1.066158	0.391807	0.367713
O9	O	0.574897	0.108460	0.008510
O10	O	1.074897	0.608460	0.508510
O11	O	0.500127	0.108413	-0.066260
O12	O	1.000127	0.608413	0.433740
O13	O	0.640921	0.108454	-0.057514
O14	O	1.140921	0.608454	0.442486
Cu15	Cu	0.570523	0.128211	-0.061887
Cu16	Cu	1.070523	0.628211	0.438113
Cu17	Cu	0.570531	-0.127944	-0.061890
Cu18	Cu	1.070531	0.372056	0.438110
O19	O	0.566151	0.108408	-0.132284
O20	O	1.066151	0.608408	0.367716
C21	C	0.482124	0.000108	-0.066078
C22	C	0.982124	0.500108	0.433922
C23	C	0.428469	0.000093	-0.065525
C24	C	0.928469	0.500093	0.434475
N25	N	0.570522	0.308377	-0.061884
N26	N	1.070522	0.808377	0.438116
N27	N	0.570537	-0.308110	-0.061889
N28	N	1.070537	0.191890	0.438111
C29	C	0.089654	0.000134	-0.106229
C30	C	0.589654	0.500134	0.393771
C31	C	-0.112006	0.000147	-0.104178
C32	C	0.387994	0.500147	0.395822
O33	O	-0.143262	0.000189	-0.141398
O34	O	0.356738	0.500189	0.358602
N35	N	-0.131130	0.000161	-0.059843
N36	N	0.368870	0.500161	0.440157
C37	C	-0.099835	0.000180	-0.016017
C38	C	0.400165	0.500180	0.483983
O39	O	-0.120728	0.000206	0.021740
O40	O	0.379272	0.500206	0.521740
C41	C	0.101824	0.000177	-0.018068
C42	C	0.601824	0.500177	0.481932
C43	C	0.120944	0.000150	-0.062407
C44	C	0.620944	0.500150	0.437593
C45	C	0.108775	0.000108	-0.150563
C46	C	0.608775	0.500108	0.349437
C47	C	0.159187	0.000098	-0.151075
C48	C	0.659187	0.500098	0.348925
C49	C	0.190477	0.000114	-0.107253
C50	C	0.690477	0.500114	0.392747
C51	C	0.171356	0.000140	-0.062919
C52	C	0.671356	0.500140	0.437081
C53	C	0.133117	0.000206	0.025757
C54	C	0.633117	0.500206	0.525757
C55	C	0.183535	0.000209	0.025240
C56	C	0.683535	0.500209	0.525240
C57	C	0.202655	0.000181	-0.019098
C58	C	0.702655	0.500181	0.480902
C59	C	0.253059	0.000145	-0.019609
C60	C	0.753059	0.500145	0.480391
N61	N	0.272183	0.000131	-0.063944
N62	N	0.772183	0.500131	0.436056
C63	C	0.240892	0.000116	-0.107766
C64	C	0.740892	0.500116	0.392234
C65	C	-0.205709	0.000179	-0.014943
C66	C	0.294291	0.500179	0.485057
C67	C	-0.256124	0.000178	-0.014430
C68	C	0.243876	0.500178	0.485570
C69	C	-0.268291	0.000147	-0.102591
C70	C	0.231709	0.500147	0.397409
C71	C	-0.217876	0.000139	-0.103104
C72	C	0.282124	0.500139	0.396896
C73	C	-0.186585	0.000165	-0.059278
C74	C	0.313415	0.500165	0.440722
C75	C	0.346761	0.000093	-0.108839
C76	C	0.846761	0.500093	0.391161
C77	C	0.397178	0.000077	-0.109347
C78	C	0.897178	0.500077	0.390653
C79	C	0.409341	0.000115	-0.021186
C80	C	0.909341	0.500115	0.478814
C81	C	0.358929	0.000124	-0.020678
C82	C	0.858929	0.500124	0.479322
C83	C	0.327639	0.000117	-0.064508
C84	C	0.827639	0.500117	0.435492
O85	O	0.284343	0.000117	0.017592
O86	O	0.784343	0.500117	0.517592
O87	O	0.261794	0.000119	-0.145518
O88	O	0.761794	0.500119	0.354482
C89	C	0.039242	0.000145	-0.105716
C90	C	0.539242	0.500145	0.394284
C91	C	0.020120	0.000170	-0.061382
C92	C	0.520120	0.500170	0.438618
C93	C	0.051411	0.000186	-0.017560
C94	C	0.551411	0.500186	0.482440
C95	C	-0.030294	0.000169	-0.060869
C96	C	0.469706	0.500169	0.439131
C97	C	-0.061585	0.000153	-0.104691
C98	C	0.438415	0.500153	0.395309
C99	C	-0.042461	0.000139	-0.149026
C100	C	0.457539	0.500139	0.350974
C101	C	0.007951	0.000129	-0.149539
C102	C	0.507951	0.500129	0.350461
C103	C	0.032287	0.000200	0.026775
C104	C	0.532287	0.500200	0.526775
C105	C	-0.018125	0.000209	0.027284
C106	C	0.481875	0.500209	0.527284
C107	C	-0.049416	0.000193	-0.016538
C108	C	0.450584	0.500193	0.483462
C109	C	0.658931	0.000156	-0.057699
C110	C	1.158931	0.500156	0.442301
C111	C	0.712586	0.000162	-0.058252
C112	C	1.212586	0.500162	0.441748
C113	C	0.574716	0.000163	0.026515
C114	C	1.074716	0.500163	0.526515
C115	C	0.574164	0.000174	0.080170
C116	C	1.074164	0.500174	0.580170
C117	C	0.570529	0.574047	-0.061889
C118	C	1.070529	1.074047	0.438111
C119	C	0.570523	0.426210	-0.061888
C120	C	1.070523	0.926210	0.438112
C121	C	0.566338	0.000101	-0.150292
C122	C	1.066338	0.500101	0.349708
C123	C	0.566891	0.000082	-0.203947
C124	C	1.066891	0.500082	0.296053
C125	C	0.614867	0.000119	0.418985
C126	C	1.114867	0.500119	0.918985
C127	C	0.612816	0.000100	0.620645
C128	C	1.112816	0.500100	1.120645
O129	O	0.650037	0.000054	0.651900
O130	O	1.150037	0.500054	1.151900
N131	N	0.568481	0.000088	0.639768
N132	N	1.068481	0.500088	1.139768
C133	C	0.524656	0.000072	0.608474
C134	C	1.024656	0.500072	1.108474
O135	O	0.486899	0.000048	0.629367
O136	O	0.986899	0.500048	1.129367
C137	C	0.526707	0.000082	0.406815
C138	C	1.026707	0.500082	0.906815
C139	C	0.571045	0.000107	0.387694
C140	C	1.071045	0.500107	0.887694
C141	C	0.659202	0.000142	0.399864
C142	C	1.159202	0.500142	0.899864
C143	C	0.659714	0.000154	0.349452
C144	C	1.159714	0.500154	0.849452
C145	C	0.615892	0.000142	0.318161
C146	C	1.115892	0.500142	0.818161
C147	C	0.571557	0.000119	0.337282
C148	C	1.071557	0.500119	0.837282
C149	C	0.482882	0.000057	0.375521
C150	C	0.982882	0.500057	0.875521
C151	C	0.483399	0.000056	0.325104
C152	C	0.983399	0.500056	0.825104
C153	C	0.527737	0.000081	0.305983
C154	C	1.027737	0.500081	0.805983
C155	C	0.528247	0.000119	0.255580
C156	C	1.028247	0.500119	0.755580
N157	N	0.572583	0.000130	0.236456
N158	N	1.072583	0.500130	0.736456
C159	C	0.616405	0.000142	0.267747
C160	C	1.116405	0.500142	0.767747
C161	C	0.523582	0.000070	0.714348
C162	C	1.023582	0.500070	1.214348
C163	C	0.523069	0.000070	0.764762
C164	C	1.023069	0.500070	1.264762
C165	C	0.611230	0.000095	0.776930
C166	C	1.111230	0.500095	1.276930
C167	C	0.611742	0.000104	0.726514
C168	C	1.111742	0.500104	1.226514
C169	C	0.567917	0.000082	0.695224
C170	C	1.067917	0.500082	1.195224
C171	C	0.617477	0.000168	0.161878
C172	C	1.117477	0.500168	0.661878
C173	C	0.617986	0.000185	0.111461
C174	C	1.117986	0.500185	0.611461
C175	C	0.529825	0.000153	0.099298
C176	C	1.029825	0.500153	0.599298
C177	C	0.529316	0.000143	0.149710
C178	C	1.029316	0.500143	0.649710
C179	C	0.573147	0.000146	0.180999
C180	C	1.073147	0.500146	0.680999
O181	O	0.491047	0.000150	0.224296
O182	O	0.991047	0.500150	0.724296
O183	O	0.654156	0.000137	0.246844
O184	O	1.154156	0.500137	0.746844
C185	C	0.614355	0.000107	0.469397
C186	C	1.114355	0.500107	0.969397
C187	C	0.570021	0.000083	0.488518
C188	C	1.070021	0.500083	0.988518
C189	C	0.526198	0.000071	0.457228
C190	C	1.026198	0.500071	0.957228
C191	C	0.569508	0.000083	0.538933
C192	C	1.069508	0.500083	1.038933
C193	C	0.613330	0.000095	0.570223
C194	C	1.113330	0.500095	1.070223
C195	C	0.657665	0.000107	0.551100
C196	C	1.157665	0.500107	1.051100
C197	C	0.658177	0.000119	0.500688
C198	C	1.158177	0.500119	1.000688
C199	C	0.481863	0.000060	0.476351
C200	C	0.981863	0.500060	0.976351
C201	C	0.481355	0.000049	0.526764
C202	C	0.981355	0.500049	1.026764
C203	C	0.525177	0.000061	0.558054
C204	C	1.025177	0.500061	1.058054
H205	H	0.412743	0.000054	-0.145454
H206	H	0.912743	0.500054	0.354546
C207	C	-0.038948	0.000438	0.075391
C208	C	0.461052	0.500438	0.575391
C209	C	-0.067540	0.111868	0.078257
C210	C	0.432460	0.611868	0.578257
C211	C	-0.086734	0.112125	0.122561
C212	C	0.413266	0.612125	0.622561
H213	H	-0.013139	0.000515	0.101456
H214	H	0.486861	0.500515	0.601456
H215	H	-0.058392	-0.075050	0.077431
H216	H	0.441608	0.424950	0.577431
H217	H	-0.048097	0.187335	0.076221
H218	H	0.451903	0.687335	0.576221
H219	H	-0.093357	0.111814	0.052202
H220	H	0.406643	0.611814	0.552202
H221	H	-0.106178	0.036637	0.124601
H222	H	0.393822	0.536637	0.624601
H223	H	-0.060921	0.112198	0.148622
H224	H	0.439079	0.612198	0.648622
H225	H	-0.106139	0.187722	0.124509
H226	H	0.393861	0.687722	0.624509
H227	H	0.486964	0.000072	0.780325
H228	H	0.986964	0.500072	1.280325
C229	C	0.112461	0.000316	0.073946
C230	C	0.612461	0.500316	0.573946
C231	C	0.150663	0.000377	0.112208
C232	C	0.650663	0.500377	0.612208
C233	C	0.131654	0.000501	0.156610
C234	C	0.631654	0.500501	0.656610
H235	H	0.093053	-0.075189	0.076057
H236	H	0.593053	0.424811	0.576057
H237	H	0.093065	0.075888	0.076005
H238	H	0.593065	0.575888	0.576005
H239	H	0.170051	-0.075187	0.110150
H240	H	0.670051	0.424813	0.610150
H241	H	0.170074	0.075876	0.110113
H242	H	0.670074	0.575876	0.610113
H243	H	0.112258	0.076072	0.158668
H244	H	0.612258	0.576072	0.658668
H245	H	0.112247	-0.075006	0.158715
H246	H	0.612247	0.424994	0.658715
H247	H	0.157571	0.000554	0.182575
H248	H	0.657571	0.500554	0.682575
H249	H	0.174750	0.000076	-0.187180
H250	H	0.674750	0.500076	0.312820
H251	H	0.693347	0.000122	0.576585
H252	H	1.193347	0.500122	1.076585
H253	H	0.447710	0.000036	0.299629
H254	H	0.947710	0.500036	0.799629
H255	H	0.209009	0.000231	0.060929
H256	H	0.709009	0.500231	0.560929
H257	H	0.445246	0.000040	0.542327
H258	H	0.945246	0.500040	1.042327
H259	H	0.343360	0.000127	0.015426
H260	H	0.843360	0.500127	0.515426
H261	H	0.493213	0.000159	0.165279
H262	H	0.993213	0.500159	0.665279
C263	C	0.434230	0.000123	0.442463
C264	C	0.934230	0.500123	0.942463
C265	C	0.395298	0.000144	0.470007
C266	C	0.895298	0.500144	0.970007
C267	C	0.351408	0.000230	0.438808
C268	C	0.851408	0.500230	0.938808
H269	H	0.432524	-0.075382	0.422523
H270	H	0.932524	0.424618	0.922523
H271	H	0.432568	0.075694	0.422559
H272	H	0.932568	0.575694	0.922559
H273	H	0.396959	-0.075419	0.489903
H274	H	0.896959	0.424581	0.989903
H275	H	0.396988	0.075644	0.489946
H276	H	0.896988	0.575644	0.989946
H277	H	0.349746	0.075801	0.418904
H278	H	0.849746	0.575801	0.918904
H279	H	0.349707	-0.075277	0.418869
H280	H	0.849707	0.424723	0.918869
H281	H	0.324988	0.000256	0.457492
H282	H	0.824988	0.500256	0.957492
C283	C	0.482212	-0.000072	0.065375
C284	C	0.982212	0.499928	0.565375
C285	C	0.455496	-0.111511	0.073965
C286	C	0.955496	0.388489	0.573965
C287	C	0.411631	-0.111766	0.042727
C288	C	0.911631	0.388234	0.542727
H289	H	0.488804	-0.000136	0.032596
H290	H	0.988804	0.499864	0.532596
H291	H	0.463982	0.075409	0.071144
H292	H	0.963982	0.575409	0.571144
H293	H	0.473723	-0.186973	0.068192
H294	H	0.973723	0.313027	0.568192
H295	H	0.448892	-0.111470	0.106738
H296	H	0.948892	0.388530	0.606738
H297	H	0.393401	-0.036285	0.048497
H298	H	0.893401	0.463715	0.548497
H299	H	0.418227	-0.111827	0.009951
H300	H	0.918227	0.388173	0.509951
H301	H	0.393496	-0.187369	0.048555
H302	H	0.893496	0.312631	0.548555
H303	H	0.446777	0.000029	0.391080
H304	H	0.946777	0.500029	0.891080
C305	C	0.312875	0.000008	-0.156477
C306	C	0.812875	0.500008	0.343523
C307	C	0.340420	-0.000055	-0.195408
C308	C	0.840420	0.499945	0.304592
C309	C	0.309221	-0.000162	-0.239299
C310	C	0.809221	0.499838	0.260701
H311	H	0.292944	0.075520	-0.158184
H312	H	0.792944	0.575520	0.341816
H313	H	0.292961	-0.075557	-0.158137
H314	H	0.792961	0.424443	0.341863
H315	H	0.360325	0.075502	-0.193748
H316	H	0.860325	0.575502	0.306252
H317	H	0.360350	-0.075561	-0.193717
H318	H	0.860350	0.424439	0.306283
H319	H	0.289308	-0.075726	-0.240959
H320	H	0.789308	0.424274	0.259041
H321	H	0.289292	0.075352	-0.241001
H322	H	0.789292	0.575352	0.258999
H323	H	0.327906	-0.000216	-0.265718
H324	H	0.827906	0.499784	0.234282
H325	H	0.487892	0.000052	0.688875
H326	H	0.987892	0.500052	1.188875
H327	H	0.083302	0.000100	-0.186251
H328	H	0.583302	0.500100	0.313749
H329	H	0.646911	0.000105	0.802415
H330	H	1.146911	0.500105	1.302415
H331	H	0.057760	0.000216	0.062462
H332	H	0.557760	0.500216	0.562462
H333	H	-0.202311	0.000124	-0.139207
H334	H	0.297689	0.500124	0.360793
H335	H	-0.293777	0.000134	-0.138273
H336	H	0.206223	0.500134	0.361727
C337	C	-0.276786	0.000258	0.033759
C338	C	0.223214	0.500258	0.533759
C339	C	-0.238586	0.000308	0.072023
C340	C	0.261414	0.500308	0.572023
C341	C	-0.257599	0.000407	0.116423
C342	C	0.242401	0.500407	0.616423
H343	H	-0.296192	-0.075254	0.035863
H344	H	0.203808	0.424746	0.535863
H345	H	-0.296184	0.075823	0.035820
H346	H	0.203816	0.575823	0.535820
H347	H	-0.219196	-0.075250	0.069963
H348	H	0.280804	0.424750	0.569963
H349	H	-0.219177	0.075814	0.069935
H350	H	0.280823	0.575814	0.569935
H351	H	-0.276998	0.075973	0.118485
H352	H	0.223002	0.575973	0.618485
H353	H	-0.277006	-0.075105	0.118522
H354	H	0.222994	0.424895	0.618522
H355	H	-0.231684	0.000453	0.142391
H356	H	0.268316	0.500453	0.642391
C357	C	0.706302	0.000401	0.479905
C358	C	1.206302	0.500401	0.979905
C359	C	0.709181	0.111856	0.451336
C360	C	1.209181	0.611856	0.951336
C361	C	0.753512	0.112165	0.432193
C362	C	1.253512	0.612165	0.932193
H363	H	0.708387	-0.075042	0.460453
H364	H	1.208387	0.424958	0.960453
H365	H	0.732338	0.000474	0.505753
H366	H	1.232338	0.500474	1.005753
H367	H	0.683152	0.111770	0.425492
H368	H	1.183152	0.611770	0.925492
H369	H	0.707105	0.187317	0.470777
H370	H	1.207105	0.687317	0.970777
H371	H	0.779548	0.112238	0.458041
H372	H	1.279548	0.612238	0.958041
H373	H	0.755593	0.036717	0.412744
H374	H	1.255593	0.536717	0.912744
H375	H	0.755473	0.187791	0.412811
H376	H	1.255473	0.687791	0.912811
C377	C	-0.171685	-0.000011	0.032607
C378	C	0.328315	0.499989	0.532607
C379	C	-0.142379	-0.111431	0.034883
C380	C	0.357621	0.388569	0.534883
C381	C	-0.111029	-0.111650	0.078676
C382	C	0.388971	0.388350	0.578676
H383	H	-0.190239	-0.000074	0.059121
H384	H	0.309761	0.499926	0.559121
H385	H	-0.151735	0.075483	0.034251
H386	H	0.348265	0.575483	0.534251
H387	H	-0.162327	-0.186905	0.033243
H388	H	0.337673	0.313095	0.533243
H389	H	-0.123815	-0.111392	0.008379
H390	H	0.376185	0.388608	0.508379
H391	H	-0.091079	-0.036156	0.080320
H392	H	0.408921	0.463844	0.580320
H393	H	-0.129587	-0.111710	0.105186
H394	H	0.370413	0.388290	0.605186
H395	H	-0.091139	-0.187241	0.080224
H396	H	0.408861	0.312759	0.580224
H397	H	0.023514	0.000108	-0.185643
H398	H	0.523514	0.500108	0.314357
C399	C	-0.076520	0.000189	-0.196554
C400	C	0.423480	0.500189	0.303446
C401	C	-0.124761	0.000234	-0.186608
C402	C	0.375239	0.500234	0.313392
C403	C	-0.156151	0.000305	-0.230376
C404	C	0.343849	0.500305	0.269624
H405	H	-0.070827	-0.075330	-0.214789
H406	H	0.429173	0.424670	0.285211
H407	H	-0.070787	0.075747	-0.214752
H408	H	0.429213	0.575747	0.285248
H409	H	-0.130492	-0.075316	-0.168418
H410	H	0.369508	0.424684	0.331582
H411	H	-0.130469	0.075748	-0.168380
H412	H	0.369531	0.575748	0.331620
H413	H	-0.150418	0.075863	-0.248574
H414	H	0.349582	0.575863	0.251426
H415	H	-0.150454	-0.075215	-0.248607
H416	H	0.349546	0.424785	0.251393
H417	H	-0.188886	0.000348	-0.223634
H418	H	0.311114	0.500348	0.276366
C419	C	0.665116	0.000244	0.195764
C420	C	1.165116	0.500244	0.695764
C421	C	0.704047	0.000303	0.168219
C422	C	1.204047	0.500303	0.668219
C423	C	0.747937	0.000399	0.199417
C424	C	1.247937	0.500399	0.699417
H425	H	0.666825	-0.075270	0.215689
H426	H	1.166825	0.424730	0.715689
H427	H	0.666774	0.075807	0.215682
H428	H	1.166774	0.575807	0.715682
H429	H	0.702389	-0.075252	0.148308
H430	H	1.202389	0.424748	0.648308
H431	H	0.702353	0.075812	0.148294
H432	H	1.202353	0.575812	0.648294
H433	H	0.749595	0.075962	0.219336
H434	H	1.249595	0.575962	0.719336
H435	H	0.749642	-0.075116	0.219341
H436	H	1.249642	0.424884	0.719341
H437	H	0.774357	0.000451	0.180733
H438	H	1.274357	0.500451	0.680733
H439	H	0.694889	0.000147	0.425336
H440	H	1.194889	0.500147	0.925336
C441	C	0.659845	-0.000085	0.705690
C442	C	1.159845	0.499915	1.205690
C443	C	0.662715	-0.111507	0.677088
C444	C	1.162715	0.388493	1.177088
C445	C	0.707020	-0.111721	0.657895
C446	C	1.207020	0.388279	1.157895
H447	H	0.685910	-0.000142	0.731500
H448	H	1.185910	0.499858	1.231500
H449	H	0.661882	0.075408	0.686253
H450	H	1.161882	0.575408	1.186253
H451	H	0.660683	-0.186980	0.696524
H452	H	1.160683	0.313020	1.196524
H453	H	0.636661	-0.111473	0.651271
H454	H	1.136661	0.388527	1.151271
H455	H	0.709057	-0.036228	0.638457
H456	H	1.209057	0.463772	1.138457
H457	H	0.733081	-0.111775	0.683707
H458	H	1.233081	0.388225	1.183707
H459	H	0.708971	-0.187313	0.638483
H460	H	1.208971	0.312687	1.138483
H461	H	0.434827	0.000123	0.014492
H462	H	0.934827	0.500123	0.514492
H463	H	0.654093	0.000209	0.095896
H464	H	1.154093	0.500209	0.595896
H465	H	0.695819	0.000169	0.333889
H466	H	1.195819	0.500169	0.833889
