data_functionalizedCrystal
_audit_creation_method	'MofGen! by Chris Wilmer'
_symmetry_space_group_name_H-M	'P1'
_symmetry_Int_Tables_number	1
_symmetry_cell_setting	triclinic
loop_
_symmetry_equiv_pos_as_xyz
  x,y,z
_cell_length_a	19.805407
_cell_length_b	15.299816
_cell_length_c	19.805399
_cell_angle_alpha	99.658849
_cell_angle_beta	89.975799
_cell_angle_gamma	80.351068
loop_
_atom_site_label
_atom_site_type_symbol
_atom_site_fract_x
_atom_site_fract_y
_atom_site_fract_z
Zn1	Zn	1.081373	-0.359103	-0.429497
Zn2	Zn	1.581373	0.140897	0.070503
Zn3	Zn	1.100876	-0.509929	-0.335920
Zn4	Zn	1.600876	-0.009929	0.164080
Zn5	Zn	0.968191	-0.359126	-0.316315
Zn6	Zn	1.468191	0.140874	0.183685
Zn7	Zn	0.987733	-0.509879	-0.449051
Zn8	Zn	1.487733	-0.009879	0.050949
O9	O	1.034543	-0.434509	-0.382696
O10	O	1.534543	0.065491	0.117304
O11	O	1.178678	-0.379122	-0.417105
O12	O	1.678678	0.120878	0.082895
O13	O	1.083258	-0.489955	-0.238607
O14	O	1.583258	0.010045	0.261393
O15	O	0.966864	-0.232912	-0.314941
O16	O	1.466864	0.267088	0.185059
O17	O	1.193007	-0.489933	-0.348354
O18	O	1.693007	0.010067	0.151646
O19	O	1.050019	-0.232895	-0.398095
O20	O	1.550019	0.267105	0.101905
O21	O	0.985775	-0.379161	-0.224203
O22	O	1.485775	0.120839	0.275797
O23	O	0.876065	-0.379113	-0.333902
O24	O	1.376065	0.120887	0.166098
O25	O	1.000171	-0.489848	-0.541170
O26	O	1.500171	0.010152	-0.041170
O27	O	0.890422	-0.489870	-0.431423
O28	O	1.390422	0.010130	0.068577
O29	O	1.068968	-0.379074	-0.526803
O30	O	1.568968	0.120926	-0.026803
O31	O	1.102207	-0.636134	-0.367316
O32	O	1.602207	-0.136134	0.132684
O33	O	1.019082	-0.636097	-0.450433
O34	O	1.519082	-0.136097	0.049567
C35	C	0.858684	-0.434489	-0.382657
C36	C	1.358684	0.065511	0.117343
C37	C	0.783454	-0.434502	-0.382660
C38	C	1.283454	0.065498	0.117340
C39	C	1.064900	-0.668841	-0.413138
C40	C	1.564900	-0.168841	0.086862
C41	C	1.077948	-0.769089	-0.426184
C42	C	1.577948	-0.269089	0.073816
C43	C	0.329172	-0.492289	-0.433464
C44	C	0.829172	0.007711	0.066536
C45	C	0.399860	-0.492288	-0.433450
C46	C	0.899860	0.007712	0.066550
C47	C	0.427696	-0.434531	-0.382725
C48	C	0.927696	0.065469	0.117275
C49	C	0.384841	-0.376779	-0.332008
C50	C	0.884841	0.123221	0.167992
C51	C	0.314154	-0.376786	-0.332020
C52	C	0.814154	0.123214	0.167980
C53	C	0.669910	-0.376751	-0.331957
C54	C	1.169910	0.123249	0.168043
C55	C	0.740602	-0.376747	-0.331949
C56	C	1.240602	0.123253	0.168051
C57	C	0.755616	-0.492253	-0.433386
C58	C	1.255616	0.007747	0.066614
C59	C	0.684930	-0.492260	-0.433399
C60	C	1.184930	0.007740	0.066601
C61	C	0.642081	-0.434512	-0.382680
C62	C	1.142081	0.065488	0.117320
C63	C	0.565433	-0.434515	-0.382695
C64	C	1.065433	0.065485	0.117305
C65	C	0.504342	-0.434522	-0.382712
C66	C	1.004342	0.065478	0.117288
C67	C	0.941726	-1.052005	-0.289684
C68	C	1.441726	-0.552005	0.210316
C69	C	0.929463	-0.957817	-0.277429
C70	C	1.429463	-0.457817	0.222571
C71	C	0.966583	-0.910630	-0.314616
C72	C	1.466583	-0.410630	0.185384
C73	C	1.015969	-0.957641	-0.364062
C74	C	1.515969	-0.457641	0.135938
C75	C	1.028230	-1.051838	-0.376323
C76	C	1.528230	-0.551838	0.123677
C77	C	1.053087	-0.910463	-0.401255
C78	C	1.553087	-0.410463	0.098745
C79	C	1.102473	-0.957474	-0.450701
C80	C	1.602473	-0.457474	0.049299
C81	C	1.114731	-1.051662	-0.462959
C82	C	1.614731	-0.551662	0.037041
C83	C	1.077611	-1.098848	-0.425771
C84	C	1.577611	-0.598848	0.074229
C85	C	1.040826	-0.816266	-0.388994
C86	C	1.540826	-0.316266	0.111006
C87	C	1.127330	-0.816099	-0.475632
C88	C	1.627330	-0.316099	0.024368
C89	C	1.139593	-0.910287	-0.487888
C90	C	1.639593	-0.410287	0.012112
C91	C	1.211088	-0.434531	-0.382735
C92	C	1.711088	0.065469	0.117265
C93	C	1.286322	-0.434539	-0.382752
C94	C	1.786322	0.065461	0.117248
C95	C	1.034574	-0.434453	-0.559231
C96	C	1.534574	0.065547	-0.059231
C97	C	1.034587	-0.434428	-0.634460
C98	C	1.534587	0.065572	-0.134460
C99	C	1.004086	-0.199263	-0.352150
C100	C	1.504086	0.300737	0.147850
C101	C	0.991107	-0.099015	-0.339133
C102	C	1.491107	0.400985	0.160867
C103	C	1.070410	-0.376745	-0.662324
C104	C	1.570410	0.123255	-0.162324
C105	C	1.070413	-0.376719	-0.733010
C106	C	1.570413	0.123281	-0.233010
C107	C	1.034597	-0.434381	-0.775830
C108	C	1.534597	0.065619	-0.275830
C109	C	0.998770	-0.492067	-0.747961
C110	C	1.498770	0.007933	-0.247961
C111	C	0.998762	-0.492088	-0.677276
C112	C	1.498762	0.007912	-0.177276
C113	C	0.998797	-0.491983	-1.033023
C114	C	1.498797	0.008017	-0.533023
C115	C	0.998808	-0.491959	-1.103713
C116	C	1.498808	0.008041	-0.603713
C117	C	1.070448	-0.376614	-1.088756
C118	C	1.570448	0.123386	-0.588756
C119	C	1.070441	-0.376635	-1.018072
C120	C	1.570441	0.123365	-0.518072
C121	C	1.034610	-0.434317	-0.990209
C122	C	1.534610	0.065683	-0.490209
C123	C	1.034606	-0.434343	-0.913564
C124	C	1.534606	0.065657	-0.413564
C125	C	1.034605	-0.434360	-0.852474
C126	C	1.534605	0.065640	-0.352474
C127	C	1.034543	-0.434501	-0.206839
C128	C	1.534543	0.065499	0.293161
C129	C	1.034628	-0.434271	-0.131577
C130	C	1.534628	0.065729	0.368423
H131	H	0.306513	-0.539317	-0.474773
H132	H	0.806513	-0.039317	0.025227
C133	C	0.953094	-0.807020	-0.301130
C134	C	1.453094	-0.307020	0.198870
N135	N	0.942935	-0.728978	-0.290967
N136	N	1.442935	-0.228978	0.209033
C137	C	0.875126	-0.906112	-0.223054
C138	C	1.375126	-0.406112	0.276946
N139	N	0.834191	-0.867168	-0.182101
N140	N	1.334191	-0.367168	0.317899
H141	H	0.434746	-0.539315	-0.474744
H142	H	0.934746	-0.039315	0.025256
H143	H	0.969605	-0.539013	-0.782831
H144	H	1.469605	-0.039013	-0.282831
C145	C	1.109853	-0.313151	-1.119411
C146	C	1.609853	0.186849	-0.619411
N147	N	1.139531	-0.265352	-1.142498
N148	N	1.639531	0.234648	-0.642498
H149	H	0.279266	-0.329757	-0.290726
H150	H	0.779266	0.170243	0.209274
H151	H	0.969640	-0.538916	-1.138576
H152	H	1.469640	-0.038916	-0.638576
C153	C	0.802757	-0.555788	-0.489174
C154	C	1.302757	-0.055788	0.010826
N155	N	0.838263	-0.603640	-0.531191
N156	N	1.338263	-0.103640	-0.031191
H157	H	1.099586	-0.329750	-0.755693
H158	H	1.599586	0.170250	-0.255693
H159	H	1.179803	-0.948576	-0.528148
H160	H	1.679803	-0.448576	-0.028148
C161	C	0.900947	-1.103916	-0.248737
C162	C	1.400947	-0.603916	0.251263
N163	N	0.870247	-1.143017	-0.217875
N164	N	1.370247	-0.643017	0.282125
C165	C	0.654315	-0.555804	-0.489195
C166	C	1.154315	-0.055804	0.010805
N167	N	0.631259	-0.603673	-0.531218
N168	N	1.131259	-0.103673	-0.031218
H169	H	1.154942	-1.089935	-0.503224
H170	H	1.654942	-0.589935	-0.003224
C171	C	1.109838	-0.313199	-0.970973
C172	C	1.609838	0.186801	-0.470973
N173	N	1.139509	-0.265413	-0.935498
N174	N	1.639509	0.234587	-0.435498
C175	C	0.771220	-0.313213	-0.276142
C176	C	1.271220	0.186787	0.223858
N177	N	0.794282	-0.265362	-0.234110
N178	N	1.294282	0.234638	0.265890
C179	C	0.959380	-0.555432	-1.002383
C180	C	1.459380	-0.055432	-0.502383
N181	N	0.929688	-0.603223	-0.979303
N182	N	1.429688	-0.103223	-0.479303
H183	H	0.635031	-0.329732	-0.290656
H184	H	1.135031	0.170268	0.209344
C185	C	1.091098	-1.202461	-0.439250
C186	C	1.591098	-0.702461	0.060750
N187	N	1.101254	-1.280504	-0.449401
N188	N	1.601254	-0.780504	0.050599
H189	H	0.407511	-0.329757	-0.290704
H190	H	0.907511	0.170243	0.209296
C191	C	1.168167	-0.764198	-0.516540
C192	C	1.668167	-0.264198	-0.016540
N193	N	1.198922	-0.725100	-0.547350
N194	N	1.698922	-0.225100	-0.047350
C195	C	0.959355	-0.555545	-0.646627
C196	C	1.459355	-0.055545	-0.146627
N197	N	0.929671	-0.603342	-0.623543
N198	N	1.429671	-0.103342	-0.123543
C199	C	1.109810	-0.313311	-0.615228
C200	C	1.609810	0.186689	-0.115228
N201	N	1.139485	-0.265526	-0.579756
N202	N	1.639485	0.234474	-0.079756
H203	H	1.000616	-0.777998	-0.348735
H204	H	1.500616	-0.277998	0.151265
