data_functionalizedCrystal
_audit_creation_method	'MofGen! by Chris Wilmer'
_symmetry_space_group_name_H-M	'P1'
_symmetry_Int_Tables_number	1
_symmetry_cell_setting	triclinic
loop_
_symmetry_equiv_pos_as_xyz
  x,y,z
_cell_length_a	13.635800
_cell_length_b	27.923559
_cell_length_c	9.514072
_cell_angle_alpha	86.316458
_cell_angle_beta	118.843421
_cell_angle_gamma	81.034929
loop_
_atom_site_label
_atom_site_type_symbol
_atom_site_fract_x
_atom_site_fract_y
_atom_site_fract_z
V1	V	2.031107	-0.151652	0.224494
O2	O	1.981007	-0.148374	-0.008437
O3	O	2.048600	-0.150991	0.442874
O4	O	1.995542	-0.217621	0.222073
O5	O	2.034432	-0.081283	0.213893
V6	V	2.268991	-0.143190	0.196511
O7	O	2.170242	-0.170215	0.285878
O8	O	2.354956	-0.124627	0.135128
O9	O	2.139895	-0.143851	-0.021868
O10	O	2.377791	-0.146468	0.429443
O11	O	2.324365	-0.213559	0.207113
O12	O	2.192953	-0.077221	0.198933
V13	V	2.531107	-0.151652	0.224494
O14	O	2.481007	-0.148374	-0.008437
O15	O	2.548600	-0.150991	0.442874
O16	O	2.495542	-0.217621	0.222073
O17	O	2.534432	-0.081283	0.213893
V18	V	2.768991	-0.143190	0.196511
O19	O	2.670242	-0.170215	0.285878
O20	O	2.854956	-0.124627	0.135128
O21	O	2.639895	-0.143851	-0.021868
O22	O	2.877791	-0.146468	0.429443
O23	O	2.824365	-0.213559	0.207113
O24	O	2.692953	-0.077221	0.198933
C25	C	1.913930	-0.233689	0.214422
C26	C	1.925769	-0.287621	0.213887
C27	C	2.046314	-0.629253	0.357944
C28	C	2.090883	-0.831959	0.356029
O29	O	2.136634	-0.864278	0.480955
N30	N	2.049483	-0.850123	0.208604
C31	C	1.996943	-0.817607	0.061648
O32	O	1.962763	-0.837708	-0.063789
C33	C	1.952382	-0.614903	0.063566
C34	C	1.993775	-0.596742	0.210999
C35	C	2.087705	-0.611092	0.505366
C36	C	2.076557	-0.560418	0.505843
C37	C	2.024018	-0.527906	0.358898
C38	C	1.982628	-0.546068	0.211476
C39	C	1.899850	-0.582388	-0.083388
C40	C	1.888715	-0.531710	-0.082895
C41	C	1.930109	-0.513549	0.064538
C42	C	1.918941	-0.462883	0.065008
N43	N	1.960341	-0.444719	0.212433
C44	C	2.012880	-0.477231	0.359378
C45	C	2.020340	-0.924030	0.060651
C46	C	2.031478	-0.974706	0.060171
C47	C	2.125420	-0.989054	0.354553
C48	C	2.114273	-0.938377	0.355030
C49	C	2.061740	-0.905866	0.208076
C50	C	1.989465	-0.370812	0.360368
C51	C	1.978308	-0.320133	0.360832
C52	C	1.884373	-0.305789	0.066451
C53	C	1.895523	-0.356464	0.065986
C54	C	1.948076	-0.388974	0.212958
O55	O	1.873216	-0.430536	-0.059852
O56	O	2.047075	-0.457120	0.484798
C57	C	2.057462	-0.679927	0.357467
C58	C	2.016071	-0.698089	0.210045
C59	C	1.963532	-0.665577	0.063101
C60	C	2.027209	-0.748765	0.209565
C61	C	2.079748	-0.781276	0.356510
C62	C	2.121148	-0.763112	0.503935
C63	C	2.110000	-0.712439	0.504412
C64	C	1.922132	-0.683741	-0.084324
C65	C	1.933282	-0.734415	-0.084789
C66	C	1.985821	-0.766927	0.062156
C67	C	1.981611	-0.148696	0.496078
C68	C	2.036482	-0.148595	0.674613
C69	C	2.038557	-0.146145	-0.075064
C70	C	1.973306	-0.146249	-0.253597
C71	C	2.106238	-0.061151	0.206589
C72	C	2.084017	-0.007218	0.207116
C73	C	2.481611	-0.148696	0.496078
C74	C	2.536482	-0.148595	0.674613
C75	C	2.413930	-0.233689	0.214422
C76	C	2.425769	-0.287621	0.213887
C77	C	2.538557	-0.146145	-0.075064
C78	C	2.473306	-0.146249	-0.253597
C79	C	2.606238	-0.061151	0.206589
C80	C	2.584017	-0.007218	0.207116
C81	C	2.523515	-0.315435	0.221680
C82	C	2.534647	-0.366110	0.221156
C83	C	2.448035	-0.388970	0.212851
C84	C	2.350279	-0.361152	0.205052
C85	C	2.339145	-0.310478	0.205564
C86	C	2.488393	0.015630	0.215404
C87	C	2.467493	0.066307	0.215880
C88	C	2.542221	0.094134	0.208080
C89	C	2.637851	0.071283	0.199786
C90	C	2.658746	0.020608	0.199299
H91	H	2.012015	-0.305349	0.480895
H92	H	2.525202	0.135395	0.208498
H93	H	2.279764	-0.379773	0.198290
F94	F	2.177065	-0.797722	0.660325
F95	F	2.638696	-0.395708	0.229467
H96	H	2.632561	-0.150544	0.749752
H97	H	2.259548	-0.287836	0.199221
H98	H	2.457115	-0.430233	0.212435
F99	F	2.408845	-0.013977	0.223706
H100	H	1.977560	-0.897563	-0.059024
H101	H	2.032256	-0.397277	0.480047
H102	H	2.110271	-0.545636	0.625899
F103	F	2.365715	0.090616	0.224717
H104	H	2.130492	-0.637558	0.625033
H105	H	2.132561	-0.150544	0.749752
F106	F	2.717379	0.100905	0.191498
H107	H	2.147980	-0.923594	0.475084
H108	H	2.377231	-0.144293	0.671269
F109	F	1.847727	-0.143691	0.648200
H110	H	2.168197	-1.015534	0.474201
F111	F	2.760532	-0.003704	0.190498
F112	F	1.987400	-0.994028	-0.096750
F113	F	1.855788	-0.601705	-0.240310
H114	H	2.594052	-0.296830	0.228448
H115	H	1.845939	-0.505241	-0.202566
H116	H	1.861822	-0.371251	-0.054065
H117	H	1.841592	-0.279309	-0.053188
H118	H	2.143709	-0.697657	0.624468
H119	H	1.899563	-0.749196	-0.204857
H120	H	1.879352	-0.657274	-0.203987
