data_functionalizedCrystal
_audit_creation_method	'MofGen! by Chris Wilmer'
_symmetry_space_group_name_H-M	'P1'
_symmetry_Int_Tables_number	1
_symmetry_cell_setting	triclinic
loop_
_symmetry_equiv_pos_as_xyz
  x,y,z
_cell_length_a	16.109318
_cell_length_b	10.967829
_cell_length_c	14.586319
_cell_angle_alpha	77.868327
_cell_angle_beta	90.000075
_cell_angle_gamma	84.104047
loop_
_atom_site_label
_atom_site_type_symbol
_atom_site_fract_x
_atom_site_fract_y
_atom_site_fract_z
O1	O	1.104067	0.160496	-0.101518
O2	O	0.862125	0.180434	-0.104687
O3	O	0.988675	-0.011187	-0.074400
O4	O	0.977517	0.352116	-0.131806
O5	O	0.988667	-0.011190	0.078082
O6	O	0.862116	0.180431	0.047795
O7	O	1.104058	0.160493	0.050963
Cu8	Cu	0.983086	0.170462	0.063301
Cu9	Cu	0.983097	0.170465	-0.117025
O10	O	0.977508	0.352114	0.020676
C11	C	0.831141	0.179621	-0.028320
C12	C	0.738832	0.177188	-0.027943
C13	C	0.987858	-0.057678	0.009185
C14	C	0.985427	-0.196202	0.031067
C15	C	0.439717	0.169333	-0.109803
C16	C	0.526452	0.171610	-0.110168
C17	C	0.526461	0.171590	0.056078
C18	C	0.439728	0.169304	0.056444
C19	C	0.396358	0.168181	-0.026500
C20	C	0.569825	0.172745	-0.027232
C21	C	0.663867	0.175214	-0.027627
C22	C	0.302311	0.165709	-0.026105
C23	C	0.984348	-0.257953	-0.038168
C24	C	0.981835	-0.401124	-0.015554
C25	C	1.135042	0.161306	-0.025406
C26	C	1.227351	0.163738	-0.025789
C27	C	0.978325	0.398604	-0.062911
C28	C	0.980756	0.537128	-0.084799
N29	N	0.983085	0.170458	0.190134
N30	N	0.983105	0.170458	-0.243856
C31	C	1.039141	0.085637	0.438547
C32	C	1.039143	0.085634	0.534529
C33	C	0.927043	0.255283	0.507724
C34	C	0.927038	0.255279	0.411745
C35	C	0.983091	0.170458	0.377159
C36	C	0.983099	0.170459	0.569119
C37	C	0.983101	0.170456	0.673187
C38	C	0.983088	0.170459	0.273085
H39	H	0.404408	0.168417	-0.177341
H40	H	0.981682	-0.409749	-0.160821
H41	H	0.984486	-0.249328	0.107083
H42	H	1.084783	0.016564	0.584510
O43	O	0.568437	0.172785	-0.191179
C44	C	0.511558	0.171270	-0.264298
H45	H	0.446518	0.209122	-0.245904
H46	H	0.510479	0.070984	-0.274016
C47	C	0.618623	0.207466	-0.378483
C48	C	0.538742	0.253966	-0.355894
H49	H	0.635393	0.258471	-0.434985
H50	H	0.656945	0.208482	-0.329222
H51	H	0.617714	0.123894	-0.386575
H52	H	0.539654	0.337530	-0.347791
H53	H	0.500421	0.252966	-0.405157
H54	H	0.881391	0.324351	0.361758
O55	O	0.872681	0.337636	0.541471
C56	C	0.884691	0.319435	0.639352
H57	H	0.950523	0.272829	0.659821
H58	H	0.837280	0.256829	0.676490
C59	C	0.792075	0.504325	0.643311
C60	C	0.872932	0.447092	0.668451
H61	H	0.784818	0.583068	0.661263
H62	H	0.783980	0.516586	0.577368
H63	H	0.752574	0.452140	0.674262
H64	H	0.912431	0.499270	0.637492
H65	H	0.881033	0.434844	0.734390
H66	H	0.561783	0.172506	0.123608
H67	H	0.404425	0.168365	0.124283
H68	H	1.084781	0.016568	0.410390
H69	H	0.980894	-0.454245	0.060468
H70	H	0.985281	-0.204825	-0.114185
