data_functionalizedCrystal
_audit_creation_method	'MofGen! by Chris Wilmer'
_symmetry_space_group_name_H-M	'P1'
_symmetry_Int_Tables_number	1
_symmetry_cell_setting	triclinic
loop_
_symmetry_equiv_pos_as_xyz
  x,y,z
_cell_length_a	18.050591
_cell_length_b	18.050589
_cell_length_c	18.050582
_cell_angle_alpha	90.018005
_cell_angle_beta	89.980240
_cell_angle_gamma	89.968854
loop_
_atom_site_label
_atom_site_type_symbol
_atom_site_fract_x
_atom_site_fract_y
_atom_site_fract_z
Zn1	Zn	1.135259	0.295777	-0.420032
Zn2	Zn	1.385259	0.545777	-0.170032
Zn3	Zn	1.635259	0.795777	0.079968
Zn4	Zn	1.885259	1.045777	0.329968
Zn5	Zn	1.135156	0.419960	-0.295852
Zn6	Zn	1.385156	0.669960	-0.045852
Zn7	Zn	1.635156	0.919960	0.204148
Zn8	Zn	1.885156	1.169960	0.454148
Zn9	Zn	1.011078	0.295781	-0.295846
Zn10	Zn	1.261078	0.545781	-0.045846
Zn11	Zn	1.511078	0.795781	0.204154
Zn12	Zn	1.761078	1.045781	0.454154
Zn13	Zn	1.011012	0.419922	-0.419990
Zn14	Zn	1.261012	0.669922	-0.169990
Zn15	Zn	1.511012	0.919922	0.080010
Zn16	Zn	1.761012	1.169922	0.330010
O17	O	1.073126	0.357860	-0.357930
O18	O	1.323126	0.607860	-0.107930
O19	O	1.573126	0.857860	0.142070
O20	O	1.823126	1.107860	0.392070
O21	O	1.239170	0.312265	-0.403579
O22	O	1.489170	0.562265	-0.153579
O23	O	1.739170	0.812265	0.096421
O24	O	1.989170	1.062265	0.346421
O25	O	1.118681	0.403505	-0.191926
O26	O	1.368681	0.653505	0.058074
O27	O	1.618681	0.903505	0.308074
O28	O	1.868681	1.153505	0.558074
O29	O	1.027622	0.191856	-0.312334
O30	O	1.277622	0.441856	-0.062334
O31	O	1.527622	0.691856	0.187666
O32	O	1.777622	0.941856	0.437666
O33	O	1.239094	0.403502	-0.312345
O34	O	1.489094	0.653502	-0.062345
O35	O	1.739094	0.903502	0.187655
O36	O	1.989094	1.153502	0.437655
O37	O	1.118857	0.191853	-0.403573
O38	O	1.368857	0.441853	-0.153573
O39	O	1.618857	0.691853	0.096427
O40	O	1.868857	0.941853	0.346427
O41	O	1.027522	0.312271	-0.191922
O42	O	1.277522	0.562271	0.058078
O43	O	1.527522	0.812271	0.308078
O44	O	1.777522	1.062271	0.558078
O45	O	0.907145	0.312234	-0.312293
O46	O	1.157145	0.562234	-0.062293
O47	O	1.407145	0.812234	0.187707
O48	O	1.657145	1.062234	0.437707
O49	O	1.027509	0.403436	-0.523920
O50	O	1.277509	0.653436	-0.273920
O51	O	1.527509	0.903436	-0.023920
O52	O	1.777509	1.153436	0.226080
O53	O	0.907096	0.403440	-0.403502
O54	O	1.157096	0.653440	-0.153502
O55	O	1.407096	0.903440	0.096498
O56	O	1.657096	1.153440	0.346498
O57	O	1.118793	0.312227	-0.523951
O58	O	1.368793	0.562227	-0.273951
O59	O	1.618793	0.812227	-0.023951
O60	O	1.868793	1.062227	0.226049
O61	O	1.118617	0.523880	-0.312304
O62	O	1.368617	0.773880	-0.062304
O63	O	1.618617	1.023880	0.187696
O64	O	1.868617	1.273880	0.437696
O65	O	1.027409	0.523852	-0.403508
O66	O	1.277409	0.773852	-0.153508
O67	O	1.527409	1.023852	0.096492
O68	O	1.777409	1.273852	0.346492
C69	C	0.880174	0.357834	-0.357893
C70	C	1.130174	0.607834	-0.107893
C71	C	1.380174	0.857834	0.142107
C72	C	1.630174	1.107834	0.392107
C73	C	0.797628	0.357841	-0.357894
C74	C	1.047628	0.607841	-0.107894
C75	C	1.297628	0.857841	0.142106
C76	C	1.547628	1.107841	0.392106
C77	C	1.073015	0.550812	-0.357918
C78	C	1.323015	0.800812	-0.107918
C79	C	1.573015	1.050812	0.142082
C80	C	1.823015	1.300812	0.392082
C81	C	1.073035	0.633358	-0.357938
C82	C	1.323035	0.883358	-0.107938
C83	C	1.573035	1.133358	0.142062
C84	C	1.823035	1.383358	0.392062
C85	C	0.548808	0.308192	-0.308413
C86	C	0.798808	0.558192	-0.058413
C87	C	1.048808	0.808192	0.191587
C88	C	1.298808	1.058192	0.441587
C89	C	0.598242	0.290110	-0.376187
C90	C	0.848242	0.540110	-0.126187
C91	C	1.098242	0.790110	0.123813
C92	C	1.348242	1.040110	0.373813
C93	C	0.500508	0.357879	-0.357955
C94	C	0.750508	0.607879	-0.107955
C95	C	1.000508	0.857879	0.142045
C96	C	1.250508	1.107879	0.392045
C97	C	0.598156	0.375906	-0.290154
C98	C	0.848156	0.625906	-0.040154
C99	C	1.098156	0.875906	0.209846
C100	C	1.348156	1.125906	0.459846
C101	C	0.646493	0.357858	-0.357922
C102	C	0.896493	0.607858	-0.107922
C103	C	1.146493	0.857858	0.142078
C104	C	1.396493	1.107858	0.392078
C105	C	0.548855	0.339763	-0.425766
C106	C	0.798855	0.589763	-0.175766
C107	C	1.048855	0.839763	0.074234
C108	C	1.298855	1.089763	0.324234
C109	C	0.548764	0.425589	-0.339687
C110	C	0.798764	0.675589	-0.089687
C111	C	1.048764	0.925589	0.160313
C112	C	1.298764	1.175589	0.410313
C113	C	0.598176	0.407534	-0.407509
C114	C	0.848176	0.657534	-0.157509
C115	C	1.098176	0.907534	0.092491
C116	C	1.348176	1.157534	0.342491
C117	C	0.416410	0.357888	-0.357973
C118	C	0.666410	0.607888	-0.107973
C119	C	0.916410	0.857888	0.142027
C120	C	1.166410	1.107888	0.392027
C121	C	0.730590	0.357848	-0.357911
C122	C	0.980590	0.607848	-0.107911
C123	C	1.230590	0.857848	0.142089
C124	C	1.480590	1.107848	0.392089
C125	C	1.023463	0.832820	-0.407518
C126	C	1.273463	1.082820	-0.157518
C127	C	1.523463	1.332820	0.092482
C128	C	1.773463	1.582820	0.342482
C129	C	1.005359	0.882253	-0.339749
C130	C	1.255359	1.132253	-0.089749
C131	C	1.505359	1.382253	0.160251
C132	C	1.755359	1.632253	0.410251
C133	C	1.073091	0.784488	-0.357948
C134	C	1.323091	1.034488	-0.107948
C135	C	1.573091	1.284488	0.142052
C136	C	1.823091	1.534488	0.392052
C137	C	1.091214	0.882137	-0.425725
C138	C	1.341214	1.132137	-0.175725
C139	C	1.591214	1.382137	0.074275
C140	C	1.841214	1.632137	0.324275
C141	C	1.073144	0.930473	-0.357964
C142	C	1.323144	1.180473	-0.107964
C143	C	1.573144	1.430473	0.142036
C144	C	1.823144	1.680473	0.392036
C145	C	1.054952	0.832834	-0.290144
C146	C	1.304952	1.082834	-0.040144
C147	C	1.554952	1.332834	0.209856
C148	C	1.804952	1.582834	0.459856
C149	C	1.140839	0.832714	-0.376165
C150	C	1.390839	1.082714	-0.126165
C151	C	1.640839	1.332714	0.123835
C152	C	1.890839	1.582714	0.373835
C153	C	1.122761	0.882124	-0.308350
C154	C	1.372761	1.132124	-0.058350
C155	C	1.622761	1.382124	0.191650
C156	C	1.872761	1.632124	0.441650
C157	C	1.073059	0.700390	-0.357940
C158	C	1.323059	0.950390	-0.107940
C159	C	1.573059	1.200390	0.142060
C160	C	1.823059	1.450390	0.392060
C161	C	1.073176	1.014570	-0.357965
C162	C	1.323176	1.264570	-0.107965
C163	C	1.573176	1.514570	0.142035
C164	C	1.823176	1.764570	0.392035
C165	C	1.266832	0.357887	-0.357968
C166	C	1.516832	0.607887	-0.107968
C167	C	1.766832	0.857887	0.142032
C168	C	2.016832	1.107887	0.392032
C169	C	1.349378	0.357898	-0.357984
C170	C	1.599378	0.607898	-0.107984
C171	C	1.849378	0.857898	0.142016
C172	C	2.099378	1.107898	0.392016
C173	C	1.073155	0.357827	-0.551635
C174	C	1.323155	0.607827	-0.301635
C175	C	1.573155	0.857827	-0.051635
C176	C	1.823155	1.107827	0.198365
C177	C	1.073168	0.357813	-0.634181
C178	C	1.323168	0.607813	-0.384181
C179	C	1.573168	0.857813	-0.134181
C180	C	1.823168	1.107813	0.115819
C181	C	1.073230	1.164154	-0.357959
C182	C	1.323230	1.414154	-0.107959
C183	C	1.573230	1.664154	0.142041
C184	C	1.823230	1.914154	0.392041
C185	C	1.073202	1.081609	-0.357973
C186	C	1.323202	1.331609	-0.107973
C187	C	1.573202	1.581609	0.142027
C188	C	1.823202	1.831609	0.392027
C189	C	1.023566	0.407345	-0.833615
C190	C	1.273566	0.657345	-0.583615
C191	C	1.523566	0.907345	-0.333615
C192	C	1.773566	1.157345	-0.083615
C193	C	1.091319	0.425502	-0.883014
C194	C	1.341319	0.675502	-0.633014
C195	C	1.591319	0.925502	-0.383014
C196	C	1.841319	1.175502	-0.133014
C197	C	1.073204	0.357756	-0.785312
C198	C	1.323204	0.607756	-0.535312
C199	C	1.573204	0.857756	-0.285312
C200	C	1.823204	1.107756	-0.035312
C201	C	1.005489	0.339578	-0.882995
C202	C	1.255489	0.589578	-0.632995
C203	C	1.505489	0.839578	-0.382995
C204	C	1.755489	1.089578	-0.132995
C205	C	1.073234	0.357703	-0.931297
C206	C	1.323234	0.607703	-0.681297
C207	C	1.573234	0.857703	-0.431297
C208	C	1.823234	1.107703	-0.181297
C209	C	1.140993	0.375950	-0.833623
C210	C	1.390993	0.625950	-0.583623
C211	C	1.640993	0.875950	-0.333623
C212	C	1.890993	1.125950	-0.083623
C213	C	1.055117	0.289994	-0.833600
C214	C	1.305117	0.539994	-0.583600
C215	C	1.555117	0.789994	-0.333600
C216	C	1.805117	1.039994	-0.083600
C217	C	1.122917	0.308126	-0.882976
C218	C	1.372917	0.558126	-0.632976
C219	C	1.622917	0.808126	-0.382976
C220	C	1.872917	1.058126	-0.132976
C221	C	1.073187	0.357789	-0.701213
C222	C	1.323187	0.607789	-0.451213
C223	C	1.573187	0.857789	-0.201213
C224	C	1.823187	1.107789	0.048787
C225	C	1.073259	0.357670	-1.015394
C226	C	1.323259	0.607670	-0.765394
C227	C	1.573259	0.857670	-0.515394
C228	C	1.823259	1.107670	-0.265394
C229	C	1.073140	0.357839	-0.164978
C230	C	1.323140	0.607839	0.085022
C231	C	1.573140	0.857839	0.335022
C232	C	1.823140	1.107839	0.585022
C233	C	1.073272	0.357644	-0.082432
C234	C	1.323272	0.607644	0.167568
C235	C	1.573272	0.857644	0.417568
C236	C	1.823272	1.107644	0.667568
H237	H	0.527133	0.266150	-0.266582
H238	H	0.777133	0.516150	-0.016582
H239	H	1.027133	0.766150	0.233418
H240	H	1.277133	1.016150	0.483418
H241	H	0.527016	0.482844	-0.324226
H242	H	0.777016	0.732844	-0.074226
H243	H	1.027016	0.982844	0.175774
H244	H	1.277016	1.232844	0.425774
Cl245	Cl	0.631788	0.201689	-0.400035
Cl246	Cl	0.881788	0.451689	-0.150035
Cl247	Cl	1.131788	0.701689	0.099965
Cl248	Cl	1.381788	0.951689	0.349965
H249	H	0.527289	0.324440	-0.483106
H250	H	0.777289	0.574440	-0.233106
H251	H	1.027289	0.824440	0.016894
H252	H	1.277289	1.074440	0.266894
H253	H	0.619715	0.449544	-0.449439
H254	H	0.869715	0.699544	-0.199439
H255	H	1.119715	0.949544	0.050561
H256	H	1.369715	1.199544	0.300561
H257	H	1.039781	0.232728	-0.811879
H258	H	1.289781	0.482728	-0.561879
H259	H	1.539781	0.732728	-0.311879
H260	H	1.789781	0.982728	-0.061879
Cl261	Cl	0.631595	0.399461	-0.201652
Cl262	Cl	0.881595	0.649461	0.048348
Cl263	Cl	1.131595	0.899461	0.298348
Cl264	Cl	1.381595	1.149461	0.548348
H265	H	0.981439	0.811171	-0.449378
H266	H	1.231439	1.061171	-0.199378
H267	H	1.481439	1.311171	0.050622
H268	H	1.731439	1.561171	0.300622
Cl269	Cl	1.031216	0.799541	-0.201633
Cl270	Cl	1.281216	1.049541	0.048367
Cl271	Cl	1.531216	1.299541	0.298367
Cl272	Cl	1.781216	1.549541	0.548367
Cl273	Cl	0.958816	0.472170	-0.800150
Cl274	Cl	1.208816	0.722170	-0.550150
Cl275	Cl	1.458816	0.972170	-0.300150
Cl276	Cl	1.708816	1.222170	-0.050150
H277	H	0.948092	0.904030	-0.324355
H278	H	1.198092	1.154030	-0.074355
H279	H	1.448092	1.404030	0.175645
H280	H	1.698092	1.654030	0.425645
Cl281	Cl	0.917056	0.315873	-0.916480
Cl282	Cl	1.167056	0.565873	-0.666480
Cl283	Cl	1.417056	0.815873	-0.416480
Cl284	Cl	1.667056	1.065873	-0.166480
H285	H	1.164956	0.266168	-0.904513
H286	H	1.414956	0.516168	-0.654513
H287	H	1.664956	0.766168	-0.404513
H288	H	1.914956	1.016168	-0.154513
H289	H	1.164753	0.903636	-0.266389
H290	H	1.414753	1.153636	-0.016389
H291	H	1.664753	1.403636	0.233611
H292	H	1.914753	1.653636	0.483611
H293	H	1.106635	0.482785	-0.904719
H294	H	1.356635	0.732785	-0.654719
H295	H	1.606635	0.982785	-0.404719
H296	H	1.856635	1.232785	-0.154719
Cl297	Cl	1.229235	0.799091	-0.399983
Cl298	Cl	1.479235	1.049091	-0.149983
Cl299	Cl	1.729235	1.299091	0.100017
Cl300	Cl	1.979235	1.549091	0.350017
H301	H	1.106522	0.903794	-0.483037
H302	H	1.356522	1.153794	-0.233037
H303	H	1.606522	1.403794	0.016963
H304	H	1.856522	1.653794	0.266963
H305	H	1.198289	0.391368	-0.812027
H306	H	1.448289	0.641368	-0.562027
H307	H	1.698289	0.891368	-0.312027
H308	H	1.948289	1.141368	-0.062027
