data_functionalizedCrystal
_audit_creation_method	'MofGen! by Chris Wilmer'
_symmetry_space_group_name_H-M	'P1'
_symmetry_Int_Tables_number	1
_symmetry_cell_setting	triclinic
loop_
_symmetry_equiv_pos_as_xyz
  x,y,z
_cell_length_a	15.995350
_cell_length_b	15.995350
_cell_length_c	15.072220
_cell_angle_alpha	89.998899
_cell_angle_beta	89.991149
_cell_angle_gamma	96.507625
loop_
_atom_site_label
_atom_site_type_symbol
_atom_site_fract_x
_atom_site_fract_y
_atom_site_fract_z
O1	O	1.110996	-0.107921	-0.073703
O2	O	0.867221	-0.121249	-0.073721
O3	O	0.995772	0.007303	-0.073710
O4	O	0.982444	-0.236472	-0.073713
O5	O	0.995740	0.007296	0.073855
O6	O	0.867189	-0.121256	0.073844
O7	O	1.110964	-0.107928	0.073862
Zn8	Zn	0.989071	-0.114593	0.097283
Zn9	Zn	0.989113	-0.114584	-0.097141
O10	O	0.982413	-0.236480	0.073852
C11	C	0.836010	-0.120701	0.000060
C12	C	0.743060	-0.119049	0.000053
C13	C	0.995205	0.038494	0.000070
C14	C	0.993553	0.131444	0.000065
C15	C	0.405312	-0.113117	0.000071
C16	C	0.452746	-0.021565	0.000401
C17	C	0.549436	-0.023217	0.000063
C18	C	0.572873	-0.116060	0.000063
C19	C	0.531804	-0.161212	-0.084201
C20	C	0.435168	-0.158912	-0.084266
C21	C	0.434793	-0.160812	0.083543
C22	C	0.531738	-0.160790	0.084651
C23	C	0.667570	-0.117727	0.000055
C24	C	0.310614	-0.111452	0.000073
C25	C	1.142175	-0.108476	0.000080
C26	C	1.235125	-0.110127	0.000081
C27	C	0.982980	-0.267671	0.000069
C28	C	0.984631	-0.360621	0.000069
N29	N	0.989049	-0.114599	0.229971
C30	C	0.987621	0.469192	0.000068
C31	C	0.896069	0.421758	-0.000270
C32	C	0.897721	0.325068	0.000063
C33	C	0.990564	0.301631	0.000066
C34	C	1.035702	0.342705	0.084335
C35	C	1.033402	0.439341	0.084405
C36	C	1.035330	0.439707	-0.083404
C37	C	1.035308	0.342761	-0.084518
C38	C	0.992231	0.206934	0.000068
C39	C	0.985956	0.563890	0.000072
N40	N	0.989142	-0.114571	-0.229830
C41	C	0.989112	-0.114580	0.589173
C42	C	0.920095	-0.183135	0.551560
C43	C	0.920254	-0.183385	0.448735
C44	C	0.989080	-0.114590	0.410969
C45	C	1.076445	-0.133671	0.448266
C46	C	1.076058	-0.134159	0.551124
C47	C	0.971542	-0.026741	0.551272
C48	C	0.969537	-0.027327	0.448409
C49	C	0.989067	-0.114593	0.310255
C50	C	0.989130	-0.114579	0.689886
H51	H	0.434211	0.015027	0.060830
C52	C	0.935162	-0.270256	0.415731
C53	C	0.935320	-0.270712	0.322838
C54	C	0.949043	-0.350728	0.292404
H55	H	0.987899	-0.283813	0.436938
H56	H	0.891613	-0.310671	0.436883
H57	H	0.978866	-0.230310	0.301695
H58	H	0.882590	-0.257170	0.301608
H59	H	0.905493	-0.391143	0.313556
H60	H	1.001779	-0.364278	0.313617
H61	H	0.949144	-0.351050	0.229374
C62	C	0.586675	0.024560	-0.080511
C63	C	0.644053	0.092045	-0.052578
C64	C	0.678366	0.136081	-0.126782
H65	H	0.614800	-0.012079	-0.116654
H66	H	0.542900	0.045309	-0.113646
H67	H	0.687821	0.071297	-0.019458
H68	H	0.615949	0.128704	-0.016445
H69	H	0.634591	0.156830	-0.159917
H70	H	0.706486	0.099435	-0.162920
H71	H	0.717295	0.181879	-0.107840
C72	C	0.410698	-0.115154	-0.168322
C73	C	0.354766	-0.170467	-0.217810
C74	C	0.332220	-0.130189	-0.295254
H75	H	0.384379	-0.066798	-0.153045
H76	H	0.459668	-0.098679	-0.202574
H77	H	0.305803	-0.186931	-0.183565
H78	H	0.381067	-0.218825	-0.233109
H79	H	0.381191	-0.113714	-0.329505
H80	H	0.305904	-0.081834	-0.279968
H81	H	0.294274	-0.167715	-0.328845
H82	H	1.016540	0.026078	0.422704
C83	C	0.849933	0.288004	0.080709
C84	C	0.766580	0.306670	0.076867
C85	C	0.722537	0.272553	0.151155
H86	H	0.850677	0.228710	0.081278
H87	H	0.875851	0.311509	0.133145
H88	H	0.740669	0.283162	0.024445
H89	H	0.765811	0.365957	0.076311
H90	H	0.748455	0.296058	0.203591
H91	H	0.723287	0.213260	0.151718
H92	H	0.665980	0.285219	0.148562
H93	H	1.091540	-0.198219	0.575106
C94	C	0.995582	0.467054	-0.168670
C95	C	1.039547	0.439825	-0.241559
C96	C	1.002954	0.465011	-0.320114
H97	H	0.938551	0.443006	-0.171386
H98	H	0.997983	0.526664	-0.169804
H99	H	1.037137	0.380226	-0.240426
H100	H	1.096577	0.463869	-0.238872
H101	H	1.005355	0.524621	-0.321248
H102	H	0.945923	0.440962	-0.322821
H103	H	1.032783	0.446546	-0.369578
H104	H	0.559041	-0.127829	0.146989
C105	C	0.989626	0.463817	0.168457
C106	C	1.044926	0.519754	0.217953
C107	C	1.004628	0.542307	0.295392
H108	H	0.941273	0.490135	0.153173
H109	H	0.973142	0.414850	0.202706
H110	H	1.061398	0.568713	0.183711
H111	H	1.093280	0.493454	0.233260
H112	H	0.988145	0.493339	0.329640
H113	H	0.956277	0.568621	0.280099
H114	H	1.042146	0.580256	0.328988
H115	H	0.402920	-0.226128	-0.088090
H116	H	1.021872	0.024275	0.575595
H117	H	0.862238	0.296649	-0.060344
H118	H	1.002306	0.315516	-0.146857
C119	C	0.407442	-0.121050	0.168809
C120	C	0.434668	-0.165002	0.241699
C121	C	0.409479	-0.128395	0.320254
H122	H	0.431490	-0.064018	0.171520
H123	H	0.347832	-0.123450	0.169948
H124	H	0.494266	-0.162593	0.240561
H125	H	0.410623	-0.222033	0.239017
H126	H	0.349869	-0.130795	0.321392
H127	H	0.433528	-0.071364	0.322955
H128	H	0.427941	-0.158216	0.369718
C129	C	0.833593	-0.168272	0.415279
C130	C	0.780620	-0.158824	0.487679
C131	C	0.700775	-0.144915	0.456900
H132	H	0.838072	-0.118652	0.380163
H133	H	0.810879	-0.214879	0.380414
H134	H	0.803329	-0.112220	0.522530
H135	H	0.776116	-0.208436	0.522803
H136	H	0.678060	-0.191523	0.422035
H137	H	0.705262	-0.095296	0.421784
H138	H	0.664820	-0.138511	0.506018
H139	H	1.102831	0.471468	-0.083968
C140	C	0.426543	0.027118	-0.079609
C141	C	0.390381	0.098083	-0.050803
C142	C	0.366223	0.142942	-0.124484
H143	H	0.474535	0.044366	-0.115031
H144	H	0.386679	-0.007841	-0.113702
H145	H	0.430242	0.133035	-0.016724
H146	H	0.342381	0.080859	-0.015391
H147	H	0.326359	0.107983	-0.158577
H148	H	0.414219	0.160184	-0.159900
H149	H	0.341677	0.191092	-0.104949
C150	C	0.552269	-0.251063	0.091258
C151	C	0.602606	-0.268776	0.019176
C152	C	0.621523	-0.351935	0.025217
H153	H	0.581651	-0.258255	0.144988
H154	H	0.501568	-0.288271	0.090507
H155	H	0.653298	-0.231580	0.019935
H156	H	0.573240	-0.261604	-0.034564
H157	H	0.570822	-0.389142	0.024466
H158	H	0.650902	-0.359119	0.078950
H159	H	0.655672	-0.363966	-0.023693
C160	C	0.847305	0.446311	-0.080925
C161	C	0.822631	0.374580	-0.131915
C162	C	0.777719	0.397173	-0.206231
H163	H	0.798842	0.470714	-0.062102
H164	H	0.882051	0.485886	-0.115583
H165	H	0.787886	0.335019	-0.097263
H166	H	0.871077	0.350167	-0.150761
H167	H	0.812465	0.436748	-0.240889
H168	H	0.729260	0.421577	-0.187399
H169	H	0.760979	0.348509	-0.240841
C170	C	1.146454	-0.068814	0.415515
C171	C	1.112284	-0.010390	0.361110
C172	C	1.176751	0.049362	0.330913
H173	H	1.173716	-0.040536	0.464815
H174	H	1.186099	-0.096194	0.382619
H175	H	1.072654	0.016987	0.394006
H176	H	1.085028	-0.038644	0.311797
H177	H	1.216395	0.021982	0.298017
H178	H	1.204009	0.077634	0.380218
H179	H	1.153576	0.089005	0.293990
C180	C	1.146524	-0.070132	0.584481
C181	C	1.146699	-0.070074	0.677375
C182	C	1.211596	-0.011103	0.708129
H183	H	1.198990	-0.084531	0.563369
H184	H	1.137952	-0.015763	0.563451
H185	H	1.155278	-0.124431	0.698396
H186	H	1.094249	-0.055666	0.698510
H187	H	1.203024	0.043267	0.687100
H188	H	1.264057	-0.025506	0.687011
H189	H	1.211719	-0.011050	0.771160
C190	C	1.097634	-0.218163	0.414094
C191	C	1.107073	-0.271750	0.485967
C192	C	1.126598	-0.349588	0.454526
H193	H	1.053503	-0.242472	0.376863
H194	H	1.148622	-0.210304	0.381252
H195	H	1.056091	-0.279611	0.518794
H196	H	1.151206	-0.247467	0.523205
H197	H	1.177586	-0.341729	0.421684
H198	H	1.082464	-0.373889	0.417294
H199	H	1.133013	-0.385954	0.503286
H200	H	0.545929	-0.229421	-0.087335
H201	H	0.560191	-0.129845	-0.146912
H202	H	0.854945	-0.171953	0.576317
C203	C	0.847378	0.447972	0.079740
C204	C	0.776419	0.484137	0.050933
C205	C	0.731555	0.508308	0.124613
H206	H	0.830122	0.399986	0.115163
H207	H	0.882335	0.487839	0.113832
H208	H	0.741468	0.444273	0.016856
H209	H	0.793651	0.532131	0.015519
H210	H	0.766512	0.548175	0.158705
H211	H	0.714304	0.460319	0.160031
H212	H	0.683409	0.532856	0.105078
C213	C	0.888379	-0.002457	0.585946
C214	C	0.851363	-0.065959	0.642031
C215	C	0.774743	-0.043635	0.673979
H216	H	0.898057	0.048834	0.618040
H217	H	0.851827	0.004457	0.537474
H218	H	0.887906	-0.072864	0.690496
H219	H	0.841663	-0.117256	0.609957
H220	H	0.738191	-0.036720	0.625506
H221	H	0.784430	0.007657	0.706069
H222	H	0.749614	-0.086720	0.712029
C223	C	0.883912	-0.007982	0.415736
C224	C	0.884008	-0.005244	0.322886
C225	C	0.805148	0.012580	0.292752
H226	H	0.841836	-0.050618	0.435455
H227	H	0.872435	0.044900	0.438548
H228	H	0.895475	-0.058119	0.300083
H229	H	0.926067	0.037393	0.303143
H230	H	0.793671	0.065462	0.315565
H231	H	0.763078	-0.030059	0.312478
H232	H	0.805205	0.014448	0.229752
C233	C	1.123080	0.482189	0.089567
C234	C	1.179092	0.421033	0.092607
C235	C	1.261706	0.460469	0.097380
H236	H	1.134756	0.516704	0.038776
H237	H	1.129453	0.515902	0.141550
H238	H	1.172722	0.387336	0.040630
H239	H	1.167443	0.386515	0.143396
H240	H	1.268079	0.494182	0.149362
H241	H	1.273374	0.494983	0.046587
H242	H	1.299720	0.418982	0.099451
H243	H	1.103910	0.328579	0.087471
C244	C	0.587178	0.024181	0.080629
C245	C	0.522927	0.054563	0.130057
C246	C	0.557660	0.098245	0.204274
H247	H	0.615453	-0.012646	0.116376
H248	H	0.626041	0.070045	0.061693
H249	H	0.484079	0.008706	0.148993
H250	H	0.494647	0.091402	0.094335
H251	H	0.596523	0.144108	0.185339
H252	H	0.585934	0.061412	0.240014
H253	H	0.514073	0.118871	0.237816
H254	H	0.403031	-0.228312	0.084113
C255	C	0.994004	0.304942	0.168057
C256	C	1.035076	0.342294	0.242547
C257	C	0.996689	0.307522	0.319683
H258	H	0.936582	0.314898	0.168934
H259	H	0.997540	0.246057	0.168981
H260	H	1.031531	0.401164	0.241622
H261	H	1.092495	0.332340	0.241699
H262	H	1.000225	0.248637	0.320608
H263	H	0.939268	0.317480	0.320552
H264	H	1.024555	0.332854	0.370234
C265	C	0.934872	-0.269497	0.586180
C266	C	0.930781	-0.269661	0.678974
C267	C	0.944405	-0.349197	0.710897
H268	H	0.892936	-0.310622	0.563238
H269	H	0.988839	-0.282209	0.567841
H270	H	0.876821	-0.256959	0.697305
H271	H	0.972716	-0.228553	0.701939
H272	H	0.998372	-0.361909	0.692558
H273	H	0.902467	-0.390316	0.687949
H274	H	0.941638	-0.349317	0.773861
C275	C	1.125582	0.322228	-0.091123
C276	C	1.143282	0.271894	-0.019043
C277	C	1.226441	0.252974	-0.025084
H278	H	1.132780	0.292843	-0.144854
H279	H	1.162790	0.372928	-0.090367
H280	H	1.106085	0.221203	-0.019808
H281	H	1.136103	0.301263	0.034698
H282	H	1.263649	0.303674	-0.024328
H283	H	1.233632	0.223592	-0.078818
H284	H	1.238464	0.218827	0.023824
