data_functionalizedCrystal
_audit_creation_method	'MofGen! by Chris Wilmer'
_symmetry_space_group_name_H-M	'P1'
_symmetry_Int_Tables_number	1
_symmetry_cell_setting	triclinic
loop_
_symmetry_equiv_pos_as_xyz
  x,y,z
_cell_length_a	12.594516
_cell_length_b	13.032951
_cell_length_c	13.033109
_cell_angle_alpha	103.335629
_cell_angle_beta	97.157122
_cell_angle_gamma	97.181291
loop_
_atom_site_label
_atom_site_type_symbol
_atom_site_fract_x
_atom_site_fract_y
_atom_site_fract_z
Zn1	Zn	-0.748357	-1.700148	-0.806507
Zn2	Zn	-0.900455	-1.677485	-0.628900
Zn3	Zn	-0.696575	-1.499969	-0.606391
Zn4	Zn	-0.900353	-1.522499	-0.783939
O5	O	-0.811435	-1.600025	-0.706434
O6	O	-0.790246	-1.845779	-0.801812
O7	O	-0.851782	-1.635024	-0.477280
O8	O	-0.554509	-1.526579	-0.632962
O9	O	-0.901992	-1.829129	-0.671325
O10	O	-0.592552	-1.673649	-0.779986
O11	O	-0.701992	-1.504604	-0.460743
O12	O	-0.701894	-1.354320	-0.611079
O13	O	-0.901819	-1.564978	-0.935567
O14	O	-0.851608	-1.370873	-0.741523
O15	O	-0.790147	-1.695496	-0.952147
O16	O	-1.049377	-1.656871	-0.649441
O17	O	-1.049302	-1.543003	-0.763348
C18	C	-0.771122	-1.324057	-0.671410
C19	C	-0.753905	-1.206000	-0.656452
C20	C	-0.820395	-1.161571	-0.714227
C21	C	-0.802602	-1.039553	-0.698768
C22	C	-1.087964	-1.599954	-0.706415
C23	C	-1.206284	-1.600026	-0.706455
C24	C	-1.275527	-1.538080	-0.768358
C25	C	-1.328482	-1.499893	-0.668160
C26	C	-1.364144	-1.638312	-0.806682
C27	C	-1.257666	-1.561781	-0.606199
C28	C	-1.293338	-1.700253	-0.744792
C29	C	-1.346257	-1.662094	-0.644532
C30	C	-0.533833	-1.600128	-0.706481
C31	C	-0.415536	-1.600172	-0.706500
C32	C	-0.851748	-1.635278	-0.983474
C33	C	-0.868926	-1.650301	-1.101532
C34	C	-0.851893	-0.877071	-0.741589
C35	C	-0.869101	-0.995128	-0.756552
C36	C	-0.802472	-1.592469	-1.145983
C37	C	-0.820226	-1.607994	-1.268002
C38	C	-0.771211	-1.564971	-0.430481
C39	C	-0.753763	-1.550154	-0.312450
H40	H	-0.683805	-1.153703	-0.595548
H41	H	-1.410319	-1.670634	-0.891425
N42	N	-0.908347	-1.227167	-0.790622
N43	N	-1.003718	-1.213934	-0.781858
H44	H	-1.065838	-1.260260	-0.835812
N45	N	-0.665882	-1.473617	-1.246901
N46	N	-0.603395	-1.419242	-1.288633
H47	H	-0.541329	-1.365188	-1.242341
H48	H	-1.244447	-1.485576	-0.820607
H49	H	-0.732439	-1.531459	-1.093705
N50	N	-0.957058	-1.060702	-0.832965
N51	N	-1.019580	-1.018991	-0.887286
H52	H	-1.081700	-1.065301	-0.941251
H53	H	-0.732497	-0.987260	-0.637860
N54	N	-1.348577	-1.393636	-0.627505
N55	N	-1.322729	-1.322491	-0.673849
H56	H	-1.336917	-1.247445	-0.645143
H57	H	-0.890269	-1.669003	-1.320275
H58	H	-0.938965	-1.711305	-1.153809
H59	H	-1.211603	-1.529361	-0.521422
H60	H	-1.277291	-1.784932	-0.777229
N61	N	-1.384958	-1.727874	-0.578791
N62	N	-1.346720	-1.706011	-0.481681
H63	H	-1.374052	-1.752463	-0.435248
