data_functionalizedCrystal
_audit_creation_method	'MofGen! by Chris Wilmer'
_symmetry_space_group_name_H-M	'P1'
_symmetry_Int_Tables_number	1
_symmetry_cell_setting	triclinic
loop_
_symmetry_equiv_pos_as_xyz
  x,y,z
_cell_length_a	19.077115
_cell_length_b	16.959453
_cell_length_c	16.959455
_cell_angle_alpha	90.014910
_cell_angle_beta	92.298620
_cell_angle_gamma	87.716317
loop_
_atom_site_label
_atom_site_type_symbol
_atom_site_fract_x
_atom_site_fract_y
_atom_site_fract_z
Zn1	Zn	1.075879	-0.363425	0.495398
Zn2	Zn	1.075837	-0.495578	0.363216
Zn3	Zn	0.958217	-0.358101	0.357932
Zn4	Zn	0.958160	-0.490244	0.490050
O5	O	1.017023	-0.426837	0.426649
O6	O	1.174363	-0.385416	0.482313
O7	O	1.060240	-0.477346	0.251904
O8	O	0.973867	-0.248198	0.376194
O9	O	1.174332	-0.482508	0.385199
O10	O	1.060313	-0.252110	0.477189
O11	O	0.973826	-0.376342	0.248022
O12	O	0.859720	-0.371169	0.371008
O13	O	0.973769	-0.473417	0.601370
O14	O	0.859678	-0.468254	0.468075
O15	O	1.060257	-0.380243	0.605299
O16	O	1.060185	-0.605479	0.380014
O17	O	0.973728	-0.601561	0.473198
C18	C	0.834161	-0.418556	0.418389
C19	C	0.755932	-0.415032	0.414873
C20	C	0.315585	-0.389726	0.389671
C21	C	0.389090	-0.393041	0.392978
C22	C	0.425836	-0.445329	0.445086
C23	C	0.389074	-0.494299	0.493897
C24	C	0.315571	-0.490979	0.490594
C25	C	0.645667	-0.460682	0.460381
C26	C	0.719175	-0.464000	0.463679
C27	C	0.719186	-0.362741	0.362760
C28	C	0.645681	-0.359429	0.359458
C29	C	0.608926	-0.408396	0.408271
N30	N	0.500970	-0.448720	0.448466
N31	N	0.533793	-0.405000	0.404895
C32	C	1.016965	-0.632201	0.426617
C33	C	1.017004	-0.720059	0.426633
C34	C	1.062093	-1.093516	0.479335
C35	C	0.972150	-1.089563	0.374089
C36	C	0.972124	-1.007016	0.374069
C37	C	1.017082	-0.967715	0.426685
C38	C	1.062067	-1.010961	0.479319
C39	C	0.927135	-0.963764	0.321441
C40	C	0.927107	-0.881212	0.321420
C41	C	0.972069	-0.841909	0.374032
C42	C	1.017056	-0.885161	0.426668
C43	C	1.062015	-0.845860	0.479284
C44	C	1.107006	-0.889110	0.531917
C45	C	1.107029	-0.971659	0.531931
C46	C	0.972045	-0.759360	0.374018
C47	C	1.061988	-0.763305	0.479268
C48	C	1.200599	-0.435151	0.434942
C49	C	1.278828	-0.438694	0.438476
C50	C	1.017012	-0.426829	0.632817
C51	C	1.017007	-0.426826	0.720673
C52	C	1.017101	-0.220672	0.426699
C53	C	1.017135	-0.132817	0.426720
C54	C	0.971987	-0.475359	1.090106
C55	C	1.062047	-0.378337	1.094192
C56	C	1.062045	-0.378330	1.011646
C57	C	1.017014	-0.426839	0.968326
C58	C	0.971985	-0.475355	1.007552
C59	C	1.107078	-0.329821	0.972414
C60	C	1.107078	-0.329813	0.889863
C61	C	1.062043	-0.378319	0.846542
C62	C	1.017011	-0.426836	0.885773
C63	C	0.971980	-0.475345	0.842453
C64	C	0.926944	-0.523859	0.881682
C65	C	0.926949	-0.523861	0.964231
C66	C	1.062038	-0.378316	0.763993
C67	C	0.971978	-0.475342	0.759899
C68	C	1.017025	-0.426858	1.221283
C69	C	1.017018	-0.426849	1.133426
H70	H	0.615749	-0.500558	0.500125
H71	H	0.935411	-0.724149	0.331168
O72	O	0.279972	-0.538623	0.538036
C73	C	0.287714	-0.639363	0.638527
C74	C	0.328116	-0.585469	0.584822
H75	H	0.326621	-0.677240	0.676379
H76	H	0.253300	-0.679137	0.600661
H77	H	0.253302	-0.601562	0.678341
H78	H	0.362566	-0.623207	0.544999
H79	H	0.362485	-0.545690	0.622735
O80	O	0.928214	-0.522544	0.717942
C81	C	0.838862	-0.618750	0.722600
C82	C	0.888396	-0.565344	0.770212
H83	H	0.806645	-0.653356	0.764840
H84	H	0.871130	-0.661595	0.685423
H85	H	0.802104	-0.580788	0.682279
H86	H	0.925164	-0.603243	0.810577
H87	H	0.856084	-0.522496	0.807337
H88	H	1.098602	-0.731312	0.522111
H89	H	0.615767	-0.316857	0.317019
H90	H	0.749092	-0.506579	0.506116
H91	H	1.143749	-0.290309	0.857930
H92	H	0.890530	-0.995769	0.278607
H93	H	0.890474	-0.846002	0.278564
H94	H	0.419014	-0.353170	0.353232
O95	O	1.105705	-0.331082	0.725917
C96	C	1.139959	-0.198183	0.702279
C97	C	1.090449	-0.251587	0.745432
H98	H	1.127652	-0.133903	0.718054
H99	H	1.132217	-0.206443	0.635829
H100	H	1.196700	-0.214681	0.721051
H101	H	1.033688	-0.235123	0.726726
H102	H	1.098251	-0.243321	0.811874
O103	O	1.150654	-0.850806	0.582951
C104	C	1.190429	-0.725373	0.629599
C105	C	1.140977	-0.768656	0.571750
H106	H	1.182612	-0.658947	0.620574
H107	H	1.247214	-0.744063	0.618337
H108	H	1.178036	-0.741073	0.692759
H109	H	1.153306	-0.752978	0.508569
H110	H	1.084206	-0.749963	0.583081
O111	O	1.150660	-1.013791	0.583030
C112	C	1.190581	-1.142719	0.629670
C113	C	1.141127	-1.095098	0.571771
H114	H	1.182901	-1.208465	0.620576
H115	H	1.178165	-1.125966	0.692848
H116	H	1.247333	-1.128973	0.618414
H117	H	1.084359	-1.108819	0.582955
H118	H	1.153604	-1.111857	0.508612
H119	H	1.098726	-1.128734	0.522186
O120	O	0.424876	-0.545071	0.544446
C121	C	0.538105	-0.595034	0.594291
C122	C	0.497649	-0.537508	0.536997
H123	H	0.596948	-0.588927	0.588300
H124	H	0.523683	-0.658113	0.579644
H125	H	0.523624	-0.580608	0.657394
H126	H	0.512108	-0.551861	0.473875
H127	H	0.512074	-0.474445	0.551712
H128	H	0.749120	-0.322874	0.323020
O129	O	0.928547	-1.127862	0.323009
C130	C	0.888698	-1.253285	0.276423
C131	C	0.938126	-1.210009	0.334305
H132	H	0.896415	-1.319708	0.285546
H133	H	0.901108	-1.237695	0.213238
H134	H	0.831937	-1.234480	0.287670
H135	H	0.994903	-1.228791	0.323129
H136	H	0.925656	-1.225600	0.397469
H137	H	0.890283	-0.563359	0.846400
H138	H	0.890286	-0.563361	0.996179
H139	H	0.935318	-0.514855	1.122050
O140	O	1.150759	-0.282732	1.014613
C141	C	1.190712	-0.239790	1.143602
C142	C	1.141192	-0.293141	1.095904
H143	H	1.183005	-0.248199	1.209335
H144	H	1.178386	-0.175474	1.126898
H145	H	1.247448	-0.256241	1.129877
H146	H	1.084439	-0.276760	1.109603
H147	H	1.153578	-0.357443	1.112614
H148	H	1.098714	-0.338847	1.129468
H149	H	0.285672	-0.347148	0.347237
