data_functionalizedCrystal
_audit_creation_method	'MofGen! by Chris Wilmer'
_symmetry_space_group_name_H-M	'P1'
_symmetry_Int_Tables_number	1
_symmetry_cell_setting	triclinic
loop_
_symmetry_equiv_pos_as_xyz
  x,y,z
_cell_length_a	20.919309
_cell_length_b	16.704479
_cell_length_c	16.704494
_cell_angle_alpha	60.171608
_cell_angle_beta	90.228451
_cell_angle_gamma	60.953565
loop_
_atom_site_label
_atom_site_type_symbol
_atom_site_fract_x
_atom_site_fract_y
_atom_site_fract_z
Zr1	Zr	0.680543	0.801028	-0.107837
O2	O	0.586850	0.963831	-0.242059
O3	O	0.704125	0.636051	-0.061288
O4	O	0.717572	0.785118	-0.227226
O5	O	0.568643	0.828072	0.048629
O6	O	0.826534	0.775041	-0.221671
O7	O	0.573403	0.814764	-0.076121
O8	O	0.802481	0.508387	0.075162
O9	O	0.592696	1.094725	-0.248205
O10	O	0.801710	0.697193	-0.043817
O11	O	0.716840	0.714645	0.045137
O12	O	0.732672	0.890152	-0.150234
O13	O	0.647801	0.907604	-0.061281
Zr14	Zr	0.846733	0.806181	0.099984
Zr15	Zr	0.854326	0.784956	-0.098977
Zr16	Zr	0.672951	0.822253	0.091125
Zr17	Zr	0.689868	1.009790	-0.117638
Zr18	Zr	0.837408	0.597419	0.109785
O19	O	0.823151	0.971158	0.053435
O20	O	0.833946	0.940979	-0.229462
O21	O	0.576054	0.994010	0.040838
O22	O	0.940426	0.643378	0.234207
O23	O	0.951222	0.613199	-0.048690
O24	O	0.693330	0.666230	0.221609
O25	O	0.958633	0.779137	-0.056481
O26	O	0.809704	0.822091	0.219374
O27	O	0.700742	0.832168	0.213819
O28	O	0.953873	0.792445	0.068268
O29	O	0.730830	1.081951	-0.241162
O30	O	0.796446	0.525258	0.233310
O31	O	0.934580	0.512483	0.240352
O32	O	0.940615	0.495612	0.082205
O33	O	0.586661	1.111596	-0.090057
O34	O	0.724795	1.098822	-0.083015
O35	O	0.794605	0.717056	0.142382
O36	O	0.879475	0.699605	0.053428
O37	O	0.810436	0.892564	-0.052989
O38	O	0.725566	0.910016	0.035964
C39	C	0.751974	0.542475	0.008334
C40	C	0.748016	0.453850	0.012494
C41	C	0.546262	0.823707	-0.015008
C42	C	0.472487	0.830530	-0.018770
C43	C	0.698118	0.338072	0.064758
C44	C	0.701849	0.421325	0.060872
C45	C	0.790457	0.403113	-0.031998
C46	C	0.786726	0.319860	-0.028112
C47	C	0.740554	0.287345	0.020266
C48	C	0.736819	0.204096	0.024146
C49	C	0.825431	0.185880	-0.068718
C50	C	0.829162	0.269132	-0.072604
C51	C	0.473863	0.733015	0.035007
C52	C	0.404541	0.739433	0.031471
C53	C	0.333844	0.843366	-0.025849
C54	C	0.332470	0.940888	-0.079627
C55	C	0.401791	0.934470	-0.076085
C56	C	0.122736	0.867783	-0.039319
C57	C	0.053413	0.874194	-0.042860
C58	C	0.125488	0.672737	0.068240
C59	C	0.194808	0.666328	0.071773
C60	C	0.193428	0.763851	0.017999
C61	C	0.262985	0.849928	-0.029467
C62	C	0.264286	0.757289	0.021623
C63	C	0.981014	0.783501	0.007156
C64	C	1.054789	0.776679	0.010917
C65	C	0.773135	0.777055	-0.252796
C66	C	0.776358	0.768045	-0.337261
C67	C	0.775302	1.064734	-0.016186
C68	C	0.779260	1.153359	-0.020347
C69	C	0.710345	0.952580	-0.607088
C70	C	0.713371	0.944119	-0.686453
C71	C	0.785443	0.742663	-0.575356
C72	C	0.782416	0.751124	-0.495992
C73	C	0.744865	0.856086	-0.511863
C74	C	0.741833	0.864546	-0.432496
C75	C	0.813909	0.663091	-0.321401
C76	C	0.816936	0.654630	-0.400766
C77	C	0.754141	0.830153	0.244944
C78	C	0.750918	0.839164	0.329408
C79	C	0.969350	0.522372	0.019416
C80	C	1.039167	0.426924	0.027338
C81	C	0.742477	0.569024	0.257204
C82	C	0.735296	0.489409	0.345829
C83	C	0.959853	0.548921	0.268286
C84	C	1.026447	0.462484	0.360672
C85	C	0.567423	1.058288	-0.276138
C86	C	0.500830	1.144725	-0.368525
C87	C	0.557926	1.084837	-0.027268
C88	C	0.488110	1.180285	-0.035190
C89	C	0.784799	1.038185	-0.265056
C90	C	0.791980	1.117799	-0.353681
C91	C	1.031361	0.380841	-0.019711
C92	C	1.096956	0.291168	-0.012287
C93	C	1.170355	0.247574	0.042192
C94	C	1.178159	0.293666	0.089242
C95	C	1.112566	0.383342	0.081812
C96	C	0.772515	0.453281	0.438217
C97	C	0.765764	0.378488	0.521497
C98	C	0.721798	0.339818	0.512386
C99	C	0.684574	0.375954	0.419988
C100	C	0.691321	0.450752	0.336710
C101	C	1.102028	0.412781	0.357625
C102	C	1.164607	0.331575	0.444424
C103	C	1.151603	0.300066	0.534269
C104	C	1.076014	0.349777	0.537314
C105	C	1.013436	0.430988	0.450515
C106	C	0.425248	1.194438	-0.365478
C107	C	0.362670	1.275670	-0.452278
C108	C	0.375675	1.307183	-0.542124
C109	C	0.451264	1.257467	-0.545168
C110	C	0.513841	1.176242	-0.458369
C111	C	0.495916	1.226375	0.011850
C112	C	0.430323	1.316069	0.004403
C113	C	0.356924	1.359666	-0.050079
C114	C	0.349119	1.313571	-0.097125
C115	C	0.414712	1.223884	-0.089683
C116	C	0.835952	1.156446	-0.344539
C117	C	0.842716	1.231240	-0.427803
C118	C	0.805501	1.267393	-0.520208
C119	C	0.761527	1.228739	-0.529348
C120	C	0.754770	1.153940	-0.446085
H121	H	0.699221	0.177626	0.063534
O122	O	0.281149	1.329273	-0.448975
H123	H	0.239814	1.391061	-0.524422
H124	H	0.660516	0.311606	0.104141
O125	O	0.126978	0.567555	0.126241
H126	H	0.095162	0.571133	0.178681
H127	H	0.667292	0.462627	0.097101
O128	O	0.805921	0.339514	0.621149
H129	H	0.847257	0.247421	0.666340
O130	O	0.840249	0.438195	-0.084181
H131	H	0.835708	0.504613	-0.079411
O132	O	1.116069	0.446766	0.260729
H133	H	1.146928	0.372892	0.257654
H134	H	0.405667	0.660026	0.075263
O135	O	1.062001	0.315768	0.634227
H136	H	1.031163	0.389625	0.637329
H137	H	0.685262	1.022694	-0.763988
H138	H	0.866757	0.295614	-0.111990
H139	H	0.661014	0.480157	0.261487
O140	O	0.931914	0.484571	0.453807
H141	H	0.933392	0.448997	0.530868
H142	H	1.090586	0.253652	-0.050602
O143	O	0.871208	0.131166	-0.116709
H144	H	0.860862	0.067807	-0.105878
O145	O	0.550114	0.620915	0.096831
H146	H	0.539421	0.554187	0.133638
H147	H	0.555674	1.190887	0.056221
O148	O	0.876104	1.117446	-0.244877
H149	H	0.907823	1.156881	-0.252524
H150	H	0.716311	0.278912	0.580205
H151	H	0.303520	1.432695	-0.056131
O152	O	0.890143	1.272927	-0.417936
H153	H	0.914871	1.235231	-0.339692
H154	H	0.648777	0.344457	0.412584
H155	H	-0.004152	0.958833	-0.089540
H156	H	0.808317	0.484759	0.445654
O157	O	0.186731	0.962021	-0.091306
H158	H	0.151455	0.975245	-0.044194
H159	H	1.118931	0.420853	0.120131
H160	H	0.679760	1.038045	-0.620013
H161	H	0.324714	1.373323	-0.612794
H162	H	0.121603	0.947192	-0.083123
H163	H	0.252369	0.581693	0.118430
H164	H	0.414645	1.168785	-0.292330
H165	H	1.223759	0.174553	0.048236
O166	O	1.246130	0.277953	0.441131
H167	H	1.244652	0.313495	0.364073
H168	H	0.816024	0.657207	-0.562451
O169	O	0.465286	1.291452	-0.642074
H170	H	0.409070	1.356274	-0.701910
H171	H	0.575381	1.135765	-0.460860
O172	O	0.438747	1.365764	0.055162
H173	H	0.500805	1.320360	0.094312
H174	H	0.718960	1.122483	-0.453542
O175	O	0.857445	0.541422	-0.383648
H176	H	0.829262	0.498895	-0.344063
H177	H	0.274903	1.025514	-0.126293
O178	O	0.851153	0.559010	-0.218685
H179	H	0.806614	0.562203	-0.182155
O180	O	0.400314	1.039645	-0.134092
H181	H	0.339509	1.112995	-0.174554
O182	O	0.340535	0.645192	0.083435
H183	H	0.371885	0.642929	0.139091
O184	O	0.952200	0.427861	-0.078484
H185	H	0.957806	0.380750	-0.109959
O186	O	0.269952	1.360597	-0.155888
H187	H	0.225659	1.430697	-0.153145
H188	H	0.408345	1.186360	-0.127988
O189	O	1.257326	0.246634	0.148011
H190	H	1.301618	0.176526	0.145277
O191	O	1.219100	0.212461	0.627887
H192	H	1.273839	0.183188	0.610664
O193	O	0.812782	1.348085	-0.610013
H194	H	0.849604	1.368891	-0.588123
O195	O	0.721382	1.267749	-0.629017
H196	H	0.733465	1.326265	-0.685372
H197	H	0.711254	0.950012	-0.445423
