data_functionalizedCrystal
_audit_creation_method	'MofGen! by Chris Wilmer'
_symmetry_space_group_name_H-M	'P1'
_symmetry_Int_Tables_number	1
_symmetry_cell_setting	triclinic
loop_
_symmetry_equiv_pos_as_xyz
  x,y,z
_cell_length_a	15.995350
_cell_length_b	15.995350
_cell_length_c	15.072220
_cell_angle_alpha	89.998899
_cell_angle_beta	89.991149
_cell_angle_gamma	96.507625
loop_
_atom_site_label
_atom_site_type_symbol
_atom_site_fract_x
_atom_site_fract_y
_atom_site_fract_z
O1	O	1.110996	-0.107921	-0.073703
O2	O	0.867221	-0.121249	-0.073721
O3	O	0.995772	0.007303	-0.073710
O4	O	0.982444	-0.236472	-0.073713
O5	O	0.995740	0.007296	0.073855
O6	O	0.867189	-0.121256	0.073844
O7	O	1.110964	-0.107928	0.073862
Zn8	Zn	0.989071	-0.114593	0.097283
Zn9	Zn	0.989113	-0.114584	-0.097141
O10	O	0.982413	-0.236480	0.073852
C11	C	0.836010	-0.120701	0.000060
C12	C	0.743060	-0.119049	0.000053
C13	C	0.405312	-0.113117	0.000071
C14	C	0.452746	-0.021565	0.000401
C15	C	0.549436	-0.023217	0.000063
C16	C	0.572873	-0.116060	0.000063
C17	C	0.531804	-0.161212	-0.084201
C18	C	0.435168	-0.158912	-0.084266
C19	C	0.434793	-0.160812	0.083543
C20	C	0.531738	-0.160790	0.084651
C21	C	0.667570	-0.117727	0.000055
C22	C	0.310614	-0.111452	0.000073
C23	C	0.995205	0.038494	0.000070
C24	C	0.993553	0.131444	0.000065
C25	C	1.142175	-0.108476	0.000080
C26	C	1.235125	-0.110127	0.000081
C27	C	0.982980	-0.267671	0.000069
C28	C	0.984631	-0.360621	0.000069
N29	N	0.989049	-0.114599	0.229971
C30	C	0.987621	0.469192	0.000068
C31	C	0.896069	0.421758	-0.000270
C32	C	0.897721	0.325068	0.000063
C33	C	0.990564	0.301631	0.000066
C34	C	1.035702	0.342705	0.084335
C35	C	1.033402	0.439341	0.084405
C36	C	1.035330	0.439707	-0.083404
C37	C	1.035308	0.342761	-0.084518
C38	C	0.992231	0.206934	0.000068
C39	C	0.985956	0.563890	0.000072
N40	N	0.989142	-0.114571	-0.229830
C41	C	0.989112	-0.114580	0.589173
C42	C	0.920095	-0.183135	0.551560
C43	C	0.920254	-0.183385	0.448735
C44	C	0.989080	-0.114590	0.410969
C45	C	1.076445	-0.133671	0.448266
C46	C	1.076058	-0.134159	0.551124
C47	C	0.971542	-0.026741	0.551272
C48	C	0.969537	-0.027327	0.448409
C49	C	0.989067	-0.114593	0.310255
C50	C	0.989130	-0.114579	0.689886
H51	H	0.403031	-0.228312	0.084113
N52	N	0.567898	-0.117136	0.167230
H53	H	0.610746	-0.068586	0.149930
H54	H	0.595891	-0.158378	0.204605
N55	N	1.097443	-0.217563	0.414146
H56	H	1.153768	-0.229278	0.438516
H57	H	1.099939	-0.216168	0.347200
H58	H	0.905271	-0.012846	0.424032
N59	N	1.031801	0.043420	0.414376
H60	H	1.073747	0.019801	0.374027
H61	H	1.062380	0.073060	0.466128
N62	N	0.847609	0.446312	-0.080312
H63	H	0.796126	0.472287	-0.060203
H64	H	0.829763	0.394648	-0.117195
N65	N	1.124745	0.481767	-0.084159
H66	H	1.124450	0.544838	-0.086462
H67	H	1.155028	0.462513	-0.137930
N68	N	0.586365	0.024123	-0.080083
H69	H	0.539823	0.046142	-0.115333
H70	H	0.616221	-0.014946	-0.118418
N71	N	0.410935	-0.115279	-0.167696
H72	H	0.383002	-0.063856	-0.151360
H73	H	0.370596	-0.155085	-0.203504
N74	N	1.038205	0.040840	0.583485
H75	H	1.079592	0.014733	0.622438
H76	H	1.010798	0.084073	0.618654
H77	H	1.004325	0.314320	0.147042
H78	H	0.861974	0.297200	0.060568
H79	H	0.862238	0.296649	-0.060344
N80	N	0.428191	0.026900	0.080450
H81	H	0.365591	0.030640	0.079293
H82	H	0.459383	0.085437	0.079337
N83	N	1.146100	-0.070509	0.584089
H84	H	1.177096	-0.042265	0.531801
H85	H	1.186446	-0.099913	0.621235
N86	N	1.146104	-0.069293	0.415871
H87	H	1.121640	-0.027038	0.376610
H88	H	1.188256	-0.098464	0.380984
H89	H	0.859626	0.441349	0.059819
N90	N	0.552078	-0.250475	0.091396
H91	H	0.583276	-0.258045	0.148570
H92	H	0.588379	-0.263381	0.039440
H93	H	0.909219	-0.008392	0.577258
N94	N	0.587084	0.023790	0.080075
H95	H	0.540874	0.045775	0.115883
H96	H	0.628445	0.072481	0.059884
N97	N	0.569387	-0.119654	-0.167272
H98	H	0.542550	-0.149150	-0.221133
H99	H	0.631993	-0.123372	-0.168160
H100	H	1.000460	0.457639	0.147395
H101	H	1.103014	0.327400	-0.089603
H102	H	0.433165	0.014865	-0.059694
N103	N	0.392444	-0.247943	-0.089296
H104	H	0.436411	-0.288508	-0.091471
H105	H	0.356552	-0.254668	-0.144516
N106	N	0.550520	-0.251559	-0.088369
H107	H	0.585886	-0.264119	-0.035547
H108	H	0.582180	-0.260836	-0.144847
N109	N	0.834230	-0.168334	0.415336
H110	H	0.790952	-0.214362	0.437782
H111	H	0.834239	-0.168451	0.348329
N112	N	0.407580	-0.121174	0.168150
H113	H	0.375859	-0.071893	0.153224
H114	H	0.458832	-0.101007	0.204712
H115	H	1.100617	0.471588	0.088231
N116	N	0.833793	-0.168334	0.584352
H117	H	0.838592	-0.117048	0.623910
H118	H	0.808542	-0.219054	0.619021
N119	N	1.126062	0.324028	0.088479
H120	H	1.138635	0.288672	0.035648
H121	H	1.135370	0.292376	0.144949
H122	H	1.005411	0.460250	-0.147274
N123	N	0.991650	0.306618	-0.167101
H124	H	0.943091	0.263777	-0.149805
H125	H	1.032882	0.278621	-0.204495
N126	N	0.934772	-0.269003	0.585740
H127	H	0.985929	-0.263687	0.625487
H128	H	0.944212	-0.306955	0.534009
H129	H	0.931473	-0.248570	0.424121
N130	N	1.096566	-0.219011	0.582901
H131	H	1.105770	-0.255747	0.530092
H132	H	1.048313	-0.246532	0.619702
