data_functionalizedCrystal
_audit_creation_method	'MofGen! by Chris Wilmer'
_symmetry_space_group_name_H-M	'P1'
_symmetry_Int_Tables_number	1
_symmetry_cell_setting	triclinic
loop_
_symmetry_equiv_pos_as_xyz
  x,y,z
_cell_length_a	12.645330
_cell_length_b	12.759401
_cell_length_c	12.759393
_cell_angle_alpha	89.981504
_cell_angle_beta	90.030048
_cell_angle_gamma	89.982147
loop_
_atom_site_label
_atom_site_type_symbol
_atom_site_fract_x
_atom_site_fract_y
_atom_site_fract_z
Zn1	Zn	-0.421972	-1.606234	0.593992
Zn2	Zn	-0.599276	-1.606119	0.418317
Zn3	Zn	-0.422028	-1.430536	0.418332
Zn4	Zn	-0.599195	-1.430515	0.593959
O5	O	-0.510618	-1.518351	0.506150
O6	O	-0.445503	-1.753239	0.570697
O7	O	-0.575821	-1.582788	0.271298
O8	O	-0.273673	-1.453899	0.441654
O9	O	-0.575767	-1.753155	0.441629
O10	O	-0.273632	-1.582983	0.570711
O11	O	-0.445598	-1.453788	0.271309
O12	O	-0.445518	-1.283512	0.441621
O13	O	-0.575628	-1.453864	0.740984
O14	O	-0.575682	-1.283497	0.570653
O15	O	-0.445424	-1.582964	0.741009
O16	O	-0.747613	-1.582768	0.441596
O17	O	-0.747553	-1.453753	0.570639
C18	C	-0.510598	-1.245383	0.506136
C19	C	-0.510615	-1.128607	0.506155
C20	C	-0.786048	-1.518274	0.506135
C21	C	-0.903878	-1.518337	0.506164
C22	C	-0.510511	-1.518424	0.780183
C23	C	-0.510465	-1.518456	0.896960
C24	C	-1.071448	-1.437509	0.587595
C25	C	-0.948888	-1.437095	0.587334
C26	C	-0.948482	-1.488364	0.395443
C27	C	-1.071080	-1.487871	0.395937
C28	C	-1.070964	-1.629634	0.534556
C29	C	-0.948357	-1.628952	0.536977
C30	C	-0.234112	-1.518456	0.506188
C31	C	-0.116282	-1.518501	0.506204
C32	C	-0.510638	-1.792384	0.506165
C33	C	-0.510647	-1.909161	0.506171
C34	C	-0.578500	-1.073764	0.573231
C35	C	-0.578514	-0.964040	0.573242
C36	C	-0.442755	-0.964011	0.439092
C37	C	-0.442737	-1.073733	0.439087
C38	C	-0.646379	-1.128638	0.640298
C39	C	-0.714270	-1.073796	0.707379
C40	C	-0.714284	-0.964072	0.707390
C41	C	-0.646406	-0.909190	0.640321
C42	C	-0.510648	-1.518338	0.233183
C43	C	-0.510395	-1.518510	0.116407
C44	C	-0.442661	-1.585687	0.951837
C45	C	-0.442623	-1.585712	1.061561
C46	C	-0.578202	-1.451271	1.061522
C47	C	-0.578234	-1.451242	0.951800
C48	C	-0.374893	-1.652901	0.896997
C49	C	-0.307084	-1.720139	0.951874
C50	C	-0.307046	-1.720164	1.061598
C51	C	-0.374816	-1.652951	1.116445
H52	H	-1.100852	-1.456089	0.669964
N53	N	-0.787475	-1.132989	0.779711
H54	H	-0.863200	-1.113870	0.763265
H55	H	-0.771015	-1.113908	0.854780
H56	H	-0.387451	-1.118386	0.384476
N57	N	-0.646416	-0.790845	0.640325
H58	H	-0.573720	-0.764437	0.659760
H59	H	-0.699765	-0.764508	0.692987
H60	H	-1.100743	-1.544302	0.333226
H61	H	-1.099774	-1.406632	0.371918
N62	N	-0.374767	-1.652965	1.234791
H63	H	-0.321525	-1.705751	1.261236
H64	H	-0.447517	-1.672221	1.261128
N65	N	-0.374929	-1.652855	0.778654
H66	H	-0.447663	-1.672122	0.752209
H67	H	-0.321663	-1.705621	0.752315
N68	N	-0.234002	-1.792639	0.892725
H69	H	-0.244320	-1.782431	0.814889
H70	H	-0.250522	-1.867664	0.911919
H71	H	-0.251825	-1.774904	1.106276
N72	N	-0.907962	-1.381870	0.363043
H73	H	-0.866362	-1.388507	0.295819
H74	H	-0.860764	-1.352944	0.419977
N75	N	-1.112373	-1.329053	0.563042
H76	H	-1.159830	-1.332157	0.499425
H77	H	-1.050812	-1.280805	0.548449
N78	N	-0.646371	-1.246982	0.640278
H79	H	-0.699672	-1.273425	0.692940
H80	H	-0.573635	-1.273355	0.659682
H81	H	-0.633377	-1.396549	1.106188
H82	H	-0.919329	-1.545485	0.333143
N83	N	-0.651362	-1.378729	0.892602
H84	H	-0.694294	-1.336159	0.943990
H85	H	-0.700436	-1.421465	0.847068
H86	H	-0.918727	-1.455848	0.669433
H87	H	-0.919656	-1.354706	0.568550
H88	H	-0.919199	-1.651556	0.618463
N89	N	-1.111806	-1.665861	0.639682
H90	H	-1.160107	-1.610593	0.669994
H91	H	-1.050266	-1.677814	0.688739
H92	H	-0.387493	-0.919317	0.384487
N93	N	-0.907763	-1.713103	0.464181
H94	H	-0.859754	-1.680569	0.409951
H95	H	-0.969436	-1.748117	0.428074
H96	H	-0.769556	-0.919422	0.762018
N97	N	-1.109361	-1.709569	0.456037
H98	H	-1.155883	-1.674027	0.402355
H99	H	-1.151181	-1.765627	0.493497
