data_functionalizedCrystal
_audit_creation_method	'MofGen! by Chris Wilmer'
_symmetry_space_group_name_H-M	'P1'
_symmetry_Int_Tables_number	1
_symmetry_cell_setting	triclinic
loop_
_symmetry_equiv_pos_as_xyz
  x,y,z
_cell_length_a	6.817900
_cell_length_b	7.076148
_cell_length_c	7.190334
_cell_angle_alpha	96.844284
_cell_angle_beta	119.388224
_cell_angle_gamma	62.297619
loop_
_atom_site_label
_atom_site_type_symbol
_atom_site_fract_x
_atom_site_fract_y
_atom_site_fract_z
V1	V	4.298441	-0.291704	0.663535
V2	V	4.798441	0.208296	1.163535
O3	O	4.202196	0.017518	0.652430
O4	O	4.702196	0.517518	1.152430
O5	O	4.323681	-0.581767	0.657529
O6	O	4.823681	-0.081767	1.157529
O7	O	4.334047	-0.285681	0.953595
O8	O	4.834047	0.214319	1.453595
O9	O	4.191759	-0.280618	0.354314
O10	O	4.691759	0.219382	0.854314
V11	V	4.761642	-0.254899	0.626728
V12	V	5.261642	0.245101	1.126728
O13	O	4.604278	-0.372439	0.744274
O14	O	5.104278	0.127561	1.244274
O15	O	4.906002	-0.174164	0.545989
O16	O	5.406002	0.325836	1.045989
O17	O	4.513195	0.035164	0.632734
O18	O	5.013195	0.535164	1.132734
O19	O	4.975283	-0.564122	0.637833
O20	O	5.475283	-0.064122	1.137833
O21	O	4.985720	-0.265986	0.935948
O22	O	5.485720	0.234014	1.435948
O23	O	4.502829	-0.260922	0.336668
O24	O	5.002829	0.239078	0.836668
C25	C	4.316355	0.105912	0.643576
C26	C	4.816355	0.605912	1.143576
C27	C	4.190818	0.347483	0.646654
C28	C	4.690818	0.847483	1.146654
C29	C	4.197109	-0.274829	1.024341
C30	C	4.697109	0.225171	1.524341
C31	C	4.310073	-0.271764	1.265913
C32	C	4.810073	0.228236	1.765913
