data_functionalizedCrystal
_audit_creation_method	'MofGen! by Chris Wilmer'
_symmetry_space_group_name_H-M	'P1'
_symmetry_Int_Tables_number	1
_symmetry_cell_setting	triclinic
loop_
_symmetry_equiv_pos_as_xyz
  x,y,z
_cell_length_a	19.851628
_cell_length_b	12.477989
_cell_length_c	19.851628
_cell_angle_alpha	115.625212
_cell_angle_beta	89.994754
_cell_angle_gamma	55.723479
loop_
_atom_site_label
_atom_site_type_symbol
_atom_site_fract_x
_atom_site_fract_y
_atom_site_fract_z
Zr1	Zr	0.600632	1.177967	0.039979
O2	O	0.483854	1.402504	0.138331
O3	O	0.642822	0.953426	0.016218
O4	O	0.633613	1.177936	0.147529
O5	O	0.493057	1.178020	-0.103828
O6	O	0.744476	1.177915	0.147517
O7	O	0.493063	1.177995	0.007020
O8	O	0.760949	0.776308	-0.087375
O9	O	0.476584	1.579627	0.131063
O10	O	0.735830	1.045769	-0.001644
O11	O	0.653090	1.045803	-0.084360
O12	O	0.642248	1.310134	0.070242
O13	O	0.559508	1.310169	-0.012473
Zr14	Zr	0.777436	1.177974	-0.136831
Zr15	Zr	0.777445	1.177934	0.039959
Zr16	Zr	0.600623	1.178007	-0.136811
Zr17	Zr	0.589038	1.460457	0.028388
Zr18	Zr	0.789031	0.895484	-0.125240
O19	O	0.735247	1.402515	-0.113070
O20	O	0.735260	1.402457	0.138303
O21	O	0.483841	1.402562	-0.113042
O22	O	0.894214	0.953437	-0.235183
O23	O	0.894227	0.953379	0.016190
O24	O	0.642809	0.953484	-0.235155
O25	O	0.885011	1.177921	0.006976
O26	O	0.744455	1.178005	-0.244381
O27	O	0.633593	1.178026	-0.244369
O28	O	0.885006	1.177946	-0.103873
O29	O	0.617127	1.579601	0.131047
O30	O	0.760941	0.776340	-0.227900
O31	O	0.901484	0.776314	-0.227916
O32	O	0.901491	0.776282	-0.087391
O33	O	0.476577	1.579659	-0.009461
O34	O	0.617120	1.579633	-0.009477
O35	O	0.735821	1.045806	-0.167094
O36	O	0.818561	1.045772	-0.084379
O37	O	0.724979	1.310138	-0.012492
O38	O	0.642239	1.310172	-0.095208
C39	C	0.703537	0.824618	-0.033927
C40	C	0.708459	0.704694	-0.029006
C41	C	0.467868	1.178012	-0.048401
C42	C	0.392806	1.178026	-0.048392
C43	C	0.160438	1.322136	-0.009223
C44	C	0.141036	1.250070	0.026420
C45	C	0.255401	1.177987	-0.048414
C46	C	0.141062	1.250062	-0.084043
C47	C	0.122670	1.177959	-0.048436
C48	C	0.236988	1.105920	-0.012726
C49	C	0.237011	1.105932	-0.123232
C50	C	0.217666	1.033762	-0.087604
C51	C	0.331863	1.178007	-0.048400
C52	C	0.046214	1.177928	-0.048448
C53	C	0.910201	1.177929	-0.048451
C54	C	0.985262	1.177915	-0.048460
C55	C	0.689046	1.177920	0.172712
C56	C	0.689050	1.177903	0.247764
C57	C	0.674531	1.531323	-0.062925
C58	C	0.669609	1.651247	-0.067846
C59	C	0.740083	1.033773	0.434823
C60	C	0.769829	1.105795	0.409485
C61	C	0.689055	1.177940	0.517938
C62	C	0.659347	1.105855	0.409522
C63	C	0.689054	1.177914	0.385190
C64	C	0.718847	1.249963	0.493589
C65	C	0.608323	1.250002	0.493624
C66	C	0.638045	1.322129	0.468334
C67	C	0.689058	1.177951	0.594410
C68	C	0.689052	1.177914	0.308724
C69	C	0.689032	1.178000	0.730431
C70	C	0.689057	1.177956	0.655362
C71	C	0.924704	0.824577	-0.033952
C72	C	1.004688	0.704638	-0.029039
C73	C	0.703526	0.824669	-0.255064
C74	C	0.708444	0.704762	-0.325196
C75	C	0.924692	0.824627	-0.255090
C76	C	1.004672	0.704706	-0.325229
C77	C	0.453377	1.531313	0.158238
C78	C	0.373397	1.651235	0.228377
C79	C	0.453365	1.531364	-0.062900
C80	C	0.373381	1.651303	-0.067813
C81	C	0.674543	1.531272	0.158212
C82	C	0.669625	1.651179	0.228344
C83	C	0.999064	0.648312	0.016461
C84	C	1.074210	0.535632	0.021093
C85	C	1.154979	0.479274	-0.019781
C86	C	1.160601	0.535611	-0.065284
C87	C	1.085455	0.648296	-0.069910
C88	C	0.753938	0.648454	-0.401324
C89	C	0.758556	0.535804	-0.467227
C90	C	0.717683	0.479456	-0.457000
C91	C	0.672183	0.535775	-0.380864
C92	C	0.667561	0.648431	-0.314963
C93	C	1.085428	0.648372	-0.314991
C94	C	1.160584	0.535709	-0.380889
C95	C	1.154982	0.479374	-0.457024
C96	C	1.074217	0.535720	-0.467261
C97	C	0.999063	0.648388	-0.401364
C98	C	0.292640	1.707583	0.218139
C99	C	0.217482	1.820281	0.284035
C100	C	0.223084	1.876621	0.360169
C101	C	0.303849	1.820269	0.370407
C102	C	0.379005	1.707580	0.304511
C103	C	0.379004	1.707641	-0.113306
C104	C	0.303857	1.820351	-0.117920
C105	C	0.223088	1.876714	-0.077043
C106	C	0.217466	1.820371	-0.031544
C107	C	0.292612	1.707671	-0.026927
C108	C	0.710507	1.707491	0.218092
C109	C	0.705902	1.820142	0.283981
C110	C	0.660410	1.876486	0.360122
C111	C	0.619527	1.820163	0.370373
C112	C	0.624137	1.707507	0.304484
H113	H	0.745487	0.658705	0.008017
H114	H	0.632576	0.697244	-0.104859
H115	H	0.288022	1.661803	0.010117
H116	H	1.226340	0.489843	-0.372539
H117	H	0.444764	1.661759	-0.146599
H118	H	0.638907	0.489880	-0.372548
H119	H	0.630518	0.694262	-0.252978
H120	H	0.795610	0.489962	-0.529214
H121	H	0.099758	1.311024	-0.114166
H122	H	0.308451	1.866207	-0.154973
H123	H	0.161881	1.968379	0.413819
H124	H	0.783279	0.911897	0.421396
H125	H	1.216184	0.387632	-0.510674
H126	H	0.656663	1.968219	0.413766
H127	H	0.099728	1.310982	0.089685
H128	H	0.721454	0.387725	-0.510668
H129	H	1.216161	0.387517	-0.016008
H130	H	0.136986	1.444020	0.023975
H131	H	0.594899	1.444105	0.481913
H132	H	0.540065	1.310890	0.529930
H133	H	0.278314	1.045072	-0.186485
H134	H	0.747551	1.661633	0.156099
H135	H	1.069669	0.489835	-0.529258
H136	H	0.278183	1.045030	0.017470
H137	H	1.226373	0.489707	-0.098561
H138	H	0.241278	0.911777	-0.120744
H139	H	0.739194	1.865988	0.275619
H140	H	0.634221	1.044908	0.373234
H141	H	1.090046	0.694142	-0.106967
H142	H	0.838103	1.044854	0.373180
H143	H	0.744050	1.310841	0.529775
H144	H	0.308400	1.866156	0.432403
H145	H	0.590841	1.661670	0.312843
H146	H	0.933304	0.694198	0.049756
H147	H	0.161905	1.968482	-0.080810
H148	H	1.090006	0.694223	-0.253004
H149	H	1.069616	0.489776	0.058145
H150	H	0.787223	0.694320	-0.409666
H151	H	0.933311	0.694241	-0.409711
H152	H	0.582487	1.866056	0.432375
H153	H	0.151728	1.866144	0.275684
H154	H	0.288063	1.661717	0.156152
H155	H	0.444758	1.661703	0.312857
H156	H	0.151694	1.866279	0.001736
