data_functionalizedCrystal
_audit_creation_method	'MofGen! by Chris Wilmer'
_symmetry_space_group_name_H-M	'P1'
_symmetry_Int_Tables_number	1
_symmetry_cell_setting	triclinic
loop_
_symmetry_equiv_pos_as_xyz
  x,y,z
_cell_length_a	13.339070
_cell_length_b	12.376457
_cell_length_c	12.784905
_cell_angle_alpha	79.926675
_cell_angle_beta	94.368307
_cell_angle_gamma	104.410245
loop_
_atom_site_label
_atom_site_type_symbol
_atom_site_fract_x
_atom_site_fract_y
_atom_site_fract_z
O1	O	1.317258	0.094032	0.505100
O2	O	1.028726	0.094027	0.436928
O3	O	1.194105	0.094026	0.322514
O4	O	1.151879	0.094032	0.619514
O5	O	1.152779	-0.093986	0.351067
O6	O	0.987400	-0.093985	0.465481
O7	O	1.275931	-0.093980	0.533653
Zn8	Zn	1.125104	-0.123834	0.504101
Zn9	Zn	1.179554	0.123880	0.466480
O10	O	1.110552	-0.093980	0.648068
C11	C	0.971387	0.000020	0.439689
C12	C	0.862104	0.000019	0.405364
C13	C	0.473839	0.000041	0.672257
C14	C	0.576516	0.000047	0.704510
C15	C	0.647917	0.000039	0.629726
C16	C	0.616633	0.000027	0.522684
C17	C	0.513948	0.000031	0.490426
C18	C	0.688027	0.000029	0.447896
C19	C	0.656743	0.000017	0.340854
C20	C	0.554067	0.000020	0.308602
C21	C	0.482665	0.000027	0.383385
C22	C	0.790712	0.000025	0.480153
C23	C	0.830821	0.000015	0.298323
C24	C	0.728144	0.000010	0.266070
N25	N	1.087951	-0.292892	0.529777
C26	C	1.302961	-0.647878	0.381175
C27	C	1.328959	-0.529538	0.363202
C28	C	1.268709	-0.470371	0.404844
C29	C	1.182457	-0.529555	0.464462
C30	C	1.156461	-0.647906	0.482444
C31	C	1.122209	-0.470399	0.506113
C32	C	1.035957	-0.529583	0.565731
C33	C	1.009965	-0.647923	0.583709
C34	C	1.070215	-0.707090	0.542067
C35	C	1.148205	-0.352048	0.488131
C36	C	1.001705	-0.352076	0.589401
C37	C	0.975707	-0.470416	0.607373
C38	C	1.333272	0.000029	0.530892
C39	C	1.442556	0.000038	0.565216
C40	C	1.176189	0.000022	0.298001
C41	C	1.184362	0.000027	0.182416
N42	N	1.216715	0.292938	0.440798
C43	C	1.017872	0.000013	-0.063065
C44	C	1.025547	0.000018	-0.171667
C45	C	1.207382	0.000033	-0.143393
C46	C	1.199707	0.000028	-0.034790
C47	C	1.104950	0.000020	0.005369
C48	C	1.097278	0.000023	0.113973
C49	C	1.279111	0.000030	0.142246
C50	C	1.286785	0.000035	0.033643
C51	C	1.128469	0.000027	0.672580
C52	C	1.120298	0.000029	0.788164
H53	H	0.415698	0.000057	0.733132
H54	H	0.888959	0.000014	0.237427
C55	C	0.916259	-0.711978	0.648430
C56	C	0.869041	-0.634838	0.681029
C57	C	0.782710	-0.693802	0.740641
H58	H	0.937668	-0.758136	0.709117
H59	H	0.868304	-0.758133	0.606054
H60	H	0.916987	-0.588702	0.723404
H61	H	0.847609	-0.588677	0.620364
H62	H	0.734755	-0.739957	0.698265
H63	H	0.804129	-0.739958	0.801323
H64	H	0.750657	-0.641472	0.762759
H65	H	1.399185	-0.481354	0.314663
H66	H	0.954638	0.000006	-0.227383
C67	C	1.368357	-0.711978	0.335763
C68	C	1.367667	-0.683186	0.224860
C69	C	1.427910	-0.742205	0.182986
H70	H	1.340594	-0.790951	0.354892
H71	H	1.437464	-0.692552	0.363448
H72	H	1.298573	-0.702620	0.197185
H73	H	1.395437	-0.604224	0.205701
H74	H	1.497017	-0.722779	0.210671
H75	H	1.400142	-0.821175	0.202123
H76	H	1.427458	-0.722670	0.107736
C77	C	1.310332	-0.000016	-0.186795
C78	C	1.384950	-0.000036	-0.103617
C79	C	1.479797	-0.000094	-0.143556
H80	H	1.331647	0.065530	-0.238511
H81	H	1.302742	-0.065606	-0.218581
H82	H	1.392542	0.065548	-0.071848
H83	H	1.363669	-0.065576	-0.051895
H84	H	1.472207	-0.065684	-0.175343
H85	H	1.501102	0.065453	-0.195272
H86	H	1.530434	-0.000117	-0.087126
H87	H	0.702660	0.000009	0.178913
H88	H	0.816172	0.000030	0.567308
H89	H	1.218432	-0.303870	0.439590
H90	H	0.731521	0.000046	0.655992
H91	H	0.940719	0.000015	-0.030368
H92	H	1.049046	-0.803452	0.556697
C93	C	0.936467	-0.287708	0.634695
C94	C	0.998340	-0.219729	0.703290
C95	C	0.938290	-0.160399	0.745024
H96	H	0.881374	-0.339775	0.672856
H97	H	0.908869	-0.241487	0.578307
H98	H	1.025922	-0.265945	0.759670
H99	H	1.053432	-0.167641	0.665154
H100	H	0.910692	-0.114179	0.688636
H101	H	0.883199	-0.212475	0.783180
H102	H	0.980264	-0.114261	0.791563
H103	H	0.399056	0.000023	0.357130
H104	H	0.905479	-0.518618	0.655916
H105	H	1.363932	0.000037	0.000931
H106	H	1.350038	0.000136	0.197962
C107	C	0.520285	0.000192	0.192322
C108	C	0.578648	0.096901	0.130626
C109	C	0.547570	0.097091	0.023504
H110	H	0.448938	0.000255	0.183663
H111	H	0.530981	-0.065341	0.170161
H112	H	0.567944	0.162417	0.152780
H113	H	0.649997	0.096859	0.139252
H114	H	0.558266	0.031557	0.001342
H115	H	0.476223	0.097150	0.014856
H116	H	0.587171	0.162700	-0.018371
C117	C	0.610700	0.000147	0.820656
C118	C	0.715913	0.000192	0.832892
C119	C	0.747446	0.000315	0.939872
H120	H	0.571334	-0.065385	0.862817
H121	H	0.600100	0.065752	0.842760
H122	H	0.726504	-0.065405	0.810801
H123	H	0.755303	0.065719	0.790756
H124	H	0.736846	0.065920	0.961977
H125	H	0.708074	-0.065218	0.982024
H126	H	0.818838	0.000356	0.948187
H127	H	1.289881	-0.374013	0.390208
C128	C	0.994377	0.000189	0.157409
C129	C	0.962633	0.096896	0.107754
C130	C	0.867836	0.097076	0.147727
H131	H	1.002145	0.000247	0.231874
H132	H	0.943828	-0.065346	0.143721
H133	H	1.013169	0.162413	0.121451
H134	H	0.954842	0.096858	0.033291
H135	H	0.817286	0.031541	0.134039
H136	H	0.875613	0.097131	0.222192
H137	H	0.846280	0.162684	0.114036
