data_functionalizedCrystal
_audit_creation_method	'MofGen! by Chris Wilmer'
_symmetry_space_group_name_H-M	'P1'
_symmetry_Int_Tables_number	1
_symmetry_cell_setting	triclinic
loop_
_symmetry_equiv_pos_as_xyz
  x,y,z
_cell_length_a	33.428889
_cell_length_b	33.428139
_cell_length_c	33.424847
_cell_angle_alpha	60.004234
_cell_angle_beta	60.008465
_cell_angle_gamma	59.994972
loop_
_atom_site_label
_atom_site_type_symbol
_atom_site_fract_x
_atom_site_fract_y
_atom_site_fract_z
O1	O	0.055565	-0.584504	0.488714
O2	O	0.555565	-0.084504	0.988714
O3	O	0.020982	-0.455083	0.393778
O4	O	0.520982	0.044917	0.893778
O5	O	0.102943	-0.536959	0.393689
O6	O	0.602943	-0.036959	0.893689
O7	O	-0.026396	-0.502628	0.488803
O8	O	0.473604	-0.002628	0.988803
O9	O	0.130140	-0.509767	0.420792
O10	O	0.630140	-0.009767	0.920792
O11	O	0.048179	-0.427891	0.420881
O12	O	0.548179	0.072109	0.920881
O13	O	0.082762	-0.557312	0.515817
O14	O	0.582762	-0.057312	1.015817
Cu15	Cu	0.067954	-0.490119	0.470823
Cu16	Cu	0.567954	0.009881	0.970823
Cu17	Cu	0.035790	-0.522276	0.438771
Cu18	Cu	0.535790	-0.022276	0.938771
O19	O	0.000801	-0.475436	0.515906
O20	O	0.500801	0.024564	1.015906
N21	N	0.090577	-0.467504	0.493370
N22	N	0.590577	0.032496	0.993370
N23	N	0.013171	-0.544895	0.416225
N24	N	0.513171	-0.044895	0.916225
C25	C	0.143377	-0.280390	0.546067
C26	C	0.643377	0.219610	1.046067
C27	C	0.143515	-0.414755	0.680369
C28	C	0.643515	0.085245	1.180369
C29	C	0.143392	-0.414735	0.546069
C30	C	0.643392	0.085265	1.046069
C31	C	0.277766	-0.414702	0.545966
C32	C	0.777766	0.085298	1.045966
C33	C	0.158177	-0.324719	0.560828
C34	C	0.658177	0.175281	1.060828
C35	C	0.158255	-0.399967	0.636038
C36	C	0.658255	0.100033	1.136038
C37	C	0.233434	-0.399936	0.560773
C38	C	0.733434	0.100064	1.060773
C39	C	0.158186	-0.399955	0.560829
C40	C	0.658186	0.100045	1.060829
C41	C	0.124540	-0.223964	0.527278
C42	C	0.624540	0.276036	1.027278
C43	C	0.124565	-0.433545	0.527281
C44	C	0.624565	0.066455	1.027281
C45	C	0.177014	-0.381145	0.579617
C46	C	0.677014	0.118855	1.079617
C47	C	0.359814	-0.400540	0.502735
C48	C	0.859814	0.099460	1.002735
C49	C	0.411105	-0.417624	0.485606
C50	C	0.911105	0.082376	0.985606
C51	C	0.411136	-0.500620	0.517255
C52	C	0.911136	-0.000620	1.017255
C53	C	0.359845	-0.483534	0.534385
C54	C	0.859845	0.016466	1.034385
C55	C	0.136887	-0.198305	0.476855
C56	C	0.636887	0.301695	0.976855
C57	C	0.119761	-0.147011	0.459777
C58	C	0.619761	0.352989	0.959777
C59	C	0.077945	-0.147038	0.543547
C60	C	0.577945	0.352962	1.043547
C61	C	0.095072	-0.198332	0.560625
C62	C	0.595072	0.301668	1.060625
C63	C	0.074134	-0.421169	0.539710
C64	C	0.574134	0.078831	1.039710
C65	C	0.057023	-0.438269	0.522625
C66	C	0.557023	0.061731	1.022625
C67	C	0.140770	-0.480120	0.480694
C68	C	0.640770	0.019880	0.980694
C69	C	0.157883	-0.463020	0.497773
C70	C	0.657883	0.036980	0.997773
C71	C	0.074339	-0.421208	0.762475
C72	C	0.574339	0.078792	1.262475
C73	C	0.057288	-0.438323	0.813768
C74	C	0.557288	0.061677	1.313768
C75	C	0.141075	-0.480183	0.813699
C76	C	0.641075	0.019817	1.313699
C77	C	0.158125	-0.463069	0.762404
C78	C	0.658125	0.036931	1.262404
C79	C	0.124756	-0.433580	0.736794
C80	C	0.624756	0.066420	1.236794
C81	C	0.334186	-0.433494	0.527123
C82	C	0.834186	0.066506	1.027123
C83	C	-0.173769	-0.597444	0.363037
C84	C	0.326231	-0.097444	0.863037
C85	C	-0.039302	-0.597595	0.228856
C86	C	0.460698	-0.097595	0.728856
C87	C	-0.039496	-0.597587	0.363300
C88	C	0.460504	-0.097587	0.863300
C89	C	-0.039512	-0.731889	0.363237
C90	C	0.460488	-0.231889	0.863237
C91	C	-0.129442	-0.612265	0.348329
C92	C	0.370558	-0.112265	0.848329
C93	C	-0.054138	-0.612351	0.273187
C94	C	0.445862	-0.112351	0.773187
C95	C	-0.054257	-0.687554	0.348440
C96	C	0.445743	-0.187554	0.848440
C97	C	-0.054247	-0.612346	0.348477
C98	C	0.445753	-0.112346	0.848477
C99	C	-0.230191	-0.578579	0.381758
C100	C	0.269809	-0.078579	0.881758
C101	C	-0.020722	-0.578803	0.382168
C102	C	0.479278	-0.078803	0.882168
C103	C	-0.073020	-0.631130	0.329609
C104	C	0.426980	-0.131130	0.829609
C105	C	-0.053713	-0.813916	0.406386
C106	C	0.446287	-0.313916	0.906386
C107	C	-0.036654	-0.865210	0.423504
C108	C	0.463346	-0.365210	0.923504
C109	C	0.046338	-0.865293	0.391984
C110	C	0.546338	-0.365293	0.891984
C111	C	0.029278	-0.813999	0.374865
C112	C	0.529278	-0.313999	0.874865
C113	C	-0.255900	-0.590938	0.432169
C114	C	0.244100	-0.090938	0.932169
C115	C	-0.307191	-0.573786	0.449185
C116	C	0.192809	-0.073786	0.949185
C117	C	-0.307060	-0.531922	0.365377
C118	C	0.192940	-0.031922	0.865377
C119	C	-0.255769	-0.549074	0.348360
C120	C	0.244231	-0.049074	0.848360
C121	C	-0.033081	-0.528377	0.369764
C122	C	0.466919	-0.028377	0.869764
C123	C	-0.016014	-0.511306	0.386922
C124	C	0.483986	-0.011306	0.886922
C125	C	0.025770	-0.595083	0.428877
C126	C	0.525770	-0.095083	0.928877
C127	C	0.008703	-0.612156	0.411725
C128	C	0.508703	-0.112156	0.911725
C129	C	-0.032755	-0.528393	0.146761
C130	C	0.467245	-0.028393	0.646761
C131	C	-0.015585	-0.511324	0.095468
C132	C	0.484415	-0.011324	0.595468
C133	C	0.026262	-0.595106	0.095516
C134	C	0.526262	-0.095106	0.595516
C135	C	0.009094	-0.612174	0.146811
C136	C	0.509094	-0.112174	0.646811
C137	C	-0.020417	-0.578816	0.172432
C138	C	0.479583	-0.078816	0.672432
C139	C	-0.020748	-0.788312	0.382068
C140	C	0.479252	-0.288312	0.882068
N141	N	0.436037	-0.467415	0.493101
N142	N	0.936037	0.032585	0.993101
O143	O	0.592642	-0.471896	0.376066
O144	O	1.092642	0.028104	0.876066
O145	O	0.592838	-0.567146	0.505347
O146	O	1.092838	-0.067146	1.005347
O147	O	0.592754	-0.566928	0.423360
O148	O	1.092754	-0.066928	0.923360
O149	O	0.592727	-0.472113	0.458053
O150	O	1.092727	0.027887	0.958053
O151	O	0.511269	-0.539835	0.450606
O152	O	1.011269	-0.039835	0.950606
O153	O	0.511353	-0.540052	0.532594
O154	O	1.011353	-0.040052	1.032594
O155	O	0.511157	-0.444802	0.403312
O156	O	1.011157	0.055198	0.903312
Cu157	Cu	0.503815	-0.489954	0.470441
Cu158	Cu	1.003815	0.010046	0.970441
Cu159	Cu	0.600180	-0.521995	0.438219
Cu160	Cu	1.100180	-0.021995	0.938219
O161	O	0.511242	-0.445020	0.485300
O162	O	1.011242	0.054980	0.985300
N163	N	0.667959	-0.544533	0.415554
N164	N	1.167959	-0.044533	0.915554
N165	N	0.090544	-0.122107	0.493359
N166	N	0.590544	0.377893	0.993359
O167	O	-0.026406	0.034587	0.488773
O168	O	0.473594	0.534587	0.988773
O169	O	0.102877	0.034627	0.393499
O170	O	0.602877	0.534627	0.893499
O171	O	0.020848	0.034591	0.393771
O172	O	0.520848	0.534591	0.893771
O173	O	0.055623	0.034623	0.488500
O174	O	0.555623	0.534623	0.988500
O175	O	0.048051	-0.046899	0.420925
O176	O	0.548051	0.453101	0.920925
O177	O	0.130080	-0.046864	0.420653
O178	O	0.630080	0.453136	0.920653
O179	O	0.000796	-0.046903	0.515927
O180	O	0.500796	0.453097	1.015927
Cu181	Cu	0.067922	-0.054324	0.470769
Cu182	Cu	0.567922	0.445676	0.970769
Cu183	Cu	0.035752	0.042048	0.438656
Cu184	Cu	0.535752	0.542048	0.938656
O185	O	0.082825	-0.046867	0.515655
O186	O	0.582825	0.453133	1.015655
N187	N	0.013123	0.109830	0.416068
N188	N	0.513123	0.609830	0.916068
N189	N	0.090892	-0.467554	0.838649
N190	N	0.590892	0.032446	1.338649
O191	O	0.086330	-0.584488	0.995334
O192	O	0.586330	-0.084488	1.495334
O193	O	-0.008902	-0.455160	0.995379
O194	O	0.491098	0.044840	1.495379
O195	O	-0.008679	-0.537172	0.995355
O196	O	0.491321	-0.037172	1.495355
O197	O	0.086107	-0.502475	0.995358
O198	O	0.586107	-0.002475	1.495358
O199	O	0.018452	-0.509990	0.913868
O200	O	0.518452	-0.009990	1.413868
O201	O	0.018230	-0.427978	0.913891
O202	O	0.518230	0.072022	1.413891
O203	O	0.113461	-0.557306	0.913847
O204	O	0.613461	-0.057306	1.413847
Cu205	Cu	0.068323	-0.490160	0.906429
Cu206	Cu	0.568323	0.009840	1.406429
Cu207	Cu	0.036237	-0.522306	1.002797
Cu208	Cu	0.536237	-0.022306	1.502797
O209	O	0.113239	-0.475293	0.913870
O210	O	0.613239	0.024707	1.413870
N211	N	0.013667	-0.544916	1.070577
N212	N	0.513667	-0.044916	1.570577
C213	C	0.031339	-0.425179	0.394250
C214	C	0.531339	0.074821	0.894250
C215	C	0.132837	-0.526572	0.394139
C216	C	0.632837	-0.026572	0.894139
C217	C	0.072405	-0.587216	0.515344
C218	C	0.572405	-0.087216	1.015344
C219	C	-0.029093	-0.485823	0.515455
C220	C	0.470907	0.014177	1.015455
C221	C	0.552119	-0.566716	0.535258
C222	C	1.052119	-0.066716	1.035258
C223	C	0.552016	-0.566447	0.433726
C224	C	1.052016	-0.066447	0.933726
C225	C	0.551873	-0.445232	0.373402
C226	C	1.051873	0.054768	0.873402
C227	C	0.551980	-0.445502	0.474933
C228	C	1.051980	0.054498	0.974933
C229	C	0.132731	-0.006013	0.393923
C230	C	0.632731	0.493987	0.893923
C231	C	0.031182	-0.006158	0.394293
C232	C	0.531182	0.493842	0.894293
C233	C	-0.029092	-0.006163	0.515469
C234	C	0.470908	0.493837	1.015469
C235	C	0.072491	-0.006119	0.515133
C236	C	0.572491	0.493881	1.015133
C237	C	-0.008451	-0.425276	0.954641
C238	C	0.491549	0.074724	1.454641
C239	C	-0.008170	-0.526833	0.954596
C240	C	0.491830	-0.026833	1.454596
C241	C	0.113010	-0.587190	0.954585
C242	C	0.613010	-0.087190	1.454585
C243	C	0.112735	-0.485627	0.954611
C244	C	0.612735	0.014373	1.454611
H245	H	0.016234	-0.428240	0.834672
H246	H	0.516234	0.071760	1.334672
H247	H	0.023949	-0.388000	0.364433
H248	H	0.523949	0.112000	0.864433
H249	H	0.079796	-0.624394	0.545162
H250	H	0.579796	-0.124394	1.045162
H251	H	0.551974	-0.415718	0.482355
H252	H	1.051974	0.084282	0.982355
N253	N	0.152613	-0.636391	0.954579
N254	N	0.652613	-0.136391	1.454579
H255	H	0.140052	-0.658297	0.954578
H256	H	0.640052	-0.158297	1.454578
H257	H	0.162078	-0.651946	0.984789
H258	H	0.662078	-0.151946	1.484789
H259	H	0.169783	-0.005775	0.363939
H260	H	0.669783	0.494225	0.863939
N261	N	-0.047603	-0.536642	0.954549
N262	N	0.452397	-0.036642	1.454549
H263	H	-0.055725	-0.565061	0.984740
H264	H	0.444275	-0.065061	1.484740
H265	H	-0.035544	-0.544877	0.924306
H266	H	0.464456	-0.044877	1.424306
N267	N	0.152182	-0.475798	0.954610
N268	N	0.652182	0.024202	1.454610
H269	H	0.139470	-0.441307	0.954620
H270	H	0.639470	0.058693	1.454620
H271	H	0.181795	-0.479701	0.924395
H272	H	0.681795	0.020299	1.424395
H273	H	0.023733	-0.006162	0.364531
H274	H	0.523733	0.493838	0.864531
N275	N	0.081760	-0.226008	0.615010
N276	N	0.581760	0.273992	1.115010
H277	H	0.063263	-0.247298	0.623983
H278	H	0.563263	0.252702	1.123983
H279	H	0.060511	-0.201954	0.633505
H280	H	0.560511	0.298046	1.133505
N281	N	0.038198	-0.389371	0.571527
N282	N	0.538198	0.110629	1.071527
H283	H	0.043413	-0.356676	0.554887
H284	H	0.543413	0.143324	1.054887
H285	H	0.043471	-0.406051	0.604202
H286	H	0.543471	0.093949	1.104202
N287	N	-0.078268	-0.006182	0.555093
N288	N	0.421732	0.493818	1.055093
H289	H	-0.104806	0.024017	0.543185
H290	H	0.395194	0.524017	1.043185
H291	H	-0.078266	-0.006197	0.585315
H292	H	0.421734	0.493803	1.085315
N293	N	-0.048054	-0.376077	0.954657
N294	N	0.451946	0.123923	1.454657
H295	H	-0.077660	-0.380623	0.984867
H296	H	0.422340	0.119377	1.484867
H297	H	-0.057502	-0.360498	0.924432
H298	H	0.442498	0.139502	1.424432
N299	N	0.082347	-0.006096	0.554554
N300	N	0.582347	0.493904	1.054554
H301	H	0.116833	-0.006080	0.541825
H302	H	0.616833	0.493920	1.041825
H303	H	0.078463	-0.036305	0.584182
H304	H	0.578463	0.463695	1.084182
H305	H	-0.234840	-0.539009	0.307312
H306	H	0.265160	-0.039009	0.807312
N307	N	0.038347	-0.389382	0.734853
N308	N	0.538347	0.110618	1.234853
H309	H	0.003821	-0.384136	0.758907
H310	H	0.503821	0.115864	1.258907
H311	H	0.043586	-0.406020	0.713566
H312	H	0.543586	0.093980	1.213566
H313	H	0.168250	-0.504186	0.834549
H314	H	0.668250	-0.004186	1.334549
N315	N	0.552029	-0.605905	0.423901
N316	N	1.052029	-0.105905	0.923901
H317	H	0.582263	-0.635523	0.427748
H318	H	1.082263	-0.135523	0.927748
H319	H	0.551967	-0.593151	0.389424
H320	H	1.051967	-0.093151	0.889424
H321	H	0.551811	-0.415327	0.336274
H322	H	1.051811	0.084673	0.836274
H323	H	0.015959	-0.428182	0.532734
H324	H	0.515959	0.071818	1.032734
N325	N	0.212506	-0.476416	0.734706
N326	N	0.712506	0.023584	1.234706
H327	H	0.231056	-0.497690	0.758715
H328	H	0.731056	0.002310	1.258715
H329	H	0.221402	-0.445560	0.713423
H330	H	0.721402	0.054440	1.213423
H331	H	0.167905	-0.504126	0.456671
H332	H	0.667905	-0.004126	0.956671
H333	H	0.129813	-0.126117	0.418717
H334	H	0.629813	0.373883	0.918717
N335	N	0.212276	-0.476363	0.484368
N336	N	0.712276	0.023637	0.984368
H337	H	0.230786	-0.497630	0.463083
H338	H	0.730786	0.002370	0.963083
H339	H	0.221227	-0.494851	0.515200
H340	H	0.721227	0.005149	1.015200
H341	H	0.338981	-0.510371	0.554246
H342	H	0.838981	-0.010371	1.054246
N343	N	-0.078300	-0.476135	0.555017
N344	N	0.421700	0.023865	1.055017
H345	H	-0.073763	-0.480047	0.584622
H346	H	0.426237	0.019953	1.084622
H347	H	-0.093901	-0.500212	0.564486
H348	H	0.406099	-0.000212	1.064486
H349	H	0.432025	-0.541365	0.523165
H350	H	0.932025	-0.041365	1.023165
H351	H	0.338923	-0.359792	0.496821
H352	H	0.838923	0.140208	0.996821
N353	N	0.438747	-0.382079	0.459303
N354	N	0.938747	0.117921	0.959303
H355	H	0.429791	-0.357097	0.429004
H356	H	0.929791	0.142903	0.929004
H357	H	0.475124	-0.400532	0.449586
H358	H	0.975124	0.099468	0.949586
N359	N	0.168672	-0.225946	0.440884
N360	N	0.668672	0.274054	0.940884
H361	H	0.150161	-0.217022	0.419621
H362	H	0.650161	0.282978	0.919621
H363	H	0.177645	-0.262326	0.459388
H364	H	0.677645	0.237674	0.959388
N365	N	0.046172	-0.119389	0.579512
N366	N	0.546172	0.380611	1.079512
H367	H	0.040956	-0.143429	0.614048
H368	H	0.540956	0.356571	1.114048
H369	H	0.013483	-0.098114	0.574276
H370	H	0.513483	0.401886	1.074276
N371	N	0.182043	-0.536257	0.354577
N372	N	0.682043	-0.036257	0.854577
H373	H	0.182143	-0.506109	0.324298
H374	H	0.682143	-0.006109	0.824298
H375	H	0.188368	-0.564669	0.346456
H376	H	0.688368	-0.064669	0.846456
H377	H	-0.025639	-0.470264	0.074572
H378	H	0.474361	0.029736	0.574572
H379	H	0.050281	-0.622271	0.074658
H380	H	0.550281	-0.122271	0.574658
N381	N	-0.064586	-0.492415	0.174396
N382	N	0.435414	0.007585	0.674396
H383	H	-0.095398	-0.471105	0.165410
H384	H	0.404602	0.028895	0.665410
H385	H	-0.046055	-0.471189	0.165496
H386	H	0.453945	0.028811	0.665496
N387	N	0.022405	-0.666562	0.174498
N388	N	0.522405	-0.166562	0.674498
H389	H	0.043702	-0.685102	0.150483
H390	H	0.543702	-0.185102	0.650483
H391	H	-0.008460	-0.675443	0.195733
H392	H	0.491540	-0.175443	0.695733
N393	N	-0.064817	-0.492405	0.337886
N394	N	0.435183	0.007595	0.837886
H395	H	-0.070058	-0.457870	0.332636
H396	H	0.429942	0.042130	0.832636
H397	H	-0.097498	-0.497637	0.354490
H398	H	0.402502	0.002363	0.854490
H399	H	0.049734	-0.622248	0.452940
H400	H	0.549734	-0.122248	0.952940
N401	N	-0.029351	-0.456918	0.373557
N402	N	0.470649	0.043082	0.873557
H403	H	-0.050580	-0.438379	0.352229
H404	H	0.449420	0.061621	0.852229
H405	H	0.001508	-0.448033	0.355130
H406	H	0.501508	0.051967	0.855130
H407	H	0.018765	-0.653217	0.421828
H408	H	0.518765	-0.153217	0.921828
H409	H	0.087072	-0.886205	0.386121
H410	H	0.587072	-0.386205	0.886121
N411	N	0.064833	-0.786384	0.348636
N412	N	0.564833	-0.286384	0.848636
H413	H	0.089843	-0.795335	0.318345
H414	H	0.589843	-0.295335	0.818345
H415	H	0.082007	-0.795336	0.371144
H416	H	0.582007	-0.295336	0.871144
N417	N	-0.072211	-0.892825	0.449729
N418	N	0.427789	-0.392825	0.949729
H419	H	-0.097220	-0.883876	0.480022
H420	H	0.402780	-0.383876	0.980022
H421	H	-0.053776	-0.929209	0.459447
H422	H	0.446224	-0.429209	0.959447
N423	N	-0.107671	-0.786208	0.414154
N424	N	0.392329	-0.286208	0.914154
H425	H	-0.125964	-0.810214	0.432156
H426	H	0.374036	-0.310214	0.932156
H427	H	-0.112659	-0.764928	0.381356
H428	H	0.387341	-0.264928	0.881356
N429	N	-0.228312	-0.622762	0.468189
N430	N	0.271688	-0.122762	0.968189
H431	H	-0.252383	-0.627984	0.502708
H432	H	0.247617	-0.127984	1.002708
H433	H	-0.207028	-0.606132	0.462963
H434	H	0.292972	-0.106132	0.962963
H435	H	-0.328125	-0.583847	0.490235
H436	H	0.171875	-0.083847	0.990235
H437	H	-0.327887	-0.507903	0.338181
H438	H	0.172113	-0.007903	0.838181
H439	H	0.552170	-0.596617	0.572390
H440	H	1.052170	-0.096617	1.072390
