data_functionalizedCrystal
_audit_creation_method	'MofGen! by Chris Wilmer'
_symmetry_space_group_name_H-M	'P1'
_symmetry_Int_Tables_number	1
_symmetry_cell_setting	triclinic
loop_
_symmetry_equiv_pos_as_xyz
  x,y,z
_cell_length_a	10.489768
_cell_length_b	10.489716
_cell_length_c	10.268362
_cell_angle_alpha	89.998762
_cell_angle_beta	90.002258
_cell_angle_gamma	95.460188
loop_
_atom_site_label
_atom_site_type_symbol
_atom_site_fract_x
_atom_site_fract_y
_atom_site_fract_z
O1	O	-1.694017	0.180139	-0.108218
O2	O	-1.322825	0.196995	-0.108235
O3	O	-1.516884	0.002968	-0.108231
O4	O	-1.499958	0.374166	-0.108222
O5	O	-1.516867	0.002960	0.108370
O6	O	-1.322808	0.196987	0.108366
O7	O	-1.694000	0.180131	0.108382
Cu8	Cu	-1.508402	0.188558	0.128151
Cu9	Cu	-1.508423	0.188568	-0.128004
O10	O	-1.499941	0.374158	0.108378
C11	C	-1.515604	-0.044568	0.000065
C12	C	-1.511799	-0.186200	0.000053
C13	C	-1.275285	0.195710	0.000063
C14	C	-1.133658	0.191879	0.000056
C15	C	-0.980813	0.066142	0.000073
C16	C	-1.058192	0.129001	0.106866
C17	C	-1.058164	0.129039	-0.106685
C18	C	-0.958691	0.247976	0.106971
C19	C	-0.958658	0.247996	-0.106676
C20	C	-1.035988	0.310943	0.000142
C21	C	-1.630802	-0.283862	0.000071
C22	C	-1.567926	-0.361225	-0.106724
C23	C	-1.567882	-0.361197	0.106827
C24	C	-1.448973	-0.261697	-0.106830
C25	C	-1.448946	-0.261664	0.106818
C26	C	-1.385983	-0.338978	-0.000003
C27	C	-0.741542	0.181395	0.000084
C28	C	-0.883177	0.185166	0.000091
C29	C	-1.501222	0.421694	0.000079
C30	C	-1.505026	0.563326	0.000083
N31	N	-1.508398	0.188551	0.308317
N32	N	-1.508438	0.188565	-0.308170
C33	C	-1.508416	0.188565	0.573988
C34	C	-1.508402	0.188561	0.426150
H35	H	-0.956101	-0.037363	0.000179
H36	H	-1.101665	0.078753	0.197152
N37	N	-1.112702	0.065989	-0.219941
N38	N	-1.193923	-0.028501	-0.208079
H39	H	-1.232442	-0.073039	-0.288059
N40	N	-0.904372	0.310980	0.220349
N41	N	-0.786102	0.318183	0.238678
H42	H	-0.747734	0.362682	0.318747
H43	H	-1.734314	-0.259175	-0.000033
H44	H	-1.060455	0.414526	0.000203
N45	N	-0.904101	0.310972	-0.219951
N46	N	-0.936224	0.270359	-0.330763
H47	H	-0.897694	0.314827	-0.410775
N48	N	-1.630963	-0.415765	-0.219986
N49	N	-1.746685	-0.402645	-0.239015
H50	H	-1.791212	-0.441158	-0.319004
H51	H	-1.398772	-0.218395	-0.197216
N52	N	-1.385947	-0.207078	0.220069
N53	N	-1.270735	-0.221795	0.240154
H54	H	-1.226247	-0.183247	0.320147
N55	N	-1.256029	-0.369630	-0.000088
N56	N	-1.183177	-0.333243	-0.091871
H57	H	-1.091397	-0.354892	-0.091937
H58	H	-1.618136	-0.404668	0.197111
