data_functionalizedCrystal
_audit_creation_method	'MofGen! by Chris Wilmer'
_symmetry_space_group_name_H-M	'P1'
_symmetry_Int_Tables_number	1
_symmetry_cell_setting	triclinic
loop_
_symmetry_equiv_pos_as_xyz
  x,y,z
_cell_length_a	14.044220
_cell_length_b	13.101018
_cell_length_c	14.044220
_cell_angle_alpha	93.664400
_cell_angle_beta	86.811122
_cell_angle_gamma	93.664297
loop_
_atom_site_label
_atom_site_type_symbol
_atom_site_fract_x
_atom_site_fract_y
_atom_site_fract_z
O1	O	1.281975	0.085109	-0.225353
O2	O	1.531975	0.335109	0.024647
O3	O	1.781975	0.585109	0.274647
O4	O	2.031975	0.835109	0.524647
O5	O	1.005305	0.085135	-0.217046
O6	O	1.255305	0.335135	0.032954
O7	O	1.505305	0.585135	0.282954
O8	O	1.755305	0.835135	0.532954
O9	O	1.139486	0.085113	-0.082864
O10	O	1.389486	0.335113	0.167136
O11	O	1.639486	0.585113	0.417136
O12	O	1.889486	0.835113	0.667136
O13	O	1.147793	0.085132	-0.359534
O14	O	1.397793	0.335132	-0.109534
O15	O	1.647793	0.585132	0.140466
O16	O	1.897793	0.835132	0.390466
O17	O	1.129848	-0.085316	-0.092500
O18	O	1.379848	0.164684	0.157500
O19	O	1.629848	0.414684	0.407500
O20	O	1.879848	0.664684	0.657500
O21	O	0.995666	-0.085294	-0.226681
O22	O	1.245666	0.164706	0.023319
O23	O	1.495666	0.414706	0.273319
O24	O	1.745666	0.664706	0.523319
O25	O	1.272336	-0.085319	-0.234988
O26	O	1.522336	0.164681	0.015012
O27	O	1.772336	0.414681	0.265012
O28	O	2.022336	0.664681	0.515012
Zn29	Zn	1.132471	-0.112366	-0.232365
Zn30	Zn	1.382471	0.137634	0.017635
Zn31	Zn	1.632471	0.387634	0.267635
Zn32	Zn	1.882471	0.637634	0.517635
Zn33	Zn	1.145170	0.112182	-0.219669
Zn34	Zn	1.395170	0.362182	0.030331
Zn35	Zn	1.645170	0.612182	0.280331
Zn36	Zn	1.895170	0.862182	0.530331
O37	O	1.138155	-0.085297	-0.369170
O38	O	1.388155	0.164703	-0.119170
O39	O	1.638155	0.414703	0.130830
O40	O	1.888155	0.664703	0.380830
C41	C	0.964864	-0.000076	-0.218228
C42	C	1.214864	0.249924	0.031772
C43	C	1.464864	0.499924	0.281772
C44	C	1.714864	0.749924	0.531772
C45	C	0.858722	-0.000066	-0.207383
C46	C	1.108722	0.249934	0.042617
C47	C	1.358722	0.499934	0.292617
C48	C	1.608722	0.749934	0.542617
N49	N	1.123811	-0.265613	-0.241029
N50	N	1.373811	-0.015613	0.008971
N51	N	1.623811	0.234387	0.258971
N52	N	1.873811	0.484387	0.508971
C53	C	0.664383	-0.000088	-0.187558
C54	C	0.914383	0.249912	0.062442
C55	C	1.164383	0.499912	0.312442
C56	C	1.414383	0.749912	0.562442
C57	C	0.613253	-0.000087	-0.264472
C58	C	0.863253	0.249913	-0.014472
C59	C	1.113253	0.499913	0.235528
C60	C	1.363253	0.749913	0.485528
C61	C	0.505116	-0.000099	-0.253441
C62	C	0.755116	0.249901	-0.003441
C63	C	1.005116	0.499901	0.246559
C64	C	1.255116	0.749901	0.496559
C65	C	0.772529	-0.000076	-0.198587
C66	C	1.022529	0.249924	0.051413
C67	C	1.272529	0.499924	0.301413
C68	C	1.522529	0.749924	0.551413
C69	C	1.165614	-0.525530	-0.199206
C70	C	1.415614	-0.275530	0.050794
C71	C	1.665614	-0.025530	0.300794
C72	C	1.915614	0.224470	0.550794
C73	C	1.112036	-0.474648	-0.252818
C74	C	1.362036	-0.224648	-0.002818
C75	C	1.612036	0.025352	0.247182
C76	C	1.862036	0.275352	0.497182
C77	C	1.118589	-0.358330	-0.246257
C78	C	1.368589	-0.108330	0.003743
C79	C	1.618589	0.141670	0.253743
C80	C	1.868589	0.391670	0.503743
C81	C	1.159063	-0.641858	-0.205766
C82	C	1.409063	-0.391858	0.044234
C83	C	1.659063	-0.141858	0.294234
C84	C	1.909063	0.108142	0.544234
C85	C	1.312777	-0.000106	-0.233806
C86	C	1.562777	0.249894	0.016194
C87	C	1.812777	0.499894	0.266194
C88	C	2.062777	0.749894	0.516194
C89	C	1.418920	-0.000109	-0.244651
C90	C	1.668920	0.249891	0.005349
C91	C	1.918920	0.499891	0.255349
C92	C	2.168920	0.749891	0.505349
C93	C	1.131031	-0.000102	-0.052060
C94	C	1.381031	0.249898	0.197940
C95	C	1.631031	0.499898	0.447940
C96	C	1.881031	0.749898	0.697940
C97	C	1.120187	-0.000102	0.054083
C98	C	1.370187	0.249898	0.304083
C99	C	1.620187	0.499898	0.554083
C100	C	1.870187	0.749898	0.804083
N101	N	1.153837	0.265429	-0.210998
N102	N	1.403837	0.515429	0.039002
N103	N	1.653837	0.765429	0.289002
N104	N	1.903837	1.015429	0.539002
C105	C	1.146610	-0.000080	-0.399974
C106	C	1.396610	0.249920	-0.149974
C107	C	1.646610	0.499920	0.100026
C108	C	1.896610	0.749920	0.350026
C109	C	1.157455	-0.000073	-0.506116
C110	C	1.407455	0.249927	-0.256116
C111	C	1.657455	0.499927	-0.006116
C112	C	1.907455	0.749927	0.243884
C113	C	1.100362	-0.000086	0.248421
C114	C	1.350362	0.249914	0.498421
C115	C	1.600362	0.499914	0.748421
C116	C	1.850362	0.749914	0.998421
C117	C	1.177276	-0.000090	0.299551
C118	C	1.427276	0.249910	0.549551
C119	C	1.677276	0.499910	0.799551
C120	C	1.927276	0.749910	1.049551
C121	C	1.166245	-0.000080	0.407688
C122	C	1.416245	0.249920	0.657688
C123	C	1.666245	0.499920	0.907688
C124	C	1.916245	0.749920	1.157688
C125	C	1.111391	-0.000095	0.140275
C126	C	1.361391	0.249905	0.390275
C127	C	1.611391	0.499905	0.640275
C128	C	1.861391	0.749905	0.890275
H129	H	0.650693	-0.000077	-0.338605
H130	H	0.900693	0.249923	-0.088605
H131	H	1.150693	0.499923	0.161395
H132	H	1.400693	0.749923	0.411395
H133	H	1.026235	-0.000076	0.285859
H134	H	1.276235	0.249924	0.535859
H135	H	1.526235	0.499924	0.785859
H136	H	1.776235	0.749924	1.035859
H137	H	1.061246	-0.518444	-0.303645
H138	H	1.311246	-0.268444	-0.053645
H139	H	1.561246	-0.018444	0.196355
H140	H	1.811246	0.231556	0.446355
F141	F	0.615449	-0.000098	-0.090666
F142	F	0.865449	0.249902	0.159334
F143	F	1.115449	0.499902	0.409334
F144	F	1.365449	0.749902	0.659334
H145	H	1.251413	-0.000028	0.262115
H146	H	1.501413	0.249972	0.512115
H147	H	1.751413	0.499972	0.762115
H148	H	2.001413	0.749972	1.012115
F149	F	1.232000	-0.468290	-0.132778
F150	F	1.482000	-0.218290	0.117222
F151	F	1.732000	0.031710	0.367222
F152	F	1.982000	0.281710	0.617222
