data_functionalizedCrystal
_audit_creation_method	'MofGen! by Chris Wilmer'
_symmetry_space_group_name_H-M	'P1'
_symmetry_Int_Tables_number	1
_symmetry_cell_setting	triclinic
loop_
_symmetry_equiv_pos_as_xyz
  x,y,z
_cell_length_a	18.215407
_cell_length_b	18.050582
_cell_length_c	18.215405
_cell_angle_alpha	90.025153
_cell_angle_beta	89.977671
_cell_angle_gamma	89.987409
loop_
_atom_site_label
_atom_site_type_symbol
_atom_site_fract_x
_atom_site_fract_y
_atom_site_fract_z
Zn1	Zn	1.125037	-0.419853	0.293081
Zn2	Zn	1.625037	0.080147	0.793081
Zn3	Zn	1.124956	-0.295657	0.416141
Zn4	Zn	1.624956	0.204343	0.916141
Zn5	Zn	1.001980	-0.295682	0.293087
Zn6	Zn	1.501980	0.204318	0.793087
Zn7	Zn	1.001936	-0.419811	0.416105
Zn8	Zn	1.501936	0.080189	0.916105
O9	O	1.063477	-0.357751	0.354604
O10	O	1.563477	0.142249	0.854604
O11	O	1.228011	-0.403385	0.309418
O12	O	1.728011	0.096615	0.809418
O13	O	1.108627	-0.191736	0.399835
O14	O	1.608627	0.308264	0.899835
O15	O	1.018356	-0.312182	0.190102
O16	O	1.518356	0.187818	0.690102
O17	O	1.227951	-0.312139	0.399829
O18	O	1.727951	0.187861	0.899829
O19	O	1.108766	-0.403409	0.190098
O20	O	1.608766	0.096591	0.690098
O21	O	1.018278	-0.191754	0.309428
O22	O	1.518278	0.308246	0.809428
O23	O	0.898990	-0.312141	0.309393
O24	O	1.398990	0.187859	0.809393
O25	O	1.018281	-0.523741	0.399768
O26	O	1.518281	-0.023741	0.899768
O27	O	0.898957	-0.403338	0.399774
O28	O	1.398957	0.096662	0.899774
O29	O	1.108723	-0.523772	0.309383
O30	O	1.608723	-0.023772	0.809383
O31	O	1.108584	-0.312099	0.519120
O32	O	1.608584	0.187901	1.019120
O33	O	1.018202	-0.403314	0.519094
O34	O	1.518202	0.096686	1.019094
C35	C	0.872271	-0.357738	0.354581
C36	C	1.372271	0.142262	0.854581
C37	C	0.790472	-0.357750	0.354589
C38	C	1.290472	0.142250	0.854589
C39	C	0.602308	-0.405337	0.307609
C40	C	1.102308	0.094663	0.807609
C41	C	0.525449	-0.405339	0.307615
C42	C	1.025449	0.094661	0.807615
C43	C	0.525398	-0.310178	0.401619
C44	C	1.025398	0.189822	0.901619
C45	C	0.602256	-0.310172	0.401609
C46	C	1.102256	0.189828	0.901609
C47	C	0.640709	-0.357756	0.354605
C48	C	1.140709	0.142244	0.854605
C49	C	0.486992	-0.357764	0.354621
C50	C	0.986992	0.142236	0.854621
C51	C	0.403659	-0.357766	0.354629
C52	C	0.903659	0.142234	0.854629
C53	C	0.724048	-0.357753	0.354596
C54	C	1.224048	0.142247	0.854596
C55	C	1.063506	-0.551457	0.354571
C56	C	1.563506	-0.051457	0.854571
C57	C	1.063518	-0.634002	0.354557
C58	C	1.563518	-0.134002	0.854557
C59	C	1.014373	-0.833436	0.403641
C60	C	1.514373	-0.333436	0.903641
C61	C	1.081517	-0.882824	0.421634
C62	C	1.581517	-0.382824	0.921634
C63	C	1.063555	-0.785133	0.354501
C64	C	1.563555	-0.285133	0.854501
C65	C	0.996448	-0.882827	0.336488
C66	C	1.496448	-0.382827	0.836488
C67	C	1.063584	-0.931118	0.354448
C68	C	1.563584	-0.431118	0.854448
C69	C	1.130733	-0.833433	0.372528
C70	C	1.630733	-0.333433	0.872528
C71	C	1.045619	-0.833432	0.287352
C72	C	1.545619	-0.333432	0.787352
C73	C	1.112809	-0.882797	0.305319
C74	C	1.612809	-0.382797	0.805319
C75	C	1.063537	-0.701035	0.354533
C76	C	1.563537	-0.201035	0.854533
C77	C	1.063609	-1.015215	0.354416
C78	C	1.563609	-0.515215	0.854416
C79	C	1.255430	-0.357764	0.354627
C80	C	1.755430	0.142236	0.854627
C81	C	1.337229	-0.357770	0.354637
C82	C	1.837229	0.142230	0.854637
C83	C	1.063399	-0.357715	0.545810
C84	C	1.563399	0.142285	1.045810
C85	C	1.063434	-0.357725	0.627609
C86	C	1.563434	0.142275	1.127609
C87	C	1.063491	-0.164799	0.354583
C88	C	1.563491	0.335201	0.854583
C89	C	1.063621	-0.082253	0.354390
C90	C	1.563621	0.417747	0.854390
C91	C	1.063575	-0.357803	0.162651
C92	C	1.563575	0.142197	0.662651
C93	C	1.063617	-0.357825	0.080852
C94	C	1.563617	0.142175	0.580852
C95	C	1.110606	-0.310316	0.815792
C96	C	1.610606	0.189684	1.315792
C97	C	1.110639	-0.310334	0.892651
C98	C	1.610639	0.189666	1.392651
C99	C	1.016442	-0.405239	0.892663
C100	C	1.516442	0.094761	1.392663
C101	C	1.016414	-0.405224	0.815806
C102	C	1.516414	0.094776	1.315806
C103	C	1.063495	-0.357759	0.777372
C104	C	1.563495	0.142241	1.277372
C105	C	1.063556	-0.357791	0.931088
C106	C	1.563556	0.142209	1.431088
C107	C	1.063591	-0.357811	1.014422
C108	C	1.563591	0.142189	1.514422
C109	C	1.063460	-0.357740	0.694033
C110	C	1.563460	0.142260	1.194033
H111	H	0.633614	-0.444080	0.269333
H112	H	1.133614	0.055920	0.769333
H113	H	0.633522	-0.271422	0.439879
H114	H	1.133522	0.228578	0.939879
H115	H	1.149003	-0.271703	0.923929
H116	H	1.649003	0.228297	1.423929
C117	C	0.483209	-0.457681	0.255921
C118	C	0.983209	0.042319	0.755921
C119	C	0.525509	-0.510018	0.204220
C120	C	1.025509	-0.010018	0.704220
C121	C	0.483269	-0.562361	0.152522
C122	C	0.983269	-0.062361	0.652522
C123	C	0.398729	-0.562368	0.152526
C124	C	0.898729	-0.062368	0.652526
C125	C	0.356424	-0.510030	0.204229
C126	C	0.856424	-0.010030	0.704229
C127	C	0.398664	-0.457686	0.255926
C128	C	0.898664	0.042314	0.755926
H129	H	0.588095	-0.510015	0.204216
H130	H	1.088095	-0.010015	0.704216
H131	H	0.514586	-0.601106	0.114249
H132	H	1.014586	-0.101106	0.614249
H133	H	0.367460	-0.601116	0.114256
H134	H	0.867460	-0.101116	0.614256
H135	H	0.293838	-0.510033	0.204233
H136	H	0.793838	-0.010033	0.704233
H137	H	0.367347	-0.418942	0.294200
H138	H	0.867347	0.081058	0.794200
C139	C	0.958241	-0.804148	0.459850
C140	C	1.458241	-0.304148	0.959850
C141	C	0.966527	-0.823657	0.541720
C142	C	1.466527	-0.323657	1.041720
C143	C	0.910399	-0.794367	0.597930
C144	C	1.410399	-0.294367	1.097930
C145	C	0.845984	-0.745569	0.572268
C146	C	1.345984	-0.245569	1.072268
C147	C	0.837696	-0.726058	0.490394
C148	C	1.337696	-0.226058	0.990394
C149	C	0.893824	-0.755348	0.434184
C150	C	1.393824	-0.255348	0.934184
H151	H	1.014212	-0.859782	0.560720
H152	H	1.514212	-0.359782	1.060720
H153	H	0.916535	-0.808811	0.658539
H154	H	1.416535	-0.308811	1.158539
H155	H	0.804435	-0.723888	0.613878
H156	H	1.304435	-0.223888	1.113878
H157	H	0.790010	-0.689933	0.471394
H158	H	1.290010	-0.189933	0.971394
H159	H	0.887688	-0.740904	0.373575
H160	H	1.387688	-0.240904	0.873575
H161	H	1.096704	-0.904520	0.478398
H162	H	1.596704	-0.404520	0.978398
H163	H	0.978110	-0.443882	0.923965
H164	H	1.478110	0.056118	1.423965
H165	H	0.494080	-0.271438	0.439889
H166	H	0.994080	0.228562	0.939889
H167	H	1.030412	-0.811720	0.230604
H168	H	1.530412	-0.311720	0.730604
H169	H	1.187513	-0.811828	0.387806
H170	H	1.687513	-0.311828	0.887806
H171	H	1.154460	-0.904334	0.263739
H172	H	1.654460	-0.404334	0.763739
H173	H	0.978050	-0.443861	0.784522
H174	H	1.478050	0.056139	1.284522
C175	C	0.919767	-0.912135	0.315928
C176	C	1.419767	-0.412135	0.815928
C177	C	0.852953	-0.892643	0.364030
C178	C	1.352953	-0.392643	0.864030
C179	C	0.776271	-0.921947	0.343476
C180	C	1.276271	-0.421947	0.843476
C181	C	0.766401	-0.970743	0.274820
C182	C	1.266401	-0.470743	0.774820
C183	C	0.833216	-0.990237	0.226713
C184	C	1.333216	-0.490237	0.726713
C185	C	0.909899	-0.960933	0.247267
C186	C	1.409899	-0.460933	0.747267
H187	H	0.860258	-0.856520	0.414858
H188	H	1.360258	-0.356520	0.914858
H189	H	0.726810	-0.907516	0.379088
H190	H	1.226810	-0.407516	0.879088
H191	H	0.709636	-0.992435	0.259605
H192	H	1.209636	-0.492435	0.759605
H193	H	0.825912	-1.026360	0.175886
H194	H	1.325912	-0.526360	0.675886
H195	H	0.959360	-0.975364	0.211655
H196	H	1.459360	-0.475364	0.711655
H197	H	1.148943	-0.271668	0.784501
H198	H	1.648943	0.228332	1.284501
