data_functionalizedCrystal
_audit_creation_method	'MofGen! by Chris Wilmer'
_symmetry_space_group_name_H-M	'P1'
_symmetry_Int_Tables_number	1
_symmetry_cell_setting	triclinic
loop_
_symmetry_equiv_pos_as_xyz
  x,y,z
_cell_length_a	21.295418
_cell_length_b	21.295417
_cell_length_c	17.077396
_cell_angle_alpha	89.966808
_cell_angle_beta	89.961209
_cell_angle_gamma	90.046319
loop_
_atom_site_label
_atom_site_type_symbol
_atom_site_fract_x
_atom_site_fract_y
_atom_site_fract_z
Zn1	Zn	0.962325	-0.250343	-0.444221
Zn2	Zn	0.962237	-0.355617	-0.312944
Zn3	Zn	0.857057	-0.250394	-0.312925
Zn4	Zn	0.857018	-0.355608	-0.444124
O5	O	0.909659	-0.302990	-0.378554
O6	O	1.050403	-0.264291	-0.426856
O7	O	0.948264	-0.341683	-0.203095
O8	O	0.871075	-0.162298	-0.330374
O9	O	1.050338	-0.341634	-0.330407
O10	O	0.948415	-0.162261	-0.426837
O11	O	0.870989	-0.264377	-0.203081
O12	O	0.768963	-0.264369	-0.330280
O13	O	0.871007	-0.341619	-0.553984
O14	O	0.768934	-0.341669	-0.426671
O15	O	0.948376	-0.264282	-0.554055
O16	O	0.948225	-0.443705	-0.330313
O17	O	0.870922	-0.443698	-0.426690
C18	C	0.746107	-0.303024	-0.378463
C19	C	0.676139	-0.303053	-0.378443
C20	C	0.643274	-0.343356	-0.428559
C21	C	0.577532	-0.343341	-0.428594
C22	C	0.544657	-0.303029	-0.378500
C23	C	0.577530	-0.262717	-0.328380
C24	C	0.643271	-0.262729	-0.328352
N25	N	0.441386	-0.298113	-0.309843
N26	N	0.378934	-0.298105	-0.309872
C27	C	0.346582	-0.302988	-0.378583
N28	N	0.379041	-0.307893	-0.447265
N29	N	0.441498	-0.307904	-0.447235
C30	C	0.473372	-0.303011	-0.378525
C31	C	0.242431	-0.343277	-0.428741
C32	C	0.176688	-0.343257	-0.428778
C33	C	0.176688	-0.262637	-0.328557
C34	C	0.242430	-0.262654	-0.328527
C35	C	0.275298	-0.302977	-0.378618
C36	C	0.909577	-0.466542	-0.378510
C37	C	0.909599	-0.536510	-0.378518
C38	C	0.949887	-0.569359	-0.328386
C39	C	0.949916	-0.635102	-0.328403
C40	C	0.909647	-0.667993	-0.378545
C41	C	0.869356	-0.635136	-0.428687
C42	C	0.869332	-0.569394	-0.428673
N43	N	0.854579	-0.771274	-0.384499
N44	N	0.854604	-0.833725	-0.384507
C45	C	0.909717	-0.866067	-0.378590
N46	N	0.964807	-0.833599	-0.372649
N47	N	0.964781	-0.771142	-0.372637
C48	C	0.909668	-0.739278	-0.378565
C49	C	0.950041	-0.970202	-0.328474
C50	C	0.950071	-1.035946	-0.328498
C51	C	0.869505	-1.035978	-0.428777
C52	C	0.869480	-0.970236	-0.428758
C53	C	0.909747	-0.937352	-0.378602
C54	C	1.073849	-0.302958	-0.378645
C55	C	1.143818	-0.302944	-0.378684
C56	C	0.909697	-0.302944	-0.583298
C57	C	0.909713	-0.302924	-0.670548
C58	C	0.909759	-0.138800	-0.378614
C59	C	0.909802	-0.068832	-0.378640
C60	C	0.950001	-0.262651	-0.711577
C61	C	0.950009	-0.262631	-0.793557
C62	C	0.909731	-0.302886	-0.834507
C63	C	0.869439	-0.343161	-0.793473
C64	C	0.869429	-0.343178	-0.711494
C65	C	0.869465	-0.343123	-0.964343
C66	C	0.869476	-0.343107	-1.046328
C67	C	0.950044	-0.262575	-1.046406
C68	C	0.950034	-0.262593	-0.964427
C69	C	0.909743	-0.302868	-0.923398
C70	C	0.909657	-0.302991	-0.174606
C71	C	0.909763	-0.302834	-0.087356
H72	H	0.269194	-0.376108	-0.469532
C73	C	0.476751	-0.379120	-0.473126
C74	C	0.541395	-0.387647	-0.483682
H75	H	0.454444	-0.406471	-0.507138
H76	H	0.465931	-0.388273	-0.420372
H77	H	0.466035	-0.336834	-0.484724
H78	H	0.552111	-0.429933	-0.472079
H79	H	0.552218	-0.378499	-0.536449
H80	H	0.982816	-0.229838	-0.826959
H81	H	0.550759	-0.229894	-0.287594
H82	H	0.836617	-0.375966	-0.678089
C83	C	0.958703	-0.709074	-0.222828
C84	C	0.994191	-0.671213	-0.273272
H85	H	0.986035	-0.731366	-0.188790
H86	H	0.931279	-0.683470	-0.192777
H87	H	0.934735	-0.738071	-0.252707
H88	H	1.018156	-0.642213	-0.243393
H89	H	1.021627	-0.696820	-0.303326
H90	H	0.149930	-0.376076	-0.469593
C91	C	0.833614	-0.735928	-0.473223
C92	C	0.825089	-0.671287	-0.483801
H93	H	0.806283	-0.758244	-0.507249
H94	H	0.875903	-0.746643	-0.484781
H95	H	0.824428	-0.746736	-0.420466
H96	H	0.834279	-0.660478	-0.536557
H97	H	0.782791	-0.660567	-0.472249
C98	C	0.860674	-0.427755	-1.138494
C99	C	0.825195	-0.387344	-1.091348
H100	H	0.833334	-0.455065	-1.166285
H101	H	0.884672	-0.403768	-1.174652
H102	H	0.888071	-0.451845	-1.106515
H103	H	0.797802	-0.363251	-1.123328
H104	H	0.801187	-0.411334	-1.055186
C105	C	0.980722	-0.156058	-0.686399
C106	C	0.994274	-0.218399	-0.666568
H107	H	1.008052	-0.128737	-0.658610
H108	H	0.986495	-0.150290	-0.741089
H109	H	0.938429	-0.146866	-0.672935
H110	H	1.036566	-0.227592	-0.680037
H111	H	0.988506	-0.224170	-0.611866
H112	H	0.269189	-0.229837	-0.287713
H113	H	0.982850	-0.229780	-1.079816
C114	C	0.860669	-0.427812	-0.872104
C115	C	0.825184	-0.387395	-0.919232
H116	H	0.833335	-0.455141	-0.844249
H117	H	0.888077	-0.451876	-0.904097
H118	H	0.884654	-0.403827	-0.835995
H119	H	0.801202	-0.411380	-0.955345
H120	H	0.797764	-0.363328	-0.887236
H121	H	0.982830	-0.943427	-0.287637
H122	H	0.982882	-1.062690	-0.287676
C123	C	0.156397	-0.231842	-0.195710
C124	C	0.140572	-0.218323	-0.273480
H125	H	0.134104	-0.204478	-0.161707
H126	H	0.145563	-0.274117	-0.184137
H127	H	0.200257	-0.226087	-0.188541
H128	H	0.096711	-0.224081	-0.280651
H129	H	0.151401	-0.176037	-0.285057
C130	C	1.029528	-0.575936	-0.229272
C131	C	0.994157	-0.533214	-0.273267
H132	H	1.056862	-0.553618	-0.195250
H133	H	1.002125	-0.601622	-0.199205
H134	H	1.053595	-0.601533	-0.263525
H135	H	0.970086	-0.507620	-0.239013
H136	H	1.021564	-0.507516	-0.303335
C137	C	0.717124	-0.253894	-0.222753
C138	C	0.679403	-0.218429	-0.273257
H139	H	0.739434	-0.226544	-0.188743
H140	H	0.691423	-0.281277	-0.192677
H141	H	0.746106	-0.277905	-0.252592
H142	H	0.650418	-0.194422	-0.243419
H143	H	0.705107	-0.191036	-0.303336
C144	C	0.789700	-0.576032	-0.527796
C145	C	0.825040	-0.533283	-0.483778
H146	H	0.762353	-0.553735	-0.561810
H147	H	0.817123	-0.601619	-0.557871
H148	H	0.765648	-0.601725	-0.493556
H149	H	0.849096	-0.507592	-0.518017
H150	H	0.797614	-0.507685	-0.453700
H151	H	0.670031	-0.376190	-0.469348
H152	H	0.836720	-1.062757	-0.469606
C153	C	0.784776	-0.896394	-0.439508
C154	C	0.825189	-0.934121	-0.483856
H155	H	0.757436	-0.874096	-0.473528
H156	H	0.760724	-0.922090	-0.405283
H157	H	0.808763	-0.867402	-0.409644
H158	H	0.801202	-0.963116	-0.513716
H159	H	0.849244	-0.908423	-0.518094
C160	C	1.029671	-0.182985	-0.972735
C161	C	0.994306	-0.218343	-0.919413
H162	H	1.056999	-0.155664	-0.944943
H163	H	1.053738	-0.210399	-1.004712
H164	H	1.002258	-0.158906	-1.004704
H165	H	1.021719	-0.242427	-0.887447
H166	H	0.970237	-0.190926	-0.887422
H167	H	0.836643	-0.375935	-0.826821
