data_functionalizedCrystal
_audit_creation_method	'MofGen! by Chris Wilmer'
_symmetry_space_group_name_H-M	'P1'
_symmetry_Int_Tables_number	1
_symmetry_cell_setting	triclinic
loop_
_symmetry_equiv_pos_as_xyz
  x,y,z
_cell_length_a	12.827893
_cell_length_b	12.759400
_cell_length_c	12.759393
_cell_angle_alpha	90.030742
_cell_angle_beta	90.019379
_cell_angle_gamma	90.014655
loop_
_atom_site_label
_atom_site_type_symbol
_atom_site_fract_x
_atom_site_fract_y
_atom_site_fract_z
Zn1	Zn	1.597676	-0.418214	0.594015
Zn2	Zn	1.597572	-0.593930	0.418335
Zn3	Zn	1.422917	-0.418266	0.418351
Zn4	Zn	1.422905	-0.593851	0.593973
O5	O	1.510267	-0.506065	0.506169
O6	O	1.743898	-0.441534	0.570722
O7	O	1.574365	-0.570683	0.271316
O8	O	1.446148	-0.271238	0.441677
O9	O	1.743822	-0.570632	0.441651
O10	O	1.574542	-0.271200	0.570737
O11	O	1.446047	-0.441623	0.271328
O12	O	1.276679	-0.441546	0.441636
O13	O	1.446127	-0.570498	0.741000
O14	O	1.276670	-0.570548	0.570665
O15	O	1.574531	-0.441458	0.741031
O16	O	1.574353	-0.740941	0.441610
O17	O	1.446026	-0.740883	0.570650
C18	C	1.238757	-0.506045	0.506149
C19	C	1.122604	-0.506061	0.506165
C20	C	1.070843	-0.569995	0.569914
C21	C	0.950792	-0.570014	0.569932
C22	C	1.510205	-0.779032	0.506147
C23	C	1.510274	-0.895809	0.506172
C24	C	1.577168	-0.950666	0.439055
C25	C	1.577233	-1.060390	0.439088
C26	C	1.443500	-1.060390	0.573357
C27	C	1.443442	-0.950668	0.573329
C28	C	1.644001	-0.895807	0.371899
C29	C	1.710900	-0.950665	0.304775
C30	C	1.710964	-1.060389	0.304808
C31	C	1.644130	-1.115255	0.371963
C32	C	1.782837	-0.506086	0.506189
C33	C	1.898991	-0.506095	0.506198
C34	C	1.510339	-0.505963	0.780202
C35	C	1.510369	-0.505920	0.896979
C36	C	1.510358	-0.232032	0.506214
C37	C	1.510397	-0.115255	0.506233
C38	C	1.510256	-0.506091	0.233201
C39	C	1.510428	-0.505838	0.116425
C40	C	1.443563	-0.573044	1.061551
C41	C	1.443531	-0.573083	0.951827
C42	C	1.577237	-0.438706	0.951860
C43	C	1.577263	-0.438663	1.061582
C44	C	1.376728	-0.640220	1.116394
C45	C	1.309859	-0.707432	1.061520
C46	C	1.309827	-0.707470	0.951796
C47	C	1.376664	-0.640296	0.896946
H48	H	1.078043	-0.451335	0.451605
O49	O	1.775769	-0.897487	0.239399
C50	C	1.752981	-0.924386	0.134675
H51	H	1.712858	-1.004088	0.132488
H52	H	1.828426	-0.928115	0.087630
H53	H	1.699235	-0.862709	0.099225
O54	O	1.644386	-1.221842	0.372006
C55	C	1.744540	-1.258392	0.399114
H56	H	1.804706	-1.195127	0.381197
H57	H	1.763183	-1.331823	0.351766
H58	H	1.746718	-1.277783	0.486296
H59	H	1.376749	-0.640198	1.205737
O60	O	1.644106	-0.789223	0.371768
C61	C	1.717416	-0.752563	0.298084
H62	H	1.778516	-0.815753	0.283437
H63	H	1.757012	-0.679097	0.329796
H64	H	1.676002	-0.733194	0.221437
O65	O	1.775835	-1.113826	0.239618
C66	C	1.716460	-1.177425	0.171709
H67	H	1.637226	-1.193869	0.208649
H68	H	1.759084	-1.254569	0.157775
H69	H	1.705056	-1.135267	0.093790
H70	H	1.115404	-0.624714	0.624482
O71	O	1.378609	-1.113847	0.638483
C72	C	1.393023	-1.222454	0.624132
H73	H	1.427300	-1.237473	0.543086
H74	H	1.314765	-1.264211	0.631197
H75	H	1.448655	-1.253499	0.686507
H76	H	1.255370	-0.762189	0.907121
H77	H	0.906279	-0.624753	0.624507
H78	H	1.388971	-0.906003	0.627983
O79	O	1.245035	-0.772646	1.114959
C80	C	1.259382	-0.758186	1.223570
H81	H	1.340043	-0.723776	1.238567
H82	H	1.252283	-0.836869	1.265254
H83	H	1.197422	-0.702225	1.254716
O84	O	1.642017	-0.373410	0.898468
C85	C	1.582527	-0.305557	0.835023
H86	H	1.503317	-0.342612	0.818573
H87	H	1.625079	-0.291510	0.757873
H88	H	1.571081	-0.227681	0.877319
H89	H	1.376629	-0.640330	0.807601
H90	H	1.631705	-0.383933	1.106262
O91	O	0.952195	-0.440936	0.441028
C92	C	1.015270	-0.500722	0.373098
H93	H	1.031522	-0.580398	0.410028
H94	H	1.092065	-0.457972	0.359149
H95	H	0.973229	-0.512141	0.295189
