data_functionalizedCrystal
_audit_creation_method	'MofGen! by Chris Wilmer'
_symmetry_space_group_name_H-M	'P1'
_symmetry_Int_Tables_number	1
_symmetry_cell_setting	triclinic
loop_
_symmetry_equiv_pos_as_xyz
  x,y,z
_cell_length_a	23.096457
_cell_length_b	23.096457
_cell_length_c	20.875641
_cell_angle_alpha	62.440727
_cell_angle_beta	89.999757
_cell_angle_gamma	60.004020
loop_
_atom_site_label
_atom_site_type_symbol
_atom_site_fract_x
_atom_site_fract_y
_atom_site_fract_z
Zr1	Zr	0.560515	0.628339	-0.081196
O2	O	0.471348	0.742575	-0.179985
O3	O	0.587841	0.509563	-0.050915
O4	O	0.592125	0.621795	-0.179994
O5	O	0.463695	0.637088	0.050917
O6	O	0.687406	0.621796	-0.179998
O7	O	0.467064	0.630343	-0.050906
O8	O	0.679743	0.421034	0.050901
O9	O	0.471358	0.837850	-0.179981
O10	O	0.670613	0.560099	-0.038000
O11	O	0.596991	0.565132	0.037993
O12	O	0.602035	0.697270	-0.113981
O13	O	0.528413	0.702303	-0.037989
Zr14	Zr	0.707102	0.639098	0.081194
Zr15	Zr	0.712477	0.628341	-0.081202
Zr16	Zr	0.555141	0.639096	0.081200
Zr17	Zr	0.560530	0.780291	-0.081190
Zr18	Zr	0.707087	0.487145	0.081189
O19	O	0.679776	0.757873	0.050913
O20	O	0.687418	0.742578	-0.179993
O21	O	0.463707	0.757870	0.050922
O22	O	0.796270	0.524861	0.179983
O23	O	0.803911	0.509566	-0.050924
O24	O	0.580200	0.524858	0.179992
O25	O	0.803923	0.630348	-0.050919
O26	O	0.675493	0.645642	0.179992
O27	O	0.580212	0.645640	0.179996
O28	O	0.800553	0.637093	0.050904
O29	O	0.592147	0.837852	-0.179986
O30	O	0.675471	0.429585	0.179984
O31	O	0.796260	0.429586	0.179980
O32	O	0.800532	0.421036	0.050896
O33	O	0.467086	0.846400	-0.050898
O34	O	0.587875	0.846402	-0.050902
O35	O	0.665583	0.570166	0.113979
O36	O	0.739205	0.565134	0.037987
O37	O	0.670627	0.702305	-0.037994
O38	O	0.597005	0.707337	0.037998
C39	C	0.633790	0.443649	-0.000008
C40	C	0.633784	0.379141	-0.000010
C41	C	0.684419	0.300072	0.056078
C42	C	0.684424	0.239450	0.056085
C43	C	0.633799	0.257903	-0.000008
C44	C	0.583154	0.336986	-0.056101
C45	C	0.583147	0.397605	-0.056102
N46	N	0.620121	0.197386	-0.066527
N47	N	0.620133	0.139797	-0.066523
C48	C	0.633817	0.075264	-0.000007
N49	N	0.647503	0.070486	0.066510
N50	N	0.647495	0.128079	0.066505
C51	C	0.633801	0.192177	-0.000013
C52	C	0.684460	-0.069541	0.056094
C53	C	0.684460	-0.130161	0.056102
C54	C	0.583194	-0.032624	-0.056091
C55	C	0.583191	0.027994	-0.056092
C56	C	0.633828	0.009530	-0.000000
C57	C	0.443728	0.633715	0.000007
C58	C	0.379217	0.633715	0.000009
C59	C	0.384708	0.562115	0.039663
C60	C	0.324093	0.562114	0.039667
C61	C	0.257986	0.633716	0.000001
C62	C	0.252497	0.705326	-0.039655
C63	C	0.313113	0.705325	-0.039651
N64	N	0.137333	0.684693	-0.064556
N65	N	0.079753	0.684689	-0.064558
C66	C	0.075354	0.633722	-0.000013
N67	N	0.130716	0.582748	0.064535
N68	N	0.188302	0.582750	0.064536
C69	C	0.192255	0.633725	-0.000008
C70	C	0.015122	0.562116	0.039649
C71	C	-0.045497	0.562119	0.039654
C72	C	-0.117091	0.705332	-0.039675
C73	C	-0.056473	0.705328	-0.039673
C74	C	0.009631	0.633718	-0.000013
C75	C	0.823889	0.633721	-0.000008
C76	C	0.888401	0.633722	-0.000011
C77	C	0.640531	0.620263	-0.203134
C78	C	0.642813	0.615696	-0.272076
C79	C	0.633828	0.823788	0.000006
C80	C	0.633834	0.888296	0.000009
C81	C	0.608089	0.685151	-0.344126
C82	C	0.610242	0.680855	-0.408901
C83	C	0.647115	0.607104	-0.401625
C84	C	0.681843	0.537645	-0.329567
C85	C	0.679694	0.541941	-0.264793
C86	C	0.657384	0.586577	-0.591094
C87	C	0.659529	0.582286	-0.655876
C88	C	0.587929	0.725497	-0.735206
C89	C	0.585779	0.729787	-0.670428
C90	C	0.620511	0.660327	-0.598376
N91	N	0.649314	0.602712	-0.467834
N92	N	0.618315	0.664720	-0.532167
C93	C	0.627087	0.647174	0.203132
C94	C	0.624805	0.651740	0.272074
C95	C	0.823871	0.443651	-0.000015
C96	C	0.888376	0.379144	-0.000020
C97	C	0.627068	0.457104	0.203125
C98	C	0.624780	0.397163	0.272064
C99	C	0.817148	0.457107	0.203118
C100	C	0.879372	0.397167	0.272054
C101	C	0.450469	0.810330	-0.203119
C102	C	0.388246	0.870270	-0.272056
C103	C	0.443747	0.823785	0.000014
C104	C	0.379242	0.888292	0.000019
C105	C	0.640550	0.810332	-0.203127
C106	C	0.642838	0.870273	-0.272066
C107	C	0.882864	0.346223	-0.039694
C108	C	0.943468	0.285619	-0.039714
C109	C	1.009583	0.257934	-0.000055
C110	C	1.015094	0.290862	0.039619
C111	C	0.954490	0.351468	0.039634
C112	C	0.659509	0.371642	0.344110
C113	C	0.657357	0.315330	0.408892
C114	C	0.620478	0.284535	0.401626
C115	C	0.585744	0.310061	0.329573
C116	C	0.587893	0.366377	0.264793
C117	C	0.947029	0.366391	0.264760
C118	C	1.005501	0.310079	0.329527
C119	C	0.996314	0.284539	0.401588
C120	C	0.928650	0.315320	0.408880
C121	C	0.870180	0.371636	0.344114
C122	C	0.320589	0.901053	-0.264762
C123	C	0.262117	0.957384	-0.329529
C124	C	0.271304	0.982927	-0.401589
C125	C	0.338968	0.952141	-0.408882
C126	C	0.397438	0.895816	-0.344115
C127	C	0.384754	0.921219	0.039685
C128	C	0.324150	0.981839	0.039687
C129	C	0.258035	1.009525	0.000027
C130	C	0.252525	0.976595	-0.039645
C131	C	0.313128	0.915981	-0.039651
C132	C	0.679723	0.901051	-0.264776
C133	C	0.681886	0.957364	-0.329546
C134	C	0.647160	0.982903	-0.401604
C135	C	0.610274	0.952120	-0.408892
C136	C	0.608115	0.895804	-0.344124
H137	H	0.725657	0.175060	0.101761
C138	C	1.076241	0.191262	-0.000070
H139	H	1.063482	0.175618	-0.029373
H140	H	1.104373	0.209712	-0.021307
H141	H	1.101982	0.147312	0.050467
H142	H	0.815092	0.396686	0.350063
C143	C	0.918550	0.287224	0.488146
H144	H	0.869882	0.313619	0.483223
H145	H	0.939765	0.231782	0.515059
H146	H	0.939765	0.298949	0.515057
H147	H	0.438529	0.503804	0.071953
H148	H	1.043930	0.238683	0.454318
C149	C	-0.039454	0.483355	0.083275
H150	H	0.008597	0.440709	0.106888
H151	H	-0.062798	0.482748	0.120813
H152	H	-0.060425	0.478008	0.049027
C153	C	0.722453	0.991225	-0.321515
H154	H	0.742812	0.967957	-0.269322
H155	H	0.758367	0.979725	-0.345125
H156	H	0.691197	1.046887	-0.345133
C157	C	1.079922	0.276221	0.321492
H158	H	1.077014	0.299490	0.269299
H159	H	1.104337	0.287723	0.345100
H160	H	1.104324	0.220559	0.345111
C161	C	0.179798	1.007048	-0.083263
H162	H	0.185187	0.978763	-0.106895
H163	H	0.153482	0.999383	-0.049016
H164	H	0.155859	1.061789	-0.120798
H165	H	0.438582	0.898682	0.071987
C166	C	0.179784	0.784086	-0.083288
H167	H	0.144470	0.773832	-0.077618
H168	H	0.173817	0.815885	-0.063698
H169	H	0.176203	0.811127	-0.135475
C170	C	0.618121	0.222587	0.472886
H171	H	0.591180	0.207901	0.458246
H172	H	0.664438	0.177244	0.502186
H173	H	0.597277	0.244407	0.502186
H174	H	0.559653	0.782047	-0.793876
C175	C	0.330128	0.483351	0.083284
H176	H	0.378178	0.440703	0.106901
H177	H	0.306779	0.482747	0.120819
H178	H	0.309158	0.478006	0.049033
H179	H	0.541910	0.461990	-0.101776
C180	C	0.810146	0.376669	-0.083326
H181	H	0.815553	0.348382	-0.106961
H182	H	0.783818	0.369002	-0.049093
H183	H	0.786208	0.431410	-0.120860
C184	C	0.307072	0.784088	-0.083279
H185	H	0.259021	0.826733	-0.106906
H186	H	0.328043	0.789442	-0.049043
H187	H	0.330418	0.784684	-0.120819
C188	C	0.310473	0.872966	-0.185503
H189	H	0.354982	0.835006	-0.147967
H190	H	0.285109	0.916855	-0.179818
H191	H	0.285093	0.849699	-0.179822
H192	H	0.328651	1.008641	0.071996
C193	C	0.187696	0.991230	-0.321494
H194	H	0.190604	0.967937	-0.269301
H195	H	0.163289	1.046888	-0.345098
H196	H	0.163286	0.979730	-0.345116
C197	C	0.191378	1.076198	0.000042
H198	H	0.204136	1.091834	0.029354
H199	H	0.165630	1.120146	-0.050489
H200	H	0.163251	1.057737	0.021288
H201	H	0.541935	0.352006	-0.101772
H202	H	0.068947	0.503808	0.071959
H203	H	-0.170915	0.763632	-0.071972
C204	C	0.695573	0.287255	0.488140
H205	H	0.717853	0.313653	0.483183
H206	H	0.662653	0.298976	0.515067
H207	H	0.729804	0.231811	0.515056
H208	H	0.555718	0.284980	0.323668
H209	H	0.308630	0.889173	-0.071950
H210	H	0.708001	0.880266	-0.206108
H211	H	1.068933	0.268312	0.071908
H212	H	0.555756	0.789842	-0.676361
H213	H	0.707970	0.485384	-0.206126
H214	H	0.223687	1.028791	-0.454320
C215	C	0.649534	1.044857	-0.472843
H216	H	0.676470	1.059531	-0.458174
H217	H	0.670374	1.023059	-0.502155
H218	H	0.603216	1.090214	-0.502141
H219	H	0.582001	0.972923	-0.467571
C220	C	0.567530	0.861964	-0.352152
H221	H	0.547154	0.885251	-0.404345
H222	H	0.598767	0.806305	-0.328539
H223	H	0.531616	0.873478	-0.328538
H224	H	0.725651	0.285031	0.101753
H225	H	0.725693	-0.194546	0.101780
C226	C	0.740149	-0.089845	0.117799
H227	H	0.770300	-0.145621	0.151213
H228	H	0.766840	-0.069905	0.094758
H229	H	0.717659	-0.066545	0.145506
H230	H	0.346439	0.972946	-0.467561
C231	C	0.527505	-0.012320	-0.117789
H232	H	0.534762	-0.059746	-0.109758
H233	H	0.482116	0.019330	-0.115459
H234	H	0.531287	0.015974	-0.166218
H235	H	-0.060948	0.763633	-0.071969
H236	H	0.541962	0.092378	-0.101769
C237	C	0.937398	0.249401	-0.083349
H238	H	0.982957	0.209346	-0.077690
H239	H	0.911564	0.227052	-0.063752
H240	H	0.913935	0.289465	-0.135533
C241	C	0.567528	0.766275	-0.352133
H242	H	0.571215	0.758889	-0.303238
H243	H	0.586752	0.794993	-0.379047
H244	H	0.519587	0.794989	-0.379047
C245	C	0.572042	0.757255	-0.488154
H246	H	0.549767	0.801793	-0.483211
H247	H	0.604970	0.758562	-0.515074
H248	H	0.537809	0.758551	-0.515069
H249	H	0.559614	0.387148	0.206132
C250	C	0.700073	0.501157	-0.647868
H251	H	0.720449	0.460404	-0.595680
H252	H	0.668803	0.496521	-0.671488
H253	H	0.735984	0.496493	-0.671490
H254	H	0.958988	0.378266	0.071946
C255	C	0.695534	0.510177	-0.511846
H256	H	0.688968	0.523293	-0.474308
H257	H	0.676980	0.480092	-0.506205
H258	H	0.744185	0.480015	-0.506126
C259	C	0.722401	0.456520	-0.321561
H260	H	0.718702	0.463908	-0.370457
H261	H	0.770339	0.427802	-0.294648
H262	H	0.703170	0.427806	-0.294647
C263	C	0.700074	0.405512	0.352113
H264	H	0.696390	0.442704	0.303218
H265	H	0.680852	0.430943	0.379026
H266	H	0.748015	0.363779	0.379028
H267	H	0.452526	0.870752	-0.350063
C268	C	0.957144	0.394480	0.185501
H269	H	0.912636	0.432424	0.147966
H270	H	0.982517	0.417753	0.179820
H271	H	0.982517	0.350587	0.179817
