data_functionalizedCrystal
_audit_creation_method	'MofGen! by Chris Wilmer'
_symmetry_space_group_name_H-M	'P1'
_symmetry_Int_Tables_number	1
_symmetry_cell_setting	triclinic
loop_
_symmetry_equiv_pos_as_xyz
  x,y,z
_cell_length_a	18.215407
_cell_length_b	12.827892
_cell_length_c	18.215399
_cell_angle_alpha	89.973753
_cell_angle_beta	89.985640
_cell_angle_gamma	90.012835
loop_
_atom_site_label
_atom_site_type_symbol
_atom_site_fract_x
_atom_site_fract_y
_atom_site_fract_z
Zn1	Zn	1.125099	-0.416090	-0.416088
Zn2	Zn	1.625099	0.083910	0.083912
Zn3	Zn	1.125034	-0.590857	-0.293031
Zn4	Zn	1.625034	-0.090857	0.206969
Zn5	Zn	1.002038	-0.416123	-0.293041
Zn6	Zn	1.502038	0.083877	0.206959
Zn7	Zn	1.002017	-0.590782	-0.416061
Zn8	Zn	1.502017	-0.090782	0.083939
O9	O	1.063547	-0.503463	-0.354555
O10	O	1.563547	-0.003463	0.145445
O11	O	1.228074	-0.439291	-0.399772
O12	O	1.728074	0.060709	0.100228
O13	O	1.108700	-0.567723	-0.190048
O14	O	1.608700	-0.067723	0.309952
O15	O	1.018398	-0.269882	-0.309379
O16	O	1.518398	0.230118	0.190621
O17	O	1.228027	-0.567691	-0.309362
O18	O	1.728027	-0.067691	0.190638
O19	O	1.108810	-0.269858	-0.399782
O20	O	1.608810	0.230142	0.100218
O21	O	1.018335	-0.439346	-0.190056
O22	O	1.518335	0.060654	0.309944
O23	O	0.899051	-0.439274	-0.309353
O24	O	1.399051	0.060726	0.190647
O25	O	1.018363	-0.567564	-0.519049
O26	O	1.518363	-0.067564	-0.019049
O27	O	0.899036	-0.567595	-0.399735
O28	O	1.399036	-0.067595	0.100265
O29	O	1.108790	-0.439219	-0.519069
O30	O	1.608790	0.060781	-0.019069
O31	O	1.108680	-0.737083	-0.309336
O32	O	1.608680	-0.237083	0.190664
O33	O	1.018300	-0.737028	-0.399725
O34	O	1.518300	-0.237028	0.100275
C35	C	0.872341	-0.503431	-0.354543
C36	C	1.372341	-0.003431	0.145457
C37	C	0.790542	-0.503442	-0.354555
C38	C	1.290542	-0.003442	0.145445
C39	C	0.602372	-0.436722	-0.401705
C40	C	1.102372	0.063278	0.098295
C41	C	0.525513	-0.436731	-0.401708
C42	C	1.025513	0.063269	0.098292
C43	C	0.525474	-0.570233	-0.307419
C44	C	1.025474	-0.070233	0.192581
C45	C	0.602332	-0.570218	-0.307413
C46	C	1.102332	-0.070218	0.192587
C47	C	0.640778	-0.503464	-0.354560
C48	C	1.140778	-0.003464	0.145440
C49	C	0.487062	-0.503488	-0.354569
C50	C	0.987062	-0.003488	0.145431
C51	C	0.403729	-0.503498	-0.354571
C52	C	0.903729	-0.003498	0.145429
C53	C	0.724117	-0.503452	-0.354557
C54	C	1.224117	-0.003452	0.145443
C55	C	1.063501	-0.774973	-0.354542
C56	C	1.563501	-0.274973	0.145458
C57	C	1.063549	-0.891126	-0.354562
C58	C	1.563549	-0.391126	0.145438
C59	C	1.108324	-0.942903	-0.309883
C60	C	1.608324	-0.442903	0.190117
C61	C	1.108375	-1.062954	-0.309902
C62	C	1.608375	-0.562954	0.190098
C63	C	1.255500	-0.503496	-0.354569
C64	C	1.755500	-0.003496	0.145431
C65	C	1.337299	-0.503510	-0.354575
C66	C	1.837299	-0.003510	0.145425
C67	C	1.063582	-0.503379	-0.546508
C68	C	1.563582	-0.003379	-0.046508
C69	C	1.063596	-0.503344	-0.628307
C70	C	1.563596	-0.003344	-0.128307
C71	C	1.063613	-0.230893	-0.354585
C72	C	1.563613	0.269107	0.145415
C73	C	1.063641	-0.114740	-0.354597
C74	C	1.563641	0.385260	0.145403
C75	C	1.016583	-0.436453	-0.816506
C76	C	1.516583	0.063547	-0.316506
C77	C	1.016596	-0.436432	-0.893365
C78	C	1.516596	0.063568	-0.393365
C79	C	1.110698	-0.570110	-0.893347
C80	C	1.610698	-0.070110	-0.393347
C81	C	1.110681	-0.570136	-0.816489
C82	C	1.610681	-0.070136	-0.316489
C83	C	1.063625	-0.503301	-0.778071
C84	C	1.563625	-0.003301	-0.278071
C85	C	1.063654	-0.503255	-0.931787
C86	C	1.563654	-0.003255	-0.431787
C87	C	1.063669	-0.503232	-1.015121
C88	C	1.563669	-0.003232	-0.515121
C89	C	1.063609	-0.503325	-0.694732
C90	C	1.563609	-0.003325	-0.194732
C91	C	1.063555	-0.503471	-0.163349
C92	C	1.563555	-0.003471	0.336651
C93	C	1.063682	-0.503212	-0.081551
C94	C	1.563682	-0.003212	0.418449
H95	H	0.633603	-0.624569	-0.269018
H96	H	1.133603	-0.124569	0.230982
C97	C	1.159269	-0.883457	-0.258768
C98	C	1.659269	-0.383457	0.241232
C99	C	1.117560	-0.820908	-0.211582
C100	C	1.617560	-0.320908	0.288418
C101	C	1.164465	-0.766144	-0.164476
C102	C	1.664465	-0.266144	0.335524
H103	H	1.191286	-0.840729	-0.286883
H104	H	1.691286	-0.340729	0.213117
H105	H	1.187355	-0.931474	-0.230695
H106	H	1.687355	-0.431474	0.269305
H107	H	1.089487	-0.772897	-0.239651
H108	H	1.589487	-0.272897	0.260349
H109	H	1.085545	-0.863611	-0.183450
H110	H	1.585545	-0.363611	0.316550
H111	H	1.192551	-0.814161	-0.136403
H112	H	1.692551	-0.314161	0.363597
H113	H	1.196480	-0.723422	-0.192597
H114	H	1.696480	-0.223422	0.307403
H115	H	1.136173	-0.723706	-0.132450
H116	H	1.636173	-0.223706	0.367550
H117	H	0.633673	-0.382363	-0.440093
H118	H	1.133673	0.117637	0.059907
C119	C	0.483770	-0.642587	-0.256116
C120	C	0.983770	-0.142587	0.243884
C121	C	0.502427	-0.619690	-0.183325
C122	C	1.002427	-0.119690	0.316675
C123	C	0.464018	-0.686316	-0.136046
C124	C	0.964018	-0.186316	0.363954
H125	H	0.496336	-0.712853	-0.266707
H126	H	0.996336	-0.212853	0.233293
H127	H	0.432488	-0.633034	-0.262822
H128	H	0.932488	-0.133034	0.237178
H129	H	0.553697	-0.629252	-0.176622
H130	H	1.053697	-0.129252	0.323378
H131	H	0.489859	-0.549437	-0.172711
H132	H	0.989859	-0.049437	0.327289
H133	H	0.412737	-0.676763	-0.142752
H134	H	0.912737	-0.176763	0.357248
H135	H	0.476588	-0.756578	-0.146644
H136	H	0.976588	-0.256578	0.353356
H137	H	0.476666	-0.670783	-0.086652
H138	H	0.976666	-0.170783	0.413348
H139	H	1.146707	-1.107481	-0.271650
H140	H	1.646707	-0.607481	0.228350
H141	H	1.149010	-0.624523	-0.924636
H142	H	1.649010	-0.124523	-0.424636
H143	H	0.978267	-0.382032	-0.785228
H144	H	1.478267	0.117968	-0.285228
C145	C	1.012453	-0.950326	-0.405667
C146	C	1.512453	-0.450326	0.094333
C147	C	0.971147	-0.879293	-0.446895
C148	C	1.471147	-0.379293	0.053105
C149	C	0.924076	-0.933787	-0.493990
C150	C	1.424076	-0.433787	0.006010
H151	H	0.980386	-0.992976	-0.377550
H152	H	1.480386	-0.492976	0.122450
H153	H	1.040614	-0.992817	-0.437777
H154	H	1.540614	-0.492817	0.062223
H155	H	0.942988	-0.836820	-0.414789
H156	H	1.442988	-0.336820	0.085211
H157	H	1.003195	-0.836641	-0.475028
H158	H	1.503195	-0.336641	0.024972
H159	H	0.952237	-0.976278	-0.526100
H160	H	1.452237	-0.476278	-0.026100
H161	H	0.892014	-0.976434	-0.465866
H162	H	1.392014	-0.476434	0.034134
H163	H	0.896049	-0.885599	-0.521973
H164	H	1.396049	-0.385599	-0.021973
C165	C	0.483947	-0.364230	-0.452977
C166	C	0.983947	0.135770	0.047023
C167	C	0.534070	-0.305789	-0.494275
C168	C	1.034070	0.194211	0.005725
C169	C	0.495807	-0.238997	-0.541520
C170	C	0.995807	0.261003	-0.041520
H171	H	0.453957	-0.318559	-0.424964
H172	H	0.953957	0.181441	0.075036
H173	H	0.453987	-0.404243	-0.485036
H174	H	0.953987	0.095757	0.014964
H175	H	0.564017	-0.265778	-0.462220
H176	H	1.064017	0.234222	0.037780
H177	H	0.564061	-0.351432	-0.522303
H178	H	1.064061	0.148568	-0.022303
H179	H	0.465848	-0.279010	-0.573579
H180	H	0.965848	0.220990	-0.073579
H181	H	0.465819	-0.193333	-0.513502
H182	H	0.965819	0.306667	-0.013502
H183	H	0.529810	-0.199343	-0.569551
H184	H	1.029810	0.300657	-0.069551
C185	C	0.965496	-0.363736	-0.934962
C186	C	1.465496	0.136264	-0.434962
C187	C	0.924298	-0.305197	-0.884863
C188	C	1.424298	0.194803	-0.384863
C189	C	0.877222	-0.238208	-0.923155
C190	C	1.377222	0.261792	-0.423155
H191	H	0.933361	-0.403579	-0.964938
H192	H	1.433361	0.096421	-0.464938
H193	H	0.993648	-0.318143	-0.964938
H194	H	1.493648	0.181857	-0.464938
H195	H	0.896148	-0.350785	-0.854900
H196	H	1.396148	0.149215	-0.354900
H197	H	0.956414	-0.265333	-0.854886
H198	H	1.456414	0.234667	-0.354886
H199	H	0.905374	-0.192614	-0.953131
H200	H	1.405374	0.307386	-0.453131
H201	H	0.845091	-0.278059	-0.953130
H202	H	1.345091	0.221941	-0.453130
H203	H	0.849269	-0.198474	-0.889169
H204	H	1.349269	0.301526	-0.389169
C205	C	1.161838	-0.642758	-0.774886
C206	C	1.661838	-0.142758	-0.274886
C207	C	1.203069	-0.701258	-0.824979
C208	C	1.703069	-0.201258	-0.324979
C209	C	1.250205	-0.768157	-0.786682
C210	C	1.750205	-0.268157	-0.286682
H211	H	1.133749	-0.688387	-0.744894
H212	H	1.633749	-0.188387	-0.244894
H213	H	1.193944	-0.602819	-0.744926
H214	H	1.693944	-0.102819	-0.244926
H215	H	1.170967	-0.741193	-0.854927
H216	H	1.670967	-0.241193	-0.354927
H217	H	1.231173	-0.655656	-0.854973
H218	H	1.731173	-0.155656	-0.354973
H219	H	1.282311	-0.728218	-0.756722
H220	H	1.782311	-0.228218	-0.256722
H221	H	1.222110	-0.813780	-0.756691
H222	H	1.722110	-0.313780	-0.256691
H223	H	1.278190	-0.807850	-0.820664
H224	H	1.778190	-0.307850	-0.320664
H225	H	1.025302	-1.070220	-0.392847
H226	H	1.525302	-0.570220	0.107153
