data_functionalizedCrystal
_audit_creation_method	'MofGen! by Chris Wilmer'
_symmetry_space_group_name_H-M	'P1'
_symmetry_Int_Tables_number	1
_symmetry_cell_setting	triclinic
loop_
_symmetry_equiv_pos_as_xyz
  x,y,z
_cell_length_a	15.995350
_cell_length_b	15.072220
_cell_length_c	27.732046
_cell_angle_alpha	90.007484
_cell_angle_beta	83.067177
_cell_angle_gamma	90.008851
loop_
_atom_site_label
_atom_site_type_symbol
_atom_site_fract_x
_atom_site_fract_y
_atom_site_fract_z
O1	O	-1.110189	-0.073720	-0.062301
O2	O	-0.610189	0.426280	0.437699
O3	O	-0.866314	-0.073740	-0.069995
O4	O	-0.366314	0.426260	0.430005
O5	O	-0.995827	-0.073709	0.004216
O6	O	-0.495827	0.426291	0.504216
O7	O	-0.980677	-0.073750	-0.136512
O8	O	-0.480677	0.426250	0.363488
O9	O	-0.995795	0.073856	0.004212
O10	O	-0.495795	0.573856	0.504212
O11	O	-0.866282	0.073825	-0.069999
O12	O	-0.366282	0.573825	0.430001
O13	O	-1.110157	0.073845	-0.062306
O14	O	-0.610157	0.573845	0.437694
Zn15	Zn	-0.988215	0.097264	-0.066153
Zn16	Zn	-0.488215	0.597264	0.433847
Zn17	Zn	-0.988257	-0.097159	-0.066148
Zn18	Zn	-0.488257	0.402841	0.433852
O19	O	-0.980645	0.073815	-0.136517
O20	O	-0.480645	0.573815	0.363483
C21	C	-0.835108	0.000041	-0.069679
C22	C	-0.335108	0.500041	0.430321
C23	C	-0.742170	0.000034	-0.068726
C24	C	-0.242170	0.500034	0.431274
C25	C	-0.995493	0.000076	0.022222
C26	C	-0.495493	0.500076	0.522222
C27	C	-0.994536	0.000086	0.075881
C28	C	-0.494536	0.500086	0.575881
N29	N	-0.988192	0.229953	-0.066156
N30	N	-0.488192	0.729953	0.433844
C31	C	-1.141364	0.000063	-0.062622
C32	C	-0.641364	0.500063	0.437378
C33	C	-1.234302	0.000064	-0.063575
C34	C	-0.734302	0.500064	0.436425
C35	C	-0.404466	0.000053	-0.065301
C36	C	0.095534	0.500053	0.434699
C37	C	-0.452585	0.000398	-0.012449
C38	C	0.047415	0.500398	0.487551
C39	C	-0.549263	0.000059	-0.013403
C40	C	-0.049263	0.500059	0.486597
C41	C	-0.572005	0.000044	-0.067000
C42	C	-0.072005	0.500044	0.433000
C43	C	-0.530598	-0.084227	-0.093066
C44	C	-0.030598	0.415773	0.406934
C45	C	-0.433980	-0.084291	-0.091738
C46	C	0.066020	0.415709	0.408262
C47	C	-0.433591	0.083518	-0.092835
C48	C	0.066409	0.583518	0.407165
C49	C	-0.530536	0.084626	-0.092822
C50	C	-0.030536	0.584626	0.407178
C51	C	-0.666690	0.000036	-0.067963
C52	C	-0.166690	0.500036	0.432037
C53	C	-0.309781	0.000056	-0.064340
C54	C	0.190219	0.500056	0.435660
N55	N	-0.988286	-0.229848	-0.066140
N56	N	-0.488286	0.270152	0.433860
C57	C	-0.988255	0.589155	-0.066146
C58	C	-0.488255	1.089155	0.433854
C59	C	-0.918726	0.551532	-0.105721
C60	C	-0.418726	1.051532	0.394279
C61	C	-0.918883	0.448706	-0.105866
C62	C	-0.418883	0.948706	0.394134
C63	C	-0.988223	0.410951	-0.066151
C64	C	-0.488223	0.910951	0.433849
C65	C	-1.075445	0.448245	-0.077167
C66	C	-0.575445	0.948245	0.422833
C67	C	-1.075055	0.551103	-0.077448
C68	C	-0.575055	1.051103	0.422552
C69	C	-0.971342	0.551268	-0.015437
C70	C	-0.471342	1.051268	0.484563
C71	C	-0.969333	0.448405	-0.015775
C72	C	-0.469333	0.948405	0.484225
C73	C	-0.988211	0.310237	-0.066153
C74	C	-0.488211	0.810237	0.433847
C75	C	-0.988273	0.689868	-0.066145
C76	C	-0.488273	1.189868	0.433855
C77	C	-1.065044	0.000061	0.414392
C78	C	-0.565044	0.500061	0.914392
C79	C	-1.061494	0.000057	0.616068
C80	C	-0.561494	0.500057	1.116068
O81	O	-1.125966	0.000025	0.647045
O82	O	-0.625966	0.500025	1.147045
N83	N	-0.984699	0.000052	0.635522
N84	N	-0.484699	0.500052	1.135522
C85	C	-0.908786	0.000043	0.604555
C86	C	-0.408786	0.500043	1.104555
O87	O	-0.843386	0.000030	0.625730
O88	O	-0.343386	0.500030	1.125730
C89	C	-0.912338	0.000041	0.402881
C90	C	-0.412338	0.500041	0.902881
C91	C	-0.989138	0.000054	0.383429
C92	C	-0.489138	0.500054	0.883429
C93	C	-1.141838	0.000073	0.394940
C94	C	-0.641838	0.500073	0.894940
C95	C	-1.142725	0.000079	0.344524
C96	C	-0.642725	0.500079	0.844524
C97	C	-1.066818	0.000072	0.313561
C98	C	-0.566818	0.500072	0.813561
C99	C	-0.990024	0.000060	0.333013
C100	C	-0.490024	0.500060	0.833013
C101	C	-0.836426	0.000025	0.371915
C102	C	-0.336426	0.500025	0.871915
C103	C	-0.837321	0.000022	0.321493
C104	C	-0.337321	0.500022	0.821493
C105	C	-0.914120	0.000036	0.302042
C106	C	-0.414120	0.500036	0.802042
C107	C	-0.915004	0.000059	0.251634
C108	C	-0.415004	0.500059	0.751634
N109	N	-0.991799	0.000064	0.232179
N110	N	-0.491799	0.500064	0.732179
C111	C	-1.067706	0.000070	0.263143
C112	C	-0.567706	0.500070	0.763143
C113	C	-0.906927	0.000046	0.710437
C114	C	-0.406927	0.500046	1.210437
C115	C	-0.906039	0.000048	0.760856
C116	C	-0.406039	0.500048	1.260856
C117	C	-1.058747	0.000060	0.772365
C118	C	-0.558747	0.500060	1.272365
C119	C	-1.059634	0.000065	0.721945
C120	C	-0.559634	0.500065	1.221945
C121	C	-0.983722	0.000051	0.690982
C122	C	-0.483722	0.500051	1.190982
C123	C	-1.069563	0.000083	0.157265
C124	C	-0.569563	0.500083	0.657265
C125	C	-1.070443	0.000093	0.106844
C126	C	-0.570443	0.500093	0.606844
C127	C	-0.917735	0.000076	0.095340
C128	C	-0.417735	0.500076	0.595340
C129	C	-0.916855	0.000071	0.145756
C130	C	-0.416855	0.500071	0.645756
C131	C	-0.992775	0.000072	0.176718
C132	C	-0.492775	0.500072	0.676718
O133	O	-0.850567	0.000081	0.220628
O134	O	-0.350567	0.500081	0.720628
O135	O	-1.133097	0.000064	0.241958
O136	O	-0.633097	0.500064	0.741958
C137	C	-1.064157	0.000055	0.464808
C138	C	-0.564157	0.500055	0.964808
C139	C	-0.987364	0.000043	0.484261
C140	C	-0.487364	0.500043	0.984261
C141	C	-0.911457	0.000036	0.453297
C142	C	-0.411457	0.500036	0.953297
C143	C	-0.986476	0.000045	0.534679
C144	C	-0.486476	0.500045	1.034679
C145	C	-1.062383	0.000051	0.565642
C146	C	-0.562383	0.500051	1.065642
C147	C	-1.139177	0.000056	0.546187
C148	C	-0.639177	0.500056	1.046187
C149	C	-1.140064	0.000062	0.495772
C150	C	-0.640064	0.500062	0.995772
C151	C	-0.834662	0.000031	0.472752
C152	C	-0.334662	0.500031	0.972752
C153	C	-0.833782	0.000027	0.523169
C154	C	-0.333782	0.500027	1.023169
C155	C	-0.909688	0.000033	0.554132
C156	C	-0.409688	0.500033	1.054132
C157	C	-0.980981	0.000038	0.845477
C158	C	-0.480981	0.500038	1.345477
C159	C	-0.981946	0.000055	0.791819
C160	C	-0.481946	0.500055	1.291819
H161	H	-0.577944	0.060469	0.007086
H162	H	-0.077944	0.560469	0.507086
C163	C	-0.832372	0.000062	0.167154
C164	C	-0.332372	0.500062	0.667154
N165	N	-0.768737	0.000046	0.183267
N166	N	-0.268737	0.500046	0.683267
H167	H	-1.022054	0.575599	0.014014
H168	H	-0.522054	1.075599	0.514014
C169	C	-1.096217	0.413432	-0.126561
C170	C	-0.596217	0.913432	0.373439
N171	N	-1.111856	0.387216	-0.163767
N172	N	-0.611856	0.887216	0.336233
C173	C	-1.225349	0.000090	0.428993
C174	C	-0.725349	0.500090	0.928993
N175	N	-1.288255	0.000112	0.454638
N176	N	-0.788255	0.500112	0.954638
C177	C	-0.830824	0.584999	-0.097010
C178	C	-0.330824	1.084999	0.402990
N179	N	-0.764615	0.610219	-0.090450
N180	N	-0.264615	1.110219	0.409550
H181	H	-0.558086	0.146969	-0.073794
H182	H	-0.058086	0.646969	0.426206
C183	C	-1.154932	0.000105	0.085451
C184	C	-0.654932	0.500105	0.585451
N185	N	-1.218568	0.000112	0.069339
N186	N	-0.718568	0.500112	0.569339
C187	C	-1.222675	0.000062	0.580257
C188	C	-0.722675	0.500062	1.080257
N189	N	-1.285562	0.000060	0.605920
N190	N	-0.785562	0.500060	1.105920
C191	C	-0.389734	-0.089490	-0.144157
C192	C	0.110266	0.410510	0.355843
N193	N	-0.356412	-0.093416	-0.183639
N194	N	0.143588	0.406584	0.316361
H195	H	-1.131384	0.000080	0.182469
H196	H	-0.631384	0.500080	0.682469
H197	H	-1.122171	0.000075	0.706111
H198	H	-0.622171	0.500075	1.206111
H199	H	-0.771237	0.000023	0.539001
H200	H	-0.271237	0.500023	1.039001
C201	C	-0.550622	0.091499	-0.145621
C202	C	-0.050622	0.591499	0.354379
N203	N	-0.565756	0.096673	-0.185391
N204	N	-0.065756	0.596673	0.314609
H205	H	-0.855934	0.000074	0.070121
H206	H	-0.355934	0.500074	0.570121
C207	C	-0.751154	0.000023	0.438699
C208	C	-0.251154	0.500023	0.938699
N209	N	-0.688250	0.000019	0.413051
N210	N	-0.188250	0.500019	0.913051
H211	H	-0.401324	0.084077	-0.131802
H212	H	0.098676	0.584077	0.368198
C213	C	-0.548996	-0.088481	-0.146260
C214	C	-0.048996	0.411519	0.353740
N215	N	-0.562856	-0.091684	-0.186326
N216	N	-0.062856	0.408316	0.313674
C217	C	-0.933017	0.586423	-0.156273
C218	C	-0.433017	1.086423	0.343727
N219	N	-0.943784	0.612704	-0.194347
N220	N	-0.443784	1.112704	0.305653
H221	H	-0.843501	0.000053	0.776689
H222	H	-0.343501	0.500053	1.276689
H223	H	-0.854028	0.423492	-0.099303
H224	H	-0.354028	0.923492	0.400697
C225	C	-0.933386	0.415436	-0.156702
C226	C	-0.433386	0.915436	0.343298
N227	N	-0.944315	0.390378	-0.194993
N228	N	-0.444315	0.890378	0.305007
H229	H	-1.205263	0.000086	0.328691
H230	H	-0.705263	0.500086	0.828691
C231	C	-0.409596	-0.169374	-0.066049
C232	C	0.090404	0.330626	0.433951
N233	N	-0.391235	-0.233459	-0.046697
N234	N	0.108765	0.266541	0.453303
C235	C	-1.033384	0.413709	0.025875
C236	C	-0.533384	0.913709	0.525875
N237	N	-1.081640	0.387585	0.057244
N238	N	-0.581640	0.887585	0.557244
C239	C	-1.146978	0.415204	-0.039263
C240	C	-0.646978	0.915204	0.460737
N241	N	-1.200855	0.390315	-0.010713
N242	N	-0.700855	0.890315	0.489287
C243	C	-0.887313	0.586345	-0.001137
C244	C	-0.387313	1.086345	0.498863
N245	N	-0.824018	0.612765	0.009627
N246	N	-0.324018	1.112765	0.509627
C247	C	-1.142245	0.000061	0.806434
C248	C	-0.642245	0.500061	1.306434
N249	N	-1.205132	0.000053	0.832097
N250	N	-0.705132	0.500053	1.332097
C251	C	-1.095307	0.583490	-0.127411
C252	C	-0.595307	1.083490	0.372589
N253	N	-1.110555	0.607880	-0.165047
N254	N	-0.610555	1.107880	0.334953
H255	H	-1.128375	0.575989	-0.049759
H256	H	-0.628375	1.075989	0.450241
H257	H	-0.775502	0.000009	0.296285
H258	H	-0.275502	0.500009	0.796285
H259	H	-0.905175	0.424030	-0.007416
H260	H	-0.405175	0.924030	0.492584
H261	H	-0.845107	0.000035	0.685231
H262	H	-0.345107	0.500035	1.185231
H263	H	-0.433276	-0.059691	0.008581
H264	H	0.066724	0.440309	0.508581
C265	C	-0.427906	0.082041	0.016090
C266	C	0.072094	0.582041	0.516090
N267	N	-0.409310	0.143536	0.037586
N268	N	0.090690	0.643536	0.537586
H269	H	-0.577401	-0.060444	0.007228
H270	H	-0.077401	0.439556	0.507228
C271	C	-0.406141	0.169811	-0.069491
C272	C	0.093859	0.669811	0.430509
N273	N	-0.385467	0.234802	-0.051903
N274	N	0.114533	0.734802	0.448097
H275	H	-1.202603	0.000072	0.479939
H276	H	-0.702603	0.500072	0.979939
C277	C	-0.569259	-0.168941	-0.068601
C278	C	-0.069259	0.331059	0.431399
N279	N	-0.598376	-0.232747	-0.050171
N280	N	-0.098376	0.267253	0.449829
H281	H	-0.773887	0.000009	0.387743
H282	H	-0.273887	0.500009	0.887743
