data_functionalizedCrystal
_audit_creation_method	'MofGen! by Chris Wilmer'
_symmetry_space_group_name_H-M	'P1'
_symmetry_Int_Tables_number	1
_symmetry_cell_setting	triclinic
loop_
_symmetry_equiv_pos_as_xyz
  x,y,z
_cell_length_a	12.759401
_cell_length_b	12.759399
_cell_length_c	12.759393
_cell_angle_alpha	89.969094
_cell_angle_beta	89.980404
_cell_angle_gamma	90.015393
loop_
_atom_site_label
_atom_site_type_symbol
_atom_site_fract_x
_atom_site_fract_y
_atom_site_fract_z
Zn1	Zn	-1.606263	0.418208	0.593979
Zn2	Zn	-1.606153	0.593923	0.418298
Zn3	Zn	-1.430562	0.418260	0.418319
Zn4	Zn	-1.430553	0.593846	0.593940
O5	O	-1.518383	0.506059	0.506134
O6	O	-1.753270	0.441527	0.570683
O7	O	-1.582818	0.570675	0.271280
O8	O	-1.453919	0.271232	0.441646
O9	O	-1.753189	0.570625	0.441611
O10	O	-1.583006	0.271194	0.570703
O11	O	-1.453812	0.441616	0.271295
O12	O	-1.283540	0.441541	0.441607
O13	O	-1.453903	0.570493	0.740966
O14	O	-1.283533	0.570544	0.570635
O15	O	-1.582997	0.441452	0.740995
O16	O	-1.582809	0.740934	0.441572
O17	O	-1.453796	0.740877	0.570615
C18	C	-1.245415	0.506040	0.506120
C19	C	-1.128639	0.506058	0.506138
C20	C	-1.518318	0.779027	0.506110
C21	C	-1.518387	0.895803	0.506135
C22	C	-1.518461	0.505958	0.780168
C23	C	-1.518495	0.505915	0.896944
C24	C	-1.792416	0.506079	0.506149
C25	C	-1.909193	0.506087	0.506156
C26	C	-0.964070	0.573347	0.573225
C27	C	-1.073794	0.573336	0.573214
C28	C	-1.073754	0.438795	0.439062
C29	C	-0.964032	0.438812	0.439068
C30	C	-1.518476	0.232026	0.506181
C31	C	-1.518516	0.115249	0.506201
C32	C	-1.585641	0.950660	0.439019
C33	C	-1.585708	1.060384	0.439054
C34	C	-1.451259	1.060385	0.573325
C35	C	-1.451198	0.950663	0.573294
C36	C	-1.518365	0.506084	0.233167
C37	C	-1.518535	0.505831	0.116391
C38	C	-1.585719	0.438713	0.951823
C39	C	-1.585737	0.438668	1.061547
C40	C	-1.451303	0.573036	1.061504
C41	C	-1.451281	0.573075	0.951782
H42	H	-0.919423	0.628127	0.627851
Cl43	Cl	-1.142777	0.657898	0.657531
Cl44	Cl	-1.670109	0.881697	0.354593
H45	H	-1.118418	0.384020	0.384443
H46	H	-0.919350	0.384039	0.384448
Cl47	Cl	-1.366758	0.657559	0.882786
H48	H	-1.640446	0.384024	0.907178
Cl49	Cl	-1.366649	0.881695	0.657682
H50	H	-1.640476	0.383943	1.106225
H51	H	-1.396583	0.627718	1.106166
H52	H	-1.640474	1.105043	0.384403
H53	H	-1.396555	1.105065	0.628002
