data_functionalizedCrystal
_audit_creation_method	'MofGen! by Chris Wilmer'
_symmetry_space_group_name_H-M	'P1'
_symmetry_Int_Tables_number	1
_symmetry_cell_setting	triclinic
loop_
_symmetry_equiv_pos_as_xyz
  x,y,z
_cell_length_a	17.038272
_cell_length_b	14.971486
_cell_length_c	14.048226
_cell_angle_alpha	90.001501
_cell_angle_beta	89.993466
_cell_angle_gamma	92.637157
loop_
_atom_site_label
_atom_site_type_symbol
_atom_site_fract_x
_atom_site_fract_y
_atom_site_fract_z
O1	O	0.101897	-1.194576	-0.079052
O2	O	0.601897	-0.694576	0.420948
O3	O	0.114100	-0.935090	-0.079077
O4	O	0.614100	-0.435090	0.420923
O5	O	-0.005819	-1.063291	-0.079057
O6	O	0.494181	-0.563291	0.420943
O7	O	0.221816	-1.066375	-0.079072
O8	O	0.721816	-0.566375	0.420928
O9	O	-0.005826	-1.063274	0.079264
O10	O	0.494174	-0.563274	0.579264
O11	O	0.114093	-0.935073	0.079244
O12	O	0.614093	-0.435073	0.579244
O13	O	0.101890	-1.194559	0.079270
O14	O	0.601890	-0.694559	0.579270
Zn15	Zn	0.107990	-1.064813	0.104394
Zn16	Zn	0.607990	-0.564813	0.604394
Zn17	Zn	0.108000	-1.064836	-0.104201
Zn18	Zn	0.608000	-0.564836	0.395799
O19	O	0.221809	-1.066358	0.079249
O20	O	0.721809	-0.566358	0.579249
C21	C	0.113551	-0.901716	0.000080
C22	C	0.613551	-0.401716	0.500080
C23	C	0.111915	-0.802296	0.000070
C24	C	0.611915	-0.302296	0.500070
C25	C	-0.034954	-1.060477	0.000103
C26	C	0.465046	-0.560477	0.500103
C27	C	-0.121756	-1.052107	0.000102
C28	C	0.378244	-0.552107	0.500102
N29	N	0.107984	-1.064804	0.246754
N30	N	0.607984	-0.564804	0.746754
C31	C	-0.171781	-1.128951	0.000111
C32	C	0.328219	-0.628951	0.500111
C33	C	-0.253341	-1.121081	0.000101
C34	C	0.246659	-0.621081	0.500101
C35	C	-0.284874	-1.036367	0.000089
C36	C	0.215126	-0.536367	0.500089
C37	C	-0.234843	-0.959518	0.000078
C38	C	0.265157	-0.459518	0.500078
C39	C	-0.153285	-0.967388	0.000081
C40	C	0.346715	-0.467388	0.500081
C41	C	-0.530664	-1.008563	0.000073
C42	C	-0.030664	-0.508563	0.500073
C43	C	-0.612229	-1.000698	0.000073
C44	C	-0.112229	-0.500698	0.500073
C45	C	-0.630721	-1.162262	0.000095
C46	C	-0.130721	-0.662262	0.500095
C47	C	-0.549161	-1.170125	0.000103
C48	C	-0.049161	-0.670125	0.500103
C49	C	-0.499137	-1.093276	0.000087
C50	C	0.000863	-0.593276	0.500087
C51	C	-0.368241	-1.028321	0.000082
C52	C	0.131759	-0.528321	0.500082
C53	C	-0.415771	-1.101323	0.000087
C54	C	0.084229	-0.601323	0.500087
C55	C	0.250944	-1.069172	0.000087
C56	C	0.750944	-0.569172	0.500087
C57	C	0.337746	-1.077542	0.000082
C58	C	0.837746	-0.577542	0.500082
C59	C	0.102440	-1.227933	0.000110
C60	C	0.602440	-0.727933	0.500110
C61	C	0.104075	-1.327353	0.000114
C62	C	0.604075	-0.827353	0.500114
C63	C	0.182364	-0.750345	0.000067
C64	C	0.682364	-0.250345	0.500067
C65	C	0.180823	-0.656930	0.000081
C66	C	0.680823	-0.156930	0.500081
C67	C	0.108832	-0.615468	0.000092
C68	C	0.608832	-0.115468	0.500092
C69	C	0.038378	-0.667426	0.000098
C70	C	0.538378	-0.167426	0.500098
C71	C	0.039920	-0.760839	0.000091
C72	C	0.539920	-0.260839	0.500091
C73	C	0.035169	-0.472723	0.000111
C74	C	0.535169	0.027277	0.500111
C75	C	0.033626	-0.379303	0.000117
C76	C	0.533626	0.120697	0.500117
C77	C	0.176072	-0.368815	0.000102
C78	C	0.676072	0.131185	0.500102
C79	C	0.177614	-0.462228	0.000095
C80	C	0.677614	0.037772	0.500095
C81	C	0.107159	-0.514179	0.000099
C82	C	0.607159	-0.014179	0.500099
N83	N	0.108000	-1.064851	-0.246562
N84	N	0.608000	-0.564851	0.253438
C85	C	0.054906	-1.121592	0.296581
C86	C	0.554906	-0.621592	0.796581
C87	C	0.054905	-1.121599	0.396239
C88	C	0.554905	-0.621599	0.896239
C89	C	0.107987	-1.064820	0.446068
C90	C	0.607987	-0.564820	0.946068
C91	C	0.161067	-1.008026	0.396234
C92	C	0.661067	-0.508026	0.896234
C93	C	0.161064	-1.008016	0.296578
C94	C	0.661064	-0.508016	0.796578
C95	C	0.161073	-1.008052	0.603948
C96	C	0.661073	-0.508052	1.103948
C97	C	0.161078	-1.008063	0.703611
C98	C	0.661078	-0.508063	1.203611
C99	C	0.054915	-1.121635	0.703609
C100	C	0.554915	-0.621635	1.203609
C101	C	0.054911	-1.121625	0.603953
C102	C	0.554911	-0.621625	1.103953
C103	C	0.107993	-1.064831	0.554126
C104	C	0.607993	-0.564831	1.054126
H105	H	-0.146113	-1.197934	0.000126
H106	H	0.353887	-0.697934	0.500126
Br107	Br	-0.655023	-0.885721	0.000067
Br108	Br	-0.155023	-0.385721	0.500067
H109	H	0.233438	-0.326511	0.000103
H110	H	0.733438	0.173489	0.500103
Br111	Br	0.233110	-0.930969	0.536329
Br112	Br	0.733110	-0.430969	1.036329
H113	H	0.011684	-1.167832	0.256017
H114	H	0.511684	-0.667832	0.756017
H115	H	0.204302	-0.961827	0.744176
H116	H	0.704302	-0.461827	1.244176
H117	H	-0.024995	-0.345548	0.000127
H118	H	0.475005	0.154452	0.500127
Br119	Br	-0.411043	-0.913355	0.000057
Br120	Br	0.088957	-0.413355	0.500057
H121	H	0.238189	-0.614636	0.000078
H122	H	0.738189	-0.114636	0.500078
Br123	Br	-0.698614	-1.266552	0.000117
Br124	Br	-0.198614	-0.766552	0.500117
Br125	Br	-0.060449	-0.543228	0.000122
Br126	Br	0.439551	-0.043228	0.500122
H127	H	0.204285	-0.961791	0.436810
H128	H	0.704285	-0.461791	0.936810
Br129	Br	0.233096	-0.930936	0.228955
Br130	Br	0.733096	-0.430936	0.728955
H131	H	-0.260524	-0.890541	0.000062
H132	H	0.239476	-0.390541	0.500062
H133	H	-0.017447	-0.803137	0.000093
H134	H	0.482553	-0.303137	0.500093
Br135	Br	-0.085392	-0.863096	0.000061
Br136	Br	0.414608	-0.363096	0.500061
H137	H	0.011685	-1.167839	0.436808
H138	H	0.511685	-0.667839	0.936808
H139	H	-0.294068	-1.183656	0.000110
H140	H	0.205932	-0.683656	0.500110
Br141	Br	0.280071	-0.806606	0.000043
Br142	Br	0.780071	-0.306606	0.500043
Br143	Br	-0.372975	-1.216288	0.000095
Br144	Br	0.127025	-0.716288	0.500095
Br145	Br	-0.506371	-1.285099	0.000089
Br146	Br	-0.006371	-0.785099	0.500089
H147	H	-0.489944	-0.945986	0.000060
H148	H	0.010056	-0.445986	0.500060
H149	H	0.011694	-1.167877	0.744184
H150	H	0.511694	-0.667877	1.244184
Br151	Br	0.275316	-0.518498	0.000066
Br152	Br	0.775316	-0.018498	0.500066
H153	H	0.011692	-1.167862	0.563383
H154	H	0.511692	-0.667862	1.063383
H155	H	-0.020239	-0.633660	0.000120
H156	H	0.479761	-0.133660	0.500120
