data_functionalizedCrystal
_audit_creation_method	'MofGen! by Chris Wilmer'
_symmetry_space_group_name_H-M	'P1'
_symmetry_Int_Tables_number	1
_symmetry_cell_setting	triclinic
loop_
_symmetry_equiv_pos_as_xyz
  x,y,z
_cell_length_a	10.723024
_cell_length_b	12.503572
_cell_length_c	10.723024
_cell_angle_alpha	86.442056
_cell_angle_beta	84.467869
_cell_angle_gamma	93.551581
loop_
_atom_site_label
_atom_site_type_symbol
_atom_site_fract_x
_atom_site_fract_y
_atom_site_fract_z
O1	O	1.664322	0.089311	0.167870
O2	O	2.164322	0.589311	0.667870
O3	O	1.301170	0.089314	0.184623
O4	O	1.801170	0.589314	0.684623
O5	O	1.491122	0.089308	-0.005329
O6	O	1.991122	0.589308	0.494671
O7	O	1.474370	0.089317	0.357823
O8	O	1.974370	0.589317	0.857823
O9	O	1.476837	-0.089333	0.008980
O10	O	1.976837	0.410667	0.508980
O11	O	1.286885	-0.089327	0.198933
O12	O	1.786885	0.410673	0.698933
O13	O	1.650037	-0.089331	0.182180
O14	O	2.150037	0.410669	0.682180
Cu15	Cu	1.467156	-0.105640	0.191863
Cu16	Cu	1.967156	0.394360	0.691863
Cu17	Cu	1.484050	0.105624	0.174940
Cu18	Cu	1.984050	0.605624	0.674940
O19	O	1.460084	-0.089325	0.372132
O20	O	1.960084	0.410675	0.872132
C21	C	1.247528	-0.000006	0.190559
C22	C	1.747528	0.499994	0.690559
C23	C	1.108974	-0.000005	0.186911
C24	C	1.608974	0.499995	0.686911
N25	N	1.455283	-0.254232	0.203764
N26	N	1.955283	0.245768	0.703764
C27	C	1.033991	-0.000002	0.293198
C28	C	1.533991	0.499998	0.793198
C29	C	0.890788	-0.000000	0.289431
C30	C	1.390788	0.500000	0.789431
C31	C	1.437817	-0.473347	0.221283
C32	C	1.937817	0.026653	0.721283
C33	C	1.513395	-0.526676	0.145514
C34	C	2.013395	-0.026676	0.645514
C35	C	1.503677	-0.648599	0.155262
C36	C	2.003677	-0.148599	0.655262
C37	C	1.447534	-0.351413	0.211537
C38	C	1.947534	0.148587	0.711537
C39	C	1.703679	-0.000008	0.176244
C40	C	2.203679	0.499992	0.676244
C41	C	1.842234	-0.000002	0.179891
C42	C	2.342234	0.499998	0.679891
C43	C	1.482761	-0.000011	-0.044674
C44	C	1.982761	0.499989	0.455326
C45	C	1.479113	-0.000007	-0.183229
C46	C	1.979113	0.499993	0.316771
N47	N	1.495934	0.254216	0.163029
N48	N	1.995934	0.754216	0.663029
C49	C	1.585401	-0.000007	-0.258211
C50	C	2.085401	0.499993	0.241789
C51	C	1.581634	-0.000003	-0.401415
C52	C	2.081634	0.499997	0.098585
C53	C	1.468446	-0.000003	0.411477
C54	C	1.968446	0.499997	0.911477
C55	C	1.472094	0.000000	0.550031
C56	C	1.972094	0.500000	1.050031
H57	H	1.075813	-0.000006	0.386985
H58	H	1.575813	0.499994	0.886985
F59	F	0.806575	0.000011	0.408366
F60	F	1.306575	0.500011	0.908366
H61	H	0.906659	0.000002	0.088895
H62	H	1.406659	0.500002	0.588895
H63	H	1.385328	0.000001	-0.225051
H64	H	1.885328	0.500001	0.274949
F65	F	1.343710	-0.533350	0.315635
F66	F	1.843710	-0.033350	0.815635
H67	H	1.067153	0.000021	0.093123
H68	H	1.567153	0.500021	0.593123
H69	H	1.679186	-0.000014	-0.216389
H70	H	2.179186	0.499986	0.283611
F71	F	1.353152	-0.000008	-0.365762
F72	F	1.853152	0.499992	0.134238
F73	F	1.607887	-0.466672	0.051536
F74	F	2.107887	0.033328	0.551536
H75	H	1.672624	-0.000007	-0.465847
H76	H	2.172624	0.499993	0.034153
