data_functionalizedCrystal
_audit_creation_method	'MofGen! by Chris Wilmer'
_symmetry_space_group_name_H-M	'P1'
_symmetry_Int_Tables_number	1
_symmetry_cell_setting	triclinic
loop_
_symmetry_equiv_pos_as_xyz
  x,y,z
_cell_length_a	21.295417
_cell_length_b	19.121102
_cell_length_c	19.120904
_cell_angle_alpha	90.088173
_cell_angle_beta	87.591662
_cell_angle_gamma	92.415380
loop_
_atom_site_label
_atom_site_type_symbol
_atom_site_fract_x
_atom_site_fract_y
_atom_site_fract_z
Zn1	Zn	-0.307921	-1.054814	0.442032
Zn2	Zn	0.025413	-0.721481	0.775365
Zn3	Zn	0.358746	-0.388148	1.108698
Zn4	Zn	-0.408895	-1.059724	0.324785
Zn5	Zn	-0.075562	-0.726390	0.658118
Zn6	Zn	0.257772	-0.393057	0.991452
Zn7	Zn	-0.298967	-0.942584	0.319816
Zn8	Zn	0.034366	-0.609251	0.653150
Zn9	Zn	0.367699	-0.275917	0.986483
Zn10	Zn	-0.408472	-0.937535	0.436987
Zn11	Zn	-0.075138	-0.604202	0.770321
Zn12	Zn	0.258195	-0.270868	1.103654
O13	O	-0.356064	-0.998664	0.380905
O14	O	-0.022730	-0.665331	0.714238
O15	O	0.310603	-0.331998	1.047572
O16	O	-0.325239	-1.153571	0.430669
O17	O	0.008094	-0.820237	0.764002
O18	O	0.341427	-0.486904	1.097336
O19	O	-0.390743	-1.048352	0.226021
O20	O	-0.057409	-0.715019	0.559355
O21	O	0.275924	-0.381686	0.892688
O22	O	-0.212069	-0.957530	0.336060
O23	O	0.121264	-0.624197	0.669393
O24	O	0.454598	-0.290864	1.002727
O25	O	-0.399425	-1.157177	0.344528
O26	O	-0.066091	-0.823844	0.677862
O27	O	0.267242	-0.490511	1.011195
O28	O	-0.218647	-1.039985	0.425851
O29	O	0.114686	-0.706652	0.759184
O30	O	0.448020	-0.373319	1.092518
O31	O	-0.309980	-0.962291	0.222371
O32	O	0.023354	-0.628957	0.555704
O33	O	0.356687	-0.295624	0.889038
O34	O	-0.309569	-0.843809	0.331169
O35	O	0.023764	-0.510476	0.664502
O36	O	0.357097	-0.177143	0.997836
O37	O	-0.398703	-0.948925	0.535761
O38	O	-0.065370	-0.615591	0.869094
O39	O	0.267963	-0.282258	1.202428
O40	O	-0.390022	-0.840100	0.417254
O41	O	-0.056688	-0.506766	0.750587
O42	O	0.276645	-0.173433	1.083921
O43	O	-0.324829	-1.035089	0.539467
O44	O	0.008504	-0.701756	0.872800
O45	O	0.341838	-0.368423	1.206134
O46	O	-0.496925	-1.043456	0.339637
O47	O	-0.163591	-0.710123	0.672970
O48	O	0.169742	-0.376790	1.006304
O49	O	-0.496614	-0.953685	0.422072
O50	O	-0.163280	-0.620352	0.755405
O51	O	0.170053	-0.287018	1.088738
C52	C	-0.348778	-0.816517	0.373125
C53	C	-0.015445	-0.483184	0.706459
C54	C	0.317888	-0.149850	1.039792
C55	C	-0.345677	-0.738593	0.369814
C56	C	-0.012344	-0.405260	0.703147
C57	C	0.320989	-0.071926	1.036480
C58	C	-0.519610	-0.998574	0.380862
C59	C	-0.186277	-0.665241	0.714196
C60	C	0.147056	-0.331907	1.047529
C61	C	-0.589580	-0.998599	0.380870
C62	C	-0.256246	-0.665265	0.714203
C63	C	0.077087	-0.331932	1.047537
C64	C	-0.362718	-0.990896	0.563763
C65	C	-0.029384	-0.657563	0.897096
C66	C	0.303949	-0.324230	1.230429
C67	C	-0.365553	-0.987586	0.641686
C68	C	-0.032220	-0.654253	0.975019
C69	C	0.301113	-0.320919	1.308352
C70	C	-0.622590	-1.045380	0.337994
C71	C	-0.289257	-0.712047	0.671327
C72	C	0.044076	-0.378714	1.004661
C73	C	-0.688335	-1.045413	0.338011
C74	C	-0.355001	-0.712079	0.671345
C75	C	-0.021668	-0.378746	1.004678
C76	C	-0.721065	-0.998651	0.380897
C77	C	-0.387732	-0.665317	0.714230
C78	C	-0.054398	-0.331984	1.047563
C79	C	-0.688046	-0.951865	0.423781
C80	C	-0.354713	-0.618532	0.757115
C81	C	-0.021380	-0.285199	1.090448
C82	C	-0.622304	-0.951839	0.423768
C83	C	-0.288970	-0.618506	0.757101
C84	C	0.044363	-0.285173	1.090435
N85	N	-0.822078	-0.937094	0.383622
N86	N	-0.488744	-0.603761	0.716955
N87	N	-0.155411	-0.270427	1.050288
N88	N	-0.884530	-0.937121	0.383630
N89	N	-0.551197	-0.603788	0.716964
N90	N	-0.217864	-0.270454	1.050297
C91	C	-0.919144	-0.998728	0.380940
C92	C	-0.585811	-0.665394	0.714273
C93	C	-0.252478	-0.332061	1.047607
N94	N	-0.888946	-1.060308	0.378228
N95	N	-0.555612	-0.726975	0.711561
N96	N	-0.222279	-0.393642	1.044894
N97	N	-0.826487	-1.060281	0.378215
N98	N	-0.493154	-0.726947	0.711549
N99	N	-0.159820	-0.393614	1.044882
C100	C	-0.792352	-0.998674	0.380916
C101	C	-0.459019	-0.665341	0.714249
C102	C	-0.125685	-0.332007	1.047583
C103	C	-1.023443	-1.045548	0.338080
C104	C	-0.690110	-0.712215	0.671414
C105	C	-0.356776	-0.378881	1.004747
C106	C	-1.089189	-1.045581	0.338103
C107	C	-0.755855	-0.712248	0.671436
C108	C	-0.422522	-0.378915	1.004769
C109	C	-1.088899	-0.952028	0.423869
C110	C	-0.755565	-0.618695	0.757202
C111	C	-0.422232	-0.285361	1.090535
C112	C	-1.023154	-0.952001	0.423850
C113	C	-0.689821	-0.618668	0.757184
C114	C	-0.356488	-0.285334	1.090517
C115	C	-0.990430	-0.998760	0.380953
C116	C	-0.657097	-0.665427	0.714286
C117	C	-0.323764	-0.332094	1.047619
C118	C	-0.191880	-0.998773	0.380964
C119	C	0.141454	-0.665440	0.714297
C120	C	0.474787	-0.332107	1.047631
C121	C	-0.121914	-0.998820	0.380989
C122	C	0.211419	-0.665486	0.714323
C123	C	0.544752	-0.332153	1.047656
C124	C	-0.363378	-1.181523	0.388716
C125	C	-0.030045	-0.848189	0.722049
C126	C	0.303289	-0.514856	1.055382
C127	C	-0.366495	-1.259446	0.392044
C128	C	-0.033161	-0.926113	0.725377
C129	C	0.300172	-0.592779	1.058711
C130	C	-0.386166	-0.700074	0.413007
C131	C	-0.052833	-0.366741	0.746341
C132	C	0.280501	-0.033407	1.079674
C133	C	-0.383244	-0.626856	0.409899
C134	C	-0.049911	-0.293523	0.743232
C135	C	0.283422	0.039811	1.076566
C136	C	-0.339836	-0.592158	0.363593
C137	C	-0.006503	-0.258825	0.696927
C138	C	0.326830	0.074508	1.030260
C139	C	-0.299344	-0.630682	0.320398
C140	C	0.033990	-0.297349	0.653731
C141	C	0.367323	0.035984	0.987065
C142	C	-0.302263	-0.703899	0.323510
C143	C	0.031071	-0.370566	0.656843
C144	C	0.364404	-0.037232	0.990177
C145	C	-0.328921	-0.371187	0.351961
C146	C	0.004412	-0.037853	0.685294
C147	C	0.337746	0.295480	1.018627
C148	C	-0.326006	-0.297965	0.348850
C149	C	0.007327	0.035368	0.682184
C150	C	0.340661	0.368702	1.015517
C151	C	-0.409906	-0.294144	0.438353
C152	C	-0.076573	0.039190	0.771686
C153	C	0.256760	0.372523	1.105020
C154	C	-0.412824	-0.367362	0.441458
C155	C	-0.079491	-0.034029	0.774791
C156	C	0.253842	0.299305	1.108125
C157	C	-0.372329	-0.405880	0.398265
C158	C	-0.038996	-0.072546	0.731599
C159	C	0.294337	0.260787	1.064932
C160	C	-0.336850	-0.517318	0.360413
C161	C	-0.003517	-0.183984	0.693747
C162	C	0.329816	0.149349	1.027080
C163	C	-0.375313	-0.480719	0.401449
C164	C	-0.041980	-0.147385	0.734782
C165	C	0.291354	0.185948	1.068116
C166	C	-0.349392	-1.006442	0.198761
C167	C	-0.016058	-0.673109	0.532094
C168	C	0.317275	-0.339776	0.865427
C169	C	-0.346384	-1.009889	0.120844
C170	C	-0.013051	-0.676555	0.454177
C171	C	0.320282	-0.343222	0.787510
C172	C	-0.328425	-1.030890	0.680225
C173	C	0.004909	-0.697556	1.013558
C174	C	0.338242	-0.364223	1.346891
C175	C	-0.331086	-1.027771	0.753441
C176	C	0.002247	-0.694438	1.086775
C177	C	0.335580	-0.361104	1.420108
C178	C	-0.370880	-0.981351	0.788118
C179	C	-0.037547	-0.648018	1.121451
C180	C	0.295786	-0.314685	1.454784
C181	C	-0.408010	-0.938043	0.749573
C182	C	-0.074677	-0.604709	1.082907
C183	C	0.258657	-0.271376	1.416240
C184	C	-0.405345	-0.941159	0.676358
C185	C	-0.072011	-0.607825	1.009691
C186	C	0.261322	-0.274492	1.343025
C187	C	-0.380849	-0.969696	1.009084
C188	C	-0.047515	-0.636363	1.342417
C189	C	0.285818	-0.303029	1.675751
C190	C	-0.383513	-0.966585	1.082305
C191	C	-0.050179	-0.633251	1.415638
C192	C	0.283154	-0.299918	1.748971
C193	C	-0.306588	-1.056312	1.086168
C194	C	0.026746	-0.722979	1.419501
C195	C	0.360079	-0.389646	1.752834
C196	C	-0.303929	-1.059427	1.012951
C197	C	0.029405	-0.726094	1.346284
C198	C	0.362738	-0.392760	1.679617
C199	C	-0.341056	-1.016116	0.974413
C200	C	-0.007723	-0.682783	1.307746
C201	C	0.325610	-0.349449	1.641079
C202	C	-0.373603	-0.978164	0.862957
C203	C	-0.040270	-0.644830	1.196290
C204	C	0.293063	-0.311497	1.529623
C205	C	-0.338330	-1.019300	0.899575
C206	C	-0.004996	-0.685967	1.232908
C207	C	0.328337	-0.352634	1.566241
H208	H	-0.595949	-1.083456	0.303066
H209	H	-0.262615	-0.750123	0.636399
H210	H	0.070718	-0.416789	0.969733
H211	H	-0.996275	-0.913904	0.458761
H212	H	-0.662942	-0.580571	0.792094
H213	H	-0.329608	-0.247237	1.125428
H214	H	-0.269289	-0.735260	0.288341
H215	H	0.064044	-0.401927	0.621674
H216	H	0.397377	-0.068593	0.955008
H217	H	-0.435572	-0.905889	0.644980
H218	H	-0.102239	-0.572556	0.978313
H219	H	0.231094	-0.239222	1.311647
H220	H	-0.296022	-1.068692	0.651997
H221	H	0.037311	-0.735359	0.985330
H222	H	0.370644	-0.402025	1.318663
N223	N	-0.588572	-0.904058	0.467567
N224	N	-0.255239	-0.570725	0.800901
N225	N	0.078095	-0.237392	1.134234
N226	N	-0.554457	-0.926779	0.513302
N227	N	-0.221123	-0.593445	0.846635
N228	N	0.112210	-0.260112	1.179969
H229	H	-0.530632	-0.893033	0.544236
H230	H	-0.197299	-0.559700	0.877570
H231	H	0.136035	-0.226367	1.210903
N232	N	-0.297692	-1.066726	0.864157
N233	N	0.035642	-0.733392	1.197491
N234	N	0.368975	-0.400059	1.530824
N235	N	-0.304758	-1.131066	0.875095
N236	N	0.028575	-0.797732	1.208428
N237	N	0.361908	-0.464399	1.541761
H238	H	-0.276060	-1.164563	0.850076
H239	H	0.057274	-0.831229	1.183409
H240	H	0.390607	-0.497896	1.516742
H241	H	-0.263997	-0.602426	0.282698
H242	H	0.069336	-0.269092	0.616031
H243	H	0.402669	0.064241	0.949364
N244	N	-0.281653	-0.262530	0.301553
N245	N	0.051681	0.070804	0.634887
N246	N	0.385014	0.404137	0.968220
N247	N	-0.224074	-0.270530	0.306679
N248	N	0.109259	0.062803	0.640012
N249	N	0.442593	0.396136	0.973346
H250	H	-0.192751	-0.245504	0.273278
H251	H	0.140583	0.087830	0.606611
H252	H	0.473916	0.421163	0.939944
H253	H	-0.295952	-0.402539	0.316785
H254	H	0.037382	-0.069206	0.650118
H255	H	0.370715	0.264127	0.983452
H256	H	-0.442874	-0.262775	0.473519
H257	H	-0.109541	0.070559	0.806852
H258	H	0.223792	0.403892	1.140185
N259	N	-0.990021	-1.093314	0.294260
N260	N	-0.656688	-0.759980	0.627593
N261	N	-0.323354	-0.426647	0.960927
N262	N	-1.019507	-1.135086	0.255984
N263	N	-0.686174	-0.801752	0.589317
N264	N	-0.352840	-0.468419	0.922650
H265	H	-0.995905	-1.168821	0.225034
H266	H	-0.662571	-0.835487	0.558367
H267	H	-0.329238	-0.502154	0.891701
H268	H	-0.715218	-1.083510	0.303097
H269	H	-0.381884	-0.750177	0.636430
H270	H	-0.048551	-0.416844	0.969763
N271	N	-0.448654	-0.890613	0.784981
N272	N	-0.115321	-0.557280	1.118314
N273	N	0.218013	-0.223946	1.451647
N274	N	-0.481794	-0.851944	0.750559
N275	N	-0.148460	-0.518611	1.083893
N276	N	0.184873	-0.185278	1.417226
H277	H	-0.510497	-0.818442	0.775564
H278	H	-0.177163	-0.485108	1.108897
H279	H	0.156170	-0.151775	1.442230
H280	H	-0.416215	-0.595497	0.445071
H281	H	-0.082882	-0.262164	0.778405
H282	H	0.250452	0.071170	1.111738
H283	H	-0.271526	-1.097229	0.984722
H284	H	0.061807	-0.763895	1.318056
H285	H	0.395140	-0.430562	1.651389
H286	H	-1.116065	-1.083681	0.303189
H287	H	-0.782732	-0.750348	0.636523
H288	H	-0.449399	-0.417014	0.969856
H289	H	-0.714700	-0.913793	0.458700
H290	H	-0.381366	-0.580459	0.792033
H291	H	-0.048033	-0.247126	1.125367
N292	N	-1.122333	-0.904270	0.467676
N293	N	-0.789000	-0.570936	0.801009
N294	N	-0.455667	-0.237603	1.134343
N295	N	-1.181032	-0.904300	0.467685
N296	N	-0.847699	-0.570967	0.801018
N297	N	-0.514365	-0.237633	1.134351
H298	H	-1.204649	-0.870571	0.498626
H299	H	-0.871316	-0.537238	0.831960
H300	H	-0.537982	-0.203904	1.165293
N301	N	-0.268670	-1.100547	1.125544
N302	N	0.064663	-0.767213	1.458877
N303	N	0.397996	-0.433880	1.792211
N304	N	-0.271054	-1.097762	1.190914
N305	N	0.062279	-0.764429	1.524248
N306	N	0.395613	-0.431095	1.857581
H307	H	-0.244272	-1.129003	1.218725
H308	H	0.089061	-0.795670	1.552058
H309	H	0.422394	-0.462336	1.885392
N310	N	-0.430516	-0.735503	0.460306
N311	N	-0.097182	-0.402169	0.793640
N312	N	0.236151	-0.068836	1.126973
N313	N	-0.466663	-0.701099	0.498868
N314	N	-0.133329	-0.367765	0.832201
N315	N	0.200004	-0.034432	1.165534
H316	H	-0.497986	-0.726118	0.532275
H317	H	-0.164653	-0.392784	0.865608
H318	H	0.168681	-0.059451	1.198942
H319	H	-0.448173	-0.395608	0.479164
H320	H	-0.114840	-0.062274	0.812497
H321	H	0.218494	0.271059	1.145830
N322	N	-0.414238	-0.930741	0.898389
N323	N	-0.080904	-0.597408	1.231722
N324	N	0.252429	-0.264074	1.565056
N325	N	-0.391775	-0.884352	0.937340
N326	N	-0.058442	-0.551018	1.270673
N327	N	0.274892	-0.217685	1.604006
H328	H	-0.420469	-0.850857	0.962370
H329	H	-0.087135	-0.517524	1.295703
H330	H	0.246198	-0.184190	1.629036
N331	N	-0.419653	-0.516170	0.448738
N332	N	-0.086320	-0.182836	0.782071
N333	N	0.247014	0.150497	1.115404
N334	N	-0.460452	-0.558053	0.425715
N335	N	-0.127118	-0.224720	0.759048
N336	N	0.206215	0.108613	1.092381
H337	H	-0.491769	-0.583098	0.459110
H338	H	-0.158436	-0.249764	0.792443
H339	H	0.174898	0.083569	1.125777
N340	N	-0.292507	-0.481872	0.313120
N341	N	0.040827	-0.148538	0.646454
N342	N	0.374160	0.184795	0.979787
N343	N	-0.251702	-0.439992	0.336137
N344	N	0.081631	-0.106659	0.669471
N345	N	0.414965	0.226675	1.002804
H346	H	-0.220383	-0.414956	0.302738
H347	H	0.112951	-0.081622	0.636072
H348	H	0.446284	0.251711	0.969405
H349	H	-0.415919	-0.928782	1.110536
H350	H	-0.082586	-0.595449	1.443869
H351	H	0.250748	-0.262115	1.777203
N352	N	-0.293156	-1.072010	0.792797
N353	N	0.040177	-0.738676	1.126130
N354	N	0.373511	-0.405343	1.459464
N355	N	-0.257632	-1.113456	0.761828
N356	N	0.075701	-0.780123	1.095161
N357	N	0.409034	-0.446790	1.428494
H358	H	-0.230842	-1.144702	0.789622
H359	H	0.102492	-0.811369	1.122955
H360	H	0.435825	-0.478036	1.456289
H361	H	-0.411090	-0.934439	0.977716
H362	H	-0.077757	-0.601106	1.311049
H363	H	0.255576	-0.267772	1.644382
