data_functionalizedCrystal
_audit_creation_method	'MofGen! by Chris Wilmer'
_symmetry_space_group_name_H-M	'P1'
_symmetry_Int_Tables_number	1
_symmetry_cell_setting	triclinic
loop_
_symmetry_equiv_pos_as_xyz
  x,y,z
_cell_length_a	13.032831
_cell_length_b	12.645330
_cell_length_c	13.033429
_cell_angle_alpha	97.214352
_cell_angle_beta	90.908563
_cell_angle_gamma	82.822813
loop_
_atom_site_label
_atom_site_type_symbol
_atom_site_fract_x
_atom_site_fract_y
_atom_site_fract_z
Zn1	Zn	1.498552	-0.514679	0.780897
Zn2	Zn	1.998552	-0.014679	1.280897
Zn3	Zn	1.520277	-0.716948	0.608914
Zn4	Zn	2.020277	-0.216948	1.108914
Zn5	Zn	1.348392	-0.520332	0.587127
Zn6	Zn	1.848392	-0.020332	1.087127
Zn7	Zn	1.326540	-0.672525	0.759046
Zn8	Zn	1.826540	-0.172525	1.259046
O9	O	1.423440	-0.606121	0.683996
O10	O	1.923440	-0.106121	1.183996
O11	O	1.645356	-0.557736	0.776346
O12	O	2.145356	-0.057736	1.276346
O13	O	1.515714	-0.711824	0.462099
O14	O	2.015714	-0.211824	0.962099
O15	O	1.368364	-0.371238	0.612858
O16	O	1.868364	0.128762	1.112858
O17	O	1.661318	-0.706343	0.649990
O18	O	2.161318	-0.206343	1.149990
O19	O	1.478686	-0.367085	0.755220
O20	O	1.978686	0.132915	1.255220
O21	O	1.389430	-0.567370	0.446093
O22	O	1.889430	-0.067370	0.946093
O23	O	1.201571	-0.524295	0.591670
O24	O	1.701571	-0.024295	1.091670
O25	O	1.331120	-0.630630	0.905869
O26	O	1.831120	-0.130630	1.405869
O27	O	1.185516	-0.636111	0.717978
O28	O	1.685516	-0.136111	1.217978
O29	O	1.457496	-0.514661	0.921923
O30	O	1.957496	-0.014661	1.421923
O31	O	1.494525	-0.859400	0.628802
O32	O	1.994525	-0.359400	1.128802
O33	O	1.352186	-0.826762	0.739104
O34	O	1.852186	-0.326762	1.239104
C35	C	1.156226	-0.575996	0.650089
C36	C	1.656226	-0.075996	1.150089
C37	C	1.041907	-0.563131	0.635608
C38	C	1.541907	-0.063131	1.135608
C39	C	0.983037	-0.612836	0.691554
C40	C	1.483037	-0.112836	1.191554
C41	C	0.864882	-0.599540	0.676588
C42	C	1.364882	-0.099540	1.176588
C43	C	1.423367	-0.881544	0.683972
C44	C	1.923367	-0.381544	1.183972
C45	C	1.423425	-0.999377	0.684008
C46	C	1.923425	-0.499377	1.184008
C47	C	1.334177	-1.146454	0.753686
C48	C	1.834177	-0.646454	1.253686
C49	C	1.333805	-1.023887	0.753378
C50	C	1.833805	-0.523887	1.253378
C51	C	1.407847	-1.056418	0.571901
C52	C	1.907847	-0.556418	1.071901
C53	C	1.407303	-1.178892	0.572324
C54	C	1.907303	-0.678892	1.072324
C55	C	1.528848	-1.174703	0.725620
C56	C	2.028848	-0.674703	1.225620
C57	C	1.527879	-1.051676	0.727906
C58	C	2.027879	-0.551676	1.227906
C59	C	1.691698	-0.636364	0.718036
C60	C	2.191698	-0.136364	1.218036
C61	C	1.806013	-0.649252	0.732541
C62	C	2.306013	-0.149252	1.232541
C63	C	1.389447	-0.567059	0.952257
C64	C	1.889447	-0.067059	1.452257
C65	C	1.374961	-0.550414	1.066574
C66	C	1.874961	-0.050414	1.566574
C67	C	1.423539	-0.329622	0.684046
C68	C	1.923539	0.170378	1.184046
C69	C	1.423581	-0.211795	0.684067
C70	C	1.923581	0.288205	1.184067
C71	C	1.457360	-0.644961	0.416786
C72	C	1.957360	-0.144961	0.916786
C73	C	1.472045	-0.661331	0.302494
C74	C	1.972045	-0.161331	0.802494
C75	C	1.416021	-0.597277	1.243610
C76	C	1.916021	-0.097277	1.743610
C77	C	1.430993	-0.614476	1.125457
C78	C	1.930993	-0.114476	1.625457
H79	H	1.342127	-1.166197	0.836624
H80	H	1.842127	-0.666197	1.336624
H81	H	1.490049	-0.682048	1.088404
H82	H	1.990049	-0.182048	1.588404
H83	H	1.256333	-1.170963	0.725368
H84	H	1.756333	-0.670963	1.225368
H85	H	1.531097	-0.728898	1.265436
H86	H	2.031097	-0.228898	1.765436
H87	H	1.596895	-1.035852	0.681988
H88	H	2.096895	-0.535852	1.181988
C89	C	1.295165	-0.459143	1.116617
C90	C	1.795165	0.040857	1.616617
H91	H	1.295554	-0.459567	1.189462
H92	H	1.795554	0.040433	1.689462
H93	H	1.312426	-0.392140	1.100994
H94	H	1.812426	0.107860	1.600994
H95	H	1.228270	-0.469436	1.090278
H96	H	1.728270	0.030564	1.590278
C97	C	0.814821	-0.528746	0.596912
C98	C	1.314821	-0.028746	1.096912
H99	H	0.867078	-0.499279	0.563758
H100	H	1.367078	0.000721	1.063758
H101	H	0.778577	-0.571074	0.546761
H102	H	1.278577	-0.071074	1.046761
H103	H	0.767934	-0.472194	0.631072
H104	H	1.267934	0.027806	1.131072
H105	H	1.020108	-0.665230	0.750533
H106	H	1.520108	-0.165230	1.250533
C107	C	1.228012	-0.975722	0.714706
C108	C	1.728012	-0.475722	1.214706
H109	H	1.185098	-1.031077	0.699114
H110	H	1.685098	-0.531077	1.199114
H111	H	1.196272	-0.923169	0.766911
H112	H	1.696272	-0.423169	1.266911
H113	H	1.237400	-0.943222	0.654213
H114	H	1.737400	-0.443222	1.154213
C115	C	1.544103	-0.999993	0.839446
C116	C	2.044103	-0.499993	1.339446
H117	H	1.487465	-0.946760	0.859188
H118	H	1.987465	-0.446760	1.359188
H119	H	1.548550	-1.053593	0.884827
H120	H	2.048550	-0.553593	1.384827
H121	H	1.606301	-0.967716	0.843130
H122	H	2.106301	-0.467716	1.343130
H123	H	1.470341	-1.223695	0.517943
H124	H	1.970341	-0.723695	1.017943
C125	C	0.856071	-0.720042	0.812222
C126	C	1.356071	-0.220042	1.312222
H127	H	0.803812	-0.749495	0.845385
H128	H	1.303812	-0.249495	1.345385
H129	H	0.902964	-0.776589	0.778076
H130	H	1.402964	-0.276589	1.278076
H131	H	0.892307	-0.677701	0.862378
H132	H	1.392307	-0.177701	1.362378
H133	H	1.330761	-1.202040	0.538724
H134	H	1.830761	-0.702040	1.038724
H135	H	1.004835	-0.510728	0.576637
H136	H	1.504835	-0.010728	1.076637
C137	C	1.344811	-0.970154	0.865088
C138	C	1.844811	-0.470154	1.365088
H139	H	1.344601	-0.895003	0.865049
H140	H	1.844601	-0.395003	1.365049
H141	H	1.288628	-0.982877	0.905498
H142	H	1.788628	-0.482877	1.405498
H143	H	1.408008	-0.999427	0.893633
H144	H	1.908008	-0.499427	1.393633
C145	C	1.493837	-1.037514	0.499085
C146	C	1.993837	-0.537514	0.999085
H147	H	1.482925	-1.072695	0.431729
H148	H	1.982925	-0.572695	0.931729
H149	H	1.492522	-0.962647	0.496315
H150	H	1.992522	-0.462647	0.996315
H151	H	1.559120	-1.065557	0.524283
H152	H	2.059120	-0.565557	1.024283
C153	C	1.305633	-1.007806	0.526081
C154	C	1.805633	-0.507806	1.026081
H155	H	1.272330	-0.952768	0.575099
H156	H	1.772330	-0.452768	1.075099
H157	H	1.319632	-0.978367	0.464967
H158	H	1.819632	-0.478367	0.964967
H159	H	1.261865	-1.062299	0.509930
H160	H	1.761865	-0.562299	1.009930
H161	H	1.545748	-1.197270	0.806706
H162	H	2.045748	-0.697270	1.306706
C163	C	1.618589	-1.234148	0.657279
C164	C	2.118589	-0.734148	1.157279
H165	H	1.592092	-1.281362	0.603696
H166	H	2.092092	-0.781362	1.103696
H167	H	1.653127	-1.183390	0.627756
H168	H	2.153127	-0.683390	1.127756
H169	H	1.665896	-1.274360	0.698200
H170	H	2.165896	-0.774360	1.198200
C171	C	1.336251	-0.505992	1.293663
C172	C	1.836251	-0.005992	1.793663
H173	H	1.336649	-0.506412	1.366508
H174	H	1.836649	-0.006412	1.866508
H175	H	1.353535	-0.439000	1.278031
H176	H	1.853535	0.061000	1.778031
H177	H	1.269347	-0.516259	1.267336
H178	H	1.769347	-0.016259	1.767336
