data_functionalizedCrystal
_audit_creation_method	'MofGen! by Chris Wilmer'
_symmetry_space_group_name_H-M	'P1'
_symmetry_Int_Tables_number	1
_symmetry_cell_setting	triclinic
loop_
_symmetry_equiv_pos_as_xyz
  x,y,z
_cell_length_a	21.395362
_cell_length_b	16.959453
_cell_length_c	21.395355
_cell_angle_alpha	89.982675
_cell_angle_beta	89.956060
_cell_angle_gamma	90.035866
loop_
_atom_site_label
_atom_site_type_symbol
_atom_site_fract_x
_atom_site_fract_y
_atom_site_fract_z
Zn1	Zn	0.957906	-0.314438	-0.354591
Zn2	Zn	1.207906	-0.064438	-0.104591
Zn3	Zn	1.457906	0.185562	0.145409
Zn4	Zn	1.707906	0.435562	0.395409
Zn5	Zn	0.957828	-0.446599	-0.249816
Zn6	Zn	1.207828	-0.196599	0.000184
Zn7	Zn	1.457828	0.053401	0.250184
Zn8	Zn	1.707828	0.303401	0.500184
Zn9	Zn	0.853121	-0.314475	-0.249792
Zn10	Zn	1.103121	-0.064475	0.000208
Zn11	Zn	1.353121	0.185525	0.250208
Zn12	Zn	1.603121	0.435525	0.500208
Zn13	Zn	0.853110	-0.446615	-0.354520
Zn14	Zn	1.103110	-0.196615	-0.104520
Zn15	Zn	1.353110	0.053385	0.145480
Zn16	Zn	1.603110	0.303385	0.395480
O17	O	0.905491	-0.380532	-0.302180
O18	O	1.155491	-0.130532	-0.052180
O19	O	1.405491	0.119468	0.197820
O20	O	1.655491	0.369468	0.447820
O21	O	1.045574	-0.331947	-0.340731
O22	O	1.295574	-0.081947	-0.090731
O23	O	1.545574	0.168053	0.159269
O24	O	1.795574	0.418053	0.409269
O25	O	0.943911	-0.429081	-0.162134
O26	O	1.193911	-0.179081	0.087866
O27	O	1.443911	0.070919	0.337866
O28	O	1.693911	0.320919	0.587866
O29	O	0.867058	-0.203859	-0.263714
O30	O	1.117058	0.046141	-0.013714
O31	O	1.367058	0.296141	0.236286
O32	O	1.617058	0.546141	0.486286
O33	O	1.045516	-0.429045	-0.263754
O34	O	1.295516	-0.179045	-0.013754
O35	O	1.545516	0.070955	0.236246
O36	O	1.795516	0.320955	0.486246
O37	O	0.944043	-0.203832	-0.340709
O38	O	1.194043	0.046168	-0.090709
O39	O	1.444043	0.296168	0.159291
O40	O	1.694043	0.546168	0.409291
O41	O	0.866983	-0.332010	-0.162117
O42	O	1.116983	-0.082010	0.087883
O43	O	1.366983	0.167990	0.337883
O44	O	1.616983	0.417990	0.587883
O45	O	0.765442	-0.332026	-0.263645
O46	O	1.015442	-0.082026	-0.013645
O47	O	1.265442	0.167974	0.236355
O48	O	1.515442	0.417974	0.486355
O49	O	0.867039	-0.429073	-0.442208
O50	O	1.117039	-0.179073	-0.192208
O51	O	1.367039	0.070927	0.057792
O52	O	1.617039	0.320927	0.307792
O53	O	0.765433	-0.429109	-0.340588
O54	O	1.015433	-0.179109	-0.090588
O55	O	1.265433	0.070891	0.159412
O56	O	1.515433	0.320891	0.409412
O57	O	0.944033	-0.331963	-0.442259
O58	O	1.194033	-0.081963	-0.192259
O59	O	1.444033	0.168037	0.057741
O60	O	1.694033	0.418037	0.307741
O61	O	0.943900	-0.557212	-0.263685
O62	O	1.193900	-0.307212	-0.013685
O63	O	1.443900	-0.057212	0.236315
O64	O	1.693900	0.192788	0.486315
O65	O	0.866964	-0.557224	-0.340611
O66	O	1.116964	-0.307224	-0.090611
O67	O	1.366964	-0.057224	0.159389
O68	O	1.616964	0.192776	0.409389
C69	C	0.742704	-0.380574	-0.302107
C70	C	0.992704	-0.130574	-0.052107
C71	C	1.242704	0.119426	0.197893
C72	C	1.492704	0.369426	0.447893
C73	C	0.673062	-0.380610	-0.302091
C74	C	0.923062	-0.130610	-0.052091
C75	C	1.173062	0.119390	0.197909
C76	C	1.423062	0.369390	0.447909
C77	C	0.905439	-0.585898	-0.302157
C78	C	1.155439	-0.335898	-0.052157
C79	C	1.405439	-0.085898	0.197843
C80	C	1.655439	0.164102	0.447843
C81	C	0.905474	-0.673755	-0.302168
C82	C	1.155474	-0.423755	-0.052168
C83	C	1.405474	-0.173755	0.197832
C84	C	1.655474	0.076245	0.447832
C85	C	0.640361	-0.431228	-0.342095
C86	C	0.890361	-0.181228	-0.092095
C87	C	1.140361	0.068772	0.157905
C88	C	1.390361	0.318772	0.407905
C89	C	0.574926	-0.431209	-0.342123
C90	C	0.824926	-0.181209	-0.092123
C91	C	1.074926	0.068791	0.157877
C92	C	1.324926	0.318791	0.407877
C93	C	0.542194	-0.380580	-0.302135
C94	C	0.792194	-0.130580	-0.052135
C95	C	1.042194	0.119420	0.197865
C96	C	1.292194	0.369420	0.447865
C97	C	0.574903	-0.329952	-0.262128
C98	C	0.824903	-0.079952	-0.012128
C99	C	1.074903	0.170048	0.237872
C100	C	1.324903	0.420048	0.487872
C101	C	0.640337	-0.329967	-0.262106
C102	C	0.890337	-0.079967	-0.012106
C103	C	1.140337	0.170033	0.237894
C104	C	1.390337	0.420033	0.487894
C105	C	0.438468	-0.374212	-0.245730
C106	C	0.688468	-0.124212	0.004270
C107	C	0.938468	0.125788	0.254270
C108	C	1.188468	0.375788	0.504270
C109	C	0.373035	-0.374203	-0.245751
C110	C	0.623035	-0.124203	0.004249
C111	C	0.873035	0.125797	0.254249
C112	C	1.123035	0.375797	0.504249
C113	C	0.340373	-0.380528	-0.302205
C114	C	0.590373	-0.130528	-0.052205
C115	C	0.840373	0.119472	0.197795
C116	C	1.090373	0.369472	0.447795
C117	C	0.373152	-0.386881	-0.358638
C118	C	0.623152	-0.136881	-0.108638
C119	C	0.873152	0.113119	0.141362
C120	C	1.123152	0.363119	0.391362
C121	C	0.438586	-0.386896	-0.358616
C122	C	0.688586	-0.136896	-0.108616
C123	C	0.938586	0.113104	0.141384
C124	C	1.188586	0.363104	0.391384
C125	C	0.471242	-0.380558	-0.302155
C126	C	0.721242	-0.130558	-0.052155
C127	C	0.971242	0.119442	0.197845
C128	C	1.221242	0.369442	0.447845
C129	C	0.236720	-0.431128	-0.342243
C130	C	0.486720	-0.181128	-0.092243
C131	C	0.736720	0.068872	0.157757
C132	C	0.986720	0.318872	0.407757
C133	C	0.171283	-0.431103	-0.342272
C134	C	0.421283	-0.181103	-0.092272
C135	C	0.671283	0.068897	0.157728
C136	C	0.921283	0.318897	0.407728
C137	C	0.171262	-0.329850	-0.262271
C138	C	0.421262	-0.079850	-0.012271
C139	C	0.671262	0.170150	0.237729
C140	C	0.921262	0.420150	0.487729
C141	C	0.236697	-0.329871	-0.262248
C142	C	0.486697	-0.079871	-0.012248
C143	C	0.736697	0.170129	0.237752
C144	C	0.986697	0.420129	0.487752
C145	C	0.269422	-0.380514	-0.302233
C146	C	0.519422	-0.130514	-0.052233
C147	C	0.769422	0.119486	0.197767
C148	C	1.019422	0.369486	0.447767
C149	C	0.945629	-1.045158	-0.342347
C150	C	1.195629	-0.795158	-0.092347
C151	C	1.445629	-0.545158	0.157653
C152	C	1.695629	-0.295158	0.407653
C153	C	0.865529	-1.045303	-0.262106
C154	C	1.115529	-0.795303	-0.012106
C155	C	1.365529	-0.545303	0.237894
C156	C	1.615529	-0.295303	0.487894
C157	C	0.865506	-0.962757	-0.262091
C158	C	1.115506	-0.712757	-0.012091
C159	C	1.365506	-0.462757	0.237909
C160	C	1.615506	-0.212757	0.487909
C161	C	0.905544	-0.921408	-0.302206
C162	C	1.155544	-0.671408	-0.052206
C163	C	1.405544	-0.421408	0.197794
C164	C	1.655544	-0.171408	0.447794
C165	C	0.945605	-0.962604	-0.342335
C166	C	1.195605	-0.712604	-0.092335
C167	C	1.445605	-0.462604	0.157665
C168	C	1.695605	-0.212604	0.407665
C169	C	0.825440	-0.921554	-0.221968
C170	C	1.075440	-0.671554	0.028032
C171	C	1.325440	-0.421554	0.278032
C172	C	1.575440	-0.171554	0.528032
C173	C	0.825415	-0.839003	-0.221952
C174	C	1.075415	-0.589003	0.028048
C175	C	1.325415	-0.339003	0.278048
C176	C	1.575415	-0.089003	0.528048
C177	C	0.865457	-0.797652	-0.262064
C178	C	1.115457	-0.547652	-0.012064
C179	C	1.365457	-0.297652	0.237936
C180	C	1.615457	-0.047652	0.487936
C181	C	0.905521	-0.838854	-0.302194
C182	C	1.155521	-0.588854	-0.052194
C183	C	1.405521	-0.338854	0.197806
C184	C	1.655521	-0.088854	0.447806
C185	C	0.945559	-0.797505	-0.342309
C186	C	1.195559	-0.547505	-0.092309
C187	C	1.445559	-0.297505	0.157691
C188	C	1.695559	-0.047505	0.407691
C189	C	0.985626	-0.838705	-0.382436
C190	C	1.235626	-0.588705	-0.132436
C191	C	1.485626	-0.338705	0.117564
C192	C	1.735626	-0.088705	0.367564
C193	C	0.985647	-0.921253	-0.382447
C194	C	1.235647	-0.671253	-0.132447
C195	C	1.485647	-0.421253	0.117553
C196	C	1.735647	-0.171253	0.367553
C197	C	0.865436	-0.715104	-0.262053
C198	C	1.115436	-0.465104	-0.012053
C199	C	1.365436	-0.215104	0.237947
C200	C	1.615436	0.034896	0.487947
C201	C	0.945536	-0.714951	-0.342297
C202	C	1.195536	-0.464951	-0.092297
C203	C	1.445536	-0.214951	0.157703
C204	C	1.695536	0.035049	0.407703
C205	C	1.068915	-0.380490	-0.302253
C206	C	1.318915	-0.130490	-0.052253
C207	C	1.568915	0.119510	0.197747
C208	C	1.818915	0.369510	0.447747
C209	C	1.138556	-0.380473	-0.302284
C210	C	1.388556	-0.130473	-0.052284
C211	C	1.638556	0.119527	0.197716
C212	C	1.888556	0.369527	0.447716
C213	C	0.905543	-0.380516	-0.465603
C214	C	1.155543	-0.130516	-0.215603
C215	C	1.405543	0.119484	0.034397
C216	C	1.655543	0.369484	0.284397
C217	C	0.905566	-0.380509	-0.535244
C218	C	1.155566	-0.130509	-0.285244
C219	C	1.405566	0.119491	-0.035244
C220	C	1.655566	0.369491	0.214756
C221	C	0.905561	-0.174363	-0.302216
C222	C	1.155561	0.075637	-0.052216
C223	C	1.405561	0.325637	0.197784
C224	C	1.655561	0.575637	0.447784
C225	C	0.905590	-0.086507	-0.302232
C226	C	1.155590	0.163493	-0.052232
C227	C	1.405590	0.413493	0.197768
C228	C	1.655590	0.663493	0.447768
C229	C	0.945654	-0.329942	-0.567985
C230	C	1.195654	-0.079942	-0.317985
C231	C	1.445654	0.170058	-0.067985
C232	C	1.695654	0.420058	0.182015
C233	C	0.945653	-0.329908	-0.633421
C234	C	1.195653	-0.079908	-0.383421
C235	C	1.445653	0.170092	-0.133421
C236	C	1.695653	0.420092	0.116579
C237	C	0.905570	-0.380455	-0.666113
C238	C	1.155570	-0.130455	-0.416113
C239	C	1.405570	0.119545	-0.166113
C240	C	1.655570	0.369545	0.083887
C241	C	0.865474	-0.431026	-0.633364
C242	C	1.115474	-0.181026	-0.383364
C243	C	1.365474	0.068974	-0.133364
C244	C	1.615474	0.318974	0.116636
C245	C	0.865471	-0.431053	-0.567929
C246	C	1.115471	-0.181053	-0.317929
C247	C	1.365471	0.068947	-0.067929
C248	C	1.615471	0.318947	0.182071
C249	C	0.900605	-0.451628	-0.769778
C250	C	1.150605	-0.201628	-0.519778
C251	C	1.400605	0.048372	-0.269778
C252	C	1.650605	0.298372	-0.019778
C253	C	0.900612	-0.451602	-0.835211
C254	C	1.150612	-0.201602	-0.585211
C255	C	1.400612	0.048398	-0.335211
C256	C	1.650612	0.298398	-0.085211
C257	C	0.905574	-0.380372	-0.867934
C258	C	1.155574	-0.130372	-0.617934
C259	C	1.405574	0.119628	-0.367934
C260	C	1.655574	0.369628	-0.117934
C261	C	0.910543	-0.309164	-0.835215
C262	C	1.160543	-0.059164	-0.585215
C263	C	1.410543	0.190836	-0.335215
C264	C	1.660543	0.440836	-0.085215
C265	C	0.910541	-0.309191	-0.769781
C266	C	1.160541	-0.059191	-0.519781
C267	C	1.410541	0.190809	-0.269781
C268	C	1.660541	0.440809	-0.019781
C269	C	0.905568	-0.380431	-0.737065
C270	C	1.155568	-0.130431	-0.487065
C271	C	1.405568	0.119569	-0.237065
C272	C	1.655568	0.369569	0.012935
C273	C	0.945664	-0.329763	-0.971627
C274	C	1.195664	-0.079763	-0.721627
C275	C	1.445664	0.170237	-0.471627
C276	C	1.695664	0.420237	-0.221627
C277	C	0.945659	-0.329728	-1.037064
C278	C	1.195659	-0.079728	-0.787064
C279	C	1.445659	0.170272	-0.537064
C280	C	1.695659	0.420272	-0.287064
C281	C	0.865483	-0.430853	-1.037005
C282	C	1.115483	-0.180853	-0.787005
C283	C	1.365483	0.069147	-0.537005
C284	C	1.615483	0.319147	-0.287005
C285	C	0.865485	-0.430881	-0.971570
C286	C	1.115485	-0.180881	-0.721570
C287	C	1.365485	0.069119	-0.471570
C288	C	1.615485	0.319119	-0.221570
C289	C	0.905579	-0.380337	-0.938885
C290	C	1.155579	-0.130337	-0.688885
C291	C	1.405579	0.119663	-0.438885
C292	C	1.655579	0.369663	-0.188885
C293	C	0.905476	-0.380491	-0.139392
C294	C	1.155476	-0.130491	0.110608
C295	C	1.405476	0.119509	0.360608
C296	C	1.655476	0.369509	0.610608
C297	C	0.905575	-0.380275	-0.069751
C298	C	1.155575	-0.130275	0.180249
C299	C	1.405575	0.119725	0.430249
C300	C	1.655575	0.369725	0.680249
H301	H	0.667002	-0.472465	-0.374655
H302	H	0.917002	-0.222465	-0.124655
H303	H	1.167002	0.027535	0.125345
H304	H	1.417002	0.277535	0.375345
H305	H	1.018268	-0.954806	-0.415117
H306	H	1.268268	-0.704806	-0.165117
H307	H	1.518268	-0.454806	0.084883
H308	H	1.768268	-0.204806	0.334883
H309	H	0.465272	-0.392066	-0.404566
H310	H	0.715272	-0.142066	-0.154566
H311	H	0.965272	0.107934	0.095434
H312	H	1.215272	0.357934	0.345434
Br313	Br	0.771091	-0.977673	-0.167545
Br314	Br	1.021091	-0.727673	0.082455
Br315	Br	1.271091	-0.477673	0.332455
Br316	Br	1.521091	-0.227673	0.582455
Br317	Br	0.530536	-0.499908	-0.396420
Br318	Br	0.780536	-0.249908	-0.146420
Br319	Br	1.030536	0.000092	0.103580
Br320	Br	1.280536	0.250092	0.353580
H321	H	0.263366	-0.472361	-0.374804
H322	H	0.513366	-0.222361	-0.124804
H323	H	0.763366	0.027639	0.125196
H324	H	1.013366	0.277639	0.375196
H325	H	0.346560	-0.392030	-0.404608
H326	H	0.596560	-0.142030	-0.154608
H327	H	0.846560	0.107970	0.095392
H328	H	1.096560	0.357970	0.345392
Br329	Br	1.000007	-1.101068	-0.396799
Br330	Br	1.250007	-0.851068	-0.146799
Br331	Br	1.500007	-0.601068	0.103201
Br332	Br	1.750007	-0.351068	0.353201
Br333	Br	0.126902	-0.499799	-0.396574
Br334	Br	0.376902	-0.249799	-0.146574
Br335	Br	0.626902	0.000201	0.103426
Br336	Br	0.876902	0.250201	0.353426
Br337	Br	0.811061	-0.659192	-0.207602
Br338	Br	1.061061	-0.409192	0.042398
Br339	Br	1.311061	-0.159192	0.292398
Br340	Br	1.561061	0.090808	0.542398
H341	H	0.896396	-0.509618	-0.743140
H342	H	1.146396	-0.259618	-0.493140
H343	H	1.396396	-0.009618	-0.243140
H344	H	1.646396	0.240382	0.006860
Br345	Br	0.126847	-0.261131	-0.208007
Br346	Br	0.376847	-0.011131	0.041993
Br347	Br	0.626847	0.238869	0.291993
Br348	Br	0.876847	0.488869	0.541993
H349	H	0.896570	-0.509584	-0.861845
H350	H	1.146570	-0.259584	-0.611845
H351	H	1.396570	-0.009584	-0.361845
H352	H	1.646570	0.240416	-0.111845
Br353	Br	1.039954	-0.782578	-0.436883
Br354	Br	1.289954	-0.532578	-0.186883
Br355	Br	1.539954	-0.282578	0.063117
Br356	Br	1.789954	-0.032578	0.313117
H357	H	0.832929	-1.078974	-0.229449
H358	H	1.082929	-0.828974	0.020551
H359	H	1.332929	-0.578974	0.270551
H360	H	1.582929	-0.328974	0.520551
H361	H	0.832840	-0.472002	-1.063622
H362	H	1.082840	-0.222002	-0.813622
H363	H	1.332840	0.027998	-0.563622
H364	H	1.582840	0.277998	-0.313622
Br365	Br	0.999882	-0.658840	-0.396736
Br366	Br	1.249882	-0.408840	-0.146736
Br367	Br	1.499882	-0.158840	0.103264
Br368	Br	1.749882	0.091160	0.353264
H369	H	0.832836	-0.472179	-0.659986
H370	H	1.082836	-0.222179	-0.409986
H371	H	1.332836	0.027821	-0.159986
H372	H	1.582836	0.277821	0.090014
Br373	Br	0.771037	-0.783096	-0.167498
Br374	Br	1.021037	-0.533096	0.082502
Br375	Br	1.271037	-0.283096	0.332502
Br376	Br	1.521037	-0.033096	0.582502
H377	H	0.548249	-0.288728	-0.229571
H378	H	0.798249	-0.038728	0.020429
H379	H	1.048249	0.211272	0.270429
H380	H	1.298249	0.461272	0.520429
H381	H	0.978301	-0.288784	-0.541377
H382	H	1.228301	-0.038784	-0.291377
H383	H	1.478301	0.211216	-0.041377
H384	H	1.728301	0.461216	0.208623
H385	H	0.978297	-0.288725	-0.660084
H386	H	1.228297	-0.038725	-0.410084
H387	H	1.478297	0.211275	-0.160084
H388	H	1.728297	0.461275	0.089916
H389	H	0.914585	-0.251161	-0.861857
H390	H	1.164585	-0.001161	-0.611857
H391	H	1.414585	0.248839	-0.361857
H392	H	1.664585	0.498839	-0.111857
Br393	Br	0.917280	-0.212558	-0.725379
Br394	Br	1.167280	0.037442	-0.475379
Br395	Br	1.417280	0.287442	-0.225379
Br396	Br	1.667280	0.537442	0.024621
H397	H	0.978308	-0.288603	-0.945014
H398	H	1.228308	-0.038603	-0.695014
H399	H	1.478308	0.211397	-0.445014
H400	H	1.728308	0.461397	-0.195014
H401	H	0.978303	-0.288545	-1.063721
H402	H	1.228303	-0.038545	-0.813721
H403	H	1.478303	0.211455	-0.563721
H404	H	1.728303	0.461455	-0.313721
H405	H	0.832823	-0.472230	-0.541272
H406	H	1.082823	-0.222230	-0.291272
H407	H	1.332823	0.027770	-0.041272
H408	H	1.582823	0.277770	0.208728
Br409	Br	0.281080	-0.261172	-0.207953
Br410	Br	0.531080	-0.011172	0.042047
Br411	Br	0.781080	0.238828	0.292047
Br412	Br	1.031080	0.488828	0.542047
Br413	Br	0.328556	-0.365584	-0.169164
Br414	Br	0.578556	-0.115584	0.080836
Br415	Br	0.828556	0.134416	0.330836
Br416	Br	1.078556	0.384416	0.580836
H417	H	0.465056	-0.369058	-0.199756
H418	H	0.715056	-0.119058	0.050244
H419	H	0.965056	0.130942	0.300244
H420	H	1.215056	0.380942	0.550244
Br421	Br	0.684720	-0.261264	-0.207811
Br422	Br	0.934720	-0.011264	0.042189
Br423	Br	1.184720	0.238736	0.292189
Br424	Br	1.434720	0.488736	0.542189
H425	H	0.832844	-0.472063	-0.944912
H426	H	1.082844	-0.222063	-0.694912
H427	H	1.332844	0.027937	-0.444912
H428	H	1.582844	0.277937	-0.194912
