data_functionalizedCrystal
_audit_creation_method	'MofGen! by Chris Wilmer'
_symmetry_space_group_name_H-M	'P1'
_symmetry_Int_Tables_number	1
_symmetry_cell_setting	triclinic
loop_
_symmetry_equiv_pos_as_xyz
  x,y,z
_cell_length_a	27.435584
_cell_length_b	27.434948
_cell_length_c	27.431174
_cell_angle_alpha	60.005483
_cell_angle_beta	60.011353
_cell_angle_gamma	59.993028
loop_
_atom_site_label
_atom_site_type_symbol
_atom_site_fract_x
_atom_site_fract_y
_atom_site_fract_z
O1	O	0.067437	-0.712144	0.595551
O2	O	0.025356	-0.554453	0.479848
O3	O	0.125206	-0.654236	0.479781
O4	O	-0.032412	-0.612361	0.595618
O5	O	0.158328	-0.621117	0.512835
O6	O	0.058479	-0.521333	0.512902
O7	O	0.100560	-0.679025	0.628605
Zn8	Zn	0.084778	-0.594921	0.576001
Zn9	Zn	0.041138	-0.638557	0.532452
O10	O	0.000710	-0.579241	0.628672
N11	N	0.114563	-0.565144	0.605726
N12	N	0.011358	-0.668338	0.502727
C13	C	0.156385	-0.523520	0.904506
C14	C	0.413419	-0.523497	0.647322
C15	C	0.156253	-0.523488	0.647384
C16	C	0.156238	-0.266354	0.647407
C17	C	0.197637	-0.390463	0.688753
C18	C	0.197646	-0.482126	0.688741
C19	C	0.220575	-0.459215	0.711654
C20	C	0.320555	-0.441991	0.659023
C21	C	0.383051	-0.462825	0.638179
C22	C	0.383069	-0.563942	0.676737
C23	C	0.320575	-0.543107	0.697583
C24	C	0.212704	-0.359206	0.627313
C25	C	0.191849	-0.296705	0.606496
C26	C	0.140866	-0.296722	0.708562
C27	C	0.161721	-0.359223	0.729379
C28	C	0.136200	-0.467030	0.703858
C29	C	0.115361	-0.487857	0.683021
C30	C	0.217408	-0.538877	0.631968
C31	C	0.238249	-0.518050	0.652796
C32	C	0.136259	-0.467047	0.811668
C33	C	0.115461	-0.487892	0.874167
C34	C	0.217537	-0.538923	0.874131
C35	C	0.238333	-0.518080	0.811631
C36	C	0.197693	-0.482140	0.780401
C37	C	0.289320	-0.482131	0.688723
C38	C	0.132699	-0.546027	0.973247
C39	C	0.482158	-0.545613	0.624075
C40	C	0.132521	-0.546006	0.624886
C41	C	0.132917	-0.197607	0.625310
C42	C	-0.098217	-0.686189	0.484419
C43	C	-0.006438	-0.686322	0.392891
C44	C	-0.006621	-0.777944	0.484592
C45	C	-0.006606	-0.686315	0.484649
C46	C	-0.029470	-0.709193	0.461638
N47	N	0.538410	-0.565162	0.605628
O48	O	0.742647	-0.575135	0.458625
O49	O	0.742821	-0.691181	0.616169
O50	O	0.742757	-0.690917	0.516248
O51	O	0.742711	-0.575399	0.558546
O52	O	0.643472	-0.657878	0.549405
O53	O	0.643536	-0.658142	0.649326
O54	O	0.643362	-0.542096	0.491782
Zn55	Zn	0.627685	-0.594873	0.575818
Zn56	Zn	0.758498	-0.638404	0.532133
O57	O	0.643426	-0.542360	0.591702
N58	N	0.847774	-0.668115	0.502317
N59	N	0.114542	-0.141354	0.605766
O60	O	-0.032397	0.062987	0.595660
O61	O	0.125155	0.062987	0.479633
O62	O	0.025219	0.062974	0.479910
O63	O	0.067539	0.063001	0.595383
O64	O	0.058343	-0.036320	0.513009
O65	O	0.158279	-0.036306	0.512732
O66	O	0.000728	-0.036306	0.628759
Zn67	Zn	0.084763	-0.052071	0.576000
Zn68	Zn	0.041120	0.078752	0.532392
O69	O	0.100664	-0.036292	0.628482
N70	N	0.011333	0.168036	0.502628
N71	N	0.114782	-0.565197	1.029501
O72	O	0.104681	-0.712124	1.233827
O73	O	-0.011334	-0.554523	1.233839
O74	O	-0.011066	-0.654443	1.233797
O75	O	0.104414	-0.612204	1.233869
O76	O	0.022028	-0.621336	1.134509
O77	O	0.021760	-0.521417	1.134551
O78	O	0.137775	-0.679018	1.134539
Zn79	Zn	0.085022	-0.594961	1.118780
Zn80	Zn	0.041420	-0.638580	1.249597
O81	O	0.137508	-0.579098	1.134580
N82	N	0.011658	-0.668350	1.338876
C83	C	0.037974	-0.518023	0.480435
C84	C	0.161625	-0.641592	0.480351
C85	C	0.087941	-0.715455	0.628017
C86	C	-0.035710	-0.591885	0.628101
C87	C	0.693199	-0.690642	0.652596
C88	C	0.693122	-0.690315	0.528855
C89	C	0.692981	-0.542634	0.455356
C90	C	0.693062	-0.542961	0.579095
C91	C	0.161524	0.013463	0.480164
C92	C	0.037807	0.013324	0.480547
C93	C	-0.035683	0.013341	0.628188
C94	C	0.088076	0.013357	0.627845
C95	C	-0.010764	-0.518114	1.184196
C96	C	-0.010426	-0.641846	1.184125
C97	C	0.137205	-0.715426	1.184182
C98	C	0.136875	-0.591687	1.184231
H99	H	0.065433	-0.475593	0.899616
N100	N	0.185455	-0.775382	1.184185
H101	H	0.196996	-0.794391	1.221002
H102	H	0.221505	-0.769807	1.147365
N103	N	-0.095673	-0.580070	0.676291
H104	H	-0.114715	-0.609393	0.687866
H105	H	-0.122276	-0.538048	0.660882
N106	N	0.693139	-0.738385	0.516870
H107	H	0.693185	-0.775347	0.553535
H108	H	0.729929	-0.748207	0.482214
N109	N	-0.059015	-0.458161	1.184200
H110	H	-0.070561	-0.439147	1.147385
H111	H	-0.043678	-0.431523	1.184240
N112	N	0.693043	-0.494891	0.591081
H113	H	0.692999	-0.457930	0.554416
H114	H	0.729868	-0.509571	0.601152
N115	N	0.099845	-0.775455	0.676154
H116	H	0.109902	-0.807735	0.661566
H117	H	0.063133	-0.775595	0.713059
H118	H	0.206679	0.013739	0.443646
N119	N	0.184931	-0.579718	1.184250
H120	H	0.221039	-0.584451	1.147446
H121	H	0.196459	-0.609000	1.221083
N122	N	0.693260	-0.738906	0.712527
H123	H	0.656465	-0.724393	0.744854
H124	H	0.730100	-0.748874	0.720223
N125	N	0.100081	0.013365	0.675894
H126	H	0.095370	-0.023441	0.712007
H127	H	0.070806	0.050200	0.687419
N128	N	0.692907	-0.494368	0.395428
H129	H	0.692899	-0.509675	0.368737
H130	H	0.729694	-0.482811	0.376455
H131	H	-0.046689	-0.650868	1.184063
H132	H	0.103160	-0.437777	0.786243
H133	H	0.028745	0.013321	0.444270
H134	H	0.250633	-0.568176	0.899553
H135	H	0.206895	-0.650521	0.443974
H136	H	0.288361	-0.530376	0.786177
H137	H	0.103135	-0.437780	0.733124
N138	N	-0.095613	0.013336	0.676446
H139	H	-0.127937	0.050139	0.661921
H140	H	-0.095625	0.013318	0.713278
N141	N	0.049088	-0.471580	0.699322
H142	H	0.030429	-0.486865	0.744155
H143	H	0.042101	-0.490228	0.680631
N144	N	0.261203	-0.577630	0.593208
H145	H	0.303288	-0.583787	0.586554
H146	H	0.254567	-0.557465	0.553513
N147	N	0.304520	-0.534314	0.636497
H148	H	0.323180	-0.519030	0.591664
H149	H	0.323181	-0.579150	0.651792
H150	H	0.295144	-0.575796	0.721768
H151	H	0.408481	-0.430137	0.613993
N152	N	0.416786	-0.629708	0.686281
H153	H	0.387515	-0.651977	0.708259
H154	H	0.442734	-0.645268	0.710599
H155	H	0.241946	-0.384640	0.594232
N156	N	0.286845	-0.376224	0.649465
H157	H	0.316119	-0.353959	0.627485
H158	H	0.260931	-0.370086	0.689400
H159	H	0.204115	-0.271255	0.556464
N160	N	0.102134	-0.263023	0.752376
H161	H	0.095760	-0.292308	0.794459
H162	H	0.062313	-0.237096	0.745973
H163	H	0.149444	-0.384673	0.779411
N164	N	0.026072	-0.458019	0.432302
H165	H	-0.008543	-0.450292	0.422384
H166	H	0.062798	-0.457862	0.395412
