data_functionalizedCrystal
_audit_creation_method	'MofGen! by Chris Wilmer'
_symmetry_space_group_name_H-M	'P1'
_symmetry_Int_Tables_number	1
_symmetry_cell_setting	triclinic
loop_
_symmetry_equiv_pos_as_xyz
  x,y,z
_cell_length_a	10.967926
_cell_length_b	10.489741
_cell_length_c	8.965430
_cell_angle_alpha	90.001511
_cell_angle_beta	102.125132
_cell_angle_gamma	84.626927
loop_
_atom_site_label
_atom_site_type_symbol
_atom_site_fract_x
_atom_site_fract_y
_atom_site_fract_z
O1	O	1.657262	0.178920	0.301958
O2	O	1.294128	0.196040	0.208612
O3	O	1.483958	0.001877	0.257418
O4	O	1.467432	0.373083	0.253152
O5	O	1.483941	0.001893	0.505493
O6	O	1.294111	0.196056	0.456687
O7	O	1.657245	0.178936	0.550033
Cu8	Cu	1.475676	0.187498	0.526011
Cu9	Cu	1.475697	0.187479	0.232634
O10	O	1.467415	0.373099	0.501227
C11	C	1.247620	0.194801	0.320697
C12	C	1.109067	0.191071	0.285081
C13	C	1.047286	0.189416	0.397712
C14	C	0.904084	0.185560	0.360904
C15	C	1.482701	-0.045646	0.381134
C16	C	1.478967	-0.187273	0.380171
C17	C	1.358184	-0.255337	0.349112
C18	C	1.415232	-0.347488	0.486092
C19	C	1.415278	-0.347478	0.241518
C20	C	1.536065	-0.277558	0.517265
C21	C	1.536094	-0.277539	0.272576
C22	C	1.593230	-0.369661	0.409609
C23	C	1.703753	0.180175	0.437945
C24	C	1.842306	0.183906	0.473551
C25	C	1.468672	0.420622	0.377508
C26	C	1.472406	0.562249	0.378461
N27	N	1.475671	0.187510	0.732358
N28	N	1.475712	0.187456	0.026289
C29	C	1.388611	0.278004	0.906685
C30	C	1.362339	0.162877	0.800473
C31	C	1.501887	0.302628	0.836348
C32	C	1.449383	0.072270	0.922251
C33	C	1.588982	0.212098	0.958148
C34	C	1.562756	0.096887	0.851993
H35	H	1.364119	-0.378461	0.576362
N36	N	1.603743	-0.236467	0.152982
H37	H	1.545671	-0.174834	0.077845
H38	H	1.679651	-0.193017	0.203770
N39	N	1.226642	-0.189487	0.315450
H40	H	1.214001	-0.133576	0.403705
H41	H	1.213440	-0.134881	0.219582
N42	N	1.715842	0.239731	1.048678
H43	H	1.781839	0.172277	1.027892
H44	H	1.735440	0.326808	1.017614
H45	H	1.427115	-0.025128	0.960007
N46	N	1.660306	-0.004608	0.819561
H47	H	1.745659	0.013208	0.879270
H48	H	1.640248	-0.091456	0.850769
N49	N	1.347564	-0.388486	0.087143
H50	H	1.318638	-0.310655	0.018029
H51	H	1.406158	-0.448825	0.041023
H52	H	1.100411	0.190846	0.521389
H53	H	1.314919	0.354467	0.931411
H54	H	1.587119	-0.246751	0.633913
H55	H	1.266533	0.142054	0.732166
N56	N	0.833738	0.183643	0.197065
H57	H	0.741411	0.181156	0.193993
H58	H	0.847024	0.263187	0.141384
N59	N	0.912653	0.185797	0.637392
H60	H	1.004980	0.188280	0.640467
H61	H	0.880553	0.264128	0.688227
N62	N	1.038716	0.189153	0.121250
H63	H	0.946389	0.186666	0.118178
H64	H	1.052003	0.268697	0.065569
N65	N	1.531242	0.431606	0.786044
H66	H	1.465403	0.499911	0.805299
H67	H	1.616200	0.450789	0.845609
H68	H	1.692626	-0.419148	0.435228
