data_functionalizedCrystal
_audit_creation_method	'MofGen! by Chris Wilmer'
_symmetry_space_group_name_H-M	'P1'
_symmetry_Int_Tables_number	1
_symmetry_cell_setting	triclinic
loop_
_symmetry_equiv_pos_as_xyz
  x,y,z
_cell_length_a	15.944551
_cell_length_b	12.996460
_cell_length_c	14.519709
_cell_angle_alpha	89.992910
_cell_angle_beta	83.589442
_cell_angle_gamma	89.998907
loop_
_atom_site_label
_atom_site_type_symbol
_atom_site_fract_x
_atom_site_fract_y
_atom_site_fract_z
O1	O	1.114698	-0.085462	0.118943
O2	O	1.614698	0.414538	0.618943
O3	O	0.870170	-0.085488	0.133608
O4	O	1.370170	0.414512	0.633608
O5	O	0.998917	-0.085465	-0.007974
O6	O	1.498917	0.414535	0.492026
O7	O	0.985950	-0.085485	0.260525
O8	O	1.485950	0.414515	0.760525
O9	O	0.998904	0.085669	-0.007982
O10	O	1.498904	0.585669	0.492018
O11	O	0.870156	0.085646	0.133600
O12	O	1.370156	0.585646	0.633600
O13	O	1.114684	0.085672	0.118935
O14	O	1.614684	0.585672	0.618935
Cu15	Cu	0.992419	0.101285	0.126267
Cu16	Cu	1.492419	0.601285	0.626267
Cu17	Cu	0.992435	-0.101101	0.126276
Cu18	Cu	1.492435	0.398899	0.626276
O19	O	0.985937	0.085649	0.260517
O20	O	1.485937	0.585649	0.760517
C21	C	0.838868	0.000076	0.132995
C22	C	1.338868	0.500076	0.632995
C23	C	0.745619	0.000066	0.131170
C24	C	1.245619	0.500066	0.631170
N25	N	0.992414	0.243632	0.126260
N26	N	1.492414	0.743632	0.626260
N27	N	0.992447	-0.243448	0.126276
N28	N	1.492447	0.256552	0.626276
C29	C	0.530629	0.000093	0.039048
C30	C	1.030629	0.500093	0.539048
C31	C	0.469678	-0.084288	0.081830
C32	C	0.969678	0.415712	0.581830
C33	C	0.574889	0.000079	0.127868
C34	C	1.074889	0.500079	0.627868
C35	C	0.469687	0.084437	0.081844
C36	C	0.969687	0.584437	0.581844
C37	C	0.409971	0.000095	0.124672
C38	C	0.909971	0.500095	0.624672
C39	C	0.515165	-0.084372	0.170674
C40	C	1.015165	0.415628	0.670674
C41	C	0.515181	0.084428	0.170675
C42	C	1.015181	0.584428	0.670675
C43	C	0.454247	0.000027	0.213522
C44	C	0.954247	0.500027	0.713522
C45	C	0.669894	0.000069	0.129706
C46	C	1.169894	0.500069	0.629706
C47	C	0.314967	0.000098	0.122840
C48	C	0.814967	0.500098	0.622840
C49	C	1.145986	0.000106	0.119548
C50	C	1.645986	0.500106	0.619548
C51	C	1.239235	0.000109	0.121373
C52	C	1.739235	0.500109	0.621373
C53	C	0.998306	0.000102	-0.042337
C54	C	1.498306	0.500102	0.457663
C55	C	0.996495	0.000103	-0.144715
C56	C	1.496495	0.500103	0.355285
C57	C	0.992434	0.663446	0.126277
C58	C	1.492434	1.163446	0.626277
C59	C	0.992426	0.546641	0.126275
C60	C	1.492426	1.046641	0.626275
C61	C	0.992424	0.453543	0.126269
C62	C	1.492424	0.953543	0.626269
C63	C	0.992415	0.336730	0.126266
C64	C	1.492415	0.836730	0.626266
C65	C	0.989829	0.000075	-0.519599
C66	C	1.489829	0.500075	-0.019599
C67	C	0.991680	0.000083	-0.415295
C68	C	1.491680	0.500083	0.084705
C69	C	0.993162	0.000090	-0.332161
C70	C	1.493162	0.500090	0.167839
C71	C	0.995013	0.000096	-0.227849
C72	C	1.495013	0.500096	0.272151
C73	C	0.986548	0.000080	0.294880
C74	C	1.486548	0.500080	0.794880
C75	C	0.988359	0.000073	0.397258
C76	C	1.488359	0.500073	0.897258
H77	H	0.449518	-0.155621	0.044266
H78	H	0.949518	0.344379	0.544266
H79	H	0.535213	-0.155788	0.208217
H80	H	1.035213	0.344212	0.708217
H81	H	0.449540	0.155772	0.044257
H82	H	0.949540	0.655772	0.544257
H83	H	0.563855	-0.000006	-0.034665
H84	H	1.063855	0.499994	0.465335
H85	H	0.421196	-0.000026	0.287311
H86	H	0.921196	0.499974	0.787311
H87	H	0.535361	0.155765	0.208208
H88	H	1.035361	0.655765	0.708208
