data_functionalizedCrystal
_audit_creation_method	'MofGen! by Chris Wilmer'
_symmetry_space_group_name_H-M	'P1'
_symmetry_Int_Tables_number	1
_symmetry_cell_setting	triclinic
loop_
_symmetry_equiv_pos_as_xyz
  x,y,z
_cell_length_a	19.077105
_cell_length_b	12.759400
_cell_length_c	19.076919
_cell_angle_alpha	87.723966
_cell_angle_beta	89.923776
_cell_angle_gamma	87.709695
loop_
_atom_site_label
_atom_site_type_symbol
_atom_site_fract_x
_atom_site_fract_y
_atom_site_fract_z
Zn1	Zn	1.058336	-0.508277	0.440443
Zn2	Zn	1.558336	-0.008277	0.940443
Zn3	Zn	1.062998	-0.677204	0.322945
Zn4	Zn	1.562998	-0.177204	0.822945
Zn5	Zn	0.945552	-0.494202	0.318236
Zn6	Zn	1.445552	0.005798	0.818236
Zn7	Zn	0.940820	-0.676571	0.435697
Zn8	Zn	1.440820	-0.176571	0.935697
O9	O	1.001927	-0.589064	0.379330
O10	O	1.501927	-0.089064	0.879330
O11	O	1.157287	-0.536841	0.428814
O12	O	1.657287	-0.036841	0.928814
O13	O	1.051350	-0.647304	0.223988
O14	O	1.551350	-0.147304	0.723988
O15	O	0.960543	-0.349051	0.334462
O16	O	1.460543	0.150949	0.834462
O17	O	1.160712	-0.660951	0.342488
O18	O	1.660712	-0.160951	0.842488
O19	O	1.043405	-0.359392	0.424247
O20	O	1.543405	0.140608	0.924247
O21	O	0.965063	-0.512853	0.220529
O22	O	1.465063	-0.012853	0.720529
O23	O	0.846592	-0.512239	0.329860
O24	O	1.346592	-0.012239	0.829860
O25	O	0.952477	-0.659871	0.534658
O26	O	1.452477	-0.159871	1.034658
O27	O	0.843115	-0.646224	0.416159
O28	O	1.343115	-0.146224	0.916159
O29	O	1.038816	-0.536226	0.538145
O30	O	1.538816	-0.036226	1.038145
O31	O	1.046762	-0.824138	0.337886
O32	O	1.546762	-0.324138	0.837886
O33	O	0.956998	-0.823673	0.420725
O34	O	1.456998	-0.323673	0.920725
C35	C	0.819357	-0.577636	0.371984
C36	C	1.319357	-0.077636	0.871984
C37	C	0.741252	-0.572773	0.368858
C38	C	1.241252	-0.072773	0.868858
C39	C	0.702769	-0.640345	0.412250
C40	C	1.202769	-0.140345	0.912250
C41	C	0.629382	-0.635763	0.409316
C42	C	1.129382	-0.135763	0.909316
C43	C	0.594478	-0.563613	0.362986
C44	C	1.094478	-0.063613	0.862986
C45	C	0.632966	-0.496034	0.319593
C46	C	1.132966	0.003966	0.819593
C47	C	0.706352	-0.500612	0.322531
C48	C	1.206352	-0.000612	0.822531
C49	C	0.375188	-0.542425	0.349393
C50	C	0.875188	-0.042425	0.849393
C51	C	0.301796	-0.537854	0.346457
C52	C	0.801796	-0.037854	0.846457
C53	C	0.298217	-0.677582	0.436181
C54	C	0.798217	-0.177582	0.936181
C55	C	0.371605	-0.682158	0.439112
C56	C	0.871605	-0.182158	0.939112
C57	C	0.410086	-0.614575	0.395721
C58	C	0.910086	-0.114575	0.895721
N59	N	0.519464	-0.558929	0.359985
N60	N	1.019464	-0.058929	0.859985
N61	N	0.485099	-0.619255	0.398726
N62	N	0.985099	-0.119255	0.898726
C63	C	1.001890	-0.862028	0.379318
C64	C	1.501890	-0.362028	0.879318
C65	C	1.001938	-0.978809	0.379338
C66	C	1.501938	-0.478809	0.879338
C67	C	1.045060	-1.038976	0.426125
C68	C	1.545060	-0.538976	0.926125
C69	C	1.045092	-1.148703	0.426144
C70	C	1.545092	-0.648703	0.926144
C71	C	0.958878	-1.138085	0.332582
C72	C	1.458878	-0.638085	0.832582
C73	C	0.958843	-1.028360	0.332568
C74	C	1.458843	-0.528360	0.832568
C75	C	1.088155	-0.989424	0.472896
C76	C	1.588155	-0.489424	0.972896
C77	C	1.131282	-1.049592	0.519687
C78	C	1.631282	-0.549592	1.019687
C79	C	1.131314	-1.159319	0.519705
C80	C	1.631314	-0.659319	1.019705
C81	C	1.088219	-1.208878	0.472933
C82	C	1.588219	-0.708878	0.972933
C83	C	1.185209	-0.600536	0.386705
C84	C	1.685209	-0.100536	0.886705
C85	C	1.263313	-0.605426	0.389848
C86	C	1.763313	-0.105426	0.889848
C87	C	0.994599	-0.599548	0.562611
C88	C	1.494599	-0.099548	1.062611
C89	C	0.991476	-0.604016	0.640714
C90	C	1.491476	-0.104016	1.140714
C91	C	1.001982	-0.315035	0.379359
C92	C	1.501982	0.184965	0.879359
C93	C	1.002005	-0.198261	0.379371
C94	C	1.502005	0.301739	0.879371
C95	C	1.009267	-0.578547	0.196764
C96	C	1.509267	-0.078547	0.696764
C97	C	1.012526	-0.573791	0.118667
C98	C	1.512526	-0.073791	0.618667
C99	C	1.034959	-0.541743	0.679224
C100	C	1.534959	-0.041743	1.179224
C101	C	1.032016	-0.545936	0.752610
C102	C	1.532016	-0.045936	1.252610
C103	C	0.985593	-0.612409	0.787485
C104	C	1.485593	-0.112409	1.287485
C105	C	0.942106	-0.674685	0.748970
C106	C	1.442106	-0.174685	1.248970
C107	C	0.945046	-0.670485	0.675585
C108	C	1.445046	-0.170485	1.175585
C109	C	0.971978	-0.631867	1.006767
C110	C	1.471978	-0.131867	1.506767
C111	C	0.969043	-0.636064	1.080157
C112	C	1.469043	-0.136064	1.580157
C113	C	1.058952	-0.507314	1.083792
C114	C	1.558952	-0.007314	1.583792
C115	C	1.061891	-0.503125	1.010405
C116	C	1.561891	-0.003125	1.510405
C117	C	1.018401	-0.565396	0.971897
C118	C	1.518401	-0.065396	1.471897
N119	N	0.982586	-0.616700	0.862497
N120	N	1.482586	-0.116700	1.362497
N121	N	1.021405	-0.561100	0.896886
N122	N	1.521405	-0.061100	1.396886
H123	H	0.266877	-0.732602	0.471508
H124	H	0.766877	-0.232602	0.971508
H125	H	1.088136	-0.900080	0.472885
H126	H	1.588136	-0.400080	0.972885
H127	H	1.099695	-0.448998	0.982015
H128	H	1.599695	0.051002	1.482015
H129	H	0.273380	-0.479089	0.308734
H130	H	0.773380	0.020911	0.808734
H131	H	0.598052	-0.690788	0.444649
H132	H	1.098052	-0.190788	0.944649
Br133	Br	0.427404	-0.450700	0.290509
Br134	Br	0.927404	0.049300	0.790509
H135	H	1.088241	-1.298226	0.472960
H136	H	1.588241	-0.798226	0.972960
Br137	Br	0.585597	-0.398105	0.256723
Br138	Br	1.085597	0.101895	0.756723
H139	H	0.931238	-0.690197	1.108550
H140	H	1.431238	-0.190197	1.608550
H141	H	0.904305	-0.728804	0.777371
H142	H	1.404305	-0.228804	1.277371
H143	H	0.923728	-0.979371	0.294470
H144	H	1.423728	-0.479371	0.794470
H145	H	1.072763	-0.487616	0.650834
H146	H	1.572763	0.012384	1.150834
H147	H	1.166423	-1.208305	0.557809
H148	H	1.666423	-0.708305	1.057809
Br149	Br	0.912954	-0.716377	0.954515
Br150	Br	1.412954	-0.216377	1.454515
Br151	Br	0.758580	-0.408899	0.263643
Br152	Br	1.258580	0.091101	0.763643
H153	H	1.166364	-1.009235	0.557771
H154	H	1.666364	-0.509235	1.057771
H155	H	0.923793	-1.178446	0.294502
H156	H	1.423793	-0.678446	0.794502
H157	H	1.067426	-0.495229	0.783961
H158	H	1.567426	0.004771	1.283961
H159	H	1.094358	-0.456615	1.115153
H160	H	1.594358	0.043385	1.615153
H161	H	0.909630	-0.721183	0.644231
H162	H	1.409630	-0.221183	1.144231
Br163	Br	0.750132	-0.738275	0.475124
Br164	Br	1.250132	-0.238275	0.975124
Br165	Br	0.418969	-0.780085	0.501986
Br166	Br	0.918969	-0.280085	1.001986
