data_functionalizedCrystal
_audit_creation_method	'MofGen! by Chris Wilmer'
_symmetry_space_group_name_H-M	'P1'
_symmetry_Int_Tables_number	1
_symmetry_cell_setting	triclinic
loop_
_symmetry_equiv_pos_as_xyz
  x,y,z
_cell_length_a	16.704494
_cell_length_b	21.606444
_cell_length_c	21.606444
_cell_angle_alpha	60.001331
_cell_angle_beta	90.001269
_cell_angle_gamma	63.425189
loop_
_atom_site_label
_atom_site_type_symbol
_atom_site_fract_x
_atom_site_fract_y
_atom_site_fract_z
Zr1	Zr	0.735372	0.735823	-0.110390
O2	O	0.613476	0.855270	-0.204374
O3	O	0.772742	0.609669	-0.081582
O4	O	0.772732	0.738793	-0.210700
O5	O	0.613492	0.726143	0.026597
O6	O	0.898354	0.748764	-0.215687
O7	O	0.613485	0.726146	-0.075257
O8	O	0.898372	0.517786	0.015282
O9	O	0.613474	0.957120	-0.204371
O10	O	0.882428	0.671484	-0.073014
O11	O	0.788682	0.664039	0.006720
O12	O	0.788671	0.816065	-0.145300
O13	O	0.694925	0.808620	-0.065566
Zr14	Zr	0.935736	0.751720	0.044102
Zr15	Zr	0.935726	0.751726	-0.118343
Zr16	Zr	0.735383	0.735817	0.052055
Zr17	Zr	0.735370	0.898263	-0.110385
Zr18	Zr	0.935738	0.589280	0.044097
O19	O	0.898367	0.877874	0.015294
O20	O	0.898353	0.877882	-0.215682
O21	O	0.613490	0.855261	0.026602
O22	O	1.057633	0.632273	0.138086
O23	O	1.057619	0.632282	-0.092890
O24	O	0.772756	0.609661	0.149394
O25	O	1.057617	0.761400	-0.092886
O26	O	0.898377	0.748750	0.144412
O27	O	0.772754	0.738779	0.149398
O28	O	1.057623	0.761397	0.008968
O29	O	0.772729	0.969761	-0.210693
O30	O	0.898380	0.517782	0.144404
O31	O	1.057634	0.530423	0.138083
O32	O	1.057626	0.530428	0.008961
O33	O	0.613482	0.957115	-0.075249
O34	O	0.772737	0.969757	-0.081570
O35	O	0.882438	0.671478	0.079011
O36	O	0.976184	0.678923	-0.000722
O37	O	0.882426	0.823504	-0.073009
O38	O	0.788680	0.816059	0.006725
C39	C	0.835557	0.540584	-0.033151
C40	C	0.835558	0.471624	-0.033153
C41	C	0.884490	0.443112	-0.074774
C42	C	0.884494	0.378312	-0.074769
C43	C	0.835558	0.342029	-0.033147
C44	C	0.786625	0.370544	0.008479
C45	C	0.786627	0.435338	0.008478
C46	C	0.786614	0.109233	0.008486
C47	C	0.786612	0.044436	0.008482
C48	C	0.884480	0.052207	-0.074761
C49	C	0.884483	0.117002	-0.074763
C50	C	0.835553	0.145508	-0.033134
C51	C	0.835552	0.215770	-0.033138
C52	C	0.835554	0.271772	-0.033146
C53	C	0.584942	0.723879	-0.023196
C54	C	0.499887	0.717127	-0.019820
C55	C	0.242166	0.855397	-0.088961
C56	C	0.162246	0.849057	-0.085791
C57	C	0.260126	0.698109	-0.010315
C58	C	0.340046	0.704449	-0.013485
C59	C	0.331061	0.783095	-0.052808
C60	C	0.410983	0.789434	-0.055974
C61	C	0.508860	0.638487	0.019498
C62	C	0.428941	0.632147	0.022668
C63	C	1.086166	0.763664	-0.043092
C64	C	1.171222	0.770416	-0.046468
C65	C	0.835542	0.743779	-0.236338
C66	C	0.835537	0.743782	-0.305301
C67	C	0.835552	0.946959	-0.033137
C68	C	0.835551	1.015919	-0.033135
C69	C	0.786596	0.819251	-0.375432
C70	C	0.786604	0.819249	-0.440227
C71	C	0.835549	0.743777	-0.434889
C72	C	0.884496	0.668302	-0.364750
C73	C	0.884492	0.668305	-0.299957
C74	C	0.884510	0.668288	-0.626054
C75	C	0.884507	0.668291	-0.690855
C76	C	0.786622	0.819232	-0.766324
C77	C	0.786619	0.819235	-0.701531
C78	C	0.835570	0.743761	-0.631398
C79	C	0.835562	0.743764	-0.561140
C80	C	0.835552	0.743773	-0.505145
C81	C	0.835567	0.743764	0.170050
C82	C	0.835571	0.743761	0.239012
C83	C	1.086169	0.560477	-0.043099
C84	C	1.171225	0.498268	-0.046477
C85	C	0.835570	0.540576	0.170043
C86	C	0.835575	0.471613	0.239003
C87	C	1.086182	0.560469	0.160096
C88	C	1.171242	0.498258	0.225679
C89	C	0.584927	0.927074	-0.226384
C90	C	0.499866	0.989285	-0.291968
C91	C	0.584940	0.927066	-0.023190
C92	C	0.499884	0.989275	-0.019811
C93	C	0.835539	0.946967	-0.236332
C94	C	0.835534	1.015930	-0.305292
C95	C	1.162229	0.465171	-0.085806
C96	C	1.242141	0.406728	-0.088995
C97	C	1.331048	0.381378	-0.052851
C98	C	1.340042	0.414481	-0.013521
C99	C	1.260131	0.472928	-0.010336
C100	C	0.884517	0.443111	0.309130
C101	C	0.884518	0.378322	0.373931
C102	C	0.835583	0.342032	0.368604
C103	C	0.786635	0.370541	0.298471
C104	C	0.786628	0.435333	0.233671
C105	C	1.260130	0.472929	0.214858
C106	C	1.340062	0.414485	0.276474
C107	C	1.331102	0.381365	0.348912
C108	C	1.242205	0.406699	0.359732
C109	C	1.162276	0.465147	0.298116
C110	C	0.410978	1.014622	-0.281146
C111	C	0.331047	1.073086	-0.342762
C112	C	0.340006	1.106209	-0.415200
C113	C	0.428904	1.080871	-0.426020
C114	C	0.508833	1.022412	-0.364405
C115	C	0.508880	1.022379	0.019510
C116	C	0.428968	1.080840	0.022682
C117	C	0.340061	1.106192	-0.013465
C118	C	0.331067	1.073086	-0.052791
C119	C	0.410977	1.014630	-0.055967
C120	C	0.884479	1.052199	-0.299941
C121	C	0.884492	1.116990	-0.364731
C122	C	0.835555	1.145514	-0.434870
C123	C	0.786608	1.109238	-0.440219
C124	C	0.786601	1.044444	-0.375430
H125	H	0.924325	0.028989	-0.108655
H126	H	1.089902	0.485761	0.306938
H127	H	0.924367	0.606828	-0.686501
Br128	Br	0.210400	1.107499	-0.101841
H129	H	1.234799	0.379782	-0.121021
H130	H	0.258671	1.093706	-0.333938
H131	H	1.396193	0.333774	0.399077
H132	H	1.412441	0.393833	0.015906
Br133	Br	0.231520	1.185547	-0.498815
H134	H	0.746777	0.458531	0.176573
Br135	Br	0.272300	0.591383	0.043039
H136	H	1.267443	0.499887	0.155881
Br137	Br	0.398751	0.969706	-0.109333
H138	H	0.924330	1.028985	-0.242836
Br139	Br	1.041580	0.499563	-0.134868
H140	H	1.412439	0.393864	0.267650
Br141	Br	0.950901	0.565855	-0.530881
Br142	Br	1.230062	0.361744	0.458046
Br143	Br	0.950925	0.565874	-0.357505
Br144	Br	0.720165	0.921684	-0.382685
H145	H	0.089866	0.907933	-0.115231
H146	H	0.924366	0.472651	0.313481
H147	H	0.581265	1.001742	0.048951
Br148	Br	0.950898	0.492353	-0.131271
H149	H	0.234849	0.919434	-0.120963
Br150	Br	0.950920	1.166211	-0.357453
H151	H	0.436243	0.568115	0.054682
H152	H	0.581251	0.579613	0.048939
Br153	Br	0.835600	0.254101	0.456556
H154	H	0.835568	1.198274	-0.487619
Br155	Br	0.720182	0.921677	-0.535405
H156	H	0.746760	0.880692	-0.705884
H157	H	1.267469	0.499868	0.021693
H158	H	0.924345	0.606850	-0.242853
Br159	Br	0.720188	0.921664	-0.861508
H160	H	1.396109	0.333786	-0.055449
H161	H	0.746776	0.132432	0.042386
H162	H	0.746786	0.340993	0.042373
H163	H	0.436188	1.107847	-0.485006
H164	H	0.924381	0.355118	0.431030
H165	H	0.403666	0.987655	-0.222169
H166	H	0.746793	0.340985	0.294145
H167	H	0.581208	1.001784	-0.373225
Br168	Br	0.441196	1.125755	0.076059
H169	H	0.275000	1.153791	-0.010873
H170	H	0.746764	1.132472	-0.497335
H171	H	0.924339	0.355098	-0.108660
Br172	Br	0.720195	-0.004804	0.064973
Br173	Br	0.950889	0.166245	-0.131258
Br174	Br	0.720222	0.474029	0.064971
Br175	Br	0.720160	0.995235	-0.382705
H176	H	0.403663	0.853472	-0.087984
