data_functionalizedCrystal
_audit_creation_method	'MofGen! by Chris Wilmer'
_symmetry_space_group_name_H-M	'P1'
_symmetry_Int_Tables_number	1
_symmetry_cell_setting	triclinic
loop_
_symmetry_equiv_pos_as_xyz
  x,y,z
_cell_length_a	10.654543
_cell_length_b	9.130313
_cell_length_c	10.654550
_cell_angle_alpha	90.004369
_cell_angle_beta	95.516448
_cell_angle_gamma	90.001143
loop_
_atom_site_label
_atom_site_type_symbol
_atom_site_fract_x
_atom_site_fract_y
_atom_site_fract_z
O1	O	-1.667844	0.121641	0.176358
O2	O	-1.167844	0.621641	0.676358
O3	O	-1.302365	0.121679	0.193173
O4	O	-0.802365	0.621679	0.693173
O5	O	-1.493508	0.121650	0.002026
O6	O	-0.993508	0.621650	0.502026
O7	O	-1.476702	0.121670	0.367505
O8	O	-0.976702	0.621670	0.867505
O9	O	-1.493494	-0.121949	0.002021
O10	O	-0.993494	0.378051	0.502021
O11	O	-1.302352	-0.121920	0.193168
O12	O	-0.802352	0.378080	0.693168
O13	O	-1.667831	-0.121957	0.176353
O14	O	-1.167831	0.378043	0.676353
Cu15	Cu	-1.485090	-0.144181	0.184760
Cu16	Cu	-0.985090	0.355819	0.684760
Cu17	Cu	-1.485106	0.143903	0.184766
Cu18	Cu	-0.985106	0.643903	0.684766
O19	O	-1.476688	-0.121929	0.367500
O20	O	-0.976688	0.378071	0.867500
C21	C	-1.255560	-0.000116	0.191938
C22	C	-0.755560	0.499884	0.691938
C23	C	-1.116116	-0.000102	0.188249
C24	C	-0.616116	0.499898	0.688249
N25	N	-1.485088	-0.346804	0.184754
N26	N	-0.985088	0.153196	0.684754
C27	C	-1.036631	-0.000098	0.300793
C28	C	-0.536631	0.499902	0.800793
C29	C	-0.905609	-0.000120	0.297319
C30	C	-0.405609	0.499880	0.797319
C31	C	-0.933573	-0.000144	0.068749
C32	C	-0.433573	0.499856	0.568749
C33	C	-1.064591	-0.000132	0.072224
C34	C	-0.564591	0.499868	0.572224
C35	C	-1.569755	-0.423468	0.100150
C36	C	-1.069755	0.076532	0.600150
C37	C	-1.569767	-0.576805	0.100151
C38	C	-1.069767	-0.076805	0.600151
C39	C	-1.400442	-0.576799	0.269370
C40	C	-0.900442	-0.076799	0.769370
C41	C	-1.400424	-0.423465	0.269363
C42	C	-0.900424	0.076535	0.769363
C43	C	-0.714635	-0.000152	0.177595
C44	C	-0.214635	0.499848	0.677595
C45	C	-0.854077	-0.000135	0.181301
C46	C	-0.354077	0.499865	0.681301
C47	C	-1.492267	-0.000148	-0.044774
C48	C	-0.992267	0.499852	0.455226
C49	C	-1.488575	-0.000146	-0.184217
C50	C	-0.988575	0.499854	0.315783
N51	N	-1.485117	0.346525	0.184762
N52	N	-0.985117	0.846525	0.684762
C53	C	-1.601117	-0.000157	-0.263706
C54	C	-1.101117	0.499843	0.236294
C55	C	-1.597641	-0.000139	-0.394726
C56	C	-1.097641	0.499861	0.105274
C57	C	-1.369070	-0.000105	-0.366758
C58	C	-0.869070	0.499895	0.133242
C59	C	-1.372548	-0.000112	-0.235740
C60	C	-0.872548	0.499888	0.264260
C61	C	-1.477929	-0.000127	0.414300
C62	C	-0.977929	0.499873	0.914300
C63	C	-1.481621	-0.000120	0.553744
C64	C	-0.981621	0.499880	1.053744
H65	H	-1.078578	-0.000084	0.395268
H66	H	-0.578578	0.499916	0.895268
O67	O	-0.819873	-0.000111	0.418704
O68	O	-0.319873	0.499889	0.918704
H69	H	-0.877719	-0.000079	0.499962
H70	H	-0.377719	0.499921	0.999962
O71	O	-1.719024	-0.000169	-0.480465
O72	O	-1.219024	0.499831	0.019535
H73	H	-1.800283	-0.000208	-0.422622
H74	H	-1.300283	0.499792	0.077378
H75	H	-1.129313	-0.000140	-0.019428
H76	H	-0.629313	0.499860	0.480572
O77	O	-0.878001	-0.000166	-0.056390
O78	O	-0.378001	0.499834	0.443610
H79	H	-0.773541	-0.000159	-0.039901
H80	H	-0.273541	0.499841	0.460099
O81	O	-1.309090	-0.340758	0.360605
O82	O	-0.809090	0.159242	0.860605
H83	H	-1.362467	-0.270861	0.422126
H84	H	-0.862467	0.229139	0.922126
H85	H	-1.695593	-0.000181	-0.221761
H86	H	-1.195593	0.499819	0.278239
H87	H	-1.638709	-0.639221	0.031257
H88	H	-1.138709	-0.139221	0.531257
O89	O	-1.661052	-0.340776	0.008886
O90	O	-1.161052	0.159224	0.508886
H91	H	-1.719917	-0.419853	-0.049954
H92	H	-1.219917	0.080147	0.450046
O93	O	-1.309141	-0.659482	0.360639
O94	O	-0.809141	-0.159482	0.860639
H95	H	-1.323386	-0.778985	0.346443
H96	H	-0.823386	-0.278985	0.846443
H97	H	-1.274605	-0.000080	-0.408724
H98	H	-0.774605	0.499920	0.091276
O99	O	-1.251159	-0.000117	-0.149990
O100	O	-0.751159	0.499883	0.350010
H101	H	-1.169894	-0.000120	-0.207825
H102	H	-0.669894	0.499880	0.292175
