data_functionalizedCrystal
_audit_creation_method	'MofGen! by Chris Wilmer'
_symmetry_space_group_name_H-M	'P1'
_symmetry_Int_Tables_number	1
_symmetry_cell_setting	triclinic
loop_
_symmetry_equiv_pos_as_xyz
  x,y,z
_cell_length_a	10.654550
_cell_length_b	17.766277
_cell_length_c	10.654550
_cell_angle_alpha	90.006164
_cell_angle_beta	84.484931
_cell_angle_gamma	90.006102
loop_
_atom_site_label
_atom_site_type_symbol
_atom_site_fract_x
_atom_site_fract_y
_atom_site_fract_z
O1	O	1.667850	0.062538	0.176401
O2	O	1.302371	0.062552	0.193207
O3	O	1.493514	0.062540	0.002065
O4	O	1.476708	0.062550	0.367543
O5	O	1.493480	-0.062649	0.002055
O6	O	1.302337	-0.062637	0.193197
O7	O	1.667816	-0.062651	0.176391
Cu8	Cu	1.485074	-0.074074	0.184793
Cu9	Cu	1.485114	0.073975	0.184805
O10	O	1.476674	-0.062639	0.367533
C11	C	1.255556	-0.000041	0.191968
C12	C	1.116113	-0.000036	0.188276
C13	C	1.036628	-0.000035	0.300818
C14	C	0.905607	-0.000048	0.297341
C15	C	0.933570	-0.000060	0.068772
C16	C	1.064588	-0.000052	0.072250
N17	N	1.485054	-0.178205	0.184784
C18	C	1.569720	-0.217597	0.100188
C19	C	1.569727	-0.296399	0.100182
C20	C	1.485081	-0.335805	0.184794
C21	C	1.400399	-0.296404	0.269396
C22	C	1.400386	-0.217603	0.269391
C23	C	1.469622	-0.460640	0.299032
C24	C	1.469644	-0.539439	0.299039
C25	C	1.485115	-0.578852	0.184810
C26	C	1.500590	-0.539456	0.070569
C27	C	1.500577	-0.460656	0.070563
C28	C	1.485085	-0.421251	0.184809
C29	C	1.569793	-0.703690	0.100201
C30	C	1.569791	-0.782493	0.100193
C31	C	1.400469	-0.782496	0.269418
C32	C	1.400465	-0.703695	0.269414
C33	C	1.485133	-0.664296	0.184807
C34	C	1.714631	-0.000057	0.177630
C35	C	1.854074	-0.000057	0.181322
C36	C	1.492263	-0.000054	-0.044738
C37	C	1.488571	-0.000053	-0.184181
N38	N	1.485143	0.178106	0.184804
C39	C	1.601112	-0.000057	-0.263667
C40	C	1.597636	-0.000048	-0.394688
C41	C	1.369066	-0.000033	-0.366725
C42	C	1.372544	-0.000037	-0.235706
C43	C	1.477925	-0.000043	0.414336
C44	C	1.481616	-0.000040	0.553779
H45	H	1.638659	-0.185521	0.031293
H46	H	1.274601	-0.000022	-0.408693
H47	H	1.129309	-0.000055	-0.019401
H48	H	1.331527	-0.671619	0.338305
C49	C	1.452612	-0.417293	0.424693
H50	H	1.443419	-0.452039	0.492728
H51	H	1.379505	-0.386559	0.426562
H52	H	1.524439	-0.386547	0.432317
H53	H	1.280893	-0.000032	-0.170985
C54	C	1.721432	-0.000057	-0.482117
H55	H	1.791026	-0.000072	-0.432661
H56	H	1.724848	0.043601	-0.533799
H57	H	1.724807	-0.043717	-0.533817
H58	H	1.638733	-0.814567	0.031299
H59	H	1.078574	-0.000027	0.395294
C60	C	1.452630	-0.582767	0.424697
H61	H	1.443393	-0.548009	0.492726
H62	H	1.524456	-0.613494	0.432339
H63	H	1.379525	-0.613517	0.426556
H64	H	1.331477	-0.328492	0.338286
C65	C	0.818172	-0.000043	0.421133
H66	H	0.732762	-0.000058	0.402450
H67	H	0.833899	0.043617	0.468659
H68	H	0.833903	-0.043700	0.468659
C69	C	1.662865	-0.339739	0.007126
H70	H	1.713292	-0.304989	-0.043258
H71	H	1.617247	-0.370492	-0.045574
H72	H	1.715538	-0.370466	0.052811
H73	H	1.331439	-0.185530	0.338280
H74	H	0.891602	-0.000078	-0.025693
H75	H	1.513174	-0.428583	-0.022455
C76	C	1.517618	-0.582796	-0.055094
H77	H	1.526843	-0.548048	-0.123126
H78	H	1.445807	-0.613546	-0.062738
H79	H	1.590736	-0.613526	-0.056946
C80	C	1.662903	-0.660345	0.007125
H81	H	1.650780	-0.607772	0.019247
H82	H	1.648535	-0.673268	-0.076820
H83	H	1.746845	-0.673248	0.021545
H84	H	1.331544	-0.814581	0.338305
C85	C	1.728735	-0.000065	-0.206993
H86	H	1.795262	-0.000059	-0.273101
H87	H	1.734835	-0.043722	-0.156473
H88	H	1.734853	0.043595	-0.156456
