data_functionalizedCrystal
_audit_creation_method	'MofGen! by Chris Wilmer'
_symmetry_space_group_name_H-M	'P1'
_symmetry_Int_Tables_number	1
_symmetry_cell_setting	triclinic
loop_
_symmetry_equiv_pos_as_xyz
  x,y,z
_cell_length_a	10.654549
_cell_length_b	19.188924
_cell_length_c	9.730217
_cell_angle_alpha	89.994694
_cell_angle_beta	89.997559
_cell_angle_gamma	83.814441
loop_
_atom_site_label
_atom_site_type_symbol
_atom_site_fract_x
_atom_site_fract_y
_atom_site_fract_z
O1	O	1.665753	0.098077	-0.114330
O2	O	2.165753	0.598077	0.385670
O3	O	1.300078	0.107416	-0.114326
O4	O	1.800078	0.607416	0.385674
O5	O	1.493473	0.001160	-0.114312
O6	O	1.993473	0.501160	0.385688
O7	O	1.472358	0.204334	-0.114345
O8	O	1.972358	0.704334	0.385655
O9	O	1.493467	0.001159	0.114268
O10	O	1.993467	0.501159	0.614268
O11	O	1.300072	0.107415	0.114254
O12	O	1.800072	0.607415	0.614254
O13	O	1.665748	0.098076	0.114250
O14	O	2.165748	0.598076	0.614250
Zn15	Zn	1.482909	0.102746	0.150544
Zn16	Zn	1.982909	0.602746	0.650544
Zn17	Zn	1.482916	0.102747	-0.150620
Zn18	Zn	1.982916	0.602747	0.349380
O19	O	1.472352	0.204333	0.114236
O20	O	1.972352	0.704333	0.614236
C21	C	1.253291	0.106729	-0.000036
C22	C	1.753291	0.606729	0.499964
C23	C	1.113892	0.104676	-0.000034
C24	C	1.613892	0.604676	0.499966
C25	C	0.821295	0.227879	-0.000092
C26	C	1.321295	0.727879	0.499908
C27	C	0.871464	0.292375	-0.000096
C28	C	1.371464	0.792375	0.499904
C29	C	1.002441	0.294307	-0.000079
C30	C	1.502441	0.794307	0.499921
C31	C	1.083254	0.231736	-0.000061
C32	C	1.583254	0.731736	0.499939
C33	C	1.033084	0.167240	-0.000056
C34	C	1.533084	0.667240	0.499944
C35	C	0.902102	0.165315	-0.000070
C36	C	1.402102	0.665315	0.499930
C37	C	1.063722	0.040180	-0.000029
C38	C	1.563722	0.540180	0.499971
C39	C	0.932746	0.038246	-0.000037
C40	C	1.432746	0.538246	0.499963
C41	C	1.144535	-0.022391	-0.000011
C42	C	1.644535	0.477609	0.499989
C43	C	1.094366	-0.086889	0.000003
C44	C	1.594366	0.413111	0.500003
C45	C	0.963380	-0.088818	-0.000013
C46	C	1.463380	0.411182	0.499987
C47	C	0.882576	-0.026250	-0.000032
C48	C	1.382576	0.473750	0.499968
C49	C	1.492787	-0.024856	-0.000021
C50	C	1.992787	0.475144	0.499979
C51	C	1.490739	-0.102374	-0.000017
C52	C	1.990739	0.397626	0.499983
C53	C	1.489787	-0.138779	-0.124617
C54	C	1.989787	0.361221	0.375383
C55	C	1.487844	-0.211614	-0.124627
C56	C	1.987844	0.288386	0.375373
C57	C	1.486880	-0.248044	-0.000031
C58	C	1.986880	0.251956	0.499969
C59	C	1.487826	-0.211630	0.124585
C60	C	1.987826	0.288370	0.624585
C61	C	1.489755	-0.138795	0.124591
C62	C	1.989755	0.361205	0.624591
N63	N	1.555310	-0.367259	0.092702
N64	N	2.055310	0.132741	0.592702
N65	N	1.553480	-0.436450	0.092687
N66	N	2.053480	0.063550	0.592687
C67	C	1.481063	-0.467491	-0.000044
C68	C	1.981063	0.032509	0.499956
N69	N	1.410562	-0.426730	-0.092781
N70	N	1.910562	0.073270	0.407219
N71	N	1.412398	-0.357534	-0.092770
N72	N	1.912398	0.142466	0.407230
C73	C	1.484787	-0.327021	-0.000025
C74	C	1.984787	0.172979	0.499975
C75	C	1.478002	-0.582872	-0.124663
C76	C	1.978002	-0.082872	0.375337
C77	C	1.476052	-0.655708	-0.124669
C78	C	1.976052	-0.155708	0.375331
C79	C	1.476046	-0.655724	0.124547
C80	C	1.976046	-0.155724	0.624547
C81	C	1.477984	-0.582888	0.124548
C82	C	1.977984	-0.082888	0.624548
C83	C	1.478968	-0.546467	-0.000061
C84	C	1.978968	-0.046467	0.499939
C85	C	1.712534	0.098763	-0.000044
C86	C	2.212534	0.598763	0.499956
C87	C	1.851933	0.100817	-0.000055
C88	C	2.351933	0.600817	0.499945
C89	C	1.473038	0.230349	-0.000059
C90	C	1.973038	0.730349	0.499941
C91	C	1.475086	0.307867	-0.000071
C92	C	1.975086	0.807867	0.499929
N93	N	1.482913	0.102744	0.356080
N94	N	1.982913	0.602744	0.856080
N95	N	1.482923	0.102743	-0.356157
N96	N	1.982923	0.602743	0.143843
C97	C	1.654233	0.008682	0.356083
C98	C	2.154233	0.508682	0.856083
C99	C	1.739902	-0.038347	0.428025
C100	C	2.239902	0.461653	0.928025
C101	C	1.739915	-0.038348	0.571905
C102	C	2.239915	0.461652	1.071905
C103	C	1.654247	0.008685	0.643846
C104	C	2.154247	0.508685	1.143846
C105	C	1.568578	0.055714	0.571905
C106	C	2.068578	0.555714	1.071905
C107	C	1.568577	0.055711	0.428022
C108	C	2.068577	0.555711	0.928022
C109	C	1.397254	0.149772	0.571902
C110	C	1.897254	0.649772	1.071902
C111	C	1.397245	0.149777	0.428022
C112	C	1.897245	0.649777	0.928022
C113	C	1.311586	0.196804	0.643843
C114	C	1.811586	0.696804	1.143843
C115	C	1.225922	0.243838	0.571902
C116	C	1.725922	0.743838	1.071902
C117	C	1.225913	0.243837	0.428013
C118	C	1.725913	0.743837	0.928013
C119	C	1.311576	0.196806	0.356080
C120	C	1.811576	0.696806	0.856080
H121	H	1.043288	0.346825	-0.000080
H122	H	1.543288	0.846825	0.499920
H123	H	1.487037	-0.241296	0.226032
H124	H	1.987037	0.258704	0.726032
H125	H	1.156147	0.282131	0.369446
H126	H	1.656147	0.782131	0.869446
H127	H	1.478796	-0.553216	-0.226127
H128	H	1.978796	-0.053216	0.273873
H129	H	1.189901	0.233315	-0.000062
H130	H	1.689901	0.733315	0.499938
H131	H	1.311582	0.196804	0.238926
H132	H	1.811582	0.696804	0.738926
H133	H	1.160172	-0.137829	0.000009
H134	H	1.660172	0.362171	0.500009
H135	H	0.714645	0.226312	-0.000082
H136	H	1.214645	0.726312	0.499918
H137	H	1.475270	-0.685347	-0.226137
H138	H	1.975270	-0.185347	0.273863
H139	H	1.478770	-0.553248	0.226011
H140	H	1.978770	-0.053248	0.726011
H141	H	0.922542	-0.141339	-0.000017
H142	H	1.422542	0.358661	0.499983
H143	H	1.487061	-0.241260	-0.226094
H144	H	1.987061	0.258740	0.273906
H145	H	1.475252	-0.685384	0.225995
H146	H	1.975252	-0.185384	0.725995
H147	H	1.809649	-0.076642	0.369437
H148	H	2.309649	0.423358	0.869437
H149	H	0.805653	0.343318	-0.000116
H150	H	1.305653	0.843318	0.499884
H151	H	0.775926	-0.027815	-0.000034
H152	H	1.275926	0.472185	0.499966
H153	H	1.654242	0.008683	0.238929
H154	H	2.154242	0.508683	0.738929
H155	H	1.490584	-0.109129	-0.226083
H156	H	1.990584	0.390871	0.273917
H157	H	1.654252	0.008676	0.761001
H158	H	2.154252	0.508676	1.261001
H159	H	1.809669	-0.076645	0.630479
H160	H	2.309669	0.423355	1.130479
H161	H	1.490526	-0.109155	0.226058
H162	H	1.990526	0.390845	0.726058
H163	H	1.311595	0.196799	0.760998
H164	H	1.811595	0.696799	1.260998
H165	H	1.156172	0.282125	0.630485
H166	H	1.656172	0.782125	1.130485
H167	H	1.251182	-0.020814	-0.000003
H168	H	1.751182	0.479186	0.499997
