data_functionalizedCrystal
_audit_creation_method	'MofGen! by Chris Wilmer'
_symmetry_space_group_name_H-M	'P1'
_symmetry_Int_Tables_number	1
_symmetry_cell_setting	triclinic
loop_
_symmetry_equiv_pos_as_xyz
  x,y,z
_cell_length_a	19.188930
_cell_length_b	16.776229
_cell_length_c	17.699083
_cell_angle_alpha	89.992455
_cell_angle_beta	83.213897
_cell_angle_gamma	89.978976
loop_
_atom_site_label
_atom_site_type_symbol
_atom_site_fract_x
_atom_site_fract_y
_atom_site_fract_z
O1	O	0.926253	-0.066546	0.094493
O2	O	1.426253	0.433454	0.594493
O3	O	0.722956	-0.066492	0.107213
O4	O	1.222956	0.433508	0.607213
O5	O	0.830348	-0.066513	-0.009343
O6	O	1.330348	0.433487	0.490657
O7	O	0.818861	-0.066524	0.211050
O8	O	1.318861	0.433476	0.711050
O9	O	0.830334	0.066063	-0.009351
O10	O	1.330334	0.566063	0.490649
O11	O	0.722942	0.066085	0.107206
O12	O	1.222942	0.566085	0.607206
O13	O	0.926239	0.066030	0.094486
O14	O	1.426239	0.566030	0.594486
Zn15	Zn	0.824588	0.087107	0.100845
Zn16	Zn	1.324588	0.587107	0.600845
Zn17	Zn	0.824607	-0.087568	0.100854
Zn18	Zn	1.324607	0.412432	0.600854
O19	O	0.818847	0.066052	0.211043
O20	O	1.318847	0.566052	0.711043
C21	C	0.696938	-0.000196	0.106798
C22	C	1.196938	0.499804	0.606798
C23	C	0.619432	-0.000175	0.105561
C24	C	1.119432	0.499825	0.605561
N25	N	0.824581	0.206318	0.100838
N26	N	1.324581	0.706318	0.600838
N27	N	0.824620	-0.206779	0.100855
N28	N	1.324620	0.293221	0.600855
C29	C	0.574584	-0.000191	0.173953
C30	C	1.074584	0.499809	0.673953
C31	C	0.501759	-0.000200	0.172791
C32	C	1.001759	0.499800	0.672791
C33	C	0.473785	-0.000209	0.103234
C34	C	0.973785	0.499791	0.603234
C35	C	0.518642	-0.000188	0.034833
C36	C	1.018642	0.499812	0.534833
C37	C	0.591465	-0.000172	0.035997
C38	C	1.091465	0.499828	0.535997
N39	N	0.365750	-0.045360	0.050069
N40	N	0.865750	0.454640	0.550069
N41	N	0.296570	-0.045377	0.048968
N42	N	0.796570	0.454623	0.548968
C43	C	0.254372	-0.000257	0.099724
C44	C	0.754372	0.499743	0.599724
N45	N	0.283966	0.044871	0.151634
N46	N	0.783966	0.544871	0.651634
N47	N	0.353152	0.044885	0.152737
N48	N	0.853152	0.544885	0.652737
C49	C	0.394821	-0.000226	0.101965
C50	C	0.894821	0.499774	0.601965
C51	C	0.130559	-0.000282	0.166861
C52	C	0.630559	0.499718	0.666861
C53	C	0.057733	-0.000285	0.165696
C54	C	0.557733	0.499715	0.665696
C55	C	0.074617	-0.000282	0.027736
C56	C	0.574617	0.499718	0.527736
C57	C	0.147442	-0.000270	0.028903
C58	C	0.647442	0.499730	0.528903
C59	C	0.175408	-0.000274	0.098467
C60	C	0.675408	0.499726	0.598467
C61	C	0.952258	-0.000267	0.094902
C62	C	1.452258	0.499733	0.594902
C63	C	1.029763	-0.000293	0.096138
C64	C	1.529763	0.499707	0.596138
C65	C	0.829930	-0.000225	-0.037543
C66	C	1.329930	0.499775	0.462457
C67	C	0.828695	-0.000224	-0.121560
C68	C	1.328695	0.499776	0.378440
C69	C	0.872148	0.248026	0.049248
C70	C	1.372148	0.748026	0.549248
C71	C	0.872152	0.331478	0.049247
C72	C	1.372152	0.831478	0.549247
C73	C	0.824591	0.373221	0.100841
C74	C	1.324591	0.873221	0.600841
C75	C	0.777018	0.331508	0.152434
C76	C	1.277018	0.831508	0.652434
C77	C	0.777012	0.248057	0.152430
C78	C	1.277012	0.748057	0.652430
C79	C	0.777044	0.668055	0.152449
C80	C	1.277044	1.168055	0.652449
C81	C	0.777055	0.751512	0.152450
C82	C	1.277055	1.251512	0.652450
C83	C	0.872184	0.751476	0.049266
C84	C	1.372184	1.251476	0.549266
C85	C	0.872177	0.668025	0.049262
C86	C	1.372177	1.168025	0.549262
C87	C	0.824602	0.626319	0.100852
C88	C	1.324602	1.126319	0.600852
C89	C	0.824598	0.535831	0.100851
C90	C	1.324598	1.035831	0.600851
C91	C	0.824598	0.463708	0.100846
C92	C	1.324598	0.963708	0.600846
C93	C	0.891732	-0.000240	-0.170264
C94	C	1.391732	0.499760	0.329736
C95	C	0.890567	-0.000247	-0.249206
C96	C	1.390567	0.499753	0.250794
C97	C	0.826365	-0.000232	-0.279442
C98	C	1.326365	0.499768	0.220558
C99	C	0.763323	-0.000219	-0.230732
C100	C	1.263323	0.499781	0.269268
C101	C	0.764489	-0.000218	-0.151791
C102	C	1.264489	0.499782	0.348209
C103	C	0.758623	-0.000224	-0.549089
C104	C	1.258623	0.499776	-0.049089
C105	C	0.757463	-0.000222	-0.628035
C106	C	1.257463	0.499778	-0.128035
C107	C	0.884702	-0.000253	-0.646503
C108	C	1.384702	0.499747	-0.146503
C109	C	0.885867	-0.000252	-0.567563
C110	C	1.385867	0.499748	-0.067563
C111	C	0.822826	-0.000243	-0.518859
C112	C	1.322826	0.499757	-0.018859
C113	C	0.824089	-0.000237	-0.433262
C114	C	1.324089	0.499763	0.066738
C115	C	0.825101	-0.000232	-0.365038
C116	C	1.325101	0.499768	0.134962
C117	C	0.819266	-0.000238	0.239243
C118	C	1.319266	0.499762	0.739243
C119	C	0.820500	-0.000244	0.323259
C120	C	1.320500	0.499756	0.823259
H121	H	0.597349	-0.000196	0.230598
H122	H	1.097349	0.499804	0.730598
O123	O	0.491437	-0.000341	-0.032715
O124	O	0.991437	0.499659	0.467285
C125	C	0.449840	-0.069005	-0.037505
C126	C	0.949840	0.430995	0.462495
H127	H	0.467022	-0.116992	0.001991
H128	H	0.967022	0.383008	0.501991
H129	H	0.456491	-0.092050	-0.098524
H130	H	0.956491	0.407950	0.401476
H131	H	0.392373	-0.053497	-0.019855
H132	H	0.892373	0.446503	0.480145
O133	O	0.918268	0.372024	-0.000941
O134	O	1.418268	0.872024	0.499059
C135	C	0.880973	0.420337	-0.047530
C136	C	1.380973	0.920337	0.452470
H137	H	0.825913	0.395222	-0.048667
H138	H	1.325913	0.895222	0.451333
H139	H	0.909569	0.421273	-0.107764
H140	H	1.409569	0.921273	0.392236
H141	H	0.877280	0.483583	-0.023836
H142	H	1.377280	0.983583	0.476164
O143	O	0.730780	0.791939	0.202595
O144	O	1.230780	1.291939	0.702595
C145	C	0.688797	0.737235	0.248140
C146	C	1.188797	1.237235	0.748140
H147	H	0.688057	0.677753	0.217111
H148	H	1.188057	1.177753	0.717111
H149	H	0.633024	0.761379	0.259828
H150	H	1.133024	1.261379	0.759828
H151	H	0.711359	0.728337	0.304310
H152	H	1.211359	1.228337	0.804310
O153	O	0.951849	-0.000364	-0.296437
O154	O	1.451849	0.499636	0.203563
C155	C	0.990841	-0.069042	-0.282765
C156	C	1.490841	0.430958	0.217235
H157	H	0.973596	-0.091928	-0.222821
H158	H	1.473596	0.408072	0.277179
H159	H	1.049080	-0.053609	-0.288510
H160	H	1.549080	0.446391	0.211490
H161	H	0.981379	-0.117123	-0.325908
H162	H	1.481379	0.382877	0.174092
H163	H	0.713157	-0.000205	-0.112137
H164	H	1.213157	0.499795	0.387863
O165	O	0.954082	-0.000114	-0.140860
O166	O	1.454082	0.499886	0.359140
C167	C	0.958553	0.068537	-0.095744
C168	C	1.458553	0.568537	0.404256
H169	H	0.922094	0.116540	-0.114296
H170	H	1.422094	0.616540	0.385704
H171	H	1.014833	0.091567	-0.103024
H172	H	1.514833	0.591567	0.396976
H173	H	0.942347	0.053019	-0.033433
H174	H	1.442347	0.553019	0.466567
H175	H	0.627981	-0.000159	-0.019698
H176	H	1.127981	0.499841	0.480302
O177	O	0.458156	-0.000080	0.239211
O178	O	0.958156	0.499920	0.739211
C179	C	0.415477	0.068560	0.242661
C180	C	0.915477	0.568560	0.742661
H181	H	0.442188	0.116565	0.203874
H182	H	0.942188	0.616565	0.703874
H183	H	0.407170	0.091595	0.303656
H184	H	0.907170	0.591595	0.803656
H185	H	0.362563	0.053023	0.223243
H186	H	0.862563	0.553023	0.723243
O187	O	0.730934	0.627465	0.202603
O188	O	1.230934	1.127465	0.702603
C189	C	0.768241	0.579184	0.249209
C190	C	1.268241	1.079184	0.749209
H191	H	0.822920	0.566649	0.218911
H192	H	1.322920	1.066649	0.718911
H193	H	0.739071	0.520520	0.261272
H194	H	1.239071	1.020520	0.761272
H195	H	0.772900	0.611341	0.305129
H196	H	1.272900	1.111341	0.805129
O197	O	0.157812	-0.000166	0.234386
O198	O	0.657812	0.499834	0.734386
C199	C	0.199385	0.068515	0.239187
C200	C	0.699385	0.568515	0.739187
H201	H	0.217615	0.091405	0.179469
H202	H	0.717615	0.591405	0.679469
H203	H	0.247028	0.053085	0.269203
H204	H	0.747028	0.553085	0.769203
H205	H	0.167130	0.116592	0.272769
H206	H	0.667130	0.616592	0.772769
O207	O	0.014265	-0.000334	0.232206
O208	O	0.514265	0.499666	0.732206
C209	C	0.054569	-0.000314	0.293849
C210	C	0.554569	0.499686	0.793849
H211	H	0.108966	-0.025404	0.274457
H212	H	0.608966	0.474596	0.774457
H213	H	0.027642	-0.038814	0.341755
H214	H	0.527642	0.461186	0.841755
H215	H	0.059691	0.063288	0.315184
H216	H	0.559691	0.563288	0.815184
O217	O	0.191040	-0.000125	-0.037513
O218	O	0.691040	0.499875	0.462487
C219	C	0.233650	0.068535	-0.040965
C220	C	0.733650	0.568535	0.459035
H221	H	0.206891	0.116523	-0.002179
H222	H	0.706891	0.616523	0.497821
H223	H	0.241933	0.091581	-0.101962
H224	H	0.741933	0.591581	0.398038
H225	H	0.286580	0.053022	-0.021548
H226	H	0.786580	0.553022	0.478452
O227	O	0.948190	-0.000374	-0.538103
O228	O	1.448190	0.499626	-0.038103
C229	C	0.952682	-0.069049	-0.493001
C230	C	1.452682	0.430951	0.006999
H231	H	0.897620	-0.091923	-0.473154
H232	H	1.397620	0.408077	0.026846
H233	H	0.980426	-0.053616	-0.441401
H234	H	1.480426	0.446384	0.058599
H235	H	0.983633	-0.117138	-0.527977
H236	H	1.483633	0.382862	-0.027977
O237	O	0.918377	0.207603	-0.000944
O238	O	1.418377	0.707603	0.499056
C239	C	0.960372	0.262315	-0.046467
C240	C	1.460372	0.762315	0.453533
H241	H	0.931753	0.321816	-0.047241
H242	H	1.431753	0.821816	0.452759
H243	H	0.971127	0.238211	-0.106942
H244	H	1.471127	0.738211	0.393058
H245	H	1.012194	0.271159	-0.022030
H246	H	1.512194	0.771159	0.477970
O247	O	0.695111	-0.000075	-0.657444
O248	O	1.195111	0.499925	-0.157444
C249	C	0.690624	0.068579	-0.702576
C250	C	1.190624	0.568579	-0.202576
H251	H	0.727065	0.116566	-0.684028
H252	H	1.227065	0.616566	-0.184028
H253	H	0.634337	0.091632	-0.695309
H254	H	1.134337	0.591632	-0.195309
H255	H	0.706842	0.053054	-0.764882
H256	H	1.206842	0.553054	-0.264882
H257	H	0.910908	0.634040	0.007252
H258	H	1.410908	1.134040	0.507252
O259	O	0.697323	-0.000169	-0.501893
O260	O	1.197323	0.499831	-0.001893
C261	C	0.640410	-0.000170	-0.545511
C262	C	1.140410	0.499830	-0.045511
H263	H	0.658234	0.024922	-0.604493
H264	H	1.158234	0.524922	-0.104493
H265	H	0.596247	0.038337	-0.516252
H266	H	1.096247	0.538337	-0.016252
H267	H	0.620727	-0.063767	-0.551059
H268	H	1.120727	0.436233	-0.051059
H269	H	0.738290	0.365500	0.194440
H270	H	1.238290	0.865500	0.694440
H271	H	0.936033	-0.000264	-0.686167
H272	H	1.436033	0.499736	-0.186167
H273	H	0.051841	-0.000338	-0.028899
H274	H	0.551841	0.499662	0.471101
O275	O	0.918327	0.792114	-0.000827
O276	O	1.418327	1.292114	0.499173
C277	C	0.908149	0.874721	0.010245
C278	C	1.408149	1.374721	0.510245
H279	H	0.852593	0.886145	0.038679
H280	H	1.352593	1.386145	0.538679
H281	H	0.916022	0.906440	-0.047095
H282	H	1.416022	1.406440	0.452905
H283	H	0.947599	0.898376	0.048103
H284	H	1.447599	1.398376	0.548103
H285	H	0.738276	0.214100	0.194439
H286	H	1.238276	0.714100	0.694439
O287	O	0.701018	-0.000169	-0.260227
O288	O	1.201018	0.499831	0.239773
C289	C	0.713505	-0.000191	-0.340345
C290	C	1.213505	0.499809	0.159655
H291	H	0.768020	0.024895	-0.359068
H292	H	1.268020	0.524895	0.140932
H293	H	0.672426	0.038311	-0.364451
H294	H	1.172426	0.538311	0.135549
H295	H	0.710165	-0.063793	-0.362303
H296	H	1.210165	0.436207	0.137697
