data_functionalizedCrystal
_audit_creation_method	'MofGen! by Chris Wilmer'
_symmetry_space_group_name_H-M	'P1'
_symmetry_Int_Tables_number	1
_symmetry_cell_setting	triclinic
loop_
_symmetry_equiv_pos_as_xyz
  x,y,z
_cell_length_a	17.000383
_cell_length_b	15.944545
_cell_length_c	15.021413
_cell_angle_alpha	89.990408
_cell_angle_beta	89.997113
_cell_angle_gamma	79.548238
loop_
_atom_site_label
_atom_site_type_symbol
_atom_site_fract_x
_atom_site_fract_y
_atom_site_fract_z
O1	O	0.102624	1.106930	0.073973
O2	O	0.435957	1.440263	0.407306
O3	O	0.769291	1.773596	0.740639
O4	O	0.115285	0.861443	0.073987
O5	O	0.448619	1.194777	0.407320
O6	O	0.781952	1.528110	0.740654
O7	O	-0.006911	0.999428	0.073976
O8	O	0.326422	1.332761	0.407309
O9	O	0.659756	1.666095	0.740642
O10	O	0.224820	0.968945	0.073984
O11	O	0.558154	1.302278	0.407318
O12	O	0.891487	1.635612	0.740651
O13	O	-0.006903	0.999443	-0.074089
O14	O	0.326430	1.332776	0.259245
O15	O	0.659763	1.666109	0.592578
O16	O	0.115293	0.861458	-0.074077
O17	O	0.448626	1.194791	0.259256
O18	O	0.781960	1.528125	0.592589
O19	O	0.102632	1.106944	-0.074091
O20	O	0.435965	1.440277	0.259242
O21	O	0.769298	1.773611	0.592575
Zn22	Zn	0.108964	0.984203	-0.097593
Zn23	Zn	0.442297	1.317537	0.235741
Zn24	Zn	0.775630	1.650870	0.569074
Zn25	Zn	0.108954	0.984184	0.097488
Zn26	Zn	0.442287	1.317518	0.430822
Zn27	Zn	0.775620	1.650851	0.764155
O28	O	0.224828	0.968959	-0.074080
O29	O	0.558161	1.302293	0.259253
O30	O	0.891495	1.635626	0.592587
C31	C	0.114764	0.830195	-0.000043
C32	C	0.448098	1.163529	0.333290
C33	C	0.781431	1.496862	0.666623
C34	C	0.113191	0.737065	-0.000038
C35	C	0.446525	1.070399	0.333295
C36	C	0.779858	1.403732	0.666629
C37	C	0.032748	0.472378	-0.000050
C38	C	0.366081	0.805711	0.333283
C39	C	0.699414	1.139045	0.666616
C40	C	0.071535	0.520100	-0.073054
C41	C	0.404868	0.853434	0.260279
C42	C	0.738201	1.186767	0.593612
C43	C	0.107581	0.401836	-0.000053
C44	C	0.440914	0.735170	0.333280
C45	C	0.774248	1.068503	0.666613
C46	C	0.071547	0.520065	0.072925
C47	C	0.404881	0.853399	0.406259
C48	C	0.738214	1.186732	0.739592
C49	C	0.110333	0.566546	-0.000044
C50	C	0.443667	0.899880	0.333289
C51	C	0.777000	1.233213	0.666622
C52	C	0.146348	0.448332	-0.073118
C53	C	0.479682	0.781665	0.260216
C54	C	0.813015	1.114998	0.593549
C55	C	0.146350	0.448294	0.072928
C56	C	0.479683	0.781627	0.406261
C57	C	0.813017	1.114961	0.739594
C58	C	0.185192	0.495979	-0.000094
C59	C	0.518525	0.829313	0.333239
C60	C	0.851859	1.162646	0.666572
C61	C	0.105993	0.306951	-0.000059
C62	C	0.439327	0.640285	0.333274
C63	C	0.772660	0.973618	0.666607
C64	C	0.111927	0.661428	-0.000045
C65	C	0.445260	0.994761	0.333289
C66	C	0.778594	1.328095	0.666622
C67	C	-0.036561	1.001072	-0.000056
C68	C	0.296773	1.334406	0.333278
C69	C	0.630106	1.667739	0.666611
C70	C	-0.124919	1.005941	-0.000053
C71	C	0.208414	1.339274	0.333280
C72	C	0.541748	1.672607	0.666614
C73	C	-0.625135	1.037375	-0.000051
C74	C	-0.291802	1.370709	0.333282
C75	C	0.041532	1.704042	0.666615
C76	C	-0.542112	1.032794	-0.000056
C77	C	-0.208779	1.366128	0.333277
C78	C	0.124555	1.699461	0.666610
C79	C	-0.491120	0.953285	-0.000048
C80	C	-0.157787	1.286618	0.333286
C81	C	0.175547	1.619951	0.666619
C82	C	-0.523154	0.878351	-0.000043
C83	C	-0.189821	1.211684	0.333291
C84	C	0.143513	1.545017	0.666624
C85	C	-0.606176	0.882932	-0.000044
C86	C	-0.272842	1.216266	0.333289
C87	C	0.060491	1.549599	0.666623
C88	C	-0.239975	0.935588	-0.000049
C89	C	0.093359	1.268922	0.333284
C90	C	0.426692	1.602255	0.666617
C91	C	-0.156948	0.931012	-0.000045
C92	C	0.176385	1.264346	0.333288
C93	C	0.509719	1.597679	0.666621
C94	C	-0.175912	1.085457	-0.000061
C95	C	0.157422	1.418790	0.333273
C96	C	0.490755	1.752123	0.666606
C97	C	-0.258934	1.090031	-0.000057
C98	C	0.074399	1.423365	0.333277
C99	C	0.407733	1.756698	0.666610
C100	C	-0.290961	1.015097	-0.000056
C101	C	0.042372	1.348431	0.333277
C102	C	0.375706	1.681764	0.666610
C103	C	-0.406257	0.948600	-0.000050
C104	C	-0.072924	1.281934	0.333283
C105	C	0.260410	1.615267	0.666617
C106	C	-0.375822	1.019782	-0.000060
C107	C	-0.042489	1.353116	0.333273
C108	C	0.290844	1.686449	0.666606
C109	C	0.254478	0.967315	-0.000047
C110	C	0.587811	1.300648	0.333286
C111	C	0.921144	1.633982	0.666620
C112	C	0.342836	0.962447	-0.000044
C113	C	0.676169	1.295780	0.333290
C114	C	1.009503	1.629114	0.666623
N115	N	0.108970	0.984222	-0.230730
N116	N	0.442303	1.317556	0.102603
N117	N	0.775637	1.650889	0.435936
C118	C	0.103153	1.138192	-0.000059
C119	C	0.436486	1.471525	0.333274
C120	C	0.769819	1.804859	0.666607
C121	C	0.104726	1.231322	-0.000059
C122	C	0.438059	1.564655	0.333275
C123	C	0.771392	1.897989	0.666608
C124	C	0.052453	1.048039	-0.470395
C125	C	0.385787	1.381373	-0.137062
C126	C	0.719120	1.714706	0.196272
C127	C	0.036993	0.973282	-0.529720
C128	C	0.370326	1.306615	-0.196387
C129	C	0.703660	1.639949	0.136946
C130	C	0.108960	0.984204	-0.412337
C131	C	0.442293	1.317537	-0.079004
C132	C	0.775627	1.650870	0.254329
C133	C	0.124373	1.058946	-0.529754
C134	C	0.457707	1.392279	-0.196421
C135	C	0.791040	1.725612	0.136913
C136	C	0.108948	0.984193	-0.587761
C137	C	0.442282	1.317526	-0.254428
C138	C	0.775615	1.650859	0.078905
C139	C	0.093464	0.909411	-0.470356
C140	C	0.426797	1.242744	-0.137023
C141	C	0.760131	1.576077	0.196311
C142	C	0.180875	0.995122	-0.470384
C143	C	0.514209	1.328455	-0.137051
C144	C	0.847542	1.661789	0.196282
C145	C	0.165446	0.920308	-0.529683
C146	C	0.498779	1.253641	-0.196349
C147	C	0.832112	1.586974	0.136984
C148	C	0.108964	0.984211	-0.311280
C149	C	0.442298	1.317545	0.022053
C150	C	0.775631	1.650878	0.355387
C151	C	0.108944	0.984176	-0.688817
C152	C	0.442278	1.317509	-0.355483
C153	C	0.775611	1.650843	-0.022150
N154	N	0.108941	0.984172	0.230626
N155	N	0.442274	1.317505	0.563959
N156	N	0.775608	1.650839	0.897293
H157	H	0.039934	0.551373	-0.134776
H158	H	0.373267	0.884706	0.198557
H159	H	0.706600	1.218040	0.531891
H160	H	-0.031700	0.461488	-0.000124
H161	H	0.301634	0.794821	0.333210
H162	H	0.634967	1.128155	0.666543
H163	H	-0.300447	1.154777	-0.000068
H164	H	0.032886	1.488110	0.333266
H165	H	0.366219	1.821443	0.666599
H166	H	-0.666648	1.102121	-0.000051
H167	H	-0.333315	1.435454	0.333282
H168	H	0.000019	1.768788	0.666616
H169	H	-0.481629	0.813612	-0.000041
H170	H	-0.148296	1.146945	0.333292
H171	H	0.185037	1.480279	0.666626
H172	H	-0.516039	1.093809	-0.000064
H173	H	-0.182705	1.427142	0.333270
H174	H	0.150628	1.760476	0.666603
H175	H	-0.149826	1.146464	-0.000054
H176	H	0.183507	1.479797	0.333280
H177	H	0.516841	1.813130	0.666613
H178	H	0.177932	0.417194	-0.134903
H179	H	0.511265	0.750528	0.198430
H180	H	0.844598	1.083861	0.531763
H181	H	0.213229	0.866264	-0.555550
H182	H	0.546563	1.199597	-0.222217
H183	H	0.879896	1.532931	0.111116
H184	H	0.249689	0.506704	-0.000135
H185	H	0.583022	0.840038	0.333199
H186	H	0.916356	1.173371	0.666532
H187	H	-0.417344	1.084519	-0.000072
H188	H	-0.084010	1.417852	0.333262
H189	H	0.249323	1.751185	0.666595
H190	H	-0.023829	0.964035	-0.555784
H191	H	0.309504	1.297369	-0.222451
H192	H	0.642838	1.630702	0.110882
H193	H	0.080353	0.846188	-0.444375
H194	H	0.413686	1.179521	-0.111042
H195	H	0.747020	1.512855	0.222292
H196	H	0.177923	0.417008	0.134651
H197	H	0.511256	0.750341	0.467985
H198	H	0.844590	1.083675	0.801318
H199	H	-0.115431	0.866262	-0.000041
H200	H	0.217902	1.199596	0.333292
H201	H	0.551236	1.532929	0.666626
H202	H	-0.266040	0.874572	-0.000039
H203	H	0.067293	1.207905	0.333295
H204	H	0.400626	1.541238	0.666628
H205	H	0.137416	1.122159	-0.555845
H206	H	0.470749	1.455492	-0.222511
H207	H	0.804082	1.788825	0.110822
H208	H	0.241679	1.004394	-0.444301
H209	H	0.575012	1.337727	-0.110968
H210	H	0.908345	1.671061	0.222365
H211	H	0.039927	0.551313	0.134641
H212	H	0.373261	0.884647	0.467974
H213	H	0.706594	1.217980	0.801307
H214	H	-0.632252	0.821917	-0.000045
H215	H	-0.298918	1.155251	0.333288
H216	H	0.034415	1.488584	0.666621
H217	H	-0.364730	0.883863	-0.000039
H218	H	-0.031397	1.217197	0.333294
H219	H	0.301937	1.550530	0.666627
H220	H	0.004641	1.101972	-0.444362
H221	H	0.337975	1.435305	-0.111029
H222	H	0.671308	1.768639	0.222305
