data_functionalizedCrystal
_audit_creation_method	'MofGen! by Chris Wilmer'
_symmetry_space_group_name_H-M	'P1'
_symmetry_Int_Tables_number	1
_symmetry_cell_setting	triclinic
loop_
_symmetry_equiv_pos_as_xyz
  x,y,z
_cell_length_a	16.120530
_cell_length_b	16.959454
_cell_length_c	16.959447
_cell_angle_alpha	90.026736
_cell_angle_beta	87.087433
_cell_angle_gamma	92.884212
loop_
_atom_site_label
_atom_site_type_symbol
_atom_site_fract_x
_atom_site_fract_y
_atom_site_fract_z
Zn1	Zn	1.274530	0.376020	-0.508156
Zn2	Zn	1.274449	0.508208	-0.375981
Zn3	Zn	1.135124	0.369341	-0.369296
Zn4	Zn	1.135086	0.501448	-0.501425
O5	O	1.204797	0.438754	-0.438715
O6	O	1.391185	0.399180	-0.496237
O7	O	1.255948	0.489822	-0.264483
O8	O	1.153666	0.259618	-0.387735
O9	O	1.391125	0.496298	-0.399129
O10	O	1.256088	0.264525	-0.489755
O11	O	1.153587	0.387796	-0.259571
O12	O	1.018453	0.381241	-0.381209
O13	O	1.153603	0.484775	-0.612930
O14	O	1.018426	0.478299	-0.478283
O15	O	1.256051	0.392624	-0.617875
O16	O	1.255912	0.617920	-0.392603
O17	O	1.153523	0.612953	-0.484766
C18	C	1.204727	0.644117	-0.438698
C19	C	1.204774	0.731976	-0.438721
C20	C	0.988189	0.428312	-0.428291
C21	C	0.895523	0.423864	-0.423850
C22	C	1.204832	0.438690	-0.644885
C23	C	1.204847	0.438663	-0.732742
C24	C	0.725862	0.415724	-0.415750
C25	C	0.684573	0.461843	-0.461737
C26	C	0.590168	0.457314	-0.457230
C27	C	0.820276	0.420252	-0.420256
C28	C	1.422251	0.449238	-0.449180
C29	C	1.514917	0.453705	-0.453639
C30	C	1.204890	0.232590	-0.438750
C31	C	1.204930	0.144736	-0.438765
C32	C	1.151561	1.100900	-0.486702
C33	C	1.258266	1.106016	-0.390819
C34	C	1.258237	1.023469	-0.390810
C35	C	1.204868	0.979633	-0.438747
C36	C	1.151528	1.018345	-0.486693
C37	C	1.311570	0.984751	-0.342859
C38	C	1.311542	0.902199	-0.342848
C39	C	1.258177	0.858362	-0.390790
C40	C	1.204835	0.897078	-0.438738
C41	C	1.151467	0.853243	-0.486676
C42	C	1.098129	0.891958	-0.534629
C43	C	1.098163	0.974508	-0.534635
C44	C	1.258143	0.775812	-0.390783
C45	C	1.151434	0.770687	-0.486667
C46	C	1.151606	0.486564	-1.101650
C47	C	1.258287	0.390606	-1.106795
C48	C	1.258265	0.390622	-1.024248
C49	C	1.204913	0.438610	-0.980398
C50	C	1.151584	0.486583	-1.019096
C51	C	1.311599	0.342656	-0.985544
C52	C	1.311579	0.342670	-0.902992
C53	C	1.258223	0.390655	-0.859141
C54	C	1.204891	0.438629	-0.897844
C55	C	1.151540	0.486617	-0.853994
C56	C	1.098203	0.534587	-0.892695
C57	C	1.098228	0.534567	-0.975245
C58	C	1.258198	0.390675	-0.776591
C59	C	1.151517	0.486636	-0.771440
C60	C	1.204811	0.438763	-0.233349
C61	C	1.204957	0.438575	-0.145500
H62	H	0.690312	0.372843	-0.372996
H63	H	1.107978	0.735001	-0.525706
H64	H	0.720125	0.504727	-0.504494
O65	O	1.040567	0.844676	-0.586334
H66	H	1.049512	0.780771	-0.578269
O67	O	1.040637	1.016268	-0.586348
H68	H	1.003526	0.971921	-0.619687
O69	O	1.094023	1.142648	-0.538413
H70	H	1.103002	1.207415	-0.530363
H71	H	1.355040	0.303591	-1.021252
O72	O	1.315849	1.153291	-0.339139
H73	H	1.306922	1.217198	-0.347211
H74	H	1.054768	0.573663	-0.856982
H75	H	1.355013	1.020448	-0.303825
H76	H	1.354973	0.870682	-0.303803
O77	O	1.369103	0.290934	-0.861252
H78	H	1.354834	0.228205	-0.876422
O79	O	1.315665	0.734051	-0.339073
H80	H	1.352783	0.778402	-0.305742
O81	O	1.093955	0.538377	-0.724143
H82	H	1.056871	0.571724	-0.764925
O83	O	1.040703	0.586303	-1.016983
H84	H	1.049688	0.578232	-1.081752
H85	H	1.108178	0.525618	-1.133164
O86	O	1.315806	0.338825	-1.154082
H87	H	1.306850	0.346860	-1.217985
H88	H	1.301627	0.351621	-0.745085
