data_functionalizedCrystal
_audit_creation_method	'MofGen! by Chris Wilmer'
_symmetry_space_group_name_H-M	'P1'
_symmetry_Int_Tables_number	1
_symmetry_cell_setting	triclinic
loop_
_symmetry_equiv_pos_as_xyz
  x,y,z
_cell_length_a	14.044220
_cell_length_b	10.723024
_cell_length_c	9.798715
_cell_angle_alpha	89.998022
_cell_angle_beta	90.001156
_cell_angle_gamma	88.828374
loop_
_atom_site_label
_atom_site_type_symbol
_atom_site_fract_x
_atom_site_fract_y
_atom_site_fract_z
O1	O	-1.259663	-0.301050	0.113339
O2	O	-0.983624	-0.290186	0.113374
O3	O	-1.128011	-0.114679	0.113351
O4	O	-1.115276	-0.476557	0.113363
O5	O	-1.128000	-0.114677	-0.113631
O6	O	-0.983613	-0.290184	-0.113608
O7	O	-1.259653	-0.301048	-0.113643
Zn8	Zn	-1.121631	-0.295616	-0.149664
Zn9	Zn	-1.121645	-0.295618	0.149395
O10	O	-1.115265	-0.476555	-0.113620
C11	C	-1.127079	-0.068086	-0.000138
C12	C	-1.124306	0.070746	-0.000133
C13	C	-0.948273	-0.285430	-0.000112
C14	C	-0.842955	-0.271245	-0.000099
C15	C	-1.295003	-0.305804	-0.000153
C16	C	-1.400321	-0.319989	-0.000157
C17	C	-0.650125	-0.245313	-0.000127
C18	C	-0.593146	-0.345915	-0.000130
C19	C	-0.485848	-0.331486	-0.000145
C20	C	-0.757432	-0.259740	-0.000112
C21	C	-1.116197	-0.523149	-0.000127
C22	C	-1.118970	-0.661980	-0.000123
N23	N	-1.121628	-0.295615	-0.353763
C24	C	-1.205097	0.137646	-0.000142
C25	C	-1.202234	0.281136	-0.000136
C26	C	-1.182252	-0.221572	-0.421550
C27	C	-1.182268	-0.221570	-0.578713
N28	N	-1.121655	-0.295610	0.353495
H29	H	-0.618325	-0.148357	-0.000138
C30	C	-1.052401	-0.380279	-0.569043
C31	C	-0.996502	-0.448607	-0.662056
C32	C	-0.932703	-0.526629	-0.590738
H33	H	-1.012462	-0.331175	-0.513301
H34	H	-1.086987	-0.435980	-0.513326
H35	H	-0.961918	-0.392913	-0.717749
H36	H	-1.036414	-0.497736	-0.717801
H37	H	-0.967290	-0.582330	-0.535021
H38	H	-0.892771	-0.477515	-0.534998
H39	H	-0.894774	-0.573007	-0.653835
H40	H	-1.234141	-0.158178	-0.363236
C41	C	-1.300064	0.072154	-0.000225
C42	C	-1.284024	-0.057147	-0.000261
C43	C	-1.371487	-0.117515	-0.000357
H44	H	-1.335204	0.095486	0.078901
H45	H	-1.335130	0.095568	-0.079416
H46	H	-1.248973	-0.080552	0.078922
H47	H	-1.248898	-0.080516	-0.079382
H48	H	-1.406553	-0.094100	-0.079548
H49	H	-1.406621	-0.094173	0.078771
H50	H	-1.360616	-0.205251	-0.000393
C51	C	-1.294433	0.357875	0.000138
C52	C	-1.297923	0.433045	0.116935
C53	C	-1.382851	0.503744	0.117244
H54	H	-1.297044	0.409096	-0.078922
H55	H	-1.347069	0.303613	0.000205
H56	H	-1.245301	0.487301	0.116856
H57	H	-1.295327	0.381856	0.196013
H58	H	-1.435487	0.449482	0.117310
H59	H	-1.385455	0.554957	0.038179
H60	H	-1.385234	0.554746	0.196494
H61	H	-1.069733	-0.358998	-0.412079
C62	C	-1.251630	-0.137195	-0.656355
C63	C	-1.345060	-0.167538	-0.621706
C64	C	-1.408984	-0.089845	-0.693219
H65	H	-1.240748	-0.052686	-0.633066
H66	H	-1.242507	-0.148438	-0.751670
H67	H	-1.354180	-0.156284	-0.526413
H68	H	-1.355973	-0.252033	-0.645000
H69	H	-1.399861	-0.101088	-0.788533
H70	H	-1.398092	-0.005341	-0.669923
H71	H	-1.472383	-0.110429	-0.669729
C72	C	-1.026768	0.261288	0.000169
C73	C	-1.023289	0.186104	0.116961
C74	C	-0.938361	0.115405	0.117287
H75	H	-1.024149	0.210076	-0.078893
H76	H	-0.974131	0.315550	0.000253
H77	H	-1.075911	0.131848	0.116865
H78	H	-1.025892	0.237283	0.196043
H79	H	-0.885725	0.169666	0.117371
H80	H	-0.935750	0.064201	0.038220
H81	H	-0.935985	0.064393	0.196535
C82	C	-0.635724	-0.475104	-0.000006
C83	C	-0.735226	-0.463922	0.000059
C84	C	-0.774486	-0.582898	0.000210
H85	H	-0.615337	-0.519320	-0.079124
H86	H	-0.615256	-0.519173	0.079194
H87	H	-0.755686	-0.419872	-0.079132
H88	H	-0.755640	-0.419727	0.079171
H89	H	-0.754018	-0.626967	0.079410
H90	H	-0.754092	-0.627105	-0.078909
H91	H	-0.842002	-0.575327	0.000267
H92	H	-1.053017	0.119700	-0.000115
