data_functionalizedCrystal
_audit_creation_method	'MofGen! by Chris Wilmer'
_symmetry_space_group_name_H-M	'P1'
_symmetry_Int_Tables_number	1
_symmetry_cell_setting	triclinic
loop_
_symmetry_equiv_pos_as_xyz
  x,y,z
_cell_length_a	10.654550
_cell_length_b	14.421503
_cell_length_c	10.654550
_cell_angle_alpha	89.995515
_cell_angle_beta	84.484931
_cell_angle_gamma	90.004464
loop_
_atom_site_label
_atom_site_type_symbol
_atom_site_fract_x
_atom_site_fract_y
_atom_site_fract_z
O1	O	1.667849	0.077042	0.176382
O2	O	2.167849	0.577042	0.676382
O3	O	1.302370	0.077059	0.193188
O4	O	1.802370	0.577059	0.693188
O5	O	1.493512	0.077044	0.002046
O6	O	1.993512	0.577044	0.502046
O7	O	1.476706	0.077057	0.367524
O8	O	1.976706	0.577057	0.867524
O9	O	1.493481	-0.077179	0.002074
O10	O	1.993481	0.422821	0.502074
O11	O	1.302339	-0.077164	0.193216
O12	O	1.802339	0.422836	0.693216
O13	O	1.667817	-0.077181	0.176410
O14	O	2.167817	0.422819	0.676410
Cu15	Cu	1.485075	-0.091255	0.184816
Cu16	Cu	1.985075	0.408745	0.684816
Cu17	Cu	1.485112	0.091133	0.184782
Cu18	Cu	1.985112	0.591133	0.684782
O19	O	1.476675	-0.077167	0.367552
O20	O	1.976675	0.422833	0.867552
C21	C	1.255556	-0.000050	0.191968
C22	C	1.755556	0.499950	0.691968
C23	C	1.116113	-0.000044	0.188276
C24	C	1.616113	0.499956	0.688276
N25	N	1.485058	-0.219536	0.184839
N26	N	1.985058	0.280464	0.684839
C27	C	1.036628	-0.000043	0.300818
C28	C	1.536628	0.499957	0.800818
C29	C	0.905607	-0.000059	0.297341
C30	C	1.405607	0.499941	0.797341
C31	C	0.933570	-0.000074	0.068772
C32	C	1.433570	0.499926	0.568772
C33	C	1.064588	-0.000064	0.072250
C34	C	1.564588	0.499936	0.572250
C35	C	1.396657	-0.469183	0.273183
C36	C	1.896657	0.030817	0.773183
C37	C	1.510354	-0.530990	0.298548
C38	C	2.010354	-0.030990	0.798548
C39	C	1.485088	-0.408697	0.184809
C40	C	1.985088	0.091303	0.684809
C41	C	1.371421	-0.530984	0.159474
C42	C	1.871421	-0.030984	0.659474
C43	C	1.485107	-0.591419	0.184783
C44	C	1.985107	-0.091419	0.684783
C45	C	1.598843	-0.469143	0.210231
C46	C	2.098843	0.030857	0.710231
C47	C	1.459834	-0.469132	0.071107
C48	C	1.959834	0.030868	0.571107
C49	C	1.573612	-0.530912	0.096424
C50	C	2.073612	-0.030912	0.596424
C51	C	1.485075	-0.303436	0.184827
C52	C	1.985075	0.196564	0.684827
C53	C	1.485133	-0.696678	0.184764
C54	C	1.985133	-0.196678	0.684764
C55	C	1.714631	-0.000070	0.177630
C56	C	2.214631	0.499930	0.677630
C57	C	1.854074	-0.000070	0.181322
C58	C	2.354074	0.499930	0.681322
C59	C	1.492263	-0.000067	-0.044738
C60	C	1.992263	0.499933	0.455262
C61	C	1.488571	-0.000065	-0.184181
C62	C	1.988571	0.499935	0.315819
N63	N	1.485139	0.219414	0.184749
N64	N	1.985139	0.719414	0.684749
C65	C	1.601112	-0.000070	-0.263667
C66	C	2.101112	0.499930	0.236333
C67	C	1.597636	-0.000059	-0.394688
C68	C	2.097636	0.499941	0.105312
C69	C	1.369066	-0.000041	-0.366725
C70	C	1.869066	0.499959	0.133275
C71	C	1.372544	-0.000046	-0.235706
C72	C	1.872544	0.499954	0.264294
C73	C	1.477925	-0.000053	0.414336
C74	C	1.977925	0.499947	0.914336
C75	C	1.481616	-0.000049	0.553779
C76	C	1.981616	0.499951	1.053779
H77	H	1.078574	-0.000033	0.395294
H78	H	1.578574	0.499967	0.895294
F79	F	1.252755	-0.000034	-0.151106
F80	F	1.752755	0.499966	0.348894
F81	F	1.245589	-0.000020	-0.421573
F82	F	1.745589	0.499980	0.078427
H83	H	0.891602	-0.000096	-0.025693
H84	H	1.391602	0.499904	0.474307
F85	F	1.149188	-0.000072	-0.047539
F86	F	1.649188	0.499928	0.452461
F87	F	1.724529	-0.433791	0.238371
F88	F	2.224529	0.066209	0.738371
H89	H	1.321952	-0.442079	0.347979
H90	H	1.821952	0.057921	0.847979
F91	F	0.821017	-0.000059	0.417124
F92	F	1.321017	0.499941	0.917124
F93	F	1.538299	-0.566504	0.424213
F94	F	2.038299	-0.066504	0.924213
F95	F	1.431846	-0.433588	-0.054521
F96	F	1.931846	0.066412	0.445479
H97	H	1.648486	-0.557845	0.021675
H98	H	2.148486	-0.057845	0.521675
H99	H	1.275286	-0.558150	0.138057
H100	H	1.775286	-0.058150	0.638057
H101	H	1.695588	-0.000084	-0.221720
H102	H	2.195588	0.499916	0.278280
H103	H	1.689279	-0.000061	-0.459401
H104	H	2.189279	0.499939	0.040599
