data_functionalizedCrystal
_audit_creation_method	'MofGen! by Chris Wilmer'
_symmetry_space_group_name_H-M	'P1'
_symmetry_Int_Tables_number	1
_symmetry_cell_setting	triclinic
loop_
_symmetry_equiv_pos_as_xyz
  x,y,z
_cell_length_a	10.654549
_cell_length_b	10.654543
_cell_length_c	9.730223
_cell_angle_alpha	90.001375
_cell_angle_beta	90.003420
_cell_angle_gamma	95.516525
loop_
_atom_site_label
_atom_site_type_symbol
_atom_site_fract_x
_atom_site_fract_y
_atom_site_fract_z
O1	O	0.176358	-1.667844	0.114139
O2	O	0.193173	-1.302364	0.114174
O3	O	0.002026	-1.493507	0.114150
O4	O	0.367505	-1.476701	0.114163
O5	O	0.002021	-1.493495	-0.114430
O6	O	0.193168	-1.302352	-0.114406
O7	O	0.176353	-1.667831	-0.114441
Zn8	Zn	0.184760	-1.485090	-0.150716
Zn9	Zn	0.184767	-1.485106	0.150448
O10	O	0.367500	-1.476688	-0.114417
C11	C	0.191938	-1.255560	-0.000112
C12	C	0.188249	-1.116116	-0.000098
C13	C	-0.044774	-1.492267	-0.000139
C14	C	-0.184217	-1.488575	-0.000134
C15	C	-0.394735	-1.597639	-0.000135
C16	C	-0.263714	-1.601117	-0.000146
C17	C	-0.235747	-1.372547	-0.000125
C18	C	-0.366765	-1.369070	-0.000123
C19	C	0.300793	-1.036630	-0.000096
C20	C	0.297319	-0.905609	-0.000117
C21	C	0.068749	-0.933573	-0.000136
C22	C	0.072224	-1.064591	-0.000125
C23	C	0.414301	-1.477928	-0.000126
C24	C	0.553744	-1.481620	-0.000121
C25	C	0.177595	-0.714635	-0.000146
C26	C	0.181301	-0.854076	-0.000130
N27	N	0.184754	-1.485088	-0.356252
C28	C	0.100150	-1.569755	-0.428189
C29	C	0.100151	-1.569767	-0.572071
C30	C	0.269370	-1.400441	-0.572069
C31	C	0.269363	-1.400424	-0.428188
N32	N	0.184762	-1.485118	0.355985
H33	H	-0.459453	-1.689285	-0.000133
H34	H	0.031257	-1.638710	-0.630638
C35	C	0.361025	-1.308353	-0.350000
C36	C	0.293401	-1.230869	-0.267443
C37	C	0.377789	-1.146032	-0.195408
H38	H	0.413751	-1.353831	-0.293746
H39	H	0.411405	-1.257865	-0.413401
H40	H	0.243042	-1.281351	-0.204049
H41	H	0.240679	-1.185364	-0.323663
H42	H	0.428170	-1.095544	-0.258810
H43	H	0.430511	-1.191520	-0.139162
H44	H	0.331919	-1.093442	-0.139395
C45	C	-0.422640	-1.243061	0.000177
C46	C	-0.382359	-1.174977	0.117801
C47	C	-0.433819	-1.058906	0.118129
H48	H	-0.395464	-1.196516	-0.079435
H49	H	-0.512060	-1.257058	0.000248
H50	H	-0.292958	-1.160976	0.117718
H51	H	-0.409534	-1.221484	0.197433
H52	H	-0.523239	-1.072903	0.118199
H53	H	-0.406639	-1.012372	0.038511
H54	H	-0.406505	-1.012702	0.197941
H55	H	-0.171010	-1.280914	-0.000123
H56	H	0.338258	-1.331512	-0.630654
H57	H	-0.019428	-1.129313	-0.000131
C58	C	0.419649	-0.819520	-0.000039
C59	C	0.521995	-0.892692	0.000020
C60	C	0.634710	-0.813431	0.000108
H61	H	0.423229	-0.767811	-0.079734
H62	H	0.423111	-0.767838	0.079698
H63	H	0.518535	-0.944353	-0.079709
H64	H	0.518457	-0.944399	0.079709
H65	H	0.638171	-0.761749	0.079845
H66	H	0.638277	-0.761726	-0.079588
H67	H	0.704165	-0.863067	0.000161
H68	H	-0.025715	-0.891605	-0.000166
C69	C	0.008143	-1.661718	-0.350333
C70	C	-0.065972	-1.735844	-0.444136
C71	C	-0.150758	-1.820562	-0.372471
H72	H	0.053657	-1.714501	-0.294187
H73	H	-0.044629	-1.616112	-0.294249
H74	H	-0.013206	-1.781446	-0.500197
H75	H	-0.111512	-1.683096	-0.500285
H76	H	-0.203531	-1.774956	-0.316386
H77	H	-0.105235	-1.873335	-0.316327
H78	H	-0.201063	-1.870858	-0.436104
H79	H	0.395268	-1.078577	-0.000085
H80	H	-0.221773	-1.695591	-0.000159
