data_functionalizedCrystal
_audit_creation_method	'MofGen! by Chris Wilmer'
_symmetry_space_group_name_H-M	'P1'
_symmetry_Int_Tables_number	1
_symmetry_cell_setting	triclinic
loop_
_symmetry_equiv_pos_as_xyz
  x,y,z
_cell_length_a	15.995350
_cell_length_b	16.109301
_cell_length_c	14.472310
_cell_angle_alpha	90.001991
_cell_angle_beta	90.010588
_cell_angle_gamma	83.476928
loop_
_atom_site_label
_atom_site_type_symbol
_atom_site_fract_x
_atom_site_fract_y
_atom_site_fract_z
O1	O	-1.110969	-0.107160	-0.076766
O2	O	-0.610969	0.392840	0.423234
O3	O	-0.867190	-0.120394	-0.076785
O4	O	-0.367190	0.379606	0.423215
O5	O	-0.995776	0.007252	-0.076765
O6	O	-0.495776	0.507252	0.423235
O7	O	-0.982383	-0.234806	-0.076785
O8	O	-0.482383	0.265194	0.423215
O9	O	-0.995740	0.007243	0.076917
O10	O	-0.495740	0.507243	0.576917
O11	O	-0.867154	-0.120403	0.076897
O12	O	-0.367154	0.379597	0.576897
O13	O	-1.110933	-0.107169	0.076916
O14	O	-0.610933	0.392831	0.576916
Cu15	Cu	-0.989040	-0.113787	0.090939
Cu16	Cu	-0.489040	0.386213	0.590939
Cu17	Cu	-0.989083	-0.113776	-0.090808
Cu18	Cu	-0.489083	0.386224	0.409192
O19	O	-0.982346	-0.234815	0.076897
O20	O	-0.482346	0.265185	0.576897
C21	C	-0.835977	-0.119851	0.000054
C22	C	-0.335977	0.380149	0.500054
C23	C	-0.743027	-0.118211	0.000047
C24	C	-0.243027	0.381789	0.500047
C25	C	-0.995216	0.038223	0.000076
C26	C	-0.495216	0.538223	0.500076
C27	C	-0.993589	0.130519	0.000077
C28	C	-0.493589	0.630519	0.500077
C29	C	-1.142145	-0.107712	0.000076
C30	C	-0.642145	0.392288	0.500076
C31	C	-1.235095	-0.109352	0.000077
C32	C	-0.735095	0.390648	0.500077
C33	C	-0.405281	-0.112320	0.000066
C34	C	0.094719	0.387680	0.500066
C35	C	-0.452740	-0.021413	0.000417
C36	C	0.047260	0.478587	0.500417
C37	C	-0.549430	-0.023054	0.000064
C38	C	-0.049430	0.476946	0.500064
C39	C	-0.572841	-0.115242	0.000057
C40	C	-0.072841	0.384758	0.500057
C41	C	-0.531762	-0.160076	-0.087703
C42	C	-0.031762	0.339924	0.412297
C43	C	-0.435127	-0.157792	-0.087770
C44	C	0.064873	0.342208	0.412230
C45	C	-0.434747	-0.159680	0.086995
C46	C	0.065253	0.340320	0.586995
C47	C	-0.531692	-0.159659	0.088149
C48	C	-0.031692	0.340341	0.588149
C49	C	-0.667538	-0.116898	0.000049
C50	C	-0.167538	0.383102	0.500049
C51	C	-0.310584	-0.110667	0.000068
C52	C	0.189416	0.389333	0.500068
C53	C	-0.982907	-0.265786	0.000053
C54	C	-0.482907	0.234214	0.500053
C55	C	-0.984534	-0.358081	0.000046
C56	C	-0.484534	0.141919	0.500046
N57	N	-0.989016	-0.113794	0.218770
N58	N	-0.489016	0.386206	0.718770
C59	C	-1.066107	0.352771	0.000068
C60	C	-0.566107	0.852771	0.500068
C61	C	-1.064573	0.439492	0.000061
C62	C	-0.564573	0.939492	0.500061
C63	C	-0.912009	0.419659	0.000052
C64	C	-0.412009	0.919659	0.500052
C65	C	-0.913545	0.332940	0.000053
C66	C	-0.413545	0.832940	0.500053
C67	C	-0.990597	0.299499	0.000066
C68	C	-0.490597	0.799499	0.500066
C69	C	-0.987526	0.472939	0.000057
C70	C	-0.487526	0.972939	0.500057
C71	C	-0.985861	0.566965	0.000049
C72	C	-0.485861	1.066965	0.500049
C73	C	-0.992262	0.205466	0.000073
C74	C	-0.492262	0.705466	0.500073
C75	C	-0.989068	-0.113780	0.592861
C76	C	-0.489068	0.386220	1.092861
C77	C	-0.920034	-0.181851	0.553685
C78	C	-0.420034	0.318149	1.053685
C79	C	-0.920195	-0.182098	0.446597
C80	C	-0.420195	0.317902	0.946597
C81	C	-0.989041	-0.113787	0.407270
C82	C	-0.489041	0.386213	0.907270
C83	C	-1.076400	-0.132734	0.446112
C84	C	-0.576400	0.367266	0.946112
C85	C	-1.076010	-0.133219	0.553234
C86	C	-0.576010	0.366781	1.053234
C87	C	-0.971523	-0.026558	0.553396
C88	C	-0.471523	0.473442	1.053396
C89	C	-0.969521	-0.027139	0.446268
C90	C	-0.469521	0.472861	0.946268
C91	C	-0.989032	-0.113789	0.302382
C92	C	-0.489032	0.386211	0.802382
C93	C	-0.989083	-0.113779	0.697749
C94	C	-0.489083	0.386221	1.197749
N95	N	-0.989093	-0.113773	0.781361
N96	N	-0.489093	0.386227	1.281361
H97	H	-0.577854	0.012188	0.062974
H98	H	-0.077854	0.512188	0.562974
Cl99	Cl	-0.406894	-0.107301	-0.189046
Cl100	Cl	0.093106	0.392699	0.310954
Cl101	Cl	-0.818609	0.265963	0.000042
Cl102	Cl	-0.318609	0.765963	0.500042
Cl103	Cl	-0.592452	0.031496	-0.097393
Cl104	Cl	-0.092452	0.531496	0.402607
H105	H	-0.547037	-0.226886	0.093445
H106	H	-0.047037	0.273114	0.593445
H107	H	-0.905260	-0.012759	0.420882
H108	H	-0.405260	0.487241	0.920882
Cl109	Cl	-1.049247	0.051652	0.592510
Cl110	Cl	-0.549247	0.551652	1.092510
Cl111	Cl	-0.819444	-0.164699	0.593470
Cl112	Cl	-0.319444	0.335301	1.093470
Cl113	Cl	-0.815150	0.461706	0.000036
Cl114	Cl	-0.315150	0.961706	0.500036
H115	H	-0.434213	0.014921	0.063353
H116	H	0.065787	0.514921	0.563353
Cl117	Cl	-1.157625	-0.059503	0.593248
Cl118	Cl	-0.657625	0.440497	1.093248
Cl119	Cl	-0.819923	-0.164723	0.406049
Cl120	Cl	-0.319923	0.335277	0.906049
Cl121	Cl	-0.422524	0.034444	-0.096201
Cl122	Cl	0.077476	0.534444	0.403799
Cl123	Cl	-1.159505	0.506461	0.000062
Cl124	Cl	-0.659505	1.006461	0.500062
H125	H	-1.128848	0.325547	0.000077
H126	H	-0.628848	0.825547	0.500077
H127	H	-0.931080	-0.246212	0.580590
H128	H	-0.431080	0.253788	1.080590
Cl129	Cl	-0.937457	-0.282038	0.407006
Cl130	Cl	-0.437457	0.217962	0.907006
H131	H	-1.091474	-0.196829	0.578206
H132	H	-0.591474	0.303171	1.078206
Cl133	Cl	-0.385308	-0.260833	-0.093928
Cl134	Cl	0.114692	0.239167	0.406072
Cl135	Cl	-1.042122	0.054737	0.404958
Cl136	Cl	-0.542122	0.554737	0.904958
H137	H	-1.128998	-0.084473	0.420637
H138	H	-0.628998	0.415527	0.920637
Cl139	Cl	-0.875290	0.001555	0.595148
Cl140	Cl	-0.375290	0.501555	1.095148
Cl141	Cl	-0.553567	-0.264635	-0.092773
Cl142	Cl	-0.053567	0.235365	0.407227
Cl143	Cl	-0.575602	-0.111989	-0.188537
Cl144	Cl	-0.075602	0.388011	0.311463
Cl145	Cl	-1.100852	-0.229823	0.404676
Cl146	Cl	-0.600852	0.270177	0.904676
H147	H	-0.414204	-0.129965	0.153515
H148	H	0.085796	0.370035	0.653515
H149	H	-0.402967	-0.226705	0.087584
H150	H	0.097033	0.273295	0.587584
Cl151	Cl	-0.573753	-0.109046	0.188387
Cl152	Cl	-0.073753	0.390954	0.688387
