data_functionalizedCrystal
_audit_creation_method	'MofGen! by Chris Wilmer'
_symmetry_space_group_name_H-M	'P1'
_symmetry_Int_Tables_number	1
_symmetry_cell_setting	triclinic
loop_
_symmetry_equiv_pos_as_xyz
  x,y,z
_cell_length_a	6.817900
_cell_length_b	11.102288
_cell_length_c	12.908943
_cell_angle_alpha	94.412453
_cell_angle_beta	100.860631
_cell_angle_gamma	108.605689
loop_
_atom_site_label
_atom_site_type_symbol
_atom_site_fract_x
_atom_site_fract_y
_atom_site_fract_z
V1	V	-4.022089	-0.174253	-0.328682
O2	O	-3.982824	0.010006	-0.322425
O3	O	-3.999478	-0.347084	-0.326434
O4	O	-3.959861	-0.170856	-0.472032
O5	O	-4.022714	-0.167442	-0.175820
V6	V	-4.504167	-0.152298	-0.310398
O7	O	-4.286517	-0.222412	-0.368789
O8	O	-4.689936	-0.104138	-0.270292
O9	O	-4.303571	0.020533	-0.312646
O10	O	-4.660829	-0.336557	-0.316655
O11	O	-4.620938	-0.159109	-0.463261
O12	O	-4.343188	-0.155695	-0.167049
C13	C	-3.851199	-0.389239	-0.321249
C14	C	-3.913907	-0.530526	-0.320367
C15	C	-4.125943	-0.603351	-0.325212
C16	C	-4.184854	-0.736106	-0.324391
C17	C	-3.819670	-0.723199	-0.313876
C18	C	-3.760764	-0.590447	-0.314704
C19	C	-3.800664	-0.164441	-0.506972
C20	C	-3.831240	-0.162808	-0.624161
C21	C	-4.253829	-0.172350	-0.855107
C22	C	-4.282568	-0.170816	-0.965217
C23	C	-3.917455	-0.158196	-0.954491
C24	C	-3.888716	-0.159730	-0.844381
C25	C	-4.056912	-0.166809	-0.794694
C26	C	-4.028175	-0.168353	-0.684583
C27	C	-3.663060	-0.155723	-0.673858
C28	C	-3.691799	-0.154189	-0.783968
C29	C	-4.115193	0.062681	-0.317828
C30	C	-4.031723	0.203967	-0.318718
C31	C	-4.165728	-0.162114	-0.132103
C32	C	-4.114390	-0.163741	-0.014913
H33	H	-3.588094	-0.531151	-0.310763
H34	H	-3.694994	-0.772003	-0.309263
H35	H	-4.165134	-0.174122	-0.644130
H36	H	-4.390788	-0.178128	-0.814653
O37	O	-4.474005	-0.176439	-1.023891
C38	C	-4.631327	-0.291151	-1.014529
H39	H	-4.553847	-0.365116	-0.991115
H40	H	-4.716432	-0.270992	-0.950728
C41	C	-4.888036	-0.252929	-1.150874
C42	C	-4.792876	-0.343778	-1.122125
H43	H	-4.987694	-0.285390	-1.217242
H44	H	-4.782049	-0.175642	-1.157179
H45	H	-4.958941	-0.236137	-1.097697
H46	H	-4.721952	-0.360555	-1.175294
H47	H	-4.898856	-0.421069	-1.115832
O48	O	-4.274563	-0.545028	-0.330860
C49	C	-4.283670	-0.485450	-0.423389
H50	H	-4.127051	-0.465553	-0.449526
H51	H	-4.419028	-0.551563	-0.489894
C52	C	-4.514698	-0.382379	-0.367219
C53	C	-4.322329	-0.357931	-0.399315
H54	H	-4.538555	-0.303722	-0.352372
H55	H	-4.508571	-0.422521	-0.304882
H56	H	-4.627474	-0.437476	-0.422645
H57	H	-4.209555	-0.302849	-0.343884
H58	H	-4.328439	-0.317777	-0.461643
H59	H	-4.357511	-0.795395	-0.328338
O60	O	-3.753915	-0.151076	-1.002693
C61	C	-3.582538	-0.037113	-0.958197
H62	H	-3.644213	0.036001	-0.921051
H63	H	-3.464055	-0.059055	-0.894186
C64	C	-3.396324	-0.071551	-1.091864
C65	C	-3.472077	0.018253	-1.046248
H66	H	-3.328178	-0.037400	-1.146176
H67	H	-3.511779	-0.148333	-1.121840
H68	H	-3.297600	-0.089828	-1.038512
H69	H	-3.570818	0.036517	-1.099598
H70	H	-3.356635	0.095040	-1.016284
H71	H	-3.554864	-0.148421	-0.824438
H72	H	-3.502715	-0.151217	-0.624658
