data_functionalizedCrystal
_audit_creation_method	'MofGen! by Chris Wilmer'
_symmetry_space_group_name_H-M	'P1'
_symmetry_Int_Tables_number	1
_symmetry_cell_setting	triclinic
loop_
_symmetry_equiv_pos_as_xyz
  x,y,z
_cell_length_a	18.101398
_cell_length_b	18.101395
_cell_length_c	18.101389
_cell_angle_alpha	90.020787
_cell_angle_beta	90.026178
_cell_angle_gamma	90.026279
loop_
_atom_site_label
_atom_site_type_symbol
_atom_site_fract_x
_atom_site_fract_y
_atom_site_fract_z
Zn1	Zn	-1.132107	0.294974	-0.418922
Zn2	Zn	-0.632107	0.794974	0.081078
Zn3	Zn	-1.132007	0.418808	-0.295084
Zn4	Zn	-0.632007	0.918808	0.204916
Zn5	Zn	-1.008270	0.294974	-0.295075
Zn6	Zn	-0.508270	0.794974	0.204925
Zn7	Zn	-1.008216	0.418768	-0.418864
Zn8	Zn	-0.508216	0.918768	0.081136
O9	O	-1.070150	0.356881	-0.356986
O10	O	-0.570150	0.856881	0.143014
O11	O	-1.235726	0.311417	-0.402522
O12	O	-0.735726	0.811417	0.097478
O13	O	-1.115573	0.402398	-0.191450
O14	O	-0.615573	0.902398	0.308550
O15	O	-1.024761	0.191341	-0.311524
O16	O	-0.524761	0.691341	0.188476
O17	O	-1.235653	0.402398	-0.311539
O18	O	-0.735653	0.902398	0.188461
O19	O	-1.115744	0.191341	-0.402514
O20	O	-0.615744	0.691341	0.097486
O21	O	-1.024664	0.311418	-0.191443
O22	O	-0.524664	0.811418	0.308557
O23	O	-0.904630	0.311379	-0.311468
O24	O	-0.404630	0.811379	0.188532
O25	O	-1.024670	0.402329	-0.522505
O26	O	-0.524670	0.902329	-0.022505
O27	O	-0.904591	0.402329	-0.402415
O28	O	-0.404591	0.902329	0.097585
O29	O	-1.115692	0.311378	-0.522547
O30	O	-0.615692	0.811378	-0.022547
O31	O	-1.115522	0.522435	-0.311483
O32	O	-0.615522	1.022435	0.188517
O33	O	-1.024573	0.522406	-0.402424
O34	O	-0.524573	1.022406	0.097576
C35	C	-0.877739	0.356851	-0.356935
C36	C	-0.377739	0.856851	0.143065
C37	C	-0.795425	0.356855	-0.356930
C38	C	-0.295425	0.856855	0.143070
C39	C	-1.070051	0.549291	-0.356964
C40	C	-0.570051	1.049291	0.143036
C41	C	-1.070076	0.631606	-0.356980
C42	C	-0.570076	1.131606	0.143020
C43	C	-1.070186	0.356849	-0.550148
C44	C	-0.570186	0.856849	-0.050148
C45	C	-1.070202	0.356835	-0.632462
C46	C	-0.570202	0.856835	-0.132462
C47	C	-0.644717	0.356864	-0.356955
C48	C	-0.144717	0.856864	0.143045
C49	C	-0.613363	0.299557	-0.299827
C50	C	-0.113363	0.799557	0.200173
C51	C	-0.527745	0.299338	-0.300009
C52	C	-0.027745	0.799338	0.199991
C53	C	-0.496334	0.356872	-0.356978
C54	C	0.003666	0.856872	0.143022
C55	C	-0.527472	0.336049	-0.435114
C56	C	-0.027472	0.836049	0.064886
C57	C	-0.613117	0.335628	-0.434771
C58	C	-0.113117	0.835628	0.065229
C59	C	-0.613114	0.435141	-0.336634
C60	C	-0.113114	0.935141	0.163366
C61	C	-0.527463	0.434724	-0.334926
C62	C	-0.027463	0.934724	0.165074
C63	C	-0.412475	0.356878	-0.356996
C64	C	0.087525	0.856878	0.143004
C65	C	-0.728576	0.356856	-0.356942
C66	C	-0.228576	0.856856	0.143058
C67	C	-0.263312	0.356901	-0.357024
C68	C	0.236688	0.856901	0.142976
C69	C	-0.345626	0.356881	-0.357002
C70	C	0.154374	0.856881	0.142998
C71	C	-1.070270	0.163719	-0.357024
C72	C	-0.570270	0.663719	0.142976
C73	C	-1.070321	0.081405	-0.357041
C74	C	-0.570321	0.581405	0.142959
C75	C	-1.070239	0.930696	-0.357020
C76	C	-0.570239	1.430696	0.142980
C77	C	-1.013149	0.899383	-0.414379
C78	C	-0.513149	1.399383	0.085621
C79	C	-1.012878	0.813765	-0.414200
C80	C	-0.512878	1.313765	0.085800
C81	C	-1.070158	0.782314	-0.357001
C82	C	-0.570158	1.282314	0.142999
C83	C	-1.049032	0.813455	-0.278948
C84	C	-0.549032	1.313455	0.221052
C85	C	-1.048664	0.899100	-0.279291
C86	C	-0.548664	1.399100	0.220709
C87	C	-1.148580	0.899049	-0.377026
C88	C	-0.648580	1.399049	0.122974
C89	C	-1.148119	0.813398	-0.378738
C90	C	-0.648119	1.313398	0.121262
C91	C	-1.070114	0.698454	-0.356985
C92	C	-0.570114	1.198454	0.143015
C93	C	-1.070281	1.014556	-0.357030
C94	C	-0.570281	1.514556	0.142970
C95	C	-1.070229	0.356778	-0.783171
C96	C	-0.570229	0.856778	-0.283171
C97	C	-1.012970	0.413990	-0.814498
C98	C	-0.512970	0.913990	-0.314498
C99	C	-1.012762	0.413789	-0.900116
C100	C	-0.512762	0.913789	-0.400116
C101	C	-1.070257	0.356722	-0.931553
C102	C	-0.570257	0.856722	-0.431553
C103	C	-1.049370	0.278625	-0.900466
C104	C	-0.549370	0.778625	-0.400466
C105	C	-1.048939	0.278989	-0.814821
C106	C	-0.548939	0.778989	-0.314821
C107	C	-1.148526	0.376967	-0.814752
C108	C	-0.648526	0.876967	-0.314752
C109	C	-1.148122	0.378657	-0.900402
C110	C	-0.648122	0.878657	-0.400402
C111	C	-1.070274	0.356686	-1.015413
C112	C	-0.570274	0.856686	-0.515413
C113	C	-1.070211	0.356808	-0.699311
C114	C	-0.570211	0.856808	-0.199311
C115	C	-1.070157	0.356859	-0.164576
C116	C	-0.570157	0.856859	0.335424
C117	C	-1.070285	0.356664	-0.082262
C118	C	-0.570285	0.856664	0.417738
H119	H	-0.506690	0.312328	-0.242082
H120	H	-0.006690	0.812328	0.257918
C121	C	-1.102849	0.219416	-0.786822
C122	C	-0.602849	0.719416	-0.286822
N123	N	-1.143449	0.174543	-0.765737
N124	N	-0.643449	0.674543	-0.265737
H125	H	-0.633906	0.312401	-0.241709
H126	H	-0.133906	0.812401	0.258291
H127	H	-0.507108	0.450432	-0.277421
H128	H	-0.007108	0.950432	0.222579
C129	C	-0.500098	0.220982	-0.318240
C130	C	-0.000098	0.720982	0.181760
N131	N	-0.479274	0.161963	-0.331976
N132	N	0.020726	0.661963	0.168024
C133	C	-0.972482	0.784564	-0.255647
C134	C	-0.472482	1.284564	0.244353
N135	N	-0.914823	0.762805	-0.238101
N136	N	-0.414823	1.262805	0.261899
H137	H	-1.191184	0.335295	-0.794499
H138	H	-0.691184	0.835295	-0.294499
H139	H	-0.634910	0.241883	-0.313145
H140	H	-0.134910	0.741883	0.186855
C141	C	-1.174270	0.452622	-0.785580
C142	C	-0.674270	0.952622	-0.285580
N143	N	-1.193653	0.509609	-0.763608
N144	N	-0.693653	1.009609	-0.263608
C145	C	-0.498575	0.495461	-0.387005
C146	C	0.001425	0.995461	0.112995
N147	N	-0.476816	0.541207	-0.426237
N148	N	0.023184	1.041207	0.073763
C149	C	-0.642237	0.460831	-0.260945
C150	C	-0.142237	0.960831	0.239055
N151	N	-0.664172	0.480173	-0.203932
N152	N	-0.164172	0.980173	0.296068
H153	H	-1.026095	0.792709	-0.472075
H154	H	-0.526095	1.292709	0.027925
H155	H	-0.991397	0.919136	-0.262345
H156	H	-0.491397	1.419136	0.237655
C157	C	-1.103978	0.219433	-0.927999
C158	C	-0.603978	0.719433	-0.427999
N159	N	-1.145103	0.174849	-0.948748
N160	N	-0.645103	0.674849	-0.448748
H161	H	-1.025800	0.471691	-0.921135
H162	H	-0.525800	0.971691	-0.421135
C163	C	-1.174599	0.928165	-0.452611
C164	C	-0.674599	1.428165	0.047389
N165	N	-1.194189	0.950095	-0.509545
N166	N	-0.694189	1.450095	-0.009545
H167	H	-1.164051	0.793043	-0.436180
H168	H	-0.664051	1.293043	0.063820
C169	C	-1.169407	0.456304	-0.927850
C170	C	-0.669407	0.956304	-0.427850
N171	N	-1.185437	0.514789	-0.948527
N172	N	-0.685437	1.014789	-0.448527
H173	H	-1.192904	0.791985	-0.340006
H174	H	-0.692904	1.291985	0.159994
C175	C	-0.640143	0.258341	-0.457970
C176	C	-0.140143	0.758341	0.042030
N177	N	-0.660496	0.200125	-0.475441
N178	N	-0.160496	0.700125	0.024559
H179	H	-0.991715	0.261907	-0.794834
H180	H	-0.491715	0.761907	-0.294834
C181	C	-0.935036	0.396125	-0.785417
C182	C	-0.435036	0.896125	-0.285417
N183	N	-0.876335	0.382665	-0.763514
N184	N	-0.376335	0.882665	-0.263514
H185	H	-0.954810	0.793336	-0.400947
H186	H	-0.454810	1.293336	0.099053
C187	C	-1.206042	0.926408	-0.320591
C188	C	-0.706042	1.426408	0.179409
N189	N	-1.249317	0.947021	-0.278083
N190	N	-0.749317	1.447021	0.221917
C191	C	-0.640512	0.492819	-0.392837
C192	C	-0.140512	0.992819	0.107163
N193	N	-0.661154	0.536256	-0.435172
N194	N	-0.161154	1.036256	0.064828
H195	H	-0.633861	0.375571	-0.478809
H196	H	-0.133861	0.875571	0.021191
H197	H	-1.025846	0.472089	-0.793905
H198	H	-0.525846	0.972089	-0.293905
H199	H	-0.507129	0.376516	-0.478855
H200	H	-0.007129	0.876516	0.021145
C201	C	-0.934396	0.395676	-0.927785
C202	C	-0.434396	0.895676	-0.427785
N203	N	-0.875369	0.382029	-0.948624
N204	N	-0.375369	0.882029	-0.448624
H205	H	-0.506051	0.279472	-0.452591
H206	H	-0.006051	0.779472	0.047409
H207	H	-1.026236	0.919939	-0.472442
H208	H	-0.526236	1.419939	0.027558
H209	H	-1.089305	0.793083	-0.235045
H210	H	-0.589305	1.293083	0.264955
H211	H	-0.955434	0.920964	-0.401293
H212	H	-0.455434	1.420964	0.098707
C213	C	-0.972923	0.255127	-0.929430
C214	C	-0.472923	0.755127	-0.429430
N215	N	-0.915343	0.237431	-0.951245
N216	N	-0.415343	0.737431	-0.451245
C217	C	-1.102393	0.927088	-0.219579
C218	C	-0.602393	1.427088	0.280421
N219	N	-1.142856	0.948165	-0.174600
N220	N	-0.642856	1.448165	0.325400
C221	C	-1.208821	0.326468	-0.929304
C222	C	-0.708821	0.826468	-0.429304
N223	N	-1.254538	0.287152	-0.951070
N224	N	-0.754538	0.787152	-0.451070
