data_functionalizedCrystal
_audit_creation_method	'MofGen! by Chris Wilmer'
_symmetry_space_group_name_H-M	'P1'
_symmetry_Int_Tables_number	1
_symmetry_cell_setting	triclinic
loop_
_symmetry_equiv_pos_as_xyz
  x,y,z
_cell_length_a	25.639239
_cell_length_b	21.395362
_cell_length_c	21.395355
_cell_angle_alpha	89.956060
_cell_angle_beta	89.980666
_cell_angle_gamma	90.054564
loop_
_atom_site_label
_atom_site_type_symbol
_atom_site_fract_x
_atom_site_fract_y
_atom_site_fract_z
Zn1	Zn	-0.207990	0.957825	-0.354582
Zn2	Zn	-0.295409	0.957713	-0.249803
Zn3	Zn	-0.208014	0.853040	-0.249783
Zn4	Zn	-0.295420	0.852994	-0.354508
O5	O	-0.251708	0.905393	-0.302169
O6	O	-0.219571	1.045488	-0.340722
O7	O	-0.283822	0.943800	-0.162122
O8	O	-0.134846	0.867006	-0.263708
O9	O	-0.283798	1.045405	-0.263742
O10	O	-0.134828	0.943991	-0.340703
O11	O	-0.219613	0.866897	-0.162108
O12	O	-0.219623	0.765356	-0.263636
O13	O	-0.283817	0.866928	-0.442196
O14	O	-0.283840	0.765322	-0.340576
O15	O	-0.219582	0.943947	-0.442250
O16	O	-0.368576	0.943756	-0.263669
O17	O	-0.368584	0.866820	-0.340596
C18	C	-0.251736	0.742605	-0.302096
C19	C	-0.251760	0.672964	-0.302080
C20	C	-0.285243	0.640250	-0.342083
C21	C	-0.285230	0.574814	-0.342111
C22	C	-0.251740	0.542096	-0.302125
C23	C	-0.218252	0.574818	-0.262119
C24	C	-0.218262	0.640252	-0.262097
C25	C	-0.247528	0.438372	-0.245720
C26	C	-0.247522	0.372939	-0.245741
C27	C	-0.251706	0.340275	-0.302194
C28	C	-0.255908	0.373052	-0.358627
C29	C	-0.255918	0.438486	-0.358605
C30	C	-0.251725	0.471143	-0.302145
C31	C	-0.285176	0.236608	-0.342231
C32	C	-0.285160	0.171172	-0.342260
C33	C	-0.218185	0.171176	-0.262262
C34	C	-0.218198	0.236612	-0.262239
C35	C	-0.251697	0.269324	-0.302222
C36	C	-0.387551	0.905288	-0.302140
C37	C	-0.445665	0.905300	-0.302149
C38	C	-0.806011	0.945558	-0.262182
C39	C	-0.860616	0.945582	-0.262190
O40	O	-0.888838	0.979702	-0.228177
N41	N	-0.887947	0.905503	-0.302211
C42	C	-0.860672	0.865401	-0.342230
O43	O	-0.888934	0.831313	-0.376271
C44	C	-0.806069	0.865381	-0.342224
C45	C	-0.778740	0.905458	-0.302196
C46	C	-0.778682	0.985633	-0.222158
C47	C	-0.724082	0.985608	-0.222149
C48	C	-0.696810	0.945508	-0.262164
C49	C	-0.724139	0.905433	-0.302187
C50	C	-0.778794	0.825282	-0.382246
C51	C	-0.724187	0.825266	-0.382237
C52	C	-0.696858	0.865343	-0.342209
C53	C	-0.642267	0.865308	-0.342193
N54	N	-0.614935	0.905387	-0.302173
C55	C	-0.642207	0.945487	-0.262158
C56	C	-0.975343	0.865448	-0.342239
C57	C	-1.029945	0.865465	-0.342242
C58	C	-1.029885	0.945648	-0.262204
C59	C	-0.975281	0.945627	-0.262198
C60	C	-0.948011	0.905528	-0.302219
C61	C	-0.527542	0.945430	-0.262142
C62	C	-0.472937	0.945400	-0.262134
C63	C	-0.473002	0.865220	-0.342175
C64	C	-0.527602	0.865248	-0.342180
C65	C	-0.554871	0.905358	-0.302162
O66	O	-0.614010	0.831207	-0.376190
O67	O	-0.613939	0.979575	-0.228128
C68	C	-0.115335	0.905516	-0.302212
C69	C	-0.057221	0.905568	-0.302230
C70	C	-0.251681	1.068816	-0.302242
C71	C	-0.251669	1.138458	-0.302274
C72	C	-0.251698	0.905445	-0.465592
C73	C	-0.251693	0.905467	-0.535234
C74	C	-0.218245	0.945569	-0.567976
C75	C	-0.218222	0.945568	-0.633412
C76	C	-0.251658	0.905472	-0.666102
C77	C	-0.285108	0.865362	-0.633352
C78	C	-0.285126	0.865360	-0.567917
C79	C	-0.298736	0.900488	-0.769765
C80	C	-0.298719	0.900495	-0.835198
C81	C	-0.251602	0.905476	-0.867923
C82	C	-0.204501	0.910463	-0.835207
C83	C	-0.204519	0.910461	-0.769773
C84	C	-0.251642	0.905470	-0.737054
C85	C	-0.218127	0.945579	-0.971618
C86	C	-0.218103	0.945574	-1.037055
C87	C	-0.284994	0.865371	-1.036993
C88	C	-0.285013	0.865373	-0.971558
C89	C	-0.251580	0.905480	-0.938874
C90	C	-0.251681	0.905377	-0.139381
C91	C	-0.251538	0.905476	-0.069741
H92	H	-0.244104	0.346256	-0.199789
N93	N	-0.346819	0.895377	-0.868631
N94	N	-0.354111	0.850610	-0.905111
H95	H	-0.388079	0.846989	-0.928729
N96	N	-1.057739	0.986615	-0.221324
N97	N	-1.051670	0.982490	-0.163502
H98	H	-1.071342	1.011422	-0.134632
N99	N	-0.346873	0.895393	-0.736351
N100	N	-0.388922	0.890946	-0.765566
H101	H	-0.422917	0.887347	-0.741968
H102	H	-0.800881	1.018290	-0.189573
N103	N	-0.156405	0.915542	-0.736364
N104	N	-0.121682	0.875226	-0.743644
H105	H	-0.087699	0.878812	-0.720050
H106	H	-0.450789	0.832569	-0.374753
N107	N	-0.696177	1.026542	-0.181251
N108	N	-0.702315	1.022412	-0.123434
H109	H	-0.682613	1.051325	-0.094545
N110	N	-0.555523	0.824298	-0.383051
N111	N	-0.549494	0.766482	-0.378818
H112	H	-0.569211	0.737563	-0.407685
H113	H	-0.312330	0.832714	-0.659972
H114	H	-0.166134	0.914520	-0.861850
N115	N	-0.184093	0.986541	-0.534601
N116	N	-0.154230	1.022345	-0.563849
H117	H	-0.130110	1.051283	-0.540278
N118	N	-0.183979	0.986540	-0.938219
N119	N	-0.202378	1.026449	-0.901737
H120	H	-0.178262	1.055378	-0.878149
H121	H	-0.190936	0.263248	-0.229661
H122	H	-1.052192	0.832824	-0.374831
N123	N	-0.243241	0.471736	-0.188053
N124	N	-0.204009	0.464446	-0.154165
H125	H	-0.200978	0.488011	-0.113440
H126	H	-0.190984	0.548174	-0.229563
N127	N	-0.947376	0.986567	-0.221306
N128	N	-0.971739	1.022363	-0.185581
H129	H	-0.952034	1.051279	-0.156699
N130	N	-0.184047	0.986532	-0.666857
N131	N	-0.154197	1.022334	-0.637668
H132	H	-0.130059	1.051265	-0.661286
H133	H	-0.259338	0.465171	-0.404555
N134	N	-0.184054	0.673662	-0.221231
N135	N	-0.154150	0.644445	-0.185535
H136	H	-0.129990	0.668042	-0.156673
N137	N	-0.445030	0.986341	-0.221238
N138	N	-0.469390	1.022140	-0.185515
H139	H	-0.449683	1.051055	-0.156632
H140	H	-0.312424	0.144537	-0.374839
N141	N	-0.947497	0.824479	-0.383125
N142	N	-0.971911	0.788700	-0.418852
H143	H	-0.952248	0.759766	-0.447728
H144	H	-0.801036	0.792644	-0.414837
N145	N	-0.183927	0.986538	-1.070493
N146	N	-0.154081	1.022342	-1.041300
H147	H	-0.129943	1.051274	-1.064916
H148	H	-0.312213	0.832718	-1.063609
N149	N	-0.319296	0.824389	-0.534478
N150	N	-0.349144	0.788586	-0.563669
H151	H	-0.373278	0.759650	-0.540052
H152	H	-0.701986	0.792613	-0.414829
N153	N	-0.319184	0.824407	-0.938118
N154	N	-0.349034	0.788606	-0.967311
H155	H	-0.373168	0.759670	-0.943694
H156	H	-0.190914	0.144537	-0.229707
N157	N	-0.555384	0.986395	-0.221251
N158	N	-0.549304	0.982256	-0.163432
H159	H	-0.568967	1.011183	-0.134549
N160	N	-0.319465	0.673660	-0.382920
N161	N	-0.367703	0.666279	-0.378657
H162	H	-0.391873	0.689875	-0.407498
N163	N	-0.319442	0.541398	-0.382971
N164	N	-0.367682	0.548637	-0.378699
H165	H	-0.391846	0.525038	-0.407556
N166	N	-0.260198	0.339687	-0.416291
N167	N	-0.260194	0.281264	-0.416305
H168	H	-0.263230	0.257696	-0.457027
N169	N	-0.319396	0.270018	-0.383074
N170	N	-0.349286	0.240797	-0.418793
H171	H	-0.373455	0.264391	-0.447639
