data_functionalizedCrystal
_audit_creation_method	'MofGen! by Chris Wilmer'
_symmetry_space_group_name_H-M	'P1'
_symmetry_Int_Tables_number	1
_symmetry_cell_setting	triclinic
loop_
_symmetry_equiv_pos_as_xyz
  x,y,z
_cell_length_a	34.408637
_cell_length_b	34.407814
_cell_length_c	34.404193
_cell_angle_alpha	60.004510
_cell_angle_beta	60.009006
_cell_angle_gamma	59.994604
loop_
_atom_site_label
_atom_site_type_symbol
_atom_site_fract_x
_atom_site_fract_y
_atom_site_fract_z
O1	O	0.053973	-0.567860	0.474801
O2	O	0.020377	-0.442124	0.382567
O3	O	0.100004	-0.521670	0.382483
O4	O	-0.025653	-0.488314	0.474886
O5	O	0.126426	-0.495253	0.408816
O6	O	0.046800	-0.415707	0.408900
O7	O	0.080396	-0.541443	0.501134
Zn8	Zn	0.067793	-0.474381	0.459198
Zn9	Zn	0.032980	-0.509186	0.424503
O10	O	0.000769	-0.461897	0.501219
N11	N	0.091552	-0.450631	0.482879
N12	N	0.009225	-0.532940	0.400823
C13	C	0.142848	-0.268847	0.534081
C14	C	0.142979	-0.399386	0.664559
C15	C	0.142862	-0.399365	0.534081
C16	C	0.273409	-0.399338	0.533986
C17	C	0.157225	-0.311914	0.548422
C18	C	0.157300	-0.385019	0.621491
C19	C	0.230339	-0.384991	0.548370
C20	C	0.157235	-0.385007	0.548422
C21	C	0.124548	-0.214028	0.515827
C22	C	0.124571	-0.417639	0.515827
C23	C	0.175526	-0.366733	0.566676
C24	C	0.353121	-0.385580	0.491988
C25	C	0.402952	-0.402180	0.475348
C26	C	0.402981	-0.482812	0.506096
C27	C	0.353151	-0.466211	0.522737
C28	C	0.136544	-0.189099	0.466839
C29	C	0.119905	-0.139265	0.450247
C30	C	0.079280	-0.139291	0.531632
C31	C	0.095918	-0.189125	0.548224
C32	C	0.075577	-0.405615	0.527900
C33	C	0.058953	-0.422228	0.511301
C34	C	0.140315	-0.462889	0.470566
C35	C	0.156941	-0.446276	0.487159
C36	C	0.075772	-0.405653	0.744326
C37	C	0.059206	-0.422280	0.794159
C38	C	0.140607	-0.462951	0.794094
C39	C	0.157172	-0.446325	0.744260
C40	C	0.124753	-0.417674	0.719377
C41	C	0.328223	-0.417595	0.515681
C42	C	-0.172390	-0.583988	0.349141
C43	C	-0.041751	-0.584138	0.218783
C44	C	-0.041941	-0.584130	0.349402
C45	C	-0.041957	-0.714607	0.349338
C46	C	-0.129326	-0.598388	0.334853
C47	C	-0.056165	-0.598473	0.261852
C48	C	-0.056282	-0.671535	0.334962
C49	C	-0.056272	-0.598469	0.334999
C50	C	-0.227205	-0.565659	0.367327
C51	C	-0.023703	-0.565882	0.367734
C52	C	-0.074511	-0.616717	0.316667
C53	C	-0.055754	-0.794298	0.391257
C54	C	-0.039181	-0.844132	0.407888
C55	C	0.041447	-0.844215	0.377269
C56	C	0.024873	-0.794381	0.360637
C57	C	-0.252183	-0.577666	0.416302
C58	C	-0.302014	-0.561001	0.432833
C59	C	-0.301886	-0.520329	0.351410
C60	C	-0.252055	-0.536994	0.334880
C61	C	-0.035709	-0.516892	0.355682
C62	C	-0.019129	-0.500308	0.372353
C63	C	0.021465	-0.581700	0.413115
C64	C	0.004884	-0.598286	0.396450
C65	C	-0.035389	-0.516907	0.139026
C66	C	-0.018707	-0.500324	0.089193
C67	C	0.021949	-0.581721	0.089240
C68	C	0.005268	-0.598303	0.139074
C69	C	-0.023402	-0.565894	0.163965
C70	C	-0.023728	-0.769425	0.367633
N71	N	0.427173	-0.450553	0.482630
O72	O	0.589997	-0.458460	0.365361
O73	O	0.590185	-0.550997	0.490963
O74	O	0.590104	-0.550786	0.411309
O75	O	0.590077	-0.458671	0.445016
O76	O	0.510940	-0.524462	0.437777
O77	O	0.511020	-0.524674	0.517432
O78	O	0.510832	-0.432136	0.391830
Zn79	Zn	0.498357	-0.474225	0.458833
Zn80	Zn	0.602660	-0.508908	0.423960
O81	O	0.510913	-0.432348	0.471484
N82	N	0.673844	-0.532580	0.400158
N83	N	0.091520	-0.115070	0.482873
O84	O	-0.025663	0.047841	0.474857
O85	O	0.099940	0.047877	0.382299
O86	O	0.020247	0.047844	0.382560
O87	O	0.054030	0.047874	0.474596
O88	O	0.046674	-0.031326	0.408942
O89	O	0.126367	-0.031293	0.408680
O90	O	0.000764	-0.031329	0.501238
Zn91	Zn	0.067761	-0.043881	0.459148
Zn92	Zn	0.032943	0.060429	0.424389
O93	O	0.080457	-0.031296	0.500977
N94	N	0.009178	0.131618	0.400665
N95	N	0.091852	-0.450680	0.818332
O96	O	0.083862	-0.567845	0.981235
O97	O	-0.008657	-0.442198	0.981276
O98	O	-0.008441	-0.521875	0.981252
O99	O	0.083646	-0.488168	0.981258
O100	O	0.017919	-0.495468	0.902085
O101	O	0.017703	-0.415791	0.902109
O102	O	0.110222	-0.541438	0.902067
Zn103	Zn	0.068148	-0.474422	0.889518
Zn104	Zn	0.033417	-0.509214	0.993825
O105	O	0.110006	-0.461761	0.902091
N106	N	0.009712	-0.532961	1.065011
C107	C	0.030439	-0.413071	0.383027
C108	C	0.129046	-0.511580	0.382922
C109	C	0.070334	-0.570496	0.500675
C110	C	-0.028274	-0.471987	0.500780
C111	C	0.550625	-0.550579	0.520021
C112	C	0.550527	-0.550317	0.421379
C113	C	0.550389	-0.432554	0.362773
C114	C	0.550491	-0.432816	0.461414
C115	C	0.128944	0.008394	0.382712
C116	C	0.030287	0.008256	0.383068
C117	C	-0.028273	0.008252	0.500793
C118	C	0.070417	0.008292	0.500470
C119	C	-0.008218	-0.413165	0.941698
C120	C	-0.007945	-0.511830	0.941653
C121	C	0.109783	-0.570471	0.941646
C122	C	0.109516	-0.471800	0.941673
H123	H	0.049370	-0.382321	0.724071
H124	H	0.081021	-0.864532	0.371574
H125	H	-0.037264	-0.377079	0.941710
H126	H	0.550329	-0.403500	0.326702
C127	C	0.020911	-0.364959	0.344328
C128	C	0.026185	-0.371177	0.304517
C129	C	0.017417	-0.326867	0.268856
H130	H	-0.010596	-0.344989	0.355853
H131	H	0.042901	-0.350657	0.335611
H132	H	0.004195	-0.385472	0.313233
H133	H	0.057689	-0.391139	0.292978
H134	H	0.039408	-0.312566	0.260140
H135	H	-0.014089	-0.306901	0.280386
H136	H	0.020999	-0.331081	0.241839
H137	H	-0.036863	-0.519031	0.941619
H138	H	0.550540	-0.579254	0.414165
C139	C	0.176963	0.008727	0.343920
C140	C	0.206329	0.008844	0.360920
C141	C	0.250565	0.009158	0.325196
H142	H	0.191377	-0.018812	0.335117
H143	H	0.172635	0.036408	0.316958
H144	H	0.210658	-0.018833	0.387873
H145	H	0.191930	0.036381	0.369719
H146	H	0.246237	0.036838	0.298235
H147	H	0.264974	-0.018381	0.316396
H148	H	0.270494	0.009242	0.336724
H149	H	0.550674	-0.579628	0.556096
H150	H	0.165136	-0.518689	0.353905
H151	H	-0.064344	0.008241	0.529850
C152	C	0.550504	-0.394177	0.470926
C153	C	0.550450	-0.353399	0.430322
C154	C	0.550470	-0.317798	0.439063
H155	H	0.522925	-0.386732	0.496890
H156	H	0.578142	-0.405134	0.478428
H157	H	0.522815	-0.342444	0.422826
H158	H	0.578027	-0.360829	0.404353
H159	H	0.578108	-0.328754	0.446565
H160	H	0.522891	-0.310357	0.465028
H161	H	0.550438	-0.290127	0.411514
H162	H	0.077514	-0.606615	0.529644
C163	C	0.148149	-0.462286	0.941690
C164	C	0.188920	-0.502904	0.941685
C165	C	0.224515	-0.494159	0.941707
H166	H	0.155602	-0.436339	0.914094
H167	H	0.137186	-0.454755	0.969312
H168	H	0.199881	-0.510428	0.914066
H169	H	0.181482	-0.528856	0.969279
H170	H	0.213553	-0.486628	0.969329
H171	H	0.231964	-0.468211	0.914110
H172	H	0.252181	-0.521718	0.941708
H173	H	-0.064365	-0.464880	0.529794
H174	H	0.019058	-0.412426	0.521121
H175	H	0.086148	-0.209418	0.588113
C176	C	0.020566	0.008205	0.344585
C177	C	-0.025898	0.008170	0.361874
C178	C	-0.034865	0.008109	0.326442
H179	H	0.024056	0.035802	0.317485
H180	H	0.042509	-0.019418	0.335928
H181	H	-0.047835	0.035790	0.370524
H182	H	-0.029399	-0.019426	0.388969
H183	H	-0.012923	-0.019514	0.317785
H184	H	-0.031373	0.035707	0.299344
H185	H	-0.066390	0.008081	0.338169
H186	H	0.077653	0.008301	0.529384
H187	H	0.138832	-0.606554	0.941627
H188	H	0.167007	-0.486271	0.814352
C189	C	0.006005	-0.409147	0.821156
C190	C	-0.018835	-0.380486	0.788695
C191	C	-0.067844	-0.368376	0.813547
H192	H	-0.002216	-0.437290	0.840598
H193	H	-0.002170	-0.392221	0.840587
H194	H	-0.010663	-0.397412	0.769272
H195	H	-0.010628	-0.352337	0.769252
H196	H	-0.076019	-0.351450	0.832977
H197	H	-0.076060	-0.396521	0.832988
H198	H	-0.084704	-0.348924	0.791526
H199	H	0.197059	-0.456117	0.723950
H200	H	0.049217	-0.382297	0.551240
H201	H	0.166679	-0.486211	0.447227
H202	H	0.196836	-0.456064	0.477324
H203	H	0.332881	-0.492283	0.542031
C204	C	0.017991	-0.651495	0.409563
C205	C	0.046585	-0.676322	0.438269
C206	C	0.058674	-0.725338	0.450353
H207	H	-0.010160	-0.659696	0.426448
H208	H	0.034956	-0.659703	0.381401
H209	H	0.029620	-0.668117	0.466427
H210	H	0.074742	-0.668136	0.421394
H211	H	0.075639	-0.733546	0.422190
H212	H	0.030520	-0.733534	0.467235
H213	H	0.078080	-0.742189	0.469827
C214	C	0.429961	-0.535615	0.513820
C215	C	0.397490	-0.560102	0.538142
C216	C	0.422329	-0.608746	0.545270
H217	H	0.449381	-0.540295	0.483905
H218	H	0.449411	-0.547323	0.532082
H219	H	0.378048	-0.548398	0.519880
H220	H	0.378069	-0.555436	0.568062
H221	H	0.441779	-0.620455	0.563533
H222	H	0.441748	-0.613422	0.515353
H223	H	0.400301	-0.625368	0.561777
H224	H	0.423225	-0.376108	0.456057
C225	C	0.326140	-0.332781	0.484303
C226	C	0.358615	-0.308300	0.460004
C227	C	0.333780	-0.259663	0.452920
H228	H	0.306679	-0.321031	0.466045
H229	H	0.306731	-0.328143	0.514245
H230	H	0.378016	-0.312935	0.430067
H231	H	0.378076	-0.320035	0.478255
H232	H	0.314370	-0.255024	0.482861
H233	H	0.314320	-0.247918	0.434662
H234	H	0.355810	-0.243047	0.436436
C235	C	-0.225023	-0.523925	0.281687
C236	C	-0.257453	-0.495262	0.256812
C237	C	-0.232568	-0.483218	0.207808
H238	H	-0.205576	-0.507021	0.273494
H239	H	-0.205596	-0.552106	0.273511
H240	H	-0.276873	-0.467086	0.264984
H241	H	-0.276902	-0.512157	0.264990
H242	H	-0.213141	-0.511398	0.199633
H243	H	-0.213122	-0.466315	0.199620
H244	H	-0.254568	-0.463772	0.190925
C245	C	0.167601	-0.216049	0.431589
C246	C	0.174530	-0.183550	0.385135
C247	C	0.203132	-0.208361	0.352650
H248	H	0.197509	-0.235484	0.436288
H249	H	0.152388	-0.235486	0.436361
H250	H	0.189743	-0.164122	0.380364
H251	H	0.144631	-0.164115	0.380420
H252	H	0.187919	-0.227797	0.357423
H253	H	0.233038	-0.227794	0.357354
H254	H	0.207833	-0.186314	0.321128
H255	H	0.055974	-0.119015	0.558014
C256	C	-0.031804	-0.447117	0.062205
C257	C	-0.060494	-0.422289	0.094673
C258	C	-0.072571	-0.373273	0.069830
H259	H	-0.003651	-0.438911	0.042808
H260	H	-0.048696	-0.438914	0.042730
H261	H	-0.043602	-0.430488	0.114140
H262	H	-0.088653	-0.430480	0.114071
H263	H	-0.089463	-0.365070	0.050355
H264	H	-0.044417	-0.365073	0.050434
H265	H	-0.092042	-0.356422	0.091856
H266	H	-0.058738	-0.490513	0.159288
C267	C	0.053081	-0.616983	0.062301
C268	C	0.060014	-0.663435	0.094808
C269	C	0.088697	-0.695930	0.070010
H270	H	0.037939	-0.612242	0.042816
H271	H	0.082982	-0.612262	0.042918
H272	H	0.030118	-0.668154	0.114183
H273	H	0.075162	-0.668191	0.114295
H274	H	0.118599	-0.691208	0.050626
H275	H	0.073553	-0.691184	0.050525
H276	H	0.093409	-0.727450	0.092062
H277	H	0.015032	-0.638195	0.159378
C278	C	-0.066765	-0.481635	0.324535
C279	C	-0.073743	-0.435182	0.317566
C280	C	-0.102355	-0.402690	0.288880
H281	H	-0.051552	-0.486373	0.294644
H282	H	-0.096657	-0.486362	0.339702
H283	H	-0.043856	-0.430456	0.302398
H284	H	-0.088961	-0.430428	0.347448
H285	H	-0.132248	-0.407418	0.304047
H286	H	-0.087140	-0.407433	0.258991
H287	H	-0.107097	-0.371168	0.284151
H288	H	-0.028907	-0.460416	0.362542
C289	C	0.052450	-0.616832	0.444353
C290	C	0.029872	-0.609644	0.488326
C291	C	0.058403	-0.641992	0.517113
H292	H	0.057243	-0.648403	0.449197
H293	H	0.082325	-0.612072	0.429210
H294	H	0.000006	-0.614407	0.503466
H295	H	0.025080	-0.578080	0.483497
H296	H	0.088278	-0.637233	0.501969
H297	H	0.063195	-0.673561	0.521952
H298	H	0.043091	-0.637117	0.546949
C299	C	0.059719	-0.767464	0.335021
C300	C	0.105826	-0.799990	0.332469
C301	C	0.137939	-0.775212	0.308881
H302	H	0.058557	-0.748027	0.303766
H303	H	0.051392	-0.748032	0.352012
H304	H	0.114151	-0.819414	0.315477
H305	H	0.107003	-0.819428	0.363717
H306	H	0.129612	-0.755780	0.325873
H307	H	0.136773	-0.755776	0.277629
H308	H	0.169226	-0.797277	0.307151
H309	H	0.129672	-0.118967	0.410356
H310	H	-0.095331	-0.773979	0.396956
C311	C	-0.073996	-0.871082	0.433467
C312	C	-0.097102	-0.858937	0.403094
C313	C	-0.129179	-0.883749	0.426646
H314	H	-0.057219	-0.904342	0.442375
H315	H	-0.096865	-0.862884	0.461137
H316	H	-0.074236	-0.867138	0.375433
H317	H	-0.113888	-0.825680	0.394185
H318	H	-0.152049	-0.875551	0.454316
H319	H	-0.112399	-0.917009	0.435552
H320	H	-0.144864	-0.875509	0.406043
C321	C	-0.225291	-0.608762	0.451607
C322	C	-0.257832	-0.615694	0.498037
C323	C	-0.233075	-0.644333	0.530571
H324	H	-0.205858	-0.638669	0.446905
H325	H	-0.205860	-0.593572	0.446886
H326	H	-0.277255	-0.630885	0.502756
H327	H	-0.277266	-0.585796	0.502754
H328	H	-0.213644	-0.629143	0.525850
H329	H	-0.213643	-0.674237	0.525865
H330	H	-0.255150	-0.649036	0.562077
C331	C	-0.329201	-0.574057	0.485995
C332	C	-0.357829	-0.598911	0.497841
C333	C	-0.382884	-0.610939	0.546808
H334	H	-0.307322	-0.593539	0.503010
H335	H	-0.348666	-0.545872	0.494159
H336	H	-0.338366	-0.627092	0.489682
H337	H	-0.379717	-0.579438	0.480838
H338	H	-0.402349	-0.582754	0.554972
H339	H	-0.361002	-0.630419	0.563819
H340	H	-0.402314	-0.627800	0.554852
H341	H	-0.322118	-0.496994	0.324987
