data_functionalizedCrystal
_audit_creation_method	'MofGen! by Chris Wilmer'
_symmetry_space_group_name_H-M	'P1'
_symmetry_Int_Tables_number	1
_symmetry_cell_setting	triclinic
loop_
_symmetry_equiv_pos_as_xyz
  x,y,z
_cell_length_a	17.699097
_cell_length_b	17.699104
_cell_length_c	16.176319
_cell_angle_alpha	89.992259
_cell_angle_beta	89.988988
_cell_angle_gamma	83.289974
loop_
_atom_site_label
_atom_site_type_symbol
_atom_site_fract_x
_atom_site_fract_y
_atom_site_fract_z
O1	O	1.004080	0.095760	-0.068817
O2	O	1.337413	0.429093	0.264516
O3	O	1.670746	0.762427	0.597850
O4	O	0.783704	0.108202	-0.068804
O5	O	1.117037	0.441535	0.264530
O6	O	1.450370	0.774868	0.597863
O7	O	0.900110	-0.008207	-0.068803
O8	O	1.233443	0.325126	0.264530
O9	O	1.566776	0.658460	0.597863
O10	O	0.887674	0.212169	-0.068817
O11	O	1.221007	0.545502	0.264516
O12	O	1.554340	0.878835	0.597849
O13	O	0.900094	-0.008214	0.068690
O14	O	1.233427	0.325119	0.402023
O15	O	1.566760	0.658452	0.735357
O16	O	0.783688	0.108194	0.068689
O17	O	1.117021	0.441528	0.402023
O18	O	1.450354	0.774861	0.735356
O19	O	1.004064	0.095753	0.068676
O20	O	1.337397	0.429086	0.402010
O21	O	1.670730	0.762419	0.735343
Cu22	Cu	0.893874	0.101973	0.081237
Cu23	Cu	1.227207	0.435306	0.414570
Cu24	Cu	1.560541	0.768639	0.747904
Cu25	Cu	0.893893	0.101982	-0.081365
Cu26	Cu	1.227226	0.435315	0.251969
Cu27	Cu	1.560560	0.768648	0.585302
O28	O	0.887658	0.212161	0.068676
O29	O	1.220991	0.545495	0.402009
O30	O	1.554324	0.878828	0.735343
C31	C	0.755499	0.107751	-0.000055
C32	C	1.088832	0.441084	0.333278
C33	C	1.422165	0.774417	0.666611
C34	C	0.671481	0.106408	-0.000050
C35	C	1.004814	0.439741	0.333283
C36	C	1.338148	0.773075	0.666617
C37	C	0.155771	0.098183	-0.075031
C38	C	0.489104	0.431516	0.258303
C39	C	0.822438	0.764849	0.591636
C40	C	0.234715	0.099439	-0.075026
C41	C	0.568048	0.432772	0.258307
C42	C	0.901382	0.766106	0.591640
C43	C	0.274172	0.100064	-0.000076
C44	C	0.607506	0.433398	0.333258
C45	C	0.940839	0.766731	0.666591
C46	C	0.234682	0.099426	0.074876
C47	C	0.568016	0.432759	0.408209
C48	C	0.901349	0.766092	0.741543
C49	C	0.155740	0.098164	0.074871
C50	C	0.489074	0.431497	0.408205
C51	C	0.822407	0.764831	0.741538
C52	C	0.553047	0.104513	0.074898
C53	C	0.886380	0.437846	0.408231
C54	C	1.219714	0.771180	0.741564
C55	C	0.631994	0.105777	0.074897
C56	C	0.965327	0.439110	0.408230
C57	C	1.298661	0.772444	0.741563
C58	C	0.632022	0.105788	-0.075000
C59	C	0.965355	0.439121	0.258333
C60	C	1.298688	0.772455	0.591667
C61	C	0.553080	0.104526	-0.075005
C62	C	0.886413	0.437860	0.258328
C63	C	1.219746	0.771193	0.591662
C64	C	0.513597	0.103884	-0.000054
C65	C	0.846930	0.437217	0.333279
C66	C	1.180264	0.770550	0.666613
C67	C	0.427997	0.102520	-0.000059
C68	C	0.761330	0.435853	0.333274
C69	C	1.094664	0.769187	0.666608
C70	C	0.359770	0.101433	-0.000069
C71	C	0.693104	0.434767	0.333264
C72	C	1.026437	0.768100	0.666597
C73	C	0.899653	-0.036407	-0.000057
C74	C	1.232987	0.296926	0.333277
C75	C	1.566320	0.630259	0.666610
C76	C	0.898308	-0.120425	-0.000056
C77	C	1.231642	0.212909	0.333277
C78	C	1.564975	0.546242	0.666611
C79	C	1.032268	0.096204	-0.000074
C80	C	1.365602	0.429537	0.333259
C81	C	1.698935	0.762870	0.666593
C82	C	1.116286	0.097546	-0.000085
C83	C	1.449619	0.430880	0.333249
C84	C	1.782953	0.764213	0.666582
C85	C	0.959052	-0.645293	-0.000083
C86	C	1.292385	-0.311959	0.333250
C87	C	1.625718	0.021374	0.666583
C88	C	0.960311	-0.566349	-0.000076
C89	C	1.293644	-0.233016	0.333257
C90	C	1.626978	0.100318	0.666591
C91	C	0.891976	-0.517735	-0.000070
C92	C	1.225310	-0.184401	0.333263
C93	C	1.558643	0.148932	0.666597
C94	C	0.822378	-0.548068	-0.000063
C95	C	1.155711	-0.214734	0.333270
C96	C	1.489044	0.118599	0.666604
C97	C	0.821119	-0.627010	-0.000064
C98	C	1.154453	-0.293677	0.333269
C99	C	1.487786	0.039656	0.666602
C100	C	0.827451	-0.229702	-0.000056
C101	C	1.160784	0.103632	0.333277
C102	C	1.494117	0.436965	0.666610
C103	C	0.828715	-0.150754	-0.000057
C104	C	1.162048	0.182579	0.333276
C105	C	1.495381	0.515912	0.666609
C106	C	0.966642	-0.169040	-0.000068
C107	C	1.299976	0.164293	0.333265
C108	C	1.633309	0.497626	0.666599
C109	C	0.965384	-0.247983	-0.000069
C110	C	1.298717	0.085351	0.333264
C111	C	1.632051	0.418684	0.666597
C112	C	0.895786	-0.278309	-0.000058
C113	C	1.229120	0.055024	0.333275
C114	C	1.562453	0.388358	0.666609
C115	C	0.894422	-0.363909	-0.000064
C116	C	1.227755	-0.030576	0.333269
C117	C	1.561088	0.302758	0.666602
C118	C	0.893340	-0.432136	-0.000070
C119	C	1.226673	-0.098803	0.333264
C120	C	1.560006	0.234531	0.666597
C121	C	0.888114	0.240362	-0.000073
C122	C	1.221447	0.573695	0.333261
C123	C	1.554781	0.907028	0.666594
C124	C	0.889459	0.324379	-0.000079
C125	C	1.222792	0.657712	0.333255
C126	C	1.556125	0.991046	0.666588
N127	N	0.893866	0.101966	0.195602
N128	N	1.227200	0.435300	0.528936
N129	N	1.560533	0.768633	0.862269
N130	N	0.893907	0.101982	-0.195730
N131	N	1.227240	0.435316	0.137604
N132	N	1.560573	0.768649	0.470937
C133	C	0.945426	0.050441	0.238867
C134	C	1.278760	0.383775	0.572200
C135	C	1.612093	0.717108	0.905533
C136	C	0.945430	0.050441	0.325414
C137	C	1.278764	0.383774	0.658747
C138	C	1.612097	0.717107	0.992080
C139	C	0.893877	0.101969	0.368695
C140	C	1.227210	0.435302	0.702028
C141	C	1.560544	0.768635	1.035362
C142	C	0.842312	0.153496	0.325424
C143	C	1.175645	0.486829	0.658758
C144	C	1.508978	0.820163	0.992091
C145	C	0.842305	0.153493	0.238879
C146	C	1.175638	0.486826	0.572212
C147	C	1.508971	0.820159	0.905546
C148	C	0.842337	0.153510	0.674453
C149	C	1.175671	0.486844	1.007786
C150	C	1.509004	0.820177	1.341119
C151	C	0.842350	0.153511	0.761004
C152	C	1.175683	0.486844	1.094338
C153	C	1.509016	0.820178	1.427671
C154	C	0.945463	0.050458	0.760988
C155	C	1.278796	0.383792	1.094321
C156	C	1.612130	0.717125	1.427654
C157	C	0.945456	0.050455	0.674442
C158	C	1.278789	0.383788	1.007775
C159	C	1.612123	0.717121	1.341109
C160	C	0.893888	0.101979	0.631179
C161	C	1.227222	0.435312	0.964512
C162	C	1.560555	0.768646	1.297846
C163	C	0.893884	0.101978	0.537335
C164	C	1.227217	0.435312	0.870668
C165	C	1.560550	0.768645	1.204002
C166	C	0.893885	0.101974	0.462537
C167	C	1.227218	0.435307	0.795871
C168	C	1.560551	0.768640	1.129204
H169	H	0.664178	0.106308	-0.136029
H170	H	0.997512	0.439642	0.197304
H171	H	1.330845	0.772975	0.530638
N172	N	1.001048	-0.005118	0.372088
N173	N	1.334382	0.328216	0.705421
N174	N	1.667715	0.661549	1.038754
H175	H	1.034494	0.023783	0.407978
H176	H	1.367827	0.357117	0.741311
H177	H	1.701160	0.690450	1.074644
H178	H	0.972142	-0.038582	0.407967
H179	H	1.305475	0.294752	0.741300
H180	H	1.638809	0.628085	1.074634
N181	N	0.746055	-0.659717	-0.000062
N182	N	1.079388	-0.326384	0.333271
N183	N	1.412721	0.006949	0.666604
H184	H	0.742462	-0.692059	-0.051030
H185	H	1.075795	-0.358725	0.282304
H186	H	1.409128	-0.025392	0.615637
H187	H	0.742498	-0.692030	0.050942
H188	H	1.075831	-0.358697	0.384275
H189	H	1.409164	-0.025363	0.717608
H190	H	1.021029	-0.287561	-0.000078
H191	H	1.354363	0.045772	0.333255
H192	H	1.687696	0.379105	0.666588
H193	H	0.800366	0.195473	0.796242
H194	H	1.133699	0.528806	1.129576
H195	H	1.467033	0.862140	1.462909
H196	H	0.987450	0.008502	0.796221
H197	H	1.320784	0.341835	1.129555
H198	H	1.654117	0.675169	1.462888
H199	H	0.987410	0.008484	0.203633
H200	H	1.320743	0.341818	0.536966
H201	H	1.654077	0.675151	0.870300
N202	N	1.041712	-0.136332	-0.000068
N203	N	1.375045	0.197001	0.333266
N204	N	1.708378	0.530335	0.666599
H205	H	1.032144	-0.078946	-0.000060
H206	H	1.365478	0.254387	0.333274
H207	H	1.698811	0.587721	0.666607
H208	H	1.071598	-0.154135	0.050901
H209	H	1.404931	0.179199	0.384235
H210	H	1.738265	0.512532	0.717568
H211	H	0.800351	0.195464	0.639235
H212	H	1.133684	0.528798	0.972568
H213	H	1.467017	0.862131	1.305902
N214	N	1.001063	-0.005118	0.627760
N215	N	1.334396	0.328215	0.961093
N216	N	1.667729	0.661548	1.294427
H217	H	1.033726	-0.037761	0.668301
H218	H	1.367060	0.295572	1.001635
H219	H	1.700393	0.628906	1.334968
H220	H	0.972145	-0.038544	0.591868
H221	H	1.305478	0.294789	0.925201
H222	H	1.638812	0.628123	1.258534
H223	H	0.123650	0.097679	-0.136064
H224	H	0.456983	0.431012	0.197269
H225	H	0.790316	0.764346	0.530602
H226	H	1.016980	-0.541660	-0.000079
H227	H	1.350314	-0.208327	0.333255
H228	H	1.683647	0.125007	0.666588
N229	N	0.510465	0.103822	0.155732
N230	N	0.843798	0.437155	0.489065
N231	N	1.177132	0.770488	0.822399
H232	H	0.547508	0.103876	0.203212
H233	H	0.880842	0.437210	0.536545
H234	H	1.214175	0.770543	0.869878
H235	H	0.471856	0.150470	0.159246
H236	H	0.805189	0.483803	0.492580
H237	H	1.138522	0.817136	0.825913
H238	H	0.800332	0.195449	0.360669
H239	H	1.133665	0.528782	0.694002
H240	H	1.466999	0.862115	1.027336
H241	H	0.664118	0.106286	0.135934
H242	H	0.997451	0.439619	0.469268
H243	H	1.330785	0.772953	0.802601
N244	N	0.277308	0.100135	-0.155856
N245	N	0.610642	0.433468	0.177477
N246	N	0.943975	0.766801	0.510810
H247	H	0.316279	0.053758	-0.159196
H248	H	0.649612	0.387092	0.174137
H249	H	0.982945	0.720425	0.507471
H250	H	0.240287	0.099581	-0.203295
H251	H	0.573620	0.432914	0.130038
H252	H	0.906954	0.766247	0.463371
H253	H	0.770780	-0.254383	-0.000057
H254	H	1.104113	0.078950	0.333276
H255	H	1.437447	0.412284	0.666610
N256	N	0.510522	0.103853	-0.155844
N257	N	0.843855	0.437186	0.177489
N258	N	1.177188	0.770520	0.510823
H259	H	0.547515	0.104444	-0.203323
H260	H	0.880849	0.437777	0.130010
H261	H	1.214182	0.771111	0.463344
H262	H	0.483989	0.056428	-0.159103
H263	H	0.817322	0.389761	0.174230
H264	H	1.150655	0.723094	0.507563
N265	N	0.277236	0.100098	0.155718
N266	N	0.610569	0.433431	0.489051
N267	N	0.943902	0.766764	0.822385
H268	H	0.333237	0.100997	0.144350
H269	H	0.666570	0.434330	0.477684
H270	H	0.999903	0.767664	0.811017
H271	H	0.257209	0.146776	0.188442
H272	H	0.590542	0.480109	0.521775
H273	H	0.923875	0.813443	0.855109
H274	H	0.773065	-0.111173	-0.000051
H275	H	1.106398	0.222160	0.333283
H276	H	1.439731	0.555493	0.666616
H277	H	0.800318	0.195448	0.203654
H278	H	1.133652	0.528782	0.536987
H279	H	1.466985	0.862115	0.870321
H280	H	0.123592	0.097654	0.135900
H281	H	0.456925	0.430987	0.469233
H282	H	0.790259	0.764320	0.802567
N283	N	1.032757	-0.697724	-0.000096
N284	N	1.366090	-0.364391	0.333238
N285	N	1.699423	-0.031057	0.666571
H286	H	1.077034	-0.666529	-0.000095
H287	H	1.410367	-0.333196	0.333238
H288	H	1.743701	0.000138	0.666571
H289	H	1.035233	-0.730883	0.050874
H290	H	1.368566	-0.397549	0.384207
H291	H	1.701900	-0.064216	0.717541
H292	H	0.766739	-0.508480	-0.000053
H293	H	1.100072	-0.175146	0.333280
H294	H	1.433405	0.158187	0.666613
