data_functionalizedCrystal
_audit_creation_method	'MofGen! by Chris Wilmer'
_symmetry_space_group_name_H-M	'P1'
_symmetry_Int_Tables_number	1
_symmetry_cell_setting	triclinic
loop_
_symmetry_equiv_pos_as_xyz
  x,y,z
_cell_length_a	17.699083
_cell_length_b	17.699104
_cell_length_c	9.730223
_cell_angle_alpha	89.994021
_cell_angle_beta	90.005576
_cell_angle_gamma	83.287266
loop_
_atom_site_label
_atom_site_type_symbol
_atom_site_fract_x
_atom_site_fract_y
_atom_site_fract_z
O1	O	-1.004078	-0.095711	0.114100
O2	O	-0.783701	-0.108163	0.114145
O3	O	-0.900108	0.008251	0.114109
O4	O	-0.887672	-0.212125	0.114136
O5	O	-0.900107	0.008256	-0.114471
O6	O	-0.783700	-0.108158	-0.114434
O7	O	-1.004077	-0.095706	-0.114480
Zn8	Zn	-0.893889	-0.101931	-0.150749
Zn9	Zn	-0.893890	-0.101938	0.150415
O10	O	-0.887671	-0.212120	-0.114444
C11	C	-0.755503	-0.107715	-0.000139
C12	C	-0.671485	-0.106376	-0.000122
C13	C	-0.899659	0.036450	-0.000181
C14	C	-0.898314	0.120467	-0.000181
C15	C	-1.032275	-0.096155	-0.000193
C16	C	-1.116293	-0.097493	-0.000200
C17	C	-0.622869	-0.174709	-0.000114
C18	C	-0.543926	-0.173446	-0.000132
C19	C	-0.513600	-0.103851	-0.000148
C20	C	-0.562222	-0.035513	-0.000160
C21	C	-0.641164	-0.036776	-0.000152
C22	C	-0.243859	-0.030418	-0.000195
C23	C	-0.164911	-0.029160	-0.000199
C24	C	-0.146621	-0.167088	-0.000175
C25	C	-0.225563	-0.168351	-0.000166
C26	C	-0.274178	-0.100014	-0.000186
C27	C	-0.359777	-0.101383	-0.000169
C28	C	-0.428002	-0.102480	-0.000155
C29	C	-0.888120	-0.240319	-0.000150
C30	C	-0.889464	-0.324337	-0.000141
C31	C	-0.959058	0.645338	-0.000155
C32	C	-0.960317	0.566395	-0.000167
C33	C	-0.891982	0.517777	-0.000156
C34	C	-0.822383	0.548107	-0.000147
C35	C	-0.821125	0.627049	-0.000144
C36	C	-0.827456	0.229741	-0.000159
C37	C	-0.828720	0.150794	-0.000158
C38	C	-0.966648	0.169086	-0.000182
C39	C	-0.965390	0.248029	-0.000180
C40	C	-0.895792	0.278352	-0.000177
C41	C	-0.894427	0.363951	-0.000167
C42	C	-0.893345	0.432179	-0.000157
N43	N	-0.893891	-0.101937	0.355951
N44	N	-0.893893	-0.101926	-0.356286
C45	C	-0.945532	-0.050489	0.427861
C46	C	-0.945535	-0.050485	0.571744
C47	C	-0.842250	-0.153380	0.571794
C48	C	-0.842251	-0.153387	0.427914
H49	H	-0.647554	-0.231382	-0.000100
H50	H	-0.800199	-0.195286	0.369361
H51	H	-0.504346	-0.229090	-0.000124
H52	H	-0.800205	-0.195268	0.630401
H53	H	-0.250249	-0.225023	-0.000147
H54	H	-0.987586	-0.008592	0.630289
F55	F	-0.094875	-0.239820	-0.000159
H56	H	-0.140223	0.027517	-0.000214
H57	H	-1.016987	0.541708	-0.000180
F58	F	-0.749655	0.496362	-0.000142
H59	H	-0.987581	-0.008597	0.369272
H60	H	-0.773070	0.111210	-0.000152
F61	F	-0.295589	0.042314	-0.000215
F62	F	-0.753383	0.262003	-0.000147
F63	F	-0.529945	0.038557	-0.000186
H64	H	-0.764455	0.651738	-0.000144
H65	H	-0.680747	0.018868	-0.000158
H66	H	-1.021036	0.287610	-0.000182
F67	F	-1.040722	0.136808	-0.000191
F68	F	-1.031791	0.697074	-0.000156
