data_functionalizedCrystal
_audit_creation_method	'MofGen! by Chris Wilmer'
_symmetry_space_group_name_H-M	'P1'
_symmetry_Int_Tables_number	1
_symmetry_cell_setting	triclinic
loop_
_symmetry_equiv_pos_as_xyz
  x,y,z
_cell_length_a	8.497374
_cell_length_b	8.497374
_cell_length_c	13.033293
_cell_angle_alpha	97.166474
_cell_angle_beta	97.195495
_cell_angle_gamma	90.001110
loop_
_atom_site_label
_atom_site_type_symbol
_atom_site_fract_x
_atom_site_fract_y
_atom_site_fract_z
Zn1	Zn	1.198892	-0.322419	1.597621
Zn2	Zn	0.935134	-0.586167	1.597629
Zn3	Zn	0.901565	-0.355847	1.422917
Zn4	Zn	1.165308	-0.619603	1.422911
O5	O	1.050225	-0.471009	1.510270
O6	O	1.192008	-0.329423	1.743857
O7	O	0.709920	-0.555611	1.574459
O8	O	0.941012	-0.130650	1.446092
O9	O	0.998226	-0.523197	1.743863
O10	O	1.159457	-0.106091	1.574446
O11	O	0.685257	-0.386396	1.446099
O12	O	0.908447	-0.418817	1.276682
O13	O	1.390524	-0.580184	1.446080
O14	O	1.102218	-0.612598	1.276677
O15	O	1.415198	-0.361844	1.574440
O16	O	0.965661	-0.811364	1.574453
O17	O	1.134769	-0.835930	1.446088
C18	C	0.998047	-0.522964	1.238762
C19	C	0.975762	-0.545229	1.122610
C20	C	1.640346	-0.471033	1.510276
C21	C	1.461700	-0.471028	1.510265
C22	C	1.061855	-0.459428	1.070823
C23	C	1.038825	-0.482438	0.950774
C24	C	1.050231	-0.059530	1.510261
C25	C	1.050235	0.119114	1.510261
C26	C	1.102607	-0.418852	1.782837
C27	C	1.124930	-0.396625	1.898989
H28	H	1.152606	-0.368931	1.115362
H29	H	0.948058	-0.572933	0.906239
F30	F	1.243555	-0.278324	0.957193
F31	F	0.857125	-0.663503	1.064400
