data_functionalizedCrystal
_audit_creation_method	'MofGen! by Chris Wilmer'
_symmetry_space_group_name_H-M	'P1'
_symmetry_Int_Tables_number	1
_symmetry_cell_setting	triclinic
loop_
_symmetry_equiv_pos_as_xyz
  x,y,z
_cell_length_a	10.489741
_cell_length_b	8.559649
_cell_length_c	7.088929
_cell_angle_alpha	84.655815
_cell_angle_beta	83.729901
_cell_angle_gamma	102.841081
loop_
_atom_site_label
_atom_site_type_symbol
_atom_site_fract_x
_atom_site_fract_y
_atom_site_fract_z
O1	O	1.655669	-0.241423	0.158862
O2	O	1.282245	-0.262562	0.158891
O3	O	1.501856	-0.019769	0.158872
O4	O	1.436058	-0.484216	0.158881
O5	O	1.531212	0.012752	-0.159106
O6	O	1.311601	-0.230041	-0.159087
O7	O	1.685025	-0.208902	-0.159116
Cu8	Cu	1.500993	-0.216502	-0.188135
Cu9	Cu	1.466276	-0.254962	0.187910
O10	O	1.465414	-0.451695	-0.159097
C11	C	1.249559	-0.244706	-0.000094
C12	C	1.108431	-0.239931	-0.000083
C13	C	1.521520	0.055964	-0.000114
C14	C	1.536361	0.233172	-0.000104
N15	N	1.525421	-0.189451	-0.452625
C16	C	1.056559	-0.085447	-0.000104
C17	C	0.942275	-0.174457	0.156673
C18	C	0.971248	-0.142431	-0.156828
C19	C	0.995993	-0.329017	0.156824
C20	C	1.024991	-0.296955	-0.156818
C21	C	0.910718	-0.386081	-0.000003
C22	C	1.717710	-0.226759	-0.000126
C23	C	1.858837	-0.231535	-0.000125
C24	C	1.445749	-0.527429	-0.000107
C25	C	1.430907	-0.704638	-0.000104
N26	N	1.441860	-0.282001	0.452401
H27	H	0.905906	-0.122649	0.289217
H28	H	1.355260	-0.377910	-0.465946
H29	H	0.847900	-0.513218	0.000085
N30	N	1.303402	0.192065	-0.000065
N31	N	1.257033	0.081478	0.133984
H32	H	1.166981	0.008512	0.134014
N33	N	1.663894	0.336427	-0.000143
N34	N	1.753699	0.343489	-0.134184
H35	H	1.843769	0.416411	-0.134215
H36	H	1.612034	-0.093547	-0.534289
H37	H	1.119603	0.041526	0.000090
H38	H	1.007694	-0.407902	0.289516
H39	H	1.061397	-0.348710	-0.289368
H40	H	0.959392	-0.063483	-0.289371
