data_functionalizedCrystal
_audit_creation_method	'MofGen! by Chris Wilmer'
_symmetry_space_group_name_H-M	'P1'
_symmetry_Int_Tables_number	1
_symmetry_cell_setting	triclinic
loop_
_symmetry_equiv_pos_as_xyz
  x,y,z
_cell_length_a	10.654550
_cell_length_b	11.026607
_cell_length_c	9.130313
_cell_angle_alpha	90.000037
_cell_angle_beta	89.996220
_cell_angle_gamma	96.535460
loop_
_atom_site_label
_atom_site_type_symbol
_atom_site_fract_x
_atom_site_fract_y
_atom_site_fract_z
O1	O	1.704901	0.170762	-0.121918
O2	O	1.342954	0.187032	-0.121895
O3	O	1.493930	0.001991	-0.121899
O4	O	1.553926	0.355802	-0.121914
O5	O	1.493929	0.001996	0.121700
O6	O	1.342953	0.187037	0.121704
O7	O	1.704900	0.170767	0.121681
Cu8	Cu	1.523927	0.178902	0.143935
Cu9	Cu	1.523928	0.178896	-0.144149
O10	O	1.553924	0.355807	0.121685
C11	C	1.295897	0.185839	-0.000092
C12	C	1.155677	0.182265	-0.000083
C13	C	1.099841	0.291214	-0.000109
C14	C	0.968090	0.287849	-0.000134
C15	C	0.948022	0.066576	-0.000114
C16	C	1.079771	0.069943	-0.000078
C17	C	1.111426	0.418964	-0.000127
C18	C	0.979675	0.415599	-0.000152
C19	C	1.482861	-0.043310	-0.000101
C20	C	1.449867	-0.178302	-0.000104
C21	C	1.540970	-0.251341	-0.000112
C22	C	1.506871	-0.390862	-0.000115
C23	C	1.751958	0.171959	-0.000125
C24	C	1.892177	0.175533	-0.000144
C25	C	1.564993	0.401109	-0.000116
C26	C	1.597988	0.536100	-0.000123
N27	N	1.523934	0.178906	0.346558
N28	N	1.523928	0.178883	-0.346771
C29	C	1.590814	0.096998	0.423208
C30	C	1.590808	0.096983	0.576544
C31	C	1.457040	0.260795	0.576568
C32	C	1.457040	0.260803	0.423234
C33	C	1.668049	0.002426	0.423195
C34	C	1.668043	0.002411	0.576532
H35	H	0.886203	-0.024874	-0.000132
C36	C	1.804521	0.030555	0.632754
H37	H	1.860652	0.042153	0.551823
H38	H	1.825870	-0.035738	0.690545
H39	H	1.811238	0.102637	0.690563
H40	H	1.151603	0.468929	0.101823
C41	C	1.367392	-0.445908	-0.000108
H42	H	1.362771	-0.532460	-0.000101
H43	H	1.326679	-0.419615	-0.085050
H44	H	1.326684	-0.419622	0.084858
H45	H	1.125227	-0.018774	-0.000036
H46	H	1.346625	-0.219062	-0.000107
C47	C	1.680442	-0.196290	-0.000116
H48	H	1.685064	-0.109737	-0.000102
H49	H	1.721159	-0.222578	-0.085064
H50	H	1.721147	-0.222580	0.084843
C51	C	1.171534	0.473923	-0.142193
H52	H	1.107133	0.496074	-0.205480
H53	H	1.216434	0.415323	-0.189383
H54	H	1.228106	0.544299	-0.119359
H55	H	0.942384	0.454209	0.105015
C56	C	1.611647	-0.123798	0.366959
H57	H	1.611653	-0.123786	0.262906
H58	H	1.527459	-0.141153	0.401644
H59	H	1.661044	-0.184322	0.401616
C60	C	0.937389	0.480455	-0.137989
H61	H	1.009404	0.509417	-0.194655
H62	H	0.893854	0.547309	-0.109854
H63	H	0.882829	0.424589	-0.194538
H64	H	1.402568	0.327488	0.360827
H65	H	1.701236	-0.423147	-0.000240
C66	C	1.383470	0.350881	0.660916
H67	H	1.393053	0.339151	0.763215
H68	H	1.296508	0.336925	0.635790
H69	H	1.415485	0.432155	0.635793
H70	H	1.765661	0.032038	0.375630
H71	H	1.618360	-0.085899	0.624085
