data_functionalizedCrystal
_audit_creation_method	'MofGen! by Chris Wilmer'
_symmetry_space_group_name_H-M	'P1'
_symmetry_Int_Tables_number	1
_symmetry_cell_setting	triclinic
loop_
_symmetry_equiv_pos_as_xyz
  x,y,z
_cell_length_a	23.532407
_cell_length_b	14.519709
_cell_length_c	13.596369
_cell_angle_alpha	89.993066
_cell_angle_beta	90.002653
_cell_angle_gamma	96.735555
loop_
_atom_site_label
_atom_site_type_symbol
_atom_site_fract_x
_atom_site_fract_y
_atom_site_fract_z
O1	O	0.755765	-0.111952	0.081732
O2	O	1.255765	0.388048	0.581732
O3	O	0.589975	-0.128150	0.081747
O4	O	1.089975	0.371850	0.581747
O5	O	0.677266	0.014240	0.081730
O6	O	1.177266	0.514240	0.581730
O7	O	0.668474	-0.254341	0.081749
O8	O	1.168474	0.245659	0.581749
O9	O	0.677257	0.014247	-0.081853
O10	O	1.177257	0.514247	0.418147
O11	O	0.589966	-0.128142	-0.081836
O12	O	1.089966	0.371858	0.418164
O13	O	0.755756	-0.111944	-0.081851
O14	O	1.255756	0.388056	0.418149
Zn15	Zn	0.672860	-0.120042	-0.107816
Zn16	Zn	1.172860	0.379958	0.392184
Zn17	Zn	0.672871	-0.120052	0.107712
Zn18	Zn	1.172871	0.379948	0.607712
O19	O	0.668466	-0.254334	-0.081834
O20	O	1.168466	0.245666	0.418166
C21	C	0.568753	-0.127733	-0.000042
C22	C	1.068753	0.372267	0.499958
C23	C	0.505530	-0.126493	-0.000036
C24	C	1.005530	0.373507	0.499964
C25	C	0.238959	-0.037116	-0.000069
C26	C	0.738959	0.462884	0.499931
C27	C	0.298365	-0.038268	-0.000069
C28	C	0.798365	0.461732	0.499931
O29	O	0.334789	0.032634	-0.000108
O30	O	0.834789	0.532634	0.499892
N31	N	0.321373	-0.122918	-0.000056
N32	N	0.821373	0.377082	0.499944
C33	C	0.284972	-0.206422	-0.000054
C34	C	0.784972	0.293578	0.499946
O35	O	0.309997	-0.278530	-0.000044
O36	O	0.809997	0.221470	0.499956
C37	C	0.225568	-0.205269	-0.000062
C38	C	0.725568	0.294731	0.499938
C39	C	0.202563	-0.120613	-0.000064
C40	C	0.702563	0.379387	0.499936
C41	C	0.215954	0.047533	-0.000073
C42	C	0.715954	0.547533	0.499927
C43	C	0.156553	0.048685	-0.000071
C44	C	0.656553	0.548685	0.499929
C45	C	0.120157	-0.034812	-0.000066
C46	C	0.620157	0.465188	0.499934
C47	C	0.143162	-0.119462	-0.000063
C48	C	0.643162	0.380538	0.499937
C49	C	0.189168	-0.288772	-0.000066
C50	C	0.689168	0.211228	0.499934
C51	C	0.129760	-0.287612	-0.000075
C52	C	0.629760	0.212388	0.499925
C53	C	0.106756	-0.202956	-0.000077
C54	C	0.606756	0.297044	0.499923
C55	C	0.047364	-0.201807	-0.000056
C56	C	0.547364	0.298193	0.499944
N57	N	0.024356	-0.117157	-0.000069
N58	N	0.524356	0.382843	0.499931
C59	C	0.060752	-0.033659	-0.000074
C60	C	0.560752	0.466341	0.499926
C61	C	0.409726	-0.208837	-0.000040
C62	C	0.909726	0.291163	0.499960
C63	C	0.469129	-0.209991	-0.000026
C64	C	0.969129	0.290009	0.499974
C65	C	0.482517	-0.041836	-0.000043
C66	C	0.982517	0.458164	0.499957
C67	C	0.423113	-0.040683	-0.000050
C68	C	0.923113	0.459317	0.499950
C69	C	0.386717	-0.124187	-0.000053
C70	C	0.886717	0.375813	0.499947
C71	C	-0.063995	-0.031247	-0.000070
C72	C	0.436005	0.468753	0.499930
C73	C	-0.123403	-0.030103	-0.000064
C74	C	0.376597	0.469897	0.499936
C75	C	-0.136786	-0.198257	-0.000053
C76	C	0.363214	0.301743	0.499947
C77	C	-0.077384	-0.199402	-0.000053
C78	C	0.422616	0.300598	0.499947
C79	C	-0.040990	-0.115890	-0.000065
C80	C	0.459010	0.384110	0.499935
O81	O	0.010905	-0.272672	-0.000021
O82	O	0.510905	0.227328	0.499979
O83	O	0.035719	0.038436	-0.000096
O84	O	0.535719	0.538436	0.499904
C85	C	0.676852	0.048599	-0.000061
C86	C	1.176852	0.548599	0.499939
C87	C	0.675624	0.150965	-0.000062
C88	C	1.175624	0.650965	0.499938
C89	C	0.776979	-0.112360	-0.000060
C90	C	1.276979	0.387640	0.499940
C91	C	0.840201	-0.113601	-0.000059
C92	C	1.340201	0.386399	0.499941
C93	C	0.668880	-0.288692	-0.000040
C94	C	1.168880	0.211308	0.499960
C95	C	0.670107	-0.391059	-0.000034
C96	C	1.170107	0.108941	0.499966
N97	N	0.672856	-0.120035	-0.254908
N98	N	1.172856	0.379965	0.245092
C99	C	0.671104	0.525808	-0.000036
C100	C	1.171104	1.025808	0.499964
C101	C	0.672359	0.421515	-0.000043
C102	C	1.172359	0.921515	0.499957
C103	C	0.673364	0.338390	-0.000050
C104	C	1.173364	0.838390	0.499950
C105	C	0.674619	0.234090	-0.000055
C106	C	1.174619	0.734090	0.499945
C107	C	0.672871	-0.120053	-0.656199
C108	C	1.172871	0.379947	-0.156199
C109	C	0.672865	-0.120051	-0.544547
C110	C	1.172865	0.379949	-0.044547
C111	C	0.672864	-0.120044	-0.455557
C112	C	1.172864	0.379956	0.044443
C113	C	0.672857	-0.120041	-0.343898
C114	C	1.172857	0.379959	0.156102
N115	N	0.672880	-0.120052	0.254804
N116	N	1.172880	0.379948	0.754804
H117	H	-0.034369	0.036757	-0.000079
H118	H	0.465631	0.536757	0.499921
C119	C	-0.148706	0.063024	-0.000070
C120	C	0.351294	0.563024	0.499930
C121	C	-0.135015	0.132228	-0.085022
C122	C	0.364985	0.632228	0.414978
C123	C	-0.160316	0.225352	-0.085030
C124	C	0.339684	0.725352	0.414970
C125	C	-0.199308	0.249272	-0.000086
C126	C	0.300692	0.749272	0.499914
C127	C	-0.213001	0.180067	0.084873
C128	C	0.286999	0.680067	0.584873
C129	C	-0.187700	0.086943	0.084880
C130	C	0.312300	0.586943	0.584880
H131	H	-0.106149	0.114523	-0.147909
H132	H	0.393851	0.614523	0.352091
H133	H	-0.150179	0.276582	-0.147922
H134	H	0.349821	0.776582	0.352078
H135	H	-0.218037	0.318208	-0.000091
H136	H	0.281963	0.818208	0.499909
H137	H	-0.241867	0.197772	0.147759
H138	H	0.258133	0.697772	0.647759
H139	H	-0.197837	0.035712	0.147772
H140	H	0.302163	0.535712	0.647772
C141	C	-0.052071	-0.292519	-0.000039
C142	C	0.447929	0.207481	0.499961
C143	C	-0.065765	-0.361721	-0.084976
C144	C	0.434235	0.138279	0.415024
C145	C	-0.040455	-0.454837	-0.084970
C146	C	0.459545	0.045163	0.415030
C147	C	-0.001451	-0.478751	-0.000028
C148	C	0.498549	0.021249	0.499972
C149	C	0.012245	-0.409547	0.084915
C150	C	0.512245	0.090453	0.584915
C151	C	-0.013065	-0.316431	0.084910
C152	C	0.486935	0.183569	0.584910
H153	H	-0.094640	-0.344020	-0.147860
H154	H	0.405360	0.155980	0.352140
H155	H	-0.050594	-0.506066	-0.147851
H156	H	0.449406	-0.006066	0.352149
H157	H	0.017285	-0.547681	-0.000025
H158	H	0.517285	-0.047681	0.499975
H159	H	0.041120	-0.427248	0.147799
H160	H	0.541120	0.072752	0.647799
H161	H	-0.002926	-0.265202	0.147791
H162	H	0.497074	0.234798	0.647791
H163	H	0.487853	-0.278926	-0.000010
H164	H	0.987853	0.221074	0.499990
C165	C	0.255983	0.139391	-0.000072
C166	C	0.755983	0.639391	0.499928
C167	C	0.253333	0.208922	-0.085014
C168	C	0.753333	0.708922	0.414986
C169	C	0.293358	0.300787	-0.085003
C170	C	0.793358	0.800787	0.414997
C171	C	0.336032	0.323122	-0.000050
C172	C	0.836032	0.823122	0.499950
C173	C	0.338684	0.253590	0.084898
C174	C	0.838684	0.753590	0.584898
C175	C	0.298659	0.161725	0.084887
C176	C	0.798659	0.661725	0.584887
H177	H	0.221742	0.192390	-0.147907
H178	H	0.721742	0.692390	0.352093
H179	H	0.291395	0.352259	-0.147888
H180	H	0.791395	0.852259	0.352112
H181	H	0.365661	0.391126	-0.000042
H182	H	0.865661	0.891126	0.499958
H183	H	0.370276	0.270122	0.147791
H184	H	0.870276	0.770122	0.647791
H185	H	0.300623	0.110252	0.147772
H186	H	0.800623	0.610252	0.647772
H187	H	0.512162	0.026152	-0.000047
H188	H	1.012162	0.526152	0.499953
H189	H	0.137828	0.117621	-0.000078
H190	H	0.637828	0.617621	0.499922
C191	C	0.369693	-0.300699	-0.000027
C192	C	0.869693	0.199301	0.499973
C193	C	0.372343	-0.370214	0.084929
C194	C	0.872343	0.129786	0.584929
C195	C	0.332314	-0.462075	0.084941
C196	C	0.832314	0.037925	0.584941
C197	C	0.289635	-0.484420	-0.000003
C198	C	0.789635	0.015580	0.499997
C199	C	0.286983	-0.414903	-0.084966
C200	C	0.786983	0.085097	0.415034
C201	C	0.327012	-0.323043	-0.084978
C202	C	0.827012	0.176957	0.415022
H203	H	0.403938	-0.353675	0.147816
H204	H	0.903938	0.146325	0.647816
H205	H	0.334277	-0.513536	0.147836
H206	H	0.834277	-0.013536	0.647836
H207	H	0.260003	-0.552421	0.000005
H208	H	0.760003	-0.052421	0.500005
H209	H	0.255388	-0.431443	-0.147853
H210	H	0.755388	0.068557	0.352147
H211	H	0.325049	-0.271581	-0.147873
H212	H	0.825049	0.228419	0.352127
H213	H	0.207888	-0.357708	-0.000060
H214	H	0.707888	0.142292	0.499940
C215	C	-0.176830	-0.290100	-0.000052
C216	C	0.323170	0.209900	0.499948
C217	C	-0.219515	-0.312432	0.084885
C218	C	0.280485	0.187568	0.584885
C219	C	-0.259561	-0.404275	0.084877
C220	C	0.240439	0.095725	0.584877
C221	C	-0.256923	-0.473785	-0.000069
C222	C	0.243077	0.026215	0.499931
C223	C	-0.214236	-0.451455	-0.085012
C224	C	0.285764	0.048545	0.414988
C225	C	-0.174190	-0.359612	-0.085004
C226	C	0.325810	0.140388	0.414996
H227	H	-0.221470	-0.260975	0.147773
H228	H	0.278530	0.239025	0.647773
H229	H	-0.291161	-0.420805	0.147759
H230	H	0.208839	0.079195	0.647759
H231	H	-0.286567	-0.541773	-0.000075
H232	H	0.213433	-0.041773	0.499925
H233	H	-0.212281	-0.502912	-0.147900
H234	H	0.287719	-0.002912	0.352100
H235	H	-0.142590	-0.343082	-0.147885
H236	H	0.357410	0.156918	0.352115
H237	H	0.404387	0.028251	-0.000053
H238	H	0.904387	0.528251	0.499947
H239	H	0.100129	-0.355612	-0.000082
H240	H	0.600129	0.144388	0.499918
