data_functionalizedCrystal
_audit_creation_method	'MofGen! by Chris Wilmer'
_symmetry_space_group_name_H-M	'P1'
_symmetry_Int_Tables_number	1
_symmetry_cell_setting	triclinic
loop_
_symmetry_equiv_pos_as_xyz
  x,y,z
_cell_length_a	16.992694
_cell_length_b	15.995350
_cell_length_c	15.455313
_cell_angle_alpha	92.667328
_cell_angle_beta	87.142206
_cell_angle_gamma	87.080299
loop_
_atom_site_label
_atom_site_type_symbol
_atom_site_fract_x
_atom_site_fract_y
_atom_site_fract_z
O1	O	1.043823	0.174116	-0.072015
O2	O	1.377156	0.507449	0.261318
O3	O	1.710489	0.840782	0.594652
O4	O	0.815539	0.172167	-0.072041
O5	O	1.148872	0.505500	0.261293
O6	O	1.482205	0.838833	0.594626
O7	O	0.935921	0.051671	-0.072026
O8	O	1.269254	0.385005	0.261307
O9	O	1.602588	0.718338	0.594640
O10	O	0.923440	0.294611	-0.072029
O11	O	1.256774	0.627945	0.261304
O12	O	1.590107	0.961278	0.594637
O13	O	0.929037	0.058531	0.072235
O14	O	1.262370	0.391865	0.405568
O15	O	1.595704	0.725198	0.738902
O16	O	0.808655	0.179027	0.072221
O17	O	1.141988	0.512360	0.405554
O18	O	1.475321	0.845694	0.738887
O19	O	1.036939	0.180976	0.072246
O20	O	1.370272	0.514309	0.405580
O21	O	1.703605	0.847643	0.738913
Cu22	Cu	0.922168	0.180628	0.085406
Cu23	Cu	1.255501	0.513961	0.418739
Cu24	Cu	1.588835	0.847294	0.752072
Cu25	Cu	0.930309	0.172515	-0.085200
Cu26	Cu	1.263642	0.505848	0.248133
Cu27	Cu	1.596976	0.839181	0.581467
O28	O	0.916556	0.301471	0.072232
O29	O	1.249890	0.634805	0.405565
O30	O	1.583223	0.968138	0.738899
C31	C	0.782884	0.173091	0.000087
C32	C	1.116217	0.506424	0.333420
C33	C	1.449551	0.839758	0.666753
C34	C	0.695840	0.165614	0.000077
C35	C	1.029174	0.498948	0.333410
C36	C	1.362507	0.832281	0.666743
C37	C	0.645600	0.237750	0.000077
C38	C	0.978933	0.571083	0.333410
C39	C	1.312267	0.904416	0.666743
C40	C	0.563813	0.230720	0.000089
C41	C	0.897146	0.564054	0.333422
C42	C	1.230480	0.897387	0.666755
C43	C	0.532268	0.151555	0.000095
C44	C	0.865601	0.484888	0.333428
C45	C	1.198935	0.818222	0.666761
C46	C	0.582515	0.079414	0.000098
C47	C	0.915848	0.412748	0.333431
C48	C	1.249181	0.746081	0.666764
C49	C	0.664300	0.086445	0.000092
C50	C	0.997633	0.419778	0.333425
C51	C	1.330967	0.753111	0.666758
C52	C	0.288669	0.122418	0.000118
C53	C	0.622002	0.455751	0.333452
C54	C	0.955336	0.789084	0.666785
C55	C	0.206878	0.115393	0.000122
C56	C	0.540211	0.448726	0.333455
C57	C	0.873544	0.782059	0.666788
C58	C	0.188181	0.266700	0.000114
C59	C	0.521514	0.600033	0.333448
C60	C	0.854848	0.933366	0.666781
C61	C	0.269969	0.273723	0.000103
C62	C	0.603302	0.607056	0.333437
C63	C	0.936636	0.940389	0.666770
C64	C	0.320208	0.201582	0.000111
C65	C	0.653542	0.534916	0.333444
C66	C	0.986875	0.868249	0.666777
N67	N	0.448669	0.144368	0.000104
N68	N	0.782002	0.477701	0.333438
N69	N	1.115335	0.811035	0.666771
N70	N	0.403806	0.208770	0.000107
N71	N	0.737139	0.542103	0.333441
N72	N	1.070473	0.875437	0.666774
C73	C	0.931963	0.023872	0.000103
C74	C	1.265296	0.357205	0.333436
C75	C	1.598630	0.690539	0.666769
C76	C	0.930416	-0.069182	0.000098
C77	C	1.263750	0.264151	0.333431
C78	C	1.597083	0.597484	0.666764
C79	C	0.924861	-0.407301	0.000100
C80	C	1.258194	-0.073968	0.333433
C81	C	1.591528	0.259365	0.666767
C82	C	0.839142	-0.365620	-0.000233
C83	C	1.172476	-0.032287	0.333100
C84	C	1.505809	0.301047	0.666433
C85	C	0.840674	-0.268811	0.000092
C86	C	1.174007	0.064523	0.333425
C87	C	1.507341	0.397856	0.666759
C88	C	0.927617	-0.239556	0.000098
C89	C	1.260950	0.093777	0.333432
C90	C	1.594283	0.427110	0.666765
C91	C	0.965973	-0.273887	0.082482
C92	C	1.299306	0.059447	0.415815
C93	C	1.632639	0.392780	0.749148
C94	C	0.963816	-0.370663	0.082550
C95	C	1.297149	-0.037330	0.415884
C96	C	1.630482	0.296003	0.749217
C97	C	0.973415	-0.378704	-0.081501
C98	C	1.306748	-0.045371	0.251832
C99	C	1.640082	0.287962	0.585165
C100	C	0.973447	-0.281812	-0.082590
C101	C	1.306780	0.051521	0.250743
C102	C	1.640113	0.384855	0.584077
C103	C	0.929178	-0.144754	0.000100
C104	C	1.262512	0.188579	0.333434
C105	C	1.595845	0.521912	0.666767
C106	C	0.923301	-0.502103	0.000104
C107	C	1.256635	-0.168770	0.333437
C108	C	1.589968	0.164563	0.666770
C109	C	1.069593	0.180052	0.000117
C110	C	1.402926	0.513385	0.333450
C111	C	1.736260	0.846718	0.666784
C112	C	1.156637	0.187528	0.000121
C113	C	1.489970	0.520861	0.333455
C114	C	1.823304	0.854195	0.666788
C115	C	0.920514	0.329271	0.000101
C116	C	1.253848	0.662604	0.333434
C117	C	1.587181	0.995937	0.666768
C118	C	0.922061	0.422324	0.000101
C119	C	1.255395	0.755658	0.333434
C120	C	1.588728	1.088991	0.666767
N121	N	0.916448	0.186334	0.205401
N122	N	1.249781	0.519667	0.538734
N123	N	1.583114	0.853001	0.872067
N124	N	0.936036	0.166802	-0.205195
N125	N	1.269369	0.500136	0.128138
N126	N	1.602702	0.833469	0.461472
C127	C	0.967608	0.135164	0.250801
C128	C	1.300941	0.468498	0.584134
C129	C	1.634275	0.801831	0.917467
C130	C	0.963289	0.139488	0.341608
C131	C	1.296623	0.472821	0.674941
C132	C	1.629956	0.806155	1.008275
C133	C	0.907813	0.194986	0.387014
C134	C	1.241147	0.528319	0.720347
C135	C	1.574480	0.861652	1.053680
C136	C	0.856647	0.246157	0.341607
C137	C	1.189981	0.579490	0.674940
C138	C	1.523314	0.912824	1.008274
C139	C	0.860963	0.241829	0.250801
C140	C	1.194296	0.575162	0.584135
C141	C	1.527630	0.908495	0.917468
C142	C	0.889185	0.213646	0.658593
C143	C	1.222519	0.546979	0.991926
C144	C	1.555852	0.880312	1.325260
C145	C	0.884875	0.217972	0.749405
C146	C	1.218209	0.551305	1.082738
C147	C	1.551542	0.884639	1.416072
C148	C	0.991517	0.111301	0.749400
C149	C	1.324850	0.444634	1.082733
C150	C	1.658183	0.777968	1.416066
C151	C	0.995831	0.106981	0.658592
C152	C	1.329164	0.440315	0.991926
C153	C	1.662497	0.773648	1.325259
C154	C	0.944662	0.158150	0.613194
C155	C	1.277995	0.491483	0.946527
C156	C	1.611329	0.824816	1.279860
N157	N	0.903399	0.199408	0.479833
N158	N	1.236732	0.532741	0.813167
N159	N	1.570066	0.866075	1.146500
N160	N	0.949073	0.153722	0.520376
N161	N	1.282406	0.487056	0.853709
N162	N	1.615740	0.820389	1.187042
H163	H	0.295647	0.338187	0.000088
H164	H	0.628980	0.671520	0.333422
H165	H	0.962313	1.004853	0.666755
F166	F	0.548940	-0.004840	0.000110
F167	F	0.882273	0.328494	0.333443
F168	F	1.215607	0.661827	0.666776
F169	F	0.510346	0.307497	0.000085
F170	F	0.843680	0.640831	0.333418
F171	F	1.177013	0.974164	0.666751
F172	F	1.056071	-0.414724	-0.082221
F173	F	1.389404	-0.081391	0.251112
F174	F	1.722737	0.251942	0.584445
H175	H	0.802224	-0.384703	0.058509
H176	H	1.135557	-0.051370	0.391842
H177	H	1.468891	0.281963	0.725176
F178	F	0.937148	-0.252279	-0.162262
F179	F	1.270481	0.081054	0.171071
F180	F	1.603815	0.414387	0.504405
H181	H	0.329565	0.063675	0.000125
H182	H	0.662898	0.397009	0.333458
H183	H	0.996231	0.730342	0.666792
F184	F	0.793242	-0.231636	0.077403
F185	F	1.126576	0.101698	0.410736
F186	F	1.459909	0.435031	0.744069
F187	F	0.717770	0.009668	0.000095
F188	F	1.051103	0.343002	0.333428
F189	F	1.384436	0.676335	0.666762
F190	F	1.045969	0.056846	0.797722
F191	F	1.379302	0.390179	1.131055
F192	F	1.712635	0.723512	1.464388
H193	H	0.810251	-0.245421	-0.058964
H194	H	1.143585	0.087912	0.274369
H195	H	1.476918	0.421245	0.607703
H196	H	0.930041	-0.388100	0.144129
H197	H	1.263375	-0.054766	0.477462
H198	H	1.596708	0.278567	0.810795
H199	H	1.037086	-0.262444	-0.087560
H200	H	1.370420	0.070889	0.245774
H201	H	1.703753	0.404223	0.579107
F202	F	0.940666	-0.411875	-0.163118
F203	F	1.274000	-0.078541	0.170216
F204	F	1.607333	0.254792	0.503549
F205	F	0.834731	0.268105	0.610283
F206	F	1.168064	0.601438	0.943617
F207	F	1.501397	0.934771	1.276950
H208	H	1.026582	-0.398522	0.086293
H209	H	1.359915	-0.065188	0.419626
H210	H	1.693249	0.268145	0.752959
H211	H	1.012786	0.089976	0.213838
H212	H	1.346119	0.423309	0.547171
H213	H	1.679452	0.756643	0.880504
H214	H	1.004948	0.097821	0.378573
H215	H	1.338281	0.431155	0.711906
H216	H	1.671614	0.764488	1.045239
H217	H	1.029701	-0.255341	0.085550
H218	H	1.363034	0.077992	0.418883
H219	H	1.696368	0.411326	0.752217
H220	H	0.933677	-0.244555	0.143784
H221	H	1.267010	0.088778	0.477118
H222	H	1.600343	0.422111	0.810451
F223	F	1.054875	0.047916	0.610270
F224	F	1.388208	0.381249	0.943603
F225	F	1.721541	0.714582	1.276936
H226	H	0.181198	0.050923	0.000126
H227	H	0.514531	0.384257	0.333459
H228	H	0.847864	0.717590	0.666792
F229	F	0.679165	0.322009	0.000064
F230	F	1.012498	0.655342	0.333398
F231	F	1.345831	0.988675	0.666731
H232	H	0.819302	0.283495	0.213837
H233	H	1.152635	0.616829	0.547171
H234	H	1.485969	0.950162	0.880504
F235	F	0.825827	0.277046	0.797723
F236	F	1.159161	0.610379	1.131057
F237	F	1.492494	0.943712	1.464390
H238	H	0.811474	0.291342	0.378581
H239	H	1.144807	0.624675	0.711915
H240	H	1.478140	0.958008	1.045248
H241	H	0.807694	-0.389254	-0.059312
H242	H	1.141028	-0.055921	0.274021
H243	H	1.474361	0.277413	0.607354
H244	H	0.147268	0.325432	0.000110
H245	H	0.480601	0.658765	0.333443
H246	H	0.813935	0.992099	0.666777
