data_functionalizedCrystal
_audit_creation_method	'MofGen! by Chris Wilmer'
_symmetry_space_group_name_H-M	'P1'
_symmetry_Int_Tables_number	1
_symmetry_cell_setting	triclinic
loop_
_symmetry_equiv_pos_as_xyz
  x,y,z
_cell_length_a	19.288867
_cell_length_b	10.489741
_cell_length_c	17.766277
_cell_angle_alpha	89.993969
_cell_angle_beta	89.992126
_cell_angle_gamma	83.838121
loop_
_atom_site_label
_atom_site_type_symbol
_atom_site_fract_x
_atom_site_fract_y
_atom_site_fract_z
O1	O	0.922419	0.159122	-0.062567
O2	O	0.720303	0.180583	-0.062575
O3	O	0.825960	-0.015849	-0.062566
O4	O	0.816762	0.355554	-0.062576
O5	O	0.825941	-0.015859	0.062622
O6	O	0.720284	0.180573	0.062614
O7	O	0.922400	0.159112	0.062621
Cu8	Cu	0.821340	0.169842	0.074048
Cu9	Cu	0.821363	0.169853	-0.074002
O10	O	0.816743	0.355544	0.062613
C11	C	0.694412	0.179887	0.000019
C12	C	0.617295	0.177813	0.000016
C13	C	0.825256	-0.063370	0.000027
C14	C	0.823177	-0.204953	0.000026
C15	C	0.061639	0.162878	-0.068215
C16	C	0.134100	0.164819	-0.068218
C17	C	0.170325	0.165790	0.000022
C18	C	0.134085	0.164787	0.068270
C19	C	0.061627	0.162833	0.068271
C20	C	0.280166	0.243584	0.052301
C21	C	0.352623	0.245546	0.052297
C22	C	0.393811	0.171812	0.000022
C23	C	0.362533	0.096132	-0.052262
C24	C	0.290074	0.094177	-0.052261
C25	C	0.248894	0.167909	0.000029
C26	C	0.508612	0.174911	-0.068225
C27	C	0.581075	0.176844	-0.068225
C28	C	0.581058	0.176825	0.068265
C29	C	0.508598	0.174879	0.068263
C30	C	0.472379	0.173928	0.000016
C31	C	0.755951	-0.271573	0.000018
C32	C	0.787699	-0.364419	0.061744
C33	C	0.787733	-0.364384	-0.061682
C34	C	0.854953	-0.295933	0.061802
C35	C	0.854978	-0.295889	-0.061679
C36	C	0.886775	-0.388707	0.000062
C37	C	0.948291	0.159808	0.000026
C38	C	1.025408	0.161882	0.000024
C39	C	0.817447	0.403065	0.000017
C40	C	0.819526	0.544648	0.000014
N41	N	0.821330	0.169833	0.178178
N42	N	0.821379	0.169852	-0.178132
C43	C	0.868130	0.082895	0.217569
C44	C	0.868134	0.082889	0.296371
C45	C	0.821345	0.169843	0.335779
C46	C	0.774535	0.256787	0.296379
C47	C	0.774528	0.256782	0.217579
C48	C	0.812825	0.286055	0.460614
C49	C	0.812837	0.286062	0.539413
C50	C	0.821363	0.169858	0.578825
C51	C	0.829892	0.053642	0.539430
C52	C	0.829884	0.053637	0.460629
C53	C	0.821347	0.169857	0.421225
C54	C	0.868171	0.082907	0.703662
C55	C	0.868170	0.082899	0.782465
C56	C	0.774574	0.256808	0.782472
C57	C	0.774571	0.256805	0.703670
C58	C	0.821373	0.169855	0.664270
H59	H	0.032155	0.162098	-0.123787
N60	N	0.384581	0.322829	0.105701
N61	N	0.449276	0.324565	0.105695
H62	H	0.471847	0.379145	0.143413
N63	N	0.915944	-0.005932	0.336607
N64	N	0.957724	-0.083560	0.301419
H65	H	0.991491	-0.146291	0.329833
N66	N	0.726773	0.345606	0.663415
N67	N	0.683459	0.305336	0.619456
H68	H	0.649699	0.368053	0.591024
H69	H	0.836827	-0.040990	0.428556
H70	H	0.836834	-0.040982	0.571518
N71	N	0.471622	0.173931	-0.137940
N72	N	0.503985	0.174804	-0.198866
H73	H	0.477863	0.174110	-0.248104
N74	N	0.956173	-0.452293	0.000087
N75	N	0.997006	-0.433439	-0.052407
H76	H	1.046018	-0.478349	-0.052388
N77	N	0.686609	-0.207730	0.000095
N78	N	0.646028	-0.225502	0.053012
H79	H	0.597056	-0.180413	0.053070
N80	N	0.890602	-0.258100	0.127344
N81	N	0.952641	-0.301457	0.138653
H82	H	0.977817	-0.274737	0.184943
N83	N	0.752000	-0.402515	0.127203
N84	N	0.689781	-0.359993	0.138199
H85	H	0.664564	-0.386895	0.184427
H86	H	0.805870	0.380689	0.428531
H87	H	0.883407	-0.265482	-0.113864
N88	N	0.618049	0.177837	0.137973
N89	N	0.603999	0.267499	0.183666
H90	H	0.630128	0.268211	0.232899
H91	H	0.163585	0.165576	0.123832
N92	N	0.915892	-0.006073	0.663422
N93	N	0.957614	-0.083807	0.698606
H94	H	0.991285	-0.146710	0.670189
H95	H	0.759287	-0.394700	-0.113872
N96	N	0.471595	0.173864	0.137976
N97	N	0.503944	0.174724	0.198901
H98	H	0.477812	0.174003	0.248139
H99	H	0.736416	0.327578	0.185506
N100	N	0.915999	-0.005820	0.177336
N101	N	0.957822	-0.083368	0.212522
H102	H	0.991653	-0.145985	0.184107
H103	H	0.906278	0.012097	0.814538
H104	H	0.736474	0.327603	0.814557
H105	H	0.396067	0.036094	-0.094831
H106	H	0.805897	0.380692	0.571483
N107	N	0.726740	0.345592	0.336641
N108	N	0.726753	0.345586	0.406998
H109	H	0.692994	0.408303	0.435434
H110	H	0.163605	0.165637	-0.123788
N111	N	0.258112	0.016883	-0.105655
N112	N	0.214222	0.067984	-0.151234
H113	H	0.191647	0.013391	-0.188943
H114	H	0.246636	0.303622	0.094878
N115	N	0.618077	0.177845	-0.137940
N116	N	0.585727	0.176992	-0.198865
H117	H	0.611860	0.177698	-0.248103
H118	H	0.032128	0.162027	0.123841
