data_functionalizedCrystal
_audit_creation_method	'MofGen! by Chris Wilmer'
_symmetry_space_group_name_H-M	'P1'
_symmetry_Int_Tables_number	1
_symmetry_cell_setting	triclinic
loop_
_symmetry_equiv_pos_as_xyz
  x,y,z
_cell_length_a	9.065218
_cell_length_b	16.109301
_cell_length_c	7.540329
_cell_angle_alpha	89.994987
_cell_angle_beta	89.996962
_cell_angle_gamma	84.238683
loop_
_atom_site_label
_atom_site_type_symbol
_atom_site_fract_x
_atom_site_fract_y
_atom_site_fract_z
O1	O	1.957449	0.121905	-0.147494
O2	O	2.290782	0.455238	0.185840
O3	O	2.624116	0.788572	0.519173
O4	O	1.527922	0.131904	-0.147497
O5	O	1.861255	0.465238	0.185837
O6	O	2.194589	0.798571	0.519170
O7	O	1.754485	0.005964	-0.147477
O8	O	2.087818	0.339298	0.185856
O9	O	2.421152	0.672631	0.519190
O10	O	1.730886	0.247845	-0.147513
O11	O	2.064219	0.581178	0.185820
O12	O	2.397553	0.914512	0.519153
O13	O	1.754472	0.005963	0.147488
O14	O	2.087805	0.339296	0.480821
O15	O	2.421138	0.672629	0.814155
O16	O	1.527909	0.131903	0.147468
O17	O	1.861242	0.465236	0.480802
O18	O	2.194575	0.798569	0.814135
O19	O	1.957435	0.121903	0.147471
O20	O	2.290769	0.455237	0.480805
O21	O	2.624102	0.788570	0.814138
Cu22	Cu	1.742671	0.126903	0.174402
Cu23	Cu	2.076004	0.460236	0.507736
Cu24	Cu	2.409337	0.793570	0.841069
Cu25	Cu	1.742687	0.126905	-0.174428
Cu26	Cu	2.076020	0.460238	0.158905
Cu27	Cu	2.409353	0.793572	0.492239
O28	O	1.730873	0.247843	0.147452
O29	O	2.064206	0.581177	0.480785
O30	O	2.397539	0.914510	0.814118
C31	C	1.472952	0.130943	-0.000014
C32	C	1.806285	0.464276	0.333319
C33	C	2.139619	0.797609	0.666652
C34	C	1.309179	0.128069	-0.000015
C35	C	1.642512	0.461402	0.333318
C36	C	1.975845	0.794736	0.666652
C37	C	1.753522	-0.025019	0.000006
C38	C	2.086856	0.308315	0.333340
C39	C	2.420189	0.641648	0.666673
C40	C	1.750656	-0.117336	0.000009
C41	C	2.083990	0.215997	0.333342
C42	C	2.417323	0.549331	0.666676
C43	C	1.878430	-0.338627	-0.000018
C44	C	2.211764	-0.005293	0.333315
C45	C	2.545097	0.328040	0.666648
C46	C	1.875726	-0.425368	-0.000033
C47	C	2.209059	-0.092035	0.333300
C48	C	2.542393	0.241299	0.666634
C49	C	1.606917	-0.407559	-0.000028
C50	C	1.940250	-0.074225	0.333305
C51	C	2.273584	0.259108	0.666639
C52	C	1.609623	-0.320819	-0.000026
C53	C	1.942956	0.012514	0.333307
C54	C	2.276289	0.345847	0.666641
C55	C	1.745384	-0.286356	-0.000012
C56	C	2.078717	0.046978	0.333321
C57	C	2.412051	0.380311	0.666654
C58	C	1.739974	-0.459836	-0.000029
C59	C	2.073307	-0.126503	0.333305
C60	C	2.406640	0.206830	0.666638
C61	C	1.737040	-0.553885	-0.000045
C62	C	2.070374	-0.220552	0.333289
C63	C	2.403707	0.112782	0.666622
C64	C	1.748318	-0.192301	0.000000
C65	C	2.081651	0.141032	0.333334
C66	C	2.414985	0.474365	0.666667
C67	C	2.012405	0.122865	-0.000015
C68	C	2.345739	0.456199	0.333318
C69	C	2.679072	0.789532	0.666652
C70	C	2.176179	0.125739	-0.000026
C71	C	2.509512	0.459072	0.333307
C72	C	2.842846	0.792405	0.666641
C73	C	1.731835	0.278826	-0.000036
C74	C	2.065168	0.612160	0.333298
C75	C	2.398502	0.945493	0.666631
C76	C	1.734701	0.371144	-0.000050
C77	C	2.068034	0.704477	0.333284
C78	C	2.401368	1.037810	0.666617
N79	N	1.742670	0.126901	0.419751
N80	N	2.076004	0.460234	0.753084
N81	N	2.409337	0.793568	1.086418
N82	N	1.742699	0.126900	-0.419776
N83	N	2.076032	0.460234	-0.086443
N84	N	2.409365	0.793567	0.246890
H85	H	1.988976	-0.310570	-0.000011
H86	H	2.322309	0.022764	0.333322
H87	H	2.655642	0.356097	0.666656
H88	H	1.501274	-0.278258	-0.000026
H89	H	1.834607	0.055076	0.333307
H90	H	2.167940	0.388409	0.666640
H91	H	1.984066	-0.467924	-0.000042
H92	H	2.317399	-0.134591	0.333292
H93	H	2.650733	0.198743	0.666625
Br94	Br	1.422679	-0.454336	-0.000052
Br95	Br	1.756012	-0.121003	0.333281
Br96	Br	2.089345	0.212330	0.666615
