data_functionalizedCrystal
_audit_creation_method	'MofGen! by Chris Wilmer'
_symmetry_space_group_name_H-M	'P1'
_symmetry_Int_Tables_number	1
_symmetry_cell_setting	triclinic
loop_
_symmetry_equiv_pos_as_xyz
  x,y,z
_cell_length_a	16.992694
_cell_length_b	19.188924
_cell_length_c	16.053802
_cell_angle_alpha	92.554672
_cell_angle_beta	87.249047
_cell_angle_gamma	86.905094
loop_
_atom_site_label
_atom_site_type_symbol
_atom_site_fract_x
_atom_site_fract_y
_atom_site_fract_z
O1	O	1.043192	0.145268	-0.069331
O2	O	1.543192	0.645268	0.430669
O3	O	0.814914	0.143643	-0.069355
O4	O	1.314914	0.643643	0.430645
O5	O	0.935643	0.043185	-0.069333
O6	O	1.435643	0.543185	0.430667
O7	O	0.922463	0.245725	-0.069354
O8	O	1.422463	0.745725	0.430646
O9	O	0.928998	0.048691	0.069525
O10	O	1.428998	0.548691	0.569525
O11	O	0.808269	0.149148	0.069502
O12	O	1.308269	0.649148	0.569502
O13	O	1.036547	0.150773	0.069527
O14	O	1.536547	0.650773	0.569527
Zn15	Zn	0.921353	0.150834	0.091561
Zn16	Zn	1.421353	0.650834	0.591561
Zn17	Zn	0.930108	0.143581	-0.091390
Zn18	Zn	1.430108	0.643581	0.408610
O19	O	0.915818	0.251230	0.069504
O20	O	1.415818	0.751230	0.569504
C21	C	0.782386	0.144306	0.000070
C22	C	1.282386	0.644306	0.500070
C23	C	0.695364	0.138073	0.000062
C24	C	1.195364	0.638073	0.500062
C25	C	0.931894	0.019902	0.000097
C26	C	1.431894	0.519902	0.500097
C27	C	0.930616	-0.057678	0.000099
C28	C	1.430616	0.442322	0.500099
C29	C	0.644916	0.198212	0.000056
C30	C	1.144916	0.698212	0.500056
C31	C	0.563149	0.192352	0.000068
C32	C	1.063149	0.692352	0.500068
C33	C	0.531832	0.126352	0.000080
C34	C	1.031832	0.626352	0.500080
C35	C	0.582286	0.066208	0.000088
C36	C	1.082286	0.566208	0.500088
C37	C	0.664051	0.072069	0.000082
C38	C	1.164051	0.572069	0.500082
C39	C	0.288317	0.102060	0.000105
C40	C	0.788317	0.602060	0.500105
C41	C	0.206546	0.096203	0.000108
C42	C	0.706546	0.596203	0.500108
C43	C	0.187414	0.222348	0.000090
C44	C	0.687414	0.722348	0.500090
C45	C	0.269181	0.228203	0.000079
C46	C	0.769181	0.728203	0.500079
C47	C	0.319628	0.168060	0.000091
C48	C	0.819628	0.668060	0.500091
N49	N	0.448253	0.120360	0.000090
N50	N	0.948253	0.620360	0.500090
N51	N	0.403205	0.174052	0.000088
N52	N	0.903205	0.674052	0.500088
C53	C	0.933641	-0.097112	-0.075592
C54	C	1.433641	0.402888	0.424408
C55	C	0.932429	-0.170006	-0.075599
C56	C	1.432429	0.329994	0.424401
C57	C	0.928207	-0.203463	0.000090
C58	C	1.428207	0.296537	0.500090
C59	C	0.925176	-0.164019	0.075792
C60	C	1.425176	0.335981	0.575792
C61	C	0.926381	-0.091126	0.075796
C62	C	1.426381	0.408874	0.575796
N63	N	0.968231	-0.318393	0.056429
N64	N	1.468231	0.181607	0.556429
N65	N	0.967089	-0.387639	0.056420
N66	N	1.467089	0.112361	0.556420
C67	C	0.924576	-0.423085	0.000082
C68	C	1.424576	0.076915	0.500082
N69	N	0.883259	-0.386672	-0.056259
N70	N	1.383259	0.113328	0.443741
N71	N	0.884405	-0.317420	-0.056252
N72	N	1.384405	0.182580	0.443748
C73	C	0.926900	-0.282503	0.000094
C74	C	1.426900	0.217497	0.500094
C75	C	0.926286	-0.541560	-0.075622
C76	C	1.426286	-0.041560	0.424378
C77	C	0.925069	-0.614455	-0.075625
C78	C	1.425069	-0.114455	0.424375
C79	C	0.917824	-0.608467	0.075768
C80	C	1.417824	-0.108467	0.575768
C81	C	0.919034	-0.535573	0.075769
C82	C	1.419034	-0.035573	0.575769
C83	C	0.923269	-0.502124	0.000072
C84	C	1.423269	-0.002124	0.500072
C85	C	1.069075	0.150109	0.000099
C86	C	1.569075	0.650109	0.500099
C87	C	1.156097	0.156342	0.000103
C88	C	1.656097	0.656342	0.500103
C89	C	0.919567	0.274514	0.000073
C90	C	1.419567	0.774514	0.500073
C91	C	0.920846	0.352093	0.000065
C92	C	1.420846	0.852093	0.500065
N93	N	0.915383	0.155785	0.216420
N94	N	1.415383	0.655785	0.716420
N95	N	0.936084	0.138626	-0.216249
N96	N	1.436084	0.638626	0.283751
C97	C	0.966772	0.113057	0.260124
C98	C	1.466772	0.613057	0.760124
C99	C	0.962604	0.116527	0.347530
C100	C	1.462604	0.616527	0.847530
C101	C	0.907049	0.162728	0.391231
C102	C	1.407049	0.662728	0.891231
C103	C	0.855655	0.205457	0.347521
C104	C	1.355655	0.705457	0.847521
C105	C	0.859820	0.201983	0.260117
C106	C	1.359820	0.701983	0.760117
C107	C	0.888855	0.177882	0.652637
C108	C	1.388855	0.677882	1.152637
C109	C	0.884695	0.181354	0.740047
C110	C	1.384695	0.681354	1.240047
C111	C	0.991643	0.092422	0.740050
C112	C	1.491643	0.592422	1.240050
C113	C	0.995807	0.088955	0.652644
C114	C	1.495807	0.588955	1.152644
C115	C	0.944410	0.131682	0.608942
C116	C	1.444410	0.631682	1.108942
N117	N	0.902789	0.166277	0.480574
N118	N	1.402789	0.666277	0.980574
N119	N	0.948667	0.128128	0.519601
N120	N	1.448667	0.628128	1.019601
H121	H	0.522077	0.241324	0.000062
H122	H	1.022077	0.741324	0.500062
C123	C	1.047563	0.046110	0.787452
C124	C	1.547563	0.546110	1.287452
C125	C	1.125569	0.060931	0.766195
C126	C	1.625569	0.560931	1.266195
C127	C	1.177102	0.018283	0.809851
C128	C	1.677102	0.518283	1.309851
H129	H	1.039993	-0.001548	0.773171
H130	H	1.539993	0.498452	1.273171
H131	H	1.037181	0.054797	0.845775
H132	H	1.537181	0.554797	1.345775
H133	H	1.135947	0.052238	0.707885
H134	H	1.635947	0.552238	1.207885
H135	H	1.133164	0.108581	0.780478
H136	H	1.633164	0.608581	1.280478
H137	H	1.166721	0.026969	0.868173
H138	H	1.666721	0.526969	1.368173
H139	H	1.169526	-0.029373	0.795566
H140	H	1.669526	0.470627	1.295566
H141	H	1.230035	0.028337	0.795439
H142	H	1.730035	0.528337	1.295439
C143	C	0.922941	-0.048261	0.157955
C144	C	1.422941	0.451739	0.657955
C145	C	0.855983	-0.002153	0.162378
C146	C	1.355983	0.497847	0.662378
C147	C	0.852784	0.037341	0.238054
C148	C	1.352784	0.537341	0.738054
H149	H	0.968910	-0.022414	0.161189
H150	H	1.468910	0.477586	0.661189
H151	H	0.920206	-0.078597	0.203059
H152	H	1.420206	0.421403	0.703059
H153	H	0.858724	0.028180	0.117286
H154	H	1.358724	0.528180	0.617286
H155	H	0.810002	-0.027981	0.159158
H156	H	1.310002	0.472019	0.659158
H157	H	0.850049	0.007004	0.283159
H158	H	1.350049	0.507004	0.783159
H159	H	0.898756	0.063182	0.241282
H160	H	1.398756	0.563182	0.741282
H161	H	0.807350	0.068624	0.241069
H162	H	1.307350	0.568624	0.741069
C163	C	1.018277	0.070052	0.395019
C164	C	1.518277	0.570052	0.895019
C165	C	0.974289	0.026941	0.445195
C166	C	1.474289	0.526941	0.945195
C167	C	1.025552	-0.015890	0.488942
C168	C	1.525552	0.484110	0.988942
H169	H	1.049213	0.098278	0.429174
H170	H	1.549213	0.598278	0.929174
H171	H	1.051949	0.042004	0.356496
H172	H	1.551949	0.542004	0.856496
H173	H	0.940631	0.054986	0.483714
H174	H	1.440631	0.554986	0.983714
H175	H	0.943355	-0.001300	0.411061
H176	H	1.443355	0.498700	0.911061
H177	H	1.059223	-0.043937	0.450419
H178	H	1.559223	0.456063	0.950419
H179	H	1.056485	0.012342	0.523092
H180	H	1.556485	0.512342	1.023092
H181	H	0.995713	-0.045150	0.522986
H182	H	1.495713	0.454850	1.022986
H183	H	0.294673	0.281947	0.000060
H184	H	0.794673	0.781947	0.500060
H185	H	0.839453	0.218979	0.775625
H186	H	1.339453	0.718979	1.275625
H187	H	0.329382	0.053086	0.000116
H188	H	0.829382	0.553086	0.500116
H189	H	0.146331	0.271313	0.000081
H190	H	0.646331	0.771313	0.500081
C191	C	0.833016	0.224356	0.605347
C192	C	1.333016	0.724356	1.105347
C193	C	0.783491	0.265574	0.662329
C194	C	1.283491	0.765574	1.162329
C195	C	0.732047	0.308403	0.618793
C196	C	1.232047	0.808403	1.118793
H197	H	0.802019	0.196131	0.571260
H198	H	1.302019	0.696131	1.071260
H199	H	0.862715	0.253687	0.571256
H200	H	1.362715	0.753687	1.071256
H201	H	0.753794	0.236246	0.696406
H202	H	1.253794	0.736246	1.196406
H203	H	0.814466	0.293813	0.696418
H204	H	1.314466	0.793813	1.196418
H205	H	0.761746	0.337734	0.584702
H206	H	1.261746	0.837734	1.084702
H207	H	0.701055	0.280173	0.584707
H208	H	1.201055	0.780173	1.084707
H209	H	0.698443	0.336379	0.657449
H210	H	1.198443	0.836379	1.157449
H211	H	0.556781	0.012469	0.000109
H212	H	1.056781	0.512469	0.500109
H213	H	0.929730	-0.514324	-0.137259
H214	H	1.429730	-0.014324	0.362741
H215	H	0.181051	0.042455	0.000117
H216	H	0.681051	0.542455	0.500117
H217	H	0.914380	-0.635707	0.137396
H218	H	1.414380	-0.135707	0.637396
C219	C	0.915797	-0.492879	0.158038
C220	C	1.415797	0.007121	0.658038
C221	C	0.911862	-0.537779	0.224325
C222	C	1.411862	-0.037779	0.724325
C223	C	0.908889	-0.498476	0.300126
C224	C	1.408889	0.001524	0.800126
H225	H	0.870420	-0.461535	0.161304
H226	H	1.370420	0.038465	0.661304
H227	H	0.961839	-0.467111	0.161233
H228	H	1.461839	0.032889	0.661233
H229	H	0.865825	-0.563536	0.221132
H230	H	1.365825	-0.063536	0.721132
H231	H	0.957235	-0.569124	0.221087
H232	H	1.457235	-0.069124	0.721087
H233	H	0.954932	-0.472708	0.303321
H234	H	1.454932	0.027292	0.803321
H235	H	0.863512	-0.467133	0.303383
H236	H	1.363512	0.032867	0.803383
H237	H	0.906227	-0.528935	0.345111
H238	H	1.406227	-0.028935	0.845111
C239	C	0.795295	0.255509	0.395074
C240	C	1.295295	0.755509	0.895074
C241	C	0.745063	0.217616	0.445287
C242	C	1.245063	0.717616	0.945287
C243	C	0.689457	0.263703	0.489112
C244	C	1.189457	0.763703	0.989112
H245	H	0.765202	0.280478	0.356624
H246	H	1.265202	0.780478	0.856624
H247	H	0.821746	0.287502	0.429207
H248	H	1.321746	0.787502	0.929207
H249	H	0.718614	0.185636	0.411158
H250	H	1.218614	0.685636	0.911158
H251	H	0.775132	0.192649	0.483754
H252	H	1.275132	0.692649	0.983754
H253	H	0.715907	0.295695	0.523245
H254	H	1.215907	0.795695	1.023245
H255	H	0.659370	0.288669	0.450656
H256	H	1.159370	0.788669	0.950656
H257	H	0.655372	0.238000	0.523193
H258	H	1.155372	0.738000	1.023193
H259	H	0.934888	-0.202120	-0.137238
H260	H	1.434888	0.297880	0.362762
C261	C	0.920714	-0.200258	0.158031
C262	C	1.420714	0.299742	0.658031
C263	C	0.986238	-0.184800	0.203720
C264	C	1.486238	0.315200	0.703720
C265	C	0.982144	-0.218162	0.279489
C266	C	1.482144	0.281838	0.779489
H267	H	0.920467	-0.249327	0.147305
H268	H	1.420467	0.250673	0.647305
H269	H	0.873738	-0.184293	0.189172
H270	H	1.373738	0.315707	0.689172
H271	H	1.033202	-0.200768	0.172586
H272	H	1.533202	0.299232	0.672586
H273	H	0.986498	-0.135737	0.214468
H274	H	1.486498	0.364263	0.714468
H275	H	0.935168	-0.202198	0.310630
H276	H	1.435168	0.297802	0.810630
H277	H	0.981895	-0.267230	0.268755
H278	H	1.481895	0.232770	0.768755
H279	H	1.026596	-0.207674	0.310502
H280	H	1.526596	0.292326	0.810502
H281	H	0.817973	0.236776	0.224534
H282	H	1.317973	0.736776	0.724534
H283	H	0.670407	0.251957	0.000046
H284	H	1.170407	0.751957	0.500046
H285	H	0.705126	0.023097	0.000086
H286	H	1.205126	0.523097	0.500086
C287	C	0.938191	-0.060924	-0.157863
C288	C	1.438191	0.439076	0.342137
C289	C	0.940560	-0.111066	-0.224153
C290	C	1.440560	0.388934	0.275847
C291	C	0.944739	-0.077752	-0.299952
C292	C	1.444739	0.422248	0.200048
H293	H	0.984509	-0.035387	-0.161123
H294	H	1.484509	0.464613	0.338877
H295	H	0.893089	-0.029855	-0.161060
H296	H	1.393089	0.470145	0.338940
H297	H	0.985658	-0.142122	-0.220958
H298	H	1.485658	0.357878	0.279042
H299	H	0.894247	-0.136605	-0.220920
H300	H	1.394247	0.363395	0.279080
H301	H	0.899636	-0.046684	-0.303148
H302	H	1.399636	0.453316	0.196852
H303	H	0.991056	-0.052217	-0.303203
H304	H	1.491056	0.447783	0.196797
H305	H	0.946339	-0.111768	-0.344938
H306	H	1.446339	0.388232	0.155062
H307	H	1.012014	0.075438	0.224549
H308	H	1.512014	0.575438	0.724549
C309	C	0.928410	-0.657154	-0.157897
C310	C	1.428410	-0.157154	0.342103
C311	C	0.932402	-0.612256	-0.224183
C312	C	1.432402	-0.112256	0.275817
C313	C	0.935497	-0.651567	-0.299985
C314	C	1.435497	-0.151567	0.200015
H315	H	0.882406	-0.682949	-0.161182
H316	H	1.382406	-0.182949	0.338818
H317	H	0.973817	-0.688475	-0.161073
H318	H	1.473817	-0.188475	0.338927
H319	H	0.886999	-0.580947	-0.221009
H320	H	1.386999	-0.080947	0.278991
H321	H	0.978404	-0.586461	-0.220926
H322	H	1.478404	-0.086461	0.279074
H323	H	0.980904	-0.682888	-0.303161
H324	H	1.480904	-0.182888	0.196839
H325	H	0.889492	-0.677360	-0.303262
H326	H	1.389492	-0.177360	0.196738
H327	H	0.938213	-0.621111	-0.344969
H328	H	1.438213	-0.121111	0.155031
H329	H	1.041044	0.051334	0.617065
H330	H	1.541044	0.551334	1.117065
