data_functionalizedCrystal
_audit_creation_method	'MofGen! by Chris Wilmer'
_symmetry_space_group_name_H-M	'P1'
_symmetry_Int_Tables_number	1
_symmetry_cell_setting	triclinic
loop_
_symmetry_equiv_pos_as_xyz
  x,y,z
_cell_length_a	19.288865
_cell_length_b	10.654542
_cell_length_c	18.366186
_cell_angle_alpha	90.010092
_cell_angle_beta	89.988521
_cell_angle_gamma	96.189775
loop_
_atom_site_label
_atom_site_type_symbol
_atom_site_fract_x
_atom_site_fract_y
_atom_site_fract_z
O1	O	0.097550	-1.665763	-0.060577
O2	O	0.106846	-1.300085	-0.060576
O3	O	0.001137	-1.493491	-0.060562
O4	O	0.203259	-1.472358	-0.060591
O5	O	0.001131	-1.493458	0.060537
O6	O	0.106840	-1.300053	0.060524
O7	O	0.097544	-1.665731	0.060522
Zn8	Zn	0.102191	-1.482886	0.079750
Zn9	Zn	0.102199	-1.482930	-0.079804
O10	O	0.203253	-1.472325	0.060509
C11	C	0.106161	-1.253286	-0.000025
C12	C	0.104119	-1.113886	-0.000024
C13	C	-0.024747	-1.492794	-0.000010
C14	C	-0.101864	-1.490753	-0.000004
C15	C	0.100277	-0.851984	-0.132059
C16	C	0.101240	-0.917499	-0.198070
C17	C	0.103164	-1.048476	-0.198069
C18	C	0.104122	-1.113940	-0.132049
C19	C	0.103159	-1.048425	-0.066037
C20	C	0.101238	-0.917445	-0.066046
C21	C	0.103156	-1.048370	0.065988
C22	C	0.101238	-0.917393	0.065988
C23	C	0.104115	-1.113835	0.132008
C24	C	0.103157	-1.048318	0.198021
C25	C	0.101234	-0.917334	0.198017
C26	C	0.100275	-0.851877	0.132000
C27	C	-0.145818	-1.604235	-0.000001
C28	C	-0.218277	-1.602317	-0.000012
C29	C	-0.246780	-1.486911	-0.000012
C30	C	-0.202817	-1.373415	-0.000019
C31	C	-0.130359	-1.375336	-0.000015
C32	C	-0.355663	-1.396178	0.042407
C33	C	-0.428120	-1.394262	0.042407
C34	C	-0.470264	-1.480982	-0.000028
C35	C	-0.439944	-1.569640	-0.042455
C36	C	-0.367486	-1.571561	-0.042451
C37	C	-0.325348	-1.484816	-0.000017
C38	C	-0.592788	-1.592392	-0.000039
C39	C	-0.665248	-1.590469	-0.000055
C40	C	-0.649786	-1.361564	-0.000055
C41	C	-0.577327	-1.363490	-0.000046
C42	C	-0.548832	-1.478907	-0.000035
C43	C	0.229137	-1.473022	-0.000045
C44	C	0.306254	-1.475063	-0.000056
C45	C	0.098232	-0.712530	-0.000029
C46	C	0.100280	-0.851928	-0.000032
N47	N	0.102186	-1.482866	0.188641
N48	N	0.102198	-1.482960	-0.188695
C49	C	0.055402	-1.568534	0.226748
C50	C	0.055399	-1.568542	0.302975
C51	C	0.102192	-1.482894	0.341094
C52	C	0.148980	-1.397210	0.302978
C53	C	0.148977	-1.397196	0.226752
C54	C	0.165370	-1.466083	0.461845
C55	C	0.165374	-1.466106	0.538070
C56	C	0.102201	-1.482930	0.576201
C57	C	0.039022	-1.499757	0.538098
C58	C	0.039019	-1.499743	0.461872
C59	C	0.102200	-1.482899	0.423749
C60	C	0.055409	-1.568611	0.696963
C61	C	0.055405	-1.568610	0.773192
C62	C	0.148993	-1.397284	0.773193
C63	C	0.148991	-1.397279	0.696966
C64	C	0.102200	-1.482949	0.658855
H65	H	0.098721	-0.745333	-0.132066
C66	C	0.098161	-0.707806	0.131996
H67	H	0.097729	-0.678158	0.180764
H68	H	0.057296	-0.687996	0.107619
H69	H	0.138165	-0.668379	0.107610
H70	H	0.103933	-1.101631	0.251769
C71	C	0.234862	-1.447568	0.419905
H72	H	0.225813	-1.449955	0.369051
H73	H	0.262420	-1.513082	0.432377
H74	H	0.259220	-1.368220	0.432406
C75	C	0.106227	-1.257906	0.132014
H76	H	0.106654	-1.287509	0.180785
H77	H	0.147094	-1.277741	0.107629
H78	H	0.066225	-1.297354	0.107642
H79	H	0.017299	-1.638305	0.334007
C80	C	0.100190	-0.845486	-0.270687
H81	H	0.098913	-0.758096	-0.261237
H82	H	0.060075	-0.876770	-0.297806
H83	H	0.140944	-0.857154	-0.297813
H84	H	0.187090	-1.327543	0.804229
H85	H	-0.122622	-1.698216	0.000006
H86	H	0.103947	-1.101819	-0.251822
C87	C	-0.266638	-1.727147	-0.000004
H88	H	-0.313872	-1.709470	-0.000012
H89	H	-0.257948	-1.774469	0.042229
H90	H	-0.257934	-1.774507	-0.042236
H91	H	0.105679	-1.220590	-0.132054
C92	C	0.100176	-0.845276	0.270631
H93	H	0.101027	-0.903025	0.309946
H94	H	0.058997	-0.803984	0.273383
H95	H	0.139865	-0.784376	0.273368
H96	H	0.017304	-1.638367	0.804219
C97	C	-0.334135	-1.669063	-0.089123
H98	H	-0.369607	-1.720434	-0.114403
H99	H	-0.309298	-1.720509	-0.058538
H100	H	-0.302931	-1.626389	-0.123238
C101	C	0.200462	-1.303057	0.655047
H102	H	0.228335	-1.252055	0.688664
H103	H	0.175209	-1.250923	0.625324
H104	H	0.229608	-1.348069	0.625298
H105	H	-0.474257	-1.640256	-0.077010
H106	H	-0.012424	-1.513442	0.430851
C107	C	-0.561440	-1.719343	-0.000035
H108	H	-0.597998	-1.786656	-0.000045
H109	H	-0.533507	-1.724841	0.042198
H110	H	-0.533484	-1.724859	-0.042267
H111	H	-0.701035	-1.682884	-0.000056
H112	H	-0.672992	-1.267599	-0.000058
C113	C	0.234865	-1.447598	0.579980
H114	H	0.225821	-1.450031	0.630839
H115	H	0.259222	-1.368252	0.567496
H116	H	0.262421	-1.513114	0.567468
H117	H	-0.541539	-1.271081	-0.000044
C118	C	-0.461466	-1.296745	0.089074
H119	H	-0.425990	-1.245357	0.114337
H120	H	-0.492671	-1.339394	0.123190
H121	H	-0.486301	-1.245300	0.058478
H122	H	-0.321354	-1.325556	0.076967
C123	C	-0.234167	-1.246473	-0.000017
H124	H	-0.283616	-1.261581	-0.000011
H125	H	-0.219108	-1.199772	-0.042246
H126	H	-0.219124	-1.199754	0.042219
C127	C	-0.082008	-1.250501	-0.000012
H128	H	-0.109358	-1.181492	-0.000010
H129	H	-0.053407	-1.246504	-0.042237
H130	H	-0.053435	-1.246485	0.042228
C131	C	0.003926	-1.662754	0.184830
H132	H	-0.023942	-1.713768	0.218447
H133	H	0.029176	-1.714877	0.155075
H134	H	-0.025224	-1.617732	0.155113
C135	C	0.200454	-1.303004	0.344905
H136	H	0.193760	-1.315290	0.395761
H137	H	0.192480	-1.219237	0.332432
H138	H	0.246881	-1.316380	0.332396
H139	H	-0.012420	-1.513456	0.569143
H140	H	0.187075	-1.327434	0.195725
C141	C	0.003935	-1.662829	0.655038
H142	H	-0.023937	-1.713839	0.688653
H143	H	0.029187	-1.714955	0.625288
H144	H	-0.025212	-1.617808	0.625317
