data_functionalizedCrystal
_audit_creation_method	'MofGen! by Chris Wilmer'
_symmetry_space_group_name_H-M	'P1'
_symmetry_Int_Tables_number	1
_symmetry_cell_setting	triclinic
loop_
_symmetry_equiv_pos_as_xyz
  x,y,z
_cell_length_a	17.638516
_cell_length_b	14.908783
_cell_length_c	14.909227
_cell_angle_alpha	96.415836
_cell_angle_beta	81.428491
_cell_angle_gamma	105.111969
loop_
_atom_site_label
_atom_site_type_symbol
_atom_site_fract_x
_atom_site_fract_y
_atom_site_fract_z
Zn1	Zn	-0.213385	1.366823	0.638287
Zn2	Zn	0.286615	1.866823	1.138287
Zn3	Zn	-0.353680	1.327344	0.517487
Zn4	Zn	0.146320	1.827344	1.017487
Zn5	Zn	-0.229596	1.203170	0.481720
Zn6	Zn	0.270404	1.703170	0.981720
Zn7	Zn	-0.353617	1.184792	0.660049
Zn8	Zn	0.146383	1.684792	1.160049
O9	O	-0.287569	1.270532	0.574386
O10	O	0.212431	1.770532	1.074386
O11	O	-0.225237	1.489733	0.628124
O12	O	0.274763	1.989733	1.128124
O13	O	-0.344030	1.302041	0.387556
O14	O	0.155970	1.802041	0.887556
O15	O	-0.116828	1.249092	0.478414
O16	O	0.383172	1.749092	0.978414
O17	O	-0.328311	1.460728	0.539373
O18	O	0.171689	1.960728	1.039373
O19	O	-0.104918	1.369327	0.593443
O20	O	0.395082	1.869327	1.093443
O21	O	-0.252866	1.210811	0.361279
O22	O	0.247134	1.710811	0.861279
O23	O	-0.252806	1.072584	0.499515
O24	O	0.247194	1.572584	0.999515
O25	O	-0.328205	1.217769	0.782349
O26	O	0.171795	1.717769	1.282349
O27	O	-0.343924	1.059082	0.630532
O28	O	0.156076	1.559082	1.130532
O29	O	-0.225176	1.351506	0.766360
O30	O	0.274824	1.851506	1.266360
O31	O	-0.464289	1.284220	0.560474
O32	O	0.035711	1.784220	1.060474
O33	O	-0.464243	1.179488	0.665214
O34	O	0.035757	1.679488	1.165214
C35	C	-0.300118	1.032606	0.563504
C36	C	0.199882	1.532606	1.063504
C37	C	-0.305504	0.930817	0.558875
C38	C	0.194496	1.430817	1.058875
C39	C	-0.208423	0.769729	0.642796
C40	C	0.291577	1.269729	1.142796
C41	C	-0.213480	0.674090	0.638449
C42	C	0.286520	1.174090	1.138449
C43	C	-0.320673	0.643900	0.545826
C44	C	0.179327	1.143900	1.045826
C45	C	-0.315615	0.739539	0.550174
C46	C	0.184385	1.239539	1.050174
C47	C	-0.259489	0.802450	0.598662
C48	C	0.240511	1.302450	1.098662
C49	C	-0.254435	0.898090	0.603015
C50	C	0.245565	1.398090	1.103015
C51	C	-0.361623	0.867899	0.510387
C52	C	0.138377	1.367899	1.010387
C53	C	-0.366681	0.772261	0.506040
C54	C	0.133319	1.272261	1.006040
C55	C	-0.492945	1.225602	0.619107
C56	C	0.007055	1.725602	1.119107
C57	C	-0.580800	1.206467	0.638273
C58	C	-0.080800	1.706467	1.138273
C59	C	-0.869699	1.416456	0.428879
C60	C	-0.369699	1.916456	0.928879
C61	C	-0.952252	1.398461	0.446902
C62	C	-0.452252	1.898461	0.946902
C63	C	-0.952259	1.289298	0.555872
C64	C	-0.452259	1.789298	1.055872
C65	C	-0.869705	1.307281	0.537855
C66	C	-0.369705	1.807281	1.037855
C67	C	-0.828431	1.370861	0.474358
C68	C	-0.328431	1.870861	0.974358
C69	C	-0.828437	1.261686	0.583334
C70	C	-0.328437	1.761686	1.083334
C71	C	-0.745889	1.279671	0.565322
C72	C	-0.245889	1.779671	1.065322
C73	C	-0.704610	1.343251	0.501830
C74	C	-0.204610	1.843251	1.001830
C75	C	-0.745884	1.388847	0.456346
C76	C	-0.245884	1.888847	0.956346
C77	C	-0.869711	1.198111	0.646836
C78	C	-0.369711	1.698111	1.146836
C79	C	-0.828444	1.152516	0.692315
C80	C	-0.328444	1.652516	1.192315
C81	C	-0.745895	1.170496	0.674298
C82	C	-0.245895	1.670496	1.174298
C83	C	-0.704615	1.234076	0.610806
C84	C	-0.204615	1.734076	1.110806
C85	C	-0.704621	1.124901	0.719782
C86	C	-0.204621	1.624901	1.219782
C87	C	-0.622074	1.142886	0.701770
C88	C	-0.122074	1.642886	1.201770
C89	C	-0.622068	1.252061	0.592794
C90	C	-0.122068	1.752061	1.092794
C91	C	-0.081389	1.315664	0.529511
C92	C	0.418611	1.815664	1.029511
C93	C	0.006473	1.334896	0.510388
C94	C	0.506473	1.834896	1.010388
C95	C	-0.274875	1.286991	0.807722
C96	C	0.225125	1.786991	1.307722
C97	C	-0.269466	1.294005	0.907155
C98	C	0.230534	1.794005	1.407155
C99	C	-0.274972	1.509387	0.585311
C100	C	0.225028	2.009387	1.085311
C101	C	-0.269604	1.611173	0.589966
C102	C	0.230396	2.111173	1.089966
C103	C	-0.300154	1.254202	0.341948
C104	C	0.199846	1.754202	0.841948
C105	C	-0.305331	1.247414	0.242475
C106	C	0.194669	1.747414	0.742475
C107	C	-0.208206	1.373513	1.038980
C108	C	0.291794	1.873513	1.538980
C109	C	-0.213286	1.366928	0.945553
C110	C	0.286714	1.866928	1.445553
C111	C	-0.320572	1.227664	0.962192
C112	C	0.179428	1.727664	1.462192
C113	C	-0.315493	1.234249	1.055619
C114	C	0.184507	1.734249	1.555619
C115	C	-0.259307	1.307175	1.094010
C116	C	0.240693	1.807175	1.594010
C117	C	-0.254225	1.313755	1.187438
C118	C	0.245775	1.813755	1.687438
C119	C	-0.361515	1.174495	1.204076
C120	C	0.138485	1.674495	1.704076
C121	C	-0.366594	1.167911	1.110649
C122	C	0.133406	1.667911	1.610649
H123	H	-0.588462	1.303828	0.541081
H124	H	-0.088462	1.803828	1.041081
H125	H	-0.171674	1.420948	0.900751
H126	H	0.328326	1.920948	1.400751
F127	F	-0.415980	0.902729	0.463419
F128	F	0.084020	1.402729	0.963419
H129	H	-0.936926	1.183474	0.661503
H130	H	-0.436926	1.683474	1.161503
F131	F	-0.194423	1.391364	1.228293
F132	F	0.305577	1.891364	1.728293
F133	F	-0.380394	0.576933	0.494216
F134	F	0.119606	1.076933	0.994216
F135	F	-0.426409	0.705298	0.454435
F136	F	0.073591	1.205298	0.954435
F137	F	-0.148394	1.451109	1.079836
F138	F	0.351606	1.951109	1.579836
H139	H	-0.208735	0.949312	0.642497
H140	H	0.291265	1.449312	1.142497
F141	F	-0.616747	1.362462	0.482725
F142	F	-0.116747	1.862462	0.982725
F143	F	-0.380366	1.150059	0.921319
F144	F	0.119634	1.650059	1.421319
F145	F	-0.426388	1.090302	1.069781
F146	F	0.073612	1.590302	1.569781
F147	F	-0.159127	0.639270	0.685420
F148	F	0.340873	1.139270	1.185420
F149	F	-0.701954	1.456501	0.388750
F150	F	-0.201954	1.956501	0.888750
F151	F	-0.825769	1.484111	0.361283
F152	F	-0.325769	1.984111	0.861283
F153	F	-0.996169	1.446995	0.398492
F154	F	-0.496169	1.946995	0.898492
F155	F	-0.996193	1.221636	0.623451
F156	F	-0.496193	1.721636	1.123451
H157	H	-0.862059	1.100751	0.744016
H158	H	-0.362059	1.600751	1.244016
F159	F	-0.748557	1.057246	0.787367
F160	F	-0.248557	1.557246	1.287367
H161	H	-0.403117	1.120470	1.248889
H162	H	0.096883	1.620470	1.748889
H163	H	-0.162726	0.820952	0.682282
H164	H	0.337274	1.320952	1.182282
F165	F	-0.578151	1.094361	0.750175
F166	F	-0.078151	1.594361	1.250175
