data_functionalizedCrystal
_audit_creation_method	'MofGen! by Chris Wilmer'
_symmetry_space_group_name_H-M	'P1'
_symmetry_Int_Tables_number	1
_symmetry_cell_setting	triclinic
loop_
_symmetry_equiv_pos_as_xyz
  x,y,z
_cell_length_a	19.805407
_cell_length_b	14.908520
_cell_length_c	19.805399
_cell_angle_alpha	86.729391
_cell_angle_beta	90.019573
_cell_angle_gamma	93.320773
loop_
_atom_site_label
_atom_site_type_symbol
_atom_site_fract_x
_atom_site_fract_y
_atom_site_fract_z
Zn1	Zn	1.019204	-0.359181	0.398269
Zn2	Zn	1.519204	0.140819	0.898269
Zn3	Zn	1.012594	-0.510047	0.291612
Zn4	Zn	1.512594	-0.010047	0.791612
Zn5	Zn	0.906017	-0.359206	0.285095
Zn6	Zn	1.406017	0.140794	0.785095
Zn7	Zn	0.899460	-0.509999	0.404757
Zn8	Zn	1.399460	-0.009999	0.904757
O9	O	0.959319	-0.434608	0.344934
O10	O	1.459319	0.065392	0.844934
O11	O	1.113043	-0.379203	0.384134
O12	O	1.613043	0.120797	0.884134
O13	O	0.998435	-0.490068	0.196033
O14	O	1.498435	0.009932	0.696033
O15	O	0.926542	-0.232958	0.294665
O16	O	1.426542	0.267042	0.794665
O17	O	1.108187	-0.490044	0.305773
O18	O	1.608187	0.009956	0.805773
O19	O	1.009699	-0.232939	0.377814
O20	O	1.509699	0.267061	0.877814
O21	O	0.920133	-0.379246	0.191244
O22	O	1.420133	0.120754	0.691244
O23	O	0.810431	-0.379199	0.300956
O24	O	1.310431	0.120801	0.800956
O25	O	0.915366	-0.489962	0.498612
O26	O	1.415366	0.010038	0.998612
O27	O	0.805614	-0.489986	0.388871
O28	O	1.305614	0.010014	0.888871
O29	O	1.003341	-0.379157	0.493845
O30	O	1.503341	0.120843	0.993845
O31	O	0.992077	-0.636286	0.312064
O32	O	1.492077	-0.136286	0.812064
O33	O	0.908957	-0.636250	0.395191
O34	O	1.408957	-0.136250	0.895191
C35	C	0.783463	-0.434591	0.344911
C36	C	1.283463	0.065409	0.844911
C37	C	0.708231	-0.434605	0.344918
C38	C	1.208231	0.065395	0.844918
C39	C	0.670392	-0.492379	0.390629
C40	C	1.170392	0.007621	0.890629
C41	C	0.599704	-0.492380	0.390639
C42	C	1.099704	0.007620	0.890639
C43	C	0.566855	-0.434612	0.344934
C44	C	1.066855	0.065388	0.844934
C45	C	0.604699	-0.376832	0.299220
C46	C	1.104699	0.123168	0.799220
C47	C	0.675386	-0.376827	0.299214
C48	C	1.175386	0.123173	0.799214
C49	C	0.319625	-0.376852	0.299244
C50	C	0.819625	0.123148	0.799244
C51	C	0.248932	-0.376864	0.299252
C52	C	0.748932	0.123136	0.799252
C53	C	0.243942	-0.492406	0.390668
C54	C	0.743942	0.007594	0.890668
C55	C	0.314629	-0.492400	0.390662
C56	C	0.814629	0.007600	0.890662
C57	C	0.352467	-0.434618	0.344952
C58	C	0.852467	0.065382	0.844952
C59	C	0.429116	-0.434615	0.344943
C60	C	0.929116	0.065385	0.844943
C61	C	0.490208	-0.434618	0.344939
C62	C	0.990208	0.065382	0.844939
C63	C	0.949107	-0.669002	0.355053
C64	C	1.449107	-0.169002	0.855053
C65	C	0.944800	-0.769277	0.359405
C66	C	1.444800	-0.269277	0.859405
C67	C	1.023348	-0.957679	0.281093
C68	C	1.523348	-0.457679	0.781093
C69	C	1.019304	-1.051896	0.285180
C70	C	1.519304	-0.551896	0.785180
C71	C	0.932671	-1.051929	0.371669
C72	C	1.432671	-0.551929	0.871669
C73	C	0.936715	-0.957712	0.367582
C74	C	1.436715	-0.457712	0.867582
C75	C	0.982055	-0.910590	0.322292
C76	C	1.482055	-0.410590	0.822292
C77	C	0.986095	-0.816372	0.318202
C78	C	1.486095	-0.316372	0.818202
C79	C	0.899466	-0.816407	0.404694
C80	C	1.399466	-0.316407	0.904694
C81	C	0.895421	-0.910624	0.408781
C82	C	1.395421	-0.410624	0.908781
C83	C	1.135861	-0.434626	0.344957
C84	C	1.635861	0.065374	0.844957
C85	C	1.211092	-0.434634	0.344967
C86	C	1.711092	0.065366	0.844967
C87	C	0.959359	-0.434551	0.521474
C88	C	1.459359	0.065449	1.021474
C89	C	0.959376	-0.434527	0.596705
C90	C	1.459376	0.065473	1.096705
C91	C	0.969589	-0.199299	0.334789
C92	C	1.469589	0.300701	0.834789
C93	C	0.973966	-0.099024	0.330466
C94	C	1.473966	0.400976	0.830466
C95	C	0.959320	-0.434600	0.169077
C96	C	1.459320	0.065400	0.669077
C97	C	0.959445	-0.434370	0.093836
C98	C	1.459445	0.065630	0.593836
C99	C	1.005186	-0.376828	0.629568
C100	C	1.505186	0.123172	1.129568
C101	C	1.005194	-0.376802	0.700255
C102	C	1.505194	0.123198	1.200255
C103	C	0.959395	-0.434480	0.738078
C104	C	1.459395	0.065520	1.238078
C105	C	0.913581	-0.492182	0.705210
C106	C	1.413581	0.007818	1.205210
C107	C	0.913570	-0.492203	0.634524
C108	C	1.413570	0.007797	1.134524
C109	C	0.913622	-0.492098	0.990280
C110	C	1.413622	0.007902	1.490280
C111	C	0.913638	-0.492074	1.060971
C112	C	1.413638	0.007926	1.560971
C113	C	1.005247	-0.376697	1.056011
C114	C	1.505247	0.123303	1.556011
C115	C	1.005236	-0.376718	0.985325
C116	C	1.505236	0.123282	1.485325
C117	C	0.959419	-0.434416	0.952463
C118	C	1.459419	0.065584	1.452463
C119	C	0.959410	-0.434442	0.875816
C120	C	1.459410	0.065558	1.375816
C121	C	0.959407	-0.434459	0.814725
C122	C	1.459407	0.065541	1.314725
H123	H	0.697132	-0.539423	0.427846
H124	H	1.197132	-0.039423	0.927846
N125	N	0.854921	-0.765615	0.449129
N126	N	1.354921	-0.265615	0.949129
H127	H	0.884084	-0.726464	0.478826
H128	H	1.384084	-0.226464	0.978826
H129	H	0.825593	-0.809823	0.478394
H130	H	1.325593	-0.309823	0.978394
N131	N	0.569268	-0.314542	0.249914
N132	N	1.069268	0.185458	0.749914
H133	H	0.541760	-0.272785	0.275662
H134	H	1.041760	0.227215	0.775662
H135	H	0.538376	-0.351238	0.220105
H136	H	1.038376	0.148762	0.720105
N137	N	1.054610	-0.314564	0.735688
N138	N	1.554610	0.185436	1.235688
H139	H	1.084382	-0.351216	0.766605
H140	H	1.584382	0.148784	1.266605
H141	H	1.028889	-0.272748	0.763166
H142	H	1.528889	0.227252	1.263166
N143	N	0.350062	-0.554701	0.439960
N144	N	0.850062	-0.054701	0.939960
H145	H	0.377561	-0.596457	0.414203
H146	H	0.877561	-0.096457	0.914203
H147	H	0.315327	-0.591241	0.468911
H148	H	0.815327	-0.091241	0.968911
N149	N	0.203129	-0.554720	0.439979
N150	N	0.703129	-0.054720	0.939979
H151	H	0.234666	-0.591317	0.468928
H152	H	0.734666	-0.091317	0.968928
H153	H	0.171972	-0.596422	0.414178
H154	H	0.671972	-0.096422	0.914178
H155	H	0.876288	-0.539141	0.736011
H156	H	1.376288	-0.039141	1.236011
H157	H	0.895762	-1.090312	0.408547
H158	H	1.395762	-0.590312	0.908547
N159	N	0.846522	-0.961450	0.457628
N160	N	1.346522	-0.461450	0.957628
H161	H	0.850225	-1.028282	0.453967
H162	H	1.350225	-0.528282	0.953967
H163	H	0.798894	-0.945047	0.446329
H164	H	1.298894	-0.445047	0.946329
H165	H	0.350424	-0.329809	0.262018
H166	H	0.850424	0.170191	0.762018
N167	N	1.054663	-0.314453	1.091450
N168	N	1.554663	0.185547	1.591450
H169	H	1.084433	-0.351108	1.122366
H170	H	1.584433	0.148892	1.622366
H171	H	1.028940	-0.272639	1.118929
H172	H	1.528940	0.227361	1.618929
H173	H	1.060261	-0.919312	0.244211
H174	H	1.560261	-0.419312	0.744211
N175	N	0.864155	-0.554426	0.599075
N176	N	1.364155	-0.054426	1.099075
H177	H	0.835142	-0.590962	0.633760
H178	H	1.335142	-0.090962	1.133760
H179	H	0.889874	-0.596190	0.571548
H180	H	1.389874	-0.096190	1.071548
H181	H	1.052931	-1.090232	0.251633
H182	H	1.552931	-0.590232	0.751633
H183	H	0.222189	-0.329817	0.262033
H184	H	0.722189	0.170183	0.762033
H185	H	1.042483	-0.329862	0.598777
H186	H	1.542483	0.170138	1.098777
H187	H	0.706194	-0.329777	0.261995
H188	H	1.206194	0.170223	0.761995
N189	N	1.034993	-0.765544	0.269356
N190	N	1.534993	-0.265544	0.769356
H191	H	1.060541	-0.809674	0.243879
H192	H	1.560541	-0.309674	0.743879
H193	H	1.067977	-0.726394	0.295242
H194	H	1.567977	-0.226394	0.795242
N195	N	1.054636	-0.314513	0.944530
N196	N	1.554636	0.185487	1.444530
H197	H	1.083658	-0.277955	0.976076
H198	H	1.583658	0.222045	1.476076
H199	H	1.028902	-0.272770	0.913397
H200	H	1.528902	0.227230	1.413397
N201	N	0.864237	-0.554278	1.101775
N202	N	1.364237	-0.054278	1.601775
H203	H	0.871925	-0.618745	1.092257
H204	H	1.371925	-0.118745	1.592257
H205	H	0.816508	-0.540181	1.088848
H206	H	1.316508	-0.040181	1.588848
N207	N	0.558890	-0.554706	0.439932
N208	N	1.058890	-0.054706	0.939932
H209	H	0.590426	-0.591309	0.468879
H210	H	1.090426	-0.091309	0.968879
H211	H	0.527739	-0.596401	0.414120
H212	H	1.027739	-0.096401	0.914120
N213	N	0.864188	-0.554296	0.954840
N214	N	1.364188	-0.054296	1.454840
H215	H	0.835172	-0.590822	0.989528
H216	H	1.335172	-0.090822	1.489528
H217	H	0.889886	-0.596070	0.927302
H218	H	1.389886	-0.096070	1.427302
