data_functionalizedCrystal
_audit_creation_method	'MofGen! by Chris Wilmer'
_symmetry_space_group_name_H-M	'P1'
_symmetry_Int_Tables_number	1
_symmetry_cell_setting	triclinic
loop_
_symmetry_equiv_pos_as_xyz
  x,y,z
_cell_length_a	11.792254
_cell_length_b	10.268362
_cell_length_c	10.654550
_cell_angle_alpha	90.001185
_cell_angle_beta	84.341764
_cell_angle_gamma	90.004577
loop_
_atom_site_label
_atom_site_type_symbol
_atom_site_fract_x
_atom_site_fract_y
_atom_site_fract_z
O1	O	1.507299	0.108299	0.172205
O2	O	1.177001	0.108302	0.189929
O3	O	1.349744	0.108292	-0.001694
O4	O	1.334556	0.108308	0.363827
O5	O	1.349727	-0.108309	-0.001687
O6	O	1.176984	-0.108299	0.189935
O7	O	1.507282	-0.108302	0.172211
Cu8	Cu	1.342132	-0.128078	0.181074
Cu9	Cu	1.342151	0.128078	0.181066
O10	O	1.334539	-0.108292	0.363834
C11	C	1.134699	0.000002	0.188815
C12	C	1.008678	0.000003	0.185474
N13	N	1.342126	-0.308244	0.181079
C14	C	1.342134	-0.426086	0.181079
C15	C	1.342148	-0.573924	0.181068
C16	C	0.906335	0.000008	0.182758
C17	C	0.777941	0.000009	0.179363
C18	C	1.549584	0.000001	0.173325
C19	C	1.675605	0.000009	0.176666
C20	C	1.348620	-0.000008	-0.048485
C21	C	1.345284	-0.000006	-0.187919
N22	N	1.342166	0.308243	0.181052
C23	C	1.446992	-0.000006	-0.267687
C24	C	1.443850	0.000010	-0.398699
C25	C	1.237283	0.000021	-0.370162
C26	C	1.240426	0.000015	-0.239153
C27	C	1.563645	0.075901	-0.594879
C28	C	1.665359	0.075878	-0.674653
C29	C	1.757559	-0.000028	-0.644735
C30	C	1.748050	-0.075943	-0.535046
C31	C	1.646334	-0.075932	-0.455279
C32	C	1.554138	0.000005	-0.485196
C33	C	1.120639	-0.075887	-0.042972
C34	C	1.018922	-0.075886	0.036798
C35	C	0.926712	0.000013	0.006884
C36	C	0.936209	0.075908	-0.102808
C37	C	1.037926	0.075906	-0.182577
C38	C	1.130137	0.000010	-0.152654
C39	C	1.335662	0.000010	0.410625
C40	C	1.338999	0.000017	0.550059
H41	H	1.532374	-0.000020	-0.225978
H42	H	1.488579	0.137729	-0.619241
O43	O	1.674612	0.149826	-0.781066
C44	C	1.668014	0.365531	-0.869112
C45	C	1.657527	0.281956	-0.748496
H46	H	1.654182	0.472372	-0.842823
H47	H	1.756556	0.352586	-0.921001
H48	H	1.600981	0.333484	-0.932821
H49	H	1.724497	0.313950	-0.684692
H50	H	1.568947	0.294908	-0.696705
O51	O	1.210262	-0.149667	-0.014129
C52	C	1.340125	-0.323721	-0.078805
C53	C	1.238636	-0.240256	-0.111639
H54	H	1.363081	-0.397000	-0.157610
H55	H	1.416496	-0.258102	-0.067764
H56	H	1.315876	-0.377911	0.013327
H57	H	1.262775	-0.186053	-0.203783
H58	H	1.162292	-0.305942	-0.122597
O59	O	1.837738	-0.149577	-0.506154
C60	C	2.031056	-0.216952	-0.567223
C61	C	1.929581	-0.133477	-0.600081
H62	H	2.105328	-0.203986	-0.643158
H63	H	2.058197	-0.184958	-0.472180
H64	H	2.004729	-0.323796	-0.562043
H65	H	1.955823	-0.026613	-0.605330
H66	H	1.902462	-0.165581	-0.695100
H67	H	1.045659	0.137724	-0.271885
H68	H	1.638591	-0.137745	-0.365975
H69	H	1.151911	0.000035	-0.411893
O70	O	0.846548	0.149614	-0.131658
C71	C	0.653175	0.216839	-0.070676
C72	C	0.754641	0.133336	-0.037841
H73	H	0.578834	0.203686	0.005142
H74	H	0.679361	0.323732	-0.075756
H75	H	0.626189	0.184845	-0.165786
H76	H	0.781675	0.165215	0.057277
H77	H	0.728397	0.026461	-0.032845
H78	H	1.840377	-0.000045	-0.709696
O79	O	1.009771	-0.149799	0.143232
C80	C	1.016270	-0.365504	0.231299
C81	C	1.026692	-0.281954	0.110667
H82	H	1.029922	-0.472370	0.205011
H83	H	1.083340	-0.333598	0.295023
H84	H	0.927742	-0.352395	0.283171
H85	H	1.115178	-0.295022	0.058692
H86	H	0.959557	-0.313880	0.047034
H87	H	0.843883	-0.000009	0.071835
