data_functionalizedCrystal
_audit_creation_method	'MofGen! by Chris Wilmer'
_symmetry_space_group_name_H-M	'P1'
_symmetry_Int_Tables_number	1
_symmetry_cell_setting	triclinic
loop_
_symmetry_equiv_pos_as_xyz
  x,y,z
_cell_length_a	17.077404
_cell_length_b	29.839131
_cell_length_c	17.077396
_cell_angle_alpha	90.033517
_cell_angle_beta	90.017060
_cell_angle_gamma	90.041645
loop_
_atom_site_label
_atom_site_type_symbol
_atom_site_fract_x
_atom_site_fract_y
_atom_site_fract_z
Zn1	Zn	1.199935	-0.178844	0.443824
Zn2	Zn	1.199805	-0.253976	0.312550
Zn3	Zn	1.068672	-0.178861	0.312572
Zn4	Zn	1.068592	-0.253948	0.443774
O5	O	1.134251	-0.216407	0.378180
O6	O	1.309764	-0.188815	0.426422
O7	O	1.182389	-0.244032	0.202706
O8	O	1.086172	-0.115992	0.330013
O9	O	1.309669	-0.244014	0.329976
O10	O	1.182610	-0.115979	0.426443
O11	O	1.086046	-0.188845	0.202722
O12	O	0.958814	-0.188817	0.329964
O13	O	1.086036	-0.243965	0.553627
O14	O	0.958756	-0.243983	0.426358
O15	O	1.182533	-0.188787	0.553664
O16	O	1.182311	-0.316840	0.329927
O17	O	1.085910	-0.316818	0.426336
C18	C	0.930303	-0.216399	0.378158
C19	C	0.843053	-0.216406	0.378168
C20	C	1.134109	-0.333130	0.378141
C21	C	1.134120	-0.383064	0.378151
C22	C	0.802053	-0.245174	0.428279
C23	C	0.720073	-0.245175	0.428292
C24	C	0.679094	-0.216410	0.378188
C25	C	0.720100	-0.187639	0.328074
C26	C	0.802079	-0.187636	0.328066
C27	C	0.549230	-0.187648	0.328093
C28	C	0.467245	-0.187651	0.328100
C29	C	0.467224	-0.245187	0.428319
C30	C	0.549202	-0.245184	0.428311
C31	C	0.590203	-0.216414	0.378196
C32	C	1.184538	-0.692706	0.328053
C33	C	1.184635	-0.880379	0.328083
O34	O	1.227390	-0.904642	0.285459
N35	N	1.134414	-0.903849	0.378239
C36	C	1.084168	-0.880398	0.428394
O37	O	1.041459	-0.904668	0.471061
C38	C	1.084075	-0.692726	0.428367
C39	C	1.134295	-0.669258	0.378203
C40	C	1.234754	-0.669238	0.277893
C41	C	1.234727	-0.622323	0.277883
C42	C	1.184483	-0.598875	0.328033
C43	C	1.134267	-0.622343	0.378193
C44	C	1.033834	-0.669276	0.478526
C45	C	1.033817	-0.622355	0.478516
C46	C	1.084036	-0.598887	0.428352
C47	C	1.083996	-0.551980	0.428332
N48	N	1.134217	-0.528510	0.378177
C49	C	1.184461	-0.551957	0.328027
C50	C	1.084219	-0.978929	0.428404
C51	C	1.084241	-1.025847	0.428410
C52	C	1.184709	-1.025824	0.328100
C53	C	1.184683	-0.978905	0.328090
C54	C	1.134440	-0.955459	0.378248
C55	C	1.184398	-0.453431	0.328009
C56	C	1.184364	-0.406512	0.328001
C57	C	1.083898	-0.406539	0.428314
C58	C	1.083930	-0.453454	0.428319
C59	C	1.134186	-0.476899	0.378164
O60	O	1.041269	-0.527688	0.470941
O61	O	1.227176	-0.527680	0.285378
C62	C	1.184566	-0.739621	0.328063
C63	C	1.134350	-0.763089	0.378223
C64	C	1.084107	-0.739642	0.428373
C65	C	1.134372	-0.810007	0.378229
C66	C	1.184616	-0.833455	0.328079
C67	C	1.234838	-0.809984	0.277923
C68	C	1.234810	-0.763069	0.277913
C69	C	1.033885	-0.763112	0.478529
C70	C	1.033916	-0.810027	0.478534
C71	C	1.084160	-0.833475	0.428384
C72	C	1.338995	-0.216416	0.378202
C73	C	1.426245	-0.216419	0.378212
C74	C	1.134290	-0.216371	0.582924
C75	C	1.134306	-0.216355	0.670174
C76	C	1.134415	-0.099229	0.378236
C77	C	1.134484	-0.049294	0.378260
C78	C	1.134257	-0.216411	0.174232
C79	C	1.134393	-0.216300	0.086983
C80	C	1.184543	-0.245039	1.045983
C81	C	1.184523	-0.245052	0.964002
C82	C	1.134357	-0.216324	0.923023
C83	C	1.084201	-0.187584	0.964029
C84	C	1.084218	-0.187573	1.046008
C85	C	1.084172	-0.187607	0.793159
C86	C	1.084156	-0.187617	0.711174
C87	C	1.184478	-0.245085	0.711153
C88	C	1.184494	-0.245075	0.793132
C89	C	1.134339	-0.216334	0.834132
H90	H	0.835412	-0.268600	0.469077
H91	H	0.582565	-0.268610	0.469105
H92	H	0.433837	-0.268612	0.469126
Br93	Br	1.016156	-0.148568	1.101652
Br94	Br	1.016127	-0.148589	0.908415
H95	H	1.275622	-0.603218	0.237037
Br96	Br	1.252839	-0.947061	0.260007
H97	H	1.043308	-0.164222	0.677811
H98	H	0.686694	-0.268602	0.469097
H99	H	0.433882	-0.164223	0.287311
H100	H	1.043039	-0.472563	0.469170
Br101	Br	0.604873	-0.148601	0.260081
Br102	Br	1.016116	-0.148594	0.848801
Br103	Br	1.252604	-0.485243	0.259941
Br104	Br	0.965630	-0.590537	0.546595
H105	H	0.686728	-0.164216	0.287283
Br106	Br	1.252522	-0.374665	0.259914
Br107	Br	0.857723	-0.148590	0.260060
Br108	Br	1.302953	-0.701051	0.209825
Br109	Br	1.252894	-1.057655	0.260037
Br110	Br	1.016072	-1.057690	0.496482
Br111	Br	1.303021	-0.841815	0.209860
Br112	Br	1.016025	-0.947115	0.496482
H113	H	0.992936	-0.688376	0.519372
Br114	Br	1.015717	-0.374708	0.496374
Br115	Br	0.965752	-0.841871	0.546619
H116	H	1.275703	-0.743965	0.237065
Br117	Br	0.965691	-0.731298	0.546598
H118	H	1.225398	-0.268430	1.079342
Br119	Br	1.252587	-0.284056	0.908362
H120	H	1.225348	-0.268466	0.826495
H121	H	1.225316	-0.268487	0.677767
