data_functionalizedCrystal
_audit_creation_method	'MofGen! by Chris Wilmer'
_symmetry_space_group_name_H-M	'P1'
_symmetry_Int_Tables_number	1
_symmetry_cell_setting	triclinic
loop_
_symmetry_equiv_pos_as_xyz
  x,y,z
_cell_length_a	14.971482
_cell_length_b	14.044190
_cell_length_c	13.448316
_cell_angle_alpha	89.988796
_cell_angle_beta	89.993798
_cell_angle_gamma	88.402193
loop_
_atom_site_label
_atom_site_type_symbol
_atom_site_fract_x
_atom_site_fract_y
_atom_site_fract_z
O1	O	1.196683	0.123521	-0.082690
O2	O	0.937449	0.138319	-0.082697
O3	O	1.063171	-0.007069	-0.082674
O4	O	1.070960	0.268909	-0.082713
O5	O	1.063154	-0.007078	0.082710
O6	O	0.937431	0.138310	0.082687
O7	O	1.196665	0.123512	0.082693
Cu8	Cu	1.067046	0.130910	0.097791
Cu9	Cu	1.067068	0.130921	-0.097794
O10	O	1.070942	0.268900	0.082671
C11	C	0.904063	0.137653	-0.000005
C12	C	0.804609	0.135672	-0.000007
C13	C	0.757881	0.134734	0.090145
C14	C	0.664435	0.132857	0.090147
C15	C	0.617718	0.131925	-0.000005
C16	C	0.664453	0.132861	-0.090164
C17	C	0.757898	0.134730	-0.090164
C18	C	0.469684	0.128965	-0.090157
C19	C	0.376232	0.127097	-0.090157
C20	C	0.376221	0.127092	0.090154
C21	C	0.469666	0.128962	0.090153
C22	C	0.516394	0.129899	-0.000006
C23	C	1.059755	-0.042392	0.000021
C24	C	1.049591	-0.147629	0.000029
C25	C	1.103093	-0.397856	-0.000009
C26	C	1.031025	-0.340307	-0.000003
C27	C	1.041358	-0.233092	0.000015
C28	C	1.092761	-0.505082	-0.000027
C29	C	1.230051	0.124178	-0.000000
C30	C	1.329504	0.126159	-0.000005
C31	C	1.074359	0.304223	-0.000026
C32	C	1.084522	0.409460	-0.000041
N33	N	1.067038	0.130902	0.235355
N34	N	1.067082	0.130921	-0.235359
C35	C	1.122729	0.066551	0.287406
C36	C	1.122734	0.066550	0.391509
C37	C	1.067053	0.130906	0.443560
C38	C	1.011356	0.195260	0.391502
C39	C	1.011346	0.195256	0.287401
C40	C	1.011381	0.195267	0.608482
C41	C	1.011391	0.195273	0.712591
C42	C	1.122769	0.066561	0.712590
C43	C	1.122760	0.066557	0.608489
C44	C	1.067063	0.130912	0.556439
H45	H	0.961564	-0.371561	-0.000011
C46	C	1.189072	-0.256084	0.000039
C47	C	1.196858	-0.355672	0.000017
H48	H	1.246959	-0.230036	0.000065
H49	H	1.157514	-0.235316	-0.057633
H50	H	1.157475	-0.235362	0.057713
H51	H	1.228450	-0.376395	-0.057661
H52	H	1.228430	-0.376449	0.057695
H53	H	1.168119	0.014160	0.754976
H54	H	0.966049	0.247677	0.754966
H55	H	0.626409	0.132095	-0.163567
H56	H	1.168104	0.014158	0.566109
C57	C	0.901298	0.322507	0.618934
C58	C	0.950164	0.266012	0.551266
H59	H	0.863514	0.366187	0.583609
H60	H	0.865974	0.282995	0.659551
H61	H	0.941268	0.356666	0.659524
H62	H	0.910193	0.231848	0.510681
H63	H	0.985490	0.305530	0.510633
H64	H	1.168075	0.014149	0.245033
C65	C	0.274715	0.043533	0.194786
C66	C	0.324870	0.126044	0.189265
H67	H	0.243017	0.042886	0.255974
H68	H	0.233518	0.042717	0.141107
H69	H	0.313601	-0.010963	0.191036
H70	H	0.285983	0.180541	0.193007
H71	H	0.366071	0.126870	0.242958
C72	C	1.232850	-0.060648	0.381052
C73	C	1.183967	-0.004172	0.448723
H74	H	1.270660	-0.104304	0.416375
H75	H	1.192897	-0.094826	0.340474
H76	H	1.268156	-0.021113	0.340424
H77	H	1.148656	-0.043707	0.489346
H78	H	1.223924	0.030008	0.489318
H79	H	0.966014	0.247657	0.433888
H80	H	0.965996	0.247656	0.245023
H81	H	0.507727	0.129729	-0.163574
C82	C	0.790202	0.053868	0.243837
C83	C	0.809231	0.135754	0.189243
H84	H	0.821907	0.054494	0.305014
H85	H	0.727870	0.052628	0.256737
H86	H	0.807941	-0.001053	0.206789
H87	H	0.791487	0.190675	0.226288
H88	H	0.871577	0.137004	0.176346
C89	C	0.562927	0.049303	0.194771
C90	C	0.613081	0.131815	0.189250
H91	H	0.531231	0.048654	0.255961
H92	H	0.521728	0.048487	0.141095
H93	H	0.601813	-0.005192	0.191019
H94	H	0.574193	0.186311	0.192995
H95	H	0.654284	0.132640	0.242942
C96	C	0.783130	0.216752	-0.243858
C97	C	0.809268	0.135770	-0.189260
H98	H	0.814849	0.217392	-0.305033
H99	H	0.720800	0.215498	-0.256761
H100	H	0.796028	0.272286	-0.206810
H101	H	0.796364	0.080235	-0.226304
H102	H	0.871612	0.137016	-0.176359
C103	C	0.343905	0.207950	-0.243858
C104	C	0.324874	0.126073	-0.189249
H105	H	0.312200	0.207314	-0.305035
H106	H	0.326176	0.262871	-0.206823
H107	H	0.406245	0.209181	-0.256765
H108	H	0.262534	0.124845	-0.176336
H109	H	0.342597	0.071137	-0.226292
H110	H	0.507700	0.129727	0.163563
