data_functionalizedCrystal
_audit_creation_method	'MofGen! by Chris Wilmer'
_symmetry_space_group_name_H-M	'P1'
_symmetry_Int_Tables_number	1
_symmetry_cell_setting	triclinic
loop_
_symmetry_equiv_pos_as_xyz
  x,y,z
_cell_length_a	19.288840
_cell_length_b	17.766277
_cell_length_c	19.288865
_cell_angle_alpha	90.011603
_cell_angle_beta	83.131131
_cell_angle_gamma	90.016585
loop_
_atom_site_label
_atom_site_type_symbol
_atom_site_fract_x
_atom_site_fract_y
_atom_site_fract_z
O1	O	0.921364	0.062729	0.086566
O2	O	1.421364	0.562729	0.586566
O3	O	0.719101	0.062704	0.098273
O4	O	1.219101	0.562704	0.598273
O5	O	0.826077	0.062702	-0.008711
O6	O	1.326077	0.562702	0.491289
O7	O	0.814388	0.062730	0.193550
O8	O	1.314388	0.562730	0.693550
O9	O	0.826058	-0.062487	-0.008717
O10	O	1.326058	0.437513	0.491283
O11	O	0.719082	-0.062485	0.098267
O12	O	1.219082	0.437515	0.598267
O13	O	0.921345	-0.062460	0.086560
O14	O	1.421345	0.437540	0.586560
Cu15	Cu	0.820212	-0.073903	0.092413
Cu16	Cu	1.320212	0.426097	0.592413
Cu17	Cu	0.820234	0.074147	0.092420
Cu18	Cu	1.320234	0.574147	0.592420
O19	O	0.814369	-0.062458	0.193545
O20	O	1.314369	0.437542	0.693545
C21	C	0.693215	0.000106	0.097896
C22	C	1.193215	0.500106	0.597896
C23	C	0.616110	0.000096	0.096774
C24	C	1.116110	0.500096	0.596774
C25	C	0.579917	0.068338	0.096238
C26	C	1.079917	0.568338	0.596238
C27	C	0.507470	0.068347	0.095176
C28	C	1.007470	0.568347	0.595176
C29	C	0.471221	0.000110	0.094636
C30	C	0.971221	0.500110	0.594636
C31	C	0.507423	-0.068141	0.095176
C32	C	1.007423	0.431859	0.595176
C33	C	0.579867	-0.068148	0.096245
C34	C	1.079867	0.431852	0.596245
C35	C	0.361886	-0.052164	0.052256
C36	C	0.861886	0.447836	0.552256
C37	C	0.289443	-0.052155	0.051183
C38	C	0.789443	0.447845	0.551183
C39	C	0.247778	0.000129	0.091342
C40	C	0.747778	0.500129	0.591342
C41	C	0.278565	0.052416	0.132566
C42	C	0.778565	0.552416	0.632566
C43	C	0.351010	0.052408	0.133635
C44	C	0.851010	0.552408	0.633635
C45	C	0.392667	0.000110	0.093477
C46	C	0.892667	0.500110	0.593477
C47	C	0.133029	0.068386	0.089655
C48	C	0.633029	0.568386	0.589655
C49	C	0.060580	0.068392	0.088598
C50	C	0.560580	0.568392	0.588598
C51	C	0.060535	-0.068098	0.088591
C52	C	0.560535	0.431902	0.588591
C53	C	0.132982	-0.068102	0.089656
C54	C	0.632982	0.431898	0.589656
C55	C	0.169225	0.000142	0.090185
C56	C	0.669225	0.500142	0.590185
N57	N	0.820202	-0.178034	0.092409
N58	N	1.320202	0.321966	0.592409
C59	C	0.867586	-0.217421	0.045059
C60	C	1.367586	0.282579	0.545059
C61	C	0.867590	-0.296223	0.045056
C62	C	1.367590	0.203777	0.545056
C63	C	0.820216	-0.335634	0.092414
C64	C	1.320216	0.164366	0.592414
C65	C	0.772823	-0.296237	0.139767
C66	C	1.272823	0.203763	0.639767
C67	C	0.772816	-0.217437	0.139764
C68	C	1.272816	0.282563	0.639764
C69	C	0.810917	-0.460464	0.155703
C70	C	1.310917	0.039536	0.655703
C71	C	0.810930	-0.539263	0.155706
C72	C	1.310930	-0.039263	0.655706
C73	C	0.820235	-0.578680	0.092422
C74	C	1.320235	-0.078680	0.592422
C75	C	0.829543	-0.539290	0.029132
C76	C	1.329543	-0.039290	0.529132
C77	C	0.829535	-0.460489	0.029129
C78	C	1.329535	0.039511	0.529129
C79	C	0.820219	-0.421080	0.092422
C80	C	1.320219	0.078920	0.592422
C81	C	0.867626	-0.703514	0.045065
C82	C	1.367626	-0.203514	0.545065
C83	C	0.867625	-0.782317	0.045061
C84	C	1.367625	-0.282317	0.545061
C85	C	0.772862	-0.782330	0.139779
C86	C	1.272862	-0.282330	0.639779
C87	C	0.772859	-0.703528	0.139777
C88	C	1.272859	-0.203528	0.639777
C89	C	0.820245	-0.664125	0.092421
C90	C	1.320245	-0.164125	0.592421
C91	C	0.947232	0.000139	0.086937
C92	C	1.447232	0.500139	0.586937
C93	C	1.024336	0.000154	0.088059
C94	C	1.524336	0.500154	0.588059
C95	C	0.825692	0.000105	-0.034591
C96	C	1.325692	0.500105	0.465409
C97	C	0.824563	0.000099	-0.111694
C98	C	1.324563	0.500099	0.388306
N99	N	0.820250	0.178277	0.092419
N100	N	1.320250	0.678277	0.592419
C101	C	0.887331	0.000103	-0.156396
C102	C	1.387331	0.500103	0.343604
C103	C	0.886270	0.000114	-0.228843
C104	C	1.386270	0.500114	0.271157
C105	C	0.822438	0.000107	-0.256585
C106	C	1.322438	0.500107	0.243415
C107	C	0.759661	0.000107	-0.211873
C108	C	1.259661	0.500107	0.288127
C109	C	0.760723	0.000103	-0.139428
C110	C	1.260723	0.500103	0.360572
C111	C	0.772251	-0.043750	-0.364870
C112	C	1.272251	0.456250	0.135130
C113	C	0.771191	-0.043750	-0.437314
C114	C	1.271191	0.456250	0.062686
C115	C	0.819158	0.000123	-0.480030
C116	C	1.319158	0.500123	0.019970
C117	C	0.868196	0.043988	-0.450295
C118	C	1.368196	0.543988	0.049705
C119	C	0.869259	0.043984	-0.377849
C120	C	1.369259	0.543984	0.122151
C121	C	0.821278	0.000112	-0.335139
C122	C	1.321278	0.500112	0.164861
C123	C	0.880781	0.000141	-0.603288
C124	C	1.380781	0.500141	-0.103288
C125	C	0.879717	0.000158	-0.675736
C126	C	1.379717	0.500158	-0.175736
C127	C	0.753106	0.000143	-0.658764
C128	C	1.253106	0.500143	-0.158764
C129	C	0.754171	0.000134	-0.586318
C130	C	1.254171	0.500134	-0.086318
C131	C	0.818010	0.000130	-0.558584
C132	C	1.318010	0.500130	-0.058584
C133	C	0.814755	0.000140	0.219424
C134	C	1.314755	0.500140	0.719424
C135	C	0.815884	0.000152	0.296527
C136	C	1.315884	0.500152	0.796527
H137	H	0.477996	0.123920	0.094741
H138	H	0.977996	0.623920	0.594741
C139	C	0.955316	0.000114	-0.278027
C140	C	1.455316	0.500114	0.221973
H141	H	0.945539	0.000121	-0.325144
H142	H	1.445539	0.500121	0.174856
H143	H	0.981491	-0.043543	-0.269650
H144	H	1.481491	0.456457	0.230350
H145	H	0.981512	0.043775	-0.269635
H146	H	1.481512	0.543775	0.230365
C147	C	0.255583	-0.109667	0.005841
C148	C	0.755583	0.390333	0.505841
H149	H	0.290770	-0.140816	-0.017913
H150	H	0.790770	0.359184	0.482087
H151	H	0.231719	-0.083787	-0.027293
H152	H	0.731719	0.416213	0.472707
H153	H	0.223378	-0.139893	0.034762
H154	H	0.723378	0.360107	0.534762
C155	C	0.920959	0.092257	-0.497272
C156	C	1.420959	0.592257	0.002728
H157	H	0.913299	0.085987	-0.544676
H158	H	1.413299	0.585987	-0.044676
H159	H	0.967088	0.076844	-0.491566
H160	H	1.467088	0.576844	0.008434
H161	H	0.915029	0.143723	-0.484564
H162	H	1.415029	0.643723	0.015436
C163	C	0.800692	-0.582589	0.225319
C164	C	1.300692	-0.082589	0.725319
H165	H	0.802038	-0.635164	0.216259
H166	H	1.302038	-0.135164	0.716259
H167	H	0.756805	-0.569688	0.250199
H168	H	1.256805	-0.069688	0.750199
H169	H	0.836931	-0.569650	0.252443
H170	H	1.336931	-0.069650	0.752443
C171	C	0.923192	0.092232	-0.345138
C172	C	1.423192	0.592232	0.154862
H173	H	0.916956	0.085940	-0.295876
H174	H	1.416956	0.585940	0.204124
H175	H	0.916924	0.143699	-0.356179
H176	H	1.416924	0.643699	0.143821
H177	H	0.968974	0.076812	-0.363172
H178	H	1.468974	0.576812	0.136828
C179	C	0.839763	-0.417160	-0.040482
C180	C	1.339763	0.082840	0.459518
H181	H	0.845401	-0.451914	-0.078173
H182	H	1.345401	0.048086	0.421827
H183	H	0.880149	-0.386317	-0.041954
H184	H	1.380149	0.113683	0.458046
H185	H	0.800034	-0.386523	-0.044270
H186	H	1.300034	0.113477	0.455730
H187	H	0.932763	0.000141	-0.580706
H188	H	1.432763	0.500141	-0.080706
C189	C	0.919746	-0.825648	-0.007027
C190	C	1.419746	-0.325648	0.492973
H191	H	0.912959	-0.878222	-0.000251
H192	H	1.412959	-0.378222	0.499749
H193	H	0.966076	-0.812716	0.000395
H194	H	1.466076	-0.312716	0.500395
H195	H	0.912348	-0.812745	-0.053368
H196	H	1.412348	-0.312745	0.446632
C197	C	0.232742	0.109928	0.176746
C198	C	0.732742	0.609928	0.676746
H199	H	0.185187	0.102440	0.170214
H200	H	0.685187	0.602440	0.670214
H201	H	0.246548	0.159467	0.162621
H202	H	0.746548	0.659467	0.662621
H203	H	0.238214	0.103347	0.224664
H204	H	0.738214	0.603347	0.724664
C205	C	0.172801	-0.143167	0.090237
C206	C	0.672801	0.356833	0.590237
H207	H	0.221136	-0.133399	0.090956
H208	H	0.721136	0.366601	0.590956
H209	H	0.166350	-0.171212	0.049564
H210	H	0.666350	0.328788	0.549564
H211	H	0.155487	-0.171199	0.130562
H212	H	0.655487	0.328801	0.630562
C213	C	0.384873	0.109911	0.178985
C214	C	0.884873	0.609911	0.678985
H215	H	0.349687	0.141049	0.202755
H216	H	0.849687	0.641049	0.702755
H217	H	0.417080	0.140138	0.150075
H218	H	0.917080	0.640138	0.650075
H219	H	0.408733	0.084014	0.212116
H220	H	0.908733	0.584014	0.712116
H221	H	0.162539	0.123954	0.090094
H222	H	0.662539	0.623954	0.590094
C223	C	0.467545	-0.143200	0.094635
C224	C	0.967545	0.356800	0.594635
H225	H	0.419214	-0.133422	0.093931
H226	H	0.919214	0.366578	0.593931
H227	H	0.473993	-0.171198	0.135322
H228	H	0.973993	0.328802	0.635322
H229	H	0.484819	-0.171282	0.054324
H230	H	0.984819	0.328718	0.554324
C231	C	0.948767	0.000161	-0.724909
C232	C	1.448767	0.500161	-0.224909
H233	H	0.986936	0.000150	-0.698013
H234	H	1.486936	0.500150	-0.198013
H235	H	0.950997	0.043819	-0.753513
H236	H	1.450997	0.543819	-0.253513
H237	H	0.950971	-0.043499	-0.753531
H238	H	1.450971	0.456501	-0.253531
C239	C	0.682891	0.000137	-0.689272
C240	C	1.182891	0.500137	-0.189272
H241	H	0.691247	0.000137	-0.738820
H242	H	1.191247	0.500137	-0.238820
H243	H	0.657061	0.043789	-0.673901
H244	H	1.157061	0.543789	-0.173901
H245	H	0.657049	-0.043528	-0.673924
H246	H	1.157049	0.456472	-0.173924
C247	C	0.720751	-0.825672	0.191872
C248	C	1.220751	-0.325672	0.691872
H249	H	0.727544	-0.878245	0.185095
H250	H	1.227544	-0.378245	0.685095
H251	H	0.674420	-0.812779	0.184451
H252	H	1.174420	-0.312779	0.684451
H253	H	0.728151	-0.812743	0.238212
H254	H	1.228151	-0.312743	0.738212
C255	C	0.957550	0.000101	-0.125889
C256	C	1.457550	0.500101	0.374111
H257	H	0.949195	0.000091	-0.076340
H258	H	1.449195	0.500091	0.423660
H259	H	0.983397	0.043757	-0.141239
H260	H	1.483397	0.543757	0.358761
H261	H	0.983373	-0.043561	-0.141258
H262	H	1.483373	0.456439	0.358742
H263	H	0.703058	0.000127	-0.549920
H264	H	1.203058	0.500127	-0.049920
C265	C	0.717253	-0.091999	-0.470017
C266	C	1.217253	0.408001	0.029983
H267	H	0.688829	-0.118119	-0.434202
H268	H	1.188829	0.381881	0.065798
H269	H	0.740843	-0.127265	-0.501503
H270	H	1.240843	0.372735	-0.001503
H271	H	0.688798	-0.060373	-0.494512
H272	H	1.188798	0.439627	0.005488
C273	C	0.719483	-0.092014	-0.317888
C274	C	1.219483	0.407986	0.182112
H275	H	0.690134	-0.118144	-0.345972
H276	H	1.190134	0.381856	0.154028
H277	H	0.691856	-0.060400	-0.285861
H278	H	1.191856	0.439600	0.214139
H279	H	0.743911	-0.127283	-0.292855
H280	H	1.243911	0.372717	0.207145
C281	C	0.919716	-0.339562	-0.007026
C282	C	1.419716	0.160438	0.492974
H283	H	0.912930	-0.392136	-0.000244
H284	H	1.412930	0.107864	0.499756
H285	H	0.966044	-0.326626	0.000398
H286	H	1.466044	0.173374	0.500398
H287	H	0.912320	-0.326667	-0.053370
H288	H	1.412320	0.173333	0.446630
H289	H	0.803328	-0.428377	0.207239
H290	H	1.303328	0.071623	0.707239
H291	H	0.709608	0.000099	-0.103030
H292	H	1.209608	0.500099	0.396970
C293	C	0.720744	-0.660199	0.191869
C294	C	1.220744	-0.160199	0.691869
H295	H	0.692533	-0.694955	0.220079
H296	H	1.192533	-0.194955	0.720079
H297	H	0.691908	-0.629476	0.166960
H298	H	1.191908	-0.129476	0.666960
H299	H	0.745641	-0.629444	0.220719
H300	H	1.245641	-0.129444	0.720719
C301	C	0.839773	-0.582638	-0.040484
C302	C	1.339773	-0.082638	0.459516
H303	H	0.838436	-0.635210	-0.031421
H304	H	1.338436	-0.135210	0.468579
H305	H	0.883656	-0.569716	-0.065372
H306	H	1.383656	-0.069716	0.434628
H307	H	0.803528	-0.569741	-0.067602
H308	H	1.303528	-0.069741	0.432398
H309	H	0.395805	-0.094744	0.019552
H310	H	0.895805	0.405256	0.519552
H311	H	0.609422	0.123907	0.096669
H312	H	1.109422	0.623907	0.596669
H313	H	0.707687	0.000103	-0.234465
H314	H	1.207687	0.500103	0.265535
H315	H	0.609335	-0.123721	0.096683
H316	H	1.109335	0.376279	0.596683
C317	C	0.020764	0.143460	0.088011
C318	C	0.520764	0.643460	0.588011
H319	H	-0.027574	0.133692	0.087308
H320	H	0.472426	0.633692	0.587308
H321	H	0.038074	0.171492	0.047689
H322	H	0.538074	0.671492	0.547689
H323	H	0.027217	0.171505	0.128687
H324	H	0.527217	0.671505	0.628687
C325	C	0.020673	-0.143160	0.088000
C326	C	0.520673	0.356840	0.588000
H327	H	0.052607	-0.183805	0.088475
H328	H	0.552607	0.316195	0.588475
H329	H	-0.002161	-0.146002	0.047089
H330	H	0.497839	0.353998	0.547089
H331	H	-0.013017	-0.145986	0.128087
H332	H	0.486983	0.354014	0.628087
C333	C	0.919701	-0.174082	-0.007037
C334	C	1.419701	0.325918	0.492963
H335	H	0.947917	-0.208831	-0.035242
H336	H	1.447917	0.291169	0.464758
H337	H	0.948531	-0.143319	0.017869
H338	H	1.448531	0.356681	0.517869
H339	H	0.894799	-0.143365	-0.035891
H340	H	1.394799	0.356635	0.464109
H341	H	0.734250	-0.328329	0.178326
H342	H	1.234250	0.171671	0.678326
C343	C	0.919736	-0.660164	-0.007030
C344	C	1.419736	-0.160164	0.492970
H345	H	0.912951	-0.607592	-0.000245
H346	H	1.412951	-0.107592	0.499755
H347	H	0.912339	-0.673093	-0.053367
H348	H	1.412339	-0.173093	0.446633
H349	H	0.966072	-0.673057	0.000392
H350	H	1.466072	-0.173057	0.500392
C351	C	0.720696	-0.174108	0.191856
C352	C	1.220696	0.325892	0.691856
H353	H	0.692483	-0.208863	0.220064
H354	H	1.192483	0.291137	0.720064
H355	H	0.691862	-0.143383	0.166947
H356	H	1.191862	0.356617	0.666947
H357	H	0.745594	-0.143355	0.220707
H358	H	1.245594	0.356645	0.720707
