data_functionalizedCrystal
_audit_creation_method	'MofGen! by Chris Wilmer'
_symmetry_space_group_name_H-M	'P1'
_symmetry_Int_Tables_number	1
_symmetry_cell_setting	triclinic
loop_
_symmetry_equiv_pos_as_xyz
  x,y,z
_cell_length_a	6.817900
_cell_length_b	19.551823
_cell_length_c	9.514088
_cell_angle_alpha	92.277325
_cell_angle_beta	118.843545
_cell_angle_gamma	101.663376
loop_
_atom_site_label
_atom_site_type_symbol
_atom_site_fract_x
_atom_site_fract_y
_atom_site_fract_z
V1	V	-4.208673	-0.097915	-0.501504
O2	O	-4.201670	0.003431	-0.491184
O3	O	-4.150342	-0.192924	-0.498817
O4	O	-4.243536	-0.096969	-0.719888
O5	O	-4.107831	-0.093189	-0.268583
V6	V	-4.682799	-0.085727	-0.473554
O7	O	-4.490545	-0.124651	-0.562813
O8	O	-4.851125	-0.058991	-0.412245
O9	O	-4.517924	0.009281	-0.476241
O10	O	-4.807199	-0.187073	-0.483873
O11	O	-4.901039	-0.090454	-0.706475
O12	O	-4.424730	-0.086674	-0.255170
C13	C	-3.990233	-0.216068	-0.491097
C14	C	-4.024381	-0.293742	-0.490356
C15	C	-4.225252	-0.333807	-0.498039
C16	C	-4.257350	-0.406791	-0.497359
C17	C	-4.088544	-0.439705	-0.488963
C18	C	-3.887651	-0.399632	-0.481288
C19	C	-3.855569	-0.326650	-0.481985
C20	C	-3.936486	-0.545941	-0.387121
C21	C	-3.968567	-0.618921	-0.386415
C22	C	-4.187490	-0.664806	-0.486822
C23	C	-4.374347	-0.637701	-0.587916
C24	C	-4.342266	-0.564719	-0.588613
C25	C	-4.123310	-0.518842	-0.488208
C26	C	-4.423178	-0.784009	-0.493771
C27	C	-4.455275	-0.856996	-0.493101
C28	C	-4.085560	-0.849834	-0.477013
C29	C	-4.053479	-0.776850	-0.477700
C30	C	-4.222291	-0.743942	-0.486072
C31	C	-4.109110	-0.093666	-0.773093
C32	C	-4.218832	-0.093521	-0.951628
C33	C	-4.341374	0.032421	-0.483956
C34	C	-4.286467	0.110095	-0.484708
C35	C	-4.222495	-0.089979	-0.201957
C36	C	-4.092011	-0.090121	-0.023420
H37	H	-4.362723	-0.307018	-0.504867
H38	H	-3.889903	-0.744228	-0.471433
C39	C	-4.673530	-0.900560	-0.501752
C40	C	-4.792787	-0.952420	-0.640729
C41	C	-4.993860	-0.992561	-0.648752
H42	H	-4.632993	-0.922630	-0.407787
H43	H	-4.769594	-0.870539	-0.506918
H44	H	-4.696741	-0.982438	-0.635550
H45	H	-4.833382	-0.930370	-0.734718
H46	H	-5.089924	-0.962540	-0.653917
H47	H	-4.953300	-1.014626	-0.554780
H48	H	-5.074811	-1.027748	-0.743054
H49	H	-4.560634	-0.757214	-0.500585
C50	C	-3.835398	-0.086541	-0.923425
C51	C	-3.789586	-0.144850	-0.981291
C52	C	-3.553219	-0.141584	-0.889202
H53	H	-3.748343	-0.044148	-0.932412
H54	H	-3.793199	-0.087179	-0.812708
H55	H	-3.831760	-0.144206	-1.091981
H56	H	-3.876583	-0.187251	-0.972301
H57	H	-3.511020	-0.142221	-0.778484
H58	H	-3.466185	-0.099189	-0.898195
H59	H	-3.522108	-0.181148	-0.928441
C60	C	-4.612211	-0.687460	-0.696736
C61	C	-4.769999	-0.670077	-0.656137
C62	C	-4.989131	-0.715906	-0.756324
H63	H	-4.661339	-0.682986	-0.807107
H64	H	-4.604700	-0.734817	-0.681842
H65	H	-4.777517	-0.622732	-0.671045
H66	H	-4.720947	-0.674555	-0.545783
H67	H	-4.981619	-0.763263	-0.741429
H68	H	-5.038236	-0.711429	-0.866689
H69	H	-5.096212	-0.704123	-0.728781
H70	H	-4.420928	-0.439418	-0.503615
C71	C	-4.475504	-0.097148	-1.051545
C72	C	-4.521386	-0.038862	-0.993655
C73	C	-4.757807	-0.042187	-1.085642
H74	H	-4.517900	-0.096520	-1.162279
H75	H	-4.562364	-0.139567	-1.042451
H76	H	-4.434556	0.003546	-1.002764
H77	H	-4.479044	-0.039478	-0.882932
H78	H	-4.844667	-0.084606	-1.076548
H79	H	-4.800181	-0.041560	-1.196372
H80	H	-4.788972	-0.002645	-1.046367
C81	C	-4.544831	-0.535203	-0.698479
C82	C	-4.495012	-0.499143	-0.806247
C83	C	-4.681546	-0.471935	-0.907469
H84	H	-4.679944	-0.572909	-0.758337
H85	H	-4.570020	-0.503487	-0.634172
H86	H	-4.469852	-0.530856	-0.870546
H87	H	-4.359932	-0.461427	-0.746433
H88	H	-4.706735	-0.440219	-0.843163
H89	H	-4.816646	-0.509645	-0.967317
H90	H	-4.647761	-0.447460	-0.980591
H91	H	-3.816419	-0.640983	-0.304088
C92	C	-3.637719	-0.283133	-0.473962
C93	C	-3.698465	-0.250794	-0.612791
C94	C	-3.497837	-0.210705	-0.605460
H95	H	-3.556386	-0.247847	-0.379855
H96	H	-3.541761	-0.313167	-0.468952
H97	H	-3.794385	-0.220761	-0.617785
H98	H	-3.779770	-0.286063	-0.706919
H99	H	-3.401879	-0.240740	-0.600450
H100	H	-3.416518	-0.175424	-0.511348
H101	H	-3.539024	-0.188764	-0.699659
H102	H	-3.758201	-0.508587	-0.305363
H103	H	-3.948120	-0.876633	-0.470187
H104	H	-3.750212	-0.426436	-0.474456
