data_functionalizedCrystal
_audit_creation_method	'MofGen! by Chris Wilmer'
_symmetry_space_group_name_H-M	'P1'
_symmetry_Int_Tables_number	1
_symmetry_cell_setting	triclinic
loop_
_symmetry_equiv_pos_as_xyz
  x,y,z
_cell_length_a	12.759401
_cell_length_b	16.625546
_cell_length_c	12.759393
_cell_angle_alpha	89.963806
_cell_angle_beta	89.981504
_cell_angle_gamma	90.022629
loop_
_atom_site_label
_atom_site_type_symbol
_atom_site_fract_x
_atom_site_fract_y
_atom_site_fract_z
Zn1	Zn	1.606199	-0.320951	-0.593948
Zn2	Zn	1.606069	-0.455807	-0.418253
Zn3	Zn	1.430501	-0.320993	-0.418287
Zn4	Zn	1.430465	-0.455745	-0.593895
O5	O	1.518308	-0.388374	-0.506096
O6	O	1.753203	-0.338848	-0.570649
O7	O	1.582740	-0.437968	-0.271237
O8	O	1.453876	-0.208155	-0.441625
O9	O	1.753107	-0.437927	-0.441568
O10	O	1.582961	-0.208124	-0.570682
O11	O	1.453751	-0.338920	-0.271261
O12	O	1.283475	-0.338860	-0.441574
O13	O	1.453816	-0.437821	-0.740923
O14	O	1.283449	-0.437862	-0.570592
O15	O	1.582927	-0.338788	-0.740962
O16	O	1.582706	-0.568632	-0.441517
O17	O	1.453691	-0.568586	-0.570560
C18	C	1.245341	-0.388359	-0.506081
C19	C	1.128564	-0.388372	-0.506100
C20	C	1.518209	-0.597865	-0.506052
C21	C	1.518263	-0.687486	-0.506068
C22	C	1.073717	-0.440005	-0.573169
C23	C	0.963992	-0.440015	-0.573180
C24	C	0.963974	-0.336758	-0.439045
C25	C	1.073696	-0.336744	-0.439040
C26	C	1.073726	-0.499623	-0.650608
C27	C	0.964002	-0.499633	-0.650619
C28	C	1.518446	-1.015662	-0.506177
C29	C	1.518392	-0.924353	-0.506150
C30	C	1.518353	-0.851577	-0.506122
C31	C	1.518301	-0.760262	-0.506096
C32	C	1.792342	-0.388390	-0.506111
C33	C	1.909118	-0.388396	-0.506117
C34	C	1.518382	-0.388293	-0.780129
C35	C	1.518413	-0.388258	-0.896906
C36	C	1.518437	-0.178065	-0.506163
C37	C	1.518492	-0.088444	-0.506191
C38	C	1.585650	-0.336687	-0.951790
C39	C	1.585675	-0.336657	-1.061514
C40	C	1.451223	-0.439778	-1.061461
C41	C	1.451194	-0.439803	-0.951739
C42	C	1.663279	-0.277153	-0.951821
C43	C	1.663304	-0.277124	-1.061546
C44	C	1.518296	-0.388397	-0.233128
C45	C	1.518468	-0.388204	-0.116352
H46	H	1.118349	-0.294694	-0.384433
O47	O	0.904796	-0.281094	-0.366691
H48	H	0.819284	-0.289784	-0.377950
H49	H	1.641521	-0.214709	-0.922072
O50	O	1.765629	-0.306790	-0.906718
H51	H	1.819918	-0.322479	-0.971539
O52	O	1.378638	-0.495415	-0.892566
H53	H	1.425585	-0.536466	-0.842546
H54	H	1.634200	-0.217792	-1.095600
O55	O	1.771078	-0.299277	-1.101002
H56	H	1.765804	-0.354627	-1.149310
O57	O	1.113231	-0.477554	-0.758432
H58	H	1.045554	-0.466752	-0.811224
H59	H	1.107730	-0.558911	-0.621317
H60	H	0.930008	-0.477343	-0.727974
H61	H	0.934196	-0.562065	-0.628680
H62	H	1.396493	-0.481742	-1.106119
