data_functionalizedCrystal
_audit_creation_method	'MofGen! by Chris Wilmer'
_symmetry_space_group_name_H-M	'P1'
_symmetry_Int_Tables_number	1
_symmetry_cell_setting	triclinic
loop_
_symmetry_equiv_pos_as_xyz
  x,y,z
_cell_length_a	14.519709
_cell_length_b	15.538191
_cell_length_c	12.996460
_cell_angle_alpha	90.006403
_cell_angle_beta	89.999167
_cell_angle_gamma	114.523881
loop_
_atom_site_label
_atom_site_type_symbol
_atom_site_fract_x
_atom_site_fract_y
_atom_site_fract_z
O1	O	-0.299367	-1.249411	-0.085572
O2	O	0.200633	-0.749411	0.414428
O3	O	-0.192941	-0.975332	-0.085574
O4	O	0.307059	-0.475332	0.414426
O5	O	-0.382836	-1.119638	-0.085564
O6	O	0.117164	-0.619638	0.414436
O7	O	-0.109471	-1.105105	-0.085582
O8	O	0.390529	-0.605105	0.414418
O9	O	-0.382820	-1.119619	0.085570
O10	O	0.117180	-0.619619	0.585570
O11	O	-0.192925	-0.975312	0.085560
O12	O	0.307075	-0.475312	0.585560
O13	O	-0.299351	-1.249392	0.085562
O14	O	0.200649	-0.749392	0.585562
Cu15	Cu	-0.246136	-1.112350	0.101187
Cu16	Cu	0.253864	-0.612350	0.601187
Cu17	Cu	-0.246155	-1.112373	-0.101199
Cu18	Cu	0.253845	-0.612373	0.398801
O19	O	-0.109455	-1.105085	0.085551
O20	O	0.390545	-0.605085	0.585551
C21	C	-0.181798	-0.940245	-0.000007
C22	C	0.318202	-0.440245	0.499993
C23	C	-0.148631	-0.835727	-0.000007
C24	C	0.351369	-0.335727	0.499993
N25	N	-0.246126	-1.112340	0.243534
N26	N	0.253874	-0.612340	0.743534
C27	C	-0.416960	-1.118951	0.000003
C28	C	0.083040	-0.618951	0.500003
C29	C	-0.518659	-1.116921	0.000004
C30	C	-0.018659	-0.616921	0.500004
C31	C	-0.891041	-1.109449	-0.000023
C32	C	-0.391041	-0.609449	0.499977
C33	C	-0.787431	-1.111524	-0.000015
C34	C	-0.287431	-0.611524	0.499985
C35	C	-0.704853	-1.113185	-0.000009
C36	C	-0.204853	-0.613185	0.499991
C37	C	-0.601237	-1.115261	-0.000003
C38	C	-0.101237	-0.615261	0.499997
C39	C	-0.075331	-1.105772	-0.000018
C40	C	0.424669	-0.605772	0.499982
C41	C	0.026368	-1.107802	-0.000025
C42	C	0.526368	-0.607802	0.499975
C43	C	-0.310493	-1.284478	-0.000008
C44	C	0.189507	-0.784478	0.499992
C45	C	-0.343661	-1.388996	-0.000014
C46	C	0.156339	-0.888996	0.499986
C47	C	-0.478139	-0.547382	-0.000001
C48	C	0.021861	-0.047382	0.499999
C49	C	-0.446950	-0.449168	-0.000004
C50	C	0.053050	0.050832	0.499996
C51	C	-0.271519	-0.427021	-0.000016
C52	C	0.228481	0.072979	0.499984
C53	C	-0.302694	-0.525234	-0.000008
C54	C	0.197306	-0.025234	0.499992
C55	C	-0.406005	-0.585407	-0.000002
C56	C	0.093995	-0.085407	0.499998
C57	C	-0.230559	-0.563260	-0.000008
C58	C	0.269441	-0.063260	0.499992
C59	C	-0.261732	-0.661465	-0.000006
C60	C	0.238268	-0.161465	0.499994
C61	C	-0.365038	-0.721644	-0.000003
C62	C	0.134962	-0.221644	0.499997
C63	C	-0.437177	-0.683612	0.000001
C64	C	0.062823	-0.183612	0.500001
C65	C	-0.127249	-0.503085	-0.000022
C66	C	0.372751	-0.003085	0.499978
C67	C	-0.055115	-0.541111	-0.000022
C68	C	0.444885	-0.041111	0.499978
C69	C	-0.086286	-0.639318	-0.000012
C70	C	0.413714	-0.139318	0.499988
C71	C	-0.189593	-0.699497	-0.000009
C72	C	0.310407	-0.199497	0.499991
C73	C	-0.014147	-0.677349	-0.000016
C74	C	0.485853	-0.177349	0.499984
C75	C	-0.045320	-0.775554	-0.000014
C76	C	0.454680	-0.275554	0.499986
C77	C	-0.220765	-0.797702	-0.000007
C78	C	0.279235	-0.297702	0.499993
C79	C	-0.246124	-1.112344	0.336640
C80	C	0.253876	-0.612344	0.836640
C81	C	-0.246132	-1.112352	0.453445
C82	C	0.253868	-0.612352	0.953445
C83	C	-0.246145	-1.112363	0.546543
C84	C	0.253855	-0.612363	1.046543
C85	C	-0.246153	-1.112373	0.663356
C86	C	0.253847	-0.612373	1.163356
N87	N	-0.246166	-1.112384	0.756454
N88	N	0.253834	-0.612384	1.256454
H89	H	-0.304891	-0.846698	0.000004
H90	H	0.195109	-0.346698	0.500004
H91	H	-0.187403	-0.378015	-0.000025
H92	H	0.312597	0.121985	0.499975
C93	C	0.058521	-0.474921	-0.000033
C94	C	0.558521	0.025079	0.499967
H95	H	0.097016	-0.511636	-0.000040
H96	H	0.597016	-0.011636	0.499960
H97	H	0.074336	-0.436138	0.059640
H98	H	0.574336	0.063862	0.559640
H99	H	0.074320	-0.436165	-0.059723
H100	H	0.574320	0.063835	0.440277
H101	H	-0.101872	-0.423121	-0.000027
H102	H	0.398128	0.076879	0.499973
H103	H	-0.505698	-0.418213	-0.000005
H104	H	-0.005698	0.081787	0.499995
H105	H	0.069968	-0.628342	-0.000031
H106	H	0.569968	-0.128342	0.499969
C107	C	0.034025	-0.817386	-0.000014
C108	C	0.534025	-0.317386	0.499986
H109	H	0.100016	-0.767485	-0.000009
H110	H	0.600016	-0.267485	0.499991
H111	H	0.025504	-0.855244	-0.059692
H112	H	0.525504	-0.355244	0.440308
H113	H	0.025513	-0.855228	0.059672
H114	H	0.525513	-0.355228	0.559672
H115	H	-0.521303	-0.732609	0.000012
H116	H	-0.021303	-0.232609	0.500012
C117	C	-0.399336	-0.829668	-0.000002
C118	C	0.100664	-0.329668	0.499998
H119	H	-0.471193	-0.860057	-0.000006
H120	H	0.028807	-0.360057	0.499994
H121	H	-0.373987	-0.847792	0.059673
H122	H	0.126013	-0.347792	0.559673
H123	H	-0.373998	-0.847802	-0.059691
H124	H	0.126002	-0.347802	0.440309
C125	C	-0.591780	-0.613578	0.000001
C126	C	-0.091780	-0.113578	0.500001
H127	H	-0.630281	-0.576868	-0.000005
H128	H	-0.130281	-0.076868	0.499995
H129	H	-0.607584	-0.652346	0.059675
H130	H	-0.107584	-0.152346	0.559675
H131	H	-0.607582	-0.652349	-0.059688
H132	H	-0.107582	-0.152349	0.440312
