data_functionalizedCrystal
_audit_creation_method	'MofGen! by Chris Wilmer'
_symmetry_space_group_name_H-M	'P1'
_symmetry_Int_Tables_number	1
_symmetry_cell_setting	triclinic
loop_
_symmetry_equiv_pos_as_xyz
  x,y,z
_cell_length_a	14.044190
_cell_length_b	10.654551
_cell_length_c	9.130313
_cell_angle_alpha	90.000320
_cell_angle_beta	89.993628
_cell_angle_gamma	88.838524
loop_
_atom_site_label
_atom_site_type_symbol
_atom_site_fract_x
_atom_site_fract_y
_atom_site_fract_z
O1	O	0.133232	1.681226	-0.121799
O2	O	0.145924	1.317024	-0.121808
O3	O	0.001557	1.493654	-0.121775
O4	O	0.277599	1.504596	-0.121832
O5	O	0.001561	1.493652	0.121824
O6	O	0.145928	1.317022	0.121791
O7	O	0.133236	1.681224	0.121800
Cu8	Cu	0.139582	1.499123	0.144038
Cu9	Cu	0.139578	1.499125	-0.144046
O10	O	0.277603	1.504594	0.121767
C11	C	0.144994	1.270131	-0.000009
C12	C	0.142205	1.130408	-0.000011
C13	C	-0.033787	1.488866	0.000029
C14	C	-0.139107	1.474587	0.000041
C15	C	-0.388899	1.549752	-0.000014
C16	C	-0.331936	1.448502	-0.000006
C17	C	-0.224636	1.463019	0.000020
C18	C	-0.496209	1.535237	-0.000041
C19	C	0.138266	0.933479	0.132777
C20	C	0.140895	1.064763	0.132777
C21	C	0.140896	1.064760	-0.132808
C22	C	0.138274	0.933478	-0.132806
C23	C	0.136947	0.867842	0.265574
C24	C	0.138258	0.933480	0.398371
C25	C	0.140886	1.064765	0.398371
C26	C	0.142204	1.130411	0.265574
C27	C	0.312947	1.509382	-0.000040
C28	C	0.418266	1.523661	-0.000062
C29	C	0.134166	1.728117	-0.000002
C30	C	0.136954	1.867841	-0.000010
N31	N	0.139585	1.499130	0.346661
N32	N	0.139567	1.499127	-0.346668
C33	C	0.075681	1.577366	0.423327
C34	C	0.075670	1.577362	0.576664
C35	C	0.203474	1.420882	0.576654
C36	C	0.203480	1.420881	0.423320
C37	C	0.011786	1.655615	0.346668
C38	C	-0.052123	1.733859	0.423335
C39	C	-0.052134	1.733854	0.576671
C40	C	0.011763	1.655606	0.653341
H41	H	-0.363753	1.350916	-0.000017
C42	C	0.273764	1.334824	0.660986
C43	C	0.273887	1.335003	0.829647
C44	C	0.344181	1.248947	0.913976
C45	C	0.414352	1.162711	0.829643
C46	C	0.414232	1.162528	0.660973
C47	C	0.343938	1.248585	0.576644
H48	H	0.221940	1.398843	0.892083
H49	H	0.344270	1.249083	1.038837
H50	H	0.466388	1.099007	0.892069
H51	H	0.466179	1.098689	0.598536
H52	H	0.343849	1.248449	0.451782
C53	C	0.142336	1.136967	-0.278877
C54	C	0.224198	1.113874	-0.388447
C55	C	0.225633	1.186078	-0.534520
C56	C	0.145208	1.281375	-0.571023
C57	C	0.063340	1.304471	-0.461451
C58	C	0.061904	1.232267	-0.315378
H59	H	0.283739	1.043326	-0.361428
H60	H	0.286238	1.168980	-0.615633
H61	H	0.146271	1.334824	-0.679155
H62	H	0.003799	1.375019	-0.488470
H63	H	0.001300	1.249366	-0.234265
C64	C	-0.122409	1.819924	0.339006
C65	C	-0.122395	1.819947	0.170345
C66	C	-0.192685	1.906014	0.086021
C67	C	-0.262988	1.992057	0.170359
C68	C	-0.263005	1.992037	0.339030
C69	C	-0.192716	1.905970	0.423354
H70	H	-0.070349	1.756250	0.107905
H71	H	-0.192672	1.906028	-0.038840
H72	H	-0.315021	2.055768	0.107938
H73	H	-0.315051	2.055734	0.401470
H74	H	-0.192729	1.905956	0.548215
C75	C	0.136824	0.861262	-0.278868
C76	C	0.054956	0.884348	-0.388400
C77	C	0.053509	0.812131	-0.534464
C78	C	0.133930	0.716827	-0.570996
C79	C	0.215804	0.693736	-0.461461
C80	C	0.217251	0.765954	-0.315397
H81	H	-0.004582	0.954902	-0.361360
H82	H	-0.007100	0.829224	-0.615549
H83	H	0.132858	0.663367	-0.679121
H84	H	0.275341	0.623183	-0.488501
H85	H	0.277860	0.748861	-0.234312
H86	H	-0.357084	1.647330	0.000003
H87	H	0.011742	1.655600	0.778199
H88	H	-0.104177	1.797554	0.639092
H89	H	0.134805	0.760943	0.265589
H90	H	0.137192	0.880022	0.506490
H91	H	0.141963	1.118203	0.506501
H92	H	0.144356	1.237311	0.265585
H93	H	0.011791	1.655629	0.221813
H94	H	0.255516	1.357173	0.360898
