data_functionalizedCrystal
_audit_creation_method	'MofGen! by Chris Wilmer'
_symmetry_space_group_name_H-M	'P1'
_symmetry_Int_Tables_number	1
_symmetry_cell_setting	triclinic
loop_
_symmetry_equiv_pos_as_xyz
  x,y,z
_cell_length_a	10.540539
_cell_length_b	14.519709
_cell_length_c	13.596369
_cell_angle_alpha	90.006934
_cell_angle_beta	89.998267
_cell_angle_gamma	95.897182
loop_
_atom_site_label
_atom_site_type_symbol
_atom_site_fract_x
_atom_site_fract_y
_atom_site_fract_z
O1	O	1.684562	-0.129969	-0.081713
O2	O	1.315024	-0.142215	-0.081733
O3	O	1.509591	-0.001906	-0.081713
O4	O	1.489995	-0.270278	-0.081732
O5	O	1.509571	-0.001899	0.081870
O6	O	1.315004	-0.142207	0.081850
O7	O	1.684542	-0.129962	0.081870
Zn8	Zn	1.499770	-0.136083	0.107832
Zn9	Zn	1.499796	-0.136093	-0.107695
O10	O	1.489976	-0.270270	0.081851
C11	C	1.508668	0.032462	0.000078
C12	C	1.505931	0.134858	0.000079
C13	C	1.267720	-0.141293	0.000056
C14	C	1.126800	-0.138545	0.000049
C15	C	1.731846	-0.130884	0.000079
C16	C	1.872766	-0.133631	0.000080
C17	C	2.055118	-0.238911	0.000417
C18	C	1.908528	-0.236126	0.000065
C19	C	1.934912	-0.084310	-0.093336
C20	C	2.081421	-0.087808	-0.093431
C21	C	2.081990	-0.085716	0.092594
C22	C	1.935018	-0.084772	0.093845
C23	C	1.490899	-0.304639	0.000057
C24	C	1.493635	-0.407035	0.000050
N25	N	1.499762	-0.136076	0.254924
C26	C	1.495856	0.509808	0.000052
C27	C	1.498654	0.405485	0.000060
C28	C	1.500893	0.322337	0.000066
C29	C	1.503692	0.218007	0.000072
N30	N	1.499814	-0.136093	-0.254787
C31	C	1.499794	-0.136094	0.656215
C32	C	1.499781	-0.136092	0.544564
C33	C	1.499779	-0.136086	0.455573
C34	C	1.499765	-0.136082	0.343915
H35	H	1.865538	-0.274939	0.067026
H36	H	2.084902	-0.279236	-0.066204
H37	H	1.891917	-0.118554	-0.162850
Cl38	Cl	1.898800	0.030601	0.102574
H39	H	2.109237	-0.124267	-0.163264
Cl40	Cl	2.156087	0.028576	0.093578
H41	H	2.113218	-0.118884	0.163389
Cl42	Cl	1.871265	-0.140411	0.200545
H43	H	1.866363	-0.275209	-0.067010
Cl44	Cl	2.099470	-0.301684	0.103388
H45	H	2.130141	-0.014097	-0.097682
H46	H	1.913326	-0.009041	-0.096800
