data_functionalizedCrystal
_audit_creation_method	'MofGen! by Chris Wilmer'
_symmetry_space_group_name_H-M	'P1'
_symmetry_Int_Tables_number	1
_symmetry_cell_setting	triclinic
loop_
_symmetry_equiv_pos_as_xyz
  x,y,z
_cell_length_a	10.654550
_cell_length_b	14.044220
_cell_length_c	9.730223
_cell_angle_alpha	89.997406
_cell_angle_beta	89.996251
_cell_angle_gamma	88.836890
loop_
_atom_site_label
_atom_site_type_symbol
_atom_site_fract_x
_atom_site_fract_y
_atom_site_fract_z
O1	O	1.681222	0.133227	-0.114408
O2	O	1.317019	0.145921	-0.114387
O3	O	1.493654	0.001554	-0.114384
O4	O	1.504587	0.277595	-0.114411
O5	O	1.493652	0.001557	0.114196
O6	O	1.317017	0.145925	0.114193
O7	O	1.681220	0.133231	0.114172
Zn8	Zn	1.499118	0.139578	0.150474
Zn9	Zn	1.499121	0.139574	-0.150689
O10	O	1.504585	0.277598	0.114169
C11	C	1.270127	0.144991	-0.000094
C12	C	1.130403	0.142202	-0.000085
C13	C	1.488867	-0.033790	-0.000093
C14	C	1.474592	-0.139110	-0.000090
C15	C	1.059459	0.227203	-0.000114
C16	C	0.928175	0.224578	-0.000137
C17	C	0.938790	0.051942	-0.000109
C18	C	1.070072	0.054569	-0.000076
C19	C	1.053329	0.326873	-0.000136
C20	C	0.922045	0.324247	-0.000159
C21	C	1.448493	-0.331943	-0.000108
C22	C	1.549741	-0.388911	-0.000119
C23	C	1.535219	-0.496210	-0.000129
C24	C	1.463013	-0.224634	-0.000098
C25	C	1.728113	0.134161	-0.000124
C26	C	1.867836	0.136950	-0.000142
C27	C	1.509372	0.312942	-0.000125
C28	C	1.523648	0.418262	-0.000137
N29	N	1.499126	0.139581	0.356011
N30	N	1.499123	0.139563	-0.356226
C31	C	1.577364	0.075677	0.427938
C32	C	1.577359	0.075666	0.571821
C33	C	1.420876	0.203470	0.571837
C34	C	1.420875	0.203477	0.427956
C35	C	1.667713	0.001893	0.427931
C36	C	1.667708	0.001881	0.571814
H37	H	1.127830	-0.014647	-0.000033
H38	H	1.647328	-0.357098	-0.000217
O39	O	0.879982	-0.033099	-0.000169
C40	C	0.682440	-0.113657	-0.000116
C41	C	0.748874	-0.017282	-0.000078
H42	H	0.576429	-0.100902	-0.000013
H43	H	0.710799	-0.155725	-0.095787
H44	H	0.710923	-0.155701	0.095533
H45	H	0.720425	0.024840	-0.095662
H46	H	0.720514	0.024713	0.095657
O47	O	1.332169	-0.370043	-0.000035
C48	C	1.211462	-0.513293	-0.000103
C49	C	1.343268	-0.470256	-0.000162
H50	H	1.220391	-0.594321	-0.000235
H51	H	1.158196	-0.488773	0.095590
H52	H	1.158213	-0.488636	-0.095730
H53	H	1.396622	-0.494894	0.095400
H54	H	1.396439	-0.494773	-0.095919
H55	H	1.357156	0.255504	0.369394
O56	O	1.344686	0.265441	0.641668
C57	C	1.132384	0.319516	0.685641
C58	C	1.218524	0.249264	0.606501
H59	H	1.030366	0.306475	0.657216
H60	H	1.145710	0.308532	0.800849
H61	H	1.157324	0.395604	0.657376
H62	H	1.193637	0.173149	0.634651
H63	H	1.205184	0.260331	0.491313
H64	H	1.761218	0.024996	0.383296
H65	H	1.638943	-0.071017	0.388885
O66	O	1.623109	-0.080400	0.624836
C67	C	1.539149	-0.234954	0.577083
C68	C	1.589636	-0.141825	0.516849
H69	H	1.512047	-0.284633	0.489805
H70	H	1.614838	-0.270912	0.642954
H71	H	1.453094	-0.218226	0.643098
H72	H	1.675671	-0.158470	0.450772
H73	H	1.513869	-0.105893	0.451056
O74	O	1.784878	0.021150	0.618245
C75	C	2.003180	-0.027077	0.622681
C76	C	1.870565	-0.048995	0.569976
H77	H	2.072490	-0.083787	0.583701
H78	H	2.032077	0.045804	0.583614
H79	H	2.003129	-0.027052	0.739844
H80	H	1.870515	-0.049071	0.452818
H81	H	1.841722	-0.121861	0.609147
O82	O	1.092795	0.373363	0.114085
C83	C	1.032797	0.455541	0.322076
C84	C	0.987932	0.402897	0.192800
H85	H	0.948038	0.479452	0.385738
H86	H	1.095257	0.405745	0.385978
H87	H	1.088321	0.520465	0.290161
H88	H	0.932355	0.337975	0.224592
H89	H	0.925536	0.452758	0.128930
H90	H	1.092175	0.358608	-0.098826
H91	H	0.879400	0.354370	0.098522
H92	H	0.884087	0.361800	-0.095831
