data_functionalizedCrystal
_audit_creation_method	'MofGen! by Chris Wilmer'
_symmetry_space_group_name_H-M	'P1'
_symmetry_Int_Tables_number	1
_symmetry_cell_setting	triclinic
loop_
_symmetry_equiv_pos_as_xyz
  x,y,z
_cell_length_a	19.288840
_cell_length_b	17.699092
_cell_length_c	17.766277
_cell_angle_alpha	89.995315
_cell_angle_beta	89.983415
_cell_angle_gamma	83.206192
loop_
_atom_site_label
_atom_site_type_symbol
_atom_site_fract_x
_atom_site_fract_y
_atom_site_fract_z
O1	O	0.921478	0.094327	-0.062717
O2	O	0.719231	0.107083	-0.062691
O3	O	0.826066	-0.009492	-0.062703
O4	O	0.814644	0.210902	-0.062705
O5	O	0.826047	-0.009498	0.062486
O6	O	0.719212	0.107077	0.062498
O7	O	0.921460	0.094321	0.062471
Cu8	Cu	0.820334	0.100698	0.073915
Cu9	Cu	0.820356	0.100705	-0.074135
O10	O	0.814625	0.210896	0.062484
C11	C	0.693344	0.106673	-0.000093
C12	C	0.616238	0.105450	-0.000083
C13	C	0.580044	0.104866	-0.068325
C14	C	0.507596	0.103709	-0.068334
C15	C	0.471346	0.103120	-0.000098
C16	C	0.507548	0.103709	0.068154
C17	C	0.579994	0.104874	0.068161
C18	C	0.361955	0.056941	0.052171
C19	C	0.289511	0.055771	0.052161
C20	C	0.247898	0.099531	-0.000117
C21	C	0.278740	0.144451	-0.052398
C22	C	0.351186	0.145615	-0.052391
C23	C	0.392791	0.101858	-0.000098
C24	C	0.133147	0.097693	-0.068374
C25	C	0.060697	0.096541	-0.068380
C26	C	0.060652	0.096533	0.068110
C27	C	0.133100	0.097693	0.068114
C28	C	0.169344	0.098270	-0.000130
C29	C	0.825646	-0.037692	-0.000110
C30	C	0.824415	-0.121708	-0.000113
C31	C	0.823849	-0.161171	-0.068354
C32	C	0.822688	-0.240112	-0.068355
C33	C	0.822098	-0.279589	-0.000114
C34	C	0.822663	-0.240120	0.068132
C35	C	0.823819	-0.161180	0.068132
C36	C	0.818000	-0.558478	0.068134
C37	C	0.816847	-0.637424	0.068129
C38	C	0.816870	-0.637411	-0.068353
C39	C	0.818025	-0.558470	-0.068353
C40	C	0.818586	-0.519007	-0.000107
C41	C	0.819844	-0.433410	-0.000107
C42	C	0.820846	-0.365186	-0.000113
C43	C	0.947346	0.094731	-0.000128
C44	C	1.024452	0.095954	-0.000143
C45	C	0.815044	0.239096	-0.000111
C46	C	0.816275	0.323111	-0.000113
N47	N	0.820324	0.100693	0.178046
N48	N	0.820372	0.100705	-0.178265
C49	C	0.867645	0.049099	0.217427
C50	C	0.867649	0.049095	0.296229
C51	C	0.820338	0.100699	0.335646
C52	C	0.773008	0.152297	0.296255
C53	C	0.773000	0.152294	0.217455
C54	C	0.811123	0.169661	0.460484
C55	C	0.811135	0.169665	0.539283
C56	C	0.820357	0.100708	0.578693
C57	C	0.829581	0.031744	0.539293
C58	C	0.829574	0.031741	0.460493
C59	C	0.820341	0.100708	0.421092
C60	C	0.867685	0.049106	0.703520
C61	C	0.867685	0.049101	0.782323
C62	C	0.773046	0.152310	0.782348
C63	C	0.773044	0.152308	0.703546
C64	C	0.820367	0.100707	0.664137
H65	H	0.376294	0.182192	-0.094958
C66	C	0.824442	-0.117766	0.143195
H67	H	0.825207	-0.065098	0.133422
H68	H	0.864735	-0.136616	0.171234
H69	H	0.783752	-0.124793	0.171236
C70	C	0.020880	0.095901	-0.143449
H71	H	-0.027459	0.095135	-0.133681
H72	H	0.038137	0.051965	-0.171486
H73	H	0.027387	0.140224	-0.171488
C74	C	0.824497	-0.117753	-0.143421
H75	H	0.823987	-0.152564	-0.184062
H76	H	0.865437	-0.092870	-0.146265
H77	H	0.784453	-0.081046	-0.146251
H78	H	0.478029	0.103232	0.123712
C79	C	0.255589	0.006349	0.109652
H80	H	0.206486	0.011910	0.102152
H81	H	0.265538	0.022116	0.159199
H82	H	0.273813	-0.045481	0.103060
C83	C	0.839730	-0.044115	0.582629
H84	H	0.845229	-0.085185	0.547879
H85	H	0.800055	-0.048206	0.613387
H86	H	0.880184	-0.045757	0.613351
H87	H	0.162657	0.098171	-0.123942
H88	H	0.803601	0.225818	0.428404
C89	C	0.720997	0.209071	0.660224
H90	H	0.692824	0.239809	0.694984
H91	H	0.692128	0.181929	0.629498
H92	H	0.745932	0.240507	0.629473
H93	H	0.906177	0.007080	0.185342
H94	H	0.031138	0.096059	0.123669
H95	H	0.162570	0.098164	0.123684
H96	H	0.395830	0.021305	0.094746
C97	C	0.816258	-0.680819	-0.143426
H98	H	0.816787	-0.646002	-0.184066
H99	H	0.775322	-0.705706	-0.146271
H100	H	0.856306	-0.717522	-0.146257
H101	H	0.818471	-0.526359	0.123704
C102	C	0.818677	-0.515046	-0.143416
H103	H	0.819453	-0.462381	-0.133642
H104	H	0.778004	-0.522067	-0.171453
H105	H	0.858987	-0.533896	-0.171458
H106	H	0.734522	0.194324	0.814441
H107	H	0.803628	0.225820	0.571356
H108	H	0.734485	0.194313	0.328353
C109	C	0.919706	-0.007660	0.339558
H110	H	0.947891	-0.038389	0.304801
H111	H	0.894781	-0.039094	0.370315
H112	H	0.948574	0.019496	0.370280
C113	C	0.232976	0.192592	-0.109905
H114	H	0.185411	0.185474	-0.102418
H115	H	0.246762	0.177200	-0.159446
H116	H	0.238510	0.244806	-0.103317
H117	H	0.734464	0.194310	0.185390
H118	H	0.816365	-0.669564	0.123702
H119	H	0.822230	-0.272240	-0.123924
C120	C	0.822017	-0.283543	0.143196
H121	H	0.821255	-0.336211	0.133424
H122	H	0.781714	-0.264697	0.171244
H123	H	0.862697	-0.276519	0.171227
H124	H	0.609463	0.105350	0.123734
H125	H	0.837083	-0.024412	0.428418
C126	C	0.919743	-0.007654	0.825643
H127	H	0.947928	-0.038379	0.790883
H128	H	0.894819	-0.039093	0.856397
H129	H	0.948609	0.019500	0.856367
C130	C	0.619909	0.105517	-0.143388
H131	H	0.668241	0.106292	-0.133613
H132	H	0.602663	0.149456	-0.171425
H133	H	0.613428	0.061196	-0.171432
C134	C	0.467773	0.103073	-0.143404
H135	H	0.499735	0.103583	-0.184045
H136	H	0.434136	0.146747	-0.146240
H137	H	0.444890	0.058488	-0.146242
C138	C	0.919727	-0.007660	0.660163
H139	H	0.912951	-0.000267	0.607592
H140	H	0.912268	-0.058151	0.673086
H141	H	0.966072	0.000427	0.673057
