data_functionalizedCrystal
_audit_creation_method	'MofGen! by Chris Wilmer'
_symmetry_space_group_name_H-M	'P1'
_symmetry_Int_Tables_number	1
_symmetry_cell_setting	triclinic
loop_
_symmetry_equiv_pos_as_xyz
  x,y,z
_cell_length_a	12.759395
_cell_length_b	16.120484
_cell_length_c	12.759387
_cell_angle_alpha	92.863576
_cell_angle_beta	89.979491
_cell_angle_gamma	92.926975
loop_
_atom_site_label
_atom_site_type_symbol
_atom_site_fract_x
_atom_site_fract_y
_atom_site_fract_z
Zn1	Zn	1.584987	-0.331828	-0.615167
Zn2	Zn	2.084987	0.168172	-0.115167
Zn3	Zn	1.575935	-0.471265	-0.448379
Zn4	Zn	2.075935	0.028735	0.051621
Zn5	Zn	1.409282	-0.331874	-0.439506
Zn6	Zn	1.909282	0.168126	0.060494
Zn7	Zn	1.400339	-0.471205	-0.624015
Zn8	Zn	1.900339	0.028795	-0.124015
O9	O	1.492636	-0.401543	-0.531767
O10	O	1.992636	0.098457	-0.031767
O11	O	1.730807	-0.350331	-0.593052
O12	O	2.230807	0.149669	-0.093052
O13	O	1.553783	-0.452818	-0.300184
O14	O	2.053783	0.047182	0.199816
O15	O	1.440121	-0.215202	-0.455392
O16	O	1.940121	0.284798	0.044608
O17	O	1.724157	-0.452774	-0.470514
O18	O	2.224157	0.047226	0.029486
O19	O	1.569211	-0.215169	-0.584449
O20	O	2.069211	0.284831	-0.084449
O21	O	1.431344	-0.350408	-0.293665
O22	O	1.931344	0.149592	0.206335
O23	O	1.261075	-0.350350	-0.463971
O24	O	1.761075	0.149650	0.036029
O25	O	1.424878	-0.452673	-0.769859
O26	O	1.924878	0.047327	-0.269859
O27	O	1.254504	-0.452717	-0.599529
O28	O	1.754504	0.047283	-0.099529
O29	O	1.560539	-0.350273	-0.763359
O30	O	2.060539	0.149727	-0.263359
O31	O	1.545111	-0.587922	-0.479094
O32	O	2.045111	-0.087922	0.020906
O33	O	1.416101	-0.587879	-0.608132
O34	O	1.916101	-0.087879	-0.108132
C35	C	1.219669	-0.401533	-0.531748
C36	C	1.719669	0.098467	-0.031748
C37	C	1.102891	-0.401549	-0.531766
C38	C	1.602891	0.098451	-0.031766
C39	C	1.096077	-0.508315	-0.672716
C40	C	1.596077	-0.008315	-0.172716
C41	C	1.037808	-0.561705	-0.743194
C42	C	1.537808	-0.061705	-0.243194
C43	C	0.928086	-0.561715	-0.743207
C44	C	1.428086	-0.061715	-0.243207
C45	C	0.876630	-0.508328	-0.672737
C46	C	1.376630	-0.008328	-0.172737
C47	C	0.934899	-0.454938	-0.602259
C48	C	1.434899	0.045062	-0.102259
C49	C	1.044623	-0.454935	-0.602251
C50	C	1.544623	0.045065	-0.102251
C51	C	0.941713	-0.348169	-0.461316
C52	C	1.441713	0.151831	0.038684
C53	C	1.051436	-0.348161	-0.461296
C54	C	1.551436	0.151839	0.038704
C55	C	0.890258	-0.294781	-0.390846
C56	C	1.390258	0.205219	0.109154
C57	C	0.948526	-0.241394	-0.320361
C58	C	1.448526	0.258606	0.179639
C59	C	1.058255	-0.241387	-0.320350
C60	C	1.558255	0.258613	0.179650
C61	C	1.109704	-0.294771	-0.390818
C62	C	1.609704	0.205229	0.109182
C63	C	1.478681	-0.618150	-0.545559
C64	C	1.978681	-0.118150	-0.045559
C65	C	1.472808	-0.710816	-0.551495
C66	C	1.972808	-0.210816	-0.051495
C67	C	1.462090	-0.880477	-0.562353
C68	C	1.962090	-0.380477	-0.062353
C69	C	1.523370	-0.921768	-0.501198
C70	C	2.023370	-0.421768	-0.001198
C71	C	1.517406	-1.016173	-0.507239
C72	C	2.017406	-0.516173	-0.007239
C73	C	1.468052	-0.786063	-0.556313
C74	C	1.968052	-0.286063	-0.056313
C75	C	1.766669	-0.401554	-0.531786
C76	C	2.266669	0.098446	-0.031786
C77	C	1.883445	-0.401558	-0.531794
C78	C	2.383445	0.098442	-0.031794
C79	C	1.492720	-0.401461	-0.805795
C80	C	1.992720	0.098539	-0.305795
C81	C	1.492756	-0.401426	-0.922570
C82	C	1.992756	0.098574	-0.422570
C83	C	1.506673	-0.184090	-0.517944
C84	C	2.006673	0.315910	-0.017944
C85	C	1.512655	-0.091424	-0.512053
C86	C	2.012655	0.408576	-0.012053
C87	C	1.634028	-0.294805	-0.915821
C88	C	2.134028	0.205195	-0.415821
C89	C	1.704680	-0.241481	-0.967306
C90	C	2.204680	0.258519	-0.467306
C91	C	1.704707	-0.241451	-1.077026
C92	C	2.204707	0.258549	-0.577026
C93	C	1.634074	-0.294748	-1.135263
C94	C	2.134074	0.205252	-0.635263
C95	C	1.563422	-0.348071	-1.083777
C96	C	2.063422	0.151929	-0.583777
C97	C	1.563404	-0.348098	-0.974055
C98	C	2.063404	0.151902	-0.474055
C99	C	1.422147	-0.454688	-1.090526
C100	C	1.922147	0.045312	-0.590526
C101	C	1.422123	-0.454723	-0.980807
C102	C	1.922123	0.045277	-0.480807
C103	C	1.351514	-0.507985	-1.148763
C104	C	1.851514	-0.007985	-0.648763
C105	C	1.280866	-0.561313	-1.097278
C106	C	1.780866	-0.061313	-0.597278
C107	C	1.280842	-0.561342	-0.987551
C108	C	1.780842	-0.061342	-0.487551
C109	C	1.351472	-0.508047	-0.929321
C110	C	1.851472	-0.008047	-0.429321
C111	C	1.492616	-0.401564	-0.258801
C112	C	1.992616	0.098436	0.241199
C113	C	1.492798	-0.401364	-0.142012
C114	C	1.992798	0.098636	0.357988
H115	H	1.185418	-0.508318	-0.672704
H116	H	1.685418	-0.008318	-0.172704
Br117	Br	1.107644	-0.634160	-0.838822
Br118	Br	1.607644	-0.134160	-0.338822
H119	H	0.906622	-0.197927	-0.262995
H120	H	1.406622	0.302073	0.237005
Br121	Br	1.351452	-0.508087	-0.780414
Br122	Br	1.851452	-0.008087	-0.280414
H123	H	1.634022	-0.294832	-0.826481
H124	H	2.134022	0.205168	-0.326481
H125	H	1.762231	-0.198025	-1.118945
H126	H	2.262231	0.301975	-0.618945
Br127	Br	1.618275	-0.862520	-0.406367
Br128	Br	2.118275	-0.362520	0.093633
Br129	Br	1.634100	-0.294695	-1.284169
Br130	Br	2.134100	0.205305	-0.784169
Br131	Br	1.137325	-0.168918	-0.224703
Br132	Br	1.637325	0.331082	0.275297
H133	H	1.199045	-0.294773	-0.390812
H134	H	1.699045	0.205227	0.109188
H135	H	1.351537	-0.507953	-1.238102
H136	H	1.851537	-0.007953	-0.738102
Br137	Br	1.184944	-0.633707	-0.917687
Br138	Br	1.684944	-0.133707	-0.417687
H139	H	1.762186	-0.198086	-0.919878
H140	H	2.262186	0.301914	-0.419878
Br141	Br	0.849003	-0.634165	-0.838865
Br142	Br	1.349003	-0.134165	-0.338865
Br143	Br	1.367188	-0.939726	-0.657174
Br144	Br	1.867188	-0.439726	-0.157174
Br145	Br	0.741348	-0.294787	-0.390871
Br146	Br	1.241348	0.205213	0.109129
Br147	Br	1.185008	-0.633630	-1.176316
Br148	Br	1.685008	-0.133630	-0.676316
H149	H	0.787289	-0.508334	-0.672763
H150	H	1.287289	-0.008334	-0.172763
