data_functionalizedCrystal
_audit_creation_method	'MofGen! by Chris Wilmer'
_symmetry_space_group_name_H-M	'P1'
_symmetry_Int_Tables_number	1
_symmetry_cell_setting	triclinic
loop_
_symmetry_equiv_pos_as_xyz
  x,y,z
_cell_length_a	6.817900
_cell_length_b	11.102288
_cell_length_c	19.453114
_cell_angle_alpha	94.505586
_cell_angle_beta	101.709288
_cell_angle_gamma	108.605689
loop_
_atom_site_label
_atom_site_type_symbol
_atom_site_fract_x
_atom_site_fract_y
_atom_site_fract_z
V1	V	-4.033154	-0.177162	-0.218999
O2	O	-3.993679	0.007152	-0.214830
O3	O	-4.010467	-0.349974	-0.217501
O4	O	-3.975753	-0.175035	-0.314512
O5	O	-4.028634	-0.168998	-0.117148
V6	V	-4.514617	-0.155046	-0.206817
O7	O	-4.298932	-0.225677	-0.245722
O8	O	-4.699036	-0.106531	-0.180094
O9	O	-4.314097	0.017766	-0.208315
O10	O	-4.671489	-0.339360	-0.210986
O11	O	-4.636534	-0.163210	-0.308668
O12	O	-4.348812	-0.157173	-0.111304
C13	C	-3.862015	-0.392083	-0.214047
C14	C	-3.924692	-0.533362	-0.213459
C15	C	-3.817732	-0.168929	-0.337792
C16	C	-3.852253	-0.168333	-0.415875
C17	C	-4.136892	-0.606230	-0.216687
C18	C	-4.195775	-0.738978	-0.216140
C19	C	-3.830237	-0.725977	-0.209134
C20	C	-3.771359	-0.593233	-0.209686
C21	C	-4.051203	-0.174432	-0.456132
C22	C	-4.083640	-0.173872	-0.529499
C23	C	-3.917128	-0.167238	-0.562608
C24	C	-3.718147	-0.161131	-0.522341
C25	C	-3.685710	-0.161678	-0.448974
N26	N	-3.867372	-0.234355	-0.681397
N27	N	-3.898200	-0.233839	-0.751092
C28	C	-4.014849	-0.165586	-0.783656
N29	N	-4.099543	-0.097887	-0.743893
N30	N	-4.068721	-0.098410	-0.674192
C31	C	-3.952281	-0.166643	-0.642161
C32	C	-4.248982	-0.171077	-0.903466
C33	C	-4.281408	-0.170509	-0.976833
C34	C	-3.915916	-0.157781	-0.969674
C35	C	-3.883489	-0.158336	-0.896308
C36	C	-4.050033	-0.164990	-0.863208
C37	C	-4.125893	0.059868	-0.211767
C38	C	-4.042453	0.201146	-0.212360
C39	C	-4.170176	-0.163283	-0.088020
C40	C	-4.114892	-0.163873	-0.009937
H41	H	-4.261749	-0.557487	-0.219758
C42	C	-4.476572	-0.067460	-1.054029
C43	C	-4.500108	-0.177208	-1.021088
H44	H	-4.611594	-0.071596	-1.081347
H45	H	-4.382052	-0.063429	-1.084241
H46	H	-4.420139	0.007073	-1.018836
H47	H	-4.556527	-0.251742	-1.056281
H48	H	-4.594662	-0.181253	-0.990874
C49	C	-3.518799	-0.383969	-0.207420
C50	C	-3.538088	-0.513124	-0.206135
H51	H	-3.374795	-0.334517	-0.205233
H52	H	-3.560473	-0.353038	-0.167803
H53	H	-3.608025	-0.376761	-0.250104
H54	H	-3.448873	-0.520333	-0.163448
H55	H	-3.496388	-0.544064	-0.245755
H56	H	-4.368565	-0.798302	-0.218770
H57	H	-4.245657	-0.178846	-0.562283
C58	C	-3.758179	-0.923691	-0.205169
C59	C	-3.661697	-0.791790	-0.204977
H60	H	-3.654118	-0.964314	-0.202597
H61	H	-3.866670	-0.959970	-0.247666
H62	H	-3.819152	-0.936241	-0.165366
H63	H	-3.600737	-0.779239	-0.244783
H64	H	-3.553167	-0.755501	-0.162476
H65	H	-3.721491	-0.153383	-0.863531
H66	H	-4.186816	-0.179845	-0.429187
C67	C	-3.383850	-0.045168	-0.352836
C68	C	-3.467052	-0.155033	-0.404711
H69	H	-3.248867	-0.041081	-0.325511
H70	H	-3.478400	-0.049199	-0.322636
H71	H	-3.367825	0.029289	-0.375186
H72	H	-3.483092	-0.229491	-0.382361
H73	H	-3.372479	-0.151013	-0.434916
C74	C	-3.605602	-0.154661	-0.631631
C75	C	-3.535115	-0.153845	-0.558731
H76	H	-3.492599	-0.150166	-0.654095
H77	H	-3.649796	-0.082697	-0.638708
H78	H	-3.722198	-0.231689	-0.651529
H79	H	-3.418529	-0.076812	-0.538831
H80	H	-3.490891	-0.225816	-0.551649
C81	C	-4.603883	-0.291906	-0.896435
C82	C	-4.432029	-0.178375	-0.867076
H83	H	-4.716890	-0.296405	-0.873973
H84	H	-4.559676	-0.363865	-0.889354
H85	H	-4.651652	-0.292431	-0.945891
H86	H	-4.384249	-0.177855	-0.817621
H87	H	-4.476241	-0.106398	-0.874151
H88	H	-3.780333	-0.152368	-0.996630
