data_functionalizedCrystal
_audit_creation_method	'MofGen! by Chris Wilmer'
_symmetry_space_group_name_H-M	'P1'
_symmetry_Int_Tables_number	1
_symmetry_cell_setting	triclinic
loop_
_symmetry_equiv_pos_as_xyz
  x,y,z
_cell_length_a	10.654562
_cell_length_b	11.792241
_cell_length_c	9.130313
_cell_angle_alpha	89.999474
_cell_angle_beta	89.996821
_cell_angle_gamma	84.341760
loop_
_atom_site_label
_atom_site_type_symbol
_atom_site_fract_x
_atom_site_fract_y
_atom_site_fract_z
O1	O	1.667374	0.159482	-0.121896
O2	O	1.301855	0.174655	-0.121878
O3	O	1.493484	0.001919	-0.121877
O4	O	1.475744	0.332218	-0.121897
O5	O	1.493481	0.001927	0.121721
O6	O	1.301852	0.174663	0.121721
O7	O	1.667371	0.159490	0.121702
Cu8	Cu	1.484611	0.167077	0.143954
Cu9	Cu	1.484615	0.167068	-0.144130
O10	O	1.475741	0.332226	0.121702
C11	C	1.255059	0.173542	-0.000076
C12	C	1.115626	0.170200	-0.000069
C13	C	1.050098	0.168645	0.132705
C14	C	0.919084	0.165514	0.132681
C15	C	0.919138	0.165497	-0.132904
C16	C	1.050150	0.168620	-0.132878
C17	C	1.115573	0.170225	0.265514
C18	C	1.050045	0.168671	0.398299
C19	C	0.919032	0.165540	0.398275
C20	C	0.853547	0.163962	0.265465
C21	C	1.492369	-0.040371	-0.000078
C22	C	1.489033	-0.166392	-0.000080
C23	C	1.482900	-0.397119	-0.000104
C24	C	1.486308	-0.268726	-0.000091
C25	C	1.714167	0.160603	-0.000103
C26	C	1.853600	0.163945	-0.000119
N27	N	1.484618	0.167083	0.346577
C28	C	1.476857	0.374516	-0.000101
C29	C	1.480192	0.500537	-0.000109
C30	C	1.569493	0.090622	0.423229
C31	C	1.569489	0.090610	0.576566
C32	C	1.399731	0.243530	0.576585
C33	C	1.399729	0.243535	0.423250
C34	C	1.654381	0.014170	0.346555
C35	C	1.739264	-0.062296	0.423208
C36	C	1.739260	-0.062308	0.576544
C37	C	1.654373	0.014146	0.653229
N38	N	1.484615	0.167066	0.653248
H39	H	0.746867	0.161409	0.265456
Cl40	Cl	0.836813	0.163505	-0.299852
Cl41	Cl	1.132534	0.170572	-0.299798
H42	H	1.654394	0.014175	0.221701
Cl43	Cl	1.293021	0.339657	0.326885
Cl44	Cl	1.845962	-0.158414	0.326809
Cl45	Cl	1.845957	-0.158442	0.672906
Cl46	Cl	1.293027	0.339640	0.672988
Cl47	Cl	1.132368	0.170642	0.565249
Cl48	Cl	1.280274	0.174169	0.265554
Cl49	Cl	0.836658	0.163579	0.565201
Cl50	Cl	1.654364	0.014117	0.845997
