data_functionalizedCrystal
_audit_creation_method	'MofGen! by Chris Wilmer'
_symmetry_space_group_name_H-M	'P1'
_symmetry_Int_Tables_number	1
_symmetry_cell_setting	triclinic
loop_
_symmetry_equiv_pos_as_xyz
  x,y,z
_cell_length_a	14.519709
_cell_length_b	16.109301
_cell_length_c	14.586319
_cell_angle_alpha	90.005214
_cell_angle_beta	89.997892
_cell_angle_gamma	83.570813
loop_
_atom_site_label
_atom_site_type_symbol
_atom_site_fract_x
_atom_site_fract_y
_atom_site_fract_z
O1	O	-1.223634	-0.108984	-0.076124
O2	O	-0.973634	0.141016	0.173876
O3	O	-0.723634	0.391016	0.423876
O4	O	-0.473634	0.641016	0.673876
O5	O	-0.955130	-0.121819	-0.076152
O6	O	-0.705130	0.128181	0.173848
O7	O	-0.455130	0.378181	0.423848
O8	O	-0.205130	0.628181	0.673848
O9	O	-1.096758	0.005617	-0.076128
O10	O	-0.846758	0.255617	0.173872
O11	O	-0.596758	0.505617	0.423872
O12	O	-0.346758	0.755617	0.673872
O13	O	-1.082006	-0.236420	-0.076148
O14	O	-0.832006	0.013580	0.173852
O15	O	-0.582006	0.263580	0.423852
O16	O	-0.332006	0.513580	0.673852
O17	O	-1.096748	0.005618	0.076353
O18	O	-0.846748	0.255618	0.326353
O19	O	-0.596748	0.505618	0.576353
O20	O	-0.346748	0.755618	0.826353
O21	O	-0.955120	-0.121817	0.076328
O22	O	-0.705120	0.128183	0.326328
O23	O	-0.455120	0.378183	0.576328
O24	O	-0.205120	0.628183	0.826328
O25	O	-1.223624	-0.108983	0.076357
O26	O	-0.973624	0.141017	0.326357
O27	O	-0.723624	0.391017	0.576357
O28	O	-0.473624	0.641017	0.826357
Cu29	Cu	-1.089371	-0.115400	0.090265
Cu30	Cu	-0.839371	0.134600	0.340265
Cu31	Cu	-0.589371	0.384600	0.590265
Cu32	Cu	-0.339371	0.634600	0.840265
Cu33	Cu	-1.089383	-0.115402	-0.090061
Cu34	Cu	-0.839383	0.134598	0.159939
Cu35	Cu	-0.589383	0.384598	0.409939
Cu36	Cu	-0.339383	0.634598	0.659939
O37	O	-1.081996	-0.236418	0.076333
O38	O	-0.831996	0.013582	0.326333
O39	O	-0.581996	0.263582	0.576333
O40	O	-0.331996	0.513582	0.826333
C41	C	-0.920766	-0.121220	0.000085
C42	C	-0.670766	0.128780	0.250085
C43	C	-0.420766	0.378780	0.500085
C44	C	-0.170766	0.628780	0.750085
C45	C	-0.818389	-0.119427	0.000074
C46	C	-0.568389	0.130573	0.250074
C47	C	-0.318389	0.380573	0.500074
C48	C	-0.068389	0.630573	0.750074
C49	C	-1.096156	0.036593	0.000113
C50	C	-0.846156	0.286593	0.250113
C51	C	-0.596156	0.536593	0.500113
C52	C	-0.346156	0.786593	0.750113
C53	C	-1.094364	0.128892	0.000114
C54	C	-0.844364	0.378892	0.250114
C55	C	-0.594364	0.628892	0.500114
C56	C	-0.344364	0.878892	0.750114
C57	C	-1.257988	-0.109582	0.000118
C58	C	-1.007988	0.140418	0.250118
C59	C	-0.757988	0.390418	0.500118
C60	C	-0.507988	0.640418	0.750118
C61	C	-1.360365	-0.111374	0.000122
C62	C	-1.110365	0.138626	0.250122
C63	C	-0.860365	0.388626	0.500122
C64	C	-0.610365	0.638626	0.750122
C65	C	-0.443507	-0.112829	0.000116
C66	C	-0.193507	0.137171	0.250116
C67	C	0.056493	0.387171	0.500116
C68	C	0.306493	0.637171	0.750116
C69	C	-0.547811	-0.114661	0.000104
C70	C	-0.297811	0.135339	0.250104
C71	C	-0.047811	0.385339	0.500104
C72	C	0.202189	0.635339	0.750104
C73	C	-0.630945	-0.116128	0.000094
C74	C	-0.380945	0.133872	0.250094
C75	C	-0.130945	0.383872	0.500094
C76	C	0.119055	0.633872	0.750094
C77	C	-0.735256	-0.117961	0.000084
C78	C	-0.485256	0.132039	0.250084
C79	C	-0.235256	0.382039	0.500084
C80	C	0.014744	0.632039	0.750084
C81	C	-1.082599	-0.267395	0.000090
C82	C	-0.832599	-0.017395	0.250090
C83	C	-0.582599	0.232605	0.500090
C84	C	-0.332599	0.482605	0.750090
C85	C	-1.084390	-0.359693	0.000083
C86	C	-0.834390	-0.109693	0.250083
C87	C	-0.584390	0.140307	0.500083
C88	C	-0.334390	0.390307	0.750083
N89	N	-1.089370	-0.115397	0.217097
N90	N	-0.839370	0.134603	0.467097
N91	N	-0.589370	0.384603	0.717097
N92	N	-0.339370	0.634603	0.967097
C93	C	-1.174238	0.351026	0.000108
C94	C	-0.924238	0.601026	0.250108
C95	C	-0.674238	0.851026	0.500108
C96	C	-0.424238	1.101026	0.750108
C97	C	-1.172547	0.437749	0.000100
C98	C	-0.922547	0.687749	0.250100
C99	C	-0.672547	0.937749	0.500100
C100	C	-0.422547	1.187749	0.750100
C101	C	-1.004510	0.418166	0.000086
C102	C	-0.754510	0.668166	0.250086
C103	C	-0.504510	0.918166	0.500086
C104	C	-0.254510	1.168166	0.750086
C105	C	-1.006202	0.331444	0.000087
C106	C	-0.756202	0.581444	0.250087
C107	C	-0.506202	0.831444	0.500087
C108	C	-0.256202	1.081444	0.750087
C109	C	-1.091068	0.297877	0.000103
C110	C	-0.841068	0.547877	0.250103
C111	C	-0.591068	0.797877	0.500103
C112	C	-0.341068	1.047877	0.750103
C113	C	-1.087686	0.471322	0.000094
C114	C	-0.837686	0.721322	0.250094
C115	C	-0.587686	0.971322	0.500094
C116	C	-0.337686	1.221322	0.750094
C117	C	-1.085852	0.565351	0.000085
C118	C	-0.835852	0.815351	0.250085
C119	C	-0.585852	1.065351	0.500085
C120	C	-0.335852	1.315351	0.750085
C121	C	-1.092902	0.203842	0.000109
C122	C	-0.842902	0.453842	0.250109
C123	C	-0.592902	0.703842	0.500109
C124	C	-0.342902	0.953842	0.750109
N125	N	-1.089392	-0.115397	-0.216893
N126	N	-0.839392	0.134603	0.033107
N127	N	-0.589392	0.384603	0.283107
N128	N	-0.339392	0.634603	0.533107
C129	C	-1.152104	-0.058988	0.452114
C130	C	-0.902104	0.191012	0.702114
C131	C	-0.652104	0.441012	0.952114
C132	C	-0.402104	0.691012	1.202114
C133	C	-1.152106	-0.058986	0.548096
C134	C	-0.902106	0.191014	0.798096
C135	C	-0.652106	0.441014	1.048096
C136	C	-0.402106	0.691014	1.298096
C137	C	-1.026651	-0.171809	0.548083
C138	C	-0.776651	0.078191	0.798083
C139	C	-0.526651	0.328191	1.048083
C140	C	-0.276651	0.578191	1.298083
C141	C	-1.026645	-0.171807	0.452104
C142	C	-0.776645	0.078193	0.702104
C143	C	-0.526645	0.328193	0.952104
C144	C	-0.276645	0.578193	1.202104
C145	C	-1.089376	-0.115397	0.404122
C146	C	-0.839376	0.134603	0.654122
C147	C	-0.589376	0.384603	0.904122
C148	C	-0.339376	0.634603	1.154122
C149	C	-1.089385	-0.115398	0.596083
C150	C	-0.839385	0.134602	0.846083
C151	C	-0.589385	0.384602	1.096083
C152	C	-0.339385	0.634602	1.346083
C153	C	-1.089388	-0.115396	0.700150
C154	C	-0.839388	0.134604	0.950150
C155	C	-0.589388	0.384604	1.200150
C156	C	-0.339388	0.634604	1.450150
C157	C	-1.089373	-0.115398	0.300048
C158	C	-0.839373	0.134602	0.550048
C159	C	-0.589373	0.384602	0.800048
C160	C	-0.339373	0.634602	1.050048
H161	H	-1.243341	0.323699	0.000119
H162	H	-0.993341	0.573699	0.250119
H163	H	-0.743341	0.823699	0.500119
H164	H	-0.493341	1.073699	0.750119
H165	H	-1.240272	0.481020	0.000102
H166	H	-0.990272	0.731020	0.250102
H167	H	-0.740272	0.981020	0.500102
H168	H	-0.490272	1.231020	0.750102
H169	H	-1.203182	-0.013055	0.413050
H170	H	-0.953182	0.236945	0.663050
H171	H	-0.703182	0.486945	0.913050
H172	H	-0.453182	0.736945	1.163050
H173	H	-0.975560	-0.217742	0.413026
H174	H	-0.725560	0.032258	0.663026
H175	H	-0.475560	0.282258	0.913026
H176	H	-0.225560	0.532258	1.163026
O177	O	-0.959006	-0.232656	0.599841
O178	O	-0.709006	0.017344	0.849841
O179	O	-0.459006	0.267344	1.099841
O180	O	-0.209006	0.517344	1.349841
H181	H	-0.970737	-0.297490	0.581400
H182	H	-0.720737	-0.047490	0.831400
H183	H	-0.470737	0.202510	1.081400
H184	H	-0.220737	0.452510	1.331400
O185	O	-0.912977	0.454369	0.000089
O186	O	-0.662977	0.704369	0.250089
O187	O	-0.412977	0.954369	0.500089
O188	O	-0.162977	1.204369	0.750089
H189	H	-0.925772	0.523602	0.000102
H190	H	-0.675772	0.773602	0.250102
H191	H	-0.425772	1.023602	0.500102
H192	H	-0.175772	1.273602	0.750102
O193	O	-1.219772	0.001854	0.599851
O194	O	-0.969772	0.251854	0.849851
O195	O	-0.719772	0.501854	1.099851
O196	O	-0.469772	0.751854	1.349851
H197	H	-1.180976	0.042350	0.643578
H198	H	-0.930976	0.292350	0.893578
H199	H	-0.680976	0.542350	1.143578
H200	H	-0.430976	0.792350	1.393578
H201	H	-0.938471	0.288168	0.000080
H202	H	-0.688471	0.538168	0.250080
H203	H	-0.438471	0.788168	0.500080
H204	H	-0.188471	1.038168	0.750080
