data_functionalizedCrystal
_audit_creation_method	'MofGen! by Chris Wilmer'
_symmetry_space_group_name_H-M	'P1'
_symmetry_Int_Tables_number	1
_symmetry_cell_setting	triclinic
loop_
_symmetry_equiv_pos_as_xyz
  x,y,z
_cell_length_a	12.645331
_cell_length_b	12.645330
_cell_length_c	12.759393
_cell_angle_alpha	89.968891
_cell_angle_beta	89.981731
_cell_angle_gamma	90.013057
loop_
_atom_site_label
_atom_site_type_symbol
_atom_site_fract_x
_atom_site_fract_y
_atom_site_fract_z
Zn1	Zn	1.620771	-0.421976	-0.593941
Zn2	Zn	1.620668	-0.599277	-0.418259
Zn3	Zn	1.443485	-0.422029	-0.418284
Zn4	Zn	1.443483	-0.599200	-0.593904
O5	O	1.532102	-0.510621	-0.506097
O6	O	1.769105	-0.445506	-0.570641
O7	O	1.597121	-0.575819	-0.271241
O8	O	1.467046	-0.273675	-0.441611
O9	O	1.769029	-0.575768	-0.441568
O10	O	1.597298	-0.273636	-0.570665
O11	O	1.466946	-0.445596	-0.271260
O12	O	1.295137	-0.445521	-0.441576
O13	O	1.467043	-0.575636	-0.740930
O14	O	1.295136	-0.575687	-0.570603
O15	O	1.597296	-0.445431	-0.740957
O16	O	1.597120	-0.747614	-0.441533
O17	O	1.466943	-0.747557	-0.570579
C18	C	1.256672	-0.510602	-0.506089
C19	C	1.138842	-0.510620	-0.506110
C20	C	1.093995	-0.592647	-0.587163
C21	C	0.971435	-0.592984	-0.586922
C22	C	0.970890	-0.540467	-0.395253
C23	C	1.093489	-0.541046	-0.395722
C24	C	1.093686	-0.398573	-0.534947
C25	C	0.971081	-0.399191	-0.537388
C26	C	1.532049	-0.786050	-0.506072
C27	C	1.532123	-0.903880	-0.506097
C28	C	1.613885	-1.071436	-0.424749
C29	C	1.614152	-0.948876	-0.424948
C30	C	1.562423	-0.948254	-0.616840
C31	C	1.563072	-1.070852	-0.616409
C32	C	1.420027	-1.071211	-0.477792
C33	C	1.420565	-0.948606	-0.475309
C34	C	1.808607	-0.510640	-0.506106
C35	C	1.926437	-0.510648	-0.506110
C36	C	1.532181	-0.510519	-0.780131
C37	C	1.532215	-0.510475	-0.896907
C38	C	1.532184	-0.234115	-0.506145
C39	C	1.532219	-0.116285	-0.506166
C40	C	1.600042	-0.442667	-0.951785
C41	C	1.600060	-0.442621	-1.061509
C42	C	1.464420	-0.578202	-1.061468
C43	C	1.464398	-0.578241	-0.951746
C44	C	1.638007	-0.317547	-1.211487
C45	C	1.705851	-0.249748	-1.266368
C46	C	1.809288	-0.233494	-1.230772
C47	C	1.844902	-0.285055	-1.140296
C48	C	1.777064	-0.352862	-1.085421
C49	C	1.673612	-0.369096	-1.121015
C50	C	1.426462	-0.703317	-0.801767
C51	C	1.358628	-0.771130	-0.746889
C52	C	1.255189	-0.787395	-0.782483
C53	C	1.219579	-0.735853	-0.872962
C54	C	1.287413	-0.668039	-0.927839
C55	C	1.390851	-0.651773	-0.892238
C56	C	1.532084	-0.510646	-0.233130
C57	C	1.532255	-0.510390	-0.116354
H58	H	0.942031	-0.376697	-0.618973
H59	H	1.697248	-0.919466	-0.443715
H60	H	1.643504	-0.917464	-0.641276
H61	H	0.941742	-0.482556	-0.333204
Cl62	Cl	0.923454	-0.665522	-0.356975
Cl63	Cl	1.141524	-0.720109	-0.557991
Cl64	Cl	0.926111	-0.721191	-0.557413
Cl65	Cl	1.242644	-0.603240	-1.041585
H66	H	1.676845	-0.207767	-1.340034
Cl67	Cl	1.169920	-0.872669	-0.713505
H68	H	0.941381	-0.574382	-0.669107
H69	H	1.696536	-1.102164	-0.443305
H70	H	1.595193	-0.918879	-0.342834
Cl71	Cl	1.821825	-0.417679	-0.971688
Cl72	Cl	1.507961	-0.337962	-1.256234
Cl73	Cl	1.089539	-0.756301	-0.917716
H74	H	1.929135	-0.271823	-1.111327
H75	H	1.595164	-1.100995	-0.342394
H76	H	1.123512	-0.574259	-0.669604
Cl77	Cl	1.685294	-0.357472	-0.882848
H78	H	1.864527	-0.178289	-1.275464
Cl79	Cl	1.689684	-1.114875	-0.653512
H80	H	1.397718	-0.919616	-0.393811
Cl81	Cl	1.475216	-1.116656	-0.713247
H82	H	1.387634	-0.813108	-0.673223
Cl83	Cl	1.137606	-0.667486	-0.358118
H84	H	1.123154	-0.483854	-0.333260
Cl85	Cl	1.379175	-0.663394	-1.130416
H86	H	1.124639	-0.371328	-0.614422
H87	H	1.510688	-0.690071	-0.772772
H88	H	1.356434	-0.917989	-0.530261
Cl89	Cl	1.138458	-0.304225	-0.443810
Cl90	Cl	0.923782	-0.299849	-0.452969
Cl91	Cl	1.473378	-0.903265	-0.713008
H92	H	1.392474	-1.102226	-0.398445
Cl93	Cl	1.326081	-1.115993	-0.569341
