data_functionalizedCrystal
_audit_creation_method	'MofGen! by Chris Wilmer'
_symmetry_space_group_name_H-M	'P1'
_symmetry_Int_Tables_number	1
_symmetry_cell_setting	triclinic
loop_
_symmetry_equiv_pos_as_xyz
  x,y,z
_cell_length_a	15.944551
_cell_length_b	14.519709
_cell_length_c	12.996460
_cell_angle_alpha	89.999966
_cell_angle_beta	89.992903
_cell_angle_gamma	96.410558
loop_
_atom_site_label
_atom_site_type_symbol
_atom_site_fract_x
_atom_site_fract_y
_atom_site_fract_z
O1	O	0.110109	-1.223676	-0.085435
O2	O	0.123076	-0.955177	-0.085467
O3	O	-0.005672	-1.096759	-0.085441
O4	O	0.238857	-1.082094	-0.085461
O5	O	-0.005679	-1.096744	0.085693
O6	O	0.123069	-0.955162	0.085667
O7	O	0.110102	-1.223661	0.085699
Cu8	Cu	0.116585	-1.089410	0.101309
Cu9	Cu	0.116593	-1.089428	-0.101077
O10	O	0.238849	-1.082080	0.085673
C11	C	0.122468	-0.920810	0.000096
C12	C	0.120657	-0.818432	0.000084
C13	C	-0.036970	-1.096142	0.000126
C14	C	-0.130219	-1.094317	0.000126
N15	N	0.116578	-1.089405	0.243656
C16	C	-0.345209	-1.002196	0.000101
C17	C	-0.406168	-1.044967	0.084486
C18	C	-0.300950	-1.091015	0.000118
C19	C	-0.406144	-1.045002	-0.084239
C20	C	-0.465867	-1.087820	0.000106
C21	C	-0.360680	-1.133811	0.084572
C22	C	-0.360650	-1.133834	-0.084228
C23	C	-0.421591	-1.176669	0.000177
C24	C	-0.205945	-1.092854	0.000126
C25	C	-0.560871	-1.085988	0.000105
C26	C	0.270148	-1.082696	0.000103
C27	C	0.363397	-1.084521	0.000096
C28	C	0.110710	-1.258028	0.000133
C29	C	0.112521	-1.360406	0.000139
C30	C	0.113990	-0.443548	0.000132
C31	C	0.115842	-0.547853	0.000118
C32	C	0.117323	-0.630987	0.000107
C33	C	0.119175	-0.735298	0.000095
N34	N	0.116593	-1.089441	-0.243424
C35	C	0.116594	-1.089426	0.663470
C36	C	0.116592	-1.089418	0.546665
C37	C	0.116587	-1.089416	0.453567
C38	C	0.116584	-1.089406	0.336754
H39	H	-0.312009	-0.928471	0.000177
C40	C	-0.333316	-1.184514	-0.180588
H41	H	-0.306693	-1.236997	-0.160317
H42	H	-0.294882	-1.143706	-0.219588
H43	H	-0.381501	-1.204105	-0.221305
C44	C	-0.466250	-1.276345	0.000252
H45	H	-0.450695	-1.307738	0.060248
H46	H	-0.449978	-1.308135	-0.059115
H47	H	-0.525638	-1.274651	-0.000308
H48	H	-0.426273	-1.007429	-0.155584
C49	C	-0.433416	-0.994212	0.180845
H50	H	-0.407006	-0.932233	0.180737
H51	H	-0.417091	-1.025163	0.240767
H52	H	-0.492966	-0.993912	0.180463
C53	C	-0.333611	-1.184502	0.181058
H54	H	-0.274117	-1.185319	0.180493
H55	H	-0.360451	-1.246293	0.181314
H56	H	-0.349554	-1.153147	0.240898
