data_functionalizedCrystal
_audit_creation_method	'MofGen! by Chris Wilmer'
_symmetry_space_group_name_H-M	'P1'
_symmetry_Int_Tables_number	1
_symmetry_cell_setting	triclinic
loop_
_symmetry_equiv_pos_as_xyz
  x,y,z
_cell_length_a	16.974829
_cell_length_b	15.995350
_cell_length_c	15.455313
_cell_angle_alpha	92.667328
_cell_angle_beta	83.671566
_cell_angle_gamma	83.445320
loop_
_atom_site_label
_atom_site_type_symbol
_atom_site_fract_x
_atom_site_fract_y
_atom_site_fract_z
O1	O	1.056173	0.099314	-0.146264
O2	O	0.825188	0.113724	-0.130051
O3	O	0.946995	-0.015398	-0.138600
O4	O	0.934367	0.228437	-0.137715
O5	O	0.940029	-0.008044	0.006151
O6	O	0.818223	0.121078	0.014699
O7	O	1.049208	0.106668	-0.001513
Cu8	Cu	0.933079	0.114544	0.019810
Cu9	Cu	0.941317	0.105848	-0.151375
O10	O	0.927401	0.235790	0.007036
C11	C	0.792147	0.116989	-0.055601
C12	C	0.704074	0.115750	-0.049420
C13	C	0.207901	0.109233	-0.006153
C14	C	0.290656	0.110397	-0.011963
C15	C	0.335831	0.106964	-0.093774
C16	C	0.298247	0.102376	-0.169779
C17	C	0.215493	0.101218	-0.163968
C18	C	0.583735	0.110003	-0.119614
C19	C	0.666495	0.111159	-0.125419
C20	C	0.658898	0.119182	0.032397
C21	C	0.576144	0.118018	0.038201
C22	C	0.538566	0.113434	-0.037804
N23	N	0.420420	0.108151	-0.099714
N24	N	0.453978	0.112253	-0.031863
C25	C	0.942990	-0.042913	-0.066190
C26	C	0.941425	-0.135857	-0.066085
C27	C	0.935804	-0.473578	-0.065687
C28	C	0.849071	-0.425754	-0.059923
C29	C	0.850621	-0.329054	-0.059707
C30	C	0.938592	-0.306030	-0.065885
C31	C	0.977402	-0.343109	0.013770
C32	C	0.975220	-0.439731	0.013992
C33	C	0.984933	-0.448460	-0.150742
C34	C	0.984965	-0.351570	-0.151833
C35	C	0.940173	-0.211340	-0.065994
C36	C	0.934226	-0.568268	-0.065573
C37	C	1.082249	0.103403	-0.075965
C38	C	1.170323	0.104642	-0.082153
C39	C	0.931406	0.263306	-0.065377
C40	C	0.932971	0.356249	-0.065488
N41	N	0.927291	0.120660	0.140212
N42	N	0.947111	0.099725	-0.271777
C43	C	0.979057	0.065825	0.181973
C44	C	0.974687	0.070458	0.273087
C45	C	0.918555	0.129931	0.322439
C46	C	0.866783	0.184769	0.280672
C47	C	0.871150	0.180131	0.189559
C48	C	0.899706	0.149926	0.595343
C49	C	0.895345	0.154561	0.686462
C50	C	1.003248	0.040248	0.678871
C51	C	1.007613	0.035619	0.587757
C52	C	0.955839	0.090454	0.545998
N53	N	0.914088	0.134670	0.415573
N54	N	0.960303	0.085711	0.452866
H55	H	0.335034	0.099586	-0.236390
H56	H	0.171125	0.112032	0.060466
H57	H	0.849633	0.202995	0.726641
C58	C	1.060192	-0.020074	0.724807
C59	C	1.059464	-0.116054	0.712380
C60	C	1.116408	-0.176383	0.758314
C61	C	1.174079	-0.140731	0.816675
C62	C	1.174809	-0.044746	0.829104
C63	C	1.117865	0.015582	0.783170
H64	H	1.016770	-0.142450	0.669175
H65	H	1.115867	-0.247437	0.749113
H66	H	1.216233	-0.185389	0.850678
H67	H	1.217503	-0.018350	0.872309
H68	H	1.118406	0.086637	0.792372
C69	C	0.542412	0.104951	-0.203220
C70	C	0.495569	0.030349	-0.221561
C71	C	0.454244	0.025295	-0.305174
C72	C	0.459763	0.094843	-0.370446
C73	C	0.506608	0.169450	-0.352107
C74	C	0.547933	0.174504	-0.268494
H75	H	0.491482	-0.021140	-0.173241
H76	H	0.419566	-0.029935	-0.318749
H77	H	0.429172	0.091101	-0.432341
H78	H	0.510695	0.220938	-0.400427
H79	H	0.582611	0.229734	-0.254919
C80	C	0.716184	0.107396	-0.215419
C81	C	0.765115	0.179795	-0.240474
C82	C	0.814801	0.176034	-0.330469
C83	C	0.815556	0.099873	-0.395410
C84	C	0.766623	0.027468	-0.370356
C85	C	0.716937	0.031229	-0.280360
H86	H	0.764558	0.236179	-0.192400
H87	H	0.851025	0.229634	-0.349016
H88	H	0.852337	0.097089	-0.462030
H89	H	0.767180	-0.028916	-0.418430
H90	H	0.680713	-0.022371	-0.261814
H91	H	0.857551	0.194576	0.561350
H92	H	0.944724	-0.311464	0.077370
C93	C	0.700238	0.124236	0.115996
C94	C	0.747079	0.198843	0.134323
C95	C	0.788418	0.203903	0.217925
C96	C	0.782917	0.134355	0.283199
C97	C	0.736075	0.059742	0.264873
C98	C	0.694735	0.054683	0.181272
H99	H	0.751152	0.250331	0.086002
H100	H	0.823094	0.259136	0.231490
H101	H	0.813520	0.138100	0.345086
H102	H	0.732001	0.008254	0.313195
H103	H	0.660059	-0.000551	0.167706
H104	H	0.321249	0.114133	0.049923
H105	H	1.041884	-0.329130	0.012305
H106	H	0.959585	-0.472050	-0.211402
C107	C	0.526455	0.121786	0.128194
C108	C	0.567791	0.126830	0.211794
C109	C	0.518102	0.130587	0.301788
C110	C	0.427077	0.129301	0.308181
C111	C	0.385736	0.124258	0.224578
C112	C	0.435425	0.120500	0.134584
H113	H	0.635177	0.127782	0.207064
H114	H	0.548706	0.134321	0.363677
H115	H	0.390295	0.132083	0.374800
H116	H	0.318350	0.123305	0.229308
H117	H	0.404821	0.116766	0.072695
H118	H	1.038729	-0.472087	0.013270
C119	C	0.801051	-0.287199	0.023742
C120	C	0.824474	-0.310436	0.113832
C121	C	0.774915	-0.268621	0.197310
C122	C	0.701933	-0.203570	0.190700
C123	C	0.678506	-0.180330	0.100606
C124	C	0.728065	-0.222145	0.017127
H125	H	0.878503	-0.358593	0.118729
H126	H	0.792258	-0.285825	0.264004
H127	H	0.665246	-0.172616	0.252496
H128	H	0.624477	-0.132173	0.095709
H129	H	0.710723	-0.204941	-0.049566
C130	C	0.929044	-0.460023	0.100419
C131	C	0.958965	-0.436441	0.187795
C132	C	0.912786	-0.456726	0.274223
C133	C	0.836686	-0.500593	0.273275
C134	C	0.806761	-0.524177	0.185896
C135	C	0.852940	-0.503892	0.099468
H136	H	1.015302	-0.403966	0.188499
H137	H	0.934938	-0.439268	0.338906
H138	H	0.802501	-0.515609	0.337254
H139	H	0.750424	-0.556652	0.185191
H140	H	0.830788	-0.521350	0.034785
C141	C	0.805036	0.250192	0.334954
C142	C	0.800266	0.255340	0.435172
C143	C	0.738519	0.320767	0.489451
C144	C	0.681541	0.381045	0.443512
C145	C	0.686309	0.375899	0.343289
C146	C	0.748056	0.310473	0.289010
H147	H	0.842446	0.210716	0.469184
H148	H	0.734989	0.324576	0.563644
H149	H	0.635832	0.429478	0.483693
H150	H	0.644129	0.420523	0.309277
H151	H	0.751586	0.306664	0.214818
H152	H	0.184897	0.097482	-0.225854
H153	H	1.053321	-0.012809	0.547576
C154	C	0.809020	-0.294501	-0.136550
C155	C	0.774154	-0.354911	-0.198543
C156	C	0.732542	-0.320362	-0.275383
C157	C	0.725796	-0.225402	-0.290230
C158	C	0.760663	-0.164986	-0.228235
C159	C	0.802275	-0.199536	-0.151395
H160	H	0.779147	-0.425211	-0.187555
H161	H	0.706731	-0.365086	-0.321276
H162	H	0.694992	-0.199826	-0.347112
H163	H	0.755670	-0.094686	-0.239224
H164	H	0.828086	-0.154811	-0.105502
C165	C	0.806081	-0.454624	-0.136718
C166	C	0.849200	-0.521980	-0.205604
C167	C	0.806212	-0.550850	-0.282407
C168	C	0.720105	-0.512364	-0.290324
C169	C	0.676981	-0.445003	-0.221437
C170	C	0.719969	-0.416133	-0.144634
H171	H	0.912946	-0.550474	-0.199745
H172	H	0.838136	-0.600715	-0.333402
H173	H	0.688283	-0.533735	-0.347178
H174	H	0.613235	-0.416510	-0.227296
H175	H	0.688045	-0.366268	-0.093638
H176	H	0.956624	-0.327281	-0.210786
H177	H	0.811716	-0.442191	0.001445
C178	C	1.071956	-0.331567	-0.164671
C179	C	1.102545	-0.273273	-0.097031
C180	C	1.189539	-0.253269	-0.109863
C181	C	1.245944	-0.291558	-0.190336
C182	C	1.215355	-0.349856	-0.257982
C183	C	1.128361	-0.369860	-0.245149
H184	H	1.060790	-0.244926	-0.037456
H185	H	1.212182	-0.210113	-0.059787
H186	H	1.310342	-0.276750	-0.199835
H187	H	1.257110	-0.378203	-0.317557
H188	H	1.105718	-0.413016	-0.295226
H189	H	1.048919	-0.480549	-0.155790
H190	H	1.024769	0.017399	0.141796
H191	H	1.016838	0.025806	0.307089
H192	H	0.828996	0.224783	0.155559
