data_functionalizedCrystal
_audit_creation_method	'MofGen! by Chris Wilmer'
_symmetry_space_group_name_H-M	'P1'
_symmetry_Int_Tables_number	1
_symmetry_cell_setting	triclinic
loop_
_symmetry_equiv_pos_as_xyz
  x,y,z
_cell_length_a	18.215407
_cell_length_b	16.120484
_cell_length_c	18.215399
_cell_angle_alpha	92.869789
_cell_angle_beta	89.980167
_cell_angle_gamma	92.926015
loop_
_atom_site_label
_atom_site_type_symbol
_atom_site_fract_x
_atom_site_fract_y
_atom_site_fract_z
Zn1	Zn	1.110213	-0.331906	-0.430960
Zn2	Zn	1.610213	0.168094	0.069040
Zn3	Zn	1.103879	-0.471328	-0.314129
Zn4	Zn	1.603879	0.028672	0.185871
Zn5	Zn	0.987144	-0.331934	-0.307908
Zn6	Zn	1.487144	0.168066	0.192092
Zn7	Zn	0.980871	-0.471282	-0.437152
Zn8	Zn	1.480871	0.028718	0.062848
O9	O	1.045527	-0.401612	-0.372537
O10	O	1.545527	0.098388	0.127463
O11	O	1.212356	-0.350409	-0.415474
O12	O	1.712356	0.149591	0.084526
O13	O	1.088368	-0.452868	-0.210321
O14	O	1.588368	0.047132	0.289679
O15	O	1.008745	-0.215264	-0.319037
O16	O	1.508745	0.284736	0.180963
O17	O	1.207703	-0.452841	-0.329639
O18	O	1.707703	0.047159	0.170361
O19	O	1.099163	-0.215244	-0.409442
O20	O	1.599163	0.284756	0.090558
O21	O	1.002604	-0.350456	-0.205751
O22	O	1.502604	0.149544	0.294249
O23	O	0.883328	-0.350411	-0.325041
O24	O	1.383328	0.149589	0.174959
O25	O	0.998054	-0.452762	-0.539313
O26	O	1.498054	0.047238	-0.039313
O27	O	0.878719	-0.452789	-0.419995
O28	O	1.378719	0.047211	0.080005
O29	O	1.093081	-0.350364	-0.534764
O30	O	1.593081	0.149636	-0.034764
O31	O	1.082286	-0.587988	-0.335643
O32	O	1.582286	-0.087988	0.164357
O33	O	0.991913	-0.587954	-0.426027
O34	O	1.491913	-0.087954	0.073973
C35	C	0.854321	-0.401598	-0.372516
C36	C	1.354321	0.098402	0.127484
C37	C	0.772522	-0.401612	-0.372525
C38	C	1.272522	0.098388	0.127475
C39	C	0.581943	-0.455004	-0.421912
C40	C	1.081943	0.044996	0.078088
C41	C	0.505085	-0.455007	-0.421921
C42	C	1.005085	0.044993	0.078079
C43	C	0.509861	-0.348236	-0.323179
C44	C	1.009861	0.151764	0.176821
C45	C	0.586719	-0.348229	-0.323174
C46	C	1.086719	0.151771	0.176826
C47	C	0.622758	-0.401619	-0.372540
C48	C	1.122758	0.098381	0.127460
C49	C	0.469041	-0.401627	-0.372554
C50	C	0.969041	0.098373	0.127446
C51	C	0.385708	-0.401630	-0.372564
C52	C	0.885708	0.098370	0.127436
C53	C	0.706097	-0.401615	-0.372531
C54	C	1.206097	0.098385	0.127469
C55	C	1.035751	-0.618221	-0.382198
C56	C	1.535751	-0.118221	0.117802
C57	C	1.031637	-0.710887	-0.386356
C58	C	1.531637	-0.210887	0.113644
C59	C	1.024129	-0.880549	-0.393961
C60	C	1.524129	-0.380549	0.106039
C61	C	1.067056	-0.921836	-0.351125
C62	C	1.567056	-0.421836	0.148875
C63	C	1.062879	-1.016241	-0.355357
C64	C	1.562879	-0.516241	0.144643
C65	C	1.028305	-0.786135	-0.389730
C66	C	1.528305	-0.286135	0.110270
C67	C	1.237479	-0.401627	-0.372560
C68	C	1.737479	0.098373	0.127440
C69	C	1.319277	-0.401634	-0.372569
C70	C	1.819277	0.098366	0.127431
C71	C	1.045574	-0.401555	-0.564488
C72	C	1.545574	0.098445	-0.064488
C73	C	1.045594	-0.401530	-0.646286
C74	C	1.545594	0.098470	-0.146286
C75	C	1.055360	-0.184158	-0.362855
C76	C	1.555360	0.315842	0.137145
C77	C	1.059551	-0.091492	-0.358729
C78	C	1.559551	0.408508	0.141271
C79	C	1.095094	-0.348162	-0.832110
C80	C	1.595094	0.151838	-0.332110
C81	C	1.095104	-0.348138	-0.908967
C82	C	1.595104	0.151862	-0.408967
C83	C	0.996153	-0.454770	-0.913694
C84	C	1.496153	0.045230	-0.413694
C85	C	0.996140	-0.454790	-0.836837
C86	C	1.496140	0.045210	-0.336837
C87	C	1.045615	-0.401487	-0.796047
C88	C	1.545615	0.098513	-0.296047
C89	C	1.045637	-0.401443	-0.949761
C90	C	1.545637	0.098557	-0.449761
C91	C	1.045648	-0.401417	-1.033094
C92	C	1.545648	0.098583	-0.533094
C93	C	1.045603	-0.401511	-0.712709
C94	C	1.545603	0.098489	-0.212709
C95	C	1.045524	-0.401610	-0.181331
C96	C	1.545524	0.098390	0.318669
C97	C	1.045657	-0.401399	-0.099523
C98	C	1.545657	0.098601	0.400477
H99	H	0.480509	-0.304769	-0.282986
H100	H	0.980509	0.195231	0.217014
C101	C	0.970242	-0.928573	-0.447792
C102	C	1.470242	-0.428573	0.052208
C103	C	0.966089	-1.024344	-0.451996
C104	C	1.466089	-0.524344	0.048004
C105	C	0.912201	-1.072380	-0.505825
C106	C	1.412201	-0.572380	-0.005825
C107	C	0.862466	-1.024645	-0.555450
C108	C	1.362466	-0.524645	-0.055450
C109	C	0.866617	-0.928868	-0.551248
C110	C	1.366617	-0.428868	-0.051248
C111	C	0.920505	-0.880832	-0.497419
C112	C	1.420505	-0.380832	0.002581
H113	H	1.002907	-1.059686	-0.415259
H114	H	1.502907	-0.559686	0.084741
H115	H	0.909128	-1.143281	-0.508936
H116	H	1.409128	-0.643281	-0.008936
H117	H	0.822575	-1.060204	-0.595298
H118	H	1.322575	-0.560204	-0.095298
H119	H	0.829798	-0.893527	-0.587985
H120	H	1.329798	-0.393527	-0.087985
H121	H	0.923577	-0.809932	-0.494309
H122	H	1.423577	-0.309932	0.005691
C123	C	1.120940	-0.873811	-0.297283
C124	C	1.620940	-0.373811	0.202717
C125	C	1.170666	-0.921554	-0.247655
C126	C	1.670666	-0.421554	0.252345
C127	C	1.224545	-0.873526	-0.193812
C128	C	1.724545	-0.373526	0.306188
C129	C	1.228698	-0.777754	-0.189597
C130	C	1.728698	-0.277754	0.310403
C131	C	1.178969	-0.730006	-0.239227
C132	C	1.678969	-0.230006	0.260773
C133	C	1.125091	-0.778034	-0.293069
C134	C	1.625091	-0.278034	0.206931
H135	H	1.167594	-0.992454	-0.250774
H136	H	1.667594	-0.492454	0.249226
H137	H	1.261357	-0.908873	-0.157073
H138	H	1.761357	-0.408873	0.342927
H139	H	1.268582	-0.742201	-0.149740
H140	H	1.768582	-0.242201	0.350260
H141	H	1.182042	-0.659106	-0.236108
H142	H	1.682042	-0.159106	0.263892
H143	H	1.088279	-0.742687	-0.329808
H144	H	1.588279	-0.242687	0.170192
H145	H	1.135377	-0.304757	-0.798901
H146	H	1.635377	0.195243	-0.298901
C147	C	1.149534	-0.289480	-0.948636
C148	C	1.649534	0.210520	-0.448636
C149	C	1.232886	-0.296294	-0.938389
C150	C	1.732886	0.203706	-0.438389
C151	C	1.287317	-0.237632	-0.978057
C152	C	1.787317	0.262368	-0.478057
C153	C	1.258397	-0.172157	-1.027970
C154	C	1.758397	0.327843	-0.527970
C155	C	1.175040	-0.165341	-1.038218
C156	C	1.675040	0.334659	-0.538218
C157	C	1.120609	-0.224003	-0.998551
C158	C	1.620609	0.275997	-0.498551
H159	H	1.254298	-0.344765	-0.901439
H160	H	1.754298	0.155235	-0.401439
H161	H	1.349023	-0.242678	-0.970470
H162	H	1.849023	0.257322	-0.470470
H163	H	1.298690	-0.128732	-1.057334
H164	H	1.798690	0.371268	-0.557334
H165	H	1.153628	-0.116870	-1.075169
H166	H	1.653628	0.383130	-0.575169
H167	H	1.058903	-0.218956	-1.006138
H168	H	1.558903	0.281044	-0.506138
C169	C	0.941738	-0.513408	-0.958564
C170	C	1.441738	-0.013408	-0.458564
C171	C	0.941752	-0.513393	-1.043104
C172	C	1.441752	-0.013393	-0.543104
C173	C	0.887338	-0.572035	-1.087973
C174	C	1.387338	-0.072035	-0.587973
C175	C	0.832910	-0.630690	-1.048303
C176	C	1.332910	-0.130690	-0.548303
C177	C	0.832894	-0.630707	-0.963759
C178	C	1.332894	-0.130707	-0.463759
C179	C	0.887308	-0.572065	-0.918889
C180	C	1.387308	-0.072065	-0.418889
H181	H	0.982045	-0.469971	-1.072474
H182	H	1.482045	0.030029	-0.572474
H183	H	0.887350	-0.572022	-1.150558
H184	H	1.387350	-0.072022	-0.650558
H185	H	0.792629	-0.674100	-1.081518
H186	H	1.292629	-0.174100	-0.581518
H187	H	0.792601	-0.674129	-0.934388
H188	H	1.292601	-0.174129	-0.434388
H189	H	0.887296	-0.572078	-0.856304
H190	H	1.387296	-0.072078	-0.356304
H191	H	0.611284	-0.498475	-0.462110
H192	H	1.111284	0.001525	0.037890
C193	C	0.941707	-0.513452	-0.797166
C194	C	1.441707	-0.013452	-0.297166
C195	C	0.858355	-0.506640	-0.807418
C196	C	1.358355	-0.006640	-0.307418
C197	C	0.803921	-0.565296	-0.767748
C198	C	1.303921	-0.065296	-0.267748
C199	C	0.832839	-0.630763	-0.717825
C200	C	1.332839	-0.130763	-0.217825
C201	C	0.916195	-0.637578	-0.707570
C202	C	1.416195	-0.137578	-0.207570
C203	C	0.970629	-0.578922	-0.747241
C204	C	1.470629	-0.078922	-0.247241
H205	H	0.836945	-0.458175	-0.844376
H206	H	1.336945	0.041825	-0.344376
H207	H	0.742216	-0.560251	-0.775339
H208	H	1.242216	-0.060251	-0.275339
H209	H	0.792544	-0.674184	-0.688458
H210	H	1.292544	-0.174184	-0.188458
H211	H	0.937605	-0.686043	-0.670613
H212	H	1.437605	-0.186043	-0.170613
H213	H	1.032334	-0.583967	-0.739649
H214	H	1.532334	-0.083967	-0.239649
H215	H	0.471857	-0.498478	-0.462126
H216	H	0.971857	0.001522	0.037874
H217	H	0.619951	-0.304751	-0.282969
H218	H	1.119951	0.195249	0.217031
