data_functionalizedCrystal
_audit_creation_method	'MofGen! by Chris Wilmer'
_symmetry_space_group_name_H-M	'P1'
_symmetry_Int_Tables_number	1
_symmetry_cell_setting	triclinic
loop_
_symmetry_equiv_pos_as_xyz
  x,y,z
_cell_length_a	11.792241
_cell_length_b	10.723024
_cell_length_c	9.198806
_cell_angle_alpha	90.002012
_cell_angle_beta	89.996921
_cell_angle_gamma	95.669357
loop_
_atom_site_label
_atom_site_type_symbol
_atom_site_fract_x
_atom_site_fract_y
_atom_site_fract_z
O1	O	1.507283	-0.171036	-0.120860
O2	O	1.176980	-0.188663	-0.120869
O3	O	1.349750	0.001747	-0.120859
O4	O	1.334512	-0.361446	-0.120870
O5	O	1.349736	0.001747	0.120927
O6	O	1.176966	-0.188663	0.120917
O7	O	1.507269	-0.171035	0.120925
Cu8	Cu	1.342116	-0.179849	0.142998
Cu9	Cu	1.342133	-0.179850	-0.142941
O10	O	1.334499	-0.361445	0.120915
C11	C	1.134680	-0.187556	0.000023
C12	C	1.008659	-0.184242	0.000019
C13	C	1.549569	-0.172143	0.000031
C14	C	1.675590	-0.175457	0.000025
C15	C	1.348634	0.048244	0.000032
C16	C	1.345317	0.186789	0.000027
C17	C	1.906315	-0.181551	0.000025
C18	C	1.777923	-0.178165	0.000025
C19	C	1.335614	-0.407942	0.000021
C20	C	1.338932	-0.546488	0.000017
N21	N	1.342113	-0.179848	0.344112
C22	C	1.441990	0.262028	0.000028
C23	C	1.438563	0.405222	0.000022
N24	N	1.342145	-0.179841	-0.344055
C25	C	1.414654	-0.099549	0.416313
C26	C	1.414672	-0.099544	0.583725
H27	H	1.527292	0.220431	0.000039
O28	O	1.537194	0.482519	-0.000043
C29	C	1.511815	0.608282	-0.000010
H30	H	1.422609	0.613752	-0.045785
H31	H	1.576536	0.666889	-0.070209
H32	H	1.515780	0.645902	0.115985
O33	O	1.240220	0.376349	-0.000242
C34	C	1.235952	0.300176	-0.125443
H35	H	1.293584	0.347519	-0.212965
H36	H	1.144646	0.286034	-0.167481
H37	H	1.266175	0.205382	-0.097125
O38	O	1.243477	0.236253	0.000213
C39	C	1.181368	0.195939	0.125453
H40	H	1.212885	0.105400	0.167211
H41	H	1.086981	0.178649	0.097286
H42	H	1.194013	0.271168	0.213134
H43	H	1.280040	-0.248597	0.593864
O44	O	1.267984	-0.261691	0.418375
C45	C	1.197311	-0.194500	0.506406
H46	H	1.241543	-0.097056	0.529048
H47	H	1.179977	-0.246400	0.613504
H48	H	1.113268	-0.185713	0.447854
H49	H	1.476782	-0.030801	0.645815
O50	O	1.488601	-0.017529	0.342020
C51	C	1.426974	0.059652	0.253976
H52	H	1.338605	0.010376	0.231374
H53	H	1.474069	0.079015	0.146859
H54	H	1.418417	0.151973	0.312497
