data_functionalizedCrystal
_audit_creation_method	'MofGen! by Chris Wilmer'
_symmetry_space_group_name_H-M	'P1'
_symmetry_Int_Tables_number	1
_symmetry_cell_setting	triclinic
loop_
_symmetry_equiv_pos_as_xyz
  x,y,z
_cell_length_a	19.188930
_cell_length_b	19.188940
_cell_length_c	10.868271
_cell_angle_alpha	89.994428
_cell_angle_beta	89.981803
_cell_angle_gamma	83.146747
loop_
_atom_site_label
_atom_site_type_symbol
_atom_site_fract_x
_atom_site_fract_y
_atom_site_fract_z
O1	O	0.926148	0.087168	-0.102719
O2	O	0.722837	0.098902	-0.102635
O3	O	0.830356	-0.008620	-0.102670
O4	O	0.818629	0.194690	-0.102684
O5	O	0.830347	-0.008625	0.101975
O6	O	0.722828	0.098898	0.102010
O7	O	0.926139	0.087164	0.101926
Zn8	Zn	0.824482	0.093030	0.134460
Zn9	Zn	0.824494	0.093035	-0.135169
O10	O	0.818620	0.194686	0.101961
C11	C	0.696821	0.098520	-0.000302
C12	C	0.619317	0.097379	-0.000269
C13	C	0.574395	0.160470	-0.000293
C14	C	0.501571	0.159398	-0.000306
C15	C	0.473672	0.095232	-0.000321
C16	C	0.518604	0.032133	-0.000290
C17	C	0.591426	0.033207	-0.000264
N18	N	0.365693	0.046187	-0.070016
N19	N	0.296515	0.045171	-0.070044
C20	C	0.254264	0.091994	-0.000396
N21	N	0.283803	0.139881	0.069265
N22	N	0.352988	0.140899	0.069286
C23	C	0.394710	0.094061	-0.000348
C24	C	0.130377	0.153927	-0.000432
C25	C	0.057553	0.152853	-0.000438
C26	C	0.074587	0.025586	-0.000434
C27	C	0.147410	0.026662	-0.000416
C28	C	0.175301	0.090835	-0.000421
C29	C	0.829970	-0.034633	-0.000348
C30	C	0.828827	-0.112138	-0.000348
C31	C	0.820688	-0.665399	0.111178
C32	C	0.821754	-0.592575	0.111185
C33	C	0.822296	-0.556153	-0.000366
C34	C	0.821753	-0.592559	-0.111931
C35	C	0.820679	-0.665381	-0.111934
N36	N	0.863716	-0.447127	-0.083412
N37	N	0.864737	-0.377949	-0.083402
C38	C	0.825530	-0.336744	-0.000363
N39	N	0.785271	-0.367330	0.082684
N40	N	0.784252	-0.436515	0.082677
C41	C	0.823460	-0.477189	-0.000375
C42	C	0.827224	-0.221381	0.111202
C43	C	0.828287	-0.148554	0.111204
C44	C	0.828292	-0.148541	-0.111915
C45	C	0.827223	-0.221365	-0.111914
C46	C	0.826692	-0.257781	-0.000351
C47	C	0.952154	0.087546	-0.000410
C48	C	1.029659	0.088686	-0.000451
C49	C	0.819005	0.220699	-0.000364
C50	C	0.820148	0.298203	-0.000372
N51	N	0.824479	0.093026	0.318474
N52	N	0.824502	0.093034	-0.319183
C53	C	0.824490	0.093034	0.569480
C54	C	0.824482	0.093031	0.429802
H55	H	0.183987	-0.024713	-0.000404
H56	H	0.051873	-0.026659	-0.000523
C57	C	0.678458	0.218629	-0.000316
C58	C	0.605052	0.231006	-0.000325
H59	H	0.697384	0.262176	-0.000353
H60	H	0.693872	0.192679	0.071062
H61	H	0.693901	0.192646	-0.071667
H62	H	0.589609	0.256985	0.071031
H63	H	0.589633	0.256967	-0.071710
H64	H	0.822191	-0.562899	-0.202756
H65	H	0.820255	-0.695044	0.202021
H66	H	0.464989	0.210775	-0.000322
C67	C	0.106228	0.279615	-0.000424
C68	C	0.161041	0.224463	-0.000419
H69	H	0.125158	0.323160	-0.000407
H70	H	0.078199	0.276554	-0.071792
H71	H	0.078160	0.276541	0.070937
H72	H	0.189106	0.227534	-0.071785
H73	H	0.189081	0.227526	0.070956
H74	H	0.826788	-0.251002	-0.202750
C75	C	0.766881	-0.235798	0.301397
C76	C	0.826632	-0.261418	0.233823
H77	H	0.766514	-0.260519	0.377093
H78	H	0.767599	-0.187225	0.317368
H79	H	0.726006	-0.242287	0.255563
H80	H	0.867507	-0.254924	0.279653
H81	H	0.825920	-0.310003	0.217855
C82	C	0.821638	-0.599894	0.331728
C83	C	0.822337	-0.552553	0.233810
H84	H	0.821997	-0.575187	0.407429
H85	H	0.780519	-0.622853	0.327102
H86	H	0.861931	-0.633744	0.327070
H87	H	0.782041	-0.518707	0.238463
H88	H	0.863460	-0.529584	0.238438
H89	H	0.020977	0.204231	-0.000450
H90	H	0.828724	-0.118920	0.202046
C91	C	0.829829	-0.036894	-0.210979
C92	C	0.828809	-0.108504	-0.234536
H93	H	0.830128	-0.012173	-0.286684
H94	H	0.789324	-0.019552	-0.165043
H95	H	0.870737	-0.030391	-0.165250
H96	H	0.787898	-0.115008	-0.280258
H97	H	0.869318	-0.125851	-0.280491
H98	H	0.820239	-0.695016	-0.202775
H99	H	0.628002	-0.018171	-0.000246
C100	C	0.414535	-0.026019	-0.000350
C101	C	0.487940	-0.038399	-0.000313
H102	H	0.395607	-0.069565	-0.000369
H103	H	0.399083	-0.000057	0.071004
H104	H	0.399132	-0.000047	-0.071725
H105	H	0.503344	-0.064367	0.071067
H106	H	0.503398	-0.064372	-0.071674
