data_functionalizedCrystal
_audit_creation_method	'MofGen! by Chris Wilmer'
_symmetry_space_group_name_H-M	'P1'
_symmetry_Int_Tables_number	1
_symmetry_cell_setting	triclinic
loop_
_symmetry_equiv_pos_as_xyz
  x,y,z
_cell_length_a	19.288864
_cell_length_b	7.088929
_cell_length_c	19.288865
_cell_angle_alpha	96.207236
_cell_angle_beta	83.136245
_cell_angle_gamma	83.831730
loop_
_atom_site_label
_atom_site_type_symbol
_atom_site_fract_x
_atom_site_fract_y
_atom_site_fract_z
O1	O	0.914167	0.159620	0.093839
O2	O	0.711912	0.159493	0.105522
O3	O	0.818886	0.159522	-0.001452
O4	O	0.807194	0.159591	0.200812
O5	O	0.833182	-0.158449	-0.015780
O6	O	0.726208	-0.158479	0.091194
O7	O	0.928463	-0.158351	0.079511
Cu8	Cu	0.828641	-0.187448	0.084044
Cu9	Cu	0.811734	0.188590	0.100988
O10	O	0.821490	-0.158381	0.186484
C11	C	0.693185	0.000490	0.097981
C12	C	0.616083	0.000440	0.096849
N13	N	0.840537	-0.451933	0.072125
C14	C	0.571385	0.000491	0.159620
C15	C	0.498937	0.000512	0.158560
C16	C	0.471189	0.000520	0.094728
C17	C	0.515898	0.000457	0.031949
C18	C	0.588345	0.000417	0.033010
C19	C	0.357916	0.111966	0.049571
C20	C	0.285469	0.112018	0.048513
C21	C	0.247738	0.000634	0.091454
C22	C	0.282460	-0.110777	0.135464
C23	C	0.354907	-0.110817	0.136525
C24	C	0.392633	0.000562	0.093571
C25	C	0.124483	0.000705	0.153079
C26	C	0.052034	0.000714	0.152016
C27	C	0.068996	0.000679	0.025404
C28	C	0.141444	0.000651	0.026468
C29	C	0.169182	0.000673	0.090308
C30	C	0.947191	0.000656	0.087052
C31	C	1.024291	0.000719	0.088184
C32	C	0.825658	0.000531	-0.034492
C33	C	0.824530	0.000513	-0.111597
N34	N	0.799844	0.453074	0.112901
C35	C	0.887296	0.000543	-0.156292
C36	C	0.886234	0.000573	-0.228737
C37	C	0.822404	0.000534	-0.256487
C38	C	0.759628	0.000514	-0.211782
C39	C	0.760691	0.000504	-0.139337
C40	C	0.777233	-0.110876	-0.369794
C41	C	0.776173	-0.110878	-0.442239
C42	C	0.819122	0.000575	-0.479931
C43	C	0.863144	0.112004	-0.445171
C44	C	0.864207	0.111993	-0.372726
C45	C	0.821244	0.000546	-0.335040
C46	C	0.880741	0.000640	-0.603180
C47	C	0.879676	0.000681	-0.675626
C48	C	0.753070	0.000603	-0.658669
C49	C	0.754136	0.000581	-0.586224
C50	C	0.817974	0.000590	-0.558484
C51	C	0.814717	0.000615	0.219525
C52	C	0.815845	0.000645	0.296630
H53	H	0.593964	0.000513	0.211603
C54	C	0.450505	0.000685	0.226794
C55	C	0.490302	0.000743	0.282930
C56	C	0.445712	0.000935	0.345798
H57	H	0.426837	-0.110145	0.224122
H58	H	0.416935	0.111637	0.234039
H59	H	0.523859	-0.110197	0.275686
H60	H	0.513969	0.111565	0.285625
H61	H	0.412142	0.111887	0.353044
H62	H	0.422046	-0.109896	0.343118
H63	H	0.472706	0.000993	0.383894
C64	C	0.956670	0.000665	-0.126305
C65	C	1.011410	0.000746	-0.180957
C66	C	1.075325	0.000885	-0.153357
H67	H	0.964799	-0.110190	-0.103409
H68	H	0.954770	0.111592	-0.093411
H69	H	1.013311	-0.110169	-0.213838
H70	H	1.003305	0.111593	-0.203857
H71	H	1.073425	0.111812	-0.120463
H72	H	1.083447	-0.109972	-0.130462
H73	H	1.112473	0.000958	-0.190433
C74	C	0.743588	-0.438432	0.169306
C75	C	0.707980	-0.568748	0.205011
C76	C	0.656158	-0.468862	0.256983
H77	H	0.711162	-0.360378	0.148010
H78	H	0.765020	-0.360349	0.201648
H79	H	0.686548	-0.646799	0.172675
H80	H	0.740386	-0.646806	0.226323
H81	H	0.677590	-0.390779	0.289325
H82	H	0.623738	-0.390811	0.235680
H83	H	0.631996	-0.557265	0.281219
C84	C	0.909656	0.233295	-0.486090
C85	C	0.867549	0.365153	-0.516947
C86	C	0.910370	0.476927	-0.554641
H87	H	0.940908	0.153235	-0.521784
H88	H	0.936008	0.299766	-0.455027
H89	H	0.841209	0.298687	-0.548008
H90	H	0.836298	0.445255	-0.481269
H91	H	0.936722	0.543397	-0.523578
H92	H	0.941620	0.396852	-0.590331
H93	H	0.881806	0.566417	-0.575577
H94	H	0.882720	-0.533577	0.029872
H95	H	0.703025	0.000546	-0.549833
H96	H	0.383175	-0.201537	0.172358
H97	H	0.251741	-0.201478	0.170430
H98	H	0.709578	0.000479	-0.102945
H99	H	0.932722	0.000656	-0.580593
C100	C	0.728308	-0.231910	-0.479841
C101	C	0.690901	-0.329458	-0.431324
C102	C	0.646794	-0.440954	-0.465934
H103	H	0.755855	-0.321628	-0.515357
H104	H	0.696203	-0.151639	-0.500705
H105	H	0.723002	-0.409723	-0.410471
H106	H	0.663341	-0.239787	-0.395807
H107	H	0.614689	-0.360683	-0.486798
H108	H	0.674346	-0.530660	-0.501449
H109	H	0.621404	-0.507140	-0.433020
H110	H	0.937347	0.000605	-0.265135
H111	H	0.742258	-0.201644	-0.339112
H112	H	0.624739	0.000377	-0.018107
C113	C	0.154475	0.000609	0.222453
C114	C	0.099822	0.000588	0.277197
C115	C	0.127423	0.000473	0.341112
H116	H	0.177405	0.111452	0.230595
H117	H	0.187336	-0.110330	0.220536
H118	H	0.066973	0.111516	0.279115
H119	H	0.076888	-0.110246	0.269079
H120	H	0.160285	-0.110466	0.339195
H121	H	0.150353	0.111318	0.349247
H122	H	0.090347	0.000441	0.378263
H123	H	0.707657	0.000487	-0.234379
C124	C	0.189858	0.000716	-0.041753
C125	C	0.150052	0.000776	-0.097881
C126	C	0.194627	0.000855	-0.160740
H127	H	0.223455	-0.110152	-0.049066
H128	H	0.213492	0.111629	-0.039010
H129	H	0.126430	-0.110126	-0.100625
H130	H	0.116457	0.111636	-0.090592
H131	H	0.218260	0.111768	-0.157996
H132	H	0.228222	-0.110016	-0.168045
H133	H	0.167624	0.000913	-0.198829
C134	C	0.683727	0.000959	-0.688729
C135	C	0.638449	0.164547	-0.658620
C136	C	0.574565	0.164961	-0.686304
H137	H	0.662787	-0.109812	-0.678391
H138	H	0.692047	0.001078	-0.738275
H139	H	0.630128	0.164411	-0.609086
H140	H	0.659366	0.275344	-0.668956
H141	H	0.582885	0.165080	-0.735849
H142	H	0.553632	0.054183	-0.675964
H143	H	0.543839	0.275961	-0.665884
C144	C	0.247848	0.233294	0.000777
C145	C	0.255640	0.425816	0.018836
C146	C	0.221003	0.537590	-0.025130
H147	H	0.199282	0.217629	0.006254
H148	H	0.267644	0.194199	-0.046778
H149	H	0.235841	0.464898	0.066380
H150	H	0.304198	0.441541	0.013356
H151	H	0.240800	0.498496	-0.072686
H152	H	0.172439	0.521909	-0.019651
H153	H	0.226291	0.668226	-0.012888
H154	H	0.900049	0.202726	-0.344428
H155	H	0.015641	0.000745	0.203133
H156	H	0.930790	0.000716	-0.712016
H157	H	0.046399	0.000804	-0.026563
H158	H	0.388631	0.202680	0.014603
C159	C	0.485857	0.000771	-0.037391
C160	C	0.501285	0.164311	-0.067962
C161	C	0.473632	0.164644	-0.131846
H162	H	0.436305	0.000907	-0.029128
H163	H	0.506197	-0.110072	-0.068260
H164	H	0.480942	0.275125	-0.037101
H165	H	0.550830	0.164210	-0.076243
H166	H	0.493972	0.053801	-0.162714
H167	H	0.424082	0.164774	-0.123576
H168	H	0.484101	0.275594	-0.152599
