data_functionalizedCrystal
_audit_creation_method	'MofGen! by Chris Wilmer'
_symmetry_space_group_name_H-M	'P1'
_symmetry_Int_Tables_number	1
_symmetry_cell_setting	triclinic
loop_
_symmetry_equiv_pos_as_xyz
  x,y,z
_cell_length_a	25.639242
_cell_length_b	25.639239
_cell_length_c	25.639233
_cell_angle_alpha	90.018747
_cell_angle_beta	90.022166
_cell_angle_gamma	90.034213
loop_
_atom_site_label
_atom_site_type_symbol
_atom_site_fract_x
_atom_site_fract_y
_atom_site_fract_z
Zn1	Zn	0.799225	-0.208277	0.295742
Zn2	Zn	1.299225	0.291723	0.795742
Zn3	Zn	0.799149	-0.295696	0.208307
Zn4	Zn	1.299149	0.204304	0.708307
Zn5	Zn	0.711801	-0.208269	0.208306
Zn6	Zn	1.211801	0.291731	0.708306
Zn7	Zn	0.711746	-0.295676	0.295696
Zn8	Zn	1.211746	0.204324	0.795696
O9	O	0.755480	-0.251979	0.252013
O10	O	1.255480	0.248021	0.752013
O11	O	0.872380	-0.219884	0.284163
O12	O	1.372380	0.280116	0.784163
O13	O	0.787553	-0.284103	0.135141
O14	O	1.287553	0.215897	0.635141
O15	O	0.723453	-0.135105	0.219924
O16	O	1.223453	0.364895	0.719924
O17	O	0.872324	-0.284111	0.219924
O18	O	1.372324	0.215889	0.719924
O19	O	0.787683	-0.135111	0.284163
O20	O	1.287683	0.364889	0.784163
O21	O	0.723379	-0.219871	0.135141
O22	O	1.223379	0.280129	0.635141
O23	O	0.638629	-0.219853	0.219880
O24	O	1.138629	0.280147	0.719880
O25	O	0.723360	-0.284078	0.368868
O26	O	1.223360	0.215922	0.868868
O27	O	0.638589	-0.284070	0.284085
O28	O	1.138589	0.215930	0.784085
O29	O	0.787630	-0.219866	0.368901
O30	O	1.287630	0.280134	0.868901
O31	O	0.787499	-0.368858	0.219880
O32	O	1.287499	0.131142	0.719880
O33	O	0.723286	-0.368844	0.284085
O34	O	1.223286	0.131156	0.784085
C35	C	0.619638	-0.251959	0.251977
C36	C	1.119638	0.248041	0.751977
C37	C	0.561524	-0.251963	0.251975
C38	C	1.061524	0.248037	0.751975
C39	C	0.201149	-0.285473	0.285413
C40	C	0.701149	0.214527	0.785413
C41	C	0.146544	-0.285477	0.285421
C42	C	0.646544	0.214523	0.785421
O43	O	0.118297	-0.313943	0.313821
O44	O	0.618297	0.186057	0.813821
N45	N	0.119241	-0.251994	0.252047
N46	N	0.619241	0.248006	0.752047
C47	C	0.146545	-0.218502	0.218666
C48	C	0.646545	0.281498	0.718666
O49	O	0.118308	-0.190022	0.190280
O50	O	0.618308	0.309978	0.690280
C51	C	0.201149	-0.218496	0.218661
C52	C	0.701149	0.281504	0.718661
C53	C	0.228449	-0.251985	0.252034
C54	C	0.728449	0.248015	0.752034
C55	C	0.228449	-0.318959	0.318783
C56	C	0.728449	0.181041	0.818783
C57	C	0.283049	-0.318956	0.318774
C58	C	0.783049	0.181044	0.818774
C59	C	0.310350	-0.285468	0.285395
C60	C	0.810350	0.214532	0.785395
C61	C	0.283049	-0.251983	0.252024
C62	C	0.783049	0.248017	0.752024
C63	C	0.228452	-0.185002	0.185283
C64	C	0.728452	0.314998	0.685283
C65	C	0.283059	-0.185000	0.185281
C66	C	0.783059	0.315000	0.685281
C67	C	0.310359	-0.218488	0.218654
C68	C	0.810359	0.281512	0.718654
C69	C	0.364950	-0.218492	0.218636
C70	C	0.864950	0.281508	0.718636
N71	N	0.392253	-0.251974	0.252010
N72	N	0.892253	0.248026	0.752010
C73	C	0.364953	-0.285463	0.285389
C74	C	0.864953	0.214537	0.785389
C75	C	0.031875	-0.218515	0.218680
C76	C	0.531875	0.281485	0.718680
C77	C	-0.022728	-0.218523	0.218683
C78	C	0.477272	0.281477	0.718683
C79	C	-0.022725	-0.285497	0.285438
C80	C	0.477275	0.214503	0.785438
C81	C	0.031878	-0.285492	0.285433
C82	C	0.531878	0.214508	0.785433
C83	C	0.059178	-0.251998	0.252054
C84	C	0.559178	0.248002	0.752054
C85	C	0.479618	-0.285455	0.285368
C86	C	0.979618	0.214545	0.785368
C87	C	0.534223	-0.285451	0.285354
C88	C	1.034223	0.214549	0.785354
C89	C	0.534216	-0.218475	0.218601
C90	C	1.034216	0.281525	0.718601
C91	C	0.479615	-0.218481	0.218612
C92	C	0.979615	0.281519	0.718612
C93	C	0.452318	-0.251972	0.252000
C94	C	0.952318	0.248028	0.752000
O95	O	0.393232	-0.190038	0.190252
O96	O	0.893232	0.309962	0.690252
O97	O	0.393197	-0.313933	0.313776
O98	O	0.893197	0.186067	0.813776
C99	C	0.755392	-0.387822	0.251989
C100	C	1.255392	0.112178	0.751989
C101	C	0.755403	-0.445936	0.251996
C102	C	1.255403	0.054064	0.751996
C103	C	0.789004	-0.806294	0.218638
C104	C	1.289004	-0.306294	0.718638
C105	C	0.789024	-0.860898	0.218645
C106	C	1.289024	-0.360898	0.718645
O107	O	0.817502	-0.889131	0.190257
O108	O	1.317502	-0.389131	0.690257
N109	N	0.755572	-0.888218	0.252048
N110	N	1.255572	-0.388218	0.752048
C111	C	0.722102	-0.860932	0.285449
C112	C	1.222102	-0.360932	0.785449
O113	O	0.693651	-0.889184	0.313861
O114	O	1.193651	-0.389184	0.813861
C115	C	0.722085	-0.806328	0.285444
C116	C	1.222085	-0.306328	0.785444
C117	C	0.755535	-0.779011	0.252036
C118	C	1.255535	-0.279011	0.752036
C119	C	0.822452	-0.778976	0.185233
C120	C	1.322452	-0.278976	0.685233
C121	C	0.822431	-0.724376	0.185226
C122	C	1.322431	-0.224376	0.685226
C123	C	0.788962	-0.697093	0.218623
C124	C	1.288962	-0.197093	0.718623
C125	C	0.755514	-0.724410	0.252028
C126	C	1.255514	-0.224410	0.752028
C127	C	0.688617	-0.779042	0.318847
C128	C	1.188617	-0.279042	0.818847
C129	C	0.688603	-0.724435	0.318840
C130	C	1.188603	-0.224435	0.818840
C131	C	0.722053	-0.697118	0.285432
C132	C	1.222053	-0.197118	0.785432
C133	C	0.722024	-0.642527	0.285418
C134	C	1.222024	-0.142527	0.785418
N135	N	0.755475	-0.615206	0.252016
N136	N	1.255475	-0.115206	0.752016
C137	C	0.788944	-0.642490	0.218618
C138	C	1.288944	-0.142490	0.718618
C139	C	0.722141	-0.975602	0.285457
C140	C	1.222141	-0.475602	0.785457
C141	C	0.722155	-1.030204	0.285459
C142	C	1.222155	-0.530204	0.785459
C143	C	0.789078	-1.030167	0.218656
C144	C	1.289078	-0.530167	0.718656
C145	C	0.789061	-0.975564	0.218652
C146	C	1.289061	-0.475564	0.718652
C147	C	0.755593	-0.948282	0.252055
C148	C	1.255593	-0.448282	0.752055
C149	C	0.788897	-0.527824	0.218605
C150	C	1.288897	-0.027824	0.718605
C151	C	0.788872	-0.473219	0.218599
C152	C	1.288872	0.026781	0.718599
C153	C	0.721951	-0.473261	0.285403
C154	C	1.221951	0.026739	0.785403
C155	C	0.721974	-0.527862	0.285408
C156	C	1.221974	-0.027862	0.785408
C157	C	0.755452	-0.555142	0.252007
C158	C	1.255452	-0.055142	0.752007
O159	O	0.693562	-0.614260	0.313793
O160	O	1.193562	-0.114260	0.813793
O161	O	0.817396	-0.614231	0.190216
O162	O	1.317396	-0.114231	0.690216
C163	C	0.891853	-0.252000	0.252049
C164	C	1.391853	0.248000	0.752049
C165	C	0.949967	-0.252009	0.252064
C166	C	1.449967	0.247991	0.752064
C167	C	0.755497	-0.251970	0.388386
C168	C	1.255497	0.248030	0.888386
C169	C	0.755504	-0.251966	0.446500
C170	C	1.255504	0.248034	0.946500
C171	C	0.755583	-0.115606	0.252048
C172	C	1.255583	0.384394	0.752048
C173	C	0.755627	-0.057492	0.252064
C174	C	1.255627	0.442508	0.752064
C175	C	0.755494	-0.251951	0.116170
C176	C	1.255494	0.248049	0.616170
C177	C	0.755588	-0.251807	0.058057
C178	C	1.255588	0.248193	0.558057
C179	C	0.789012	-0.218432	0.806886
C180	C	1.289012	0.281568	1.306886
C181	C	0.789019	-0.218417	0.861491
C182	C	1.289019	0.281583	1.361491
O183	O	0.817466	-0.189967	0.889747
O184	O	1.317466	0.310033	1.389747
N185	N	0.755562	-0.251844	0.888783
N186	N	1.255562	0.248156	1.388783
C187	C	0.722093	-0.285283	0.861468
C188	C	1.222093	0.214717	1.361468
O189	O	0.693636	-0.313713	0.889695
O190	O	1.193636	0.186287	1.389695
C191	C	0.722084	-0.285294	0.806864
C192	C	1.222084	0.214706	1.306864
C193	C	0.755547	-0.251870	0.779575
C194	C	1.255547	0.248130	1.279575
C195	C	0.822472	-0.185009	0.779597
C196	C	1.322472	0.314991	1.279597
C197	C	0.822466	-0.185025	0.724997
C198	C	1.322466	0.314975	1.224997
C199	C	0.789000	-0.218462	0.697685
C200	C	1.289000	0.281538	1.197685
C201	C	0.755541	-0.251885	0.724974
C202	C	1.255541	0.248115	1.224974
C203	C	0.688613	-0.318731	0.779550
C204	C	1.188613	0.181269	1.279550
C205	C	0.688607	-0.318739	0.724943
C206	C	1.188607	0.181261	1.224943
C207	C	0.722069	-0.285314	0.697654
C208	C	1.222069	0.214686	1.197654
C209	C	0.722070	-0.285338	0.643063
C210	C	1.222070	0.214662	1.143063
N211	N	0.755526	-0.251912	0.615771
N212	N	1.255526	0.248088	1.115771
C213	C	0.788992	-0.218474	0.643082
C214	C	1.288992	0.281526	1.143082
C215	C	0.722113	-0.285256	0.976138
C216	C	1.222113	0.214744	1.476138
C217	C	0.722124	-0.285247	1.030741
C218	C	1.222124	0.214753	1.530741
C219	C	0.789049	-0.218381	1.030760
C220	C	1.289049	0.281619	1.530760
C221	C	0.789041	-0.218392	0.976157
C222	C	1.289041	0.281608	1.476157
C223	C	0.755570	-0.251829	0.948846
C224	C	1.255570	0.248171	1.448846
C225	C	0.788977	-0.218509	0.528417
C226	C	1.288977	0.281491	1.028417
C227	C	0.788970	-0.218529	0.473811
C228	C	1.288970	0.281471	0.973811
C229	C	0.722043	-0.285393	0.473797
C230	C	1.222043	0.214607	0.973797
C231	C	0.722052	-0.285375	0.528397
C232	C	1.222052	0.214625	1.028397
C233	C	0.755521	-0.251929	0.555706
C234	C	1.255521	0.248071	1.055706
O235	O	0.693635	-0.313773	0.614771
O236	O	1.193635	0.186227	1.114771
O237	O	0.817439	-0.190044	0.614847
O238	O	1.317439	0.309956	1.114847
H239	H	0.305272	-0.346225	0.345950
H240	H	0.805272	0.153775	0.845950
C241	C	0.859233	-0.694334	0.148483
C242	C	1.359233	-0.194334	0.648483
H243	H	0.879170	-0.718409	0.128601
H244	H	1.379170	-0.218409	0.628601
H245	H	0.839248	-0.673059	0.125674
H246	H	1.339248	-0.173059	0.625674
H247	H	0.881996	-0.673006	0.168510
H248	H	1.381996	-0.173006	0.668510
C249	C	0.825860	-0.945520	0.181907
C250	C	1.325860	-0.445520	0.681907
H251	H	0.845796	-0.969594	0.162022
H252	H	1.345796	-0.469594	0.662022
H253	H	0.805873	-0.924244	0.159102
H254	H	1.305873	-0.424244	0.659102
H255	H	0.848625	-0.924193	0.201934
H256	H	1.348625	-0.424193	0.701934
C257	C	0.685357	-1.060248	0.322205
C258	C	1.185357	-0.560248	0.822205
H259	H	0.665426	-1.036174	0.342095
H260	H	1.165426	-0.536174	0.842095
H261	H	0.662596	-1.081581	0.302186
H262	H	1.162596	-0.581581	0.802186
H263	H	0.705352	-1.081517	0.345014
H264	H	1.205352	-0.581517	0.845014
C265	C	-0.052754	-0.181687	0.181973
C266	C	0.447246	0.318313	0.681973
H267	H	-0.089185	-0.186483	0.186754
H268	H	0.410815	0.313517	0.686754
H269	H	-0.043778	-0.146570	0.189691
H270	H	0.456222	0.353430	0.689691
H271	H	-0.043829	-0.189287	0.146826
H272	H	0.456171	0.310713	0.646826
H273	H	0.694881	-0.312471	1.052955
H274	H	1.194881	0.187529	1.552955
H275	H	0.694857	-0.312487	0.953905
H276	H	1.194857	0.187513	1.453905
H277	H	0.816111	-0.450979	0.191392
H278	H	1.316111	0.049021	0.691392
C279	C	0.685231	-0.322169	0.443747
C280	C	1.185231	0.177831	0.943747
H281	H	0.690018	-0.317383	0.407320
H282	H	1.190018	0.182617	0.907320
H283	H	0.692851	-0.357300	0.452691
H284	H	1.192851	0.142700	0.952691
H285	H	0.650107	-0.314502	0.452686
H286	H	1.150107	0.185498	0.952686
H287	H	0.206227	-0.346229	0.345967
H288	H	0.706227	0.153771	0.845967
H289	H	0.694809	-0.312597	0.550617
H290	H	1.194809	0.187403	1.050617
C291	C	0.859270	-0.148252	0.694985
C292	C	1.359270	0.351748	1.194985
H293	H	0.879195	-0.128335	0.719078
H294	H	1.379195	0.371665	1.219078
H295	H	0.882036	-0.168255	0.673687
H296	H	1.382036	0.331745	1.173687
H297	H	0.839280	-0.125469	0.673684
H298	H	1.339280	0.374531	1.173684
C299	C	0.651799	-0.355494	0.809556
C300	C	1.151799	0.144506	1.309556
H301	H	0.631865	-0.375401	0.785463
H302	H	1.131865	0.124599	1.285463
H303	H	0.671775	-0.378279	0.830863
H304	H	1.171775	0.121721	1.330863
H305	H	0.629033	-0.335479	0.830849
H306	H	1.129033	0.164521	1.330849
H307	H	0.816333	-1.052391	0.191464
H308	H	1.316333	-0.552391	0.691464
H309	H	0.305283	-0.157721	0.158103
H310	H	0.805283	0.342279	0.658103
C311	C	0.198431	-0.148153	0.148586
C312	C	0.698431	0.351847	0.648586
H313	H	0.162000	-0.152945	0.153365
H314	H	0.662000	0.347055	0.653365
H315	H	0.207413	-0.113040	0.156315
H316	H	0.707413	0.386960	0.656315
H317	H	0.207356	-0.155743	0.113437
H318	H	0.707356	0.344257	0.613437
C319	C	-0.052762	-0.322329	0.322160
C320	C	0.447238	0.177671	0.822160
H321	H	-0.089191	-0.317529	0.317385
H322	H	0.410809	0.182471	0.817385
H323	H	-0.043840	-0.357449	0.314448
H324	H	0.456160	0.142551	0.814448
H325	H	-0.043793	-0.314723	0.357304
H326	H	0.456207	0.185277	0.857304
H327	H	0.556449	-0.312723	0.312530
H328	H	1.056449	0.187277	0.812530
H329	H	0.457399	-0.312726	0.312556
H330	H	0.957399	0.187274	0.812556
H331	H	0.661350	-0.702225	0.346042
H332	H	1.161350	-0.202225	0.846042
H333	H	0.054103	-0.312760	0.312609
H334	H	0.554103	0.187240	0.812609
H335	H	0.661376	-0.801275	0.346049
H336	H	1.161376	-0.301275	0.846049
C337	C	0.685317	-0.945596	0.322196
C338	C	1.185317	-0.445596	0.822196
H339	H	0.665396	-0.969691	0.342084
H340	H	1.165396	-0.469691	0.842084
H341	H	0.705290	-0.924267	0.344999
H342	H	1.205290	-0.424267	0.844999
H343	H	0.662540	-0.924327	0.302166
H344	H	1.162540	-0.424327	0.802166
C345	C	0.685179	-0.557912	0.322155
C346	C	1.185179	-0.057912	0.822155
H347	H	0.665246	-0.533840	0.342045
H348	H	1.165246	-0.033840	0.842045
H349	H	0.662420	-0.579249	0.302138
H350	H	1.162420	-0.079249	0.802138
H351	H	0.705179	-0.579177	0.344963
H352	H	1.205179	-0.079177	0.844963
C353	C	0.685140	-0.443243	0.322140
C354	C	1.185140	0.056757	0.822140
H355	H	0.689926	-0.406811	0.317352
H356	H	1.189926	0.093189	0.817352
H357	H	0.650017	-0.452224	0.314458
H358	H	1.150017	0.047776	0.814458
H359	H	0.692779	-0.452167	0.357280
H360	H	1.192779	0.047833	0.857280
H361	H	0.816229	-0.191272	0.550645
H362	H	1.316229	0.308728	1.050645
C363	C	0.061900	-0.181676	0.181955
C364	C	0.561900	0.318324	0.681955
H365	H	0.037815	-0.161742	0.162079
H366	H	0.537815	0.338258	0.662079
H367	H	0.083223	-0.158920	0.201990
H368	H	0.583223	0.341080	0.701990
H369	H	0.083177	-0.201644	0.159132
H370	H	0.583177	0.298356	0.659132
C371	C	0.449584	-0.181646	0.181902
C372	C	0.949584	0.318354	0.681902
H373	H	0.473666	-0.161700	0.162023
H374	H	0.973666	0.338300	0.662023
H375	H	0.428256	-0.201609	0.159088
H376	H	0.928256	0.298391	0.659088
H377	H	0.428312	-0.158893	0.201953
H378	H	0.928312	0.341107	0.701953
H379	H	0.849709	-0.801185	0.158037
H380	H	1.349709	-0.301185	0.658037
C381	C	0.859293	-0.148232	0.809634
C382	C	1.359293	0.351768	1.309634
H383	H	0.854512	-0.153006	0.846064
H384	H	1.354512	0.346994	1.346064
H385	H	0.894411	-0.155899	0.800684
H386	H	1.394411	0.344101	1.300684
H387	H	0.851668	-0.113100	0.800687
H388	H	1.351668	0.386900	1.300687
C389	C	0.564251	-0.181635	0.181890
C390	C	1.064251	0.318365	0.681890
H391	H	0.540174	-0.161691	0.162014
H392	H	1.040174	0.338309	0.662014
H393	H	0.585572	-0.158888	0.201937
H394	H	1.085572	0.341112	0.701937
H395	H	0.585531	-0.201599	0.159067
H396	H	1.085531	0.298401	0.659067
C397	C	0.825718	-0.557825	0.181861
C398	C	1.325718	-0.057825	0.681861
H399	H	0.845629	-0.533729	0.161964
H400	H	1.345629	-0.033729	0.661964
H401	H	0.848497	-0.579097	0.201882
H402	H	1.348497	-0.079097	0.701882
H403	H	0.805737	-0.579153	0.159058
H404	H	1.305737	-0.079153	0.659058
H405	H	0.816221	-0.191310	0.451595
H406	H	1.316221	0.308690	0.951595
H407	H	0.816288	-0.191174	0.953941
H408	H	1.316288	0.308826	1.453941
C409	C	0.825862	-0.181601	1.060809
C410	C	1.325862	0.318399	1.560809
H411	H	0.821070	-0.186381	1.097237
H412	H	1.321070	0.313619	1.597237
H413	H	0.860985	-0.189261	1.051870
H414	H	1.360985	0.310739	1.551870
H415	H	0.818235	-0.146469	1.051866
H416	H	1.318235	0.353531	1.551866
C417	C	0.651801	-0.355534	0.694905
C418	C	1.151801	0.144466	1.194905
H419	H	0.631882	-0.375442	0.718981
H420	H	1.131882	0.124558	1.218981
H421	H	0.629029	-0.335547	0.673592
H422	H	1.129029	0.164453	1.173592
H423	H	0.671794	-0.378324	0.673615
H424	H	1.171794	0.121676	1.173615
