data_functionalizedCrystal
_audit_creation_method	'MofGen! by Chris Wilmer'
_symmetry_space_group_name_H-M	'P1'
_symmetry_Int_Tables_number	1
_symmetry_cell_setting	triclinic
loop_
_symmetry_equiv_pos_as_xyz
  x,y,z
_cell_length_a	14.908571
_cell_length_b	16.994746
_cell_length_c	14.908308
_cell_angle_alpha	86.704843
_cell_angle_beta	89.824947
_cell_angle_gamma	86.707907
loop_
_atom_site_label
_atom_site_type_symbol
_atom_site_fract_x
_atom_site_fract_y
_atom_site_fract_z
Zn1	Zn	1.345367	-0.411654	0.587812
Zn2	Zn	1.353969	-0.536423	0.437522
Zn3	Zn	1.203680	-0.396503	0.428801
Zn4	Zn	1.194997	-0.535486	0.579173
O5	O	1.274503	-0.470016	0.508327
O6	O	1.472335	-0.434938	0.575140
O7	O	1.341267	-0.511914	0.310537
O8	O	1.222509	-0.288131	0.449860
O9	O	1.478655	-0.526605	0.464723
O10	O	1.326606	-0.299263	0.566684
O11	O	1.230850	-0.409115	0.304130
O12	O	1.076701	-0.408206	0.441483
O13	O	1.207710	-0.525008	0.706147
O14	O	1.070321	-0.510316	0.551961
O15	O	1.318186	-0.434029	0.712494
O16	O	1.332847	-0.646680	0.456346
O17	O	1.216051	-0.645991	0.560417
C18	C	1.040885	-0.457516	0.494839
C19	C	0.940941	-0.452188	0.489090
C20	C	1.274451	-0.674957	0.508388
C21	C	1.274459	-0.764279	0.508396
Zn22	Zn	1.203836	-1.027568	0.428655
Zn23	Zn	1.354104	-0.903674	0.437630
Zn24	Zn	1.345279	-1.042740	0.587884
Zn25	Zn	1.194913	-0.902883	0.579036
O26	O	1.274533	-0.969216	0.508301
O27	O	1.231198	-1.005115	0.304029
O28	O	1.478749	-0.928803	0.465020
O29	O	1.326557	-1.151108	0.566709
O30	O	1.341598	-0.914091	0.310623
O31	O	1.222640	-1.139961	0.449724
O32	O	1.472265	-1.030974	0.575411
O33	O	1.317904	-1.030206	0.712527
O34	O	1.070281	-0.912741	0.551628
O35	O	1.207431	-0.927453	0.706026
O36	O	1.076837	-1.004347	0.441144
O37	O	1.332946	-0.793189	0.456441
O38	O	1.215989	-0.792607	0.560331
C39	C	0.746551	-0.548654	0.593173
C40	C	0.652644	-0.543650	0.587774
C41	C	0.659220	-0.437175	0.472899
C42	C	0.753127	-0.442179	0.478298
C43	C	0.796789	-0.497920	0.538436
C44	C	0.890697	-0.502927	0.543829
C45	C	0.897271	-0.396449	0.428959
C46	C	0.803364	-0.391445	0.423561
C47	C	1.509033	-0.482566	0.521868
C48	C	1.608976	-0.487914	0.527639
C49	C	1.261020	-0.481104	0.742858
C50	C	1.255274	-0.485829	0.842802
C51	C	1.274560	-0.264276	0.508260
C52	C	1.274588	-0.174954	0.508232
C53	C	1.287986	-0.458918	0.274711
C54	C	1.293906	-0.453980	0.174778
C55	C	1.359514	-0.399953	1.037216
C56	C	1.354118	-0.404390	1.131122
C57	C	1.239083	-0.499135	1.124521
C58	C	1.244479	-0.494698	1.030615
C59	C	1.304697	-0.445106	0.986966
C60	C	1.310097	-0.440674	0.893059
C61	C	1.195058	-0.535414	0.886459
C62	C	1.189662	-0.539851	0.980364
C63	C	1.260741	-0.980390	0.741899
C64	C	1.254820	-0.985150	0.841832
C65	C	1.040024	-0.956763	0.494398
C66	C	0.940090	-0.951457	0.488474
C67	C	1.288378	-0.957999	0.273791
C68	C	1.294278	-0.953218	0.173857
C69	C	1.508133	-0.981674	0.522099
C70	C	1.608076	-0.987193	0.527852
C71	C	1.194605	-0.933812	0.885362
C72	C	1.189024	-0.938283	0.979259
C73	C	1.243662	-0.994089	1.029624
C74	C	1.303879	-1.045432	0.986088
C75	C	1.309456	-1.040964	0.892193
C76	C	0.896569	-0.996665	0.428168
C77	C	0.802671	-0.991695	0.422601
C78	C	0.752296	-0.941512	0.477337
C79	C	0.795823	-0.896302	0.537649
C80	C	0.889720	-0.901277	0.543220
C81	C	1.354566	-1.004477	0.130306
C82	C	1.360110	-1.000002	0.036407
C83	C	1.305369	-0.944263	-0.013939
C84	C	1.245073	-0.893002	0.029617
C85	C	1.239526	-0.897482	0.123514
C86	C	1.651870	-0.941719	0.587679
C87	C	1.745776	-0.946905	0.593103
C88	C	1.795888	-0.997561	0.538693
C89	C	1.752088	-1.043040	0.478863
C90	C	1.658182	-1.037858	0.473445
H91	H	0.926245	-0.548316	0.592795
H92	H	0.767244	-1.028510	0.373486
H93	H	0.675840	-0.937468	0.472792
H94	H	1.140632	-0.580226	1.015916
N95	N	0.936651	-0.852508	0.608265
H96	H	0.921099	-0.794618	0.593351
H97	H	1.003765	-0.863332	0.603467
N98	N	1.597832	-0.887077	0.646365
H99	H	1.639836	-0.859063	0.685087
H100	H	1.556388	-0.918770	0.685975
N101	N	1.186036	-0.832885	-0.024691
H102	H	1.198709	-0.837829	-0.090780
H103	H	1.199046	-0.778077	-0.007431
N104	N	0.741489	-0.842173	0.596679
H105	H	0.700081	-0.874153	0.636016
H106	H	0.704732	-0.801822	0.557774
H107	H	1.190435	-0.855735	0.158965
H108	H	0.767802	-0.346060	0.374601
N109	N	1.413614	-1.064598	0.184597
H110	H	1.452641	-1.096388	0.142748
H111	H	1.374728	-1.101018	0.221371
H112	H	1.150424	-0.572184	0.845535
N113	N	0.793646	-0.608778	0.658025
H114	H	0.830223	-0.580831	0.701981
H115	H	0.834651	-0.645608	0.623597
N116	N	1.897171	-1.003134	0.544533
H117	H	1.922279	-1.042122	0.500987
H118	H	1.916136	-1.021417	0.607657
H119	H	1.781424	-0.909866	0.641822
H120	H	1.792903	-1.084283	0.434565
H121	H	1.622534	-1.074888	0.424722
N122	N	0.598457	-0.598370	0.646809
H123	H	0.640370	-0.634440	0.685722
H124	H	0.561595	-0.631016	0.607914
N125	N	1.135663	-0.873626	0.831047
H126	H	1.174555	-0.837204	0.794277
H127	H	1.096679	-0.841845	0.872936
N128	N	1.124075	-0.882899	1.026199
H129	H	1.158349	-0.850195	1.067349
H130	H	1.080059	-0.914585	1.062606
N131	N	0.612105	-0.377085	0.408022
H132	H	0.571034	-0.340232	0.442359
H133	H	0.575592	-0.405132	0.364107
N134	N	0.951455	-0.341729	0.369910
H135	H	1.017571	-0.353357	0.382451
H136	H	0.934240	-0.285202	0.383036
N137	N	1.425146	-1.055293	-0.010558
H138	H	1.458985	-1.091273	0.035591
H139	H	1.469042	-1.023535	-0.047039
N140	N	1.375047	-0.387192	0.845977
H141	H	1.408952	-0.359260	0.892063
H142	H	1.340693	-0.346892	0.804888
H143	H	1.348362	-1.090869	1.027109
N144	N	1.424477	-0.346488	0.990128
H145	H	1.390200	-0.306138	0.949034
H146	H	1.468348	-0.379012	0.953642
N147	N	1.413233	-0.355682	1.185322
H148	H	1.452195	-0.323592	1.143418
H149	H	1.452601	-0.391850	1.226700
N150	N	1.374414	-1.096327	0.845242
H151	H	1.340148	-1.129038	0.804094
H152	H	1.408166	-1.132302	0.891454
N153	N	1.311359	-0.939434	-0.115214
H154	H	1.357863	-0.980366	-0.135156
H155	H	1.329175	-0.885098	-0.136761
N156	N	0.950890	-1.050792	0.369125
H157	H	0.909060	-1.078674	0.330084
H158	H	0.987704	-1.091111	0.408017
H159	H	1.190056	-0.539510	1.160076
H160	H	1.239114	-0.997718	1.106079
