data_functionalizedCrystal
_audit_creation_method	'MofGen! by Chris Wilmer'
_symmetry_space_group_name_H-M	'P1'
_symmetry_Int_Tables_number	1
_symmetry_cell_setting	triclinic
loop_
_symmetry_equiv_pos_as_xyz
  x,y,z
_cell_length_a	17.077404
_cell_length_b	12.759394
_cell_length_c	17.077396
_cell_angle_alpha	89.973684
_cell_angle_beta	89.980499
_cell_angle_gamma	90.015062
loop_
_atom_site_label
_atom_site_type_symbol
_atom_site_fract_x
_atom_site_fract_y
_atom_site_fract_z
Zn1	Zn	1.200099	-0.418260	-0.443855
Zn2	Zn	1.700099	0.081740	0.056145
Zn3	Zn	1.200024	-0.593961	-0.312593
Zn4	Zn	1.700024	-0.093961	0.187407
Zn5	Zn	1.068830	-0.418297	-0.312602
Zn6	Zn	1.568830	0.081703	0.187398
Zn7	Zn	1.068817	-0.593898	-0.443817
Zn8	Zn	1.568817	-0.093898	0.056183
O9	O	1.134442	-0.506104	-0.378217
O10	O	1.634442	-0.006104	0.121783
O11	O	1.309936	-0.441578	-0.426454
O12	O	1.809936	0.058422	0.073546
O13	O	1.182595	-0.570700	-0.202748
O14	O	1.682595	-0.070700	0.297252
O15	O	1.086280	-0.271271	-0.330033
O16	O	1.586280	0.228729	0.169967
O17	O	1.309881	-0.570664	-0.330017
O18	O	1.809881	-0.070664	0.169983
O19	O	1.182722	-0.271244	-0.426463
O20	O	1.682722	0.228756	0.073537
O21	O	1.086208	-0.441641	-0.202754
O22	O	1.586208	0.058359	0.297246
O23	O	0.958982	-0.441580	-0.329996
O24	O	1.458982	0.058420	0.170004
O25	O	1.086257	-0.570558	-0.553669
O26	O	1.586257	-0.070558	-0.053669
O27	O	0.958972	-0.570594	-0.426399
O28	O	1.458972	-0.070594	0.073601
O29	O	1.182709	-0.441517	-0.553697
O30	O	1.682709	0.058483	-0.053697
O31	O	1.182582	-0.740974	-0.329981
O32	O	1.682582	-0.240974	0.170019
O33	O	1.086185	-0.740928	-0.426391
O34	O	1.586185	-0.240928	0.073609
C35	C	0.930495	-0.506085	-0.378195
C36	C	1.430495	-0.006085	0.121805
C37	C	0.843245	-0.506102	-0.378205
C38	C	1.343245	-0.006102	0.121795
C39	C	0.802270	-0.573381	-0.428321
C40	C	1.302270	-0.073381	0.071679
C41	C	0.720290	-0.573383	-0.428334
C42	C	1.220290	-0.073383	0.071666
C43	C	0.679285	-0.506111	-0.378225
C44	C	1.179285	-0.006111	0.121775
C45	C	0.720266	-0.438825	-0.328107
C46	C	1.220266	0.061175	0.171893
C47	C	0.802245	-0.438818	-0.328099
C48	C	1.302245	0.061182	0.171901
C49	C	0.549396	-0.438846	-0.328125
C50	C	1.049396	0.061154	0.171875
C51	C	0.467411	-0.438854	-0.328132
C52	C	0.967411	0.061146	0.171868
C53	C	0.467441	-0.573411	-0.428360
C54	C	0.967441	-0.073411	0.071640
C55	C	0.549419	-0.573404	-0.428352
C56	C	1.049419	-0.073404	0.071648
C57	C	0.590394	-0.506119	-0.378233
C58	C	1.090394	-0.006119	0.121767
C59	C	1.134395	-0.779072	-0.378198
C60	C	1.634395	-0.279072	0.121802
C61	C	1.134447	-0.895848	-0.378216
C62	C	1.634447	-0.395848	0.121784
C63	C	1.234901	-0.895843	-0.277900
C64	C	1.734901	-0.395843	0.222100
C65	C	1.285148	-0.950701	-0.227751
C66	C	1.785148	-0.450701	0.272249
C67	C	1.285194	-1.060422	-0.227773
C68	C	1.785194	-0.560422	0.272227
C69	C	1.234989	-1.115288	-0.277950
C70	C	1.734989	-0.615288	0.222050
C71	C	1.184742	-1.060430	-0.328099
C72	C	1.684742	-0.560430	0.171901
C73	C	1.184700	-0.950706	-0.328070
C74	C	1.684700	-0.450706	0.171930
C75	C	1.084293	-1.060436	-0.428417
C76	C	1.584293	-0.560436	0.071583
C77	C	1.084242	-0.950714	-0.428393
C78	C	1.584242	-0.450714	0.071607
C79	C	1.034088	-1.115302	-0.478594
C80	C	1.534088	-0.615302	0.021406
C81	C	0.983835	-1.060444	-0.528740
C82	C	1.483835	-0.560444	-0.028740
C83	C	0.983791	-0.950716	-0.528716
C84	C	1.483791	-0.450716	-0.028716
C85	C	1.033994	-0.895856	-0.478542
C86	C	1.533994	-0.395856	0.021458
C87	C	1.339187	-0.506124	-0.378239
C88	C	1.839187	-0.006124	0.121761
C89	C	1.426436	-0.506132	-0.378249
C90	C	1.926436	-0.006132	0.121751
C91	C	1.134490	-0.506027	-0.582961
C92	C	1.634490	-0.006027	-0.082961
C93	C	1.134510	-0.505994	-0.670211
C94	C	1.634510	-0.005994	-0.170211
C95	C	1.134511	-0.232071	-0.378253
C96	C	1.634511	0.267929	0.121747
C97	C	1.134540	-0.115294	-0.378269
C98	C	1.634540	0.384706	0.121731
C99	C	1.184735	-0.438797	-0.711217
C100	C	1.684735	0.061203	-0.211217
C101	C	1.184744	-0.438762	-0.793197
C102	C	1.684744	0.061238	-0.293197
C103	C	1.134532	-0.505930	-0.834171
C104	C	1.634532	-0.005930	-0.334171
C105	C	1.084302	-0.573130	-0.793159
C106	C	1.584302	-0.073130	-0.293159
C107	C	1.084290	-0.573159	-0.711180
C108	C	1.584290	-0.073159	-0.211180
C109	C	1.084334	-0.573067	-0.964029
C110	C	1.584334	-0.073067	-0.464029
C111	C	1.084348	-0.573039	-1.046014
C112	C	1.584348	-0.073039	-0.546014
C113	C	1.184788	-0.438670	-1.046047
C114	C	1.684788	0.061330	-0.546047
C115	C	1.184776	-0.438699	-0.964068
C116	C	1.684776	0.061301	-0.464068
C117	C	1.134546	-0.505900	-0.923062
C118	C	1.634546	-0.005900	-0.423062
C119	C	1.134440	-0.506105	-0.174269
C120	C	1.634440	-0.006105	0.325731
C121	C	1.134572	-0.505842	-0.087020
C122	C	1.634572	-0.005842	0.412980
H123	H	0.582803	-0.628188	-0.469151
H124	H	1.082803	-0.128188	0.030849
H125	H	1.225625	-0.384104	-0.677862
H126	H	1.725625	0.115896	-0.177862
H127	H	0.582755	-0.384046	-0.287319
H128	H	1.082755	0.115954	0.212681
H129	H	0.942966	-1.105125	-0.569594
H130	H	1.442966	-0.605125	-0.069594
H131	H	0.686931	-0.628169	-0.469143
H132	H	1.186931	-0.128169	0.030857
H133	H	1.034132	-1.204643	-0.478612
H134	H	1.534132	-0.704643	0.021388
H135	H	1.225644	-0.384046	-0.826581
H136	H	1.725644	0.115954	-0.326581
H137	H	1.043416	-0.627816	-0.826526
H138	H	1.543416	-0.127816	-0.326526
O139	O	1.030109	-0.645621	-0.666946
O140	O	1.530109	-0.145621	-0.166946
H141	H	0.995196	-0.692324	-0.709208
H142	H	1.495196	-0.192324	-0.209208
O143	O	1.235043	-1.233631	-0.277983
O144	O	1.735043	-0.733631	0.222017
H145	H	1.175856	-1.262645	-0.262081
H146	H	1.675856	-0.762645	0.237919
H147	H	1.234858	-0.806502	-0.277868
H148	H	1.734858	-0.306502	0.222132
O149	O	0.676039	-0.366264	-0.274064
O150	O	1.176039	0.133736	0.225936
H151	H	0.718307	-0.319472	-0.239219
H152	H	1.218307	0.180528	0.260781
H153	H	1.326027	-0.906019	-0.186899
H154	H	1.826027	-0.406019	0.313101
O155	O	0.846446	-0.366267	-0.274036
O156	O	1.346446	0.133733	0.225964
H157	H	0.804162	-0.319499	-0.239185
H158	H	1.304162	0.180501	0.260815
H159	H	0.835650	-0.628165	-0.469123
H160	H	1.335650	-0.128165	0.030877
O161	O	0.929586	-0.891547	-0.582798
O162	O	1.429586	-0.391547	-0.082798
H163	H	0.894681	-0.948136	-0.617682
H164	H	1.394681	-0.448136	-0.117682
O165	O	0.423254	-0.645978	-0.482427
O166	O	0.923254	-0.145978	0.017573
H167	H	0.359360	-0.634673	-0.474024
H168	H	0.859360	-0.134673	0.025976
H169	H	1.033958	-0.806515	-0.478512
H170	H	1.533958	-0.306515	0.021488
H171	H	1.043420	-0.627773	-0.930645
H172	H	1.543420	-0.127773	-0.430645
O173	O	1.339403	-1.119581	-0.173690
O174	O	1.839403	-0.619581	0.326310
H175	H	1.379346	-1.169477	-0.208877
H176	H	1.879346	-0.669477	0.291123
O177	O	1.238934	-0.366261	-0.919870
O178	O	1.738934	0.133739	-0.419870
H179	H	1.273860	-0.319521	-0.962154
H180	H	1.773860	0.180479	-0.462154
O181	O	1.238960	-0.366175	-1.090267
O182	O	1.738960	0.133825	-0.590267
H183	H	1.230527	-0.377424	-1.154155
H184	H	1.730527	0.122576	-0.654155
O185	O	1.030185	-0.645472	-1.090212
O186	O	1.530185	-0.145472	-0.590212
H187	H	0.995246	-0.692194	-1.047927
H188	H	1.495246	-0.192194	-0.547927
H189	H	0.434028	-0.384062	-0.287339
H190	H	0.934028	0.115938	0.212661
