data_functionalizedCrystal
_audit_creation_method	'MofGen! by Chris Wilmer'
_symmetry_space_group_name_H-M	'P1'
_symmetry_Int_Tables_number	1
_symmetry_cell_setting	triclinic
loop_
_symmetry_equiv_pos_as_xyz
  x,y,z
_cell_length_a	13.032721
_cell_length_b	11.169417
_cell_length_c	11.169409
_cell_angle_alpha	89.978317
_cell_angle_beta	82.853997
_cell_angle_gamma	82.796695
loop_
_atom_site_label
_atom_site_type_symbol
_atom_site_fract_x
_atom_site_fract_y
_atom_site_fract_z
Zn1	Zn	-0.415978	-1.774202	0.739228
Zn2	Zn	-0.590765	-1.748560	0.564019
Zn3	Zn	-0.416036	-1.573479	0.538565
Zn4	Zn	-0.590674	-1.547978	0.764644
O5	O	-0.503363	-1.661055	0.651614
O6	O	-0.439178	-1.938748	0.716003
O7	O	-0.567649	-1.725277	0.392702
O8	O	-0.269792	-1.621509	0.543893
O9	O	-0.567593	-1.919909	0.587277
O10	O	-0.269750	-1.768979	0.691320
O11	O	-0.439276	-1.596645	0.374000
O12	O	-0.439188	-1.402149	0.568538
O13	O	-0.567438	-1.578045	0.929214
O14	O	-0.567494	-1.383413	0.734638
O15	O	-0.439089	-1.744251	0.910541
O16	O	-0.736989	-1.700549	0.611922
O17	O	-0.736922	-1.553182	0.759321
C18	C	-0.503338	-1.349234	0.651585
C19	C	-0.503353	-1.215831	0.651605
C20	C	-0.774873	-1.621348	0.691168
C21	C	-0.891026	-1.604472	0.708129
C22	C	-0.942809	-1.669926	0.642816
C23	C	-1.062860	-1.652485	0.660345
C24	C	-0.230793	-1.700949	0.611932
C25	C	-0.114640	-1.717949	0.595022
C26	C	-0.503247	-1.661164	0.964640
C27	C	-0.503198	-1.661210	1.098033
C28	C	-0.503380	-0.974094	0.651634
C29	C	-0.503365	-1.107497	0.651614
C30	C	-0.503403	-1.661026	0.339795
C31	C	-0.503159	-1.661255	0.206360
H32	H	-1.107399	-1.583535	0.729248
C33	C	-1.080942	-1.781388	0.386957
C34	C	-1.054530	-1.811042	0.502007
H35	H	-1.043837	-1.838865	0.329538
H36	H	-1.063168	-1.703334	0.366751
H37	H	-1.153734	-1.781877	0.386553
H38	H	-0.981739	-1.810545	0.502413
H39	H	-1.072298	-1.889117	0.522218
C40	C	-0.924943	-1.396323	0.771333
C41	C	-0.951144	-1.511388	0.801141
H42	H	-0.962052	-1.338859	0.828762
H43	H	-0.942856	-1.376224	0.693286
H44	H	-0.852152	-1.395846	0.771755
H45	H	-1.023934	-1.511866	0.800710
H46	H	-0.933238	-1.531491	0.879208
C47	C	-0.909098	-1.733351	0.434753
C48	C	-0.882689	-1.763008	0.549804
H49	H	-0.871987	-1.790822	0.377332
H50	H	-0.891329	-1.655293	0.414554
H51	H	-0.981889	-1.733846	0.434345
H52	H	-0.809899	-1.762504	0.550214
H53	H	-0.900451	-1.841086	0.570008
