data_functionalizedCrystal
_audit_creation_method	'MofGen! by Chris Wilmer'
_symmetry_space_group_name_H-M	'P1'
_symmetry_Int_Tables_number	1
_symmetry_cell_setting	triclinic
loop_
_symmetry_equiv_pos_as_xyz
  x,y,z
_cell_length_a	10.654559
_cell_length_b	14.044190
_cell_length_c	9.730223
_cell_angle_alpha	89.993542
_cell_angle_beta	89.999563
_cell_angle_gamma	88.840230
loop_
_atom_site_label
_atom_site_type_symbol
_atom_site_fract_x
_atom_site_fract_y
_atom_site_fract_z
O1	O	1.681224	0.133270	-0.114315
O2	O	1.317022	0.145954	-0.114318
O3	O	1.493652	0.001591	-0.114289
O4	O	1.504594	0.277633	-0.114343
O5	O	1.493650	0.001595	0.114291
O6	O	1.317020	0.145958	0.114262
O7	O	1.681222	0.133273	0.114265
Zn8	Zn	1.499121	0.139616	0.150556
Zn9	Zn	1.499123	0.139611	-0.150608
O10	O	1.504592	0.277636	0.114237
C11	C	1.270129	0.145023	-0.000028
C12	C	1.130406	0.142231	-0.000027
C13	C	1.070058	0.054608	-0.000007
C14	C	0.938773	0.051990	-0.000016
C15	C	0.928195	0.224626	-0.000062
C16	C	1.059478	0.227243	-0.000062
C17	C	1.140987	-0.030404	0.000028
C18	C	1.080639	-0.118034	0.000050
C19	C	0.949354	-0.120652	0.000040
C20	C	0.878416	-0.035639	0.000008
C21	C	1.488864	-0.033753	0.000005
C22	C	1.474585	-0.139073	0.000017
C23	C	1.549750	-0.388864	-0.000037
C24	C	1.448500	-0.331903	-0.000028
C25	C	1.463017	-0.224603	-0.000003
C26	C	1.535235	-0.496174	-0.000061
C27	C	1.728115	0.134205	-0.000028
C28	C	1.867838	0.136997	-0.000037
C29	C	1.509380	0.312981	-0.000060
C30	C	1.523659	0.418301	-0.000081
N31	N	1.499128	0.139619	0.356092
N32	N	1.499125	0.139601	-0.356145
C33	C	1.577364	0.075717	0.428031
C34	C	1.577360	0.075705	0.571914
C35	C	1.420880	0.203506	0.571907
C36	C	1.420879	0.203513	0.428026
C37	C	1.655613	0.011823	0.356096
C38	C	1.733856	-0.052083	0.428035
C39	C	1.733852	-0.052095	0.571918
C40	C	1.655604	0.011800	0.643862
H41	H	1.138405	-0.187248	0.000064
N42	N	1.275089	-0.027715	0.000022
N43	N	1.328957	0.050528	-0.000003
H44	H	1.423667	0.052431	-0.000006
H45	H	1.350914	-0.363722	-0.000036
N46	N	1.672163	-0.348953	0.000022
N47	N	1.746493	-0.366992	0.096390
H48	H	1.832947	-0.338795	0.096440
H49	H	0.900223	-0.192004	0.000045
N50	N	1.655572	0.011776	0.790836
N51	N	1.626569	-0.061662	0.855054
H52	H	1.626547	-0.061678	0.958853
H53	H	1.655627	0.011829	0.238940
N54	N	1.813758	-0.117351	0.354532
N55	N	1.813751	-0.117336	0.226069
H56	H	1.870181	-0.163433	0.174157
H57	H	1.797551	-0.104136	0.630489
H58	H	1.357171	0.255547	0.369453
N59	N	0.744312	-0.038328	0.000005
N60	N	0.688072	-0.078034	0.096361
H61	H	0.593361	-0.079934	0.096365
N62	N	0.855719	0.311450	-0.000095
N63	N	0.738504	0.309100	-0.000093
H64	H	0.687317	0.370420	-0.000113
H65	H	1.108614	0.298593	-0.000066
N66	N	1.340964	0.268761	0.645413
N67	N	1.340976	0.268746	0.773876
H68	H	1.284535	0.314834	0.825791
