data_functionalizedCrystal
_audit_creation_method	'MofGen! by Chris Wilmer'
_symmetry_space_group_name_H-M	'P1'
_symmetry_Int_Tables_number	1
_symmetry_cell_setting	triclinic
loop_
_symmetry_equiv_pos_as_xyz
  x,y,z
_cell_length_a	15.944564
_cell_length_b	14.421503
_cell_length_c	16.109301
_cell_angle_alpha	89.997132
_cell_angle_beta	96.517292
_cell_angle_gamma	89.996857
loop_
_atom_site_label
_atom_site_type_symbol
_atom_site_fract_x
_atom_site_fract_y
_atom_site_fract_z
O1	O	-1.114487	0.077018	0.107267
O2	O	-0.869935	0.077041	0.120476
O3	O	-0.998929	0.077020	-0.007157
O4	O	-0.985493	0.077040	0.234900
O5	O	-0.998908	-0.077204	-0.007138
O6	O	-0.869913	-0.077182	0.120495
O7	O	-1.114466	-0.077205	0.107286
Cu8	Cu	-0.992188	-0.091276	0.113892
Cu9	Cu	-0.992213	0.091112	0.113870
O10	O	-0.985471	-0.077184	0.234919
C11	C	-0.838630	-0.000067	0.119935
C12	C	-0.745385	-0.000059	0.118286
C13	C	-0.530557	-0.000084	0.035227
C14	C	-0.469536	0.075960	0.073780
C15	C	-0.574662	-0.000070	0.115301
C16	C	-0.469537	-0.076092	0.073818
C17	C	-0.409751	-0.000085	0.112413
C18	C	-0.514868	0.076036	0.153877
C19	C	-0.514875	-0.076084	0.153903
C20	C	-0.453871	-0.000022	0.192515
C21	C	-0.669663	-0.000061	0.116963
C22	C	-0.314751	-0.000088	0.110757
N23	N	-0.992176	-0.219557	0.113908
C24	C	-0.932518	-0.469200	0.172899
C25	C	-1.008413	-0.531009	0.189043
C26	C	-0.992196	-0.408718	0.113888
C27	C	-0.916322	-0.531004	0.097763
C28	C	-0.992209	-0.591440	0.113870
C29	C	-1.068129	-0.469166	0.130070
C30	C	-0.975988	-0.469155	0.038756
C31	C	-1.051937	-0.530936	0.054869
C32	C	-0.992188	-0.303457	0.113900
C33	C	-0.992227	-0.696699	0.113858
C34	C	-0.145772	-0.000095	0.107815
C35	C	-0.239021	-0.000097	0.109431
C36	C	-0.998374	-0.000093	-0.038123
C37	C	-0.996742	-0.000094	-0.130418
N38	N	-0.992231	0.219393	0.113848
C39	C	-1.069491	-0.000086	-0.352664
C40	C	-1.067951	-0.000078	-0.439385
C41	C	-0.914904	-0.000067	-0.419567
C42	C	-0.916444	-0.000068	-0.332848
C43	C	-0.993740	-0.000082	-0.299399
C44	C	-0.990660	-0.000073	-0.472839
C45	C	-0.988990	-0.000065	-0.566866
C46	C	-0.995411	-0.000089	-0.205366
C47	C	-0.986026	-0.000069	0.265885
C48	C	-0.987658	-0.000062	0.358181
H49	H	-0.534986	-0.140371	0.187751
C50	C	-1.151278	-0.000085	-0.497977
C51	C	-1.236297	-0.000098	-0.461180
C52	C	-1.319628	-0.000103	-0.519772
C53	C	-1.317940	-0.000094	-0.615161
C54	C	-1.232919	-0.000081	-0.651963
C55	C	-1.149588	-0.000076	-0.593371
H56	H	-1.237549	-0.000105	-0.390563
H57	H	-1.382567	-0.000113	-0.492529
H58	H	-1.379627	-0.000097	-0.658534
H59	H	-1.231667	-0.000074	-0.722580
H60	H	-1.086649	-0.000066	-0.620614
C61	C	-0.442404	-0.162944	0.028062
C62	C	-0.461393	-0.260174	0.060754
C63	C	-0.434263	-0.347020	0.014992
C64	C	-0.388144	-0.336634	-0.063461
C65	C	-0.369152	-0.239400	-0.096156
C66	C	-0.396281	-0.152554	-0.050395
H67	H	-0.495536	-0.267866	0.118833
H68	H	-0.448323	-0.418999	0.039196
H69	H	-0.368060	-0.400923	-0.097336
H70	H	-0.335009	-0.231708	-0.154236
H71	H	-0.382222	-0.080575	-0.074599
C72	C	-0.864411	-0.432568	0.240363
C73	C	-0.792151	-0.371495	0.215330
C74	C	-0.724050	-0.334861	0.282795
C75	C	-0.728208	-0.359300	0.375294
C76	C	-0.800471	-0.420377	0.400333
C77	C	-0.868572	-0.457011	0.332867
H78	H	-0.789071	-0.353401	0.146852
H79	H	-0.670556	-0.289648	0.264260
H80	H	-0.677795	-0.332182	0.425236
H81	H	-0.803551	-0.438471	0.468810
H82	H	-0.922066	-0.502224	0.351403
H83	H	-1.022134	-0.558177	0.252572
H84	H	-0.852150	-0.558169	0.084132
C85	C	-1.154840	-0.432634	0.148591
C86	C	-1.170845	-0.327475	0.152059
C87	C	-1.257553	-0.290941	0.170583
C88	C	-1.328257	-0.359568	0.185639
C89	C	-1.312254	-0.464734	0.182172
C90	C	-1.225546	-0.501267	0.163648
H91	H	-1.118504	-0.276668	0.140913
H92	H	-1.269398	-0.213090	0.173150
H93	H	-1.392443	-0.332523	0.199352
H94	H	-1.364596	-0.515541	0.193318
H95	H	-1.213701	-0.579118	0.161081
C96	C	-0.957422	-0.432412	-0.047038
C97	C	-0.873476	-0.456762	-0.080600
C98	C	-0.854898	-0.420016	-0.166394
C99	C	-0.920266	-0.358920	-0.218626
C100	C	-1.004217	-0.334567	-0.185066
C101	C	-1.022795	-0.371313	-0.099272
H102	H	-0.825081	-0.501992	-0.041933
H103	H	-0.792751	-0.438044	-0.191237
H104	H	-0.906513	-0.331719	-0.282136
H105	H	-1.052612	-0.289338	-0.223732
H106	H	-1.084942	-0.353285	-0.074428
H107	H	-1.132430	-0.000095	-0.325433
H108	H	-1.102465	-0.557872	0.004955
H109	H	-0.563912	0.000005	-0.031226
H110	H	-0.854755	-0.000063	-0.289477
C111	C	-0.442293	0.162734	0.027985
C112	C	-0.476451	0.179383	-0.064101
C113	C	-0.449167	0.266122	-0.109918
C114	C	-0.387727	0.336211	-0.063649
C115	C	-0.353566	0.319564	0.028441
C116	C	-0.380849	0.232826	0.074259
H117	H	-0.521936	0.127497	-0.098356
H118	H	-0.474456	0.278444	-0.178089
H119	H	-0.367530	0.400420	-0.097566
H120	H	-0.308080	0.371450	0.062697
H121	H	-0.355560	0.220503	0.142430
C122	C	-0.541857	0.162991	0.199577
C123	C	-0.603747	0.232763	0.153468
C124	C	-0.630737	0.319719	0.199162
C125	C	-0.595838	0.336903	0.290965
C126	C	-0.533945	0.267129	0.337079
C127	C	-0.506954	0.180173	0.291385
H128	H	-0.629584	0.220044	0.085505
H129	H	-0.676555	0.371369	0.165025
H130	H	-0.615818	0.401273	0.324791
H131	H	-0.508107	0.279849	0.405042
H132	H	-0.461136	0.128523	0.325522
C133	C	-0.829881	-0.000054	-0.456364
C134	C	-0.828182	-0.000052	-0.551751
C135	C	-0.743157	-0.000038	-0.588545
C136	C	-0.659832	-0.000026	-0.529952
C137	C	-0.661529	-0.000027	-0.434559
C138	C	-0.746553	-0.000041	-0.397765
H139	H	-0.889867	-0.000061	-0.595130
H140	H	-0.741902	-0.000037	-0.659161
H141	H	-0.596892	-0.000015	-0.557189
H142	H	-0.599844	-0.000018	-0.391179
H143	H	-0.747809	-0.000042	-0.327148
H144	H	-0.420691	0.000026	0.259035
