data_functionalizedCrystal
_audit_creation_method	'MofGen! by Chris Wilmer'
_symmetry_space_group_name_H-M	'P1'
_symmetry_Int_Tables_number	1
_symmetry_cell_setting	triclinic
loop_
_symmetry_equiv_pos_as_xyz
  x,y,z
_cell_length_a	12.759395
_cell_length_b	19.121063
_cell_length_c	12.759387
_cell_angle_alpha	92.403602
_cell_angle_beta	89.979491
_cell_angle_gamma	92.470426
loop_
_atom_site_label
_atom_site_type_symbol
_atom_site_fract_x
_atom_site_fract_y
_atom_site_fract_z
Zn1	Zn	1.588336	-0.279547	-0.611793
Zn2	Zn	1.580692	-0.397015	-0.443587
Zn3	Zn	1.412632	-0.279586	-0.436132
Zn4	Zn	1.405095	-0.396965	-0.619223
O5	O	1.496689	-0.338278	-0.527684
O6	O	1.734343	-0.295134	-0.589490
O7	O	1.558353	-0.381475	-0.295580
O8	O	1.442293	-0.181296	-0.453204
O9	O	1.728726	-0.381437	-0.465911
O10	O	1.571382	-0.181268	-0.582261
O11	O	1.434881	-0.295200	-0.290102
O12	O	1.264611	-0.295151	-0.460409
O13	O	1.429447	-0.381352	-0.765256
O14	O	1.259074	-0.381389	-0.594925
O15	O	1.564074	-0.295086	-0.759797
O16	O	1.551045	-0.495293	-0.473116
O17	O	1.422034	-0.495256	-0.602155
C18	C	1.223722	-0.338270	-0.527665
C19	C	1.106944	-0.338283	-0.527683
C20	C	1.484921	-0.520758	-0.539274
C21	C	1.479982	-0.598824	-0.544267
C22	C	1.101207	-0.428228	-0.667547
C23	C	1.043477	-0.473206	-0.737482
C24	C	0.933755	-0.473214	-0.737496
C25	C	0.881761	-0.428239	-0.667569
C26	C	0.939490	-0.383261	-0.597633
C27	C	1.049215	-0.383258	-0.597625
C28	C	0.945228	-0.293313	-0.457776
C29	C	1.054950	-0.293307	-0.457756
C30	C	0.893233	-0.248337	-0.387849
C31	C	0.950963	-0.203362	-0.317907
C32	C	1.060691	-0.203356	-0.317895
C33	C	1.112679	-0.248329	-0.387821
C34	C	1.544883	-0.635495	-0.479485
C35	C	1.540245	-0.708846	-0.484187
C36	C	1.470700	-0.745525	-0.553667
C37	C	1.405796	-0.708848	-0.618456
C38	C	1.410440	-0.635499	-0.613759
C39	C	1.453319	-0.966994	-0.571215
C40	C	1.448677	-1.040349	-0.575905
C41	C	1.583128	-1.040341	-0.441637
C42	C	1.587762	-0.966990	-0.436941
C43	C	1.522862	-0.930320	-0.501734
C44	C	1.465955	-0.820501	-0.558473
C45	C	1.527613	-0.855345	-0.496933
C46	C	1.770721	-0.338287	-0.527703
C47	C	1.887498	-0.338291	-0.527711
C48	C	1.496772	-0.338209	-0.801713
C49	C	1.496808	-0.338180	-0.918488
C50	C	1.508531	-0.155086	-0.516072
C51	C	1.513578	-0.077020	-0.511123
C52	C	1.637004	-0.248357	-0.912823
C53	C	1.707117	-0.203435	-0.964851
C54	C	1.707144	-0.203409	-1.074571
C55	C	1.637048	-0.248309	-1.132266
C56	C	1.566935	-0.293231	-1.080238
C57	C	1.566918	-0.293253	-0.970516
C58	C	1.426736	-0.383050	-1.085903
C59	C	1.426712	-0.383080	-0.976183
C60	C	1.356641	-0.427949	-1.143598
C61	C	1.286531	-0.472876	-1.091570
C62	C	1.286507	-0.472900	-0.981843
C63	C	1.356599	-0.428002	-0.924155
C64	C	1.496669	-0.338296	-0.254717
C65	C	1.496849	-0.338128	-0.137931
H66	H	1.190548	-0.428231	-0.667536
C67	C	1.026787	-0.562117	-0.875737
C68	C	1.100630	-0.522641	-0.814348
H69	H	1.062070	-0.592631	-0.923195
H70	H	0.982246	-0.588946	-0.831601
H71	H	0.985977	-0.531545	-0.914062
H72	H	1.141436	-0.553213	-0.776017
H73	H	1.145190	-0.495810	-0.858489
H74	H	1.229402	-0.509474	-0.939489
C75	C	0.804272	-0.567705	-0.757864
C76	C	0.870293	-0.522653	-0.814371
H77	H	0.765091	-0.598222	-0.805326
H78	H	0.845328	-0.594530	-0.713732
H79	H	0.757611	-0.540916	-0.716222
H80	H	0.916960	-0.549442	-0.856007
H81	H	0.829234	-0.495826	-0.858520
H82	H	0.803891	-0.248344	-0.387869
C83	C	0.725783	-0.410431	-0.766454
C84	C	0.761152	-0.428247	-0.667590
H85	H	0.651324	-0.410441	-0.766466
H86	H	0.753529	-0.365125	-0.781843
H87	H	0.748496	-0.443654	-0.818099
H88	H	0.738445	-0.395021	-0.615945
H89	H	0.733395	-0.473560	-0.652188
C90	C	0.785313	-0.163434	-0.255832
C91	C	0.893809	-0.153931	-0.241047
H92	H	0.750028	-0.132920	-0.208375
H93	H	0.768035	-0.153211	-0.325794
H94	H	0.764293	-0.210615	-0.243337
H95	H	0.914831	-0.106751	-0.253550
H96	H	0.911095	-0.164149	-0.171069
H97	H	1.409329	-0.850373	-0.615042
C98	C	1.379119	-0.494735	-1.305001
C99	C	1.356667	-0.427924	-1.264204
H100	H	1.379129	-0.494721	-1.379459
H101	H	1.446119	-0.506885	-1.280961
H102	H	1.327324	-0.527906	-1.282263
H103	H	1.408467	-0.394753	-1.286935
H104	H	1.289658	-0.415766	-1.288254
C105	C	1.676537	-0.791115	-0.475198
C106	C	1.611761	-0.749091	-0.413065
H107	H	1.720747	-0.815937	-0.431314
H108	H	1.634461	-0.823505	-0.517158
H109	H	1.718348	-0.762400	-0.519249
H110	H	1.569945	-0.777806	-0.369019
H111	H	1.653842	-0.716697	-0.371087
C112	C	1.401007	-0.552945	-0.749781
C113	C	1.339101	-0.595185	-0.684969
H114	H	1.356965	-0.528062	-0.793751
H115	H	1.443080	-0.520609	-0.707727
H116	H	1.444948	-0.581522	-0.791832
H117	H	1.295166	-0.566608	-0.642912
H118	H	1.297010	-0.627525	-0.727027
C119	C	1.227654	-0.591791	-1.132881
C120	C	1.209487	-0.522226	-1.154985
H121	H	1.180085	-0.622257	-1.172030
H122	H	1.297573	-0.602065	-1.151534
H123	H	1.217606	-0.598230	-1.060088
H124	H	1.219542	-0.515785	-1.227777
H125	H	1.139551	-0.511948	-1.136339
C126	C	1.055331	-0.114449	-0.179643
C127	C	1.124144	-0.153917	-0.241013
H128	H	1.094503	-0.083931	-0.132174
H129	H	1.014293	-0.087624	-0.223791
H130	H	1.010539	-0.145026	-0.141331
H131	H	1.168931	-0.123340	-0.279331
H132	H	1.165199	-0.180744	-0.196860
H133	H	1.202020	-0.248330	-0.387815
C134	C	1.677318	-0.642863	-0.347245
C135	C	1.621330	-0.595182	-0.403109
H136	H	1.724519	-0.617975	-0.300099
H137	H	1.629750	-0.671519	-0.308855
H138	H	1.715671	-0.671426	-0.394897
H139	H	1.582971	-0.566623	-0.355456
H140	H	1.668905	-0.566514	-0.441501
H141	H	1.356591	-0.428020	-0.834815
C142	C	1.720215	-0.974354	-0.304715
C143	C	1.664221	-0.926675	-0.360579
H144	H	1.767423	-0.949463	-0.257578
H145	H	1.672651	-1.003006	-0.266316
H146	H	1.758562	-1.002920	-0.352368
H147	H	1.625869	-0.898113	-0.312926
H148	H	1.711792	-0.898011	-0.398981
H149	H	1.635967	-1.070206	-0.388888
H150	H	1.400473	-0.937143	-0.623970
C151	C	1.396001	-1.062883	-0.755217
C152	C	1.372238	-1.080672	-0.652289
H153	H	1.348816	-1.087782	-0.802368
H154	H	1.389468	-1.013958	-0.761695
H155	H	1.465831	-1.074857	-0.771397
H156	H	1.302410	-1.068693	-0.636106
H157	H	1.378761	-1.129608	-0.645808
C158	C	1.338968	-0.821290	-0.685267
C159	C	1.329347	-0.749164	-0.694828
H160	H	1.291763	-0.846176	-0.732411
H161	H	1.408783	-0.833261	-0.701476
H162	H	1.322865	-0.833348	-0.615431
H163	H	1.345458	-0.737104	-0.764663
H164	H	1.259516	-0.737188	-0.678626
H165	H	1.764230	-0.166825	-1.116932
H166	H	1.636998	-0.248380	-0.823484
H167	H	1.584241	-0.825479	-0.440366
H168	H	1.764186	-0.166877	-0.917864
H169	H	1.637068	-0.248278	-1.221605
