data_functionalizedCrystal
_audit_creation_method	'MofGen! by Chris Wilmer'
_symmetry_space_group_name_H-M	'P1'
_symmetry_Int_Tables_number	1
_symmetry_cell_setting	triclinic
loop_
_symmetry_equiv_pos_as_xyz
  x,y,z
_cell_length_a	10.685980
_cell_length_b	17.637651
_cell_length_c	10.686551
_cell_angle_alpha	75.377812
_cell_angle_beta	81.591741
_cell_angle_gamma	104.582338
loop_
_atom_site_label
_atom_site_type_symbol
_atom_site_fract_x
_atom_site_fract_y
_atom_site_fract_z
Zn1	Zn	1.931680	-0.183381	-0.802524
Zn2	Zn	1.863442	-0.331597	-0.538388
Zn3	Zn	1.695146	-0.206152	-0.566019
Zn4	Zn	1.667593	-0.331518	-0.734326
O5	O	1.789465	-0.263162	-0.660314
O6	O	2.103581	-0.193545	-0.784463
O7	O	1.824090	-0.324520	-0.361074
O8	O	1.766612	-0.088636	-0.637497
O9	O	2.053447	-0.302439	-0.590403
O10	O	1.940392	-0.071906	-0.811256
O11	O	1.700444	-0.232356	-0.381375
O12	O	1.510538	-0.232278	-0.571368
O13	O	1.719652	-0.302304	-0.924352
O14	O	1.490295	-0.324384	-0.695022
O15	O	1.913675	-0.193468	-0.974457
O16	O	1.797373	-0.446082	-0.524274
O17	O	1.653484	-0.446023	-0.668229
C18	C	1.453497	-0.280794	-0.628794
C19	C	1.309764	-0.288356	-0.615333
C20	C	1.715072	-0.475737	-0.585885
C21	C	1.683368	-0.566669	-0.554098
C22	C	2.031191	-0.821881	-0.902283
C23	C	2.001358	-0.907329	-0.872388
C24	C	1.820496	-0.924860	-0.691303
C25	C	1.850318	-0.839412	-0.721179
C26	C	1.955666	-0.787929	-0.826671
C27	C	1.774793	-0.805460	-0.645567
C28	C	1.804609	-0.720019	-0.675445
C29	C	1.909950	-0.668531	-0.780935
C30	C	1.985483	-0.702488	-0.856549
C31	C	1.669439	-0.856944	-0.540081
C32	C	1.593914	-0.822992	-0.464469
C33	C	1.623736	-0.737550	-0.494341
C34	C	1.729077	-0.686062	-0.599831
C35	C	1.548204	-0.703592	-0.418727
C36	C	1.578020	-0.618152	-0.448605
C37	C	1.758893	-0.600621	-0.629709
C38	C	2.126745	-0.245461	-0.691959
C39	C	2.270474	-0.237918	-0.705443
C40	C	1.821201	-0.245337	-0.997642
C41	C	1.834726	-0.237741	-1.141391
C42	C	1.864187	-0.049754	-0.735066
C43	C	1.896029	0.041188	-0.766921
C44	C	1.757947	-0.280854	-0.324327
C45	C	1.744754	-0.288206	-0.180683
H46	H	1.233434	-0.337325	-0.527876
H47	H	1.346797	-0.188947	-0.792889
H48	H	1.922111	-0.188725	-1.217731
H49	H	1.934225	-0.598960	-0.805260
C50	C	1.874781	-0.543981	-0.745741
H51	H	1.881723	-0.488234	-0.752695
H52	H	1.859089	-0.554377	-0.825950
H53	H	1.955035	-0.554381	-0.730139
H54	H	2.071277	-0.660568	-0.942444
C55	C	2.147050	-0.765245	-1.018347
H56	H	2.187754	-0.797701	-1.059114
H57	H	2.210430	-0.731537	-0.985902
H58	H	2.114420	-0.731564	-1.081649
H59	H	1.657382	-0.337225	-1.104349
C60	C	1.704626	-0.981494	-0.575264
H61	H	1.697689	-1.037243	-0.568291
H62	H	1.624372	-0.971093	-0.590837
H63	H	1.720352	-0.971093	-0.495060
H64	H	2.062851	-0.934968	-0.933985
C65	C	1.478045	-0.879626	-0.348430
H66	H	1.471108	-0.935375	-0.341457
H67	H	1.397791	-0.869225	-0.364003
H68	H	1.493771	-0.869225	-0.268226
H69	H	1.645156	-0.926515	-0.515769
C70	C	1.432326	-0.760228	-0.302697
H71	H	1.425388	-0.815976	-0.295731
H72	H	1.352076	-0.749824	-0.318279
H73	H	1.448041	-0.749833	-0.222487
H74	H	1.516518	-0.590508	-0.387035
