data_functionalizedCrystal
_audit_creation_method	'MofGen! by Chris Wilmer'
_symmetry_space_group_name_H-M	'P1'
_symmetry_Int_Tables_number	1
_symmetry_cell_setting	triclinic
loop_
_symmetry_equiv_pos_as_xyz
  x,y,z
_cell_length_a	17.077404
_cell_length_b	19.121063
_cell_length_c	17.077396
_cell_angle_alpha	92.407870
_cell_angle_beta	89.982756
_cell_angle_gamma	92.469213
loop_
_atom_site_label
_atom_site_type_symbol
_atom_site_fract_x
_atom_site_fract_y
_atom_site_fract_z
Zn1	Zn	1.186680	-0.279604	-0.457151
Zn2	Zn	1.686680	0.220396	0.042849
Zn3	Zn	1.180980	-0.397062	-0.331476
Zn4	Zn	1.680980	0.102938	0.168524
Zn5	Zn	1.055415	-0.279630	-0.325901
Zn6	Zn	1.555415	0.220370	0.174099
Zn7	Zn	1.049770	-0.397019	-0.462698
Zn8	Zn	1.549770	0.102981	0.037302
O9	O	1.118211	-0.338329	-0.394306
O10	O	1.618211	0.161671	0.105694
O11	O	1.295770	-0.295192	-0.440492
O12	O	1.795770	0.204808	0.059508
O13	O	1.164301	-0.381514	-0.220891
O14	O	1.664301	0.118486	0.279109
O15	O	1.077575	-0.181342	-0.338657
O16	O	1.577575	0.318658	0.161343
O17	O	1.291583	-0.381488	-0.348159
O18	O	1.791583	0.118512	0.151841
O19	O	1.174015	-0.181323	-0.435086
O20	O	1.674015	0.318677	0.064914
O21	O	1.072049	-0.295237	-0.216795
O22	O	1.572049	0.204763	0.283205
O23	O	0.944820	-0.295195	-0.344035
O24	O	1.444820	0.204805	0.155965
O25	O	1.067954	-0.381414	-0.571807
O26	O	1.567954	0.118586	-0.071807
O27	O	0.940672	-0.381440	-0.444539
O28	O	1.440672	0.118560	0.055461
O29	O	1.168541	-0.295150	-0.567733
O30	O	1.668541	0.204850	-0.067733
O31	O	1.158828	-0.495341	-0.353537
O32	O	1.658828	0.004659	0.146463
O33	O	1.062428	-0.495309	-0.449945
O34	O	1.562428	0.004691	0.050055
C35	C	0.914264	-0.338316	-0.394284
C36	C	1.414264	0.161684	0.105716
C37	C	0.827014	-0.338328	-0.394294
C38	C	1.327014	0.161672	0.105706
C39	C	0.783881	-0.383303	-0.446549
C40	C	1.283881	0.116697	0.053451
C41	C	0.701901	-0.383305	-0.446562
C42	C	1.201901	0.116695	0.053438
C43	C	0.663054	-0.338334	-0.394315
C44	C	1.163054	0.161666	0.105685
C45	C	0.706193	-0.293353	-0.342057
C46	C	1.206193	0.206647	0.157943
C47	C	0.788172	-0.293349	-0.342049
C48	C	1.288172	0.206651	0.157951
C49	C	0.535322	-0.293367	-0.342077
C50	C	1.035322	0.206633	0.157923
C51	C	0.453337	-0.293372	-0.342084
C52	C	0.953337	0.206628	0.157916
C53	C	0.449051	-0.383323	-0.446590
C54	C	0.949051	0.116677	0.053410
C55	C	0.531030	-0.383319	-0.446581
C56	C	1.031030	0.116681	0.053419
C57	C	0.574163	-0.338339	-0.394323
C58	C	1.074163	0.161661	0.105677
C59	C	1.109418	-0.520809	-0.402965
C60	C	1.609418	-0.020809	0.097035
C61	C	1.105728	-0.598875	-0.406696
C62	C	1.605728	-0.098875	0.093304
C63	C	1.154223	-0.635544	-0.358296
C64	C	1.654223	-0.135544	0.141704
C65	C	1.150758	-0.708895	-0.361809
C66	C	1.650758	-0.208895	0.138191
C67	C	1.098792	-0.745576	-0.413719
C68	C	1.598792	-0.245576	0.086281
C69	C	1.050294	-0.708902	-0.462125
C70	C	1.550294	-0.208902	0.037875
C71	C	1.053764	-0.635553	-0.458615
C72	C	1.553764	-0.135553	0.041385
C73	C	1.085804	-0.967046	-0.426829
C74	C	1.585804	-0.467046	0.073171
C75	C	1.082336	-1.040401	-0.430334
C76	C	1.582336	-0.540401	0.069666
C77	C	1.182801	-1.040389	-0.330019
C78	C	1.682801	-0.540389	0.169981
C79	C	1.186263	-0.967038	-0.326510
C80	C	1.686263	-0.467038	0.173490
C81	C	1.137769	-0.930370	-0.374919
C82	C	1.637769	-0.430370	0.125081
C83	C	1.095246	-0.820553	-0.417310
C84	C	1.595246	-0.320553	0.082690
C85	C	1.141319	-0.855395	-0.371332
C86	C	1.641319	-0.355395	0.128668
C87	C	1.322955	-0.338342	-0.394329
C88	C	1.822955	0.161658	0.105671
C89	C	1.410205	-0.338348	-0.394339
C90	C	1.910205	0.161652	0.105661
C91	C	1.118253	-0.338274	-0.599048
C92	C	1.618253	0.161726	-0.099048
C93	C	1.118271	-0.338251	-0.686297
C94	C	1.618271	0.161749	-0.186297
C95	C	1.127061	-0.155136	-0.385631
C96	C	1.627061	0.344864	0.114369
C97	C	1.130832	-0.077070	-0.381934
C98	C	1.630832	0.422930	0.118066
C99	C	1.070251	-0.293321	-0.725153
C100	C	1.570251	0.206679	-0.225153
C101	C	1.070265	-0.293305	-0.807133
C102	C	1.570265	0.206695	-0.307133
C103	C	1.118303	-0.338216	-0.850255
C104	C	1.618303	0.161784	-0.350255
C105	C	1.166325	-0.383151	-0.811393
C106	C	1.666325	0.116849	-0.311393
C107	C	1.166307	-0.383170	-0.729415
C108	C	1.666307	0.116830	-0.229415
C109	C	1.166361	-0.383107	-0.982261
C110	C	1.666361	0.116893	-0.482261
C111	C	1.166381	-0.383087	-1.064245
C112	C	1.666381	0.116913	-0.564245
C113	C	1.070319	-0.293243	-1.059979
C114	C	1.570319	0.206757	-0.559979
C115	C	1.070301	-0.293262	-0.978001
C116	C	1.570301	0.206738	-0.478001
C117	C	1.118324	-0.338196	-0.939145
C118	C	1.618324	0.161804	-0.439145
C119	C	1.118217	-0.338332	-0.190359
C120	C	1.618217	0.161668	0.309641
C121	C	1.118361	-0.338158	-0.103101
C122	C	1.618361	0.161842	0.396899
H123	H	0.562657	-0.419942	-0.489121
H124	H	1.062657	0.080058	0.010879
H125	H	1.040028	-1.070265	-0.472619
H126	H	1.540028	-0.570265	0.027381
N127	N	0.997199	-0.746358	-0.515147
N128	N	1.497199	-0.246358	-0.015147
N129	N	0.953901	-0.713607	-0.558354
N130	N	1.453901	-0.213607	-0.058354
H131	H	0.916398	-0.740058	-0.595801
H132	H	1.416398	-0.240058	-0.095801
H133	H	0.413928	-0.419945	-0.489143
H134	H	0.913928	0.080055	0.010857
N135	N	1.207304	-0.598089	-0.305259
N136	N	1.707304	-0.098089	0.194741
N137	N	1.250599	-0.630842	-0.262049
N138	N	1.750599	-0.130842	0.237951
H139	H	1.288090	-0.604392	-0.224591
H140	H	1.788090	-0.104392	0.275409
N141	N	1.036281	-0.929592	-0.476282
N142	N	1.536281	-0.429592	0.023718
N143	N	1.065815	-0.888618	-0.524373
N144	N	1.565815	-0.388618	-0.024373
H145	H	1.030840	-0.862165	-0.559305
H146	H	1.530840	-0.362165	-0.059305
H147	H	0.421711	-0.256744	-0.299549
H148	H	0.921711	0.243256	0.200451
H149	H	1.190247	-0.738748	-0.322396
H150	H	1.690247	-0.238748	0.177604
H151	H	1.205498	-0.419658	-1.099352
H152	H	1.705498	0.080342	-0.599352
H153	H	1.014275	-0.605697	-0.498028
H154	H	1.514275	-0.105697	0.001972
H155	H	1.205416	-0.419751	-0.697779
H156	H	1.705416	0.080249	-0.197779
N157	N	1.239347	-0.929582	-0.273478
N158	N	1.739347	-0.429582	0.226522
N159	N	1.282643	-0.962331	-0.230266
N160	N	1.782643	-0.462331	0.269734
H161	H	1.320133	-0.935879	-0.192808
H162	H	1.820133	-0.435879	0.307192
N163	N	1.194387	-0.817919	-0.318305
N164	N	1.694387	-0.317919	0.181695
N165	N	1.168721	-0.777041	-0.266311
N166	N	1.668721	-0.277041	0.233689
H167	H	1.206198	-0.750567	-0.228857
H168	H	1.706198	-0.250567	0.271143
N169	N	0.579371	-0.247409	-0.288700
N170	N	1.079371	0.252591	0.211300
N171	N	0.544679	-0.207257	-0.242056
N172	N	1.044679	0.292743	0.257944
H173	H	0.575788	-0.174800	-0.204358
H174	H	1.075788	0.325200	0.295642
H175	H	1.031159	-0.256722	-0.838766
H176	H	1.531159	0.243278	-0.338766
N177	N	1.021185	-0.247432	-0.681121
N178	N	1.521185	0.252568	-0.181121
N179	N	0.978316	-0.207318	-0.715828
N180	N	1.478316	0.292682	-0.215828
H181	H	0.943661	-0.174906	-0.684732
H182	H	1.443661	0.325094	-0.184732
H183	H	1.222284	-1.070251	-0.290609
H184	H	1.722284	-0.570251	0.209391
N185	N	1.021277	-0.247340	-1.099677
N186	N	1.521277	0.252660	-0.599677
N187	N	1.021300	-0.247325	-1.172871
N188	N	1.521300	0.252675	-0.672871
H189	H	0.986670	-0.214903	-1.200912
H190	H	1.486670	0.285097	-0.700912
H191	H	1.052934	-0.850427	-0.459573
H192	H	1.552934	-0.350427	0.040427
N193	N	1.021232	-0.247378	-0.933963
N194	N	1.521232	0.252622	-0.433963
N195	N	0.978358	-0.207264	-0.968663
N196	N	1.478358	0.292736	-0.468663
H197	H	0.943700	-0.174859	-0.937562
H198	H	1.443700	0.325141	-0.437562
N199	N	0.657855	-0.429247	-0.499949
N200	N	1.157855	0.070753	0.000051
N201	N	0.692548	-0.469397	-0.546593
N202	N	1.192548	0.030603	-0.046593
H203	H	0.661441	-0.501845	-0.584302
H204	H	1.161441	-0.001845	-0.084302
N205	N	1.215415	-0.429014	-0.942582
N206	N	1.715415	0.070986	-0.442582
N207	N	1.258305	-0.469109	-0.981090
N208	N	1.758305	0.030891	-0.481090
H209	H	1.292951	-0.501529	-0.953067
H210	H	1.792951	-0.001529	-0.453067
H211	H	1.205435	-0.419722	-0.846509
H212	H	1.705435	0.080278	-0.346509
H213	H	0.815504	-0.419926	-0.489093
H214	H	1.315504	0.080074	0.010907
N215	N	0.666514	-0.247405	-0.288699
N216	N	1.166514	0.252595	0.211301
N217	N	0.622934	-0.202684	-0.314284
N218	N	1.122934	0.297316	0.185716
H219	H	0.594912	-0.170232	-0.276598
H220	H	1.094912	0.329768	0.223402
H221	H	0.823290	-0.256721	-0.299501
H222	H	1.323290	0.243279	0.200499
