data_functionalizedCrystal
_audit_creation_method	'MofGen! by Chris Wilmer'
_symmetry_space_group_name_H-M	'P1'
_symmetry_Int_Tables_number	1
_symmetry_cell_setting	triclinic
loop_
_symmetry_equiv_pos_as_xyz
  x,y,z
_cell_length_a	27.731994
_cell_length_b	26.809956
_cell_length_c	27.732048
_cell_angle_alpha	90.009578
_cell_angle_beta	82.631595
_cell_angle_gamma	90.009960
loop_
_atom_site_label
_atom_site_type_symbol
_atom_site_fract_x
_atom_site_fract_y
_atom_site_fract_z
O1	O	0.640953	0.041414	0.057391
O2	O	0.974286	0.374747	0.390724
O3	O	1.307619	0.708080	0.724058
O4	O	0.500155	0.041431	0.066164
O5	O	0.833489	0.374764	0.399497
O6	O	1.166822	0.708098	0.732831
O7	O	0.574927	0.041412	-0.008620
O8	O	0.908260	0.374746	0.324713
O9	O	1.241593	0.708079	0.658047
O10	O	0.566181	0.041432	0.132175
O11	O	0.899514	0.374766	0.465508
O12	O	1.232848	0.708099	0.798842
O13	O	0.574904	-0.041547	-0.008620
O14	O	0.908237	0.291787	0.324713
O15	O	1.241571	0.625120	0.658047
O16	O	0.500132	-0.041528	0.066164
O17	O	0.833466	0.291805	0.399497
O18	O	1.166799	0.625139	0.732831
O19	O	0.640930	-0.041545	0.057391
O20	O	0.974263	0.291788	0.390724
O21	O	1.307596	0.625121	0.724058
Zn22	Zn	0.570527	-0.054708	0.061778
Zn23	Zn	0.903861	0.278625	0.395111
Zn24	Zn	1.237194	0.611958	0.728444
Zn25	Zn	0.570558	0.054594	0.061778
Zn26	Zn	0.903891	0.387927	0.395111
Zn27	Zn	1.237224	0.721261	0.728444
O28	O	0.566158	-0.041527	0.132175
O29	O	0.899492	0.291807	0.465508
O30	O	1.232825	0.625140	0.798842
C31	C	0.482137	-0.000046	0.065984
C32	C	0.815470	0.333287	0.399317
C33	C	1.148803	0.666620	0.732651
C34	C	0.428480	-0.000040	0.065442
C35	C	0.761814	0.333293	0.398775
C36	C	1.095147	0.666626	0.732108
N37	N	0.570510	-0.129304	0.061777
N38	N	0.903844	0.204029	0.395111
N39	N	1.237177	0.537362	0.728444
C40	C	0.095749	-0.045281	0.062026
C41	C	0.429083	0.288052	0.395359
C42	C	0.762416	0.621386	0.728693
C43	C	-0.105909	-0.045287	0.059964
C44	C	0.227424	0.288046	0.393298
C45	C	0.560758	0.621380	0.726631
O46	O	-0.131992	-0.083746	0.059677
O47	O	0.201341	0.249588	0.393010
O48	O	0.534675	0.582921	0.726344
N49	N	-0.131111	-0.000066	0.059708
N50	N	0.202222	0.333267	0.393042
N51	N	0.535555	0.666601	0.726375
C52	C	-0.105896	0.045160	0.059964
C53	C	0.227438	0.378493	0.393298
C54	C	0.560771	0.711826	0.726631
O55	O	-0.131958	0.083623	0.059694
O56	O	0.201375	0.416956	0.393028
O57	O	0.534709	0.750290	0.726361
C58	C	0.095762	0.045165	0.062023
C59	C	0.429096	0.378499	0.395356
C60	C	0.762429	0.711832	0.728689
C61	C	0.120961	-0.000059	0.062283
C62	C	0.454295	0.333275	0.395617
C63	C	0.787628	0.666608	0.728950
C64	C	0.120949	-0.090501	0.062286
C65	C	0.454282	0.242832	0.395620
C66	C	0.787615	0.576165	0.728953
C67	C	0.171360	-0.090499	0.062804
C68	C	0.504693	0.242834	0.396138
C69	C	0.838026	0.576167	0.729471
C70	C	0.196572	-0.045277	0.063062
C71	C	0.529905	0.288056	0.396395
C72	C	0.863238	0.621390	0.729729
C73	C	0.171372	-0.000057	0.062801
C74	C	0.504706	0.333276	0.396135
C75	C	0.838039	0.666610	0.729468
C76	C	0.120977	0.090390	0.062275
C77	C	0.454311	0.423724	0.395609
C78	C	0.787644	0.757057	0.728942
C79	C	0.171395	0.090388	0.062789
C80	C	0.504729	0.423721	0.396122
C81	C	0.838062	0.757054	0.729455
C82	C	0.196594	0.045164	0.063050
C83	C	0.529928	0.378497	0.396383
C84	C	0.863261	0.711830	0.729716
C85	C	0.246996	0.045167	0.063577
C86	C	0.580329	0.378501	0.396910
C87	C	0.913662	0.711834	0.730244
N88	N	0.272198	-0.000054	0.063833
N89	N	0.605531	0.333280	0.397167
N90	N	0.938865	0.666613	0.730500
C91	C	0.246986	-0.045276	0.063576
C92	C	0.580319	0.288057	0.396909
C93	C	0.913653	0.621391	0.730242
C94	C	-0.211769	0.045154	0.058885
C95	C	0.121564	0.378487	0.392218
C96	C	0.454898	0.711820	0.725551
C97	C	-0.262183	0.045152	0.058371
C98	C	0.071150	0.378486	0.391704
C99	C	0.404483	0.711819	0.725038
C100	C	-0.262193	-0.045294	0.058370
C101	C	0.071140	0.288039	0.391703
C102	C	0.404474	0.621372	0.725037
C103	C	-0.211778	-0.045293	0.058887
C104	C	0.121555	0.288041	0.392221
C105	C	0.454889	0.621374	0.725554
C106	C	-0.186566	-0.000067	0.059141
C107	C	0.146767	0.333266	0.392474
C108	C	0.480100	0.666599	0.725807
C109	C	0.352853	-0.045268	0.064664
C110	C	0.686186	0.288065	0.397997
C111	C	1.019520	0.621398	0.731331
C112	C	0.403268	-0.045262	0.065184
C113	C	0.736602	0.288071	0.398517
C114	C	1.069935	0.621404	0.731851
C115	C	0.403274	0.045184	0.065182
C116	C	0.736607	0.378517	0.398516
C117	C	1.069941	0.711851	0.731849
C118	C	0.352863	0.045179	0.064665
C119	C	0.686196	0.378512	0.397998
C120	C	1.019529	0.711845	0.731332
C121	C	0.327654	-0.000052	0.064404
C122	C	0.660987	0.333282	0.397737
C123	C	0.994320	0.666615	0.731071
O124	O	0.273111	0.083606	0.063859
O125	O	0.606444	0.416939	0.397193
O126	O	0.939777	0.750273	0.730526
O127	O	0.273059	-0.083733	0.063835
O128	O	0.606392	0.249600	0.397168
O129	O	0.939725	0.582933	0.730502
C130	C	0.045338	-0.045283	0.061508
C131	C	0.378671	0.288050	0.394841
C132	C	0.712005	0.621384	0.728174
C133	C	0.020139	-0.000063	0.061247
C134	C	0.353472	0.333271	0.394581
C135	C	0.686806	0.666604	0.727914
C136	C	0.045351	0.045160	0.061505
C137	C	0.378684	0.378493	0.394838
C138	C	0.712018	0.711826	0.728172
C139	C	-0.030275	-0.000064	0.060734
C140	C	0.303058	0.333269	0.394067
C141	C	0.636391	0.666603	0.727400
C142	C	-0.055487	-0.045286	0.060476
C143	C	0.277846	0.288047	0.393809
C144	C	0.611179	0.621381	0.727143
C145	C	-0.030285	-0.090507	0.060732
C146	C	0.303048	0.242826	0.394066
C147	C	0.636382	0.576160	0.727399
C148	C	0.020126	-0.090505	0.061250
C149	C	0.353460	0.242828	0.394584
C150	C	0.686793	0.576161	0.727917
C151	C	0.020149	0.090381	0.061249
C152	C	0.353482	0.423714	0.394582
C153	C	0.686815	0.757047	0.727916
C154	C	-0.030263	0.090375	0.060732
C155	C	0.303071	0.423708	0.394065
C156	C	0.636404	0.757042	0.727398
C157	C	-0.055475	0.045153	0.060474
C158	C	0.277859	0.378486	0.393807
C159	C	0.611192	0.711819	0.727141
C160	C	0.599649	-0.473930	0.090883
C161	C	0.932982	-0.140597	0.424216
C162	C	1.266316	0.192737	0.757549
C163	C	0.599665	-0.682808	0.090882
C164	C	0.932998	-0.349474	0.424216
C165	C	1.266331	-0.016141	0.757549
O166	O	0.624426	-0.709811	0.115623
O167	O	0.957760	-0.376478	0.448957
O168	O	1.291093	-0.043144	0.782290
N169	N	0.570569	-0.708931	0.061773
N170	N	0.903903	-0.375598	0.395106
N171	N	1.237236	-0.042265	0.728439
C172	C	0.541470	-0.682833	0.032659
C173	C	0.874804	-0.349499	0.365992
C174	C	1.208137	-0.016166	0.699325
O175	O	0.516727	-0.709845	0.007895
O176	O	0.850060	-0.376512	0.341229
O177	O	1.183394	-0.043179	0.674562
C178	C	0.541458	-0.473956	0.032657
C179	C	0.874791	-0.140623	0.365990
C180	C	1.208124	0.192711	0.699323
C181	C	0.570551	-0.447835	0.061772
C182	C	0.903884	-0.114501	0.395105
C183	C	1.237218	0.218832	0.728439
C184	C	0.628741	-0.447809	0.119995
C185	C	0.962074	-0.114475	0.453328
C186	C	1.295407	0.218858	0.786662
C187	C	0.628734	-0.395592	0.119997
C188	C	0.962068	-0.062259	0.453330
C189	C	1.295401	0.271074	0.786664
C190	C	0.599637	-0.369497	0.090886
C191	C	0.932970	-0.036164	0.424220
C192	C	1.266303	0.297169	0.757553
C193	C	0.570545	-0.395618	0.061774
C194	C	0.903878	-0.062285	0.395107
C195	C	1.237212	0.271048	0.728440
C196	C	0.512362	-0.447858	0.003540
C197	C	0.845695	-0.114525	0.336874
C198	C	1.179028	0.218809	0.670207
C199	C	0.512362	-0.395636	0.003542
C200	C	0.845695	-0.062302	0.336875
C201	C	1.179029	0.271031	0.670208
C202	C	0.541455	-0.369514	0.032657
C203	C	0.874789	-0.036181	0.365990
C204	C	1.208122	0.297152	0.699324
C205	C	0.541441	-0.317307	0.032665
C206	C	0.874774	0.016026	0.365998
C207	C	1.208108	0.349360	0.699332
N208	N	0.570536	-0.291183	0.061775
N209	N	0.903870	0.042150	0.395108
N210	N	1.237203	0.375483	0.728441
C211	C	0.599634	-0.317278	0.090885
C212	C	0.932967	0.016055	0.424219
C213	C	1.266301	0.349388	0.757552
C214	C	0.541478	-0.792496	0.032662
C215	C	0.874812	-0.459163	0.365996
C216	C	1.208145	-0.125829	0.699329
C217	C	0.541481	-0.844715	0.032663
C218	C	0.874814	-0.511382	0.365997
C219	C	1.208147	-0.178048	0.699330
C220	C	0.599676	-0.844686	0.090886
C221	C	0.933009	-0.511353	0.424220
C222	C	1.266342	-0.178020	0.757553
C223	C	0.599670	-0.792466	0.090888
C224	C	0.933004	-0.459133	0.424221
C225	C	1.266337	-0.125800	0.757554
C226	C	0.570574	-0.766372	0.061772
C227	C	0.903907	-0.433039	0.395105
C228	C	1.237240	-0.099705	0.728439
C229	C	0.599619	-0.207620	0.090887
C230	C	0.932952	0.125713	0.424220
C231	C	1.266285	0.459046	0.757554
C232	C	0.599608	-0.155399	0.090888
C233	C	0.932942	0.177934	0.424221
C234	C	1.266275	0.511267	0.757555
C235	C	0.541415	-0.155433	0.032663
C236	C	0.874749	0.177901	0.365996
C237	C	1.208082	0.511234	0.699330
C238	C	0.541423	-0.207649	0.032664
C239	C	0.874757	0.125684	0.365997
C240	C	1.208090	0.459018	0.699331
C241	C	0.570529	-0.233742	0.061777
C242	C	0.903862	0.099592	0.395111
C243	C	1.237196	0.432925	0.728444
O244	O	0.516696	-0.290272	0.007933
O245	O	0.850030	0.043062	0.341266
O246	O	1.183363	0.376395	0.674599
O247	O	0.624382	-0.290257	0.115637
O248	O	0.957715	0.043077	0.448970
O249	O	1.291048	0.376410	0.782303
C250	C	0.599655	-0.526146	0.090881
C251	C	0.932988	-0.192813	0.424214
C252	C	1.266322	0.140521	0.757547
C253	C	0.570564	-0.552267	0.061768
C254	C	0.903897	-0.218934	0.395102
C255	C	1.237230	0.114399	0.728435
C256	C	0.541466	-0.526172	0.032658
C257	C	0.874799	-0.192839	0.365991
C258	C	1.208132	0.140494	0.699324
C259	C	0.570566	-0.604486	0.061769
C260	C	0.903899	-0.271153	0.395103
C261	C	1.237233	0.062180	0.728436
C262	C	0.599664	-0.630581	0.090880
C263	C	0.932997	-0.297248	0.424213
C264	C	1.266330	0.036085	0.757547
C265	C	0.628759	-0.604458	0.119990
C266	C	0.962092	-0.271124	0.453323
C267	C	1.295426	0.062209	0.786656
C268	C	0.628753	-0.552241	0.119991
C269	C	0.962086	-0.218908	0.453325
C270	C	1.295420	0.114425	0.786658
C271	C	0.512370	-0.552296	0.003548
C272	C	0.845704	-0.218963	0.336881
C273	C	1.179037	0.114371	0.670215
C274	C	0.512378	-0.604512	0.003549
C275	C	0.845712	-0.271179	0.336882
C276	C	1.179045	0.062154	0.670216
C277	C	0.541476	-0.630608	0.032660
C278	C	0.874810	-0.297274	0.365993
C279	C	1.208143	0.036059	0.699326
C280	C	0.658949	-0.000067	0.057571
C281	C	0.992282	0.333266	0.390904
C282	C	1.325615	0.666600	0.724238
C283	C	0.712605	-0.000070	0.058114
C284	C	1.045938	0.333264	0.391447
C285	C	1.379272	0.666597	0.724780
C286	C	0.574732	-0.000069	-0.026627
C287	C	0.908065	0.333265	0.306706
C288	C	1.241398	0.666598	0.640040
C289	C	0.574179	-0.000073	-0.080282
C290	C	0.907512	0.333261	0.253052
C291	C	1.240846	0.666594	0.586385
N292	N	0.570578	0.129190	0.061774
N293	N	0.903912	0.462523	0.395107
N294	N	1.237245	0.795857	0.728441
C295	C	0.614884	-0.000052	-0.419105
C296	C	0.948217	0.333281	-0.085771
C297	C	1.281551	0.666615	0.247562
C298	C	0.612833	-0.000045	-0.620764
C299	C	0.946166	0.333289	-0.287431
C300	C	1.279499	0.666622	0.045903
O301	O	0.650055	-0.000028	-0.652027
O302	O	0.983388	0.333306	-0.318693
O303	O	1.316721	0.666639	0.014640
N304	N	0.568496	-0.000040	-0.639879
N305	N	0.901830	0.333294	-0.306546
N306	N	1.235163	0.666627	0.026788
C307	C	0.524670	-0.000033	-0.608576
C308	C	0.858003	0.333300	-0.275242
C309	C	1.191336	0.666633	0.058091
O310	O	0.486912	-0.000024	-0.629462
O311	O	0.820245	0.333310	-0.296128
O312	O	1.153578	0.666643	0.037205
C313	C	0.526721	-0.000037	-0.406918
C314	C	0.860055	0.333296	-0.073584
C315	C	1.193388	0.666630	0.259749
C316	C	0.571061	-0.000047	-0.387805
C317	C	0.904394	0.333286	-0.054472
C318	C	1.237727	0.666620	0.278861
C319	C	0.659220	-0.000061	-0.399992
C320	C	0.992553	0.333272	-0.066659
C321	C	1.325886	0.666605	0.266675
C322	C	0.659732	-0.000066	-0.349580
C323	C	0.993065	0.333267	-0.016247
C324	C	1.326398	0.666601	0.317086
C325	C	0.615908	-0.000061	-0.318281
C326	C	0.949242	0.333272	0.015052
C327	C	1.282575	0.666606	0.348386
C328	C	0.571573	-0.000052	-0.337394
C329	C	0.904906	0.333282	-0.004060
C330	C	1.238239	0.666615	0.329273
C331	C	0.482895	-0.000027	-0.375615
C332	C	0.816228	0.333306	-0.042282
C333	C	1.149562	0.666640	0.291051
C334	C	0.483412	-0.000027	-0.325198
C335	C	0.816745	0.333307	0.008135
C336	C	1.150079	0.666640	0.341468
C337	C	0.527751	-0.000037	-0.306086
C338	C	0.861084	0.333297	0.027247
C339	C	1.194418	0.666630	0.360581
C340	C	0.528262	-0.000051	-0.255683
C341	C	0.861595	0.333282	0.077651
C342	C	1.194928	0.666616	0.410984
N343	N	0.572598	-0.000056	-0.236567
N344	N	0.905931	0.333277	0.096766
N345	N	1.239265	0.666611	0.430099
C346	C	0.616421	-0.000061	-0.267867
C347	C	0.949755	0.333272	0.065467
C348	C	1.283088	0.666606	0.398800
C349	C	0.523596	-0.000032	-0.714450
C350	C	0.856929	0.333301	-0.381116
C351	C	1.190262	0.666634	-0.047783
C352	C	0.523083	-0.000032	-0.764864
C353	C	0.856416	0.333301	-0.431531
C354	C	1.189749	0.666634	-0.098197
C355	C	0.611246	-0.000043	-0.777049
C356	C	0.944579	0.333290	-0.443715
C357	C	1.277913	0.666624	-0.110382
C358	C	0.611759	-0.000047	-0.726633
C359	C	0.945092	0.333287	-0.393300
C360	C	1.278425	0.666620	-0.059967
C361	C	0.567932	-0.000037	-0.695335
C362	C	0.901265	0.333296	-0.362001
C363	C	1.234599	0.666629	-0.028668
C364	C	0.617494	-0.000071	-0.161998
C365	C	0.950827	0.333262	0.171336
C366	C	1.284161	0.666596	0.504669
C367	C	0.618002	-0.000078	-0.111581
C368	C	0.951336	0.333256	0.221752
C369	C	1.284669	0.666589	0.555086
C370	C	0.529839	-0.000064	-0.099401
C371	C	0.863173	0.333269	0.233933
C372	C	1.196506	0.666602	0.567266
C373	C	0.529331	-0.000060	-0.149813
C374	C	0.862664	0.333273	0.183520
C375	C	1.195997	0.666606	0.516854
C376	C	0.573162	-0.000062	-0.181111
C377	C	0.906495	0.333271	0.152222
C378	C	1.239829	0.666605	0.485556
O379	O	0.491060	-0.000063	-0.224391
O380	O	0.824393	0.333271	0.108942
O381	O	1.157727	0.666604	0.442275
O382	O	0.654174	-0.000060	-0.246971
O383	O	0.987507	0.333274	0.086362
O384	O	1.320841	0.666607	0.419695
C385	C	0.614372	-0.000047	-0.469517
C386	C	0.947705	0.333286	-0.136183
C387	C	1.281038	0.666619	0.197150
C388	C	0.570036	-0.000038	-0.488629
C389	C	0.903369	0.333295	-0.155296
C390	C	1.236703	0.666629	0.178037
C391	C	0.526213	-0.000033	-0.457330
C392	C	0.859546	0.333300	-0.123997
C393	C	1.192879	0.666634	0.209337
C394	C	0.569523	-0.000038	-0.539043
C395	C	0.902856	0.333295	-0.205710
C396	C	1.236190	0.666629	0.127623
C397	C	0.613346	-0.000043	-0.570343
C398	C	0.946680	0.333290	-0.237009
C399	C	1.280013	0.666624	0.096324
C400	C	0.657683	-0.000048	-0.551228
C401	C	0.991016	0.333285	-0.217894
C402	C	1.324349	0.666619	0.115439
C403	C	0.658195	-0.000052	-0.500816
C404	C	0.991528	0.333281	-0.167482
C405	C	1.324862	0.666614	0.165851
C406	C	0.481876	-0.000028	-0.476445
C407	C	0.815209	0.333305	-0.143112
C408	C	1.148543	0.666639	0.190222
C409	C	0.481367	-0.000024	-0.526857
C410	C	0.814701	0.333309	-0.193524
C411	C	1.148034	0.666643	0.139809
C412	C	0.525191	-0.000029	-0.558157
C413	C	0.858524	0.333304	-0.224823
C414	C	1.191858	0.666638	0.108510
C415	C	0.566353	-0.000045	0.150182
C416	C	0.899687	0.333289	0.483515
C417	C	1.233020	0.666622	0.816849
C418	C	0.566906	-0.000037	0.203837
C419	C	0.900239	0.333296	0.537170
C420	C	1.233573	0.666629	0.870503
H421	H	0.423783	-0.082091	0.065398
H422	H	0.757116	0.251242	0.398731
H423	H	1.090450	0.584576	0.732065
Br424	Br	0.668235	-0.516799	0.159512
Br425	Br	1.001568	-0.183466	0.492845
Br426	Br	1.334901	0.149867	0.826178
H427	H	0.653186	-0.000070	-0.187475
H428	H	0.986519	0.333263	0.145858
H429	H	1.319852	0.666596	0.479192
Br430	Br	0.639120	-0.243024	0.130398
Br431	Br	0.972453	0.090310	0.463731
Br432	Br	1.305786	0.423643	0.797065
Br433	Br	0.472874	-0.483295	-0.035975
Br434	Br	0.806207	-0.149962	0.297359
Br435	Br	1.139540	0.183372	0.630692
Br436	Br	0.639167	-0.880111	0.130393
Br437	Br	0.972500	-0.546777	0.463726
Br438	Br	1.305833	-0.213444	0.797059
Br439	Br	0.205608	0.151769	0.063130
Br440	Br	0.538942	0.485102	0.396463
Br441	Br	0.872275	0.818435	0.729797
H442	H	0.693365	-0.000054	-0.576720
H443	H	1.026699	0.333279	-0.243387
H444	H	1.360032	0.666612	0.089946
Br445	Br	0.422395	-0.000019	-0.433975
Br446	Br	0.755728	0.333315	-0.100641
Br447	Br	1.089062	0.666648	0.232692
Br448	Br	0.501933	-0.243100	-0.006844
Br449	Br	0.835267	0.090233	0.326490
Br450	Br	1.168600	0.423566	0.659823
H451	H	0.487905	-0.000025	-0.688970
H452	H	0.821238	0.333308	-0.355637
H453	H	1.154571	0.666642	-0.022303
H454	H	0.652438	-0.469050	0.143701
H455	H	0.985771	-0.135716	0.477034
H456	H	1.319105	0.197617	0.810367
H457	H	0.517783	-0.771255	0.008951
H458	H	0.851116	-0.437922	0.342285
H459	H	1.184449	-0.104588	0.675618
Br460	Br	0.470368	-0.000058	-0.056914
Br461	Br	0.803701	0.333275	0.276419
Br462	Br	1.137034	0.666609	0.609753
H463	H	0.488667	-0.374392	-0.020169
H464	H	0.822001	-0.041059	0.313165
H465	H	1.155334	0.292274	0.646498
Br466	Br	0.318661	0.106554	0.064321
Br467	Br	0.651995	0.439887	0.397654
Br468	Br	0.985328	0.773221	0.730987
H469	H	0.423810	0.082003	0.065394
H470	H	0.757144	0.415336	0.398728
H471	H	1.090477	0.748670	0.732061
Br472	Br	0.501986	-0.880159	-0.006842
Br473	Br	0.835319	-0.546825	0.326491
Br474	Br	1.168652	-0.213492	0.659824
H475	H	0.694908	-0.000064	-0.425472
H476	H	1.028241	0.333270	-0.092138
H477	H	1.361575	0.666603	0.241195
Br478	Br	0.318649	-0.106653	0.064308
Br479	Br	0.651982	0.226681	0.397642
Br480	Br	0.985315	0.560014	0.730975
H481	H	-0.191246	0.081984	0.059091
H482	H	0.142087	0.415317	0.392424
H483	H	0.475421	0.748650	0.725758
H484	H	0.191873	-0.127325	0.063014
H485	H	0.525206	0.206008	0.396347
H486	H	0.858539	0.539341	0.729680
Br487	Br	-0.064512	-0.151880	0.060386
Br488	Br	0.268822	0.181454	0.393719
Br489	Br	0.602155	0.514787	0.727053
H490	H	0.517723	-0.134177	0.008963
H491	H	0.851057	0.199157	0.342297
H492	H	1.184390	0.532490	0.675630
Br493	Br	0.718373	-0.000063	-0.474886
Br494	Br	1.051706	0.333270	-0.141553
Br495	Br	1.385040	0.666604	0.191781
H496	H	0.623300	-0.134134	0.114599
H497	H	0.956633	0.199199	0.447933
H498	H	1.289966	0.532533	0.781266
H499	H	0.652449	-0.625713	0.143695
H500	H	0.985783	-0.292380	0.477028
H501	H	1.319116	0.040953	0.810362
Br502	Br	0.472887	-0.639956	-0.035965
Br503	Br	0.806220	-0.306623	0.297369
Br504	Br	1.139553	0.026711	0.630702
Br505	Br	0.421187	-0.000014	-0.552788
Br506	Br	0.754520	0.333319	-0.219455
Br507	Br	1.087854	0.666652	0.113878
H508	H	0.488676	-0.531055	-0.020159
H509	H	0.822009	-0.197721	0.313175
H510	H	1.155342	0.135612	0.646508
H511	H	0.652427	-0.374329	0.143703
H512	H	0.985761	-0.040996	0.477037
H513	H	1.319094	0.292338	0.810370
Br514	Br	0.462906	-0.000031	-0.790795
Br515	Br	0.796239	0.333303	-0.457462
Br516	Br	1.129572	0.666636	-0.124129
H517	H	0.100426	-0.127329	0.062075
H518	H	0.433760	0.206005	0.395409
H519	H	0.767093	0.539338	0.728742
Br520	Br	0.639157	-0.757022	0.130401
Br521	Br	0.972490	-0.423688	0.463734
Br522	Br	1.305824	-0.090355	0.797068
Br523	Br	0.678181	-0.000092	-0.085647
Br524	Br	1.011514	0.333242	0.247687
Br525	Br	1.344848	0.666575	0.581020
H526	H	0.695837	-0.000072	-0.334024
H527	H	1.029171	0.333261	-0.000691
H528	H	1.362504	0.666595	0.332642
H529	H	0.647863	-0.000054	-0.711076
H530	H	0.981197	0.333279	-0.377743
H531	H	1.314530	0.666612	-0.044409
Br532	Br	0.670720	-0.000048	-0.819536
Br533	Br	1.004054	0.333285	-0.486202
Br534	Br	1.337387	0.666618	-0.152869
H535	H	0.446789	-0.000016	-0.391167
H536	H	0.780123	0.333318	-0.057834
H537	H	1.113456	0.666651	0.275499
H538	H	0.447722	-0.000018	-0.299716
H539	H	0.781055	0.333315	0.033617
H540	H	1.114389	0.666648	0.366950
H541	H	0.493226	-0.000066	-0.165375
H542	H	0.826559	0.333267	0.167959
H543	H	1.159893	0.666601	0.501292
H544	H	-0.191264	-0.082118	0.059100
H545	H	0.142069	0.251215	0.392434
H546	H	0.475402	0.584549	0.725767
H547	H	-0.282729	-0.082116	0.058161
H548	H	0.050604	0.251217	0.391495
H549	H	0.383937	0.584550	0.724828
H550	H	-0.282697	0.081978	0.058166
H551	H	0.050636	0.415312	0.391500
H552	H	0.383970	0.748645	0.724833
H553	H	0.100469	0.127217	0.062062
H554	H	0.433802	0.460550	0.395395
H555	H	0.767136	0.793883	0.728729
H556	H	0.040639	-0.127331	0.061463
H557	H	0.373972	0.206002	0.394796
H558	H	0.707306	0.539335	0.728129
H559	H	-0.050776	0.127205	0.060523
H560	H	0.282557	0.460538	0.393856
H561	H	0.615891	0.793871	0.727190
H562	H	0.040671	0.127207	0.061457
H563	H	0.374005	0.460540	0.394791
H564	H	0.707338	0.793873	0.728124
