data_functionalizedCrystal
_audit_creation_method	'MofGen! by Chris Wilmer'
_symmetry_space_group_name_H-M	'P1'
_symmetry_Int_Tables_number	1
_symmetry_cell_setting	triclinic
loop_
_symmetry_equiv_pos_as_xyz
  x,y,z
_cell_length_a	11.026607
_cell_length_b	14.519709
_cell_length_c	9.482900
_cell_angle_alpha	99.350820
_cell_angle_beta	78.636152
_cell_angle_gamma	96.133081
loop_
_atom_site_label
_atom_site_type_symbol
_atom_site_fract_x
_atom_site_fract_y
_atom_site_fract_z
O1	O	1.629894	0.375017	-0.120915
O2	O	2.129894	0.875017	0.379085
O3	O	1.276492	0.331026	-0.120914
O4	O	1.776492	0.831026	0.379086
O5	O	1.462561	0.220328	-0.120901
O6	O	1.962561	0.720328	0.379099
O7	O	1.443825	0.485715	-0.120927
O8	O	1.943825	0.985715	0.379073
O9	O	1.424766	0.242929	0.120889
O10	O	1.924766	0.742929	0.620889
O11	O	1.238698	0.353627	0.120876
O12	O	1.738698	0.853627	0.620876
O13	O	1.592099	0.397617	0.120875
O14	O	2.092099	0.897617	0.620875
Cu15	Cu	1.411948	0.377686	0.142953
Cu16	Cu	1.911948	0.877686	0.642953
Cu17	Cu	1.456644	0.350958	-0.142992
Cu18	Cu	1.956644	0.850958	0.357008
O19	O	1.406031	0.508316	0.120862
O20	O	1.906031	1.008316	0.620862
C21	C	1.212367	0.334211	-0.000019
C22	C	1.712367	0.834211	0.499981
C23	C	1.077600	0.310019	-0.000019
C24	C	1.577600	0.810019	0.499981
C25	C	1.003940	0.376817	-0.000026
C26	C	1.503940	0.876817	0.499974
C27	C	0.864652	0.351815	-0.000026
C28	C	1.364652	0.851815	0.499974
C29	C	1.442790	0.197125	-0.000006
C30	C	1.942790	0.697125	0.499994
C31	C	1.440173	0.094312	-0.000005
C32	C	1.940173	0.594312	0.499995
C33	C	1.430544	-0.282175	-0.000043
C34	C	1.930544	0.217825	0.499957
C35	C	1.433218	-0.177425	-0.000032
C36	C	1.933218	0.322575	0.499968
C37	C	1.435358	-0.093934	-0.000023
C38	C	1.935358	0.406066	0.499977
C39	C	1.438033	0.010822	-0.000015
C40	C	1.938033	0.510822	0.499985
C41	C	1.656226	0.394432	-0.000023
C42	C	2.156226	0.894432	0.499977
C43	C	1.790994	0.418624	-0.000033
C44	C	2.290994	0.918624	0.499967
C45	C	1.425802	0.531518	-0.000036
C46	C	1.925802	1.031518	0.499964
C47	C	1.428421	0.634330	-0.000046
C48	C	1.928421	1.134330	0.499954
N49	N	1.380519	0.396486	0.344071
N50	N	1.880519	0.896486	0.844071
N51	N	1.488082	0.332152	-0.344110
N52	N	1.988082	0.832152	0.155890
C53	C	1.447366	0.356497	0.416275
C54	C	1.947366	0.856497	0.916275
C55	C	1.421226	0.372147	0.583690
C56	C	1.921226	0.872147	1.083690
H57	H	1.523943	0.310669	0.354152
H58	H	2.023943	0.810669	0.854152
N59	N	1.325142	0.429624	0.661629
N60	N	1.825142	0.929624	1.161629
N61	N	1.304039	0.442252	0.797516
N62	N	1.804039	0.942252	1.297516
H63	H	1.236180	0.482843	0.852564
H64	H	1.736180	0.982843	1.352564
H65	H	1.564664	0.286322	0.593771
H66	H	2.064664	0.786322	1.093771
N67	N	1.027382	0.215049	0.000006
N68	N	1.527382	0.715049	0.500006
N69	N	1.035072	0.172421	0.101932
N70	N	1.535072	0.672421	0.601932
H71	H	0.999610	0.105345	0.101951
H72	H	1.499610	0.605345	0.601951
N73	N	0.841231	0.513592	-0.000073
N74	N	1.341231	1.013592	0.499927
N75	N	0.833552	0.556218	-0.102006
N76	N	1.333552	1.056218	0.397994
H77	H	0.869034	0.623288	-0.102037
H78	H	1.369034	1.123288	0.397963
N79	N	1.284441	0.453960	0.422015
N80	N	1.784441	0.953960	0.922015
N81	N	1.263338	0.466588	0.557902
N82	N	1.763338	0.966588	1.057902
H83	H	1.195479	0.507179	0.612950
H84	H	1.695479	1.007179	1.112950
H85	H	0.824606	0.276108	-0.000055
H86	H	1.324606	0.776108	0.499945
N87	N	1.054195	0.471780	-0.000019
N88	N	1.554195	0.971780	0.499981
N89	N	1.167272	0.491957	-0.000013
N90	N	1.667272	0.991957	0.499987
H91	H	1.202764	0.559027	-0.000006
H92	H	1.702764	1.059027	0.499994
