data_functionalizedCrystal
_audit_creation_method	'MofGen! by Chris Wilmer'
_symmetry_space_group_name_H-M	'P1'
_symmetry_Int_Tables_number	1
_symmetry_cell_setting	triclinic
loop_
_symmetry_equiv_pos_as_xyz
  x,y,z
_cell_length_a	16.959455
_cell_length_b	17.640280
_cell_length_c	16.959447
_cell_angle_alpha	78.773258
_cell_angle_beta	89.985678
_cell_angle_gamma	78.797529
loop_
_atom_site_label
_atom_site_type_symbol
_atom_site_fract_x
_atom_site_fract_y
_atom_site_fract_z
Zn1	Zn	1.272058	-0.314718	-0.383358
Zn2	Zn	1.298725	-0.446906	-0.224487
Zn3	Zn	1.139892	-0.314743	-0.251191
Zn4	Zn	1.166584	-0.446847	-0.356638
O5	O	1.219315	-0.380803	-0.303918
O6	O	1.386210	-0.332268	-0.362291
O7	O	1.277645	-0.429409	-0.117412
O8	O	1.135093	-0.204133	-0.291081
O9	O	1.405802	-0.429385	-0.245569
O10	O	1.232195	-0.204115	-0.388184
O11	O	1.160951	-0.332310	-0.137030
O12	O	1.032819	-0.332252	-0.265171
O13	O	1.180586	-0.429284	-0.470800
O14	O	1.052429	-0.429308	-0.342643
O15	O	1.258077	-0.332210	-0.490432
O16	O	1.303527	-0.557504	-0.219659
O17	O	1.206444	-0.557461	-0.316750
C18	C	1.013943	-0.380777	-0.303906
C19	C	0.926088	-0.380785	-0.303915
C20	C	1.260797	-0.586162	-0.262425
C21	C	1.278616	-0.674015	-0.244700
C22	C	0.544372	-0.330225	-0.263693
C23	C	0.564874	-0.431447	-0.344176
C24	C	0.647417	-0.431435	-0.344174
C25	C	0.678442	-0.380819	-0.303929
C26	C	0.626924	-0.330214	-0.263687
C27	C	0.698943	-0.482045	-0.384408
C28	C	0.781492	-0.482037	-0.384406
C29	C	0.812518	-0.431416	-0.344166
C30	C	0.760993	-0.380808	-0.303923
C31	C	0.792018	-0.330191	-0.263679
C32	C	0.740495	-0.279579	-0.223440
C33	C	0.657949	-0.279593	-0.223447
C34	C	0.895063	-0.431402	-0.344159
C35	C	0.874570	-0.330180	-0.263673
C36	C	1.084273	-0.962977	-0.438860
C37	C	1.101018	-1.045529	-0.422179
C38	C	1.202174	-1.045509	-0.321181
C39	C	1.185440	-0.962956	-0.337856
C40	C	1.126488	-0.921696	-0.396695
C41	C	1.227655	-0.921675	-0.295692
C42	C	1.210920	-0.839129	-0.312362
C43	C	1.151969	-0.797864	-0.371197
C44	C	1.109753	-0.839151	-0.413366
C45	C	1.286603	-0.962935	-0.236849
C46	C	1.328818	-0.921654	-0.194684
C47	C	1.312087	-0.839107	-0.211358
C48	C	1.253136	-0.797842	-0.270193
C49	C	1.354303	-0.797820	-0.169190
C50	C	1.337568	-0.715274	-0.185860
C51	C	1.236401	-0.715296	-0.286864
C52	C	1.425488	-0.380830	-0.303932
C53	C	1.513347	-0.380841	-0.303937
C54	C	1.219334	-0.380738	-0.510100
C55	C	1.219343	-0.380710	-0.597962
C56	C	1.177692	-0.174643	-0.345592
C57	C	1.159955	-0.086790	-0.363350
C58	C	1.179074	-0.431169	-0.959236
C59	C	1.259767	-0.330085	-0.979674
C60	C	1.259749	-0.330101	-0.897124
C61	C	1.219394	-0.380653	-0.845627
C62	C	1.179057	-0.431189	-0.876679
C63	C	1.300092	-0.279573	-0.866065
C64	C	1.300077	-0.279588	-0.783511
C65	C	1.259717	-0.330137	-0.732013
C66	C	1.219377	-0.380673	-0.763069
C67	C	1.179023	-0.431225	-0.711572
C68	C	1.138678	-0.481759	-0.742628
C69	C	1.138697	-0.481737	-0.825180
C70	C	1.259698	-0.330158	-0.649460
C71	C	1.179006	-0.431245	-0.629014
C72	C	1.219329	-0.380811	-0.098551
C73	C	1.219429	-0.380617	-0.010734
H74	H	0.765767	-0.238370	-0.190669
H75	H	1.292548	-0.289017	-0.624177
H76	H	0.823436	-0.523248	-0.417171
H77	H	0.615992	-0.238388	-0.190686
C78	C	0.908230	-0.275323	-0.219824
C79	C	0.891597	-0.292452	-0.138130
C80	C	0.922602	-0.241942	-0.097709
H81	H	0.884005	-0.222203	-0.242109
H82	H	0.964780	-0.282572	-0.225525
H83	H	0.835057	-0.285196	-0.132434
H84	H	0.915822	-0.345563	-0.115823
H85	H	0.979152	-0.249192	-0.103411
H86	H	0.898374	-0.188825	-0.120001
H87	H	0.911327	-0.253562	-0.042275
C88	C	1.383373	-0.670547	-0.139936
C89	C	1.370311	-0.690692	-0.057646
C90	C	1.412498	-0.649511	-0.015310
H91	H	1.365006	-0.615465	-0.158186
H92	H	1.439225	-0.684043	-0.148778
H93	H	1.314470	-0.677190	-0.048809
H94	H	1.388681	-0.745766	-0.039371
H95	H	1.468350	-0.663008	-0.024152
H96	H	1.394127	-0.594432	-0.033568
H97	H	1.403647	-0.663179	0.040528
H98	H	1.105825	-0.522921	-0.700687
C99	C	0.488423	-0.275408	-0.219883
C100	C	0.450060	-0.320101	-0.160107
C101	C	0.398521	-0.269632	-0.119726
H102	H	0.449212	-0.240994	-0.257042
H103	H	0.518702	-0.245277	-0.195865
H104	H	0.419782	-0.350219	-0.184124
H105	H	0.489251	-0.354514	-0.122931
H106	H	0.428801	-0.239500	-0.095709
H107	H	0.359315	-0.235220	-0.156891
H108	H	0.372491	-0.299949	-0.079159
C109	C	1.304863	-1.052558	-0.218602
C110	C	1.365506	-1.079855	-0.158031
C111	C	1.382340	-1.162410	-0.141195
H112	H	1.322330	-1.071296	-0.265790
H113	H	1.257678	-1.071304	-0.201066
H114	H	1.412682	-1.061117	-0.175571
H115	H	1.348056	-1.061139	-0.110831
H116	H	1.335154	-1.181156	-0.123658
H117	H	1.399804	-1.181140	-0.188387
H118	H	1.423482	-1.180942	-0.100091
C119	C	1.020222	-0.918316	-0.502757
C120	C	0.986824	-0.972134	-0.536113
C121	C	0.927818	-0.931020	-0.594971
H122	H	1.043823	-0.886077	-0.543798
H123	H	0.979238	-0.886168	-0.479007
H124	H	1.027800	-1.004268	-0.559864
H125	H	0.963206	-1.004375	-0.495093
H126	H	0.886834	-0.898872	-0.571221
H127	H	0.951426	-0.898782	-0.636006
H128	H	0.905144	-0.967529	-0.617605
C129	C	0.951062	-0.486444	-0.387690
C130	C	1.008656	-0.537053	-0.332619
C131	C	1.060248	-0.587778	-0.372691
H132	H	0.977254	-0.456341	-0.428278
H133	H	0.920796	-0.516640	-0.411631
H134	H	1.038919	-0.506861	-0.308690
H135	H	0.982488	-0.567173	-0.292029
H136	H	1.029982	-0.617973	-0.396633
H137	H	1.086434	-0.557668	-0.413278
H138	H	1.099327	-0.622126	-0.335331
C139	C	1.135123	-0.485935	-0.992926
C140	C	1.053433	-0.468705	-0.976340
C141	C	1.012918	-0.519134	-1.007372
H142	H	1.157312	-0.539075	-0.968686
H143	H	1.140853	-0.478679	-1.049476
H144	H	1.047708	-0.475969	-0.919801
H145	H	1.031221	-0.415575	-1.000580
H146	H	1.018649	-0.511877	-1.063922
H147	H	1.035114	-0.572270	-0.983129
H148	H	0.957487	-0.507445	-0.996129
H149	H	1.402296	-0.831426	-0.121277
H150	H	1.146135	-0.472404	-0.587091
C151	C	0.665182	-0.536860	-0.428224
C152	C	0.608793	-0.492162	-0.488004
C153	C	0.577675	-0.542628	-0.528393
H154	H	0.639856	-0.571275	-0.391071
H155	H	0.707654	-0.566991	-0.452239
H156	H	0.566327	-0.462045	-0.463989
H157	H	0.634099	-0.457749	-0.525174
H158	H	0.620147	-0.572759	-0.552408
H159	H	0.552354	-0.577041	-0.491234
H160	H	0.539417	-0.512308	-0.568963
H161	H	1.066646	-1.079137	-0.456529
H162	H	1.250170	-1.079113	-0.273272
C163	C	1.094976	-0.536730	-0.858774
C164	C	1.127959	-0.614939	-0.822863
C165	C	1.087701	-0.665620	-0.853786
H166	H	1.100743	-0.529585	-0.915304
H167	H	1.039522	-0.525208	-0.847564
H168	H	1.183399	-0.626457	-0.834079
H169	H	1.122193	-0.622109	-0.766335
H170	H	1.032247	-0.654098	-0.842576
H171	H	1.093470	-0.658469	-0.910315
H172	H	1.110069	-0.718690	-0.829420
H173	H	1.188402	-0.681701	-0.334783
C174	C	0.531117	-0.486264	-0.387992
C175	C	0.474722	-0.441571	-0.447768
C176	C	0.443611	-0.492041	-0.488158
H177	H	0.505799	-0.520686	-0.350839
H178	H	0.573592	-0.516388	-0.412011
H179	H	0.432254	-0.411461	-0.423750
H180	H	0.500021	-0.407152	-0.484939
H181	H	0.486086	-0.522165	-0.512177
H182	H	0.418297	-0.526460	-0.450999
H183	H	0.405349	-0.461724	-0.528725
C184	C	1.343758	-0.224601	-0.922039
C185	C	1.288781	-0.173909	-0.979667
C186	C	1.328977	-0.123251	-1.031243
H187	H	1.384301	-0.254749	-0.948210
H188	H	1.367765	-0.194464	-0.891760
H189	H	1.264787	-0.204043	-1.009942
H190	H	1.248237	-0.143743	-0.953519
H191	H	1.352984	-0.093114	-1.000963
H192	H	1.369519	-0.153406	-1.057408
H193	H	1.291681	-0.088846	-1.070344
C194	C	1.343884	-0.224634	-0.749958
C195	C	1.379211	-0.180346	-0.812730
C196	C	1.419561	-0.129705	-0.781852
H197	H	1.384474	-0.254790	-0.711650
H198	H	1.306692	-0.190155	-0.724748
H199	H	1.416400	-0.214821	-0.837926
H200	H	1.338639	-0.150175	-0.851042
H201	H	1.382369	-0.095227	-0.756643
H202	H	1.460147	-0.159867	-0.743545
H203	H	1.443529	-0.099645	-0.824439
C204	C	1.045876	-0.794300	-0.477361
C205	C	1.080994	-0.746868	-0.537647
C206	C	1.022183	-0.705547	-0.596613
H207	H	1.004908	-0.762073	-0.453693
H208	H	1.023138	-0.830678	-0.500146
H209	H	1.103720	-0.710495	-0.514864
H210	H	1.121956	-0.779076	-0.561336
H211	H	0.999444	-0.741924	-0.619398
H212	H	0.981218	-0.673324	-0.572938
H213	H	1.046003	-0.673365	-0.637528
H214	H	1.292627	-0.288932	-1.021606
C215	C	1.392926	-0.966359	-0.130870
C216	C	1.467037	-0.946209	-0.152209
C217	C	1.526109	-0.987369	-0.093438
H218	H	1.396951	-1.021444	-0.126930
H219	H	1.378704	-0.952850	-0.080465
H220	H	1.481256	-0.959724	-0.202600
H221	H	1.463038	-0.891132	-0.156142
H222	H	1.511887	-0.973860	-0.043032
H223	H	1.530127	-1.042452	-0.089502
H224	H	1.576399	-0.973698	-0.107904
H225	H	1.138338	-0.730650	-0.384764
