data_functionalizedCrystal
_audit_creation_method	'MofGen! by Chris Wilmer'
_symmetry_space_group_name_H-M	'P1'
_symmetry_Int_Tables_number	1
_symmetry_cell_setting	triclinic
loop_
_symmetry_equiv_pos_as_xyz
  x,y,z
_cell_length_a	14.908783
_cell_length_b	12.594516
_cell_length_c	14.908308
_cell_angle_alpha	93.270069
_cell_angle_beta	89.788727
_cell_angle_gamma	93.302904
loop_
_atom_site_label
_atom_site_type_symbol
_atom_site_fract_x
_atom_site_fract_y
_atom_site_fract_z
Zn1	Zn	1.345361	-0.372276	-0.587850
Zn2	Zn	1.353962	-0.539461	-0.437499
Zn3	Zn	1.203674	-0.371124	-0.428821
Zn4	Zn	1.194990	-0.559842	-0.579122
O5	O	1.274497	-0.460676	-0.508323
O6	O	1.472329	-0.386406	-0.575190
O7	O	1.341260	-0.508119	-0.310524
O8	O	1.222504	-0.222330	-0.449938
O9	O	1.478648	-0.509236	-0.464728
O10	O	1.326600	-0.223176	-0.566775
O11	O	1.230844	-0.384442	-0.304148
O12	O	1.076695	-0.404205	-0.441474
O13	O	1.207703	-0.543973	-0.706103
O14	O	1.070315	-0.542856	-0.551899
O15	O	1.318180	-0.406168	-0.712516
O16	O	1.332840	-0.691111	-0.456264
O17	O	1.216044	-0.706085	-0.560314
C18	C	1.040880	-0.475618	-0.494799
C19	C	0.940936	-0.482038	-0.489034
C20	C	0.746539	-0.366397	-0.593402
C21	C	0.652633	-0.372425	-0.587989
C22	C	0.659217	-0.500116	-0.472791
C23	C	0.753123	-0.494088	-0.478204
C24	C	0.796780	-0.427227	-0.538513
C25	C	0.890688	-0.421205	-0.543930
C26	C	0.897270	-0.548890	-0.428727
C27	C	0.803364	-0.554918	-0.423314
C28	C	1.274456	-0.737218	-0.508305
C29	C	1.274519	-0.855521	-0.508332
C30	C	1.338111	-0.916591	-0.451807
C31	C	1.355345	-0.991792	-0.535144
C32	C	1.257394	-0.991116	-0.425054
C33	C	1.291793	-0.929164	-0.591714
C34	C	1.193808	-0.928480	-0.481567
C35	C	1.211007	-1.003655	-0.564958
C36	C	1.509026	-0.445676	-0.521900
C37	C	1.608968	-0.439283	-0.527686
C38	C	1.261014	-0.477472	-0.742846
C39	C	1.255268	-0.484630	-0.842786
C40	C	1.274561	-0.183053	-0.508362
C41	C	1.274588	-0.064747	-0.508379
C42	C	1.359508	-0.354561	-1.037263
C43	C	1.354112	-0.361282	-1.131166
C44	C	1.239076	-0.504789	-1.124496
C45	C	1.244472	-0.498068	-1.030593
C46	C	1.304691	-0.422952	-0.986980
C47	C	1.310091	-0.416236	-0.893076
C48	C	1.195051	-0.559737	-0.886408
C49	C	1.189655	-0.566459	-0.980310
C50	C	1.287979	-0.443864	-0.274715
C51	C	1.293899	-0.436395	-0.174785
H52	H	0.767805	-0.609351	-0.374210
H53	H	0.623654	-0.554538	-0.423680
H54	H	1.125544	-0.900518	-0.458880
C55	C	1.446466	-1.028976	-0.565195
C56	C	1.512753	-0.984622	-0.505754
C57	C	1.596704	-1.018858	-0.533395
H58	H	1.459218	-1.006795	-0.623960
H59	H	1.445701	-1.104476	-0.565485
H60	H	1.513520	-0.909138	-0.505473
H61	H	1.500031	-1.006798	-0.446986
H62	H	1.595939	-1.094358	-0.533685
H63	H	1.609447	-0.996675	-0.592161
H64	H	1.641688	-0.988777	-0.493065
C65	C	1.173610	-0.586370	-1.171689
C66	C	1.126739	-0.644814	-1.107556
C67	C	1.066415	-0.719966	-1.150996
H68	H	1.205791	-0.633263	-1.210307
H69	H	1.132288	-0.550803	-1.206032
H70	H	1.168055	-0.680379	-1.073228
H71	H	1.094539	-0.597950	-1.068935
H72	H	1.025093	-0.684399	-1.185339
H73	H	1.098604	-0.766851	-1.189614
H74	H	1.034600	-0.759622	-1.107489
H75	H	1.306234	-0.901946	-0.662216
C76	C	0.938213	-0.348535	-0.609266
C77	C	0.995058	-0.273142	-0.561559
C78	C	1.038857	-0.206186	-0.621717
H79	H	0.894940	-0.313062	-0.641205
H80	H	0.972655	-0.389734	-0.650490
H81	H	0.960618	-0.231948	-0.520351
H82	H	1.038348	-0.308584	-0.529623
H83	H	1.073299	-0.247385	-0.662941
H84	H	0.995578	-0.170721	-0.653653
H85	H	1.077437	-0.155031	-0.589358
C86	C	1.413738	-0.286972	-1.185603
C87	C	1.467641	-0.219772	-1.127307
C88	C	1.522589	-0.151309	-1.177422
H89	H	1.377346	-0.245320	-1.220259
H90	H	1.450853	-0.327774	-1.224480
H91	H	1.430529	-0.178974	-1.088446
H92	H	1.504051	-0.261395	-1.092649
H93	H	1.559705	-0.192111	-1.216299
H94	H	1.486190	-0.109664	-1.212076
H95	H	1.559175	-0.105712	-1.137876
H96	H	1.150418	-0.615429	-0.845457
H97	H	1.242881	-1.018474	-0.354608
C98	C	1.139446	-1.053971	-0.628944
C99	C	1.157838	-1.022516	-0.716007
C100	C	1.091946	-1.068859	-0.774978
H101	H	1.082191	-1.031372	-0.610539
H102	H	1.139540	-1.129351	-0.628305
H103	H	1.157734	-0.947151	-0.716643
H104	H	1.215081	-1.045114	-0.734440
H105	H	1.092041	-1.144239	-0.774339
H106	H	1.034695	-1.046257	-0.756565
H107	H	1.104420	-1.047531	-0.834058
H108	H	0.782086	-0.311961	-0.642512
C109	C	1.375576	-0.334847	-0.845679
C110	C	1.436314	-0.387557	-0.795114
C111	C	1.496657	-0.312611	-0.751451
H112	H	1.343397	-0.288022	-0.806996
H113	H	1.407502	-0.295087	-0.889051
H114	H	1.404392	-0.427298	-0.751746
H115	H	1.468514	-0.434376	-0.833775
H116	H	1.528583	-0.272852	-0.794823
H117	H	1.464470	-0.265791	-0.712772
H118	H	1.537880	-0.348364	-0.717144
H119	H	1.408544	-0.293403	-1.001753
H120	H	1.140626	-0.627614	-1.015833
C121	C	1.409680	-0.865909	-0.388003
C122	C	1.368990	-0.803078	-0.320730
C123	C	1.434890	-0.756384	-0.261937
H124	H	1.451225	-0.822623	-0.420351
H125	H	1.440432	-0.920150	-0.361392
H126	H	1.338253	-0.748844	-0.347339
H127	H	1.327451	-0.846340	-0.288361
H128	H	1.465642	-0.810625	-0.235326
H129	H	1.476431	-0.713104	-0.294292
H130	H	1.407291	-0.713757	-0.216281
C131	C	0.951923	-0.615008	-0.369280
C132	C	1.002932	-0.683480	-0.423208
C133	C	1.053297	-0.744396	-0.368483
H134	H	0.912573	-0.655782	-0.332576
H135	H	0.990854	-0.569102	-0.332287
H136	H	0.964005	-0.729380	-0.460186
H137	H	1.042299	-0.642734	-0.459911
H138	H	1.092227	-0.698490	-0.331490
H139	H	1.013940	-0.785163	-0.331781
H140	H	1.087918	-0.790854	-0.405064
H141	H	0.611730	-0.322888	-0.632684
