data_functionalizedCrystal
_audit_creation_method	'MofGen! by Chris Wilmer'
_symmetry_space_group_name_H-M	'P1'
_symmetry_Int_Tables_number	1
_symmetry_cell_setting	triclinic
loop_
_symmetry_equiv_pos_as_xyz
  x,y,z
_cell_length_a	14.908571
_cell_length_b	18.050589
_cell_length_c	14.908308
_cell_angle_alpha	93.269302
_cell_angle_beta	90.175053
_cell_angle_gamma	86.724558
loop_
_atom_site_label
_atom_site_type_symbol
_atom_site_fract_x
_atom_site_fract_y
_atom_site_fract_z
Zn1	Zn	1.345230	-0.387558	-0.587600
Zn2	Zn	1.353791	-0.505024	-0.437245
Zn3	Zn	1.203548	-0.373294	-0.428597
Zn4	Zn	1.194819	-0.504142	-0.578897
O5	O	1.274347	-0.442504	-0.508085
O6	O	1.472191	-0.409479	-0.574916
O7	O	1.341097	-0.481949	-0.310273
O8	O	1.222413	-0.271266	-0.449712
O9	O	1.478480	-0.495781	-0.464452
O10	O	1.326506	-0.281746	-0.566530
O11	O	1.230714	-0.385168	-0.303919
O12	O	1.076565	-0.384312	-0.441273
O13	O	1.207536	-0.494277	-0.705876
O14	O	1.070152	-0.480446	-0.551698
O15	O	1.318042	-0.408624	-0.712270
O16	O	1.332633	-0.608827	-0.456013
O17	O	1.215836	-0.608179	-0.560084
C18	C	1.040734	-0.430736	-0.494603
C19	C	0.940791	-0.425720	-0.488857
C20	C	1.274239	-0.635451	-0.508063
C21	C	1.274274	-0.717999	-0.508089
C22	C	0.746369	-0.516539	-0.592890
C23	C	0.652464	-0.511829	-0.587494
C24	C	0.659075	-0.411586	-0.472674
C25	C	0.752980	-0.416296	-0.478070
C26	C	0.796623	-0.468775	-0.538179
C27	C	0.890530	-0.473489	-0.543570
C28	C	0.897139	-0.373243	-0.428755
C29	C	0.803235	-0.368533	-0.423359
C30	C	1.210820	-0.917126	-0.564665
C31	C	1.193639	-0.961795	-0.481356
C32	C	1.274362	-0.869134	-0.508106
C33	C	1.291586	-0.971550	-0.591427
C34	C	1.274444	-1.015125	-0.508129
C35	C	1.257140	-0.912712	-0.424750
C36	C	1.355122	-0.922467	-0.534880
C37	C	1.337975	-0.967112	-0.451515
C38	C	1.274312	-0.785033	-0.508094
C39	C	1.274495	-1.099224	-0.508132
C40	C	1.508873	-0.454320	-0.521619
C41	C	1.608814	-0.459355	-0.527387
C42	C	1.260860	-0.452943	-0.742610
C43	C	1.255113	-0.457391	-0.842551
C44	C	1.274479	-0.248807	-0.508127
C45	C	1.274535	-0.166265	-0.508145
C46	C	1.359381	-0.376542	-1.037010
C47	C	1.353984	-0.380719	-1.130914
C48	C	1.238917	-0.469919	-1.124263
C49	C	1.244314	-0.465741	-1.030360
C50	C	1.304549	-0.419052	-0.986737
C51	C	1.309951	-0.414880	-0.892832
C52	C	1.194880	-0.504075	-0.886183
C53	C	1.189483	-0.508252	-0.980086
C54	C	1.287833	-0.432055	-0.274474
C55	C	1.293755	-0.427407	-0.174544
H56	H	0.926063	-0.516221	-0.592512
C57	C	0.597182	-0.564368	-0.647672
H58	H	0.535005	-0.554044	-0.635857
H59	H	0.613312	-0.614431	-0.635301
H60	H	0.609116	-0.557030	-0.708996
H61	H	1.125381	-0.979255	-0.458730
C62	C	0.611057	-0.353873	-0.406553
H63	H	0.547934	-0.357916	-0.411172
H64	H	0.625702	-0.305350	-0.420682
H65	H	0.629903	-0.362762	-0.347000
C66	C	1.237393	-0.878136	-0.329539
H67	H	1.229211	-0.916516	-0.289807
H68	H	1.184369	-0.846408	-0.330591
H69	H	1.286428	-0.850162	-0.309474
C70	C	1.410615	-0.996570	-0.386840
H71	H	1.398258	-0.976209	-0.327704
H72	H	1.467808	-0.982454	-0.405343
H73	H	1.410575	-1.049229	-0.387560
C74	C	0.794379	-0.574264	-0.659001
H75	H	0.750999	-0.602035	-0.690815
H76	H	0.832974	-0.606879	-0.626644
H77	H	0.828774	-0.549485	-0.700347
H78	H	1.157015	-0.895182	-0.612419
H79	H	1.423362	-0.905010	-0.557544
C80	C	1.311229	-1.006249	-0.686603
H81	H	1.265999	-0.989108	-0.726699
H82	H	1.311665	-1.058854	-0.685831
H83	H	1.368137	-0.992174	-0.706001
C84	C	1.376202	-0.363525	-0.844843
H85	H	1.371572	-0.367129	-0.781717
H86	H	1.362188	-0.313651	-0.859482
H87	H	1.435728	-0.378122	-0.863717
C88	C	1.425633	-0.325187	-0.989022
H89	H	1.457514	-0.300464	-1.032413
H90	H	1.466896	-0.353935	-0.954641
H91	H	1.393354	-0.289466	-0.950416
C92	C	0.755222	-0.310815	-0.357240
H93	H	0.692098	-0.314853	-0.361857
H94	H	0.769872	-0.262294	-0.371375
H95	H	0.774069	-0.319701	-0.297687
H96	H	1.398631	-0.346101	-1.171843
C97	C	1.172658	-0.521263	-1.172259
H98	H	1.177299	-0.517660	-1.235384
H99	H	1.113138	-0.506667	-1.153383
H100	H	1.186670	-0.571143	-1.157630
C101	C	0.952421	-0.320699	-0.368573
H102	H	1.014598	-0.331016	-0.380397
H103	H	0.940486	-0.328028	-0.307253
H104	H	0.936293	-0.270634	-0.380956
C105	C	1.123233	-0.559608	-1.028077
H106	H	1.127875	-0.556012	-1.091203
H107	H	1.063710	-0.545020	-1.009204
H108	H	1.137258	-0.609484	-1.013439
H109	H	1.150234	-0.538692	-0.845240
