data_functionalizedCrystal
_audit_creation_method	'MofGen! by Chris Wilmer'
_symmetry_space_group_name_H-M	'P1'
_symmetry_Int_Tables_number	1
_symmetry_cell_setting	triclinic
loop_
_symmetry_equiv_pos_as_xyz
  x,y,z
_cell_length_a	27.440280
_cell_length_b	27.440280
_cell_length_c	21.606444
_cell_angle_alpha	59.992778
_cell_angle_beta	90.005497
_cell_angle_gamma	60.007024
loop_
_atom_site_label
_atom_site_type_symbol
_atom_site_fract_x
_atom_site_fract_y
_atom_site_fract_z
Zr1	Zr	0.469576	0.533359	-0.081208
O2	O	0.391768	0.635038	-0.180058
O3	O	0.493418	0.431690	-0.050897
O4	O	0.493428	0.533360	-0.180031
O5	O	0.391762	0.533364	0.050930
O6	O	0.573631	0.533351	-0.180018
O7	O	0.391758	0.533368	-0.050924
O8	O	0.573613	0.351481	0.050979
O9	O	0.391780	0.715233	-0.180067
O10	O	0.563453	0.473498	-0.037969
O11	O	0.503602	0.473502	0.038034
O12	O	0.503613	0.593206	-0.114005
O13	O	0.443762	0.593210	-0.038002
Zr14	Zr	0.597497	0.533339	0.081258
Zr15	Zr	0.597490	0.533344	-0.081187
Zr16	Zr	0.469583	0.533354	0.081238
Zr17	Zr	0.469595	0.661262	-0.081222
Zr18	Zr	0.597478	0.405436	0.081273
O19	O	0.573655	0.635009	0.050948
O20	O	0.573645	0.635016	-0.180029
O21	O	0.391777	0.635030	0.050919
O22	O	0.675305	0.431661	0.180109
O23	O	0.675296	0.431669	-0.050868
O24	O	0.493427	0.431682	0.180080
O25	O	0.675310	0.533334	-0.050879
O26	O	0.573645	0.533338	0.180081
O27	O	0.493442	0.533348	0.180069
O28	O	0.675314	0.533331	0.050975
O29	O	0.493454	0.715222	-0.180051
O30	O	0.573618	0.351477	0.180102
O31	O	0.675293	0.351465	0.180118
O32	O	0.675288	0.351469	0.050995
O33	O	0.391785	0.715229	-0.050944
O34	O	0.493459	0.715217	-0.050928
O35	O	0.563459	0.473493	0.114056
O36	O	0.623311	0.473488	0.038053
O37	O	0.563471	0.593196	-0.037983
O38	O	0.503619	0.593201	0.038020
C39	C	0.533513	0.373362	0.000043
C40	C	0.533505	0.319064	0.000049
C41	C	0.577722	0.040174	0.056153
C42	C	0.577717	0.091196	0.056156
O43	O	0.615299	0.080013	0.103872
N44	N	0.533531	0.160894	0.000034
C45	C	0.489350	0.179570	-0.056099
O46	O	0.451766	0.243539	-0.103835
C47	C	0.489359	0.128548	-0.056104
C48	C	0.533544	0.058850	0.000026
C49	C	0.621905	-0.029521	0.112278
C50	C	0.621910	-0.080539	0.112275
C51	C	0.577732	-0.061863	0.056148
C52	C	0.533549	0.007832	0.000024
C53	C	0.445181	0.147225	-0.112239
C54	C	0.445194	0.096196	-0.112240
C55	C	0.489380	0.026498	-0.056110
C56	C	0.489376	-0.024510	-0.056106
N57	N	0.533562	-0.094208	0.000016
C58	C	0.577740	-0.112885	0.056143
C59	C	0.489336	0.286715	-0.056084
C60	C	0.489325	0.337736	-0.056076
C61	C	0.577693	0.249358	0.056178
C62	C	0.577701	0.198337	0.056173
C63	C	0.533523	0.217017	0.000038
C64	C	0.577746	-0.220023	0.056134
C65	C	0.577746	-0.271042	0.056129
C66	C	0.489380	-0.182660	-0.056127
C67	C	0.489379	-0.131645	-0.056120
C68	C	0.533567	-0.150332	0.000014
O69	O	0.451815	-0.013379	-0.103800
O70	O	0.615323	-0.176853	0.103865
C71	C	0.373535	0.533368	-0.000000
C72	C	0.319232	0.533374	-0.000009
C73	C	0.013770	0.470852	0.039736
C74	C	-0.037248	0.470848	0.039743
O75	O	-0.037071	0.417706	0.073520
N76	N	-0.094001	0.533333	0.000052
C77	C	-0.099734	0.595827	-0.039641
O78	O	-0.152691	0.648975	-0.073400
C79	C	-0.048716	0.595830	-0.039643
C80	C	0.008036	0.533340	0.000044
C81	C	0.070520	0.408367	0.079420
C82	C	0.121535	0.408371	0.079412
C83	C	0.115800	0.470860	0.039720
C84	C	0.059051	0.533344	0.000036
C85	C	-0.054450	0.658323	-0.079332
C86	C	-0.003426	0.658320	-0.079330
C87	C	0.053326	0.595831	-0.039643
C88	C	0.104331	0.595837	-0.039665
N89	N	0.161083	0.533351	0.000026
C90	C	0.166818	0.470863	0.039718
C91	C	-0.206873	0.595816	-0.039633
C92	C	-0.257890	0.595813	-0.039636
C93	C	-0.195400	0.470834	0.039749
C94	C	-0.144382	0.470837	0.039747
C95	C	-0.150120	0.533330	0.000057
C96	C	0.273950	0.470876	0.039698
C97	C	0.324967	0.470886	0.039684
C98	C	0.262473	0.595865	-0.039698
C99	C	0.211461	0.595855	-0.039688
C100	C	0.217203	0.533356	0.000016
O101	O	0.104200	0.648952	-0.073422
O102	O	0.219777	0.417723	0.073479
C103	C	0.693537	0.533330	0.000051
C104	C	0.747840	0.533324	0.000060
C105	C	0.533528	0.533356	-0.203169
C106	C	0.533525	0.533358	-0.272132
C107	C	0.533560	0.693336	0.000008
C108	C	0.533568	0.747634	0.000002
C109	C	0.502289	0.595844	-0.344220
C110	C	0.502294	0.595842	-0.409015
C111	C	0.533533	0.533354	-0.401720
C112	C	0.564773	0.470863	-0.329624
C113	C	0.564771	0.470866	-0.264830
C114	C	0.564782	0.470851	-0.590927
C115	C	0.564780	0.470853	-0.655728
C116	C	0.502306	0.595828	-0.735111
C117	C	0.502304	0.595830	-0.670318
C118	C	0.533546	0.533340	-0.598228
C119	C	0.533541	0.533343	-0.527970
C120	C	0.533535	0.533350	-0.471976
C121	C	0.533544	0.533342	0.203220
C122	C	0.533547	0.533340	0.272182
C123	C	0.693514	0.373343	0.000069
C124	C	0.747809	0.319039	0.000083
C125	C	0.533521	0.373355	0.203238
C126	C	0.533516	0.319055	0.272206
C127	C	0.693522	0.373336	0.203263
C128	C	0.747820	0.319030	0.272240
C129	C	0.373550	0.693362	-0.203212
C130	C	0.319253	0.747669	-0.272190
C131	C	0.373559	0.693355	-0.000018
C132	C	0.319264	0.747660	-0.000033
C133	C	0.533552	0.693343	-0.203187
C134	C	0.533557	0.747644	-0.272155
C135	C	0.742062	0.293542	-0.039599
C136	C	0.793073	0.242524	-0.039601
C137	C	0.849831	0.217001	0.000086
C138	C	0.855577	0.242503	0.039769
C139	C	0.804566	0.293523	0.039766
C140	C	0.564758	0.293550	0.344284
C141	C	0.564751	0.242536	0.409094
C142	C	0.533505	0.217024	0.401823
C143	C	0.502258	0.242534	0.329738
C144	C	0.502262	0.293551	0.264930
C145	C	0.804566	0.293524	0.264960
C146	C	0.855589	0.242504	0.329765
C147	C	0.849866	0.216987	0.401850
C148	C	0.793114	0.242498	0.409129
C149	C	0.742091	0.293520	0.344324
C150	C	0.262507	0.773180	-0.264909
C151	C	0.211483	0.824216	-0.329714
C152	C	0.217207	0.849736	-0.401799
C153	C	0.273959	0.824222	-0.409078
C154	C	0.324981	0.773191	-0.344274
C155	C	0.325011	0.773162	0.039643
C156	C	0.274000	0.824194	0.039627
C157	C	0.217242	0.849719	-0.000062
C158	C	0.211496	0.824215	-0.039742
C159	C	0.262506	0.773187	-0.039730
C160	C	0.564809	0.773139	-0.264861
C161	C	0.564826	0.824153	-0.329658
C162	C	0.533586	0.849675	-0.401749
C163	C	0.502332	0.824175	-0.409042
C164	C	0.502320	0.773158	-0.344245
H165	H	0.613728	-0.235248	0.101844
Cl166	Cl	0.604038	0.210474	0.499706
H167	H	0.809238	0.314293	0.206271
H168	H	0.901795	0.221739	0.323825
H169	H	0.257818	0.752425	-0.072037
H170	H	0.533601	0.891216	-0.454504
Cl171	Cl	0.670756	0.325574	0.353490
H172	H	0.371185	0.752420	-0.350210
H173	H	0.175657	0.891289	-0.454561
H174	H	0.371222	0.752383	0.071967
Cl175	Cl	0.533507	0.152887	0.483305
H176	H	0.590220	0.419965	-0.649779
H177	H	0.695851	0.314322	-0.071926
Cl178	Cl	0.281238	0.856243	0.089519
Cl179	Cl	0.462986	0.325604	0.174320
Cl180	Cl	0.255295	0.741109	-0.174296
Cl181	Cl	0.153120	0.913867	-0.000068
H182	H	0.453410	-0.167464	-0.101822
Cl183	Cl	0.914014	0.152842	0.483312
H184	H	0.371177	0.419997	0.072004
H185	H	0.165277	0.845005	-0.072056
H186	H	0.476898	0.844962	-0.467746
H187	H	0.476818	0.221755	0.323830
H188	H	0.165279	0.844981	-0.323773
H189	H	0.891362	0.175456	0.000083
H190	H	0.901796	0.221714	0.072080
Cl191	Cl	0.604088	0.741064	-0.174240
H192	H	0.788462	0.221714	0.467829
Cl193	Cl	0.281145	0.856309	-0.499705
Cl194	Cl	0.604115	0.856204	-0.320472
H195	H	-0.100652	0.709209	-0.111648
H196	H	0.613665	0.234159	0.101880
H197	H	0.476868	0.752405	-0.350195
H198	H	0.476848	0.646730	-0.350169
H199	H	0.075200	0.357478	0.111746
H200	H	0.590222	0.419968	-0.532236
H201	H	0.278635	0.419983	0.072029
Cl202	Cl	-0.329231	0.674375	-0.089541
H203	H	0.453338	0.394485	-0.101774
Cl204	Cl	0.677462	-0.168156	0.182840
Cl205	Cl	0.633296	-0.358664	0.126699
Cl206	Cl	0.463023	0.674400	-0.499640
H207	H	0.613681	0.141588	0.101878
Cl208	Cl	0.677450	-0.053017	0.182848
H209	H	0.453356	0.301936	-0.101795
Cl210	Cl	-0.010645	0.736888	-0.129227
H211	H	0.409205	0.203970	-0.157951
Cl212	Cl	-0.073041	0.392276	0.089643
Cl213	Cl	0.433827	-0.044023	-0.126679
Cl214	Cl	0.389653	0.119687	-0.182816
Cl215	Cl	-0.188200	0.392276	0.089650
H216	H	-0.211553	0.646708	-0.071957
Cl217	Cl	0.192875	0.329808	0.129314
H218	H	0.809255	0.314276	0.072085
H219	H	0.590203	0.314315	0.350218
Cl220	Cl	0.140114	0.674415	-0.089595
H221	H	0.257814	0.646741	-0.072017
H222	H	0.476869	0.646710	-0.793817
Cl223	Cl	0.463023	0.674390	-0.679494
H224	H	0.788382	0.221767	-0.071916
H225	H	0.590211	0.419984	-0.323688
H226	H	0.590206	0.419983	-0.206133
