data_functionalizedCrystal
_audit_creation_method	'MofGen! by Chris Wilmer'
_symmetry_space_group_name_H-M	'P1'
_symmetry_Int_Tables_number	1
_symmetry_cell_setting	triclinic
loop_
_symmetry_equiv_pos_as_xyz
  x,y,z
_cell_length_a	19.805407
_cell_length_b	16.625545
_cell_length_c	19.805399
_cell_angle_alpha	90.025578
_cell_angle_beta	90.017803
_cell_angle_gamma	90.022874
loop_
_atom_site_label
_atom_site_type_symbol
_atom_site_fract_x
_atom_site_fract_y
_atom_site_fract_z
Zn1	Zn	1.034740	-0.321078	0.382697
Zn2	Zn	1.534740	0.178922	0.882697
Zn3	Zn	1.034656	-0.455915	0.269513
Zn4	Zn	1.534656	0.044085	0.769513
Zn5	Zn	0.921554	-0.321094	0.269525
Zn6	Zn	1.421554	0.178906	0.769525
Zn7	Zn	0.921519	-0.455866	0.382663
Zn8	Zn	1.421519	0.044134	0.882663
O9	O	0.978117	-0.388488	0.326100
O10	O	1.478117	0.111512	0.826100
O11	O	1.129445	-0.338978	0.367692
O12	O	1.629445	0.161022	0.867692
O13	O	1.019633	-0.438058	0.174798
O14	O	1.519633	0.061942	0.674798
O15	O	0.936618	-0.208259	0.284557
O16	O	1.436618	0.291741	0.784557
O17	O	1.129384	-0.438043	0.284536
O18	O	1.629384	0.061957	0.784536
O19	O	1.019775	-0.208248	0.367704
O20	O	1.519775	0.291752	0.867704
O21	O	0.936537	-0.339006	0.174807
O22	O	1.436537	0.160994	0.674807
O23	O	0.826833	-0.338958	0.284524
O24	O	1.326833	0.161042	0.784524
O25	O	0.936559	-0.437959	0.477384
O26	O	1.436559	0.062041	0.977384
O27	O	0.826808	-0.437974	0.367646
O28	O	1.326808	0.062026	0.867646
O29	O	1.019741	-0.338931	0.477409
O30	O	1.519741	0.161069	0.977409
O31	O	1.019599	-0.568741	0.284503
O32	O	1.519599	-0.068741	0.784503
O33	O	0.936478	-0.568705	0.367634
O34	O	1.436478	-0.068705	0.867634
C35	C	0.802261	-0.388463	0.326083
C36	C	1.302261	0.111537	0.826083
C37	C	0.727029	-0.388472	0.326092
C38	C	1.227029	0.111528	0.826092
C39	C	0.691718	-0.336980	0.369457
C40	C	1.191718	0.163020	0.869457
C41	C	0.621029	-0.336984	0.369460
C42	C	1.121029	0.163016	0.869460
C43	C	0.585654	-0.388485	0.326100
C44	C	1.085654	0.111515	0.826100
C45	C	0.620970	-0.439979	0.282730
C46	C	1.120970	0.060021	0.782730
C47	C	0.691658	-0.439970	0.282725
C48	C	1.191658	0.060030	0.782725
C49	C	0.335897	-0.440015	0.282751
C50	C	0.835897	0.059985	0.782751
C51	C	0.265205	-0.440022	0.282761
C52	C	0.765205	0.059978	0.782761
C53	C	0.265269	-0.337030	0.369486
C54	C	0.765269	0.162970	0.869486
C55	C	0.335956	-0.337021	0.369481
C56	C	0.835956	0.162979	0.869481
C57	C	0.371266	-0.388511	0.326108
C58	C	0.871266	0.111489	0.826108
C59	C	0.447915	-0.388505	0.326105
C60	C	0.947915	0.111495	0.826105
C61	C	0.509007	-0.388496	0.326106
C62	C	1.009007	0.111504	0.826106
C63	C	0.978044	-0.597979	0.326078
C64	C	1.478044	-0.097979	0.826078
C65	C	0.978074	-0.687600	0.326092
C66	C	1.478074	-0.187600	0.826092
C67	C	0.978101	-0.760383	0.326105
C68	C	1.478101	-0.260383	0.826105
C69	C	0.978140	-0.851691	0.326120
C70	C	1.478140	-0.351691	0.826120
C71	C	0.978175	-0.924468	0.326129
C72	C	1.478175	-0.424468	0.826129
C73	C	0.978214	-1.015782	0.326143
C74	C	1.478214	-0.515782	0.826143
C75	C	1.154660	-0.388514	0.326116
C76	C	1.654660	0.111486	0.826116
C77	C	1.229892	-0.388525	0.326124
C78	C	1.729892	0.111475	0.826124
C79	C	0.978155	-0.388438	0.502642
C80	C	1.478155	0.111562	1.002642
C81	C	0.978172	-0.388416	0.577874
C82	C	1.478172	0.111584	1.077874
C83	C	0.978210	-0.178179	0.326136
C84	C	1.478210	0.321821	0.826136
C85	C	0.978249	-0.088558	0.326151
C86	C	1.478249	0.411442	0.826151
C87	C	0.978119	-0.388481	0.150244
C88	C	1.478119	0.111519	0.650244
C89	C	0.978234	-0.388275	0.075012
C90	C	1.478234	0.111725	0.575012
C91	C	1.021486	-0.336849	0.613233
C92	C	1.521486	0.163151	1.113233
C93	C	1.021493	-0.336826	0.683921
C94	C	1.521493	0.163174	1.183921
C95	C	0.978188	-0.388374	0.719250
C96	C	1.478188	0.111626	1.219250
C97	C	0.934870	-0.439943	0.683887
C98	C	1.434870	0.060057	1.183887
C99	C	0.934860	-0.439961	0.613200
C100	C	1.434860	0.060039	1.113200
C101	C	0.934908	-0.439867	0.968960
C102	C	1.434908	0.060133	1.468960
C103	C	0.934922	-0.439846	1.039652
C104	C	1.434922	0.060154	1.539652
C105	C	1.021541	-0.336732	1.039682
C106	C	1.521541	0.163268	1.539682
C107	C	1.021531	-0.336751	0.968995
C108	C	1.521531	0.163249	1.468995
C109	C	0.978210	-0.388316	0.933637
C110	C	1.478210	0.111684	1.433637
C111	C	0.978202	-0.388340	0.856989
C112	C	1.478202	0.111660	1.356989
C113	C	0.978199	-0.388355	0.795897
C114	C	1.478199	0.111645	1.295897
H115	H	0.592282	-0.295056	0.404773
H116	H	1.092282	0.204944	0.904773
H117	H	0.364638	-0.481942	0.247435
H118	H	0.864638	0.018058	0.747435
H119	H	0.720407	-0.481899	0.247412
H120	H	1.220407	0.018101	0.747412
H121	H	0.236511	-0.295101	0.404800
H122	H	0.736511	0.204899	0.904800
C123	C	0.226293	-0.496672	0.235054
C124	C	0.726293	0.003328	0.735054
N125	N	0.196985	-0.539338	0.199122
N126	N	0.696985	-0.039338	0.699122
H127	H	0.592162	-0.481907	0.247423
H128	H	1.092162	0.018093	0.747423
C129	C	0.374865	-0.280363	0.417177
C130	C	0.874865	0.219637	0.917177
N131	N	0.404171	-0.237684	0.453100
N132	N	0.904171	0.262316	0.953100
H133	H	0.899643	-0.481867	0.940181
H134	H	1.399643	0.018133	1.440181
H135	H	0.899582	-0.481944	0.584412
H136	H	1.399582	0.018056	1.084412
H137	H	1.056751	-0.294876	0.584473
H138	H	1.556751	0.205124	1.084473
H139	H	0.899608	-0.481911	0.712657
H140	H	1.399608	0.018089	1.212657
C141	C	1.069166	-0.280041	0.930137
C142	C	1.569166	0.219959	1.430137
N143	N	1.105043	-0.237322	0.900870
N144	N	1.605043	0.262678	1.400870
C145	C	1.069143	-0.280100	0.722812
C146	C	1.569143	0.219900	1.222812
N147	N	1.105035	-0.237371	0.752104
N148	N	1.605035	0.262629	1.252104
C149	C	1.069187	-0.279999	1.078581
C150	C	1.569187	0.220001	1.578581
N151	N	1.105073	-0.237268	1.107878
N152	N	1.605073	0.262732	1.607878
H153	H	0.720516	-0.295045	0.404768
H154	H	1.220516	0.204955	0.904768
C155	C	0.887278	-0.496550	1.078513
C156	C	1.387278	0.003450	1.578513
N157	N	0.851393	-0.539257	1.107782
N158	N	1.351393	-0.039257	1.607782
