data_functionalizedCrystal
_audit_creation_method	'MofGen! by Chris Wilmer'
_symmetry_space_group_name_H-M	'P1'
_symmetry_Int_Tables_number	1
_symmetry_cell_setting	triclinic
loop_
_symmetry_equiv_pos_as_xyz
  x,y,z
_cell_length_a	15.944551
_cell_length_b	15.944551
_cell_length_c	14.421503
_cell_angle_alpha	90.003340
_cell_angle_beta	89.996859
_cell_angle_gamma	83.498738
loop_
_atom_site_label
_atom_site_type_symbol
_atom_site_fract_x
_atom_site_fract_y
_atom_site_fract_z
O1	O	1.114529	0.108320	-0.077017
O2	O	0.869980	0.121677	-0.077040
O3	O	0.998933	-0.007276	-0.077020
O4	O	0.985576	0.237273	-0.077038
O5	O	0.998911	-0.007257	0.077204
O6	O	0.869958	0.121696	0.077183
O7	O	1.114508	0.108340	0.077206
Cu8	Cu	0.992231	0.115020	0.091277
Cu9	Cu	0.992256	0.114997	-0.091110
O10	O	0.985555	0.237293	0.077186
C11	C	0.838675	0.121132	0.000069
C12	C	0.745429	0.119470	0.000060
C13	C	0.530572	0.035565	0.000084
C14	C	0.469563	0.074518	-0.075959
C15	C	0.574703	0.116462	0.000071
C16	C	0.469564	0.074556	0.076093
C17	C	0.409790	0.113551	0.000086
C18	C	0.514922	0.155437	-0.076035
C19	C	0.514929	0.155464	0.076086
C20	C	0.453937	0.194476	0.000024
C21	C	0.669705	0.118137	0.000062
C22	C	0.314789	0.111883	0.000089
C23	C	0.998367	-0.038561	0.000092
C24	C	0.996705	-0.131807	0.000093
C25	C	0.912801	-0.346663	0.000072
C26	C	0.951753	-0.407671	0.076117
C27	C	0.993698	-0.302533	0.000085
C28	C	0.951793	-0.407674	-0.075935
C29	C	0.990787	-0.467445	0.000074
C30	C	1.032672	-0.362312	0.076193
C31	C	1.032701	-0.362308	-0.075927
C32	C	1.071711	-0.423298	0.000136
C33	C	0.995372	-0.207530	0.000092
C34	C	0.989119	-0.562446	0.000073
C35	C	1.145813	0.108885	0.000096
C36	C	1.239059	0.110547	0.000098
C37	C	0.986120	0.268577	0.000072
C38	C	0.987782	0.361823	0.000066
N39	N	0.992219	0.115035	0.219558
N40	N	0.992275	0.114975	-0.219392
C41	C	0.932581	0.174636	0.469202
C42	C	1.008481	0.190943	0.531011
C43	C	0.992240	0.115015	0.408719
C44	C	0.916359	0.098727	0.531005
C45	C	0.992253	0.114997	0.591441
C46	C	1.068178	0.131360	0.469167
C47	C	0.976007	0.039111	0.469156
C48	C	1.051961	0.055386	0.530936
C49	C	0.992231	0.115027	0.303458
C50	C	0.992270	0.114985	0.696700
H51	H	0.534918	0.189620	-0.140394
O52	O	1.073365	-0.338552	0.153075
C53	C	1.030872	-0.362178	0.233019
H54	H	0.992593	-0.416226	0.215299
H55	H	0.986730	-0.305927	0.259233
C56	C	1.142809	-0.324579	0.330636
C57	C	1.095800	-0.390966	0.308874
H58	H	1.182858	-0.342333	0.377429
H59	H	1.171436	-0.308658	0.276777
H60	H	1.106015	-0.277709	0.352476
H61	H	1.132593	-0.437830	0.287024
H62	H	1.067181	-0.406895	0.362731
H63	H	0.917527	-0.427771	0.140401
H64	H	1.138919	-0.456457	0.000186
H65	H	1.102474	0.004956	0.557872
H66	H	0.563905	-0.031573	-0.000005
H67	H	1.066897	-0.342186	-0.140214
O68	O	1.144691	0.148067	0.436888
C69	C	1.134505	0.222007	0.382515
H70	H	1.073518	0.261996	0.403071
H71	H	1.131509	0.204206	0.306120
C72	C	1.284717	0.223688	0.373302
C73	C	1.209815	0.272807	0.398555
H74	H	1.331173	0.255022	0.383193
H75	H	1.291580	0.173871	0.409931
H76	H	1.282208	0.208857	0.309641
H77	H	1.212321	0.287628	0.462218
H78	H	1.202954	0.322627	0.361937
O79	O	0.872545	0.234939	0.436897
C80	C	0.889983	0.314853	0.468435
H81	H	0.959967	0.312487	0.485767
H82	H	0.850946	0.332844	0.533131
C83	C	0.781271	0.383947	0.370791
C84	C	0.867229	0.381043	0.392072
H85	H	0.767232	0.424777	0.323690
H86	H	0.769520	0.330107	0.349546
H87	H	0.748750	0.398936	0.424711
H88	H	0.899748	0.366043	0.338155
H89	H	0.878985	0.434881	0.413307
O90	O	0.910860	-0.431532	-0.152606
C91	C	0.827107	-0.392138	-0.152310
H92	H	0.823074	-0.332734	-0.107793
H93	H	0.783538	-0.437385	-0.122637
C94	C	0.804872	-0.441188	-0.306882
C95	C	0.799921	-0.368223	-0.252212
H96	H	0.788101	-0.426440	-0.368506
H97	H	0.861297	-0.467732	-0.307081
H98	H	0.768565	-0.478888	-0.282143
H99	H	0.836236	-0.330530	-0.276944
H100	H	0.743502	-0.341672	-0.252019
H101	H	0.962240	-0.025051	0.441965
O102	O	1.024900	0.267448	0.563591
C103	C	1.025413	0.266130	0.661345
H104	H	1.039103	0.198197	0.686556
H105	H	0.961205	0.294419	0.688451
C106	C	1.077398	0.401677	0.666492
C107	C	1.094220	0.318242	0.697457
H108	H	1.119839	0.433825	0.688769
H109	H	1.077050	0.402567	0.600633
H110	H	1.023890	0.425240	0.689082
H111	H	1.147722	0.294677	0.674857
H112	H	1.094579	0.317349	0.763313
O113	O	0.445524	0.033833	-0.152722
C114	C	0.389610	0.089492	-0.205736
H115	H	0.399821	0.157420	-0.188740
H116	H	0.321766	0.078979	-0.188694
C117	C	0.393842	-0.010697	-0.330501
C118	C	0.406389	0.072733	-0.309632
H119	H	0.404189	-0.021036	-0.394589
H120	H	0.431510	-0.048198	-0.294783
H121	H	0.337306	-0.019448	-0.316292
H122	H	0.462928	0.081480	-0.323829
H123	H	0.368731	0.110235	-0.345354
H124	H	0.852183	0.084959	0.558170
O125	O	0.414410	0.274665	-0.000192
C126	C	0.437549	0.316986	-0.080461
H127	H	0.459459	0.268756	-0.136241
H128	H	0.491036	0.356097	-0.063049
C129	C	0.334067	0.434768	-0.047805
C130	C	0.360970	0.375531	-0.116318
H131	H	0.286831	0.470885	-0.069922
H132	H	0.318479	0.406257	0.006276
H133	H	0.378646	0.467352	-0.033301
H134	H	0.316395	0.342941	-0.130812
H135	H	0.376549	0.404038	-0.170402
O136	O	0.538923	0.196136	0.152871
C137	C	0.516060	0.153286	0.232893
H138	H	0.509296	0.084803	0.214680
H139	H	0.453418	0.185060	0.260637
C140	C	0.593152	0.240178	0.329801
C141	C	0.584851	0.156064	0.307433
H142	H	0.635583	0.241894	0.375783
H143	H	0.608553	0.269049	0.275890
H144	H	0.540946	0.266647	0.352916
H145	H	0.637053	0.129600	0.284308
H146	H	0.569461	0.127189	0.361342
H147	H	0.845652	-0.313356	0.000141
O148	O	0.445702	0.033620	0.152761
C149	C	0.485095	-0.050134	0.152461
H150	H	0.544501	-0.054165	0.107948
H151	H	0.439847	-0.093699	0.122780
C152	C	0.436036	-0.072375	0.307027
C153	C	0.509003	-0.077325	0.252362
H154	H	0.450781	-0.089151	0.368651
H155	H	0.409493	-0.015950	0.307229
H156	H	0.398336	-0.108680	0.282283
H157	H	0.546697	-0.041014	0.277100
H158	H	0.535553	-0.133745	0.252167
