data_functionalizedCrystal
_audit_creation_method	'MofGen! by Chris Wilmer'
_symmetry_space_group_name_H-M	'P1'
_symmetry_Int_Tables_number	1
_symmetry_cell_setting	triclinic
loop_
_symmetry_equiv_pos_as_xyz
  x,y,z
_cell_length_a	16.120530
_cell_length_b	16.120297
_cell_length_c	16.120484
_cell_angle_alpha	95.614431
_cell_angle_beta	90.167327
_cell_angle_gamma	90.128140
loop_
_atom_site_label
_atom_site_type_symbol
_atom_site_fract_x
_atom_site_fract_y
_atom_site_fract_z
Zn1	Zn	1.224987	-0.554813	-0.422264
Zn2	Zn	1.224883	-0.422118	-0.554948
Zn3	Zn	1.093726	-0.408056	-0.408180
Zn4	Zn	1.078880	-0.554051	-0.554181
O5	O	1.155619	-0.484760	-0.484893
O6	O	1.341009	-0.543415	-0.446081
O7	O	1.213654	-0.303620	-0.529906
O8	O	1.117395	-0.421958	-0.293418
O9	O	1.340932	-0.445925	-0.543563
O10	O	1.213832	-0.529780	-0.303765
O11	O	1.117294	-0.293289	-0.422076
O12	O	0.975721	-0.421218	-0.421332
O13	O	1.092092	-0.670785	-0.542255
O14	O	0.964814	-0.528480	-0.528598
O15	O	1.199436	-0.671345	-0.445336
O16	O	1.199258	-0.445185	-0.671477
O17	O	1.091990	-0.542116	-0.670913
C18	C	0.940181	-0.473241	-0.473354
C19	C	0.848013	-0.468334	-0.468438
C20	C	0.679262	-0.459381	-0.459445
C21	C	0.632810	-0.510202	-0.510407
C22	C	0.538911	-0.505220	-0.505403
C23	C	0.773169	-0.464361	-0.464448
C24	C	1.144119	-0.702152	-0.495281
C25	C	1.139219	-0.794791	-0.499708
C26	C	1.130243	-0.964403	-0.507770
C27	C	1.181172	-1.005965	-0.461776
C28	C	1.176177	-1.100342	-0.466262
C29	C	1.135236	-0.870017	-0.503285
C30	C	1.371899	-0.496324	-0.496479
C31	C	1.464064	-0.501252	-0.501416
C32	C	1.144023	-0.495113	-0.701438
C33	C	1.139137	-0.499574	-0.794083
C34	C	1.167125	-0.268213	-0.474489
C35	C	1.172198	-0.175571	-0.469836
C36	C	1.130220	-0.507736	-0.963706
C37	C	1.181166	-0.461804	-1.005249
C38	C	1.176204	-0.466346	-1.099633
C39	C	1.135180	-0.503196	-0.869313
C40	C	1.167282	-0.474385	-0.267505
C41	C	1.172251	-0.469964	-0.174867
H42	H	0.663563	-0.557453	-0.557794
H43	H	1.082894	-0.999698	-0.550512
H44	H	0.648511	-0.412135	-0.412060
O45	O	1.237632	-0.963735	-0.410841
C46	C	1.230097	-0.877538	-0.417626
H47	H	1.200113	-0.867371	-0.479947
H48	H	1.189861	-0.848107	-0.364679
C49	C	1.353552	-0.849358	-0.335829
C50	C	1.316730	-0.836870	-0.412377
H51	H	1.406990	-0.824270	-0.332588
H52	H	1.358627	-0.907430	-0.331256
H53	H	1.320013	-0.824832	-0.291715
H54	H	1.350263	-0.861405	-0.456489
H55	H	1.311663	-0.778801	-0.416958
O56	O	1.237569	-0.410830	-0.962990
C57	C	1.230035	-0.417591	-0.876794
H58	H	1.165187	-0.440869	-0.862933
H59	H	1.278116	-0.463466	-0.856769
C60	C	1.324101	-0.302972	-0.845439
C61	C	1.244452	-0.331555	-0.828414
H62	H	1.332997	-0.249903	-0.815595
H63	H	1.329179	-0.298419	-0.903511
H64	H	1.364160	-0.341209	-0.828751
H65	H	1.204395	-0.293324	-0.845112
H66	H	1.239367	-0.336100	-0.770344
H67	H	1.082881	-0.550467	-0.999022
