data_functionalizedCrystal
_audit_creation_method	'MofGen! by Chris Wilmer'
_symmetry_space_group_name_H-M	'P1'
_symmetry_Int_Tables_number	1
_symmetry_cell_setting	triclinic
loop_
_symmetry_equiv_pos_as_xyz
  x,y,z
_cell_length_a	27.732048
_cell_length_b	17.699097
_cell_length_c	16.776229
_cell_angle_alpha	89.989262
_cell_angle_beta	89.998898
_cell_angle_gamma	97.034457
loop_
_atom_site_label
_atom_site_type_symbol
_atom_site_fract_x
_atom_site_fract_y
_atom_site_fract_z
O1	O	-0.061157	1.003533	-0.066341
O2	O	-0.069103	0.783086	-0.066326
O3	O	0.005241	0.900156	-0.066344
O4	O	-0.135502	0.886463	-0.066322
O5	O	0.005246	0.900141	0.066232
O6	O	-0.069099	0.783071	0.066251
O7	O	-0.061153	1.003518	0.066236
Zn8	Zn	-0.065125	0.893292	0.087293
Zn9	Zn	-0.065131	0.893312	-0.087383
O10	O	-0.135498	0.886447	0.066254
C11	C	-0.068815	0.754884	-0.000036
C12	C	-0.067958	0.670874	-0.000031
C13	C	-0.062705	0.155210	-0.072332
C14	C	-0.063507	0.234147	-0.072328
C15	C	-0.063907	0.273601	-0.000057
C16	C	-0.063499	0.234115	0.072215
C17	C	-0.062693	0.155181	0.072210
C18	C	-0.066748	0.552451	0.072236
C19	C	-0.067555	0.631391	0.072236
C20	C	-0.067562	0.631418	-0.072301
C21	C	-0.066756	0.552483	-0.072306
C22	C	-0.066346	0.513004	-0.000035
C23	C	-0.065475	0.427412	-0.000040
C24	C	-0.064781	0.359192	-0.000051
C25	C	-0.153508	0.886743	-0.000031
C26	C	-0.207166	0.887608	-0.000024
C27	C	-0.545750	0.823876	-0.000058
C28	C	-0.747421	0.827088	-0.000068
O29	O	-0.778466	0.768809	-0.000098
N30	N	-0.766797	0.896505	-0.000071
C31	C	-0.735751	0.965125	-0.000077
O32	O	-0.756858	1.024243	-0.000089
C33	C	-0.534081	0.961913	-0.000073
C34	C	-0.514708	0.892491	-0.000062
C35	C	-0.526377	0.754460	-0.000047
C36	C	-0.475962	0.753658	-0.000040
C37	C	-0.444920	0.822272	-0.000044
C38	C	-0.464293	0.891689	-0.000055
C39	C	-0.503036	1.030532	-0.000085
C40	C	-0.452616	1.029723	-0.000086
C41	C	-0.433243	0.960301	-0.000075
C42	C	-0.382837	0.959501	-0.000052
N43	N	-0.363461	0.890083	-0.000049
C44	C	-0.394503	0.821469	-0.000045
C45	C	-0.841631	0.966807	-0.000078
C46	C	-0.892048	0.967610	-0.000077
C47	C	-0.903715	0.829572	-0.000069
C48	C	-0.853297	0.828770	-0.000064
C49	C	-0.822256	0.897389	-0.000074
C50	C	-0.288628	0.819790	-0.000030
C51	C	-0.238208	0.818994	-0.000020
C52	C	-0.226545	0.957031	-0.000032
C53	C	-0.276961	0.957828	-0.000038
C54	C	-0.308001	0.889201	-0.000039
O55	O	-0.351764	1.017748	-0.000030
O56	O	-0.373386	0.762360	-0.000051
C57	C	-0.596165	0.824678	-0.000065
C58	C	-0.615538	0.894095	-0.000075
C59	C	-0.584496	0.962710	-0.000079
C60	C	-0.665955	0.894898	-0.000075
C61	C	-0.696997	0.826284	-0.000071
C62	C	-0.677622	0.756866	-0.000067
C63	C	-0.627207	0.756064	-0.000061
C64	C	-0.603872	1.032127	-0.000083
C65	C	-0.654287	1.032924	-0.000088
C66	C	-0.685329	0.964309	-0.000085
C67	C	0.023252	0.899861	-0.000060
C68	C	0.076910	0.898995	-0.000073
C69	C	-0.061441	1.031720	-0.000056
C70	C	-0.062298	1.115730	-0.000066
N71	N	-0.065121	0.893283	0.206504
N72	N	-0.065132	0.893326	-0.206594
C73	C	-0.032214	0.945138	0.248213
C74	C	-0.032214	0.945142	0.331665
C75	C	-0.065123	0.893295	0.373407
C76	C	-0.098031	0.841435	0.331692
C77	C	-0.098028	0.841428	0.248241
C78	C	-0.098040	0.841462	0.668239
C79	C	-0.098041	0.841475	0.751696
C80	C	-0.032226	0.945176	0.751663
C81	C	-0.032223	0.945169	0.668212
C82	C	-0.065129	0.893307	0.626505
C83	C	-0.065129	0.893302	0.536016
C84	C	-0.065126	0.893303	0.463894
H85	H	-0.066433	0.520363	-0.131156
H86	H	-0.063835	0.266290	-0.131174
N87	N	0.001402	0.998088	0.205566
N88	N	0.001402	0.998075	0.131057
H89	H	0.025146	1.035471	0.100938
N90	N	-0.063909	0.274395	0.146050
N91	N	-0.029763	0.272941	0.194442
H92	H	-0.030057	0.301383	0.246593
N93	N	-0.131655	0.788496	0.794323
N94	N	-0.131040	0.718551	0.785027
H95	H	-0.154778	0.681135	0.815132
H96	H	-0.124824	0.799202	0.214283
H97	H	-0.062367	0.123035	0.131056
N98	N	-0.218428	0.748070	-0.000001
N99	N	-0.246154	0.686814	0.000002
H100	H	-0.232186	0.636725	0.000015
H101	H	-0.067894	0.663571	-0.131148
H102	H	-0.067880	0.663512	0.131091
H103	H	-0.201262	1.012895	-0.000031
N104	N	-0.420908	1.099818	-0.000076
N105	N	-0.391479	1.114768	0.055813
H106	H	-0.369086	1.164273	0.055823
H107	H	-0.313895	0.763907	-0.000031
N108	N	-0.558088	0.684372	-0.000048
N109	N	-0.587523	0.669414	-0.055928
H110	H	-0.609917	0.619911	-0.055924
N111	N	-0.131658	0.788508	0.625631
N112	N	-0.131656	0.788507	0.551122
H113	H	-0.155402	0.751109	0.521025
H114	H	-0.062383	0.123092	-0.131183
N115	N	-0.833502	0.757865	-0.000050
N116	N	-0.806670	0.742009	0.055834
H117	H	-0.792691	0.691931	0.055843
H118	H	-0.928998	0.773703	-0.000062
H119	H	-0.005430	0.987403	0.785630
H120	H	-0.518800	1.087063	-0.000095
N121	N	-0.131638	0.788463	0.374329
N122	N	-0.116336	0.741672	0.420910
H123	H	-0.140072	0.704259	0.451023
H124	H	-0.066407	0.520319	0.131084
N125	N	-0.911826	1.038530	-0.000071
N126	N	-0.884098	1.099784	-0.000074
H127	H	-0.898064	1.149874	-0.000072
N128	N	-0.809918	1.036897	-0.000086
N129	N	-0.780481	1.051865	-0.055969
H130	H	-0.758084	1.101365	-0.055971
N131	N	0.001405	0.998112	0.374257
N132	N	0.030783	1.044402	0.336978
H133	H	0.054529	1.081814	0.367058
N134	N	-0.296744	1.028745	-0.000030
N135	N	-0.269020	1.090003	-0.000024
H136	H	-0.282989	1.140091	-0.000022
N137	N	-0.456186	0.682737	-0.000034
N138	N	-0.483915	0.621485	-0.000035
H139	H	-0.469952	0.571393	-0.000034
N140	N	0.001389	0.998145	0.625587
N141	N	0.030766	1.044443	0.662838
H142	H	0.054505	1.081860	0.632736
H143	H	-0.611439	0.699533	-0.000051
H144	H	-0.702905	0.700998	-0.000059
N145	N	-0.674064	1.103849	-0.000091
N146	N	-0.646336	1.165103	-0.000095
H147	H	-0.660302	1.215194	-0.000102
N148	N	-0.572174	1.102226	-0.000091
N149	N	-0.589486	1.164196	-0.000098
H150	H	-0.567101	1.213709	-0.000101
