data_functionalizedCrystal
_audit_creation_method	'MofGen! by Chris Wilmer'
_symmetry_space_group_name_H-M	'P1'
_symmetry_Int_Tables_number	1
_symmetry_cell_setting	triclinic
loop_
_symmetry_equiv_pos_as_xyz
  x,y,z
_cell_length_a	27.731993
_cell_length_b	10.654550
_cell_length_c	9.730223
_cell_angle_alpha	90.004253
_cell_angle_beta	90.008251
_cell_angle_gamma	96.447338
loop_
_atom_site_label
_atom_site_type_symbol
_atom_site_fract_x
_atom_site_fract_y
_atom_site_fract_z
O1	O	0.641872	-0.149089	-0.113920
O2	O	0.501217	-0.171880	-0.114004
O3	O	0.574778	0.022392	-0.113951
O4	O	0.568311	-0.343361	-0.113972
O5	O	0.574774	0.022397	0.114629
O6	O	0.501212	-0.171875	0.114576
O7	O	0.641867	-0.149084	0.114660
Zn8	Zn	0.571539	-0.160479	0.150910
Zn9	Zn	0.571545	-0.160485	-0.150254
O10	O	0.568306	-0.343356	0.114608
C11	C	0.483204	-0.171410	0.000276
C12	C	0.429539	-0.170001	0.000244
C13	C	0.046318	-0.159793	-0.124288
C14	C	0.248009	-0.165162	-0.124325
O15	O	0.274088	-0.165809	-0.230294
N16	N	0.273231	-0.165831	0.000271
C17	C	0.248027	-0.165150	0.124885
O18	O	0.274108	-0.165829	0.230861
C19	C	0.046338	-0.159771	0.124921
C20	C	0.021118	-0.159115	0.000317
C21	C	0.021098	-0.159135	-0.248882
C22	C	-0.029322	-0.157800	-0.248871
C23	C	-0.054522	-0.157122	-0.124266
C24	C	-0.029302	-0.157779	0.000328
C25	C	0.021135	-0.159080	0.249534
C26	C	-0.029290	-0.157732	0.249532
C27	C	-0.054510	-0.157076	0.124928
C28	C	-0.104923	-0.155766	0.124943
N29	N	-0.130144	-0.155097	0.000347
C30	C	-0.104944	-0.155775	-0.124258
C31	C	0.353917	-0.167976	0.124857
C32	C	0.404339	-0.169323	0.124849
C33	C	0.404317	-0.169333	-0.124362
C34	C	0.353894	-0.167995	-0.124352
C35	C	0.328695	-0.167307	0.000261
C36	C	-0.210830	-0.152971	-0.124226
C37	C	-0.261255	-0.151641	-0.124204
C38	C	-0.261228	-0.151624	0.125006
C39	C	-0.210808	-0.152961	0.124985
C40	C	-0.185610	-0.153630	0.000358
O41	O	-0.131032	-0.155105	0.230857
O42	O	-0.131033	-0.155067	-0.230218
C43	C	0.096738	-0.161128	-0.124298
C44	C	0.121958	-0.161786	0.000296
C45	C	0.096758	-0.161108	0.124900
C46	C	0.172380	-0.163133	0.000287
C47	C	0.197580	-0.163811	-0.124318
C48	C	0.172358	-0.163141	-0.248914
C49	C	0.121938	-0.161806	-0.248903
C50	C	0.121979	-0.161777	0.249496
C51	C	0.172399	-0.163114	0.249476
C52	C	0.197600	-0.163792	0.124871
C53	C	0.574301	0.069173	0.000338
C54	C	0.572880	0.208555	0.000335
C55	C	0.659880	-0.149555	0.000378
C56	C	0.713545	-0.150963	0.000400
C57	C	0.568783	-0.390137	0.000316
C58	C	0.570204	-0.529519	0.000310
N59	N	0.571538	-0.160473	0.356447
C60	C	0.616192	0.289884	0.000360
C61	C	0.614854	0.420848	0.000343
C62	C	0.526889	0.389142	0.000280
C63	C	0.528227	0.258180	0.000288
N64	N	0.571550	-0.160481	-0.355790
C65	C	0.604122	-0.074485	0.428396
C66	C	0.604127	-0.074485	0.572279
C67	C	0.538962	-0.246473	0.572251
C68	C	0.538955	-0.246466	0.428370
H69	H	-0.281756	-0.151078	0.226456
Cl70	Cl	0.470756	0.451538	0.000222
H71	H	0.630660	-0.004465	0.630856
H72	H	0.512419	-0.316488	0.369785
Cl73	Cl	0.498004	-0.354578	0.662675
Cl74	Cl	0.669306	0.523085	0.000372
Cl75	Cl	-0.292957	-0.150819	-0.280861
Cl76	Cl	0.645082	0.033625	0.337983
Cl77	Cl	-0.179160	-0.153816	-0.280902
Cl78	Cl	0.052769	-0.159986	-0.405550
Cl79	Cl	-0.061019	-0.156962	-0.405525
Cl80	Cl	0.204048	-0.163997	-0.405558
Cl81	Cl	0.322194	-0.167166	-0.281003
H82	H	0.424844	-0.169889	-0.225820
H83	H	0.492955	0.191959	0.000263
Cl84	Cl	0.436036	-0.170174	0.281501
H85	H	0.333405	-0.167412	0.226338
Cl86	Cl	0.052828	-0.159904	0.406190
Cl87	Cl	0.672327	0.227502	0.000416
H88	H	-0.049805	-0.157183	0.351010
H89	H	0.101409	-0.161272	-0.350369
Cl90	Cl	-0.179103	-0.153802	0.281632
Cl91	Cl	0.204098	-0.163947	0.406138
H92	H	0.101467	-0.161219	0.350967
