data_functionalizedCrystal
_audit_creation_method	'MofGen! by Chris Wilmer'
_symmetry_space_group_name_H-M	'P1'
_symmetry_Int_Tables_number	1
_symmetry_cell_setting	triclinic
loop_
_symmetry_equiv_pos_as_xyz
  x,y,z
_cell_length_a	16.974897
_cell_length_b	16.974813
_cell_length_c	14.048226
_cell_angle_alpha	86.339005
_cell_angle_beta	86.341962
_cell_angle_gamma	83.164002
loop_
_atom_site_label
_atom_site_type_symbol
_atom_site_fract_x
_atom_site_fract_y
_atom_site_fract_z
O1	O	1.049029	0.100839	-0.167657
O2	O	1.549029	0.600839	0.332343
O3	O	0.818811	0.113662	-0.150930
O4	O	1.318811	0.613662	0.349070
O5	O	0.940337	-0.007860	-0.150915
O6	O	1.440337	0.492140	0.349085
O7	O	0.927502	0.222361	-0.167672
O8	O	1.427502	0.722361	0.332328
O9	O	0.940323	-0.007867	0.007408
O10	O	1.440323	0.492133	0.507408
O11	O	0.818796	0.113655	0.007393
O12	O	1.318796	0.613655	0.507393
O13	O	1.049014	0.100831	-0.009334
O14	O	1.549014	0.600831	0.490666
Zn15	Zn	0.933903	0.107242	0.024167
Zn16	Zn	1.433903	0.607242	0.524167
Zn17	Zn	0.933922	0.107251	-0.184431
Zn18	Zn	1.433922	0.607251	0.315569
O19	O	0.927488	0.222353	-0.009349
O20	O	1.427488	0.722353	0.490651
C21	C	0.789346	0.113168	-0.069464
C22	C	1.289346	0.613168	0.430536
C23	C	0.701572	0.111699	-0.062597
C24	C	1.201572	0.611699	0.437403
C25	C	0.660336	0.111015	-0.145665
C26	C	1.160336	0.611015	0.354335
C27	C	0.577861	0.109647	-0.139199
C28	C	1.077861	0.609647	0.360801
C29	C	0.536624	0.108958	-0.049664
C30	C	1.036624	0.608958	0.450336
C31	C	0.577866	0.109645	0.033411
C32	C	1.077866	0.609645	0.533411
C33	C	0.660338	0.111018	0.026944
C34	C	1.160338	0.611018	0.526944
C35	C	0.289967	0.104855	-0.021068
C36	C	0.789967	0.604855	0.478932
C37	C	0.207489	0.103479	-0.014607
C38	C	0.707489	0.603479	0.485393
C39	C	0.207490	0.103482	-0.187219
C40	C	0.707490	0.603482	0.312781
C41	C	0.289965	0.104851	-0.193677
C42	C	0.789965	0.604851	0.306323
C43	C	0.331198	0.105542	-0.110603
C44	C	0.831198	0.605542	0.389397
N45	N	0.452322	0.107557	-0.043052
N46	N	0.952322	0.607557	0.456948
N47	N	0.415498	0.106949	-0.117216
N48	N	0.915498	0.606949	0.382784
C49	C	0.939842	-0.037322	-0.069448
C50	C	1.439842	0.462678	0.430552
C51	C	0.938377	-0.125097	-0.062576
C52	C	1.438377	0.374903	0.437424
C53	C	0.937699	-0.166326	-0.145649
C54	C	1.437699	0.333674	0.354351
C55	C	0.936317	-0.248800	-0.139189
C56	C	1.436317	0.251200	0.360811
C57	C	0.935620	-0.290044	-0.049655
C58	C	1.435620	0.209956	0.450345
C59	C	0.936296	-0.248809	0.033424
C60	C	1.436296	0.251191	0.533424
C61	C	0.937672	-0.166336	0.026964
C62	C	1.437672	0.333664	0.526964
C63	C	0.931500	-0.536702	-0.021078
C64	C	1.431500	-0.036702	0.478922
C65	C	0.930126	-0.619181	-0.014624
C66	C	1.430126	-0.119181	0.485376
C67	C	0.930146	-0.619165	-0.187237
C68	C	1.430146	-0.119165	0.312763
C69	C	0.931527	-0.536692	-0.193690
C70	C	1.431527	-0.036692	0.306310
C71	C	0.932198	-0.495463	-0.110611
C72	C	1.432198	0.004537	0.389389
N73	N	0.934211	-0.374346	-0.043050
N74	N	1.434211	0.125654	0.456950
N75	N	0.933602	-0.411162	-0.117217
N76	N	1.433602	0.088838	0.382783
C77	C	1.078479	0.101325	-0.090802
C78	C	1.578479	0.601325	0.409198
C79	C	1.166253	0.102794	-0.097676
C80	C	1.666253	0.602794	0.402324
C81	C	0.927983	0.251815	-0.090818
C82	C	1.427983	0.751815	0.409182
C83	C	0.929448	0.339590	-0.097697
C84	C	1.429448	0.839590	0.402303
N85	N	0.933895	0.107235	0.166528
N86	N	1.433895	0.607235	0.666528
N87	N	0.933936	0.107252	-0.326793
N88	N	1.433936	0.607252	0.173207
C89	C	0.987724	0.053447	0.216350
C90	C	1.487724	0.553447	0.716350
C91	C	0.987730	0.053447	0.316007
C92	C	1.487730	0.553447	0.816007
C93	C	0.933909	0.107239	0.365841
C94	C	1.433909	0.607239	0.865841
C95	C	0.880075	0.161029	0.316012
C96	C	1.380075	0.661029	0.816012
C97	C	0.880066	0.161025	0.216357
C98	C	1.380066	0.661025	0.716357
C99	C	0.880098	0.161035	0.523724
C100	C	1.380098	0.661035	1.023724
C101	C	0.880107	0.161040	0.623386
C102	C	1.380107	0.661040	1.123386
C103	C	0.987761	0.053456	0.623374
C104	C	1.487761	0.553456	1.123374
C105	C	0.987752	0.053453	0.523719
C106	C	1.487752	0.553453	1.023719
C107	C	0.933919	0.107244	0.473898
C108	C	1.433919	0.607244	0.973898
H109	H	0.693905	0.111573	-0.218575
H110	H	1.193905	0.611573	0.281425
H111	H	0.932062	-0.503146	0.046570
H112	H	1.432062	-0.003146	0.546570
F113	F	0.935545	-0.292705	0.128714
F114	F	1.435545	0.207295	0.628714
F115	F	0.938446	-0.122439	-0.240944
F116	F	1.438446	0.377561	0.259056
H117	H	0.932095	-0.503116	-0.266598
H118	H	1.432095	-0.003116	0.233402
F119	F	0.822822	0.218292	0.676416
F120	F	1.322822	0.718292	1.176416
F121	F	0.938393	-0.122458	0.115381
F122	F	1.438393	0.377542	0.615381
H123	H	1.031581	0.009655	0.483144
H124	H	1.531581	0.509655	0.983144
H125	H	0.836249	0.204825	0.356593
H126	H	1.336249	0.704825	0.856593
H127	H	0.935768	-0.282365	-0.206836
H128	H	1.435768	0.217635	0.293164
F129	F	1.045012	-0.003803	0.163322
F130	F	1.545012	0.496197	0.663322
H131	H	0.929598	-0.652742	-0.254876
H132	H	1.429598	-0.152742	0.245124
H133	H	0.929554	-0.652759	0.058289
H134	H	1.429554	-0.152759	0.558289
F135	F	1.045019	-0.003801	0.369031
F136	F	1.545019	0.496199	0.869031
H137	H	1.031594	0.009658	0.663945
H138	H	1.531594	0.509658	1.163945
F139	F	0.822798	0.218284	0.470705
F140	F	1.322798	0.718284	0.970705
F141	F	0.822772	0.218271	0.163335
F142	F	1.322772	0.718271	0.663335
H143	H	0.544290	0.109089	-0.206843
H144	H	1.044290	0.609089	0.293157
H145	H	0.323535	0.105407	-0.266587
H146	H	0.823535	0.605407	0.233413
F147	F	0.163601	0.102740	-0.275625
F148	F	0.663601	0.602740	0.224375
F149	F	0.163605	0.102732	0.080694
F150	F	0.663605	0.602732	0.580694
H151	H	0.323530	0.105412	0.046577
H152	H	0.823530	0.605412	0.546577
F153	F	0.533975	0.108918	0.128702
F154	F	1.033975	0.608918	0.628702
H155	H	0.693911	0.111579	0.094587
H156	H	1.193911	0.611579	0.594587
