data_functionalizedCrystal
_audit_creation_method	'MofGen! by Chris Wilmer'
_symmetry_space_group_name_H-M	'P1'
_symmetry_Int_Tables_number	1
_symmetry_cell_setting	triclinic
loop_
_symmetry_equiv_pos_as_xyz
  x,y,z
_cell_length_a	12.759395
_cell_length_b	12.759394
_cell_length_c	11.169409
_cell_angle_alpha	90.034524
_cell_angle_beta	90.021701
_cell_angle_gamma	90.015525
loop_
_atom_site_label
_atom_site_type_symbol
_atom_site_fract_x
_atom_site_fract_y
_atom_site_fract_z
Zn1	Zn	1.606271	-0.418162	0.678585
Zn2	Zn	1.606160	-0.593888	0.477894
Zn3	Zn	1.430568	-0.418226	0.477912
Zn4	Zn	1.430561	-0.593802	0.678532
O5	O	1.518390	-0.506019	0.578231
O6	O	1.753277	-0.441482	0.651977
O7	O	1.582824	-0.570648	0.309946
O8	O	1.453925	-0.271196	0.504562
O9	O	1.753196	-0.570587	0.504530
O10	O	1.583013	-0.271149	0.651995
O11	O	1.453817	-0.441590	0.309960
O12	O	1.283546	-0.441507	0.504511
O13	O	1.453912	-0.570440	0.846489
O14	O	1.283541	-0.570502	0.651905
O15	O	1.583006	-0.441399	0.846527
O16	O	1.582817	-0.740898	0.504479
O17	O	1.453805	-0.740834	0.651887
C18	C	1.245422	-0.506003	0.578205
C19	C	1.128646	-0.506021	0.578223
C20	C	1.518327	-0.778987	0.578202
C21	C	1.518396	-0.895764	0.578229
C22	C	0.909255	-0.640585	0.731502
C23	C	0.964143	-0.707845	0.808113
C24	C	1.073865	-0.707832	0.808098
C25	C	1.128701	-0.640554	0.731460
C26	C	1.073812	-0.573294	0.654849
C27	C	0.964088	-0.573312	0.654875
C28	C	1.073757	-0.438760	0.501611
C29	C	0.964036	-0.438766	0.501631
C30	C	1.128593	-0.371482	0.424974
C31	C	1.073704	-0.304215	0.348367
C32	C	0.963976	-0.304230	0.348387
C33	C	0.909147	-0.371506	0.425020
C34	C	1.652837	-0.895776	0.424848
C35	C	1.720085	-0.950643	0.348172
C36	C	1.720146	-1.060365	0.348205
C37	C	1.652955	-1.115222	0.424924
C38	C	1.585707	-1.060355	0.501601
C39	C	1.585651	-0.950631	0.501557
C40	C	1.451273	-1.060342	0.654986
C41	C	1.451204	-0.950621	0.654949
C42	C	1.384082	-1.115199	0.731706
C43	C	1.316827	-1.060332	0.808378
C44	C	1.316767	-0.950604	0.808341
C45	C	1.383957	-0.895754	0.731626
C46	C	1.792423	-0.506037	0.578257
C47	C	1.909200	-0.506045	0.578268
C48	C	1.518470	-0.505903	0.891273
C49	C	1.518505	-0.505853	1.024673
C50	C	1.518482	-0.231986	0.578286
C51	C	1.518521	-0.115209	0.578310
C52	C	1.518370	-0.506060	0.266406
C53	C	1.518539	-0.505813	0.133007
H54	H	0.819914	-0.640591	0.731534
H55	H	0.919484	-0.762624	0.870507
H56	H	1.652780	-0.806435	0.424799
F57	F	1.384138	-0.778978	0.731853
H58	H	1.774794	-0.905969	0.285709
H59	H	1.384141	-1.204540	0.731732
F60	F	1.245332	-1.118720	0.890027
H61	H	1.774911	-1.105037	0.285774
F62	F	1.132283	-0.779422	0.889629
F63	F	1.652676	-1.231996	0.424557
H64	H	1.218042	-0.640558	0.731444
F65	F	1.245369	-0.371475	0.424954
H66	H	1.262010	-0.905937	0.870785
H67	H	1.118360	-0.249448	0.285970
F68	F	0.905568	-0.232647	0.266838
H69	H	0.819806	-0.371520	0.425049
