data_functionalizedCrystal
_audit_creation_method	'MofGen! by Chris Wilmer'
_symmetry_space_group_name_H-M	'P1'
_symmetry_Int_Tables_number	1
_symmetry_cell_setting	triclinic
loop_
_symmetry_equiv_pos_as_xyz
  x,y,z
_cell_length_a	27.732048
_cell_length_b	27.731996
_cell_length_c	22.010155
_cell_angle_alpha	89.998256
_cell_angle_beta	89.997107
_cell_angle_gamma	82.632022
loop_
_atom_site_label
_atom_site_type_symbol
_atom_site_fract_x
_atom_site_fract_y
_atom_site_fract_z
O1	O	0.640920	0.057512	-0.050455
O2	O	0.500125	0.066257	-0.050474
O3	O	0.574908	-0.008514	-0.050451
O4	O	0.566136	0.132283	-0.050478
O5	O	0.574895	-0.008503	0.050600
O6	O	0.500111	0.066269	0.050576
O7	O	0.640906	0.057523	0.050596
Cu8	Cu	0.570508	0.061897	0.059813
Cu9	Cu	0.570524	0.061884	-0.059691
O10	O	0.566123	0.132294	0.050572
C11	C	0.482111	0.066079	0.000049
C12	C	0.428456	0.065527	0.000042
C13	C	0.574721	-0.026516	0.000077
C14	C	0.574179	-0.080172	0.000083
C15	C	0.089634	0.106232	0.000060
C16	C	-0.112026	0.104180	0.000066
O17	O	-0.143288	0.141402	0.000085
N18	N	-0.131141	0.059844	0.000074
C19	C	-0.099838	0.016017	0.000084
O20	O	-0.120724	-0.021740	0.000097
C21	C	0.101820	0.018069	0.000082
C22	C	0.120933	0.062408	0.000069
C23	C	0.108747	0.150567	0.000047
C24	C	0.159159	0.151079	0.000042
C25	C	0.190457	0.107256	0.000051
C26	C	0.171344	0.062920	0.000064
C27	C	0.133122	-0.025757	0.000097
C28	C	0.183539	-0.025240	0.000098
C29	C	0.202652	0.019099	0.000084
C30	C	0.253055	0.019609	0.000067
N31	N	0.272171	0.063946	0.000060
C32	C	0.240872	0.107769	0.000051
C33	C	-0.205712	0.014943	0.000083
C34	C	-0.256126	0.014430	0.000083
C35	C	-0.268310	0.102594	0.000066
C36	C	-0.217895	0.103106	0.000062
C37	C	-0.186597	0.059280	0.000076
C38	C	0.346741	0.108842	0.000041
C39	C	0.397158	0.109350	0.000034
C40	C	0.409337	0.021187	0.000053
C41	C	0.358925	0.020678	0.000057
C42	C	0.327627	0.064510	0.000053
O43	O	0.284346	-0.017592	0.000055
O44	O	0.261767	0.145521	0.000052
C45	C	0.039222	0.105719	0.000065
C46	C	0.020109	0.061384	0.000078
C47	C	0.051408	0.017560	0.000086
C48	C	-0.030305	0.060871	0.000077
C49	C	-0.061604	0.104694	0.000069
C50	C	-0.042489	0.149030	0.000062
C51	C	0.007923	0.149543	0.000057
C52	C	0.032292	-0.026776	0.000094
C53	C	-0.018120	-0.027285	0.000098
C54	C	-0.049419	0.016539	0.000090
C55	C	0.570771	-0.412894	-0.055030
C56	C	0.568710	-0.614553	-0.055041
O57	O	0.568429	-0.640628	-0.101887
N58	N	0.568447	-0.639764	0.000041
C59	C	0.568696	-0.614557	0.055130
O60	O	0.568419	-0.640627	0.101980
C61	C	0.570753	-0.412899	0.055140
C62	C	0.571021	-0.387691	0.000054
C63	C	0.571039	-0.387687	-0.110111
C64	C	0.571557	-0.337275	-0.110108
C65	C	0.571807	-0.312072	-0.055023
C66	C	0.571539	-0.337280	0.000058
C67	C	0.570998	-0.387692	0.110228
C68	C	0.571512	-0.337274	0.110226
C69	C	0.571780	-0.312067	0.055140
C70	C	0.572307	-0.261665	0.055145
N71	N	0.572571	-0.236454	0.000063
C72	C	0.572321	-0.261658	-0.055021
C73	C	0.567616	-0.720430	0.055120
C74	C	0.567103	-0.770844	0.055118
C75	C	0.567117	-0.770837	-0.055053
C76	C	0.567634	-0.720422	-0.055050
C77	C	0.567880	-0.695219	0.000038
C78	C	0.573409	-0.155791	-0.055010
C79	C	0.573928	-0.105375	-0.055002
C80	C	0.573912	-0.105387	0.055169
C81	C	0.573395	-0.155798	0.055161
C82	C	0.573141	-0.180999	0.000067
O83	O	0.572583	-0.235558	0.101967
O84	O	0.572586	-0.235578	-0.101864
C85	C	0.570253	-0.463306	-0.055033
C86	C	0.569986	-0.488513	0.000048
C87	C	0.570236	-0.463310	0.055132
C88	C	0.569472	-0.538928	0.000045
C89	C	0.569222	-0.564131	-0.055039
C90	C	0.569485	-0.538920	-0.110121
C91	C	0.570003	-0.488509	-0.110118
C92	C	0.569972	-0.488521	0.110214
C93	C	0.569455	-0.538932	0.110206
C94	C	0.569205	-0.564136	0.055122
C95	C	0.658920	0.057701	0.000072
C96	C	0.712575	0.058254	0.000074
C97	C	0.566310	0.150296	0.000044
C98	C	0.566853	0.203952	0.000034
N99	N	0.570500	0.061906	0.143865
N100	N	0.570535	0.061871	-0.143744
C101	C	0.603640	0.028779	0.563655
C102	C	0.603642	0.028776	0.627263
O103	O	0.631799	0.000617	0.660163
N104	N	0.570523	0.061873	0.659072
C105	C	0.537397	0.094973	0.627271
O106	O	0.509227	0.123124	0.660168
C107	C	0.537393	0.094974	0.563665
C108	C	0.570517	0.061877	0.531858
C109	C	0.636760	-0.004314	0.531848
C110	C	0.636759	-0.004310	0.468245
C111	C	0.603636	0.028788	0.436449
C112	C	0.570515	0.061881	0.468255
C113	C	0.504265	0.128071	0.531865
C114	C	0.504263	0.128068	0.468254
C115	C	0.537387	0.094972	0.436447
C116	C	0.537391	0.094984	0.372855
N117	N	0.570509	0.061886	0.341045
C118	C	0.603632	0.028788	0.372842
C119	C	0.537408	0.094969	0.760849
C120	C	0.537414	0.094971	0.824454
C121	C	0.603658	0.028773	0.824441
C122	C	0.603654	0.028774	0.760835
C123	C	0.570526	0.061871	0.729039
C124	C	0.603626	0.028800	0.239271
C125	C	0.603622	0.028808	0.175662
C126	C	0.537377	0.095004	0.175680
C127	C	0.537382	0.094997	0.239284
C128	C	0.570508	0.061891	0.271077
O129	O	0.509247	0.123127	0.339914
O130	O	0.631793	0.000637	0.339937
H131	H	0.412716	0.145458	0.000022
H132	H	0.477292	0.155020	0.557753
H133	H	0.510433	0.121925	0.734964
H134	H	0.566892	-0.791365	0.099974
C135	C	0.640061	-0.007604	0.140679
N136	N	0.667505	-0.035030	0.114331
C137	C	0.312320	0.157058	0.000033
N138	N	0.286395	0.193375	0.000022
C139	C	-0.196876	0.151882	0.000054
N140	N	-0.181048	0.188622	0.000050
C141	C	0.567924	-0.692698	-0.115648
N142	N	0.568141	-0.671818	-0.161293
C143	C	0.180175	0.199856	0.000040
N144	N	0.196001	0.236598	0.000043
C145	C	0.570785	-0.415405	-0.170714
N146	N	0.570604	-0.436281	-0.216364
H147	H	0.570221	-0.467989	-0.154974
H148	H	0.566913	-0.791366	-0.099905
H149	H	-0.293803	0.138276	0.000060
C150	C	0.066715	-0.074988	0.000100
N151	N	0.092641	-0.111305	0.000101
C152	C	0.217965	-0.073454	0.000110
N153	N	0.243893	-0.109769	0.000117
H154	H	0.573181	-0.176324	0.100016
C155	C	-0.039137	-0.076065	0.000117
N156	N	-0.054965	-0.112805	0.000138
H157	H	0.630628	0.001822	0.850342
C158	C	0.573138	-0.183505	-0.115616
N159	N	0.572940	-0.204380	-0.161265
C160	C	0.640068	-0.007618	0.274234
N161	N	0.667518	-0.035045	0.300569
H162	H	0.567819	-0.699915	0.099982
H163	H	-0.271683	-0.021675	0.000084
C164	C	0.574182	-0.077653	0.115759
N165	N	0.574381	-0.056762	0.161396
H166	H	0.569284	-0.559450	-0.154973
H167	H	0.663733	-0.031269	0.557732
H168	H	0.570781	-0.408208	0.155085
H169	H	0.569240	-0.559453	0.155067
H170	H	0.477285	0.155020	0.442369
H171	H	0.510414	0.121952	0.265181
H172	H	0.510447	0.121926	0.850347
H173	H	0.574148	-0.084854	-0.099861
H174	H	0.571705	-0.316756	0.155086
H175	H	0.117570	-0.061863	0.000108
H176	H	0.630626	0.001824	0.734942
C177	C	0.570249	-0.460805	0.170815
N178	N	0.570461	-0.439931	0.216463
H179	H	0.571774	-0.316755	-0.154964
C180	C	0.500942	0.131408	0.140692
N181	N	0.473496	0.158825	0.114337
C182	C	0.074325	0.198781	0.000040
N183	N	0.048401	0.235099	0.000032
C184	C	-0.171289	-0.033272	0.000093
N185	N	-0.145364	-0.069589	0.000098
C186	C	0.673193	-0.040724	0.433267
N187	N	0.700635	-0.068155	0.406924
H188	H	0.434830	-0.014493	0.000058
C189	C	-0.076927	0.197236	0.000055
N190	N	-0.102869	0.233542	0.000054
C191	C	0.337900	-0.028097	0.000065
N192	N	0.322069	-0.064835	0.000075
H193	H	0.023479	0.185648	0.000046
