data_functionalizedCrystal
_audit_creation_method	'MofGen! by Chris Wilmer'
_symmetry_space_group_name_H-M	'P1'
_symmetry_Int_Tables_number	1
_symmetry_cell_setting	triclinic
loop_
_symmetry_equiv_pos_as_xyz
  x,y,z
_cell_length_a	18.050589
_cell_length_b	12.759401
_cell_length_c	12.759393
_cell_angle_alpha	89.979062
_cell_angle_beta	90.029546
_cell_angle_gamma	89.970254
loop_
_atom_site_label
_atom_site_type_symbol
_atom_site_fract_x
_atom_site_fract_y
_atom_site_fract_z
Zn1	Zn	-0.295593	-1.606168	0.594027
Zn2	Zn	-0.419801	-1.606017	0.418350
Zn3	Zn	-0.295633	-1.430466	0.418362
Zn4	Zn	-0.419749	-1.430417	0.593987
O5	O	-0.357694	-1.518267	0.506182
O6	O	-0.312075	-1.753169	0.570735
O7	O	-0.403368	-1.582688	0.271331
O8	O	-0.191703	-1.453857	0.441686
O9	O	-0.403330	-1.753058	0.441666
O10	O	-0.191674	-1.582944	0.570746
O11	O	-0.312142	-1.453711	0.271339
O12	O	-0.312092	-1.283439	0.441648
O13	O	-0.403241	-1.453773	0.741014
O14	O	-0.403280	-1.283402	0.570679
O15	O	-0.312025	-1.582896	0.741043
O16	O	-0.523719	-1.582640	0.441627
O17	O	-0.523681	-1.453627	0.570667
C18	C	-0.357685	-1.245300	0.506161
C19	C	-0.357699	-1.128523	0.506177
C20	C	-0.550646	-1.518140	0.506164
C21	C	-0.633192	-1.518182	0.506192
C22	C	-0.357623	-1.518346	0.780215
C23	C	-0.357592	-1.518379	0.896992
C24	C	-0.832649	-1.448094	0.576339
C25	C	-0.882097	-1.422478	0.480470
C26	C	-0.784322	-1.518285	0.506206
C27	C	-0.881956	-1.543953	0.602085
C28	C	-0.930307	-1.518383	0.506227
C29	C	-0.832683	-1.492619	0.410286
C30	C	-0.832538	-1.614139	0.531966
C31	C	-0.881964	-1.588559	0.436031
C32	C	-0.700224	-1.518226	0.506194
C33	C	-1.014404	-1.518442	0.506228
C34	C	-0.163989	-1.518423	0.506222
C35	C	-0.081443	-1.518489	0.506239
C36	C	-0.357704	-1.792300	0.506203
C37	C	-0.357708	-1.909077	0.506212
C38	C	-0.405253	-1.073670	0.573257
C39	C	-0.405256	-0.963946	0.573278
C40	C	-0.310149	-0.963938	0.439129
C41	C	-0.310143	-1.073660	0.439114
C42	C	-0.431904	-0.814041	0.697139
C43	C	-0.479469	-0.759184	0.764211
C44	C	-0.551945	-0.794757	0.780160
C45	C	-0.576870	-0.885186	0.729023
C46	C	-0.529309	-0.940038	0.661944
C47	C	-0.456822	-0.904466	0.646014
C48	C	-0.283503	-1.223567	0.315251
C49	C	-0.235944	-1.278420	0.248166
C50	C	-0.163467	-1.242849	0.232206
C51	C	-0.138545	-1.152417	0.283325
C52	C	-0.186103	-1.097563	0.350410
C53	C	-0.258579	-1.133142	0.366372
C54	C	-0.357712	-1.518249	0.233214
C55	C	-0.357533	-1.518419	0.116438
C56	C	-0.310088	-1.585619	0.951871
C57	C	-0.310056	-1.585637	1.061595
C58	C	-0.405039	-1.451172	1.061552
C59	C	-0.405067	-1.451150	0.951829
C60	C	-0.222435	-1.623278	1.211571
C61	C	-0.174938	-1.690534	1.266453
C62	C	-0.163549	-1.793050	1.230862
C63	C	-0.199670	-1.828332	1.140389
C64	C	-0.247173	-1.761082	1.085512
C65	C	-0.258547	-1.658550	1.121102
C66	C	-0.492689	-1.413520	0.801851
C67	C	-0.540196	-1.346274	0.746972
C68	C	-0.551592	-1.243755	0.782562
C69	C	-0.515485	-1.208478	0.873038
C70	C	-0.467977	-1.275723	0.927917
C71	C	-0.456580	-1.378241	0.892320
H72	H	-0.810995	-1.388648	0.635565
H73	H	-0.079532	-1.123441	0.270313
H74	H	-0.569604	-1.375010	0.673309
H75	H	-0.271430	-1.640358	0.907225
F76	F	-0.136497	-1.652982	1.362738
H77	H	-0.342518	-1.252545	0.328250
F78	F	-0.804513	-1.464174	0.304283
H79	H	-0.903481	-1.647959	0.376662
H80	H	-0.124748	-1.287516	0.177570
F81	F	-0.804064	-1.720007	0.560478
H82	H	-0.549603	-1.013662	0.620308
H83	H	-0.276584	-1.789809	1.011854
F84	F	-0.910250	-1.572277	0.708056
H85	H	-0.190399	-1.911815	1.111423
H86	H	-0.256243	-1.352055	0.206542
H87	H	-0.124875	-1.847810	1.275555
H88	H	-0.443974	-1.118336	0.627867
F89	F	-0.910548	-1.316581	0.451993
F90	F	-0.452938	-0.662948	0.818636
H91	H	-0.635890	-0.914136	0.742006
H92	H	-0.231697	-1.539798	1.240553
F93	F	-0.602565	-0.736374	0.851548
H94	H	-0.372885	-0.785075	0.684170
H95	H	-0.271432	-0.919255	0.384527
H96	H	-0.165803	-1.023933	0.392041
F97	F	-0.455564	-1.379630	1.119923
F98	F	-0.480544	-1.522623	0.763948
F99	F	-0.429547	-1.238174	1.024210
F100	F	-0.602168	-1.172195	0.724163
H101	H	-0.524766	-1.125000	0.902019
