data_functionalizedCrystal
_audit_creation_method	'MofGen! by Chris Wilmer'
_symmetry_space_group_name_H-M	'P1'
_symmetry_Int_Tables_number	1
_symmetry_cell_setting	triclinic
loop_
_symmetry_equiv_pos_as_xyz
  x,y,z
_cell_length_a	12.784905
_cell_length_b	12.811415
_cell_length_c	17.766277
_cell_angle_alpha	84.562803
_cell_angle_beta	89.989942
_cell_angle_gamma	78.600455
loop_
_atom_site_label
_atom_site_type_symbol
_atom_site_fract_x
_atom_site_fract_y
_atom_site_fract_z
O1	O	1.410351	0.006574	-0.063047
O2	O	1.101096	0.051506	-0.066114
O3	O	1.263502	-0.124463	-0.054099
O4	O	1.247945	0.182543	-0.075062
O5	O	1.263473	-0.124468	0.071089
O6	O	1.101067	0.051501	0.059074
O7	O	1.410323	0.006569	0.062142
Cu8	Cu	1.255692	0.029034	0.072039
Cu9	Cu	1.255726	0.029041	-0.076012
O10	O	1.247916	0.182538	0.050127
C11	C	1.061495	0.054426	-0.003719
C12	C	0.943540	0.063120	-0.004313
C13	C	0.746370	-0.114026	0.007769
C14	C	0.635541	-0.105862	0.007212
C15	C	0.611051	0.087613	-0.005990
C16	C	0.721880	0.079449	-0.005433
C17	C	0.789536	-0.021375	0.001448
C18	C	0.900367	-0.029538	0.002011
C19	C	0.875875	0.163936	-0.011197
C20	C	0.765046	0.172100	-0.011754
C21	C	1.262615	-0.163490	0.011158
C22	C	1.260003	-0.279770	0.019093
C23	C	1.255106	-0.498253	-0.102493
C24	C	1.252651	-0.607509	-0.095041
C25	C	1.252631	-0.607537	0.041448
C26	C	1.255086	-0.498282	0.033996
C27	C	1.256325	-0.443644	-0.037977
C28	C	1.258787	-0.334388	-0.045428
C29	C	1.258759	-0.334417	0.091061
C30	C	1.256305	-0.443672	0.098513
C31	C	1.449923	0.003649	-0.000255
C32	C	1.567879	-0.005046	0.000334
C33	C	1.248803	0.221565	-0.015133
C34	C	1.251415	0.337845	-0.023073
N35	N	1.255676	0.029028	0.176170
N36	N	1.255751	0.029038	-0.180142
C37	C	1.327613	-0.048858	0.220874
C38	C	1.327619	-0.048863	0.299677
C39	C	1.255698	0.029034	0.333770
C40	C	1.183748	0.106927	0.289055
C41	C	1.183737	0.106924	0.210255
C42	C	1.242201	0.125858	0.451996
C43	C	1.242220	0.125862	0.530795
C44	C	1.255727	0.029045	0.576815
C45	C	1.269238	-0.067783	0.544028
C46	C	1.269227	-0.067786	0.465228
C47	C	1.255702	0.029046	0.419215
C48	C	1.327675	-0.048854	0.706967
C49	C	1.327673	-0.048860	0.785771
C50	C	1.183807	0.106939	0.775147
C51	C	1.183803	0.106937	0.696345
C52	C	1.255743	0.029041	0.662260
H53	H	0.555948	0.169698	-0.011603
H54	H	1.251655	-0.651967	-0.147577
H55	H	1.255292	-0.488172	0.157111
C56	C	1.406755	-0.134535	0.348865
H57	H	1.396453	-0.123378	0.400677
H58	H	1.477706	-0.129565	0.335596
H59	H	1.394911	-0.203520	0.340672
C60	C	1.406802	-0.134541	0.834950
H61	H	1.396498	-0.123393	0.886764
H62	H	1.477755	-0.129575	0.821686
H63	H	1.394952	-0.203522	0.826750
H64	H	1.259756	-0.289943	0.143595
C65	C	1.406732	-0.134550	0.183385
H66	H	1.449569	-0.180943	0.221301
H67	H	1.451118	-0.100824	0.150327
H68	H	1.368310	-0.174766	0.155407
H69	H	1.280225	-0.146626	0.438536
H70	H	1.386249	-0.112284	0.679214
C71	C	0.690621	0.282996	-0.019318
H72	H	0.618432	0.274591	-0.018740
H73	H	0.703761	0.321418	-0.065593
H74	H	0.703744	0.321390	0.021727
C75	C	0.923359	0.265857	-0.018155
H76	H	0.999055	0.246558	-0.016843
H77	H	0.900153	0.306940	0.022695
H78	H	0.900176	0.306942	-0.064622
H79	H	1.280236	-0.146621	0.581496
H80	H	1.125244	0.170362	0.802905
H81	H	1.259799	-0.289904	-0.104032
H82	H	1.256124	-0.453769	-0.161096
C83	C	1.104683	0.192623	0.647167
H84	H	1.061855	0.239022	0.678755
H85	H	1.060288	0.158894	0.618739
H86	H	1.143098	0.232833	0.613673
H87	H	1.251614	-0.652040	0.100045
C88	C	1.227360	0.232362	0.566858
H89	H	1.229314	0.218499	0.620379
H90	H	1.160513	0.275847	0.550987
H91	H	1.283103	0.268439	0.551465
C92	C	0.974786	-0.140437	0.009572
H93	H	0.933201	-0.194447	0.013248
H94	H	1.018525	-0.147660	0.053719
H95	H	1.018534	-0.147629	-0.033600
C96	C	1.227350	0.232363	0.401381
H97	H	1.219324	0.290026	0.432192
H98	H	1.165495	0.240103	0.370122
H99	H	1.288089	0.232669	0.370611
C100	C	1.104610	0.192609	0.161077
H101	H	1.061779	0.239007	0.192664
H102	H	1.060218	0.158879	0.132647
H103	H	1.143026	0.232821	0.127585
C104	C	0.820794	-0.224923	0.015337
H105	H	0.779211	-0.278936	0.019018
H106	H	0.864532	-0.232136	0.059483
H107	H	0.864541	-0.232121	-0.027836
C108	C	0.588062	-0.207778	0.014169
H109	H	0.644231	-0.268990	0.018352
H110	H	0.545344	-0.208611	-0.029429
H111	H	0.545330	-0.208619	0.057889
C112	C	1.104640	0.192615	0.326554
H113	H	1.114957	0.181469	0.379887
H114	H	1.033683	0.187652	0.313996
H115	H	1.116490	0.261594	0.308919
