data_functionalizedCrystal
_audit_creation_method	'MofGen! by Chris Wilmer'
_symmetry_space_group_name_H-M	'P1'
_symmetry_Int_Tables_number	1
_symmetry_cell_setting	triclinic
loop_
_symmetry_equiv_pos_as_xyz
  x,y,z
_cell_length_a	14.853558
_cell_length_b	17.666332
_cell_length_c	14.853567
_cell_angle_alpha	89.999237
_cell_angle_beta	96.366968
_cell_angle_gamma	90.005300
loop_
_atom_site_label
_atom_site_type_symbol
_atom_site_fract_x
_atom_site_fract_y
_atom_site_fract_z
O1	O	1.196372	0.062933	-0.117664
O2	O	0.933911	0.062935	-0.131694
O3	O	1.072152	0.062936	0.006551
O4	O	1.058131	0.062932	-0.255909
O5	O	1.072137	-0.062961	0.006554
O6	O	0.933896	-0.062961	-0.131691
O7	O	1.196356	-0.062964	-0.117660
Cu8	Cu	1.065124	-0.074458	-0.124675
Cu9	Cu	1.065143	0.074429	-0.124679
O10	O	1.058115	-0.062965	-0.255906
C11	C	0.900314	-0.000013	-0.131058
C12	C	0.800230	-0.000011	-0.129158
C13	C	0.753219	0.068618	-0.128268
C14	C	0.753200	-0.068640	-0.128254
C15	C	0.659166	-0.068641	-0.126463
C16	C	0.612155	-0.000012	-0.125574
C17	C	0.659177	0.068619	-0.126475
C18	C	0.612139	-0.137270	-0.125553
C19	C	0.518099	-0.137274	-0.123761
C20	C	0.471085	-0.068644	-0.122878
C21	C	0.518113	-0.000011	-0.123781
C22	C	0.471101	0.068619	-0.122891
C23	C	0.518126	0.137253	-0.123800
C24	C	0.612162	0.137249	-0.125592
C25	C	0.377049	-0.068640	-0.121086
C26	C	0.377059	0.068619	-0.121098
N27	N	1.065118	-0.179178	-0.124672
C28	C	1.126371	-0.781227	-0.063477
C29	C	1.126373	-0.701980	-0.063479
C30	C	1.065144	-0.662359	-0.124671
C31	C	1.003924	-0.701993	-0.185881
C32	C	1.003931	-0.781239	-0.185883
N33	N	0.985379	-0.537946	-0.136014
N34	N	0.985376	-0.462665	-0.136006
C35	C	1.065122	-0.423595	-0.124669
N36	N	1.144874	-0.462649	-0.113323
N37	N	1.144877	-0.537937	-0.113326
C38	C	1.065130	-0.576430	-0.124676
C39	C	1.126344	-0.298042	-0.063470
C40	C	1.126347	-0.218793	-0.063479
C41	C	1.003890	-0.218807	-0.185875
C42	C	1.003896	-0.298055	-0.185871
C43	C	1.065121	-0.337667	-0.124664
C44	C	1.229953	-0.000015	-0.118296
C45	C	1.330037	-0.000011	-0.120197
C46	C	1.071509	-0.000010	0.040141
C47	C	1.069605	-0.000003	0.140225
N48	N	1.065156	0.179149	-0.124675
C49	C	1.058758	-0.000017	-0.289496
C50	C	1.060662	-0.000019	-0.389580
C51	C	0.979439	-0.000017	0.552756
C52	C	1.143673	-0.000019	0.574042
C53	C	1.145463	-0.000014	0.480009
C54	C	1.064240	-0.000012	0.422344
C55	C	0.981227	-0.000015	0.458713
C56	C	1.228474	-0.000019	0.443632
C57	C	1.230268	-0.000016	0.349593
C58	C	1.149044	-0.000008	0.291927
C59	C	1.066027	-0.000010	0.328301
C60	C	0.984805	-0.000008	0.270637
C61	C	0.901787	-0.000004	0.307009
C62	C	0.900003	-0.000007	0.401047
C63	C	1.150828	-0.000005	0.197890
C64	C	0.986592	-0.000006	0.176594
H65	H	0.650459	0.193127	-0.126330
H66	H	0.920449	-0.000001	0.129649
H67	H	0.338788	0.124506	-0.120379
H68	H	0.911848	-0.000011	0.582375
Br69	Br	0.817033	0.161760	-0.129505
Br70	Br	0.791560	-0.000011	0.228740
H71	H	0.479837	0.193130	-0.123070
H72	H	0.791484	-0.124514	-0.128971
H73	H	0.650424	-0.193144	-0.126269
H74	H	1.176200	-0.186530	-0.013646
Br75	Br	0.920803	-0.165043	-0.268932
H76	H	0.479820	-0.193160	-0.123021
H77	H	1.176223	-0.669712	-0.013643
Br78	Br	1.253898	-0.000037	0.652301
Br79	Br	0.313235	-0.161778	-0.119834
H80	H	1.176227	-0.813478	-0.013641
H81	H	0.954072	-0.669730	-0.235705
Br82	Br	0.920848	-0.835019	-0.268945
Br83	Br	1.209438	-0.351804	0.019593
H84	H	0.954045	-0.330319	-0.235701
Br85	Br	1.338698	-0.000042	0.521893
Br86	Br	1.342931	-0.000009	0.300238
H87	H	0.832414	-0.000005	0.430670
Br88	Br	1.263484	-0.000028	0.148529
