data_functionalizedCrystal
_audit_creation_method	'MofGen! by Chris Wilmer'
_symmetry_space_group_name_H-M	'P1'
_symmetry_Int_Tables_number	1
_symmetry_cell_setting	triclinic
loop_
_symmetry_equiv_pos_as_xyz
  x,y,z
_cell_length_a	8.497374
_cell_length_b	12.759401
_cell_length_c	12.759400
_cell_angle_alpha	89.985155
_cell_angle_beta	89.991978
_cell_angle_gamma	90.000368
loop_
_atom_site_label
_atom_site_type_symbol
_atom_site_fract_x
_atom_site_fract_y
_atom_site_fract_z
Zn1	Zn	0.891904	1.606068	0.418444
Zn2	Zn	0.628108	1.606017	0.594091
Zn3	Zn	0.628137	1.430425	0.418427
Zn4	Zn	0.891846	1.430358	0.594082
O5	O	0.759999	1.518217	0.506261
O6	O	0.856923	1.753082	0.441755
O7	O	0.407350	1.582732	0.570785
O8	O	0.663163	1.453773	0.271408
O9	O	0.663113	1.753045	0.570802
O10	O	0.856951	1.582817	0.271421
O11	O	0.407371	1.453725	0.441725
O12	O	0.663107	1.283395	0.441717
O13	O	1.112616	1.453659	0.570787
O14	O	0.856853	1.283346	0.570770
O15	O	1.112658	1.582752	0.441746
O16	O	0.663058	1.582667	0.741110
O17	O	0.856824	1.453611	0.741104
C18	C	0.759978	1.245250	0.506241
C19	C	0.760006	1.128473	0.506258
C20	C	0.860722	1.073613	0.573564
C21	C	0.860739	0.963889	0.573577
C22	C	0.659310	0.963895	0.438977
C23	C	0.659302	1.073617	0.438959
C24	C	0.977011	1.073609	0.651278
C25	C	0.977028	0.963885	0.651291
C26	C	0.759966	1.518155	0.779228
C27	C	0.760005	1.518224	0.896005
C28	C	1.171479	1.518209	0.506262
C29	C	1.350123	1.518212	0.506274
C30	C	0.760021	1.792250	0.506281
C31	C	0.760031	1.909027	0.506290
C32	C	0.760066	1.518308	0.232228
C33	C	0.760095	1.518347	0.115451
C34	C	0.659222	1.585498	0.950835
C35	C	0.659270	1.585563	1.060559
C36	C	0.860889	1.451070	1.060613
C37	C	0.860847	1.451012	0.950891
C38	C	0.542814	1.663143	0.950805
C39	C	0.542862	1.663208	1.060529
H40	H	0.942927	1.396242	0.906249
H41	H	0.586726	1.740503	1.094486
O42	O	0.937917	0.928460	0.748401
C43	C	1.004031	0.925050	0.932015
C44	C	1.048481	0.965260	0.822108
H45	H	1.093416	0.954767	0.991633
H46	H	0.881833	0.954837	0.953774
H47	H	1.003988	0.835702	0.931986
H48	H	1.048614	1.054604	0.822053
H49	H	1.170650	0.935393	0.800393
O50	O	0.958689	1.385814	1.114093
C51	C	1.048189	1.326349	1.283149
C52	C	0.937324	1.400290	1.222717
H53	H	1.030978	1.338043	1.370982
H54	H	1.020369	1.241613	1.261733
H55	H	1.175392	1.344706	1.261460
H56	H	0.810084	1.382028	1.244373
H57	H	0.965280	1.485004	1.244138
O58	O	1.115459	0.923233	0.616519
C59	C	1.244583	0.814995	0.487865
C60	C	1.087718	0.860988	0.527119
H61	H	1.222205	0.764643	0.415593
H62	H	1.328461	0.881489	0.466828
H63	H	1.299209	0.764745	0.552172
H64	H	1.032956	0.911226	0.462860
H65	H	1.003949	0.794444	0.548187
H66	H	0.575625	1.744480	0.920956
O67	O	0.561623	1.127071	0.373607
C68	C	0.472274	1.296105	0.313966
C69	C	0.583005	1.235700	0.388015
H70	H	0.489499	1.383942	0.325605
H71	H	0.500214	1.274619	0.229261
H72	H	0.345035	1.274461	0.332265
H73	H	0.710280	1.257311	0.369811
H74	H	0.554929	1.257191	0.472698
H75	H	0.426703	1.634043	0.916826
O76	O	0.397137	1.637118	1.096076
C77	C	0.191512	1.507110	1.099537
C78	C	0.356562	1.536514	1.059228
H79	H	0.158642	1.425779	1.069744
H80	H	0.191487	1.507085	1.188886
H81	H	0.102164	1.566744	1.069762
H82	H	0.446003	1.476909	1.088927
H83	H	0.356456	1.536572	0.969880
O84	O	0.561528	0.910443	0.373713
C85	C	0.472326	0.741413	0.314047
C86	C	0.583126	0.801813	0.388025
H87	H	0.489773	0.653576	0.325577
H88	H	0.345037	0.762902	0.332366
H89	H	0.500222	0.763059	0.229367
H90	H	0.555372	0.780199	0.472730
H91	H	0.710383	0.780319	0.369616
H92	H	1.099249	1.103391	0.629612
O93	O	0.924543	1.114382	0.743341
C94	C	0.868302	1.270776	0.842321
C95	C	0.927718	1.224739	0.737999
H96	H	0.870880	1.360005	0.838046
H97	H	0.742637	1.243266	0.857264
H98	H	0.947514	1.243125	0.908921
H99	H	0.848622	1.252369	0.671335
H100	H	1.053408	1.252243	0.723148
