data_functionalizedCrystal
_audit_creation_method	'MofGen! by Chris Wilmer'
_symmetry_space_group_name_H-M	'P1'
_symmetry_Int_Tables_number	1
_symmetry_cell_setting	triclinic
loop_
_symmetry_equiv_pos_as_xyz
  x,y,z
_cell_length_a	18.215407
_cell_length_b	12.645330
_cell_length_c	18.215399
_cell_angle_alpha	89.976970
_cell_angle_beta	89.980167
_cell_angle_gamma	90.018140
loop_
_atom_site_label
_atom_site_type_symbol
_atom_site_fract_x
_atom_site_fract_y
_atom_site_fract_z
Zn1	Zn	1.125109	-0.422038	-0.416141
Zn2	Zn	1.625109	0.077962	0.083859
Zn3	Zn	1.125033	-0.599320	-0.293085
Zn4	Zn	1.625033	-0.099320	0.206915
Zn5	Zn	1.002041	-0.422072	-0.293088
Zn6	Zn	1.502041	0.077928	0.206912
Zn7	Zn	1.002023	-0.599261	-0.416110
Zn8	Zn	1.502023	-0.099261	0.083890
O9	O	1.063551	-0.510673	-0.354606
O10	O	1.563551	-0.010673	0.145394
O11	O	1.228083	-0.445565	-0.399829
O12	O	1.728083	0.054435	0.100171
O13	O	1.108693	-0.575847	-0.190101
O14	O	1.608693	-0.075847	0.309899
O15	O	1.018406	-0.273720	-0.309426
O16	O	1.518406	0.226280	0.190574
O17	O	1.228027	-0.575813	-0.309421
O18	O	1.728027	-0.075813	0.190579
O19	O	1.108823	-0.273695	-0.399832
O20	O	1.608823	0.226305	0.100168
O21	O	1.018332	-0.445624	-0.190104
O22	O	1.518332	0.054376	0.309896
O23	O	0.899055	-0.445566	-0.309396
O24	O	1.399055	0.054434	0.190604
O25	O	1.018374	-0.575713	-0.519099
O26	O	1.518374	-0.075713	-0.019099
O27	O	0.899041	-0.575746	-0.399780
O28	O	1.399041	-0.075746	0.100220
O29	O	1.108805	-0.445507	-0.519121
O30	O	1.608805	0.054493	-0.019121
O31	O	1.108675	-0.747659	-0.309391
O32	O	1.608675	-0.247659	0.190609
O33	O	1.018300	-0.747616	-0.399777
O34	O	1.518300	-0.247616	0.100223
C35	C	0.872345	-0.510654	-0.354585
C36	C	1.372345	-0.010654	0.145415
C37	C	0.790546	-0.510672	-0.354594
C38	C	1.290546	-0.010672	0.145406
C39	C	1.063498	-0.786102	-0.354596
C40	C	1.563498	-0.286102	0.145404
C41	C	1.063542	-0.903932	-0.354616
C42	C	1.563542	-0.403932	0.145384
C43	C	0.602364	-0.578563	-0.401597
C44	C	1.102364	-0.078563	0.098403
C45	C	0.525506	-0.578567	-0.401606
C46	C	1.025506	-0.078567	0.098394
C47	C	0.525490	-0.442801	-0.307631
C48	C	1.025490	0.057199	0.192369
C49	C	0.602348	-0.442793	-0.307626
C50	C	1.102348	0.057207	0.192374
C51	C	0.640783	-0.510680	-0.354608
C52	C	1.140783	-0.010680	0.145392
C53	C	0.487067	-0.510692	-0.354622
C54	C	0.987067	-0.010692	0.145378
C55	C	0.403733	-0.510695	-0.354632
C56	C	0.903733	-0.010695	0.145368
C57	C	0.724122	-0.510676	-0.354600
C58	C	1.224122	-0.010676	0.145400
C59	C	1.006922	-1.071513	-0.411653
C60	C	1.506922	-0.571513	0.088347
C61	C	1.006632	-0.948954	-0.411470
C62	C	1.506632	-0.448954	0.088530
C63	C	1.042549	-0.948523	-0.277058
C64	C	1.542549	-0.448523	0.222942
C65	C	1.042203	-1.071122	-0.277404
C66	C	1.542203	-0.571122	0.222596
C67	C	1.141502	-1.071022	-0.374509
C68	C	1.641502	-0.571022	0.125491
C69	C	1.141024	-0.948415	-0.376205
C70	C	1.641024	-0.448415	0.123795
C71	C	1.255504	-0.510692	-0.354628
C72	C	1.755504	-0.010692	0.145372
C73	C	1.337303	-0.510700	-0.354637
C74	C	1.837303	-0.010700	0.145363
C75	C	1.063596	-0.510600	-0.546559
C76	C	1.563596	-0.010600	-0.046559
C77	C	1.063615	-0.510568	-0.628358
C78	C	1.563615	-0.010568	-0.128358
C79	C	1.063625	-0.234167	-0.354633
C80	C	1.563625	0.265833	0.145367
C81	C	1.063657	-0.116337	-0.354644
C82	C	1.563657	0.383663	0.145356
C83	C	1.110720	-0.442707	-0.816565
C84	C	1.610720	0.057293	-0.316565
C85	C	1.110728	-0.442676	-0.893424
C86	C	1.610728	0.057324	-0.393424
C87	C	1.016563	-0.578266	-0.893389
C88	C	1.516563	-0.078266	-0.393389
C89	C	1.016551	-0.578290	-0.816532
C90	C	1.516551	-0.078290	-0.316532
C91	C	1.063634	-0.510513	-0.778122
C92	C	1.563634	-0.010513	-0.278122
C93	C	1.063654	-0.510457	-0.931838
C94	C	1.563654	-0.010457	-0.431838
C95	C	1.063663	-0.510424	-1.015172
C96	C	1.563663	-0.010424	-0.515172
C97	C	1.063624	-0.510544	-0.694783
C98	C	1.563624	-0.010544	-0.194783
C99	C	1.063549	-0.510669	-0.163400
C100	C	1.563549	-0.010669	0.336600
C101	C	1.063672	-0.510401	-0.081602
C102	C	1.563672	-0.010401	0.418398
H103	H	0.633656	-0.633839	-0.439855
H104	H	1.133656	-0.133839	0.060145
H105	H	1.183771	-1.100007	-0.332986
H106	H	1.683771	-0.600007	0.167014
C107	C	1.201140	-0.907014	-0.324200
C108	C	1.701140	-0.407014	0.175800
H109	H	1.247326	-0.935140	-0.338534
H110	H	1.747326	-0.435140	0.161466
H111	H	1.190389	-0.928348	-0.275356
H112	H	1.690389	-0.428348	0.224644
H113	H	1.202799	-0.832005	-0.326635
H114	H	1.702799	-0.332005	0.173365
H115	H	0.978203	-0.633505	-0.785230
H116	H	1.478203	-0.133505	-0.285230
H117	H	1.149069	-0.387460	-0.924721
H118	H	1.649069	0.112540	-0.424721
C119	C	0.483248	-0.653236	-0.453296
C120	C	0.983248	-0.153236	0.046704
H121	H	0.517149	-0.693666	-0.481271
H122	H	1.017149	-0.193666	0.018729
H123	H	0.453290	-0.612742	-0.485411
H124	H	0.953290	-0.112742	0.014589
H125	H	0.453245	-0.699382	-0.425092
H126	H	0.953245	-0.199382	0.074908
C127	C	0.483210	-0.368143	-0.255948
C128	C	0.983210	0.131857	0.244052
H129	H	0.431933	-0.377878	-0.262673
H130	H	0.931933	0.122122	0.237327
H131	H	0.495819	-0.296932	-0.266794
H132	H	0.995819	0.203068	0.233206
H133	H	0.495785	-0.383580	-0.206481
H134	H	0.995785	0.116420	0.293519
H135	H	0.949572	-1.102414	-0.398661
H136	H	1.449572	-0.602414	0.101339
H137	H	0.978232	-0.633450	-0.924672
H138	H	1.478232	-0.133450	-0.424672
C139	C	0.644611	-0.368120	-0.255935
C140	C	1.144611	0.131880	0.244065
H141	H	0.610714	-0.327700	-0.227948
H142	H	1.110714	0.172300	0.272052
H143	H	0.674613	-0.321980	-0.284139
H144	H	1.174613	0.178020	0.215861
H145	H	0.674572	-0.408619	-0.223820
H146	H	1.174572	0.091381	0.276180
H147	H	1.019935	-1.100928	-0.469351
H148	H	1.519935	-0.600928	0.030649
C149	C	1.024370	-0.908210	-0.489157
C150	C	1.524370	-0.408210	0.010843
H151	H	1.024218	-0.833081	-0.489148
H152	H	1.524218	-0.333081	0.010852
H153	H	0.988418	-0.933395	-0.522631
H154	H	1.488418	-0.433395	-0.022631
H155	H	1.071426	-0.933011	-0.503617
H156	H	1.571426	-0.433011	-0.003617
C157	C	0.928674	-0.909452	-0.393681
C158	C	1.428674	-0.409452	0.106319
H159	H	0.897060	-0.968333	-0.386532
H160	H	1.397060	-0.468333	0.113468
H161	H	0.910990	-0.867728	-0.433279
H162	H	1.410990	-0.367728	0.066721
H163	H	0.929877	-0.867938	-0.350242
H164	H	1.429877	-0.367938	0.149758
C165	C	0.965330	-1.109887	-0.254678
C166	C	1.465330	-0.609887	0.245322
H167	H	0.934605	-1.050708	-0.245326
H168	H	1.434605	-0.550708	0.254674
H169	H	0.969102	-1.151760	-0.211537
H170	H	1.469102	-0.651760	0.288463
H171	H	0.944850	-1.151092	-0.293165
H172	H	1.444850	-0.651092	0.206835
C173	C	1.095590	-1.111189	-0.218057
C174	C	1.595590	-0.611189	0.281943
H175	H	1.117389	-1.052536	-0.193839
H176	H	1.617389	-0.552536	0.306161
H177	H	1.132815	-1.152861	-0.240337
H178	H	1.632815	-0.652861	0.259663
H179	H	1.069490	-1.152873	-0.183368
H180	H	1.569490	-0.652873	0.316632
H181	H	1.082562	-0.919362	-0.233421
H182	H	1.582562	-0.419362	0.266579
C183	C	0.966473	-0.907190	-0.253915
C184	C	1.466473	-0.407190	0.246085
H185	H	0.947402	-0.862771	-0.291408
H186	H	1.447402	-0.362771	0.208592
H187	H	0.970867	-0.868062	-0.209627
H188	H	1.470867	-0.368062	0.290373
H189	H	0.934207	-0.965247	-0.246449
H190	H	1.434207	-0.465247	0.253551
C191	C	1.162498	-0.368142	-0.774316
C192	C	1.662498	0.131858	-0.274316
H193	H	1.190536	-0.327747	-0.808223
H194	H	1.690536	0.172253	-0.308223
H195	H	1.194552	-0.408696	-0.744333
H196	H	1.694552	0.091304	-0.244333
H197	H	1.134344	-0.321959	-0.744338
H198	H	1.634344	0.178041	-0.244338
H199	H	1.160652	-1.101868	-0.430103
H200	H	1.660652	-0.601868	0.069897
C201	C	1.162421	-0.909026	-0.453306
C202	C	1.662421	-0.409026	0.046694
H203	H	1.124301	-0.865648	-0.472266
H204	H	1.624301	-0.365648	0.027734
H205	H	1.169609	-0.967906	-0.484868
H206	H	1.669609	-0.467906	0.015132
H207	H	1.206550	-0.869198	-0.450347
H208	H	1.706550	-0.369198	0.049653
