data_functionalizedCrystal
_audit_creation_method	'MofGen! by Chris Wilmer'
_symmetry_space_group_name_H-M	'P1'
_symmetry_Int_Tables_number	1
_symmetry_cell_setting	triclinic
loop_
_symmetry_equiv_pos_as_xyz
  x,y,z
_cell_length_a	29.839131
_cell_length_b	12.827893
_cell_length_c	29.839125
_cell_angle_alpha	90.010269
_cell_angle_beta	89.982291
_cell_angle_gamma	89.958609
loop_
_atom_site_label
_atom_site_type_symbol
_atom_site_fract_x
_atom_site_fract_y
_atom_site_fract_z
Zn1	Zn	-0.178917	-1.597388	-0.253985
Zn2	Zn	0.321083	-1.097388	0.246015
Zn3	Zn	-0.254029	-1.597230	-0.178855
Zn4	Zn	0.245971	-1.097230	0.321145
Zn5	Zn	-0.178913	-1.422657	-0.178870
Zn6	Zn	0.321087	-0.922657	0.321130
Zn7	Zn	-0.254020	-1.422535	-0.253958
Zn8	Zn	0.245980	-0.922535	0.246042
O9	O	-0.216470	-1.509952	-0.216417
O10	O	0.283530	-1.009952	0.283583
O11	O	-0.188885	-1.743603	-0.244023
O12	O	0.311115	-1.243603	0.255977
O13	O	-0.244067	-1.574057	-0.115989
O14	O	0.255933	-1.074057	0.384011
O15	O	-0.116047	-1.445952	-0.188851
O16	O	0.383953	-0.945952	0.311149
O17	O	-0.244070	-1.743487	-0.188826
O18	O	0.255930	-1.243487	0.311174
O19	O	-0.116049	-1.574326	-0.244038
O20	O	0.383951	-1.074326	0.255962
O21	O	-0.188880	-1.445799	-0.116000
O22	O	0.311120	-0.945799	0.384000
O23	O	-0.188872	-1.276404	-0.188826
O24	O	0.311128	-0.776404	0.311174
O25	O	-0.244056	-1.445745	-0.316829
O26	O	0.255944	-0.945745	0.183171
O27	O	-0.244052	-1.276315	-0.243993
O28	O	0.255948	-0.776315	0.256007
O29	O	-0.188877	-1.574208	-0.316848
O30	O	0.311123	-1.074208	0.183152
O31	O	-0.316895	-1.573939	-0.188800
O32	O	0.183105	-1.073939	0.311200
O33	O	-0.316889	-1.445592	-0.243978
O34	O	0.183111	-0.945592	0.256022
C35	C	-0.333192	-1.509764	-0.216395
C36	C	0.166808	-1.009764	0.283605
C37	C	-0.383127	-1.509778	-0.216400
C38	C	0.116873	-1.009778	0.283600
C39	C	-0.216461	-1.238442	-0.216408
C40	C	0.283539	-0.738442	0.283592
C41	C	-0.216468	-1.122289	-0.216415
C42	C	0.283532	-0.622289	0.283585
C43	C	-0.216466	-1.509981	-0.333595
C44	C	0.283534	-1.009981	0.166405
C45	C	-0.216464	-1.509993	-0.383530
C46	C	0.283536	-1.009993	0.116470
C47	C	-0.692761	-1.576904	-0.187727
C48	C	-0.192761	-1.076904	0.312273
C49	C	-0.880434	-1.577033	-0.187745
C50	C	-0.380434	-1.077033	0.312255
O51	O	-0.904691	-1.633956	-0.163349
O52	O	-0.404691	-1.133956	0.336651
N53	N	-0.903912	-1.510169	-0.216451
N54	N	-0.403912	-1.010169	0.283549
C55	C	-0.880469	-1.443272	-0.245156
C56	C	-0.380469	-0.943272	0.254844
O57	O	-0.904745	-1.386411	-0.269576
O58	O	-0.404745	-0.886411	0.230424
C59	C	-0.692797	-1.443149	-0.245141
C60	C	-0.192797	-0.943149	0.254859
C61	C	-0.669321	-1.510011	-0.216430
C62	C	-0.169321	-1.010011	0.283570
C63	C	-0.669285	-1.643761	-0.159019
C64	C	-0.169285	-1.143761	0.340981
C65	C	-0.622370	-1.643724	-0.159013
C66	C	-0.122370	-1.143724	0.340987
C67	C	-0.598930	-1.576830	-0.187716
C68	C	-0.098930	-1.076830	0.312284
C69	C	-0.622406	-1.509974	-0.216424
C70	C	-0.122406	-1.009974	0.283576
C71	C	-0.669354	-1.376259	-0.273848
C72	C	-0.169354	-0.876259	0.226152
C73	C	-0.622433	-1.376236	-0.273843
C74	C	-0.122433	-0.876236	0.226157
C75	C	-0.598958	-1.443097	-0.245132
C76	C	-0.098958	-0.943097	0.254868
C77	C	-0.552050	-1.443043	-0.245121
C78	C	-0.052050	-0.943043	0.254879
N79	N	-0.528572	-1.509908	-0.216415
N80	N	-0.028572	-1.009908	0.283585
C81	C	-0.552012	-1.576801	-0.187712
C82	C	-0.052012	-1.076801	0.312288
C83	C	-0.978999	-1.443340	-0.245162
C84	C	-0.478999	-0.943340	0.254838
C85	C	-1.025917	-1.443369	-0.245165
C86	C	-0.525917	-0.943369	0.254835
C87	C	-1.025879	-1.577132	-0.187754
C88	C	-0.525879	-1.077132	0.312246
C89	C	-0.978960	-1.577097	-0.187749
C90	C	-0.478960	-1.077097	0.312251
C91	C	-0.955521	-1.510205	-0.216456
C92	C	-0.455521	-1.010205	0.283544
C93	C	-0.453486	-1.576718	-0.187702
C94	C	0.046514	-1.076718	0.312298
C95	C	-0.406567	-1.576672	-0.187698
C96	C	0.093433	-1.076672	0.312302
C97	C	-0.406609	-1.442914	-0.245110
C98	C	0.093391	-0.942914	0.254890
C99	C	-0.453524	-1.442955	-0.245113
C100	C	0.046476	-0.942955	0.254887
C101	C	-0.476962	-1.509866	-0.216408
C102	C	0.023038	-1.009866	0.283592
O103	O	-0.527765	-1.386158	-0.269507
O104	O	-0.027765	-0.886158	0.230493
O105	O	-0.527728	-1.633671	-0.163303
O106	O	-0.027728	-1.133671	0.336697
C107	C	-0.739676	-1.576941	-0.187733
C108	C	-0.239676	-1.076941	0.312267
C109	C	-0.763152	-1.510085	-0.216441
C110	C	-0.263152	-1.010085	0.283559
C111	C	-0.739712	-1.443191	-0.245144
C112	C	-0.239712	-0.943191	0.254856
C113	C	-0.810070	-1.510114	-0.216445
C114	C	-0.310070	-1.010114	0.283555
C115	C	-0.833509	-1.577007	-0.187742
C116	C	-0.333509	-1.077007	0.312258
C117	C	-0.810031	-1.643872	-0.159037
C118	C	-0.310031	-1.143872	0.340963
C119	C	-0.763116	-1.643835	-0.159031
C120	C	-0.263116	-1.143835	0.340969
C121	C	-0.763190	-1.376327	-0.273850
C122	C	-0.263190	-0.876327	0.226150
C123	C	-0.810106	-1.376368	-0.273853
C124	C	-0.310106	-0.876368	0.226147
C125	C	-0.833545	-1.443262	-0.245150
C126	C	-0.333545	-0.943262	0.254850
C127	C	-0.099291	-1.510170	-0.216449
C128	C	0.400709	-1.010170	0.283551
C129	C	-0.049357	-1.510263	-0.216463
C130	C	0.450643	-1.010263	0.283537
C131	C	-0.216479	-1.782522	-0.216426
C132	C	0.283521	-1.282522	0.283574
C133	C	-0.216483	-1.898675	-0.216429
C134	C	0.283517	-1.398675	0.283571
C135	C	-0.243816	-1.070488	-0.243672
C136	C	0.256184	-0.570488	0.256328
C137	C	-0.243824	-0.950438	-0.243680
C138	C	0.256176	-0.450438	0.256320
C139	C	-0.187657	-1.576954	-0.693186
C140	C	0.312343	-1.076954	-0.193186
C141	C	-0.187619	-1.577006	-0.880859
C142	C	0.312381	-1.077006	-0.380859
O143	O	-0.163169	-1.633861	-0.905135
O144	O	0.336831	-1.133861	-0.405135
N145	N	-0.216344	-1.510131	-0.904315
N146	N	0.283656	-1.010131	-0.404315
C147	C	-0.245078	-1.443234	-0.880849
C148	C	0.254922	-0.943234	-0.380849
O149	O	-0.269506	-1.386347	-0.905106
O150	O	0.230494	-0.886347	-0.405106
C151	C	-0.245114	-1.443178	-0.693177
C152	C	0.254886	-0.943178	-0.193177
C153	C	-0.216390	-1.510064	-0.669724
C154	C	0.283610	-1.010064	-0.169724
C155	C	-0.158936	-1.643834	-0.669733
C156	C	0.341064	-1.143834	-0.169733
C157	C	-0.158948	-1.643824	-0.622818
C158	C	0.341052	-1.143824	-0.122818
C159	C	-0.187681	-1.576935	-0.599355
C160	C	0.312319	-1.076935	-0.099355
C161	C	-0.216402	-1.510055	-0.622808
C162	C	0.283598	-1.010055	-0.122808
C163	C	-0.273845	-1.376276	-0.669712
C164	C	0.226155	-0.876276	-0.169712
C165	C	-0.273851	-1.376266	-0.622791
C166	C	0.226149	-0.876266	-0.122791
C167	C	-0.245127	-1.443152	-0.599338
C168	C	0.254873	-0.943152	-0.099338
C169	C	-0.245146	-1.443155	-0.552431
C170	C	0.254854	-0.943155	-0.052431
N171	N	-0.216422	-1.510030	-0.528975
N172	N	0.283578	-1.010030	-0.028975
C173	C	-0.187689	-1.576919	-0.552437
C174	C	0.312311	-1.076919	-0.052437
C175	C	-0.245058	-1.443270	-0.979380
C176	C	0.254942	-0.943270	-0.479380
C177	C	-0.245049	-1.443285	-1.026298
C178	C	0.254951	-0.943285	-0.526298
C179	C	-0.187590	-1.577056	-1.026305
C180	C	0.312410	-1.077056	-0.526305
C181	C	-0.187601	-1.577045	-0.979386
C182	C	0.312399	-1.077045	-0.479386
C183	C	-0.216333	-1.510144	-0.955924
C184	C	0.283667	-1.010144	-0.455924
C185	C	-0.187716	-1.576895	-0.453912
C186	C	0.312284	-1.076895	0.046088
C187	C	-0.187731	-1.576882	-0.406992
C188	C	0.312269	-1.076882	0.093008
C189	C	-0.245189	-1.443108	-0.406989
C190	C	0.254811	-0.943108	0.093011
C191	C	-0.245175	-1.443124	-0.453905
C192	C	0.254825	-0.943124	0.046095
C193	C	-0.216435	-1.510021	-0.477365
C194	C	0.283565	-1.010021	0.022635
O195	O	-0.269580	-1.386321	-0.528126
O196	O	0.230420	-0.886321	-0.028126
O197	O	-0.163258	-1.633782	-0.528173
O198	O	0.336742	-1.133782	-0.028173
C199	C	-0.187646	-1.576963	-0.740102
C200	C	0.312354	-1.076963	-0.240102
C201	C	-0.216367	-1.510083	-0.763555
C202	C	0.283633	-1.010083	-0.263555
C203	C	-0.245100	-1.443194	-0.740093
C204	C	0.254900	-0.943194	-0.240093
C205	C	-0.216359	-1.510099	-0.810473
C206	C	0.283641	-1.010099	-0.310473
C207	C	-0.187626	-1.576988	-0.833935
C208	C	0.312374	-1.076988	-0.333935
C209	C	-0.158901	-1.643863	-0.810479
C210	C	0.341099	-1.143863	-0.310479
C211	C	-0.158913	-1.643853	-0.763564
C212	C	0.341087	-1.143853	-0.263564
C213	C	-0.273825	-1.376319	-0.763548
C214	C	0.226175	-0.876319	-0.263548
C215	C	-0.273811	-1.376335	-0.810464
C216	C	0.226189	-0.876335	-0.310464
C217	C	-0.245078	-1.443225	-0.833926
C218	C	0.254922	-0.943225	-0.333926
C219	C	-0.216441	-1.509984	-0.099694
C220	C	0.283559	-1.009984	0.400306
C221	C	-0.216317	-1.510175	-0.049760
C222	C	0.283683	-1.010175	0.450240
H223	H	-0.387454	-1.631118	-0.164316
H224	H	0.112546	-1.131118	0.335684
H225	H	-0.193059	-1.077762	-0.193088
H226	H	0.306941	-0.577762	0.306912
C227	C	-0.479348	-1.369401	-0.276695
C228	C	0.020652	-0.869401	0.223305
N229	N	-0.498796	-1.314007	-0.300486
N230	N	0.001204	-0.814007	0.199514
C231	C	-0.156130	-1.650460	-0.381196
C232	C	0.343870	-1.150460	0.118804
N233	N	-0.132327	-1.705875	-0.361769
N234	N	0.367673	-1.205875	0.138231
H235	H	-0.135508	-1.698330	-0.829591
H236	H	0.364492	-1.198330	-0.329591
C237	C	-0.380816	-1.369338	-0.276683
C238	C	0.119184	-0.869338	0.223317
N239	N	-0.361388	-1.313927	-0.300467
N240	N	0.138612	-0.813927	0.199533
H241	H	-0.164311	-1.631365	-0.473007
H242	H	0.335689	-1.131365	0.026993
H243	H	-0.164195	-1.631521	-1.045416
H244	H	0.335805	-1.131521	-0.545416
H245	H	-0.135557	-1.698288	-0.603726
H246	H	0.364443	-1.198288	-0.103726
H247	H	-0.268444	-1.388831	-1.045389
H248	H	0.231556	-0.888831	-0.545389
C249	C	-0.305411	-1.302748	-0.836257
C250	C	0.194589	-0.802748	-0.336257
N251	N	-0.329208	-1.247316	-0.855683
N252	N	0.170792	-0.747316	-0.355683
H253	H	-0.135536	-1.698304	-0.688831
H254	H	0.364464	-1.198304	-0.188831
H255	H	-0.744109	-1.321855	-0.297223
H256	H	-0.244109	-0.821855	0.202777
H257	H	-0.268458	-1.388792	-0.960282
H258	H	0.231542	-0.888792	-0.460282
H259	H	-0.959918	-1.388866	-0.268539
H260	H	-0.459918	-0.888866	0.231461
H261	H	-0.297223	-1.321849	-0.744450
H262	H	0.202777	-0.821849	-0.244450
H263	H	-0.267239	-0.905890	-0.267014
H264	H	0.232761	-0.405890	0.232986
C265	C	-0.695167	-1.302708	-0.305435
C266	C	-0.195167	-0.802708	0.194565
N267	N	-0.714608	-1.247306	-0.329228
N268	N	-0.214608	-0.747306	0.170772
H269	H	-0.297244	-1.321775	-0.603691
H270	H	0.202756	-0.821775	-0.103691
H271	H	-0.603352	-1.321765	-0.297221
H272	H	-0.103352	-0.821765	0.202779
C273	C	-0.276775	-1.369553	-0.479704
C274	C	0.223225	-0.869553	0.020296
N275	N	-0.300573	-1.314130	-0.499133
N276	N	0.199427	-0.814130	0.000867
H277	H	-0.164211	-1.631508	-0.960293
H278	H	0.335789	-1.131508	-0.460293
C279	C	-0.275441	-1.130638	-0.275189
C280	C	0.224559	-0.630638	0.224811
N281	N	-0.299262	-1.175941	-0.298928
N282	N	0.200738	-0.675941	0.201072
H283	H	-0.472563	-1.631205	-0.164328
H284	H	0.027437	-1.131205	0.335672
H285	H	-0.297235	-1.321810	-0.688800
H286	H	0.202765	-0.821810	-0.188800
H287	H	-0.193070	-0.943217	-0.193091
H288	H	0.306930	-0.443217	0.306909
C289	C	-0.953142	-1.650652	-0.156166
C290	C	-0.453142	-1.150652	0.343834
N291	N	-0.933697	-1.706058	-0.132378
N292	N	-0.433697	-1.206058	0.367622
C293	C	-0.276791	-1.369528	-0.381172
C294	C	0.223209	-0.869528	0.118828
N295	N	-0.300591	-1.314099	-0.361725
N296	N	0.199409	-0.814099	0.138275
H297	H	-0.829216	-1.321912	-0.297232
H298	H	-0.329216	-0.821912	0.202768
C299	C	-0.596553	-1.717269	-0.127425
C300	C	-0.096553	-1.217269	0.372575
N301	N	-0.577110	-1.772664	-0.103630
N302	N	-0.077110	-1.272664	0.396370
C303	C	-0.695061	-1.717350	-0.127439
C304	C	-0.195061	-1.217350	0.372561
N305	N	-0.714473	-1.772775	-0.103647
N306	N	-0.214473	-1.272775	0.396353
H307	H	-1.044972	-1.631600	-0.164384
H308	H	-0.544972	-1.131600	0.335616
C309	C	-0.835824	-1.717454	-0.127463
C310	C	-0.335824	-1.217454	0.372537
N311	N	-0.855254	-1.772876	-0.103685
N312	N	-0.355254	-1.272876	0.396315
C313	C	-1.051735	-1.369807	-0.276745
C314	C	-0.551735	-0.869807	0.223255
N315	N	-1.071180	-1.314401	-0.300534
N316	N	-0.571180	-0.814401	0.199466
C317	C	-0.127311	-1.717426	-0.737772
C318	C	0.372689	-1.217426	-0.237772
N319	N	-0.103506	-1.772841	-0.718348
N320	N	0.396494	-1.272841	-0.218348
H321	H	-0.744005	-1.698280	-0.135652
H322	H	-0.244005	-1.198280	0.364348
