data_functionalizedCrystal
_audit_creation_method	'MofGen! by Chris Wilmer'
_symmetry_space_group_name_H-M	'P1'
_symmetry_Int_Tables_number	1
_symmetry_cell_setting	triclinic
loop_
_symmetry_equiv_pos_as_xyz
  x,y,z
_cell_length_a	6.817900
_cell_length_b	17.253917
_cell_length_c	11.168136
_cell_angle_alpha	97.542561
_cell_angle_beta	108.508683
_cell_angle_gamma	102.659311
loop_
_atom_site_label
_atom_site_type_symbol
_atom_site_fract_x
_atom_site_fract_y
_atom_site_fract_z
V1	V	-4.086985	-0.111307	-0.405685
O2	O	-4.070564	0.005336	-0.385630
O3	O	-4.040772	-0.220690	-0.414771
O4	O	-4.063627	-0.109600	-0.577207
O5	O	-4.047551	-0.106523	-0.222070
V6	V	-4.567085	-0.097354	-0.382282
O7	O	-4.355753	-0.141912	-0.457021
O8	O	-4.748515	-0.066748	-0.330947
O9	O	-4.390092	0.012030	-0.373196
O10	O	-4.700903	-0.213997	-0.402337
O11	O	-4.723916	-0.102138	-0.565898
O12	O	-4.367237	-0.099061	-0.210760
C13	C	-3.885494	-0.247355	-0.411432
C14	C	-3.929163	-0.336778	-0.420004
C15	C	-3.892259	-0.367298	-0.307161
C16	C	-3.933311	-0.451320	-0.315220
C17	C	-4.011252	-0.504822	-0.436123
C18	C	-4.048164	-0.474297	-0.548976
C19	C	-4.007127	-0.390276	-0.540916
C20	C	-4.140156	-0.757342	-0.472761
C21	C	-4.181186	-0.841368	-0.480812
C22	C	-4.066333	-0.818385	-0.247055
C23	C	-4.025288	-0.734364	-0.239006
C24	C	-4.062214	-0.703846	-0.351858
N25	N	-4.053209	-0.590707	-0.444364
N26	N	-4.020272	-0.617963	-0.343617
C27	C	-3.914647	-0.105648	-0.618633
C28	C	-3.976847	-0.104976	-0.758931
C29	C	-4.178632	-0.108492	-0.828002
C30	C	-4.242923	-0.107798	-0.973007
C31	C	-4.208711	0.038691	-0.376533
C32	C	-4.144282	0.128112	-0.367968
C33	C	-4.179558	-0.103016	-0.169328
C34	C	-4.096596	-0.103683	-0.029028
H35	H	-3.903262	-0.476165	-0.223330
H36	H	-4.303787	-0.112010	-0.779782
O37	O	-4.449267	-0.111537	-1.043830
C38	C	-4.588915	-0.184116	-1.040526
H39	H	-4.495348	-0.230859	-1.017426
H40	H	-4.659812	-0.171165	-0.962810
C41	C	-4.887004	-0.160343	-1.201472
C42	C	-4.772086	-0.217755	-1.173112
H43	H	-4.999999	-0.181092	-1.283255
H44	H	-4.792923	-0.111443	-1.203696
H45	H	-4.946065	-0.149555	-1.136699
H46	H	-4.713005	-0.228534	-1.237875
H47	H	-4.866162	-0.266658	-1.170902
O48	O	-3.890241	-0.099988	-0.958299
C49	C	-3.750561	-0.027392	-0.961525
H50	H	-3.830722	-0.004729	-1.050996
H51	H	-3.713538	0.020700	-0.871032
C52	C	-3.441255	-0.071506	-0.856540
C53	C	-3.539703	-0.043675	-0.966435
H54	H	-3.311183	-0.081548	-0.859563
H55	H	-3.535358	-0.120414	-0.854361
H56	H	-3.410422	-0.031425	-0.781141
H57	H	-3.570558	-0.083760	-1.041831
H58	H	-3.445599	0.005226	-0.968627
H59	H	-3.828777	-0.323741	-0.208707
H60	H	-3.851685	-0.101447	-0.807147
H61	H	-4.036278	-0.843242	-0.155177
H62	H	-3.961836	-0.690807	-0.140554
H63	H	-4.170200	-0.732505	-0.564653
O64	O	-4.123791	-0.526377	-0.666316
C65	C	-4.152144	-0.607083	-0.649237
H66	H	-4.044796	-0.607262	-0.547551
H67	H	-4.327688	-0.635077	-0.662999
C68	C	-4.222838	-0.656962	-0.874245
C69	C	-4.090978	-0.657183	-0.749356
H70	H	-4.185119	-0.687868	-0.936006
H71	H	-4.203745	-0.602589	-0.885753
H72	H	-4.369115	-0.680289	-0.885694
H73	H	-3.944709	-0.633847	-0.737903
H74	H	-4.110046	-0.711553	-0.737848
H75	H	-4.244648	-0.884928	-0.579271
H76	H	-4.037201	-0.365430	-0.632806
