data_functionalizedCrystal
_audit_creation_method	'MofGen! by Chris Wilmer'
_symmetry_space_group_name_H-M	'P1'
_symmetry_Int_Tables_number	1
_symmetry_cell_setting	triclinic
loop_
_symmetry_equiv_pos_as_xyz
  x,y,z
_cell_length_a	16.109318
_cell_length_b	16.109301
_cell_length_c	15.186229
_cell_angle_alpha	89.994833
_cell_angle_beta	90.000224
_cell_angle_gamma	83.465022
loop_
_atom_site_label
_atom_site_type_symbol
_atom_site_fract_x
_atom_site_fract_y
_atom_site_fract_z
O1	O	1.103122	0.106935	-0.073158
O2	O	0.861062	0.120219	-0.073176
O3	O	0.988741	-0.007454	-0.073158
O4	O	0.975442	0.234607	-0.073177
O5	O	0.988733	-0.007456	0.073300
O6	O	0.861053	0.120217	0.073281
O7	O	1.103113	0.106933	0.073299
Zn8	Zn	0.982082	0.113575	0.096543
Zn9	Zn	0.982093	0.113577	-0.096420
O10	O	0.975433	0.234606	0.073281
C11	C	0.830083	0.119677	0.000050
C12	C	0.737788	0.118057	0.000043
C13	C	0.438719	0.112823	-0.079774
C14	C	0.525440	0.114340	-0.079780
C15	C	0.525450	0.114327	0.079896
C16	C	0.438731	0.112803	0.079900
C17	C	0.395367	0.112056	0.000063
C18	C	0.568807	0.115096	0.000052
C19	C	0.662835	0.116742	0.000047
C20	C	0.301334	0.110409	0.000068
C21	C	0.988198	-0.038430	0.000071
C22	C	0.986583	-0.130725	0.000072
C23	C	1.058590	-0.352993	0.000064
C24	C	1.057066	-0.439713	0.000057
C25	C	0.905579	-0.419848	0.000049
C26	C	0.907104	-0.333130	0.000050
C27	C	0.983612	-0.299704	0.000062
C28	C	0.980563	-0.473144	0.000053
C29	C	0.978910	-0.567170	0.000045
C30	C	0.985265	-0.205672	0.000068
C31	C	1.134092	0.107474	0.000071
C32	C	1.226387	0.109095	0.000072
C33	C	0.975976	0.265581	0.000050
C34	C	0.977592	0.357877	0.000043
N35	N	0.982080	0.113573	0.228236
N36	N	0.982101	0.113573	-0.228113
C37	C	1.038636	0.057058	0.453967
C38	C	1.038639	0.057056	0.546157
C39	C	0.925539	0.170090	0.546149
C40	C	0.925533	0.170087	0.453961
C41	C	0.982086	0.113572	0.407873
C42	C	0.982095	0.113573	0.592250
C43	C	0.982097	0.113571	0.692206
C44	C	0.982083	0.113573	0.307910
H45	H	1.120888	-0.325781	0.000072
H46	H	0.403433	0.112178	0.144917
H47	H	1.118121	-0.483098	0.000056
O48	O	0.834188	-0.281478	0.000087
C49	C	0.766333	-0.329573	0.000062
H50	H	0.787445	-0.394304	0.027792
H51	H	0.742885	-0.335736	-0.070203
C52	C	0.669437	-0.206841	0.023433
C53	C	0.695366	-0.286342	0.057498
H54	H	0.625659	-0.180173	0.058859
H55	H	0.715151	-0.174437	0.023447
H56	H	0.649902	-0.211987	-0.035120
H57	H	0.714909	-0.281194	0.116046
H58	H	0.649653	-0.318744	0.057496
O59	O	1.093595	0.002077	0.409332
C60	C	1.143520	-0.047791	0.469790
H61	H	1.109438	-0.048737	0.535507
H62	H	1.205273	-0.020776	0.479587
C63	C	1.202536	-0.136315	0.353109
C64	C	1.160673	-0.137484	0.433822
H65	H	1.213121	-0.191642	0.330922
H66	H	1.168904	-0.102717	0.312377
H67	H	1.253992	-0.113799	0.361284
H68	H	1.109214	-0.159990	0.425643
H69	H	1.194298	-0.171088	0.474552
O70	O	1.093458	0.002078	0.590972
C71	C	1.048956	-0.049220	0.644320
H72	H	0.983392	-0.050648	0.616543
H73	H	1.044594	-0.023202	0.714186
C74	C	1.175330	-0.136716	0.679858
C75	C	1.094805	-0.138476	0.645737
H76	H	1.203613	-0.191773	0.680736
H77	H	1.205313	-0.102154	0.643919
H78	H	1.171684	-0.115031	0.738077
H79	H	1.098452	-0.160151	0.587516
H80	H	1.064824	-0.173043	0.681666
O81	O	0.870692	0.224959	0.591058
C82	C	0.882810	0.212833	0.682311
H83	H	0.948916	0.181780	0.694901
H84	H	0.835767	0.171119	0.708483
C85	C	0.789104	0.336021	0.714165
C86	C	0.870299	0.297888	0.729629
H87	H	0.781383	0.388486	0.743354
H88	H	0.780937	0.344190	0.652687
H89	H	0.749911	0.301251	0.735975
H90	H	0.909490	0.332653	0.707808
H91	H	0.878472	0.289727	0.791105
O92	O	0.567608	0.114942	-0.157311
C93	C	0.627217	0.043871	-0.162087
H94	H	0.607680	-0.006890	-0.116783
H95	H	0.690809	0.061291	-0.140642
C96	C	0.656813	0.073624	-0.313114
C97	C	0.632814	0.011275	-0.257477
H98	H	0.660270	0.053519	-0.371955
H99	H	0.616656	0.121508	-0.309896
H100	H	0.709804	0.088135	-0.295233
H101	H	0.579820	-0.003227	-0.275352
H102	H	0.672963	-0.036612	-0.260700
H103	H	0.843288	-0.447074	0.000040
H104	H	0.879480	0.216108	0.416429
H105	H	0.560767	0.114937	0.144897
O106	O	0.396729	0.112057	-0.157404
C107	C	0.453590	0.113080	-0.227871
H108	H	0.518856	0.087857	-0.204467
H109	H	0.454074	0.179904	-0.252419
C110	C	0.346725	0.088983	-0.332042
C111	C	0.426884	0.057996	-0.303299
H112	H	0.330251	0.055008	-0.378572
H113	H	0.308415	0.088297	-0.284568
H114	H	0.347139	0.144669	-0.352493
H115	H	0.426467	0.002316	-0.282839
H116	H	0.465194	0.058672	-0.350772
