data_functionalizedCrystal
_audit_creation_method	'MofGen! by Chris Wilmer'
_symmetry_space_group_name_H-M	'P1'
_symmetry_Int_Tables_number	1
_symmetry_cell_setting	triclinic
loop_
_symmetry_equiv_pos_as_xyz
  x,y,z
_cell_length_a	14.749900
_cell_length_b	15.711995
_cell_length_c	10.654550
_cell_angle_alpha	102.032148
_cell_angle_beta	77.236011
_cell_angle_gamma	106.531135
loop_
_atom_site_label
_atom_site_type_symbol
_atom_site_fract_x
_atom_site_fract_y
_atom_site_fract_z
O1	O	-0.080137	-1.169775	-0.671777
O2	O	-0.080073	-0.917529	-0.575934
O3	O	-0.080103	-1.049451	-0.443707
O4	O	-0.080107	-1.037853	-0.804004
O5	O	0.079579	-1.012111	-0.481073
O6	O	0.079609	-0.880189	-0.613300
O7	O	0.079545	-1.132435	-0.709143
Zn8	Zn	0.104930	-1.000383	-0.667154
Zn9	Zn	-0.105458	-1.049580	-0.617923
O10	O	0.079575	-1.000513	-0.841370
C11	C	-0.000224	-0.866560	-0.578959
C12	C	-0.000200	-0.770319	-0.532287
N13	N	0.248514	-0.966814	-0.700756
C14	C	-0.000247	-0.405609	-0.928605
C15	C	-0.000264	-0.315188	-0.884711
C16	C	-0.000265	-0.334486	-0.664782
C17	C	-0.000252	-0.424911	-0.708656
C18	C	-0.000242	-0.460465	-0.840569
C19	C	-0.000247	-0.479768	-0.620620
C20	C	-0.000230	-0.570184	-0.664492
C21	C	-0.000217	-0.605744	-0.796400
C22	C	-0.000225	-0.550882	-0.884441
C23	C	-0.000250	-0.444210	-0.488709
C24	C	-0.000246	-0.499067	-0.400672
C25	C	-0.000235	-0.589486	-0.444543
C26	C	-0.000222	-0.625047	-0.576451
C27	C	-0.000227	-0.644349	-0.356502
C28	C	-0.000210	-0.734765	-0.400374
C29	C	-0.000204	-0.715463	-0.620323
C30	C	0.399316	-0.873157	-0.794560
C31	C	0.298797	-0.896652	-0.771025
C32	C	0.298737	-1.013512	-0.654000
C33	C	0.399258	-0.990031	-0.677531
C34	C	0.449540	-0.919852	-0.747811
C35	C	0.449481	-1.036725	-0.630782
C36	C	0.549993	-1.013242	-0.654305
C37	C	0.600282	-0.943064	-0.724578
C38	C	0.550052	-0.896369	-0.771334
C39	C	0.399197	-1.106899	-0.560494
C40	C	0.449421	-1.153594	-0.513745
C41	C	0.549934	-1.130115	-0.537276
C42	C	0.600223	-1.059937	-0.607549
C43	C	0.600165	-1.176810	-0.490520
C44	C	0.700677	-1.153327	-0.514044
C45	C	0.700735	-1.036454	-0.631073
N46	N	0.750959	-1.083149	-0.584323
C47	C	-0.000263	-1.029929	-0.415212
C48	C	-0.000265	-1.027382	-0.274630
C49	C	-0.000289	-0.183400	-0.706127
C50	C	-0.000271	-0.279629	-0.752826
C51	C	-0.000267	-1.020035	-0.869865
C52	C	-0.000271	-1.022584	-1.010445
C53	C	-0.000282	-1.105055	-0.229832
C54	C	-0.000288	-1.102657	-0.097739
C55	C	-0.000257	-0.944905	-0.055249
C56	C	-0.000258	-0.947306	-0.187340
C57	C	-0.000296	-1.196131	-0.254363
C58	C	-0.000302	-1.193733	-0.122269
H59	H	-0.000199	-0.679367	-0.832120
H60	H	-0.000208	-0.779432	-0.328685
H61	H	0.741569	-1.191350	-0.475973
O62	O	-0.000296	-0.871949	-0.231060
C63	C	-0.000278	-0.891229	-0.366368
H64	H	-0.030512	-0.966415	-0.395597
H65	H	-0.046638	-0.852619	-0.392152
H66	H	0.076328	-0.870245	-0.420770
O67	O	-0.000327	-0.749940	-0.748465
C68	C	-0.083046	-0.741375	-0.785307
H69	H	-0.110632	-0.684924	-0.715748
H70	H	-0.064449	-0.725108	-0.888766
H71	H	-0.140944	-0.807164	-0.781199
O72	O	0.551199	-1.244893	-0.422142
C73	C	0.493093	-1.211602	-0.309473
H74	H	0.478084	-1.147575	-0.324878
H75	H	0.422388	-1.264174	-0.289685
H76	H	0.531819	-1.196136	-0.222750
H77	H	-0.000215	-0.579831	-0.991858
O78	O	0.400697	-1.221868	-0.445623
C79	C	0.425220	-1.302045	-0.511370
H80	H	0.498192	-1.285149	-0.576947
H81	H	0.428663	-1.343376	-0.437181
H82	H	0.368637	-1.342442	-0.573143
O83	O	-0.000118	-0.867039	0.029390
C84	C	0.082604	-0.800305	-0.009287
H85	H	0.110177	-0.818026	-0.117683
H86	H	0.064018	-0.732582	0.009977
H87	H	0.140509	-0.796343	0.048568
H88	H	0.068644	-1.209011	-0.319076
O89	O	-0.000428	-0.464523	-0.272510
C90	C	-0.083125	-0.432146	-0.221232
H91	H	-0.140919	-0.467454	-0.283350
H92	H	-0.110892	-0.446156	-0.116979
H93	H	-0.064437	-0.356649	-0.221900
O94	O	0.448129	-0.804875	-0.862641
C95	C	0.423597	-0.724687	-0.796969
H96	H	0.395955	-0.730122	-0.689488
H97	H	0.489724	-0.665831	-0.806901
H98	H	0.365276	-0.713266	-0.841413
O99	O	-0.080124	-1.257160	-0.289601
C100	C	-0.162669	-1.232331	-0.214145
H101	H	-0.143822	-1.157166	-0.176137
H102	H	-0.220626	-1.248543	-0.276857
H103	H	-0.190309	-1.271207	-0.128430
O104	O	-0.000402	-0.609802	-0.228342
C105	C	-0.083094	-0.577419	-0.177054
H106	H	-0.140895	-0.612726	-0.239160
H107	H	-0.110853	-0.591423	-0.072797
H108	H	-0.064403	-0.501923	-0.177729
H109	H	0.257911	-0.858620	-0.809099
H110	H	-0.000237	-0.434558	-1.036022
O111	O	0.249741	-1.081714	-0.585862
C112	C	0.150256	-1.092429	-0.575121
H113	H	0.136554	-1.063785	-0.657082
H114	H	0.112040	-1.166921	-0.582458
H115	H	0.121727	-1.055247	-0.477139
O116	O	0.301560	-1.129641	-0.537419
C117	C	0.267981	-1.119177	-0.401922
H118	H	0.325919	-1.069399	-0.349728
H119	H	0.200759	-1.092800	-0.379338
H120	H	0.250112	-1.186869	-0.367134
O121	O	-0.082612	-1.245668	-0.063116
C122	C	-0.128392	-1.191553	0.039544
H123	H	-0.103945	-1.118893	0.021145
H124	H	-0.209498	-1.216380	0.045093
H125	H	-0.108755	-1.195626	0.135405
O126	O	0.079381	-1.216146	-0.109542
C127	C	0.079214	-1.303448	-0.177211
H128	H	0.032818	-1.320481	-0.255949
H129	H	0.155772	-1.306557	-0.224212
H130	H	0.048919	-1.353902	-0.106195
H131	H	-0.000264	-0.270525	-0.956413
O132	O	0.749548	-0.968172	-0.699153
C133	C	0.725016	-0.887984	-0.633481
H134	H	0.697374	-0.893419	-0.526000
H135	H	0.791143	-0.829127	-0.643413
H136	H	0.666695	-0.876563	-0.677925
H137	H	-0.000253	-0.370584	-0.452995
O138	O	-0.000447	-0.299943	-0.536619
C139	C	-0.083145	-0.267565	-0.485341
H140	H	-0.140938	-0.302873	-0.547459
H141	H	-0.110911	-0.281576	-0.381088
H142	H	-0.064457	-0.192069	-0.486009
O143	O	0.598864	-0.828086	-0.839414
C144	C	0.574332	-0.747899	-0.773743
H145	H	0.546691	-0.753333	-0.666261
H146	H	0.640459	-0.689042	-0.783674
H147	H	0.516011	-0.736477	-0.818187
O148	O	0.697920	-0.920246	-0.747661
C149	C	0.731490	-0.930748	-0.883160
H150	H	0.673574	-0.926958	-0.935624
H151	H	0.798752	-0.874978	-0.906177
H152	H	0.749289	-0.998797	-0.917247
