data_functionalizedCrystal
_audit_creation_method	'MofGen! by Chris Wilmer'
_symmetry_space_group_name_H-M	'P1'
_symmetry_Int_Tables_number	1
_symmetry_cell_setting	triclinic
loop_
_symmetry_equiv_pos_as_xyz
  x,y,z
_cell_length_a	11.792241
_cell_length_b	7.540329
_cell_length_c	9.065218
_cell_angle_alpha	89.998243
_cell_angle_beta	84.604650
_cell_angle_gamma	90.001242
loop_
_atom_site_label
_atom_site_type_symbol
_atom_site_fract_x
_atom_site_fract_y
_atom_site_fract_z
O1	O	1.508028	-0.147302	0.202222
O2	O	1.177802	-0.147343	0.223063
O3	O	1.349741	-0.147318	-0.002064
O4	O	1.336089	-0.147327	0.427349
O5	O	1.349730	0.147647	-0.002067
O6	O	1.177792	0.147622	0.223060
O7	O	1.508018	0.147663	0.202219
Cu8	Cu	1.342904	0.174575	0.212639
Cu9	Cu	1.342916	-0.174255	0.212643
O10	O	1.336079	0.147638	0.427346
C11	C	1.135499	0.000134	0.221752
C12	C	1.009464	0.000119	0.217834
N13	N	1.342903	0.419923	0.212636
N14	N	1.342925	-0.419604	0.212634
C15	C	0.778711	0.000170	0.210629
C16	C	0.907119	0.000142	0.214632
C17	C	1.550321	0.000181	0.203529
C18	C	1.676356	0.000185	0.207448
C19	C	1.348424	0.000161	-0.057040
C20	C	1.344501	0.000152	-0.220846
C21	C	1.337396	0.000154	0.482322
C22	C	1.341319	0.000152	0.646128
