data_functionalizedCrystal
_audit_creation_method	'MofGen! by Chris Wilmer'
_symmetry_space_group_name_H-M	'P1'
_symmetry_Int_Tables_number	1
_symmetry_cell_setting	triclinic
loop_
_symmetry_equiv_pos_as_xyz
  x,y,z
_cell_length_a	12.759401
_cell_length_b	12.759399
_cell_length_c	12.759393
_cell_angle_alpha	89.967969
_cell_angle_beta	89.980163
_cell_angle_gamma	90.016641
loop_
_atom_site_label
_atom_site_type_symbol
_atom_site_fract_x
_atom_site_fract_y
_atom_site_fract_z
Zn1	Zn	1.606252	-0.418161	-0.594017
Zn2	Zn	1.606145	-0.593880	-0.418336
Zn3	Zn	1.430554	-0.418220	-0.418352
Zn4	Zn	1.430541	-0.593803	-0.593973
O5	O	1.518373	-0.506016	-0.506170
O6	O	1.753259	-0.441478	-0.570724
O7	O	1.582813	-0.570635	-0.271317
O8	O	1.453911	-0.271191	-0.441680
O9	O	1.753180	-0.570578	-0.441652
O10	O	1.582995	-0.271148	-0.570740
O11	O	1.453807	-0.441579	-0.271329
O12	O	1.283531	-0.441505	-0.441637
O13	O	1.453889	-0.570447	-0.741000
O14	O	1.283522	-0.570504	-0.570665
O15	O	1.582983	-0.441403	-0.741032
O16	O	1.582801	-0.740891	-0.441609
O17	O	1.453785	-0.740834	-0.570649
C18	C	1.245406	-0.506003	-0.506149
C19	C	1.128629	-0.506023	-0.506165
C20	C	1.073790	-0.573296	-0.573244
C21	C	0.964066	-0.573300	-0.573265
C22	C	0.964030	-0.438756	-0.439118
C23	C	1.073752	-0.438747	-0.439104
C24	C	1.518309	-0.778984	-0.506146
C25	C	1.518377	-0.895760	-0.506171
C26	C	1.585632	-0.950617	-0.439056
C27	C	1.585700	-1.060341	-0.439091
C28	C	1.451248	-1.060342	-0.573359
C29	C	1.451187	-0.950620	-0.573328
C30	C	1.709709	-1.210217	-0.401704
C31	C	1.776955	-1.265077	-0.334573
C32	C	1.793119	-1.229538	-0.232062
C33	C	1.742023	-1.139141	-0.196662
C34	C	1.674769	-1.084287	-0.263788
C35	C	1.658625	-1.119824	-0.366313
C36	C	1.327176	-0.800742	-0.610705
C37	C	1.259916	-0.745885	-0.677826
C38	C	1.243741	-0.781422	-0.780338
C39	C	1.294819	-0.871822	-0.815734
C40	C	1.362079	-0.926679	-0.748613
C41	C	1.378256	-0.891135	-0.646102
C42	C	1.792406	-0.506030	-0.506191
C43	C	1.909183	-0.506036	-0.506200
C44	C	1.518446	-0.505910	-0.780203
C45	C	1.518478	-0.505865	-0.896980
C46	C	1.518466	-0.231983	-0.506217
C47	C	1.518506	-0.115206	-0.506237
C48	C	1.451328	-0.438653	-0.951848
C49	C	1.451353	-0.438620	-1.061572
C50	C	1.585685	-0.573015	-1.061551
C51	C	1.585654	-0.573052	-0.951829
C52	C	1.518360	-0.506046	-0.233202
C53	C	1.518533	-0.505796	-0.116426
H54	H	1.118467	-0.628073	-0.627852
H55	H	1.696564	-1.239154	-0.485179
H56	H	1.118403	-0.383959	-0.384480
H57	H	1.633170	-1.010686	-0.234967
H58	H	1.396672	-0.383891	-1.106240
H59	H	0.919420	-0.628078	-0.627889
H60	H	1.640344	-0.905952	-0.384374
H61	H	1.818558	-1.338678	-0.363405
C62	C	1.759800	-1.100058	-0.083896
H63	H	1.807178	-1.145669	-0.048991
H64	H	1.694892	-1.099093	-0.047423
H65	H	1.788322	-1.031297	-0.085707
C66	C	1.377433	-0.364760	-0.891512
H67	H	1.387036	-0.374399	-0.818307
H68	H	1.306842	-0.380124	-0.909486
H69	H	1.392845	-0.294161	-0.909513
C70	C	1.377334	-1.120691	-0.647215
H71	H	1.386994	-1.193895	-0.637614
H72	H	1.392658	-1.102641	-0.717815
H73	H	1.306740	-1.102779	-0.631761
C74	C	1.659590	-0.646902	-1.121883
H75	H	1.699573	-0.686941	-1.073488
H76	H	1.705391	-0.606695	-1.164693
H77	H	1.619397	-0.692668	-1.164676
C78	C	1.867092	-1.289879	-0.158223
H79	H	1.895210	-1.348800	-0.193988
H80	H	1.829146	-1.312930	-0.098431
H81	H	1.922575	-1.245133	-0.136716
C82	C	1.418271	-1.026116	-0.787543
H83	H	1.460637	-1.053700	-0.732884
H84	H	1.461132	-1.009109	-0.846022
H85	H	1.367701	-1.076897	-0.807724
H86	H	1.281649	-0.900757	-0.899208
H87	H	1.640338	-0.627788	-0.907154
C88	C	1.344950	-0.761661	-0.497932
H89	H	1.304879	-0.699979	-0.486458
H90	H	1.417170	-0.746544	-0.488007
H91	H	1.323738	-0.814354	-0.449753
H92	H	0.919336	-0.383984	-0.384518
H93	H	1.188969	-0.736748	-0.834986
H94	H	1.218332	-0.672272	-0.649000
