data_functionalizedCrystal
_audit_creation_method	'MofGen! by Chris Wilmer'
_symmetry_space_group_name_H-M	'P1'
_symmetry_Int_Tables_number	1
_symmetry_cell_setting	triclinic
loop_
_symmetry_equiv_pos_as_xyz
  x,y,z
_cell_length_a	13.897448
_cell_length_b	12.759395
_cell_length_c	12.759387
_cell_angle_alpha	89.982262
_cell_angle_beta	89.966131
_cell_angle_gamma	90.017538
loop_
_atom_site_label
_atom_site_type_symbol
_atom_site_fract_x
_atom_site_fract_y
_atom_site_fract_z
Zn1	Zn	-0.383957	1.606229	-0.593961
Zn2	Zn	-0.545288	1.606116	-0.418275
Zn3	Zn	-0.384008	1.430533	-0.418301
Zn4	Zn	-0.545211	1.430511	-0.593918
O5	O	-0.464616	1.518347	-0.506114
O6	O	-0.405369	1.753235	-0.570663
O7	O	-0.523947	1.582786	-0.271258
O8	O	-0.249020	1.453896	-0.441631
O9	O	-0.523898	1.753152	-0.441588
O10	O	-0.248982	1.582979	-0.570688
O11	O	-0.405456	1.453786	-0.271276
O12	O	-0.405381	1.283509	-0.441590
O13	O	-0.523767	1.453858	-0.740945
O14	O	-0.523817	1.283492	-0.570615
O15	O	-0.405294	1.582958	-0.740976
O16	O	-0.680259	1.582765	-0.441546
O17	O	-0.680203	1.453748	-0.570590
C18	C	-0.464597	1.245380	-0.506101
C19	C	-0.464612	1.128603	-0.506120
C20	C	-0.341387	1.128670	-0.640744
C21	C	-0.279786	1.073843	-0.708064
C22	C	-0.279803	0.964122	-0.708077
C23	C	-0.341426	0.909225	-0.640760
C24	C	-0.403027	0.964052	-0.573440
C25	C	-0.403005	1.073776	-0.573437
C26	C	-0.526245	0.963984	-0.438813
C27	C	-0.526234	1.073706	-0.438804
C28	C	-0.587868	0.909087	-0.371497
C29	C	-0.649475	0.963914	-0.304180
C30	C	-0.649456	1.073643	-0.304171
C31	C	-0.587835	1.128533	-0.371484
C32	C	-0.715230	1.518270	-0.506083
C33	C	-0.822444	1.518334	-0.506106
C34	C	-1.018739	1.518444	-0.506171
C35	C	-0.909507	1.518380	-0.506138
C36	C	-0.213023	1.518453	-0.506167
C37	C	-0.105809	1.518498	-0.506190
C38	C	-0.464516	1.518418	-0.780147
C39	C	-0.464474	1.518449	-0.896924
C40	C	-0.464636	1.792380	-0.506127
C41	C	-0.464645	1.909157	-0.506133
C42	C	-0.341080	1.384130	-0.896963
C43	C	-0.279364	1.316989	-0.951843
C44	C	-0.279330	1.317021	-1.061564
C45	C	-0.341019	1.384198	-1.116409
C46	C	-0.402735	1.451338	-1.061529
C47	C	-0.402761	1.451301	-0.951804
C48	C	-0.526132	1.585650	-1.061490
C49	C	-0.526164	1.585626	-0.951768
C50	C	-0.587822	1.652827	-1.116334
C51	C	-0.649535	1.719974	-1.061454
C52	C	-0.649566	1.719941	-0.951726
C53	C	-0.587880	1.652766	-0.896888
C54	C	-0.464646	1.518337	-0.233146
C55	C	-0.464416	1.518510	-0.116370
H56	H	-0.229637	0.919482	-0.762888
H57	H	-0.229613	1.118552	-0.762869
H58	H	-0.587896	1.652736	-0.807547
Br59	Br	-0.587789	1.652857	-1.265243
Br60	Br	-0.195631	1.225842	-0.877408
Br61	Br	-0.341375	1.277579	-0.640748
Br62	Br	-0.733257	1.811123	-1.135889
H63	H	-0.699820	1.774618	-0.907049
H64	H	-0.341427	0.819883	-0.640768
H65	H	-0.587875	0.819746	-0.371509
H66	H	-0.699639	0.919209	-0.249372
Br67	Br	-0.733056	1.148042	-0.212796
Br68	Br	-0.195570	1.225905	-1.136049
Br69	Br	-0.587811	1.277442	-0.371483
H70	H	-0.341095	1.384106	-0.807621
H71	H	-0.340994	1.384208	-1.205750
