data_functionalizedCrystal
_audit_creation_method	'MofGen! by Chris Wilmer'
_symmetry_space_group_name_H-M	'P1'
_symmetry_Int_Tables_number	1
_symmetry_cell_setting	triclinic
loop_
_symmetry_equiv_pos_as_xyz
  x,y,z
_cell_length_a	12.594517
_cell_length_b	25.639239
_cell_length_c	12.594517
_cell_angle_alpha	90.019876
_cell_angle_beta	90.009449
_cell_angle_gamma	90.038486
loop_
_atom_site_label
_atom_site_type_symbol
_atom_site_fract_x
_atom_site_fract_y
_atom_site_fract_z
Zn1	Zn	1.626975	-0.208211	0.601816
Zn2	Zn	1.626832	-0.295632	0.423819
Zn3	Zn	1.449015	-0.208212	0.423845
Zn4	Zn	1.448890	-0.295617	0.601749
O5	O	1.537928	-0.251918	0.512807
O6	O	1.775902	-0.219814	0.578221
O7	O	1.603237	-0.284042	0.274877
O8	O	1.472734	-0.135047	0.447492
O9	O	1.775797	-0.284041	0.447448
O10	O	1.603480	-0.135046	0.578246
O11	O	1.472596	-0.219815	0.274896
O12	O	1.300053	-0.219801	0.447427
O13	O	1.472521	-0.284016	0.750704
O14	O	1.299961	-0.284017	0.578132
O15	O	1.603359	-0.219800	0.750753
O16	O	1.603116	-0.368795	0.447383
O17	O	1.472383	-0.368784	0.578108
C18	C	1.261387	-0.251908	0.512776
C19	C	1.143082	-0.251916	0.512788
C20	C	1.073848	-0.216941	0.441833
C21	C	1.003004	-0.264630	0.415643
C22	C	1.003127	-0.204250	0.538996
C23	C	1.073796	-0.299630	0.486547
C24	C	1.073925	-0.239218	0.609945
C25	C	1.003113	-0.286940	0.583792
C26	C	1.537749	-0.387761	0.512759
C27	C	1.537770	-0.445875	0.512773
C28	C	1.606178	-0.806231	0.444855
C29	C	1.606220	-0.860835	0.444869
O30	O	1.664197	-0.889066	0.387069
N31	N	1.538115	-0.888157	0.512878
C32	C	1.469973	-0.860872	0.580884
O33	O	1.412049	-0.889126	0.638733
C34	C	1.469938	-0.806269	0.580874
C35	C	1.538039	-0.778950	0.512854
C36	C	1.674275	-0.778912	0.376841
C37	C	1.674232	-0.724311	0.376826
C38	C	1.606093	-0.697030	0.444824
C39	C	1.537996	-0.724349	0.512839
C40	C	1.401801	-0.778985	0.648885
C41	C	1.401773	-0.724378	0.648870
C42	C	1.469874	-0.697058	0.580850
C43	C	1.469814	-0.642467	0.580822
N44	N	1.537918	-0.615145	0.512813
C45	C	1.606058	-0.642426	0.444815
C46	C	1.470053	-0.975543	0.580900
C47	C	1.470082	-1.030145	0.580906
C48	C	1.606330	-1.030104	0.444892
C49	C	1.606295	-0.975501	0.444882
C50	C	1.538157	-0.948221	0.512892
C51	C	1.605962	-0.527761	0.444787
C52	C	1.605909	-0.473156	0.444774
C53	C	1.469665	-0.473202	0.580792
C54	C	1.469713	-0.527802	0.580801
C55	C	1.537870	-0.555081	0.512795
O56	O	1.411869	-0.614202	0.638595
O57	O	1.663981	-0.614166	0.386986
C58	C	1.815549	-0.251929	0.512839
C59	C	1.933854	-0.251934	0.512853
C60	C	1.537942	-0.251906	0.790428
C61	C	1.537948	-0.251901	0.908734
C62	C	1.538137	-0.115545	0.512879
C63	C	1.538226	-0.057431	0.512910
C64	C	1.609103	-0.216987	1.048777
C65	C	1.635069	-0.264683	0.977946
C66	C	1.512030	-0.204211	0.977993
C67	C	1.563959	-0.299642	1.048688
C68	C	1.440875	-0.239138	1.048741
C69	C	1.466804	-0.286866	0.977942
C70	C	1.537917	-0.251935	1.236266
C71	C	1.537943	-0.251921	1.117961
H72	H	0.972028	-0.163938	0.561099
O73	O	1.485929	-0.156113	0.940766
C74	C	1.485324	-0.156892	0.828830
H75	H	1.537511	-0.190190	0.799324
H76	H	1.400621	-0.162842	0.799254
C77	C	1.464493	-0.063830	0.822607
C78	C	1.528597	-0.104724	0.786367
H79	H	1.491181	-0.031650	0.796413
H80	H	1.464896	-0.063305	0.898021
H81	H	1.393912	-0.068795	0.797958
H82	H	1.599174	-0.099762	0.811028
H83	H	1.528207	-0.105247	0.710956
O84	O	1.672506	-0.948908	0.378960
C85	C	1.741211	-0.917289	0.439613
H86	H	1.703608	-0.909105	0.520238
H87	H	1.820088	-0.938296	0.451386
C88	C	1.806691	-0.875479	0.282027
C89	C	1.760502	-0.865424	0.381049
H90	H	1.818595	-0.843487	0.245901
H91	H	1.760406	-0.896783	0.241163
H92	H	1.872417	-0.892986	0.291852
H93	H	1.694771	-0.847923	0.371222
H94	H	1.806776	-0.844116	0.421910
O95	O	1.672169	-0.446700	0.378664
C96	C	1.732300	-0.482492	0.318636
H97	H	1.735979	-0.521402	0.362251
H98	H	1.693389	-0.488340	0.237764
C99	C	1.841061	-0.413340	0.249823
C100	C	1.845586	-0.461128	0.303397
H101	H	1.910940	-0.400162	0.240418
H102	H	1.800547	-0.389225	0.290262
H103	H	1.808630	-0.418220	0.182436
H104	H	1.878004	-0.456247	0.370787
H105	H	1.886108	-0.485242	0.262969
H106	H	1.585997	-0.339990	1.079613
H107	H	1.414184	-0.450981	0.636152
O108	O	1.110782	-0.181625	0.370235
C109	C	1.073252	-0.131521	0.397004
H110	H	0.998234	-0.135288	0.447062
H111	H	1.136681	-0.109846	0.444223
C112	C	1.140045	-0.096355	0.233362
C113	C	1.047903	-0.100981	0.294836
H114	H	1.124413	-0.077515	0.170341
H115	H	1.165335	-0.130110	0.215328
H116	H	1.192894	-0.078293	0.272723
H117	H	0.995061	-0.119048	0.255480
H118	H	1.022604	-0.067228	0.312861
O119	O	0.965882	-0.277370	0.317594
C120	C	1.001936	-0.240398	0.242986
H121	H	1.021859	-0.202356	0.285448
H122	H	1.075957	-0.255911	0.201587
C123	C	0.889944	-0.277167	0.107898
C124	C	0.914405	-0.230442	0.160050
H125	H	0.835954	-0.271027	0.056735
H126	H	0.865656	-0.302077	0.158161
H127	H	0.951636	-0.290090	0.073408
H128	H	0.852718	-0.217523	0.194549
H129	H	0.938681	-0.205529	0.109790
H130	H	1.414558	-0.953334	0.636279
H131	H	1.104710	-0.339959	0.464316
H132	H	1.661817	-1.052327	0.389527
H133	H	1.105101	-0.228453	0.692057
H134	H	1.661464	-0.549965	0.389412
H135	H	1.717159	-0.275489	0.946846
O136	O	1.403809	-1.056704	0.646821
C137	C	1.335145	-1.088349	0.586177
H138	H	1.328622	-1.071920	0.502333
H139	H	1.368084	-1.129717	0.582560
C140	C	1.232471	-1.109404	0.741056
C141	C	1.224452	-1.089224	0.638080
H142	H	1.164191	-1.109946	0.773073
H143	H	1.278733	-1.088085	0.781914
H144	H	1.259924	-1.143875	0.738028
H145	H	1.197012	-1.054751	0.641110
H146	H	1.178183	-1.110536	0.597223
O147	O	1.395135	-0.322209	0.941112
C148	C	1.422839	-0.372414	0.977350
H149	H	1.511145	-0.373412	0.997129
H150	H	1.374844	-0.382131	1.051498
C151	C	1.290193	-0.411554	0.865761
C152	C	1.398653	-0.412781	0.890046
H153	H	1.275270	-0.436455	0.811911
H154	H	1.271525	-0.377730	0.841349
H155	H	1.250209	-0.419650	0.927559
H156	H	1.438634	-0.404679	0.828253
H157	H	1.417328	-0.446605	0.914446
O158	O	0.966334	-0.322343	0.655290
C159	C	1.002559	-0.372520	0.627313
H160	H	1.022279	-0.373449	0.538996
H161	H	1.076740	-0.382259	0.675233
C162	C	0.891063	-0.411780	0.759794
C163	C	0.915275	-0.412922	0.651320
H164	H	0.837225	-0.436703	0.774607
H165	H	0.866660	-0.377975	0.778646
H166	H	0.952888	-0.419895	0.799715
H167	H	0.853454	-0.404801	0.611402
H168	H	0.939665	-0.446727	0.632462
H169	H	1.729689	-0.702071	0.321441
O170	O	1.740646	-0.805333	0.310833
C171	C	1.846682	-0.791915	0.334241
H172	H	1.848771	-0.752269	0.375193
H173	H	1.882540	-0.822619	0.388977
C174	C	1.908683	-0.838031	0.180253
C175	C	1.911249	-0.789335	0.230543
H176	H	1.948513	-0.836441	0.116289
H177	H	1.837245	-0.847073	0.164484
H178	H	1.938563	-0.863613	0.225878
H179	H	1.881357	-0.763755	0.184924
H180	H	1.982684	-0.780289	0.246302
H181	H	1.358809	-0.228316	1.079863
H182	H	1.346341	-0.801219	0.704270
H183	H	1.346288	-0.702169	0.704256
H184	H	1.669325	-0.187490	1.079877
O185	O	1.403524	-0.554262	0.646971
C186	C	1.343352	-0.518471	0.706961
H187	H	1.386910	-0.479523	0.710664
H188	H	1.262536	-0.512720	0.667912
C189	C	1.274452	-0.587594	0.815693
C190	C	1.327956	-0.539758	0.820248
H191	H	1.264950	-0.600725	0.885572
H192	H	1.314988	-0.611707	0.775274
H193	H	1.207111	-0.582794	0.783147
H194	H	1.395300	-0.544559	0.852781
H195	H	1.287431	-0.515646	0.860676
