data_functionalizedCrystal
_audit_creation_method	'MofGen! by Chris Wilmer'
_symmetry_space_group_name_H-M	'P1'
_symmetry_Int_Tables_number	1
_symmetry_cell_setting	triclinic
loop_
_symmetry_equiv_pos_as_xyz
  x,y,z
_cell_length_a	10.489741
_cell_length_b	16.109301
_cell_length_c	15.186229
_cell_angle_alpha	89.994833
_cell_angle_beta	89.999333
_cell_angle_gamma	84.000327
loop_
_atom_site_label
_atom_site_type_symbol
_atom_site_fract_x
_atom_site_fract_y
_atom_site_fract_z
O1	O	1.692350	0.117298	-0.073177
O2	O	1.320995	0.128308	-0.073191
O3	O	1.516874	0.001835	-0.073175
O4	O	1.496471	0.243771	-0.073194
O5	O	1.516861	0.001833	0.073282
O6	O	1.320981	0.128306	0.073266
O7	O	1.692337	0.117296	0.073280
Zn8	Zn	1.506657	0.122801	0.096526
Zn9	Zn	1.506674	0.122803	-0.096438
O10	O	1.496458	0.243769	0.073264
C11	C	1.516041	-0.029146	0.000054
C12	C	1.513563	-0.121457	0.000055
C13	C	1.273468	0.127475	0.000036
C14	C	1.131875	0.124987	0.000031
C15	C	1.624032	-0.343048	0.000045
C16	C	1.621694	-0.429783	0.000038
C17	C	1.389290	-0.411341	0.000033
C18	C	1.391630	-0.324608	0.000034
C19	C	1.509004	-0.290464	0.000045
C20	C	1.504327	-0.463932	0.000036
C21	C	1.501791	-0.557974	0.000028
C22	C	1.511541	-0.196417	0.000051
C23	C	1.064902	0.044516	0.000045
C24	C	0.972231	0.082531	-0.072167
C25	C	0.972251	0.082548	0.072228
C26	C	1.041068	0.163035	-0.072241
C27	C	1.041099	0.163041	0.072219
C28	C	0.948453	0.201115	-0.000011
C29	C	1.739863	0.118128	0.000051
C30	C	1.881456	0.120616	0.000050
C31	C	1.497291	0.274750	0.000033
C32	C	1.499769	0.367060	0.000026
N33	N	1.506655	0.122798	0.228219
N34	N	1.506687	0.122799	-0.228130
C35	C	1.593419	0.066815	0.453949
C36	C	1.593423	0.066813	0.546139
C37	C	1.419913	0.178784	0.546133
C38	C	1.419904	0.178782	0.453945
C39	C	1.506664	0.122798	0.407856
C40	C	1.506677	0.122799	0.592233
C41	C	1.506681	0.122797	0.692189
C42	C	1.506659	0.122799	0.307893
H43	H	1.719606	-0.315251	0.000052
H44	H	0.941716	0.048483	-0.133213
Br45	Br	1.777811	-0.501145	0.000034
Br46	Br	1.711163	-0.009164	0.391402
H47	H	1.349276	0.224366	0.583669
H48	H	1.297954	-0.281792	0.000031
H49	H	1.071408	0.197059	-0.133360
Br50	Br	1.149258	-0.065758	-0.000061
H51	H	1.349251	0.224370	0.416413
H52	H	0.898069	0.267337	-0.000055
H53	H	1.071646	0.197062	0.133268
Br54	Br	0.921433	0.025775	0.173983
Br55	Br	1.711161	-0.009170	0.608693
Br56	Br	1.230004	-0.457685	0.000016
