data_functionalizedCrystal
_audit_creation_method	'MofGen! by Chris Wilmer'
_symmetry_space_group_name_H-M	'P1'
_symmetry_Int_Tables_number	1
_symmetry_cell_setting	triclinic
loop_
_symmetry_equiv_pos_as_xyz
  x,y,z
_cell_length_a	6.817900
_cell_length_b	9.582889
_cell_length_c	16.306216
_cell_angle_alpha	93.087006
_cell_angle_beta	103.467292
_cell_angle_gamma	111.207298
loop_
_atom_site_label
_atom_site_type_symbol
_atom_site_fract_x
_atom_site_fract_y
_atom_site_fract_z
V1	V	-4.066588	-0.208226	-0.262871
O2	O	-4.012241	0.008801	-0.258025
O3	O	-4.057363	-0.411718	-0.260920
O4	O	-4.017522	-0.205551	-0.377587
O5	O	-4.052358	-0.198792	-0.140550
V6	V	-4.545226	-0.182204	-0.248259
O7	O	-4.338562	-0.265306	-0.294923
O8	O	-4.723449	-0.125124	-0.216206
O9	O	-4.331244	0.021288	-0.250209
O10	O	-4.716970	-0.399231	-0.253104
O11	O	-4.676853	-0.191638	-0.370579
O12	O	-4.371086	-0.184879	-0.133542
C13	C	-3.911916	-0.461309	-0.256733
C14	C	-3.985656	-0.627670	-0.255903
C15	C	-3.861093	-0.198321	-0.405553
C16	C	-3.902519	-0.197480	-0.499334
C17	C	-4.052894	-0.194465	-0.840088
C18	C	-4.259228	-0.204393	-0.809633
C19	C	-4.216016	-0.204692	-0.712041
C20	C	-3.978293	-0.195962	-0.671036
C21	C	-3.813963	-0.047531	-0.691353
C22	C	-3.858412	-0.046608	-0.788952
C23	C	-3.992914	-0.332441	-0.813868
C24	C	-3.954913	-0.335370	-0.716549
C25	C	-3.936117	-0.196802	-0.575494
C26	C	-4.095059	-0.193614	-0.935629
C27	C	-4.140035	0.070871	-0.254393
C28	C	-4.045533	0.237230	-0.255229
C29	C	-4.190858	-0.192114	-0.105571
C30	C	-4.128669	-0.192947	-0.011790
H31	H	-4.341917	-0.311382	-0.699093
H32	H	-4.242558	-0.105312	-0.681749
H33	H	-4.076661	-0.445103	-0.704545
C34	C	-4.625157	-0.306842	-0.901628
C35	C	-4.458362	-0.347944	-0.856171
H36	H	-4.748102	-0.395470	-0.930356
H37	H	-4.574559	-0.245581	-0.942169
H38	H	-4.665953	-0.251619	-0.863182
H39	H	-4.417555	-0.403157	-0.894618
H40	H	-4.508967	-0.409229	-0.815625
C41	C	-3.574662	-0.155301	-0.612558
C42	C	-3.576360	-0.031598	-0.654251
H43	H	-3.427975	-0.145458	-0.589649
H44	H	-3.652158	-0.246311	-0.652053
H45	H	-3.642675	-0.158012	-0.567688
H46	H	-3.508361	-0.028894	-0.699126
H47	H	-3.498832	0.059436	-0.614753
C48	C	-3.896268	0.177059	-0.734000
C49	C	-3.907250	0.094277	-0.809531
H50	H	-3.926437	0.264029	-0.746704
H51	H	-3.754047	0.207696	-0.696228
H52	H	-4.000906	0.115597	-0.707851
H53	H	-3.802601	0.155736	-0.835677
H54	H	-4.049492	0.063642	-0.847317
H55	H	-3.839871	-0.326347	-0.833033
H56	H	-3.702919	-0.033233	-0.808188
H57	H	-4.306909	-0.105287	-0.827257
H58	H	-3.827728	0.056017	-0.659393
H59	H	-4.127681	-0.443979	-0.849628
H60	H	-3.786469	-0.337662	-0.689137
