data_functionalizedCrystal
_audit_creation_method	'MofGen! by Chris Wilmer'
_symmetry_space_group_name_H-M	'P1'
_symmetry_Int_Tables_number	1
_symmetry_cell_setting	triclinic
loop_
_symmetry_equiv_pos_as_xyz
  x,y,z
_cell_length_a	17.699104
_cell_length_b	17.019294
_cell_length_c	16.776229
_cell_angle_alpha	86.114377
_cell_angle_beta	89.991971
_cell_angle_gamma	83.342939
loop_
_atom_site_label
_atom_site_type_symbol
_atom_site_fract_x
_atom_site_fract_y
_atom_site_fract_z
O1	O	1.004137	0.099835	-0.073156
O2	O	0.783770	0.112797	-0.074044
O3	O	0.900101	-0.008528	-0.065713
O4	O	0.887806	0.221160	-0.081487
O5	O	0.900085	-0.008536	0.066864
O6	O	0.783755	0.112789	0.058533
O7	O	1.004122	0.099828	0.059421
Zn8	Zn	0.893936	0.106307	0.080027
Zn9	Zn	0.893956	0.106317	-0.094649
O10	O	0.887791	0.221153	0.051090
C11	C	0.755565	0.112326	-0.007723
C12	C	0.671547	0.110924	-0.007626
C13	C	0.146720	0.174234	-0.011982
C14	C	0.225664	0.175547	-0.012074
C15	C	0.274233	0.104324	-0.007183
C16	C	0.243853	0.031785	-0.002207
C17	C	0.164910	0.030473	-0.002120
C18	C	0.562223	0.037072	-0.002557
C19	C	0.641171	0.038389	-0.002642
C20	C	0.622977	0.182145	-0.012511
C21	C	0.544034	0.180834	-0.012425
C22	C	0.513661	0.108295	-0.007453
C23	C	0.428060	0.106873	-0.007354
C24	C	0.359832	0.105745	-0.007276
C25	C	0.899627	-0.037921	0.002592
C26	C	0.898228	-0.125489	0.008601
C27	C	0.897581	-0.166620	-0.060843
C28	C	0.896262	-0.248899	-0.055195
C29	C	0.895595	-0.290045	0.019898
C30	C	0.896240	-0.248908	0.089348
C31	C	0.897553	-0.166630	0.083699
C32	C	0.891623	-0.538472	0.040570
C33	C	0.890311	-0.620756	0.046214
C34	C	0.890332	-0.620740	-0.098330
C35	C	0.891650	-0.538461	-0.103972
C36	C	0.892291	-0.497331	-0.034523
C37	C	0.894249	-0.374148	0.025673
C38	C	0.893631	-0.413229	-0.040299
C39	C	1.032327	0.100299	-0.006902
C40	C	1.116345	0.101700	-0.007004
C41	C	0.888265	0.250545	-0.017216
C42	C	0.889664	0.338113	-0.023230
N43	N	0.893927	0.106300	0.199238
N44	N	0.893970	0.106318	-0.213860
C45	C	0.945454	0.052599	0.244643
C46	C	0.945459	0.052599	0.328095
C47	C	0.893939	0.106303	0.366141
C48	C	0.842406	0.160006	0.320731
C49	C	0.842399	0.160003	0.237280
C50	C	0.842434	0.160022	0.657277
C51	C	0.842446	0.160023	0.740733
C52	C	0.945493	0.052618	0.748092
C53	C	0.945486	0.052614	0.664641
C54	C	0.893951	0.106314	0.619238
C55	C	0.893946	0.106313	0.528750
C56	C	0.893947	0.106308	0.456628
H57	H	0.283404	-0.026206	0.001771
N58	N	0.895617	-0.290894	-0.126145
N59	N	0.949101	-0.289058	-0.174650
H60	H	0.948648	-0.318714	-0.224764
N61	N	0.889608	-0.662789	0.122922
N62	N	0.835547	-0.701335	0.141680
H63	H	0.835050	-0.731023	0.195852
H64	H	0.987415	0.008871	0.365063
H65	H	0.680715	-0.019612	0.001339
N66	N	0.494421	0.253584	-0.017432
N67	N	0.448349	0.268892	-0.074369
H68	H	0.413309	0.320273	-0.077908
N69	N	0.998127	-0.002238	0.625791
N70	N	1.044134	-0.050180	0.666341
H71	H	1.081314	-0.088920	0.638905
N72	N	0.998128	-0.002236	0.794483
N73	N	0.998129	-0.002232	0.868992
H74	H	1.035302	-0.040970	0.901755
H75	H	0.892194	-0.504965	-0.165121
H76	H	0.889808	-0.654238	-0.154871
H77	H	0.898070	-0.133141	0.140248
N78	N	0.654016	0.256238	-0.017589
N79	N	0.724501	0.257404	-0.017666
H80	H	0.746422	0.309730	-0.021249
N81	N	0.892279	-0.496478	0.111516
N82	N	0.891688	-0.533229	0.178557
H83	H	0.892154	-0.503569	0.228667
H84	H	0.800490	0.203757	0.771708
N85	N	0.531217	-0.037028	0.002518
N86	N	0.574592	-0.100612	0.006885
H87	H	0.552693	-0.152950	0.010470
N88	N	0.789779	0.214854	0.359604
N89	N	0.789792	0.214851	0.434113
H90	H	0.752623	0.253589	0.461567
N91	N	0.789804	0.214869	0.610890
N92	N	0.742850	0.189898	0.566052
H93	H	0.705679	0.228636	0.533286
N94	N	0.133893	-0.043626	0.002960
N95	N	0.177263	-0.107212	0.007325
H96	H	0.155359	-0.159548	0.010910
N97	N	0.895550	-0.290947	0.166048
N98	N	0.894377	-0.364409	0.171083
H99	H	0.893891	-0.394099	0.225255
N100	N	0.893585	-0.416180	0.102379
N101	N	0.947053	-0.414371	0.150643
H102	H	0.946583	-0.444057	0.204818
H103	H	0.898128	-0.133124	-0.121993
N104	N	0.894323	-0.371216	-0.117009
N105	N	0.893753	-0.407946	-0.179012
H106	H	0.894246	-0.378270	-0.233190
N107	N	0.998046	-0.002307	0.205799
N108	N	1.044017	-0.050282	0.246355
H109	H	1.081144	-0.089081	0.218926
H110	H	0.800440	0.203730	0.200313
H111	H	0.107180	0.232232	-0.015959
H112	H	0.250391	0.234611	-0.016135
