data_functionalizedCrystal
_audit_creation_method	'MofGen! by Chris Wilmer'
_symmetry_space_group_name_H-M	'P1'
_symmetry_Int_Tables_number	1
_symmetry_cell_setting	triclinic
loop_
_symmetry_equiv_pos_as_xyz
  x,y,z
_cell_length_a	18.215405
_cell_length_b	18.215407
_cell_length_c	18.215399
_cell_angle_alpha	89.983115
_cell_angle_beta	89.970161
_cell_angle_gamma	90.021264
loop_
_atom_site_label
_atom_site_type_symbol
_atom_site_fract_x
_atom_site_fract_y
_atom_site_fract_z
Zn1	Zn	-0.293039	1.125074	-0.416060
Zn2	Zn	-0.416111	1.124986	-0.292990
Zn3	Zn	-0.293058	1.002007	-0.293013
Zn4	Zn	-0.416063	1.001975	-0.416021
O5	O	-0.354568	1.063510	-0.354521
O6	O	-0.309377	1.228046	-0.399742
O7	O	-0.399816	1.108649	-0.190009
O8	O	-0.190071	1.018383	-0.309361
O9	O	-0.399798	1.227982	-0.309323
O10	O	-0.190057	1.108800	-0.399763
O11	O	-0.309409	1.018298	-0.190025
O12	O	-0.309362	0.899019	-0.309323
O13	O	-0.399715	1.018327	-0.519010
O14	O	-0.399733	0.898995	-0.399696
O15	O	-0.309330	1.108768	-0.519039
O16	O	-0.519089	1.108617	-0.309285
O17	O	-0.519054	1.018242	-0.399675
C18	C	-0.354545	0.872304	-0.354508
C19	C	-0.354553	0.790505	-0.354520
C20	C	-0.307568	0.602344	-0.401675
C21	C	-0.307574	0.525485	-0.401678
C22	C	-0.401588	0.525429	-0.307379
C23	C	-0.401577	0.602286	-0.307374
C24	C	-0.354568	0.640742	-0.354526
C25	C	-0.354585	0.487026	-0.354534
C26	C	-0.354593	0.403692	-0.354536
C27	C	-0.354560	0.724081	-0.354523
C28	C	-0.545774	1.063436	-0.354489
C29	C	-0.627573	1.063472	-0.354500
C30	C	-0.892624	1.110668	-0.307534
C31	C	-0.815766	1.110638	-0.307517
C32	C	-0.815770	1.016444	-0.401558
C33	C	-0.892627	1.016471	-0.401570
C34	C	-0.931052	1.063587	-0.354559
C35	C	-0.777336	1.063530	-0.354530
C36	C	-0.694003	1.063497	-0.354512
C37	C	-1.014391	1.063620	-0.354576
C38	C	-0.162615	1.063605	-0.354569
C39	C	-0.080816	1.063645	-0.354589
C40	C	-0.354515	1.063554	-0.546474
C41	C	-0.354493	1.063572	-0.628273
C42	C	-0.354591	1.255463	-0.354534
C43	C	-0.354601	1.337262	-0.354540
C44	C	-0.307366	1.110692	-0.893347
C45	C	-0.307386	1.110683	-0.816488
C46	C	-0.401514	1.016512	-0.816448
C47	C	-0.401497	1.016525	-0.893305
C48	C	-0.354419	1.063614	-0.931753
C49	C	-0.354456	1.063592	-0.778036
C50	C	-0.354478	1.063582	-0.694703
C51	C	-0.354398	1.063625	-1.015092
C52	C	-0.354566	1.063510	-0.163315
C53	C	-0.354381	1.063634	-0.081516
H54	H	-0.439852	0.633550	-0.268975
C55	C	-0.934900	0.964675	-0.453304
N56	N	-0.966740	0.925662	-0.492268
H57	H	-0.784476	0.978083	-0.439834
H58	H	-0.269301	0.494225	-0.440070
H59	H	-0.439817	0.978188	-0.924576
H60	H	-0.923908	1.149033	-0.269254
C61	C	-0.255851	0.644643	-0.453537
N62	N	-0.216893	0.676500	-0.492599
H63	H	-0.439862	0.494109	-0.268991
H64	H	-0.439842	0.978173	-0.785134
H65	H	-0.269032	1.149034	-0.924649
C66	C	-0.773498	1.162426	-0.255780
N67	N	-0.741663	1.201433	-0.216807
C68	C	-0.255621	1.162468	-0.774245
N69	N	-0.216627	1.201475	-0.742428
