data_functionalizedCrystal
_audit_creation_method	'MofGen! by Chris Wilmer'
_symmetry_space_group_name_H-M	'P1'
_symmetry_Int_Tables_number	1
_symmetry_cell_setting	triclinic
loop_
_symmetry_equiv_pos_as_xyz
  x,y,z
_cell_length_a	14.971486
_cell_length_b	16.992695
_cell_length_c	14.048226
_cell_angle_alpha	89.993436
_cell_angle_beta	89.998499
_cell_angle_gamma	87.141176
loop_
_atom_site_label
_atom_site_type_symbol
_atom_site_fract_x
_atom_site_fract_y
_atom_site_fract_z
O1	O	1.194127	0.102190	-0.079052
O2	O	1.694127	0.602190	0.420948
O3	O	0.934587	0.114427	-0.079078
O4	O	1.434587	0.614427	0.420922
O5	O	1.063316	-0.005835	-0.079057
O6	O	1.563316	0.494165	0.420943
O7	O	1.065397	0.222452	-0.079072
O8	O	1.565397	0.722452	0.420928
O9	O	1.063299	-0.005842	0.079264
O10	O	1.563299	0.494158	0.579264
O11	O	0.934570	0.114420	0.079244
O12	O	1.434570	0.614420	0.579244
O13	O	1.194110	0.102183	0.079270
O14	O	1.694110	0.602183	0.579270
Zn15	Zn	1.064337	0.108300	0.104394
Zn16	Zn	1.564337	0.608300	0.604394
Zn17	Zn	1.064359	0.108310	-0.104201
Zn18	Zn	1.564359	0.608310	0.395799
O19	O	1.065380	0.222445	0.079249
O20	O	1.565380	0.722445	0.579249
C21	C	0.901215	0.113876	0.000080
C22	C	1.401215	0.613876	0.500080
C23	C	0.801803	0.112236	0.000070
C24	C	1.301803	0.612236	0.500070
C25	C	0.749541	0.182887	0.000067
C26	C	1.249541	0.682887	0.500067
C27	C	0.656133	0.181341	0.000081
C28	C	1.156133	0.681341	0.500081
C29	C	0.614988	0.109144	0.000092
C30	C	1.114988	0.609144	0.500092
C31	C	0.667257	0.038488	0.000098
C32	C	1.167257	0.538488	0.500098
C33	C	0.760663	0.040034	0.000091
C34	C	1.260663	0.540034	0.500091
C35	C	0.472568	0.035269	0.000111
C36	C	0.972568	0.535269	0.500111
C37	C	0.379155	0.033723	0.000117
C38	C	0.879155	0.533723	0.500117
C39	C	0.368038	0.176577	0.000102
C40	C	0.868038	0.676577	0.500102
C41	C	0.461445	0.178123	0.000094
C42	C	0.961445	0.678123	0.500094
C43	C	0.513707	0.107466	0.000099
C44	C	1.013707	0.607466	0.500099
C45	C	1.060631	-0.035054	0.000103
C46	C	1.560631	0.464946	0.500103
C47	C	1.052644	-0.122105	0.000102
C48	C	1.552644	0.377895	0.500102
C49	C	1.129708	-0.172274	0.000111
C50	C	1.629708	0.327726	0.500111
C51	C	1.122198	-0.254067	0.000101
C52	C	1.622198	0.245933	0.500101
C53	C	1.037623	-0.285691	0.000089
C54	C	1.537623	0.214309	0.500089
C55	C	0.960553	-0.235517	0.000078
C56	C	1.460553	0.264483	0.500078
C57	C	0.968064	-0.153724	0.000081
C58	C	1.468064	0.346276	0.500081
C59	C	1.006493	-0.529318	0.000073
C60	C	1.506493	-0.029318	0.500073
C61	C	0.998988	-0.611117	0.000073
C62	C	1.498988	-0.111117	0.500073
C63	C	1.160634	-0.629662	0.000094
C64	C	1.660634	-0.129662	0.500094
C65	C	1.168138	-0.547867	0.000103
C66	C	1.668138	-0.047867	0.500103
C67	C	1.091068	-0.497700	0.000087
C68	C	1.591068	0.002300	0.500087
N69	N	1.029945	-0.369297	0.000082
N70	N	1.529945	0.130703	0.500082
N71	N	1.098747	-0.414095	0.000087
N72	N	1.598747	0.085905	0.500087
C73	C	1.227482	0.102733	0.000110
C74	C	1.727482	0.602733	0.500110
C75	C	1.326894	0.104373	0.000114
C76	C	1.826894	0.604373	0.500114
C77	C	1.068066	0.251664	0.000087
C78	C	1.568066	0.751664	0.500087
C79	C	1.076053	0.338715	0.000082
C80	C	1.576053	0.838715	0.500082
N81	N	1.064328	0.108293	0.246754
N82	N	1.564328	0.608293	0.746754
N83	N	1.064375	0.108310	-0.246562
N84	N	1.564375	0.608310	0.253438
C85	C	1.121350	0.055063	0.296581
C86	C	1.621350	0.555063	0.796581
C87	C	1.121356	0.055063	0.396239
C88	C	1.621356	0.555063	0.896239
C89	C	1.064344	0.108297	0.446068
C90	C	1.564344	0.608297	0.946068
C91	C	1.007316	0.161529	0.396234
C92	C	1.507316	0.661529	0.896234
C93	C	1.007306	0.161526	0.296578
C94	C	1.507306	0.661526	0.796578
C95	C	1.007342	0.161535	0.603948
C96	C	1.507342	0.661535	1.103948
C97	C	1.007353	0.161540	0.703611
C98	C	1.507353	0.661540	1.203611
C99	C	1.121393	0.055072	0.703609
C100	C	1.621393	0.555072	1.203609
C101	C	1.121383	0.055068	0.603953
C102	C	1.621383	0.555068	1.103953
C103	C	1.064355	0.108302	0.554126
C104	C	1.564355	0.608302	1.054126
H105	H	0.613586	0.238873	0.000077
H106	H	1.113586	0.738873	0.500077
H107	H	0.960891	0.204871	0.436810
H108	H	1.460891	0.704871	0.936810
N109	N	0.334764	-0.044141	0.000152
N110	N	0.834764	0.455859	0.500152
H111	H	0.296253	-0.047970	-0.058532
H112	H	0.796253	0.452030	0.441468
H113	H	0.382090	-0.088626	0.000202
H114	H	0.882090	0.411374	0.500202
H115	H	1.167788	0.011718	0.436808
H116	H	1.667788	0.511718	0.936808
N117	N	0.793908	0.260761	0.000047
N118	N	1.293908	0.760761	0.500047
H119	H	0.775225	0.291716	0.058736
H120	H	1.275225	0.791716	0.558736
H121	H	0.861001	0.250961	0.000003
H122	H	1.361001	0.750961	0.500003
N123	N	0.528939	-0.040937	0.000122
N124	N	1.028939	0.459063	0.500122
H125	H	0.488702	-0.086909	0.000127
H126	H	0.988702	0.413091	0.500127
H127	H	0.567934	-0.043403	-0.058572
H128	H	1.067934	0.456597	0.441428
H129	H	0.325482	0.234108	0.000103
H130	H	0.825482	0.734108	0.500103
N131	N	0.945869	0.218953	0.757370
N132	N	1.445869	0.718953	1.257370
H133	H	0.960139	0.274623	0.740015
H134	H	1.460139	0.774623	1.240015
H135	H	0.881757	0.209761	0.740032
H136	H	1.381757	0.709761	1.240032
N137	N	0.505826	0.255991	0.000065
N138	N	1.005826	0.755991	0.500065
H139	H	0.458547	0.300517	0.000062
H140	H	0.958547	0.800517	0.500062
H141	H	0.544346	0.259745	0.058750
H142	H	1.044346	0.759745	0.558750
H143	H	0.633749	-0.020297	0.000120
H144	H	1.133749	0.479703	0.500120
N145	N	0.945831	0.218947	0.550203
N146	N	1.445831	0.718947	1.050203
H147	H	0.909717	0.252673	0.596889
H148	H	1.409717	0.752673	1.096889
H149	H	0.982548	0.253661	0.508842
H150	H	1.482548	0.753661	1.008842
H151	H	0.930114	-0.636861	0.000079
H152	H	1.430114	-0.136861	0.500079
N153	N	1.182876	-0.002349	0.550214
N154	N	1.682876	0.497651	1.050214
H155	H	1.146209	-0.037118	0.508877
H156	H	1.646209	0.462882	1.008877
H157	H	1.224604	0.027732	0.508910
H158	H	1.724604	0.527732	1.008910
N159	N	0.817035	-0.036167	0.000101
N160	N	1.317035	0.463833	0.500101
H161	H	0.776798	-0.082139	0.000109
H162	H	1.276798	0.417861	0.500109
H163	H	0.856033	-0.038638	-0.058591
H164	H	1.356033	0.461362	0.441409
H165	H	0.960871	0.204870	0.256010
H166	H	1.460871	0.704870	0.756010
H167	H	1.198578	-0.146533	0.000126
H168	H	1.698578	0.353467	0.500126
N169	N	0.923371	-0.475216	0.000061
N170	N	1.423371	0.024784	0.500061
H171	H	0.886738	-0.485397	-0.058632
H172	H	1.386738	0.014603	0.441368
H173	H	0.886795	-0.485429	0.058787
H174	H	1.386795	0.014571	0.558787
N175	N	1.243751	-0.683776	0.000111
N176	N	1.743751	-0.183776	0.500111
H177	H	1.244246	-0.718118	-0.058580
H178	H	1.744246	-0.218118	0.441420
H179	H	1.298423	-0.651278	0.000155
H180	H	1.798423	-0.151278	0.500155
N181	N	1.205317	-0.308178	0.000116
N182	N	1.705317	0.191822	0.500116
H183	H	1.260034	-0.275734	0.000132
H184	H	1.760034	0.224266	0.500132
H185	H	1.205707	-0.342523	0.058808
H186	H	1.705707	0.157477	0.558808
N187	N	1.259358	-0.513760	0.000121
N188	N	1.759358	-0.013760	0.500121
H189	H	1.307040	-0.557954	0.000126
H190	H	1.807040	-0.057954	0.500126
H191	H	1.266004	-0.480220	-0.058567
H192	H	1.766004	0.019780	0.441433
H193	H	0.891690	-0.261271	0.000062
H194	H	1.391690	0.238729	0.500062
H195	H	0.905310	-0.112878	0.000073
H196	H	1.405310	0.387122	0.500073
N197	N	1.182912	-0.002342	0.757336
N198	N	1.682912	0.497658	1.257336
H199	H	1.146271	-0.037124	0.798696
H200	H	1.646271	0.462876	1.298696
H201	H	1.219016	-0.036002	0.710578
H202	H	1.719016	0.463998	1.210578
N203	N	1.182848	-0.002350	0.242841
N204	N	1.682848	0.497650	0.742841
H205	H	1.218971	-0.036071	0.289532
H206	H	1.718971	0.463929	0.789532
H207	H	1.146125	-0.037068	0.201504
H208	H	1.646125	0.462932	0.701504
