data_functionalizedCrystal
_audit_creation_method	'MofGen! by Chris Wilmer'
_symmetry_space_group_name_H-M	'P1'
_symmetry_Int_Tables_number	1
_symmetry_cell_setting	triclinic
loop_
_symmetry_equiv_pos_as_xyz
  x,y,z
_cell_length_a	15.944551
_cell_length_b	15.944551
_cell_length_c	12.503572
_cell_angle_alpha	93.522593
_cell_angle_beta	86.485927
_cell_angle_gamma	83.498738
loop_
_atom_site_label
_atom_site_type_symbol
_atom_site_fract_x
_atom_site_fract_y
_atom_site_fract_z
O1	O	1.119362	0.103479	-0.089210
O2	O	0.874813	0.116834	-0.089237
O3	O	1.003765	-0.012118	-0.089213
O4	O	0.990410	0.232431	-0.089234
O5	O	0.994067	-0.002404	0.089427
O6	O	0.865115	0.126548	0.089403
O7	O	1.109664	0.113193	0.089430
Cu8	Cu	0.986504	0.120757	0.105728
Cu9	Cu	0.997973	0.109269	-0.105535
O10	O	0.980712	0.242145	0.089406
C11	C	0.838671	0.121136	0.000079
C12	C	0.745425	0.119473	0.000069
C13	C	0.530567	0.035570	0.000097
C14	C	0.474329	0.069743	-0.087985
C15	C	0.574699	0.116467	0.000082
C16	C	0.464789	0.079340	0.088140
C17	C	0.409785	0.113557	0.000100
C18	C	0.519692	0.150658	-0.088073
C19	C	0.510155	0.160247	0.088132
C20	C	0.453936	0.194477	0.000028
C21	C	0.669702	0.118141	0.000071
C22	C	0.314784	0.111889	0.000103
C23	C	0.998362	-0.038555	0.000107
C24	C	0.996699	-0.131801	0.000107
C25	C	0.912796	-0.346659	0.000083
C26	C	0.946977	-0.402886	0.088168
C27	C	0.993693	-0.302527	0.000099
C28	C	0.956557	-0.412447	-0.087957
C29	C	0.990782	-0.467441	0.000086
C30	C	1.027891	-0.357522	0.088256
C31	C	1.037465	-0.367081	-0.087948
C32	C	1.071703	-0.423290	0.000158
C33	C	0.995367	-0.207524	0.000107
C34	C	0.989114	-0.562442	0.000085
C35	C	1.145807	0.108891	0.000111
C36	C	1.239052	0.110553	0.000114
C37	C	0.986116	0.268581	0.000083
C38	C	0.987778	0.361827	0.000076
N39	N	0.978444	0.128837	0.254318
N40	N	1.006040	0.101183	-0.254126
C41	C	0.966586	0.140729	0.473431
C42	C	1.017895	0.089294	0.526768
C43	C	1.011297	0.095911	0.648690
C44	C	0.973183	0.134113	0.351498
H45	H	0.440661	0.049158	0.162604
H46	H	1.058031	-0.333478	0.162807
H47	H	1.066777	0.040290	0.480864
O48	O	1.160716	-0.467223	0.000227
H49	H	1.190111	-0.445089	0.073414
H50	H	0.845644	-0.313347	0.000164
H51	H	0.917708	0.189731	0.519330
O52	O	0.896302	-0.424156	0.186803
H53	H	0.896047	-0.493763	0.186292
O54	O	1.088105	-0.345765	-0.186579
H55	H	1.058357	-0.367681	-0.259594
H56	H	0.563905	-0.031573	-0.000006
O57	O	0.453027	0.019062	-0.186613
H58	H	0.484001	-0.046872	-0.186426
H59	H	0.526244	0.198484	0.162597
O60	O	0.551522	0.190545	-0.186848
H61	H	0.620993	0.191421	-0.186108
H62	H	0.420780	0.261682	-0.000027
O63	O	0.916581	-0.444421	-0.186602
H64	H	0.850634	-0.413408	-0.186416
