data_functionalizedCrystal
_audit_creation_method	'MofGen! by Chris Wilmer'
_symmetry_space_group_name_H-M	'P1'
_symmetry_Int_Tables_number	1
_symmetry_cell_setting	triclinic
loop_
_symmetry_equiv_pos_as_xyz
  x,y,z
_cell_length_a	14.044220
_cell_length_b	12.503572
_cell_length_c	17.699083
_cell_angle_alpha	93.515225
_cell_angle_beta	91.764054
_cell_angle_gamma	93.835250
loop_
_atom_site_label
_atom_site_type_symbol
_atom_site_fract_x
_atom_site_fract_y
_atom_site_fract_z
O1	O	1.262755	0.089210	-0.178438
O2	O	1.762755	0.589210	0.321562
O3	O	0.986803	0.089237	-0.171853
O4	O	1.486803	0.589237	0.328147
O5	O	1.132575	0.089213	-0.065494
O6	O	1.632575	0.589213	0.434506
O7	O	1.116983	0.089234	-0.284796
O8	O	1.616983	0.589234	0.215204
O9	O	1.121612	-0.089427	-0.073508
O10	O	1.621612	0.410573	0.426492
O11	O	0.975840	-0.089403	-0.179866
O12	O	1.475840	0.410597	0.320134
O13	O	1.251792	-0.089430	-0.186451
O14	O	1.751792	0.410570	0.313549
Cu15	Cu	1.112815	-0.105728	-0.183890
Cu16	Cu	1.612815	0.394272	0.316110
Cu17	Cu	1.125780	0.105535	-0.174414
Cu18	Cu	1.625780	0.605535	0.325586
O19	O	1.106020	-0.089406	-0.292809
O20	O	1.606020	0.410594	0.207191
C21	C	0.946013	-0.000080	-0.172978
C22	C	1.446013	0.499920	0.327022
C23	C	0.840808	-0.000070	-0.164381
C24	C	1.340808	0.499930	0.335619
C25	C	0.648182	-0.000092	-0.148667
C26	C	1.148182	0.499908	0.351333
C27	C	0.590408	-0.000091	-0.209633
C28	C	1.090408	0.499909	0.290367
C29	C	0.483224	-0.000104	-0.200889
C30	C	0.983224	0.499896	0.299111
C31	C	0.755376	-0.000080	-0.157410
C32	C	1.255376	0.499920	0.342590
N33	N	1.103703	-0.254319	-0.190556
N34	N	1.603703	0.245681	0.309444
C35	C	1.090299	-0.473432	-0.200367
C36	C	1.590299	0.026568	0.299633
C37	C	1.148300	-0.526768	-0.157934
C38	C	1.648300	-0.026768	0.342066
C39	C	1.140842	-0.648690	-0.163393
C40	C	1.640842	-0.148690	0.336607
C41	C	1.097756	-0.351499	-0.194909
C42	C	1.597756	0.148501	0.305091
C43	C	1.292581	-0.000111	-0.185326
C44	C	1.792581	0.499889	0.314674
C45	C	1.397787	-0.000114	-0.193922
C46	C	1.897787	0.499886	0.306078
C47	C	1.126534	-0.000107	-0.041265
C48	C	1.626534	0.499893	0.458735
C49	C	1.124858	-0.000107	0.042868
C50	C	1.624858	0.499893	0.542868
N51	N	1.134899	0.254126	-0.167743
N52	N	1.634899	0.754126	0.332257
C53	C	1.112060	-0.000084	-0.317038
C54	C	1.612060	0.499916	0.182962
C55	C	1.113737	-0.000076	-0.401172
C56	C	1.613737	0.499924	0.098828
C57	C	1.210423	-0.000117	0.085586
C58	C	1.710423	0.499883	0.585586
C59	C	1.208843	-0.000107	0.164639
C60	C	1.708843	0.499893	0.664639
C61	C	1.121697	-0.000095	0.200972
C62	C	1.621697	0.499905	0.700972
C63	C	1.036125	-0.000082	0.158248
C64	C	1.536125	0.499918	0.658248
C65	C	1.037706	-0.000084	0.079197
C66	C	1.537706	0.499916	0.579197
C67	C	1.029745	-0.000073	0.477052
C68	C	1.529745	0.499927	0.977052
C69	C	1.028170	-0.000074	0.556109
C70	C	1.528170	0.499926	1.056109
C71	C	1.200882	-0.000096	0.562494
C72	C	1.700882	0.499904	1.062494
C73	C	1.202464	-0.000098	0.483443
C74	C	1.702464	0.499902	0.983443
C75	C	1.116893	-0.000079	0.440726
C76	C	1.616893	0.499921	0.940726
C77	C	1.118607	-0.000088	0.355008
C78	C	1.618607	0.499912	0.855008
C79	C	1.119981	-0.000095	0.286688
C80	C	1.619981	0.499905	0.786688
H81	H	1.203559	-0.480864	-0.117506
H82	H	1.703559	0.019136	0.382494
H83	H	0.617147	-0.000104	-0.089911
H84	H	1.117147	0.499896	0.410089
H85	H	0.621444	-0.000081	-0.268394
H86	H	1.121444	0.499919	0.231606
C87	C	1.015663	-0.535435	-0.254985
C88	C	1.515663	-0.035435	0.245015
H89	H	1.020388	-0.610433	-0.251540
H90	H	1.520388	-0.110433	0.248460
H91	H	0.953505	-0.517080	-0.241754
H92	H	1.453505	-0.017080	0.258246
H93	H	1.027068	-0.517065	-0.305366
H94	H	1.527068	-0.017065	0.194634
C95	C	1.295013	-0.000104	0.609481
C96	C	1.795013	0.499896	1.109481
H97	H	1.347139	-0.000124	0.576518
H98	H	1.847139	0.499876	1.076518
H99	H	1.301816	0.062192	0.643242
H100	H	1.801816	0.562192	1.143242
H101	H	1.294161	-0.062407	0.637659
H102	H	1.794161	0.437593	1.137659
C103	C	1.306286	-0.000130	0.045627
C104	C	1.806286	0.499870	0.545627
H105	H	1.357019	-0.000124	0.082394
H106	H	1.857019	0.499876	0.582394
H107	H	1.306673	-0.062426	0.012130
H108	H	1.806673	0.437574	0.512130
H109	H	1.314316	0.062173	0.017715
H110	H	1.814316	0.562173	0.517715
C111	C	1.302965	-0.000129	0.211625
C112	C	1.802965	0.499871	0.711625
H113	H	1.355091	-0.000152	0.178664
H114	H	1.855091	0.499848	0.678664
H115	H	1.309770	0.062166	0.245388
H116	H	1.809770	0.562166	0.745388
H117	H	1.302107	-0.062434	0.239803
H118	H	1.802107	0.437566	0.739803
C119	C	1.298322	-0.000115	0.443476
C120	C	1.798322	0.499885	0.943476
H121	H	1.287008	-0.000125	0.390278
H122	H	1.787008	0.499875	0.890278
H123	H	1.337372	0.062175	0.460534
H124	H	1.837372	0.562175	0.960534
H125	H	1.329718	-0.062424	0.454953
H126	H	1.829718	0.437576	0.954953
H127	H	0.957201	-0.000067	0.585688
H128	H	1.457201	0.499933	1.085688
H129	H	0.960068	-0.000058	0.442281
H130	H	1.460068	0.499942	0.942281
H131	H	0.965169	-0.000066	0.187837
H132	H	1.465169	0.499934	0.687837
H133	H	0.968030	-0.000076	0.044417
H134	H	1.468030	0.499924	0.544417
