data_functionalizedCrystal
_audit_creation_method	'MofGen! by Chris Wilmer'
_symmetry_space_group_name_H-M	'P1'
_symmetry_Int_Tables_number	1
_symmetry_cell_setting	triclinic
loop_
_symmetry_equiv_pos_as_xyz
  x,y,z
_cell_length_a	12.811457
_cell_length_b	11.892095
_cell_length_c	12.837942
_cell_angle_alpha	94.302569
_cell_angle_beta	89.411937
_cell_angle_gamma	91.498327
loop_
_atom_site_label
_atom_site_type_symbol
_atom_site_fract_x
_atom_site_fract_y
_atom_site_fract_z
O1	O	1.403418	0.049870	0.143175
O2	O	1.101350	0.018901	0.156192
O3	O	1.245685	0.033706	-0.001296
O4	O	1.259082	0.035066	0.300663
O5	O	1.233649	0.220479	0.011815
O6	O	1.089313	0.205674	0.169303
O7	O	1.391381	0.236643	0.156286
Zn8	Zn	1.238436	0.250813	0.164876
Zn9	Zn	1.254295	0.004732	0.147602
O10	O	1.247046	0.221838	0.313774
C11	C	1.056400	0.108296	0.161616
C12	C	0.940394	0.096403	0.158233
C13	C	0.709282	0.277697	0.166152
C14	C	0.600284	0.266528	0.162973
C15	C	0.613398	0.062897	0.148690
C16	C	0.722396	0.074066	0.151869
C17	C	0.770334	0.181470	0.160601
C18	C	0.879334	0.192638	0.163787
C19	C	0.892446	-0.010992	0.149497
C20	C	0.783448	-0.022161	0.146318
C21	C	1.235142	0.126628	-0.033413
C22	C	1.221645	0.125242	-0.148646
C23	C	1.436332	0.147246	0.150862
C24	C	1.552338	0.159132	0.154244
N25	N	1.227621	0.418758	0.176664
N26	N	1.265118	-0.163212	0.135806
C27	C	1.340371	0.666970	0.053718
C28	C	1.332819	0.784538	0.061965
C29	C	1.204961	0.771461	0.201401
C30	C	1.212513	0.653894	0.193154
C31	C	1.280221	0.601653	0.119311
C32	C	1.287778	0.484084	0.111069
C33	C	1.159914	0.471009	0.250499
C34	C	1.152363	0.588576	0.258747
C35	C	1.383903	0.141854	-0.387735
C36	C	1.371227	0.140552	-0.496007
C37	C	1.183617	0.121330	-0.473465
C38	C	1.196293	0.122631	-0.365193
C39	C	1.296440	0.132895	-0.322332
C40	C	1.309115	0.134205	-0.214057
C41	C	1.121506	0.114974	-0.191518
C42	C	1.108830	0.113673	-0.299790
C43	C	1.257590	0.128914	0.345891
C44	C	1.271087	0.130292	0.461124
H45	H	0.550579	0.344887	0.167498
N46	N	1.491911	0.152943	-0.341499
H47	H	1.505820	0.084681	-0.301929
H48	H	1.496804	0.223191	-0.292275
H49	H	1.442450	0.147844	-0.549255
H50	H	1.050286	0.107688	-0.138254
H51	H	0.748313	0.365149	0.173275
N52	N	0.931043	0.308473	0.173213
H53	H	0.875823	0.367737	0.176244
H54	H	0.978056	0.317754	0.110646
H55	H	0.574348	-0.024546	0.141563
N56	N	1.360792	0.427751	0.031408
H57	H	1.319490	0.374433	-0.018441
H58	H	1.414049	0.384159	0.068260
H59	H	1.102083	0.112961	-0.508383
H60	H	0.942166	-0.089348	0.144984
H61	H	1.097233	0.631124	0.318866
N62	N	1.095030	0.400570	0.321258
H63	H	1.142590	0.356339	0.364270
H64	H	1.048040	0.346727	0.277559
N65	N	0.731741	-0.137998	0.136891
H66	H	0.653427	-0.130474	0.135716
H67	H	0.751581	-0.180718	0.198527
H68	H	1.027293	0.105312	-0.334703
H69	H	1.395509	0.624436	-0.006402
N70	N	1.397704	0.854991	-0.008772
H71	H	1.441743	0.804053	-0.056796
H72	H	1.444630	0.908883	0.034948
H73	H	1.149827	0.814010	0.261516
H74	H	1.390659	0.142567	-0.179162
