data_functionalizedCrystal
_audit_creation_method	'MofGen! by Chris Wilmer'
_symmetry_space_group_name_H-M	'P1'
_symmetry_Int_Tables_number	1
_symmetry_cell_setting	triclinic
loop_
_symmetry_equiv_pos_as_xyz
  x,y,z
_cell_length_a	21.295418
_cell_length_b	18.050589
_cell_length_c	18.050582
_cell_angle_alpha	90.018205
_cell_angle_beta	90.034107
_cell_angle_gamma	90.044036
loop_
_atom_site_label
_atom_site_type_symbol
_atom_site_fract_x
_atom_site_fract_y
_atom_site_fract_z
Zn1	Zn	-0.962306	0.295393	-0.420315
Zn2	Zn	-0.462306	0.795393	0.079685
Zn3	Zn	-0.962230	0.419576	-0.296135
Zn4	Zn	-0.462230	0.919576	0.203865
Zn5	Zn	-0.857047	0.295439	-0.296098
Zn6	Zn	-0.357047	0.795439	0.203902
Zn7	Zn	-0.857003	0.419580	-0.420242
Zn8	Zn	-0.357003	0.919580	0.079758
O9	O	-0.909646	0.357497	-0.358197
O10	O	-0.409646	0.857497	0.141803
O11	O	-1.050385	0.311846	-0.403889
O12	O	-0.550385	0.811846	0.096111
O13	O	-0.948264	0.403127	-0.192205
O14	O	-0.448264	0.903127	0.307795
O15	O	-0.871060	0.191508	-0.312591
O16	O	-0.371060	0.691508	0.187409
O17	O	-1.050330	0.403083	-0.312654
O18	O	-0.550330	0.903083	0.187346
O19	O	-0.948393	0.191475	-0.403853
O20	O	-0.448393	0.691475	0.096147
O21	O	-0.870986	0.311924	-0.192178
O22	O	-0.370986	0.811924	0.307822
O23	O	-0.768952	0.311927	-0.312520
O24	O	-0.268952	0.811927	0.187480
O25	O	-0.870985	0.403089	-0.524176
O26	O	-0.370985	0.903089	-0.024176
O27	O	-0.768919	0.403133	-0.403727
O28	O	-0.268919	0.903133	0.096273
O29	O	-0.948350	0.311849	-0.524230
O30	O	-0.448350	0.811849	-0.024230
O31	O	-0.948221	0.523502	-0.312582
O32	O	-0.448221	1.023502	0.187418
O33	O	-0.870911	0.523504	-0.403763
O34	O	-0.370911	1.023504	0.096237
C35	C	-0.746095	0.357536	-0.358112
C36	C	-0.246095	0.857536	0.141888
C37	C	-0.676127	0.357571	-0.358093
C38	C	-0.176127	0.857571	0.141907
C39	C	-0.909570	0.550449	-0.358185
C40	C	-0.409570	1.050449	0.141815
C41	C	-0.909596	0.632995	-0.358205
C42	C	-0.409596	1.132995	0.141795
C43	C	-1.073837	0.357459	-0.358284
C44	C	-0.573837	0.857459	0.141716
C45	C	-1.143805	0.357442	-0.358320
C46	C	-0.643805	0.857442	0.141680
C47	C	-0.643260	0.405125	-0.405514
C48	C	-0.143260	0.905125	0.094486
C49	C	-0.577517	0.405106	-0.405547
C50	C	-0.077517	0.905106	0.094453
C51	C	-0.544644	0.357542	-0.358146
C52	C	-0.044644	0.857542	0.141854
C53	C	-0.577519	0.309979	-0.310722
C54	C	-0.077519	0.809979	0.189278
C55	C	-0.643260	0.309993	-0.310695
C56	C	-0.143260	0.809993	0.189305
N57	N	-0.441377	0.351735	-0.293191
N58	N	0.058623	0.851735	0.206809
N59	N	-0.378926	0.351726	-0.293218
N60	N	0.121074	0.851726	0.206782
C61	C	-0.346570	0.357495	-0.358225
C62	C	0.153430	0.857495	0.141775
N63	N	-0.379024	0.363288	-0.423205
N64	N	0.120976	0.863288	0.076795
N65	N	-0.441481	0.363301	-0.423177
N66	N	0.058519	0.863301	0.076823
C67	C	-0.473359	0.357521	-0.358170
C68	C	0.026641	0.857521	0.141830
C69	C	-0.242417	0.405031	-0.405686
C70	C	0.257583	0.905031	0.094314
C71	C	-0.176673	0.405008	-0.405721
C72	C	0.323327	0.905008	0.094279
C73	C	-0.176677	0.309884	-0.310889
C74	C	0.323323	0.809884	0.189111
C75	C	-0.242419	0.309904	-0.310861
C76	C	0.257581	0.809904	0.189139
C77	C	-0.275285	0.357481	-0.358259
C78	C	0.224715	0.857481	0.141741
C79	C	-0.909671	0.357464	-0.551903
C80	C	-0.409671	0.857464	-0.051903
C81	C	-0.909682	0.357450	-0.634449
C82	C	-0.409682	0.857450	-0.134449
C83	C	-0.909740	0.163792	-0.358226
C84	C	-0.409740	0.663792	0.141774
C85	C	-0.909780	0.081246	-0.358238
C86	C	-0.409780	0.581246	0.141762
C87	C	-0.867596	0.832474	-0.407771
C88	C	-0.367596	1.332474	0.092229
C89	C	-0.852255	0.881913	-0.339998
C90	C	-0.352255	1.381913	0.160002
C91	C	-0.909657	0.784125	-0.358214
C92	C	-0.409657	1.284125	0.141786
C93	C	-0.925029	0.881768	-0.425995
C94	C	-0.425029	1.381768	0.074005
C95	C	-0.909716	0.930111	-0.358230
C96	C	-0.409716	1.430111	0.141770
C97	C	-0.894287	0.832477	-0.290405
C98	C	-0.394287	1.332477	0.209595
C99	C	-0.967087	0.832328	-0.376448
C100	C	-0.467087	1.332328	0.123552
C101	C	-0.951768	0.881745	-0.308628
C102	C	-0.451768	1.381745	0.191372
C103	C	-0.909622	0.700027	-0.358206
C104	C	-0.409622	1.200027	0.141794
C105	C	-0.909751	1.014207	-0.358230
C106	C	-0.409751	1.514207	0.141770
C107	C	-0.867642	0.406999	-0.833870
C108	C	-0.367642	0.906999	-0.333870
C109	C	-0.925074	0.425133	-0.883286
C110	C	-0.425074	0.925133	-0.383286
C111	C	-0.909713	0.357394	-0.785579
C112	C	-0.409713	0.857394	-0.285579
C113	C	-0.852313	0.339238	-0.883246
C114	C	-0.352313	0.839238	-0.383246
C115	C	-0.909738	0.357340	-0.931565
C116	C	-0.409738	0.857340	-0.431565
C117	C	-0.967174	0.375564	-0.833908
C118	C	-0.467174	0.875564	-0.333908
C119	C	-0.894375	0.289637	-0.833863
C120	C	-0.394375	0.789637	-0.333863
C121	C	-0.951846	0.307746	-0.883256
C122	C	-0.451846	0.807746	-0.383256
C123	C	-0.909697	0.357426	-0.701481
C124	C	-0.409697	0.857426	-0.201481
C125	C	-0.909759	0.357307	-1.015661
C126	C	-0.409759	0.857307	-0.515661
C127	C	-0.909658	0.357476	-0.165245
C128	C	-0.409658	0.857476	0.334755
C129	C	-0.909770	0.357281	-0.082700
C130	C	-0.409770	0.857281	0.417300
H131	H	-0.670015	0.443865	-0.444110
H132	H	-0.170015	0.943865	0.055890
H133	H	-0.670020	0.271267	-0.272079
H134	H	-0.170020	0.771267	0.227921
H135	H	-0.832098	0.449003	-0.812187
H136	H	-0.332098	0.949003	-0.312187
H137	H	-0.987364	0.903243	-0.266677
H138	H	-0.487364	1.403243	0.233323
O139	O	-1.025158	0.393921	-0.808292
O140	O	-0.525158	0.893921	-0.308292
C141	C	-1.065727	0.406745	-0.868691
C142	C	-0.565727	0.906745	-0.368691
H143	H	-1.047156	0.376660	-0.919701
H144	H	-0.547156	0.876660	-0.419701
H145	H	-1.114659	0.385214	-0.854785
H146	H	-0.614659	0.885214	-0.354785
H147	H	-1.068173	0.468731	-0.880427
H148	H	-0.568173	0.968731	-0.380427
O149	O	-0.940480	0.493456	-0.909280
O150	O	-0.440480	0.993456	-0.409280
C151	C	-0.891013	0.520961	-0.953298
C152	C	-0.391013	1.020961	-0.453298
H153	H	-0.861742	0.472743	-0.974937
H154	H	-0.361742	0.972743	-0.474937
H155	H	-0.911214	0.553299	-1.002024
H156	H	-0.411214	1.053299	-0.502024
H157	H	-0.860086	0.559083	-0.918530
H158	H	-0.360086	1.059083	-0.418530
O159	O	-0.144829	0.263716	-0.264732
O160	O	0.355171	0.763716	0.235268
C161	C	-0.160820	0.279870	-0.190685
C162	C	0.339180	0.779870	0.309315
H163	H	-0.208525	0.308436	-0.189091
H164	H	0.291475	0.808436	0.310909
H165	H	-0.163099	0.226231	-0.157469
H166	H	0.336901	0.726231	0.342531
H167	H	-0.123768	0.318005	-0.165617
H168	H	0.376232	0.818005	0.334383
O169	O	-0.940441	0.907511	-0.494426
O170	O	-0.440441	1.407511	0.005574
C171	C	-0.895930	0.882423	-0.546482
C172	C	-0.395930	1.382423	-0.046482
H173	H	-0.871943	0.830467	-0.524436
H174	H	-0.371943	1.330467	-0.024436
H175	H	-0.920574	0.869053	-0.600957
H176	H	-0.420574	1.369053	-0.100957
H177	H	-0.859282	0.927461	-0.556146
H178	H	-0.359282	1.427461	-0.056146
H179	H	-0.550752	0.443830	-0.444166
H180	H	-0.050752	0.943830	0.055834
H181	H	-0.987475	0.265774	-0.904804
H182	H	-0.487475	0.765774	-0.404804
O183	O	-0.274375	0.451319	-0.451626
O184	O	0.225625	0.951319	0.048374
C185	C	-0.312338	0.499227	-0.409250
C186	C	0.187662	0.999227	0.090750
H187	H	-0.292475	0.503730	-0.350759
H188	H	0.207525	1.003730	0.149241
H189	H	-0.313057	0.556416	-0.436015
H190	H	0.186943	1.056416	0.063985
H191	H	-0.362180	0.476276	-0.406708
H192	H	0.137820	0.976276	0.093292
H193	H	-0.550750	0.271251	-0.272129
H194	H	-0.050750	0.771251	0.227871
H195	H	-0.149914	0.443730	-0.444341
H196	H	0.350086	0.943730	0.055659
H197	H	-0.881370	0.232376	-0.812138
H198	H	-0.381370	0.732376	-0.312138
H199	H	-0.881253	0.810915	-0.233074
H200	H	-0.381253	1.310915	0.266926
O201	O	-0.274418	0.263819	-0.264752
O202	O	0.225582	0.763819	0.235248
C203	C	-0.312360	0.306045	-0.216686
C204	C	0.187640	0.806045	0.283314
H205	H	-0.322184	0.362363	-0.242780
H206	H	0.177816	0.862363	0.257220
H207	H	-0.358606	0.275792	-0.206764
H208	H	0.141394	0.775792	0.293236
H209	H	-0.286972	0.314124	-0.161648
H210	H	0.213028	0.814124	0.338352
O211	O	-0.825016	0.806692	-0.457614
O212	O	-0.325016	1.306692	0.042386
C213	C	-0.764562	0.831978	-0.438124
C214	C	-0.264562	1.331978	0.061876
H215	H	-0.763415	0.845859	-0.376523
H216	H	-0.263415	1.345859	0.123477
H217	H	-0.728626	0.786855	-0.450453
H218	H	-0.228626	1.286855	0.049547
H219	H	-0.752760	0.883664	-0.471637
H220	H	-0.252760	1.383664	0.028363
H221	H	-1.015615	0.810534	-0.391889
H222	H	-0.515615	1.310534	0.108111
O223	O	-0.794344	0.321027	-0.909015
O224	O	-0.294344	0.821027	-0.409015
C225	C	-0.750133	0.373514	-0.883867
C226	C	-0.250133	0.873514	-0.383867
H227	H	-0.768761	0.401816	-0.831875
H228	H	-0.268761	0.901816	-0.331875
H229	H	-0.703998	0.344415	-0.870537
H230	H	-0.203998	0.844415	-0.370537
H231	H	-0.741889	0.416752	-0.928853
H232	H	-0.241889	0.916752	-0.428853
O233	O	-0.794353	0.907989	-0.321703
O234	O	-0.294353	1.407989	0.178297
C235	C	-0.771017	0.952039	-0.380022
C236	C	-0.271017	1.452039	0.119978
H237	H	-0.811875	0.973620	-0.414651
H238	H	-0.311875	1.473620	0.085349
H239	H	-0.743621	1.000803	-0.356143
H240	H	-0.243621	1.500803	0.143857
H241	H	-0.738685	0.917315	-0.416427
H242	H	-0.238685	1.417315	0.083573
