data_functionalizedCrystal
_audit_creation_method	'MofGen! by Chris Wilmer'
_symmetry_space_group_name_H-M	'P1'
_symmetry_Int_Tables_number	1
_symmetry_cell_setting	triclinic
loop_
_symmetry_equiv_pos_as_xyz
  x,y,z
_cell_length_a	12.837943
_cell_length_b	11.026607
_cell_length_c	10.065875
_cell_angle_alpha	100.731764
_cell_angle_beta	80.315527
_cell_angle_gamma	101.707478
loop_
_atom_site_label
_atom_site_type_symbol
_atom_site_fract_x
_atom_site_fract_y
_atom_site_fract_z
O1	O	1.447717	0.305994	-0.113461
O2	O	1.142940	0.290066	-0.113469
O3	O	1.270069	0.118456	-0.113461
O4	O	1.320589	0.477603	-0.113469
O5	O	1.245854	0.151326	0.113526
O6	O	1.118726	0.322935	0.113518
O7	O	1.423503	0.338863	0.113526
Zn8	Zn	1.267270	0.336118	0.149561
Zn9	Zn	1.299173	0.292811	-0.149504
O10	O	1.296375	0.510472	0.113518
C11	C	1.248642	0.088602	0.000031
C12	C	1.220859	-0.049325	0.000025
C13	C	1.091209	0.301119	0.000023
C14	C	0.973137	0.285072	0.000020
C15	C	1.297573	-0.114260	0.000025
C16	C	1.268860	-0.256816	0.000020
C17	C	0.768177	0.477992	0.000035
C18	C	0.657239	0.462919	0.000033
C19	C	0.640320	0.239857	0.000024
C20	C	0.751258	0.254929	0.000026
C21	C	0.815183	0.374000	0.000029
C22	C	0.926125	0.389070	0.000022
C23	C	0.909202	0.166010	0.000022
C24	C	0.798264	0.150938	0.000020
C25	C	1.475235	0.327809	0.000031
C26	C	1.593307	0.343855	0.000025
C27	C	1.317802	0.540326	0.000023
C28	C	1.345585	0.678253	0.000020
N29	N	1.245504	0.365674	0.353665
N30	N	1.320946	0.263247	-0.353608
C31	C	1.291592	0.303086	0.421447
C32	C	1.274851	0.325843	0.578613
H33	H	1.384506	-0.064314	0.000036
H34	H	1.222990	0.396275	0.636931
H35	H	1.372797	0.192805	0.588074
O36	O	0.954724	0.064919	0.000200
C37	C	0.909954	0.010418	0.117772
H38	H	0.827630	0.036858	0.156972
H39	H	0.901242	-0.095954	0.091324
H40	H	0.964787	0.046277	0.200088
H41	H	1.432537	-0.271825	-0.000080
H42	H	1.343440	0.232649	0.363126
O43	O	1.183551	0.449546	0.423383
C44	C	1.096881	0.387632	0.506027
H45	H	1.118484	0.298415	0.527283
H46	H	1.079251	0.451981	0.606571
H47	H	1.022828	0.362439	0.451059
O48	O	1.165188	-0.316569	0.000072
C49	C	1.159601	-0.445604	0.000029
H50	H	1.232073	-0.460073	0.043005
H51	H	1.082804	-0.483102	0.065923
H52	H	1.159407	-0.497977	-0.108871
O53	O	0.830119	0.593744	0.000090
C54	C	0.764844	0.682295	0.000048
H55	H	0.678699	0.645083	0.043023
H56	H	0.795788	0.774196	0.065942
H57	H	0.767264	0.699211	-0.108852
O58	O	1.117203	-0.109062	-0.000163
C59	C	1.109110	-0.200814	-0.117745
H60	H	1.190833	-0.228920	-0.156937
H61	H	1.048338	-0.286652	-0.091313
H62	H	1.081615	-0.161065	-0.200062
H63	H	0.746200	0.053996	0.000033
H64	H	0.978171	0.486024	0.000027
H65	H	0.588241	0.142931	0.000133
O66	O	0.611474	0.563815	-0.000151
C67	C	0.560376	0.544767	-0.117729
H68	H	0.540591	0.440002	-0.156925
H69	H	0.483124	0.585199	-0.091293
H70	H	0.616089	0.593696	-0.200045
