data_functionalizedCrystal
_audit_creation_method	'MofGen! by Chris Wilmer'
_symmetry_space_group_name_H-M	'P1'
_symmetry_Int_Tables_number	1
_symmetry_cell_setting	triclinic
loop_
_symmetry_equiv_pos_as_xyz
  x,y,z
_cell_length_a	9.065218
_cell_length_b	11.804365
_cell_length_c	13.339070
_cell_angle_alpha	105.104719
_cell_angle_beta	79.677406
_cell_angle_gamma	102.026252
loop_
_atom_site_label
_atom_site_type_symbol
_atom_site_fract_x
_atom_site_fract_y
_atom_site_fract_z
O1	O	2.039985	0.099046	-0.128657
O2	O	1.615463	0.099049	-0.140869
O3	O	1.778996	0.099021	0.012941
O4	O	1.876451	0.099074	-0.282468
O5	O	1.735927	-0.099027	-0.027510
O6	O	1.572394	-0.098999	-0.181320
O7	O	1.996916	-0.099002	-0.169108
Cu8	Cu	1.780722	-0.117084	-0.178908
Cu9	Cu	1.831656	0.117131	-0.131070
O10	O	1.833382	-0.098974	-0.322919
C11	C	1.538484	0.000025	-0.159921
C12	C	1.373273	0.000025	-0.156412
N13	N	1.744908	-0.281819	-0.212554
C14	C	1.953473	-0.655803	-0.016599
C15	C	1.980562	-0.531146	0.008858
C16	C	1.921651	-0.468808	-0.046492
C17	C	1.835646	-0.531139	-0.127305
C18	C	1.808563	-0.655809	-0.152771
C19	C	1.776741	-0.468814	-0.182664
C20	C	1.690736	-0.531145	-0.263477
C21	C	1.663657	-0.655802	-0.288938
C22	C	1.722569	-0.718140	-0.233587
C23	C	1.803824	-0.344144	-0.157198
C24	C	1.658914	-0.344150	-0.293370
C25	C	1.631825	-0.468807	-0.318828
C26	C	2.073895	0.000025	-0.150056
C27	C	2.239108	0.000032	-0.153564
C28	C	1.741001	-0.000007	0.030555
C29	C	1.691935	-0.000020	0.143304
N30	N	1.867479	0.281866	-0.097416
C31	C	2.073413	-0.000078	0.504589
C32	C	2.119517	-0.000073	0.398655
C33	C	2.012625	-0.000059	0.334812
C34	C	1.859622	-0.000052	0.376914
C35	C	1.813512	-0.000066	0.482856
C36	C	1.752724	-0.000047	0.313079
C37	C	1.599721	-0.000040	0.355180
C38	C	1.553619	-0.000053	0.461113
C39	C	1.660511	-0.000067	0.524956
C40	C	1.798834	-0.000033	0.207137
C41	C	1.538933	-0.000021	0.185403
C42	C	1.492830	-0.000026	0.291337
C43	C	1.871369	0.000018	0.659460
C44	C	1.920412	-0.000079	0.546689
H45	H	1.873849	-0.293405	-0.091401
H46	H	1.943711	-0.367307	-0.025761
Br47	Br	1.345968	-0.000066	0.518244
H48	H	1.368252	-0.000020	0.325631
Br49	Br	1.515103	-0.553411	-0.428499
H50	H	1.451891	-0.000015	0.133421
H51	H	1.700508	-0.819646	-0.254312
H52	H	2.160425	-0.000099	0.556577
Br53	Br	1.546965	-0.740398	-0.398627
H54	H	2.001441	-0.706567	0.028455
Br55	Br	2.075197	-0.000049	0.191043
Br56	Br	1.578970	-0.259557	-0.368501
Br57	Br	1.597981	0.000087	0.668763
H58	H	2.050588	-0.480401	0.074655
H59	H	2.244091	-0.000081	0.364384
H60	H	1.923410	-0.000039	0.172868
