data_functionalizedCrystal
_audit_creation_method	'MofGen! by Chris Wilmer'
_symmetry_space_group_name_H-M	'P1'
_symmetry_Int_Tables_number	1
_symmetry_cell_setting	triclinic
loop_
_symmetry_equiv_pos_as_xyz
  x,y,z
_cell_length_a	13.185408
_cell_length_b	11.804365
_cell_length_c	16.109301
_cell_angle_alpha	78.174178
_cell_angle_beta	67.717490
_cell_angle_gamma	97.766955
loop_
_atom_site_label
_atom_site_type_symbol
_atom_site_fract_x
_atom_site_fract_y
_atom_site_fract_z
O1	O	1.469060	0.098922	-0.238307
O2	O	1.151539	0.098948	-0.154032
O3	O	1.319019	0.098922	-0.319148
O4	O	1.301580	0.098948	-0.073191
O5	O	1.274928	-0.099127	-0.275713
O6	O	1.107448	-0.099101	-0.110597
O7	O	1.424969	-0.099127	-0.194872
Cu8	Cu	1.262182	-0.117197	-0.148769
Cu9	Cu	1.314325	0.117019	-0.200135
O10	O	1.257488	-0.099101	-0.029757
C11	C	1.088862	-0.000073	-0.123771
C12	C	0.967795	-0.000063	-0.098324
N13	N	1.225516	-0.281932	-0.112643
C14	C	0.897896	-0.000052	-0.007714
C15	C	0.784143	-0.000060	0.016201
C16	C	0.740280	-0.000071	-0.050493
C17	C	0.810182	-0.000074	-0.141106
C18	C	0.923944	-0.000075	-0.165022
C19	C	0.766328	-0.000094	-0.207800
C20	C	0.836230	-0.000098	-0.298414
C21	C	0.949981	-0.000098	-0.322326
C22	C	0.993843	-0.000087	-0.255632
C23	C	0.652566	-0.000093	-0.183885
C24	C	0.678615	-0.000117	-0.341192
C25	C	0.792368	-0.000108	-0.365108
C26	C	1.439051	-0.655914	-0.323039
C27	C	1.466788	-0.531257	-0.350371
C28	C	1.406472	-0.468919	-0.290941
C29	C	1.318415	-0.531252	-0.204174
C30	C	1.290681	-0.655921	-0.176836
C31	C	1.258102	-0.468927	-0.144739
C32	C	1.170045	-0.531259	-0.057971
C33	C	1.142315	-0.655917	-0.030638
C34	C	1.202631	-0.718254	-0.090067
C35	C	1.285836	-0.344257	-0.172077
C36	C	1.137466	-0.344265	-0.025874
C37	C	1.109729	-0.468922	0.001458
C38	C	1.487646	-0.000103	-0.225134
C39	C	1.608715	-0.000105	-0.250583
C40	C	1.296267	-0.000103	-0.328247
C41	C	1.294148	-0.000104	-0.420068
N42	N	1.351001	0.281754	-0.236270
C43	C	1.388607	-0.000093	-0.663458
C44	C	1.386610	-0.000083	-0.749734
C45	C	1.187896	-0.000071	-0.685440
C46	C	1.189896	-0.000073	-0.599168
C47	C	1.290254	-0.000090	-0.588179
C48	C	1.286257	-0.000078	-0.760727
C49	C	1.284091	-0.000068	-0.854271
C50	C	1.292421	-0.000098	-0.494631
C51	C	1.280241	-0.000073	-0.020658
C52	C	1.282362	-0.000064	0.071162
H53	H	0.595662	-0.000092	-0.110106
H54	H	1.109800	-0.000067	-0.537871
Br55	Br	1.520098	-0.000081	-0.851899
Br56	Br	1.148231	-0.000063	-0.288088
H57	H	1.088353	-0.293510	0.022520
Br58	Br	0.585899	-0.000079	-0.018035
H59	H	0.727237	-0.000057	0.089979
Br60	Br	1.524806	-0.000117	-0.648547
H61	H	1.488158	-0.706677	-0.371416
H62	H	1.006889	-0.000116	-0.396106
H63	H	1.357532	-0.293517	-0.242723
H64	H	0.933618	-0.000052	0.046580
Br65	Br	1.164977	-0.887439	-0.052974
Br66	Br	1.022826	-0.740514	0.087126
Br67	Br	0.990224	-0.553528	0.119211
H68	H	1.429059	-0.367418	-0.313200
H69	H	0.849297	-0.000111	-0.438887
Br70	Br	0.619095	-0.000144	-0.431709
H71	H	1.106188	-0.000060	-0.694399
Br72	Br	1.586289	-0.446664	-0.468118
