data_functionalizedCrystal
_audit_creation_method	'MofGen! by Chris Wilmer'
_symmetry_space_group_name_H-M	'P1'
_symmetry_Int_Tables_number	1
_symmetry_cell_setting	triclinic
loop_
_symmetry_equiv_pos_as_xyz
  x,y,z
_cell_length_a	10.489741
_cell_length_b	10.065875
_cell_length_c	11.026607
_cell_angle_alpha	79.268236
_cell_angle_beta	96.562595
_cell_angle_gamma	98.834861
loop_
_atom_site_label
_atom_site_type_symbol
_atom_site_fract_x
_atom_site_fract_y
_atom_site_fract_z
O1	O	1.746374	0.113403	0.153857
O2	O	1.378724	0.113423	0.169957
O3	O	1.532078	0.113410	-0.015012
O4	O	1.593020	0.113416	0.338826
O5	O	1.502868	-0.113576	0.020402
O6	O	1.349514	-0.113563	0.205370
O7	O	1.717165	-0.113584	0.189271
Zn8	Zn	1.528702	-0.149612	0.202943
Zn9	Zn	1.567187	0.149452	0.156284
O10	O	1.563810	-0.113570	0.374239
C11	C	1.316320	-0.000067	0.186447
C12	C	1.173891	-0.000059	0.182807
N13	N	1.502446	-0.353715	0.234786
C14	C	1.558042	-0.421499	0.167355
C15	C	1.537846	-0.578665	0.191872
C16	C	1.079860	-0.000074	0.065118
C17	C	1.014365	0.111840	0.103253
C18	C	0.985606	-0.111950	0.138197
C19	C	1.110283	0.111948	0.220977
C20	C	1.081518	-0.111944	0.255919
C21	C	1.016072	-0.000002	0.294136
C22	C	1.779569	-0.000090	0.172780
C23	C	1.921999	-0.000089	0.176419
C24	C	1.506231	-0.000081	-0.042615
C25	C	1.472717	-0.000074	-0.177623
N26	N	1.593451	0.353555	0.124431
C27	C	1.565256	-0.000078	-0.250619
C28	C	1.530620	-0.000071	-0.390157
C29	C	1.589658	-0.000076	0.401842
C30	C	1.623173	-0.000074	0.536848
H31	H	1.620585	-0.363180	0.091470
N32	N	0.980799	0.000115	0.415612
N33	N	0.926720	0.095373	0.435432
H34	H	0.901807	0.095470	0.521222
N35	N	1.696820	-0.000108	-0.199455
N36	N	1.783839	-0.000121	-0.268010
H37	H	1.876760	-0.000145	-0.231879
H38	H	1.164246	0.206669	0.255957
H39	H	1.728062	0.000023	-0.422366
H40	H	1.475288	-0.636980	0.267754
H41	H	1.439891	-0.412036	0.310663
N42	N	1.118912	-0.230651	0.336853
N43	N	1.073088	-0.346776	0.314868
H44	H	1.099496	-0.430625	0.372021
N45	N	1.341151	-0.000054	-0.228783
N46	N	1.281208	0.095628	-0.220603
H47	H	1.188285	0.095642	-0.256730
H48	H	0.931494	-0.206565	0.103139
N49	N	1.671977	-0.573278	0.029282
N50	N	1.788451	-0.589109	0.034236
H51	H	1.843924	-0.537426	-0.032948
H52	H	0.984572	0.206455	0.038694
N53	N	1.115446	0.000044	-0.056295
N54	N	1.030810	0.001114	-0.145870
H55	H	1.055942	0.001201	-0.231618
N56	N	1.399062	-0.000046	-0.441355
N57	N	1.371113	-0.000034	-0.554635
H58	H	1.278201	-0.000015	-0.590797
