data_functionalizedCrystal
_audit_creation_method	'MofGen! by Chris Wilmer'
_symmetry_space_group_name_H-M	'P1'
_symmetry_Int_Tables_number	1
_symmetry_cell_setting	triclinic
loop_
_symmetry_equiv_pos_as_xyz
  x,y,z
_cell_length_a	15.995350
_cell_length_b	14.971486
_cell_length_c	13.448316
_cell_angle_alpha	90.006811
_cell_angle_beta	89.996887
_cell_angle_gamma	96.446748
loop_
_atom_site_label
_atom_site_type_symbol
_atom_site_fract_x
_atom_site_fract_y
_atom_site_fract_z
O1	O	1.111103	-0.115296	-0.082608
O2	O	1.611103	0.384704	0.417392
O3	O	0.867342	-0.129533	-0.082629
O4	O	1.367342	0.370467	0.417371
O5	O	0.995756	0.007793	-0.082611
O6	O	1.495756	0.507793	0.417389
O7	O	0.982690	-0.252622	-0.082626
O8	O	1.482690	0.247378	0.417374
O9	O	0.995740	0.007802	0.082773
O10	O	1.495740	0.507802	0.582773
O11	O	0.867326	-0.129524	0.082755
O12	O	1.367326	0.370476	0.582755
O13	O	1.111087	-0.115287	0.082776
O14	O	1.611087	0.384713	0.582776
Cu15	Cu	0.989205	-0.122405	0.097866
Cu16	Cu	1.489205	0.377595	0.597866
Cu17	Cu	0.989224	-0.122415	-0.097719
Cu18	Cu	1.489224	0.377585	0.402281
O19	O	0.982673	-0.252613	0.082758
O20	O	1.482673	0.247387	0.582758
C21	C	0.836139	-0.128940	0.000061
C22	C	1.336139	0.371060	0.500061
C23	C	0.743187	-0.127175	0.000053
C24	C	1.243187	0.372825	0.500053
C25	C	0.995164	0.041122	0.000081
C26	C	1.495164	0.541122	0.500081
C27	C	0.993413	0.140417	0.000080
C28	C	1.493413	0.640417	0.500080
N29	N	0.989198	-0.122397	0.235431
N30	N	1.489198	0.377603	0.735431
C31	C	0.405433	-0.120838	0.000074
C32	C	0.905433	0.379162	0.500074
C33	C	0.452769	-0.023037	0.000449
C34	C	0.952769	0.476963	0.500449
C35	C	0.549461	-0.024802	0.000069
C36	C	1.049461	0.475198	0.500069
C37	C	0.572997	-0.123982	0.000064
C38	C	1.072997	0.376018	0.500064
C39	C	0.531967	-0.172225	-0.094377
C40	C	1.031967	0.327775	0.405623
C41	C	0.435329	-0.169768	-0.094449
C42	C	0.935329	0.330232	0.405551
C43	C	0.434974	-0.171780	0.093623
C44	C	0.934974	0.328220	0.593623
C45	C	0.531919	-0.171756	0.094865
C46	C	1.031919	0.328244	0.594865
C47	C	0.667696	-0.125763	0.000055
C48	C	1.167696	0.374237	0.500055
C49	C	0.310733	-0.119060	0.000076
C50	C	0.810733	0.380940	0.500076
C51	C	1.142291	-0.115880	0.000084
C52	C	1.642291	0.384120	0.500084
C53	C	1.235243	-0.117645	0.000085
C54	C	1.735243	0.382355	0.500085
C55	C	0.983266	-0.285942	0.000064
C56	C	1.483266	0.214058	0.500064
C57	C	0.985017	-0.385237	0.000059
C58	C	1.485017	0.114763	0.500059
C59	C	1.068852	0.197728	0.000087
C60	C	1.568852	0.697728	0.500087
C61	C	1.067202	0.291026	0.000077
C62	C	1.567202	0.791026	0.500077
C63	C	0.990111	0.327010	0.000067
C64	C	1.490111	0.827010	0.500067
C65	C	0.914666	0.269691	0.000057
C66	C	1.414666	0.769691	0.500057
C67	C	0.916317	0.176395	0.000060
C68	C	1.416317	0.676395	0.500060
C69	C	0.911229	0.464150	0.000053
C70	C	1.411229	0.964150	0.500053
C71	C	0.909577	0.557452	0.000052
C72	C	1.409577	1.057452	0.500052
C73	C	1.062114	0.578780	0.000070
C74	C	1.562114	1.078780	0.500070
C75	C	1.063766	0.485484	0.000073
C76	C	1.563766	0.985484	0.500073
C77	C	0.988320	0.428172	0.000065
C78	C	1.488320	0.928172	0.500065
N79	N	0.989238	-0.122415	-0.235284
N80	N	1.489238	0.377585	0.264716
C81	C	1.046077	-0.061614	0.287479
C82	C	1.546077	0.438386	0.787479
C83	C	1.046083	-0.061614	0.391582
C84	C	1.546083	0.438386	0.891582
C85	C	0.989212	-0.122401	0.443635
C86	C	1.489212	0.377599	0.943635
C87	C	0.932326	-0.183187	0.391580
C88	C	1.432326	0.316813	0.891580
C89	C	0.932318	-0.183183	0.287478
C90	C	1.432318	0.316817	0.787478
C91	C	0.932350	-0.183193	0.608560
C92	C	1.432350	0.316807	1.108560
C93	C	0.932359	-0.183199	0.712668
C94	C	1.432359	0.316801	1.212668
C95	C	1.046114	-0.061624	0.712664
C96	C	1.546114	0.438376	1.212664
C97	C	1.046106	-0.061620	0.608562
C98	C	1.546106	0.438380	1.108562
C99	C	0.989221	-0.122407	0.556514
C100	C	1.489221	0.377593	1.056514
H101	H	0.577845	0.013120	0.067769
H102	H	1.077845	0.513120	0.567769
H103	H	0.560315	-0.138724	-0.164658
H104	H	1.060315	0.361276	0.335342
H105	H	1.092397	-0.012119	0.433959
H106	H	1.592397	0.487881	0.933959
C107	C	0.869750	-0.250006	0.769925
C108	C	1.369750	0.249994	1.269925
H109	H	0.835847	-0.286184	0.724019
H110	H	1.335847	0.213816	1.224019
H111	H	0.899854	-0.287285	0.810554
H112	H	1.399854	0.212715	1.310554
H113	H	0.834894	-0.217743	0.810516
H114	H	1.334894	0.282257	1.310516
H115	H	0.846803	0.586747	0.000059
H116	H	1.346803	1.086747	0.500059
H117	H	0.886017	-0.232678	0.433967
H118	H	1.386017	0.267322	0.933967
H119	H	1.092418	-0.012127	0.566181
H120	H	1.592418	0.487873	1.066181
C121	C	1.108680	0.005248	0.769912
C122	C	1.608680	0.505248	1.269912
H123	H	1.100534	-0.003450	0.839366
H124	H	1.600534	0.496550	1.339366
H125	H	1.164567	-0.004500	0.752843
H126	H	1.664567	0.495500	1.252843
H127	H	1.099523	0.064953	0.752859
H128	H	1.599523	0.564953	1.252859
C129	C	1.148563	0.445902	0.000082
C130	C	1.648563	0.945902	0.500082
H131	H	1.193260	0.493396	0.000076
H132	H	1.693260	0.993396	0.500076
H133	H	1.152372	0.409955	0.057754
H134	H	1.652372	0.909955	0.557754
H135	H	1.152378	0.409947	-0.057599
H136	H	1.652378	0.909947	0.442401
C137	C	0.568743	-0.124175	0.189254
C138	C	1.068743	0.375825	0.689254
H139	H	0.543642	-0.153381	0.246348
H140	H	1.043642	0.346619	0.746348
H141	H	0.627820	-0.126571	0.190999
H142	H	1.127820	0.373429	0.690999
H143	H	0.557473	-0.063214	0.188653
H144	H	1.057473	0.436786	0.688653
H145	H	0.854886	0.129732	0.000054
H146	H	1.354886	0.629732	0.500054
C147	C	0.829865	0.309267	0.000038
C148	C	1.329865	0.809267	0.500038
H149	H	0.785172	0.261770	0.000023
H150	H	1.285172	0.761770	0.500023
H151	H	0.826039	0.345226	0.057707
H152	H	1.326039	0.845226	0.557707
H153	H	0.826061	0.345209	-0.057646
H154	H	1.326061	0.845209	0.442354
C155	C	0.392170	-0.269191	0.094483
C156	C	0.892170	0.230809	0.594483
H157	H	0.356463	-0.278805	0.038143
H158	H	0.856463	0.221195	0.538143
H159	H	0.433879	-0.309592	0.092405
H160	H	0.933879	0.190408	0.592405
H161	H	0.359743	-0.279262	0.153425
H162	H	0.859743	0.220738	0.653425
H163	H	0.849793	0.417488	0.000043
H164	H	1.349793	0.917488	0.500043
H165	H	1.123545	0.625449	0.000073
H166	H	1.623545	1.125449	0.500073
H167	H	0.403153	-0.241573	-0.098738
H168	H	0.903153	0.258427	0.401262
C169	C	1.108635	0.005254	0.230230
C170	C	1.608635	0.505254	0.730230
H171	H	1.142505	0.041460	0.276141
H172	H	1.642505	0.541460	0.776141
H173	H	1.143516	-0.026939	0.189605
H174	H	1.643516	0.473061	0.689605
H175	H	1.078471	0.042512	0.189635
H176	H	1.578471	0.542512	0.689635
C177	C	0.869781	-0.250061	0.551308
C178	C	1.369781	0.249939	1.051308
H179	H	0.835919	-0.286272	0.597217
H180	H	1.335919	0.213728	1.097217
H181	H	0.834893	-0.217867	0.510708
H182	H	1.334893	0.282133	1.010708
H183	H	0.899942	-0.287314	0.510690
H184	H	1.399942	0.212686	1.010690
C185	C	0.551151	-0.270656	-0.099138
C186	C	1.051151	0.229344	0.400862
H187	H	0.584437	-0.283233	-0.043440
H188	H	1.084437	0.216767	0.456560
H189	H	0.499903	-0.309440	-0.098261
H190	H	0.999903	0.190560	0.401739
H191	H	0.580967	-0.280015	-0.158647
H192	H	1.080967	0.219985	0.341353
H193	H	0.886000	-0.232677	0.245101
H194	H	1.386000	0.267323	0.745101
H195	H	0.433143	0.015873	-0.066901
H196	H	0.933143	0.515873	0.433099
C197	C	0.427682	0.029782	0.091939
C198	C	0.927682	0.529782	0.591939
H199	H	0.388109	-0.007332	0.130728
H200	H	0.888109	0.492668	0.630728
H201	H	0.476243	0.047768	0.130825
H202	H	0.976243	0.547768	0.630825
H203	H	0.403195	0.081494	0.070706
H204	H	0.903195	0.581494	0.570706
C205	C	0.587057	0.026752	-0.091545
C206	C	1.087057	0.526752	0.408455
H207	H	0.543226	0.048850	-0.128681
H208	H	1.043226	0.548850	0.371319
H209	H	0.625979	0.075702	-0.070488
H210	H	1.125979	0.575702	0.429512
H211	H	0.615150	-0.012501	-0.132002
H212	H	1.115150	0.487499	0.367998
C213	C	0.410553	-0.122245	-0.189807
C214	C	0.910553	0.377755	0.310193
H215	H	0.459528	-0.104616	-0.228134
H216	H	0.959528	0.395384	0.271866
H217	H	0.372623	-0.162208	-0.227566
H218	H	0.872623	0.337792	0.272434
H219	H	0.384239	-0.070577	-0.172546
H220	H	0.884239	0.429423	0.327454
H221	H	0.414399	-0.139802	0.165207
H222	H	0.914399	0.360198	0.665207
C223	C	0.552768	-0.269461	0.102570
C224	C	1.052768	0.230539	0.602570
H225	H	0.586944	-0.282457	0.047823
H226	H	1.086944	0.217543	0.547823
H227	H	0.582122	-0.277028	0.162846
H228	H	1.082122	0.222972	0.662846
H229	H	0.502095	-0.309183	0.101772
H230	H	1.002095	0.190817	0.601772
H231	H	1.131629	0.168438	0.000101
H232	H	1.631629	0.668438	0.500101
H233	H	1.128633	0.337686	0.000085
H234	H	1.628633	0.837686	0.500085
