data_functionalizedCrystal
_audit_creation_method	'MofGen! by Chris Wilmer'
_symmetry_space_group_name_H-M	'P1'
_symmetry_Int_Tables_number	1
_symmetry_cell_setting	triclinic
loop_
_symmetry_equiv_pos_as_xyz
  x,y,z
_cell_length_a	15.995350
_cell_length_b	10.723024
_cell_length_c	9.198806
_cell_angle_alpha	89.997723
_cell_angle_beta	89.999688
_cell_angle_gamma	83.980122
loop_
_atom_site_label
_atom_site_type_symbol
_atom_site_fract_x
_atom_site_fract_y
_atom_site_fract_z
O1	O	-1.111909	-0.160840	0.120765
O2	O	-0.611909	0.339160	0.620765
O3	O	-0.868248	-0.180701	0.120795
O4	O	-0.368248	0.319299	0.620795
O5	O	-0.995699	0.010877	0.120774
O6	O	-0.495699	0.510877	0.620774
O7	O	-0.984458	-0.352418	0.120786
O8	O	-0.484458	0.147582	0.620786
O9	O	-0.995689	0.010879	-0.121011
O10	O	-0.495689	0.510879	0.378989
O11	O	-0.868238	-0.180700	-0.120990
O12	O	-0.368238	0.319300	0.379010
O13	O	-1.111899	-0.160838	-0.121020
O14	O	-0.611899	0.339162	0.378980
Cu15	Cu	-0.990067	-0.170769	-0.143082
Cu16	Cu	-0.490067	0.329231	0.356918
Cu17	Cu	-0.990079	-0.170771	0.142857
Cu18	Cu	-0.490079	0.329229	0.642857
O19	O	-0.984448	-0.352417	-0.120999
O20	O	-0.484448	0.147583	0.379001
C21	C	-0.837043	-0.179880	-0.000094
C22	C	-0.337043	0.320120	0.499906
C23	C	-0.744079	-0.177418	-0.000083
C24	C	-0.244079	0.322582	0.499917
C25	C	-1.143103	-0.161660	-0.000128
C26	C	-0.643103	0.338340	0.499872
C27	C	-1.236068	-0.164122	-0.000129
C28	C	-0.736068	0.335878	0.499871
C29	C	-0.406280	-0.168577	-0.000113
C30	C	0.093720	0.331423	0.499887
C31	C	-0.452931	-0.032138	-0.000657
C32	C	0.047069	0.467862	0.499343
C33	C	-0.549635	-0.034601	-0.000102
C34	C	-0.049635	0.465399	0.499898
C35	C	-0.573866	-0.172962	-0.000099
C36	C	-0.073866	0.327038	0.499901
C37	C	-0.533171	-0.240259	0.137969
C38	C	-0.033171	0.259741	0.637969
C39	C	-0.436516	-0.236832	0.138074
C40	C	0.063484	0.263168	0.638074
C41	C	-0.436182	-0.239649	-0.136881
C42	C	0.063818	0.260351	0.363119
C43	C	-0.533127	-0.239617	-0.138695
C44	C	-0.033127	0.260383	0.361305
C45	C	-0.668578	-0.175448	-0.000086
C46	C	-0.168578	0.324552	0.499914
C47	C	-0.311568	-0.166096	-0.000116
C48	C	0.188432	0.333904	0.499884
C49	C	-0.994876	0.057367	-0.000117
C50	C	-0.494876	0.557367	0.499883
C51	C	-0.992428	0.195890	-0.000111
C52	C	-0.492428	0.695890	0.499889
C53	C	-0.985271	-0.398907	-0.000105
C54	C	-0.485271	0.101093	0.499895
C55	C	-0.987718	-0.537430	-0.000101
C56	C	-0.487718	-0.037430	0.499899
N57	N	-0.990065	-0.170767	-0.344196
N58	N	-0.490065	0.329233	0.155804
C59	C	-1.063743	0.271783	-0.000118
C60	C	-0.563743	0.771783	0.499882
C61	C	-1.061215	0.414954	-0.000112
C62	C	-0.561215	0.914954	0.499888
C63	C	-1.038887	-0.242505	-0.416397
C64	C	-0.538887	0.257495	0.083603
C65	C	-1.038900	-0.242504	-0.583810
C66	C	-0.538900	0.257496	-0.083810
N67	N	-0.990088	-0.170763	0.343971
N68	N	-0.490088	0.329237	0.843971
H69	H	-0.577756	0.018298	-0.099075
H70	H	-0.077756	0.518298	0.400925
H71	H	-0.577191	0.018655	0.099040
H72	H	-0.077191	0.518655	0.599040
Br73	Br	-1.108550	-0.344871	-0.312866
Br74	Br	-0.608550	0.155129	0.187134
H75	H	-0.929501	0.236910	-0.000094
H76	H	-0.429501	0.736910	0.499906
Br77	Br	-1.108564	-0.344889	-0.687289
Br78	Br	-0.608564	0.155111	-0.187289
H79	H	-1.126670	0.230763	-0.000134
H80	H	-0.626670	0.730763	0.499866
Br81	Br	-0.920407	-0.068397	-0.552559
Br82	Br	-0.420407	0.431603	-0.052559
Br83	Br	-1.162978	0.523636	-0.000139
Br84	Br	-0.662978	1.023636	0.499861
H85	H	-0.404843	-0.337003	0.144342
H86	H	0.095157	0.162997	0.644342
H87	H	-0.417930	-0.187757	0.241281
H88	H	0.082070	0.312243	0.741281
Br89	Br	-0.578061	-0.157596	-0.308940
Br90	Br	-0.078061	0.342404	0.191060
H91	H	-0.948278	-0.109345	-0.406321
H92	H	-0.448278	0.390655	0.093679
Br93	Br	-0.557711	-0.409673	0.146570
Br94	Br	-0.057711	0.090327	0.646570
H95	H	-0.434091	0.022400	-0.099671
H96	H	0.065909	0.522400	0.400329
H97	H	-0.433029	0.022148	0.097807
H98	H	0.066971	0.522148	0.597807
H99	H	-0.561281	-0.193519	0.240719
H100	H	-0.061281	0.306481	0.740719
H101	H	-0.415386	-0.195044	-0.241533
H102	H	0.084614	0.304956	0.258467
Br103	Br	-0.384210	-0.407315	-0.138434
Br104	Br	0.115790	0.092685	0.361566
H105	H	-0.549071	-0.340515	-0.147033
H106	H	-0.049071	0.159485	0.352967
H107	H	-0.926664	0.397366	-0.000105
H108	H	-0.426664	0.897366	0.499895
