data_functionalizedCrystal
_audit_creation_method	'MofGen! by Chris Wilmer'
_symmetry_space_group_name_H-M	'P1'
_symmetry_Int_Tables_number	1
_symmetry_cell_setting	triclinic
loop_
_symmetry_equiv_pos_as_xyz
  x,y,z
_cell_length_a	16.120379
_cell_length_b	16.625547
_cell_length_c	16.120484
_cell_angle_alpha	87.074925
_cell_angle_beta	90.213218
_cell_angle_gamma	92.856851
loop_
_atom_site_label
_atom_site_type_symbol
_atom_site_fract_x
_atom_site_fract_y
_atom_site_fract_z
Zn1	Zn	0.487101	-1.193860	-0.306919
Zn2	Zn	0.737101	-0.943860	-0.056919
Zn3	Zn	0.987101	-0.693860	0.193081
Zn4	Zn	1.237101	-0.443860	0.443081
Zn5	Zn	0.355088	-1.193024	-0.453120
Zn6	Zn	0.605088	-0.943024	-0.203120
Zn7	Zn	0.855088	-0.693024	0.046880
Zn8	Zn	1.105088	-0.443024	0.296880
Zn9	Zn	0.348044	-1.065451	-0.314084
Zn10	Zn	0.598044	-0.815451	-0.064084
Zn11	Zn	0.848044	-0.565451	0.185916
Zn12	Zn	1.098044	-0.315451	0.435916
Zn13	Zn	0.494082	-1.051828	-0.445932
Zn14	Zn	0.744082	-0.801828	-0.195932
Zn15	Zn	0.994082	-0.551828	0.054068
Zn16	Zn	1.244082	-0.301828	0.304068
O17	O	0.421079	-1.126041	-0.380014
O18	O	0.671079	-0.876041	-0.130014
O19	O	0.921079	-0.626041	0.119986
O20	O	1.171079	-0.376041	0.369986
O21	O	0.469616	-1.306580	-0.326322
O22	O	0.719616	-1.056580	-0.076322
O23	O	0.969616	-0.806580	0.173678
O24	O	1.219616	-0.556580	0.423678
O25	O	0.237788	-1.181453	-0.440683
O26	O	0.487788	-0.931453	-0.190683
O27	O	0.737788	-0.681453	0.059317
O28	O	0.987788	-0.431453	0.309317
O29	O	0.360622	-1.088537	-0.196770
O30	O	0.610622	-0.838537	0.053230
O31	O	0.860622	-0.588537	0.303230
O32	O	1.110622	-0.338537	0.553230
O33	O	0.372626	-1.305966	-0.433735
O34	O	0.622626	-1.055966	-0.183735
O35	O	0.872626	-0.805966	0.066265
O36	O	1.122626	-0.555966	0.316265
O37	O	0.462786	-1.182878	-0.191505
O38	O	0.712786	-0.932878	0.058495
O39	O	0.962786	-0.682878	0.308495
O40	O	1.212786	-0.432878	0.558495
O41	O	0.232614	-1.087726	-0.338535
O42	O	0.482614	-0.837726	-0.088535
O43	O	0.732614	-0.587726	0.161465
O44	O	0.982614	-0.337726	0.411465
O45	O	0.367390	-0.950814	-0.331565
O46	O	0.617390	-0.700814	-0.081565
O47	O	0.867390	-0.450814	0.168435
O48	O	1.117390	-0.200814	0.418435
O49	O	0.609521	-1.065317	-0.421485
O50	O	0.859521	-0.815317	-0.171485
O51	O	1.109521	-0.565317	0.078515
O52	O	1.359521	-0.315317	0.328515
O53	O	0.474683	-0.940804	-0.428433
O54	O	0.724683	-0.690804	-0.178433
O55	O	0.974683	-0.440804	0.071567
O56	O	1.224683	-0.190804	0.321567
O57	O	0.604393	-1.169668	-0.319353
O58	O	0.854393	-0.919668	-0.069353
O59	O	1.104393	-0.669668	0.180647
O60	O	1.354393	-0.419668	0.430647
O61	O	0.379395	-1.168242	-0.568531
O62	O	0.629395	-0.918242	-0.318531
O63	O	0.879395	-0.668242	-0.068531
O64	O	1.129395	-0.418242	0.181469
O65	O	0.481513	-1.064506	-0.563250
O66	O	0.731513	-0.814506	-0.313250
O67	O	0.981513	-0.564506	-0.063250
O68	O	1.231513	-0.314506	0.186750
C69	C	0.421030	-0.916553	-0.379997
C70	C	0.671030	-0.666553	-0.129997
C71	C	0.921030	-0.416553	0.120003
C72	C	1.171030	-0.166553	0.370003
C73	C	0.421030	-0.826932	-0.380009
C74	C	0.671030	-0.576932	-0.130009
C75	C	0.921030	-0.326932	0.119991
C76	C	1.171030	-0.076932	0.369991
C77	C	0.421038	-0.754149	-0.380010
C78	C	0.671038	-0.504149	-0.130010
C79	C	0.921038	-0.254149	0.119990
C80	C	1.171038	-0.004149	0.369990
C81	C	0.421055	-0.662839	-0.380012
C82	C	0.671055	-0.412839	-0.130012
C83	C	0.921055	-0.162839	0.119988
C84	C	1.171055	0.087161	0.369988
C85	C	0.421073	-0.590062	-0.380018
C86	C	0.671073	-0.340062	-0.130018
C87	C	0.921073	-0.090062	0.119982
C88	C	1.171073	0.159938	0.369982
C89	C	0.421090	-0.498746	-0.380021
C90	C	0.671090	-0.248746	-0.130021
C91	C	0.921090	0.001254	0.119979
C92	C	1.171090	0.251254	0.369979
C93	C	0.205026	-1.136026	-0.391106
C94	C	0.455026	-0.886026	-0.141106
C95	C	0.705026	-0.636026	0.108894
C96	C	0.955026	-0.386026	0.358894
C97	C	0.112587	-1.140445	-0.395643
C98	C	0.362587	-0.890445	-0.145643
C99	C	0.612587	-0.640445	0.104357
C100	C	0.862587	-0.390445	0.354357
C101	C	-0.056659	-1.148524	-0.403927
C102	C	0.193341	-0.898524	-0.153927
C103	C	0.443341	-0.648524	0.096073
C104	C	0.693341	-0.398524	0.346073
C105	C	-0.100359	-1.103739	-0.355766
C106	C	0.149641	-0.853739	-0.105766
C107	C	0.399641	-0.603739	0.144234
C108	C	0.649641	-0.353739	0.394234
C109	C	-0.194533	-1.108234	-0.360375
C110	C	0.055467	-0.858234	-0.110375
C111	C	0.305467	-0.608234	0.139625
C112	C	0.555467	-0.358234	0.389625
C113	C	0.037524	-1.144030	-0.399319
C114	C	0.287524	-0.894030	-0.149319
C115	C	0.537524	-0.644030	0.100681
C116	C	0.787524	-0.394030	0.350681
C117	C	0.637973	-1.116066	-0.368818
C118	C	0.887973	-0.866066	-0.118818
C119	C	1.137973	-0.616066	0.131182
C120	C	1.387973	-0.366066	0.381182
C121	C	0.730400	-1.111816	-0.364047
C122	C	0.980400	-0.861816	-0.114047
C123	C	1.230400	-0.611816	0.135953
C124	C	1.480400	-0.361816	0.385953
C125	C	0.421118	-0.336347	-0.380028
C126	C	0.671118	-0.086347	-0.130028
C127	C	0.921118	0.163653	0.119972
C128	C	1.171118	0.413653	0.369972
C129	C	0.421108	-0.425969	-0.380027
C130	C	0.671108	-0.175969	-0.130027
C131	C	0.921108	0.074031	0.119973
C132	C	1.171108	0.324031	0.369973
C133	C	0.431994	-1.114826	-0.596062
C134	C	0.681994	-0.864826	-0.346062
C135	C	0.931994	-0.614826	-0.096062
C136	C	1.181994	-0.364826	0.153938
C137	C	0.436691	-1.110101	-0.688486
C138	C	0.686691	-0.860101	-0.438486
C139	C	0.936691	-0.610101	-0.188486
C140	C	1.186691	-0.360101	0.061514
C141	C	0.445284	-1.101478	-0.857707
C142	C	0.695284	-0.851478	-0.607707
C143	C	0.945284	-0.601478	-0.357707
C144	C	1.195284	-0.351478	-0.107707
C145	C	0.396887	-1.150747	-0.901480
C146	C	0.646887	-0.900747	-0.651480
C147	C	0.896887	-0.650747	-0.401480
C148	C	1.146887	-0.400747	-0.151480
C149	C	0.401669	-1.145950	-0.995640
C150	C	0.651669	-0.895950	-0.745640
C151	C	0.901669	-0.645950	-0.495640
C152	C	1.151669	-0.395950	-0.245640
C153	C	0.440504	-1.106275	-0.763538
C154	C	0.690504	-0.856275	-0.513538
C155	C	0.940504	-0.606275	-0.263538
C156	C	1.190504	-0.356275	-0.013538
C157	C	0.410140	-1.137320	-0.163122
C158	C	0.660140	-0.887320	0.086878
C159	C	0.910140	-0.637320	0.336878
C160	C	1.160140	-0.387320	0.586878
C161	C	0.405478	-1.142127	-0.070695
C162	C	0.655478	-0.892127	0.179305
C163	C	0.905478	-0.642127	0.429305
C164	C	1.155478	-0.392127	0.679305
H165	H	-0.067044	-1.062021	-0.311072
H166	H	0.182956	-0.812021	-0.061072
H167	H	0.432956	-0.562021	0.188928
H168	H	0.682956	-0.312021	0.438928
H169	H	-0.089972	-1.190238	-0.448617
H170	H	0.160028	-0.940238	-0.198617
H171	H	0.410028	-0.690238	0.051383
H172	H	0.660028	-0.440238	0.301383
C173	C	0.336039	-1.212576	-0.856581
C174	C	0.586039	-0.962576	-0.606581
C175	C	0.836039	-0.712576	-0.356581
C176	C	1.086039	-0.462576	-0.106581
H177	H	0.340752	-1.207718	-0.798268
H178	H	0.590752	-0.957718	-0.548268
H179	H	0.840752	-0.707718	-0.298268
H180	H	1.090752	-0.457718	-0.048268
H181	H	0.348944	-1.265484	-0.870068
H182	H	0.598944	-1.015484	-0.620068
H183	H	0.848944	-0.765484	-0.370068
H184	H	1.098944	-0.515484	-0.120068
H185	H	0.280868	-1.202651	-0.873698
H186	H	0.530868	-0.952651	-0.623698
H187	H	0.780868	-0.702651	-0.373698
H188	H	1.030868	-0.452651	-0.123698
H189	H	0.490304	-1.055697	-0.890946
H190	H	0.740304	-0.805697	-0.640946
H191	H	0.990304	-0.555697	-0.390946
H192	H	1.240304	-0.305697	-0.140946
