data_functionalizedCrystal
_audit_creation_method	'MofGen! by Chris Wilmer'
_symmetry_space_group_name_H-M	'P1'
_symmetry_Int_Tables_number	1
_symmetry_cell_setting	triclinic
loop_
_symmetry_equiv_pos_as_xyz
  x,y,z
_cell_length_a	18.215404
_cell_length_b	18.215407
_cell_length_c	18.215387
_cell_angle_alpha	89.938492
_cell_angle_beta	89.911442
_cell_angle_gamma	90.023744
loop_
_atom_site_label
_atom_site_type_symbol
_atom_site_fract_x
_atom_site_fract_y
_atom_site_fract_z
Zn1	Zn	0.292550	-1.125375	0.416134
Zn2	Zn	0.792550	-0.625375	0.916134
Zn3	Zn	0.415752	-1.125197	0.293068
Zn4	Zn	0.915752	-0.625197	0.793068
Zn5	Zn	0.292704	-1.002219	0.293079
Zn6	Zn	0.792704	-0.502219	0.793079
Zn7	Zn	0.415579	-1.002275	0.416092
Zn8	Zn	0.915579	-0.502275	0.916092
O9	O	0.354146	-1.063767	0.354593
O10	O	0.854146	-0.563767	0.854593
O11	O	0.308901	-1.228335	0.399822
O12	O	0.808901	-0.728335	0.899822
O13	O	0.399567	-1.108787	0.190085
O14	O	0.899567	-0.608787	0.690085
O15	O	0.189699	-1.018607	0.309425
O16	O	0.689699	-0.518607	0.809425
O17	O	0.399417	-1.228205	0.309406
O18	O	0.899417	-0.728205	0.809406
O19	O	0.189586	-1.109089	0.399833
O20	O	0.689586	-0.609089	0.899833
O21	O	0.309164	-1.018435	0.190093
O22	O	0.809164	-0.518435	0.690093
O23	O	0.308996	-0.899243	0.309384
O24	O	0.808996	-0.399243	0.809384
O25	O	0.399122	-1.018702	0.519082
O26	O	0.899122	-0.518702	1.019082
O27	O	0.399271	-0.899284	0.399761
O28	O	0.899271	-0.399284	0.899761
O29	O	0.308733	-1.109143	0.519113
O30	O	0.808733	-0.609143	1.019113
O31	O	0.518714	-1.108841	0.309365
O32	O	1.018714	-0.608841	0.809365
O33	O	0.518586	-1.018531	0.399750
O34	O	1.018586	-0.518531	0.899750
C35	C	0.354132	-0.872560	0.354570
C36	C	0.854132	-0.372560	0.854570
C37	C	0.354144	-0.790762	0.354577
C38	C	0.854144	-0.290762	0.854577
C39	C	0.545353	-1.063693	0.354568
C40	C	1.045353	-0.563693	0.854568
C41	C	0.627152	-1.063728	0.354582
C42	C	1.127152	-0.563728	0.854582
C43	C	0.401223	-0.602608	0.401575
C44	C	0.901223	-0.102608	0.901575
C45	C	0.401224	-0.525750	0.401583
C46	C	0.901224	-0.025750	0.901583
C47	C	0.307074	-0.525677	0.307615
C48	C	0.807074	-0.025677	0.807615
C49	C	0.307070	-0.602535	0.307611
C50	C	0.807070	-0.102535	0.807611
C51	C	0.354148	-0.640998	0.354590
C52	C	0.854148	-0.140998	0.854590
C53	C	0.354154	-0.487282	0.354602
C54	C	0.854154	0.012718	0.854602
C55	C	0.354156	-0.403948	0.354610
C56	C	0.854156	0.096052	0.854610
C57	C	0.354146	-0.724337	0.354583
C58	C	0.854146	-0.224337	0.854583
C59	C	0.815387	-1.110867	0.307615
C60	C	1.315387	-0.610867	0.807615
C61	C	0.892246	-1.110901	0.307637
C62	C	1.392246	-0.610901	0.807637
C63	C	0.892153	-1.016779	0.401678
C64	C	1.392153	-0.516779	0.901678
C65	C	0.815296	-1.016749	0.401659
C66	C	1.315296	-0.516749	0.901659
C67	C	0.776915	-1.063792	0.354623
C68	C	1.276915	-0.563792	0.854623
C69	C	0.930631	-1.063856	0.354664
C70	C	1.430631	-0.563856	0.854664
C71	C	1.013965	-1.063893	0.354688
C72	C	1.513965	-0.563893	0.854688
C73	C	0.693576	-1.063756	0.354600
C74	C	1.193576	-0.563756	0.854600
C75	C	1.162193	-1.063866	0.354648
C76	C	1.662193	-0.563866	0.854648
C77	C	1.080394	-1.063920	0.354706
C78	C	1.580394	-0.563920	0.854706
C79	C	0.354348	-1.063628	0.163387
C80	C	0.854348	-0.563628	0.663387
C81	C	0.354249	-1.063693	0.081588
C82	C	0.854249	-0.563693	0.581588
C83	C	0.354159	-0.255720	0.354614
C84	C	0.854159	0.244280	0.854614
C85	C	0.354158	-0.337519	0.354615
C86	C	0.854158	0.162481	0.854615
C87	C	0.307248	-1.016510	-0.183430
C88	C	0.807248	-0.516510	0.316570
C89	C	0.307328	-1.016452	-0.106572
C90	C	0.807328	-0.516452	0.393428
C91	C	0.400788	-1.111211	-0.106641
C92	C	0.900788	-0.611211	0.393359
C93	C	0.400712	-1.111265	-0.183498
C94	C	0.900712	-0.611265	0.316502
C95	C	0.353937	-1.063916	-0.221891
C96	C	0.853937	-0.563916	0.278109
C97	C	0.354094	-1.063803	-0.068175
C98	C	0.854094	-0.563803	0.431825
C99	C	0.354181	-1.063740	0.015158
C100	C	0.854181	-0.563740	0.515158
C101	C	0.353851	-1.063977	-0.305230
C102	C	0.853851	-0.563977	0.194770
C103	C	0.353891	-1.063949	0.546547
C104	C	0.853891	-0.563949	1.046547
C105	C	0.353782	-1.064026	0.628346
C106	C	0.853782	-0.564026	1.128346
H107	H	0.439556	-0.494496	0.439844
H108	H	0.939556	0.005504	0.939844
N109	N	0.931349	-0.968712	0.449712
N110	N	1.431349	-0.468712	0.949712
N111	N	0.896987	-0.926681	0.491679
N112	N	1.396987	-0.426681	0.991679
H113	H	0.924667	-0.892729	0.525603
H114	H	1.424667	-0.392729	1.025603
H115	H	0.784139	-1.149173	0.269317
H116	H	1.284139	-0.649173	0.769317
N117	N	0.449295	-0.641910	0.449566
N118	N	0.949295	-0.141910	0.949566
N119	N	0.449285	-0.710532	0.449559
N120	N	0.949285	-0.210532	0.949559
H121	H	0.483235	-0.738288	0.483456
H122	H	0.983235	-0.238288	0.983456
N123	N	0.448545	-1.159580	-0.067406
N124	N	0.948545	-0.659580	0.432594
N125	N	0.422352	-1.206266	-0.024370
N126	N	0.922352	-0.706266	0.475630
H127	H	0.456078	-1.240430	0.003342
H128	H	0.956078	-0.740430	0.503342
H129	H	0.438734	-1.149870	-0.214814
H130	H	0.938734	-0.649870	0.285186
N131	N	0.775981	-0.968663	0.449673
N132	N	1.275981	-0.468663	0.949673
N133	N	0.707359	-0.968647	0.449649
N134	N	1.207359	-0.468647	0.949649
H135	H	0.679591	-0.934691	0.483560
H136	H	1.179591	-0.434691	0.983560
N137	N	0.931556	-1.158985	0.259627
N138	N	1.431556	-0.658985	0.759627
N139	N	0.974358	-1.205901	0.285576
N140	N	1.474358	-0.705901	0.785576
H141	H	1.002122	-1.239863	0.251668
H142	H	1.502122	-0.739863	0.751668
H143	H	0.269310	-0.977849	-0.075260
H144	H	0.769310	-0.477849	0.424740
N145	N	0.258971	-0.641754	0.259625
N146	N	0.758971	-0.141754	0.759625
N147	N	0.191064	-0.633202	0.264628
N148	N	0.691064	-0.133202	0.764628
H149	H	0.157093	-0.660902	0.230742
H150	H	0.657093	-0.160902	0.730742
H151	H	0.269161	-0.977955	-0.214687
H152	H	0.769161	-0.477955	0.285313
H153	H	0.268746	-0.494351	0.269365
H154	H	0.768746	0.005649	0.769365
