data_functionalizedCrystal
_audit_creation_method	'MofGen! by Chris Wilmer'
_symmetry_space_group_name_H-M	'P1'
_symmetry_Int_Tables_number	1
_symmetry_cell_setting	triclinic
loop_
_symmetry_equiv_pos_as_xyz
  x,y,z
_cell_length_a	16.992694
_cell_length_b	16.974813
_cell_length_c	16.053802
_cell_angle_alpha	88.912550
_cell_angle_beta	87.249047
_cell_angle_gamma	87.024634
loop_
_atom_site_label
_atom_site_type_symbol
_atom_site_fract_x
_atom_site_fract_y
_atom_site_fract_z
O1	O	1.044046	0.164036	-0.080405
O2	O	0.815757	0.162201	-0.080306
O3	O	0.935897	0.048765	-0.072625
O4	O	0.923906	0.277473	-0.088087
O5	O	0.929284	0.054981	0.065813
O6	O	0.809145	0.168418	0.058132
O7	O	1.037433	0.170253	0.058033
Zn8	Zn	0.922239	0.170322	0.080062
Zn9	Zn	0.930951	0.162132	-0.102336
O10	O	0.917293	0.283689	0.050351
C11	C	0.783234	0.162951	-0.010931
C12	C	0.696175	0.155912	-0.010465
C13	C	0.646080	0.223821	-0.015055
C14	C	0.564279	0.217204	-0.014596
C15	C	0.532574	0.142676	-0.009553
C16	C	0.582675	0.074762	-0.004959
C17	C	0.664475	0.081380	-0.005412
C18	C	0.288916	0.115246	-0.007676
C19	C	0.207111	0.108632	-0.007226
C20	C	0.188719	0.251075	-0.016861
C21	C	0.270522	0.257687	-0.017318
C22	C	0.320615	0.189773	-0.012721
N23	N	0.448960	0.135910	-0.009086
N24	N	0.404227	0.196540	-0.013181
C25	C	0.932011	0.022473	-0.001420
C26	C	0.930277	-0.065130	0.004496
C27	C	0.933069	-0.109669	-0.068186
C28	C	0.931434	-0.191981	-0.062625
C29	C	0.927013	-0.229752	0.015620
C30	C	0.924219	-0.185206	0.088308
C31	C	0.925848	-0.102895	0.082746
C32	C	0.921749	-0.475560	0.040348
C33	C	0.920122	-0.557877	0.045906
C34	C	0.927336	-0.564647	-0.105028
C35	C	0.928969	-0.482334	-0.110584
C36	C	0.926171	-0.437795	-0.037896
N37	N	0.925344	-0.313887	0.021307
N38	N	0.927834	-0.353661	-0.043583
C39	C	1.069957	0.169503	-0.011344
C40	C	1.157016	0.176542	-0.011816
C41	C	0.921179	0.309981	-0.020855
C42	C	0.922914	0.397583	-0.026777
N43	N	0.916298	0.175912	0.204544
N44	N	0.936898	0.156536	-0.226817
C45	C	0.967436	0.127664	0.251505
C46	C	0.963288	0.131582	0.338647
C47	C	0.908005	0.183752	0.378825
C48	C	0.856862	0.232002	0.331858
C49	C	0.861007	0.228080	0.244718
C50	C	0.889899	0.200864	0.639076
C51	C	0.885760	0.204784	0.726222
C52	C	0.992186	0.104363	0.733005
C53	C	0.996329	0.100448	0.645863
C54	C	0.945183	0.148695	0.598903
N55	N	0.903765	0.187760	0.467898
N56	N	0.949419	0.144683	0.509833
H57	H	0.181301	0.047940	-0.003120
C58	C	1.048437	0.051288	0.784667
N59	N	1.090804	0.011307	0.823580
H60	H	1.041345	0.057967	0.613151
H61	H	0.329693	0.059945	-0.003932
H62	H	1.012457	0.085185	0.218798
C63	C	0.824939	0.262176	0.770416
N64	N	0.779132	0.305401	0.803704
H65	H	0.919486	-0.439307	0.099536
H66	H	0.671887	0.284510	-0.019162
C67	C	0.833738	0.254046	0.587425
N68	N	0.791472	0.294144	0.548515
H69	H	0.811845	0.274478	0.364576
C70	C	0.804757	0.281163	0.193061
N71	N	0.762388	0.321148	0.154154
H72	H	0.523494	0.272503	-0.018335
C73	C	0.919350	-0.226756	0.174379
N74	N	0.915685	-0.258051	0.239209
H75	H	0.296329	0.318375	-0.021435
H76	H	0.932570	-0.451588	-0.174299
H77	H	0.147925	0.306367	-0.020602
H78	H	0.705262	0.026081	-0.001675
C79	C	0.547797	-0.007220	0.000590
N80	N	0.521528	-0.068970	0.004766
C81	C	0.937932	-0.068130	-0.154263
N82	N	0.941591	-0.036844	-0.219098
H83	H	0.933710	-0.228242	-0.121810
H84	H	0.929612	-0.600919	-0.164206
H85	H	0.916518	-0.588626	0.109625
H86	H	0.923564	-0.066631	0.141932
C87	C	1.019526	0.078485	0.390301
N88	N	1.061879	0.038482	0.429208
