data_functionalizedCrystal
_audit_creation_method	'MofGen! by Chris Wilmer'
_symmetry_space_group_name_H-M	'P1'
_symmetry_Int_Tables_number	1
_symmetry_cell_setting	triclinic
loop_
_symmetry_equiv_pos_as_xyz
  x,y,z
_cell_length_a	16.974800
_cell_length_b	13.262508
_cell_length_c	12.376458
_cell_angle_alpha	85.795918
_cell_angle_beta	75.145374
_cell_angle_gamma	82.923469
loop_
_atom_site_label
_atom_site_type_symbol
_atom_site_fract_x
_atom_site_fract_y
_atom_site_fract_z
O1	O	1.056192	0.124908	-0.041065
O2	O	0.823620	0.145185	-0.026012
O3	O	0.938590	-0.008294	0.010650
O4	O	0.941222	0.278386	-0.077726
O5	O	0.967353	-0.046579	-0.168224
O6	O	0.852383	0.106899	-0.204886
O7	O	1.084955	0.086622	-0.219939
Zn8	Zn	0.973235	0.090682	-0.240813
Zn9	Zn	0.935339	0.141125	-0.005138
O10	O	0.969985	0.240101	-0.256601
C11	C	0.808098	0.125985	-0.112694
C12	C	0.718994	0.125805	-0.104483
C13	C	0.692816	0.104848	-0.198132
C14	C	0.609095	0.104662	-0.190415
C15	C	0.551552	0.125441	-0.089051
C16	C	0.577734	0.146397	0.004606
C17	C	0.661455	0.146575	-0.003110
C18	C	0.299482	0.127138	-0.055517
C19	C	0.215757	0.126961	-0.047809
C20	C	0.247124	0.085225	-0.242830
C21	C	0.330844	0.085411	-0.250539
C22	C	0.357019	0.106361	-0.156881
N23	N	0.465975	0.125254	-0.081161
N24	N	0.442595	0.106540	-0.164769
C25	C	0.950474	-0.064078	-0.067291
C26	C	0.943022	-0.173259	-0.033036
C27	C	0.984728	-0.564515	-0.326505
C28	C	0.991724	-0.461933	-0.358691
C29	C	0.979549	-0.389760	-0.277280
C30	C	0.960377	-0.420178	-0.163678
C31	C	0.953375	-0.522768	-0.131489
C32	C	0.948196	-0.348013	-0.082263
C33	C	0.929024	-0.378431	0.031338
C34	C	0.922023	-0.481012	0.063522
C35	C	0.934198	-0.553185	-0.017889
C36	C	0.955198	-0.245423	-0.114452
C37	C	0.923845	-0.203676	0.080564
C38	C	0.916850	-0.306258	0.112749
C39	C	1.100477	0.105822	-0.133254
C40	C	1.189580	0.106004	-0.141458
C41	C	0.958101	0.295886	-0.178657
C42	C	0.965551	0.405068	-0.212905
N43	N	0.999104	0.056255	-0.401655
N44	N	0.909476	0.175544	0.155706
C45	C	0.849393	0.255406	0.195837
C46	C	0.831266	0.279462	0.308440
C47	C	0.873224	0.223662	0.380922
C48	C	0.933313	0.143803	0.340789
C49	C	0.951437	0.119740	0.228177
C50	C	0.975268	0.087996	0.413262
C51	C	1.035356	0.008137	0.373130
C52	C	1.053478	-0.015922	0.260528
C53	C	1.011520	0.039877	0.188046
C54	C	0.957144	0.112059	0.525874
C55	C	1.059187	-0.023607	0.558215
C56	C	1.077314	-0.047663	0.445611
H57	H	0.225802	0.068166	-0.319081
H58	H	0.928507	-0.636718	0.008310
H59	H	0.682766	0.163642	0.073148
O60	O	1.118280	-0.102064	0.217248
H61	H	1.123828	-0.109428	0.126773
O62	O	1.031080	0.013933	0.066589
H63	H	0.991810	0.066154	0.022936
H64	H	0.901239	-0.331039	0.205246
O65	O	0.901306	-0.513819	0.186048
H66	H	0.894010	-0.446402	0.237253
O67	O	1.142118	-0.133802	0.402326
H68	H	1.147664	-0.141159	0.311850
H69	H	0.320784	0.144194	0.020747
H70	H	0.913925	-0.144910	0.146856
O71	O	0.153688	0.149367	0.061526
H72	H	0.185954	0.163956	0.125360
O73	O	0.853675	0.249615	0.502371
H74	H	0.832241	0.182657	0.556087
O75	O	1.104441	-0.083811	0.636379
H76	H	1.081746	-0.053660	0.721422
O77	O	0.892341	0.198186	0.569167
H78	H	0.910030	0.270121	0.522768
H79	H	0.994633	-0.623285	-0.392777
H80	H	0.739663	0.087936	-0.280676
H81	H	0.782342	0.344482	0.341112
H82	H	0.815232	0.300826	0.136818
O83	O	0.515670	0.168794	0.113938
H84	H	0.547942	0.183383	0.177766
O85	O	1.012401	-0.429132	-0.481211
H86	H	1.015215	-0.345672	-0.489916
O87	O	0.975889	-0.212625	-0.236973
H88	H	0.927931	-0.232485	-0.275628
O89	O	0.580908	0.082031	-0.291453
H90	H	0.608085	0.004909	-0.319340
O91	O	0.392893	0.063035	-0.359890
H92	H	0.387906	-0.014154	-0.384874
O93	O	0.987104	-0.279118	-0.311986
H94	H	1.002490	-0.270093	-0.404656
