data_functionalizedCrystal
_audit_creation_method	'MofGen! by Chris Wilmer'
_symmetry_space_group_name_H-M	'P1'
_symmetry_Int_Tables_number	1
_symmetry_cell_setting	triclinic
loop_
_symmetry_equiv_pos_as_xyz
  x,y,z
_cell_length_a	12.837943
_cell_length_b	19.188930
_cell_length_c	11.295483
_cell_angle_alpha	94.076039
_cell_angle_beta	85.461227
_cell_angle_gamma	88.986861
loop_
_atom_site_label
_atom_site_type_symbol
_atom_site_fract_x
_atom_site_fract_y
_atom_site_fract_z
O1	O	1.381633	0.177215	-0.099031
O2	O	1.079869	0.168252	-0.099037
O3	O	1.239458	0.071676	-0.099010
O4	O	1.222044	0.273791	-0.099057
O5	O	1.225441	0.080144	0.099038
O6	O	1.065852	0.176720	0.099012
O7	O	1.367616	0.185683	0.099017
Cu8	Cu	1.215454	0.181975	0.117098
Cu9	Cu	1.232031	0.171960	-0.117117
O10	O	1.208027	0.282259	0.098991
C11	C	1.034253	0.169458	-0.000013
C12	C	0.919217	0.160427	-0.000014
C13	C	0.677767	0.268994	-0.000022
C14	C	0.569680	0.260512	-0.000022
C15	C	0.594953	0.134982	-0.000006
C16	C	0.703040	0.143464	-0.000006
C17	C	0.744443	0.210472	-0.000016
C18	C	0.852533	0.218953	-0.000024
C19	C	0.877803	0.093423	0.000001
C20	C	0.769716	0.084941	0.000001
C21	C	1.231885	0.049861	0.000017
C22	C	1.230191	-0.027760	0.000027
C23	C	1.323833	-0.066260	0.000035
C24	C	1.322244	-0.139194	0.000016
C25	C	1.227005	-0.173623	0.000013
C26	C	1.133352	-0.135114	-0.000001
C27	C	1.134944	-0.062182	0.000006
N28	N	1.149437	-0.283739	0.067411
N29	N	1.147930	-0.353022	0.067407
C30	C	1.222201	-0.393362	-0.000011
N31	N	1.298051	-0.361803	-0.067410
N32	N	1.299560	-0.292515	-0.067400
C33	C	1.225268	-0.252705	0.000005
C34	C	1.314126	-0.510946	-0.000026
C35	C	1.312534	-0.583882	-0.000052
C36	C	1.123638	-0.579799	-0.000057
C37	C	1.125234	-0.506866	-0.000043
C38	C	1.220481	-0.472444	-0.000021
C39	C	1.413232	0.184477	-0.000009
C40	C	1.528268	0.193508	-0.000016
C41	C	1.215600	0.304074	-0.000039
C42	C	1.217295	0.381694	-0.000057
N43	N	1.203803	0.189018	0.281832
N44	N	1.243691	0.164912	-0.281852
C45	C	1.327566	0.114169	0.531142
C46	C	1.318768	0.119497	0.655804
C47	C	1.177405	0.204999	0.655821
C48	C	1.186202	0.199671	0.531159
C49	C	1.261286	0.154255	0.468824
C50	C	1.270089	0.148931	0.344159
C51	C	1.128721	0.234429	0.344179
C52	C	1.119923	0.239757	0.468841
H53	H	0.932104	0.045770	-0.000002
H54	H	1.388792	-0.615228	-0.000053
H55	H	1.055808	-0.163150	-0.000006
F56	F	0.725639	0.013630	0.000015
F57	F	1.022278	-0.616437	-0.000066
F58	F	1.425205	-0.029631	0.000032
F59	F	1.097490	0.253325	0.722176
F60	F	1.040015	0.288088	0.535193
H61	H	1.058687	-0.030834	0.000001
H62	H	1.391682	-0.482919	-0.000014
F63	F	1.421915	-0.180178	0.000022
F64	F	1.025566	-0.465889	-0.000046
F65	F	1.350001	0.100598	0.277820
F66	F	0.550869	0.063673	0.000019
H67	H	1.388709	0.077195	0.480388
F68	F	1.058184	0.277097	0.277843
H69	H	0.886241	0.273515	-0.000030
F70	F	0.721835	0.340308	-0.000047
H71	H	0.515395	0.308167	-0.000024
H72	H	1.372737	0.086854	0.706541
