data_functionalizedCrystal
_audit_creation_method	'MofGen! by Chris Wilmer'
_symmetry_space_group_name_H-M	'P1'
_symmetry_Int_Tables_number	1
_symmetry_cell_setting	triclinic
loop_
_symmetry_equiv_pos_as_xyz
  x,y,z
_cell_length_a	12.759401
_cell_length_b	18.101398
_cell_length_c	12.759399
_cell_angle_alpha	89.984865
_cell_angle_beta	89.984458
_cell_angle_gamma	90.007225
loop_
_atom_site_label
_atom_site_type_symbol
_atom_site_fract_x
_atom_site_fract_y
_atom_site_fract_z
Zn1	Zn	1.606134	0.418688	0.418367
Zn2	Zn	2.106134	0.918688	0.918367
Zn3	Zn	1.606062	0.294854	0.594034
Zn4	Zn	2.106062	0.794854	1.094034
Zn5	Zn	1.430471	0.294868	0.418371
Zn6	Zn	1.930471	0.794868	0.918371
Zn7	Zn	1.430424	0.418660	0.594006
Zn8	Zn	1.930424	0.918660	1.094006
O9	O	1.518273	0.356767	0.506195
O10	O	2.018273	0.856767	1.006195
O11	O	1.753146	0.402267	0.441680
O12	O	2.253146	0.902267	0.941680
O13	O	1.582759	0.191223	0.570746
O14	O	2.082759	0.691223	1.070746
O15	O	1.453823	0.311311	0.271350
O16	O	1.953823	0.811311	0.771350
O17	O	1.753093	0.311286	0.570742
O18	O	2.253093	0.811286	1.070742
O19	O	1.582882	0.402281	0.271347
O20	O	2.082882	0.902281	0.771347
O21	O	1.453753	0.191233	0.441687
O22	O	1.953753	0.691233	0.941687
O23	O	1.283444	0.311283	0.441659
O24	O	1.783444	0.811283	0.941659
O25	O	1.453742	0.522297	0.570693
O26	O	1.953742	1.022297	1.070693
O27	O	1.283409	0.402233	0.570697
O28	O	1.783409	0.902233	1.070697
O29	O	1.582836	0.522318	0.441652
O30	O	2.082836	1.022318	0.941652
O31	O	1.582713	0.311259	0.741052
O32	O	2.082713	0.811259	1.241052
O33	O	1.453672	0.402219	0.741031
O34	O	1.953672	0.902219	1.241031
C35	C	1.245305	0.356757	0.506177
C36	C	1.745305	0.856757	1.006177
C37	C	1.128529	0.356770	0.506194
C38	C	1.628529	0.856770	1.006194
C39	C	1.073695	0.404217	0.439113
C40	C	1.573695	0.904217	0.939113
C41	C	0.963971	0.404222	0.439124
C42	C	1.463971	0.904222	0.939124
C43	C	0.963924	0.309331	0.573306
C44	C	1.463924	0.809331	1.073306
C45	C	1.073646	0.309323	0.573289
C46	C	1.573646	0.809323	1.073289
C47	C	1.518292	0.549929	0.506169
C48	C	2.018292	1.049929	1.006169
C49	C	1.518300	0.632243	0.506158
C50	C	2.018300	1.132243	1.006158
C51	C	1.518289	0.931334	0.506202
C52	C	2.018289	1.431334	1.006202
C53	C	1.599786	0.900022	0.425287
C54	C	2.099786	1.400022	0.925287
C55	C	1.599551	0.814404	0.424956
C56	C	2.099551	1.314404	0.924956
C57	C	1.518296	0.782952	0.506180
C58	C	2.018296	1.282952	1.006180
C59	C	1.407600	0.814029	0.476112
C60	C	1.907600	1.314029	0.976112
C61	C	1.408069	0.899674	0.475537
C62	C	1.908069	1.399674	0.975537
C63	C	1.546520	0.899750	0.617382
C64	C	2.046520	1.399750	1.117382
C65	C	1.548969	0.814100	0.616783
C66	C	2.048969	1.314100	1.116783
C67	C	1.518292	0.699092	0.506170
C68	C	2.018292	1.199092	1.006170
C69	C	1.518285	1.015194	0.506210
C70	C	2.018285	1.515194	1.006210
C71	C	1.792306	0.356778	0.506214
C72	C	2.292306	0.856778	1.006214
C73	C	1.909083	0.356783	0.506222
C74	C	2.409083	0.856783	1.006222
C75	C	1.518208	0.356751	0.779162
C76	C	2.018208	0.856751	1.279162
C77	C	1.518277	0.356768	0.895939
C78	C	2.018277	0.856768	1.395939
C79	C	1.518258	1.164357	0.506236
C80	C	2.018258	1.664357	1.006236
C81	C	1.518285	1.082043	0.506224
C82	C	2.018285	1.582043	1.006224
C83	C	1.518366	0.356801	0.232161
C84	C	2.018366	0.856801	0.732161
C85	C	1.518406	0.356815	0.115385
C86	C	2.018406	0.856815	0.615385
C87	C	1.585545	0.309459	0.950777
C88	C	2.085545	0.809459	1.450777
C89	C	1.585613	0.309484	1.060501
C90	C	2.085613	0.809484	1.560501
C91	C	1.451135	0.404129	1.060539
C92	C	1.951135	0.904129	1.560539
C93	C	1.451073	0.404107	0.950817
C94	C	1.951073	0.904107	1.450817
H95	H	1.681633	0.793393	0.443785
H96	H	2.181633	1.293393	0.943785
H97	H	1.630430	0.793787	0.639458
H98	H	2.130430	1.293787	1.139458
H99	H	1.118293	0.270682	0.627915
H100	H	1.618293	0.770682	1.127915
H101	H	1.640391	0.270961	1.105145
H102	H	2.140391	0.770961	1.605145
H103	H	1.384141	0.919663	0.394264
H104	H	1.884141	1.419663	0.894264
H105	H	1.487168	0.920004	0.677671
H106	H	1.987168	1.420004	1.177671
H107	H	1.682127	0.920622	0.443899
H108	H	2.182127	1.420622	0.943899
H109	H	0.919225	0.270702	0.627933
H110	H	1.419225	0.770702	1.127933
H111	H	0.919330	0.442857	0.384498
H112	H	1.419330	0.942857	0.884498
H113	H	1.118377	0.442849	0.384477
H114	H	1.618377	0.942849	0.884477
H115	H	1.396418	0.442670	1.105234
H116	H	1.896418	0.942670	1.605234
H117	H	1.581334	0.921558	0.343382
H118	H	2.081334	1.421558	0.843382
H119	H	1.580871	0.793929	0.342576
H120	H	2.080871	1.293929	0.842576
H121	H	1.383247	0.792588	0.395727
H122	H	1.883247	1.292588	0.895727
H123	H	1.345281	0.920386	0.531907
H124	H	1.845281	1.420386	1.031907
H125	H	1.396295	0.442636	0.906165
H126	H	1.896295	0.942636	1.406165
H127	H	1.345239	0.793654	0.533216
H128	H	1.845239	1.293654	1.033216
H129	H	1.625816	0.921392	0.644779
H130	H	2.125816	1.421392	1.144779
H131	H	1.493938	0.792687	0.680294
H132	H	1.993938	1.292687	1.180294
H133	H	1.640268	0.270914	0.906097
H134	H	2.140268	0.770914	1.406097
