data_functionalizedCrystal
_audit_creation_method	'MofGen! by Chris Wilmer'
_symmetry_space_group_name_H-M	'P1'
_symmetry_Int_Tables_number	1
_symmetry_cell_setting	triclinic
loop_
_symmetry_equiv_pos_as_xyz
  x,y,z
_cell_length_a	12.827893
_cell_length_b	16.625546
_cell_length_c	16.625539
_cell_angle_alpha	89.969603
_cell_angle_beta	89.981396
_cell_angle_gamma	90.022439
loop_
_atom_site_label
_atom_site_type_symbol
_atom_site_fract_x
_atom_site_fract_y
_atom_site_fract_z
Zn1	Zn	1.597611	-0.321001	-0.455855
Zn2	Zn	2.097611	0.178999	0.044145
Zn3	Zn	1.597486	-0.455844	-0.321018
Zn4	Zn	2.097486	0.044156	0.178982
Zn5	Zn	1.422855	-0.321029	-0.321040
Zn6	Zn	1.922855	0.178971	0.178960
Zn7	Zn	1.422816	-0.455795	-0.455812
Zn8	Zn	1.922816	0.044205	0.044188
O9	O	1.510192	-0.388417	-0.388431
O10	O	2.010192	0.111583	0.111569
O11	O	1.743831	-0.338897	-0.437977
O12	O	2.243831	0.161103	0.062023
O13	O	1.574284	-0.437993	-0.208188
O14	O	2.074284	0.062007	0.291812
O15	O	1.446105	-0.208193	-0.338952
O16	O	1.946105	0.291807	0.161048
O17	O	1.743739	-0.437965	-0.338913
O18	O	2.243739	0.062035	0.161087
O19	O	1.574498	-0.208172	-0.438000
O20	O	2.074498	0.291828	0.062000
O21	O	1.445983	-0.338945	-0.208205
O22	O	1.945983	0.161055	0.291795
O23	O	1.276614	-0.338897	-0.338910
O24	O	1.776614	0.161103	0.161090
O25	O	1.446040	-0.437882	-0.568650
O26	O	1.946040	0.062118	-0.068650
O27	O	1.276585	-0.437909	-0.437926
O28	O	1.776585	0.062091	0.062074
O29	O	1.574461	-0.338849	-0.568682
O30	O	2.074461	0.161151	-0.068682
O31	O	1.574247	-0.568670	-0.338871
O32	O	2.074247	-0.068670	0.161129
O33	O	1.445918	-0.568634	-0.437904
O34	O	1.945918	-0.068634	0.062096
C35	C	1.238682	-0.388402	-0.388416
C36	C	1.738682	0.111598	0.111584
C37	C	1.122529	-0.388414	-0.388429
C38	C	1.622529	0.111586	0.111571
C39	C	1.070758	-0.437485	-0.437349
C40	C	1.570758	0.062515	0.062651
C41	C	0.950708	-0.437500	-0.437363
C42	C	1.450708	0.062500	0.062637
C43	C	1.510093	-0.597908	-0.388398
C44	C	2.010093	-0.097908	0.111602
C45	C	1.510146	-0.687529	-0.388410
C46	C	2.010146	-0.187529	0.111590
C47	C	1.510329	-1.015705	-0.388494
C48	C	2.010329	-0.515705	0.111506
C49	C	1.510275	-0.924396	-0.388473
C50	C	2.010275	-0.424396	0.111527
C51	C	1.510237	-0.851620	-0.388452
C52	C	2.010237	-0.351620	0.111548
C53	C	1.510184	-0.760306	-0.388431
C54	C	2.010184	-0.260306	0.111569
C55	C	1.782762	-0.388433	-0.388447
C56	C	2.282762	0.111567	0.111553
C57	C	1.898915	-0.388440	-0.388454
C58	C	2.398915	0.111560	0.111546
C59	C	1.510260	-0.388357	-0.598740
C60	C	2.010260	0.111643	-0.098740
C61	C	1.510289	-0.388332	-0.688362
C62	C	2.010289	0.111668	-0.188362
C63	C	1.510320	-0.178108	-0.388483
C64	C	2.010320	0.321892	0.111517
C65	C	1.510374	-0.088487	-0.388505
C66	C	2.010374	0.411513	0.111495
C67	C	1.510337	-0.388241	-1.016537
C68	C	2.010337	0.111759	-0.516537
C69	C	1.510321	-0.388269	-0.925229
C70	C	2.010321	0.111731	-0.425229
C71	C	1.510314	-0.388287	-0.852452
C72	C	2.010314	0.111713	-0.352452
C73	C	1.510296	-0.388313	-0.761138
C74	C	2.010296	0.111687	-0.261138
C75	C	1.510185	-0.388419	-0.178941
C76	C	2.010185	0.111581	0.321059
C77	C	1.510358	-0.388217	-0.089320
C78	C	2.010358	0.111783	0.410680
H79	H	1.115312	-0.479483	-0.479225
H80	H	1.615312	0.020517	0.020775
Br81	Br	0.876509	-0.507533	-0.507169
Br82	Br	1.376509	-0.007533	-0.007169
Br83	Br	0.973107	-0.318419	-0.318633
Br84	Br	1.473107	0.181581	0.181367
H85	H	1.077975	-0.346410	-0.346560
H86	H	1.577975	0.153590	0.153440
