data_functionalizedCrystal
_audit_creation_method	'MofGen! by Chris Wilmer'
_symmetry_space_group_name_H-M	'P1'
_symmetry_Int_Tables_number	1
_symmetry_cell_setting	triclinic
loop_
_symmetry_equiv_pos_as_xyz
  x,y,z
_cell_length_a	9.065215
_cell_length_b	9.065215
_cell_length_c	14.048226
_cell_angle_alpha	89.994559
_cell_angle_beta	89.994106
_cell_angle_gamma	85.014697
loop_
_atom_site_label
_atom_site_type_symbol
_atom_site_fract_x
_atom_site_fract_y
_atom_site_fract_z
O1	O	1.960406	0.216340	-0.079147
O2	O	1.531120	0.234091	-0.079152
O3	O	1.754638	0.010573	-0.079145
O4	O	1.736887	0.439858	-0.079154
O5	O	1.754611	0.010559	0.079176
O6	O	1.531093	0.234077	0.079170
O7	O	1.960378	0.216326	0.079174
Zn8	Zn	1.745731	0.225200	0.104309
Zn9	Zn	1.745767	0.225218	-0.104286
O10	O	1.736860	0.439844	0.079168
C11	C	1.476120	0.232379	0.000009
C12	C	1.312277	0.227281	0.000007
C13	C	1.752920	-0.044421	0.000014
C14	C	1.747822	-0.208264	0.000011
C15	C	2.015379	0.218038	0.000012
C16	C	2.179222	0.223136	0.000007
C17	C	1.738579	0.494838	0.000006
C18	C	1.743677	0.658681	0.000003
N19	N	1.745717	0.225186	0.246669
N20	N	1.745793	0.225219	-0.246647
C21	C	1.844723	0.126254	0.296490
C22	C	1.844733	0.126254	0.396148
C23	C	1.745743	0.225193	0.445983
C24	C	1.646727	0.324130	0.396155
C25	C	1.646711	0.324122	0.296499
C26	C	1.646769	0.324141	0.603869
C27	C	1.646787	0.324151	0.703532
C28	C	1.844792	0.126273	0.703518
C29	C	1.844776	0.126265	0.603862
C30	C	1.745761	0.225204	0.554041
H31	H	1.925338	0.045693	0.255921
Br32	Br	1.979095	-0.008018	0.463765
H33	H	1.566136	0.404703	0.563308
Br34	Br	1.512368	0.458398	0.463785
Br35	Br	1.979131	-0.007996	0.536225
H36	H	1.566088	0.404681	0.255936
Br37	Br	1.979173	-0.007993	0.771135
Br38	Br	1.512437	0.458432	0.771158
