data_functionalizedCrystal
_audit_creation_method	'MofGen! by Chris Wilmer'
_symmetry_space_group_name_H-M	'P1'
_symmetry_Int_Tables_number	1
_symmetry_cell_setting	triclinic
loop_
_symmetry_equiv_pos_as_xyz
  x,y,z
_cell_length_a	23.096457
_cell_length_b	23.096457
_cell_length_c	20.016444
_cell_angle_alpha	59.999569
_cell_angle_beta	89.999713
_cell_angle_gamma	60.000612
loop_
_atom_site_label
_atom_site_type_symbol
_atom_site_fract_x
_atom_site_fract_y
_atom_site_fract_z
Zr1	Zr	0.557777	0.633751	-0.087687
O2	O	0.465327	0.754541	-0.194358
O3	O	0.586116	0.512962	-0.054988
O4	O	0.586113	0.633756	-0.194366
O5	O	0.465334	0.633743	0.054964
O6	O	0.681393	0.633757	-0.194370
O7	O	0.465330	0.633748	-0.054981
O8	O	0.681398	0.417680	0.054951
O9	O	0.465330	0.849820	-0.194357
O10	O	0.669311	0.562645	-0.041044
O11	O	0.598208	0.562640	0.041010
O12	O	0.598205	0.704859	-0.123089
O13	O	0.527101	0.704854	-0.041035
Zr14	Zr	0.709745	0.633746	0.087656
Zr15	Zr	0.709738	0.633753	-0.087694
Zr16	Zr	0.557784	0.633744	0.087663
Zr17	Zr	0.557781	0.785710	-0.087684
Zr18	Zr	0.709741	0.481787	0.087653
O19	O	0.681407	0.754535	0.054957
O20	O	0.681396	0.754545	-0.194368
O21	O	0.465337	0.754531	0.054966
O22	O	0.802195	0.512956	0.194327
O23	O	0.802185	0.512966	-0.054997
O24	O	0.586126	0.512952	0.194336
O25	O	0.802188	0.633754	-0.054995
O26	O	0.681409	0.633741	0.194335
O27	O	0.586129	0.633740	0.194339
O28	O	0.802192	0.633749	0.054950
O29	O	0.586118	0.849822	-0.194362
O30	O	0.681404	0.417675	0.194331
O31	O	0.802193	0.417677	0.194326
O32	O	0.802187	0.417682	0.054946
O33	O	0.465335	0.849815	-0.054977
O34	O	0.586124	0.849817	-0.054982
O35	O	0.669318	0.562638	0.123058
O36	O	0.740421	0.562643	0.041004
O37	O	0.669315	0.704857	-0.041041
O38	O	0.598211	0.704852	0.041013
C39	C	0.633756	0.443670	-0.000019
C40	C	0.633755	0.379160	-0.000020
C41	C	0.581280	-0.028870	-0.060583
C42	C	0.581274	0.031749	-0.060582
C43	C	0.633766	0.009570	-0.000016
C44	C	0.686258	-0.073238	0.060567
C45	C	0.686259	-0.133854	0.060569
N46	N	0.696014	0.065672	0.018320
N47	N	0.696011	0.123258	0.018313
C48	C	0.633767	0.192200	-0.000019
N49	N	0.571523	0.201388	-0.018359
N50	N	0.571526	0.143798	-0.018355
C51	C	0.633771	0.075292	-0.000012
C52	C	0.581269	0.340726	-0.060594
C53	C	0.581263	0.401344	-0.060588
C54	C	0.686252	0.296354	0.060558
C55	C	0.686253	0.235739	0.060555
C56	C	0.633762	0.257930	-0.000025
C57	C	0.443681	0.633745	-0.000008
C58	C	0.379169	0.633744	-0.000005
C59	C	0.385980	0.559512	0.042814
C60	C	0.325365	0.559511	0.042818
C61	C	0.257939	0.633746	-0.000014
C62	C	0.251130	0.707988	-0.042835
C63	C	0.311745	0.707987	-0.042830
N64	N	0.135142	0.689005	-0.069721
N65	N	0.077562	0.689001	-0.069723
C66	C	0.075306	0.633753	-0.000028
N67	N	0.132811	0.578498	0.069669
N68	N	0.190397	0.578500	0.069670
C69	C	0.192207	0.633755	-0.000023
C70	C	0.016393	0.559515	0.042799
C71	C	-0.044225	0.559517	0.042804
C72	C	-0.118459	0.707996	-0.042856
C73	C	-0.057841	0.707992	-0.042854
C74	C	0.009582	0.633749	-0.000028
C75	C	0.823841	0.633752	-0.000024
C76	C	0.888353	0.633753	-0.000026
C77	C	0.633752	0.633757	-0.219351
C78	C	0.633749	0.633760	-0.293792
C79	C	0.633766	0.823827	-0.000012
C80	C	0.633767	0.888337	-0.000011
C81	C	0.596650	0.707981	-0.577820
C82	C	0.596644	0.707986	-0.507880
C83	C	0.670873	0.559510	-0.422212
C84	C	0.670875	0.559506	-0.492152
C85	C	0.633765	0.633744	-0.569956
C86	C	0.633758	0.633753	-0.430075
C87	C	0.633751	0.633757	-0.354243
C88	C	0.633770	0.633740	-0.645793
C89	C	0.633770	0.633740	0.219320
C90	C	0.633773	0.633737	0.293761
C91	C	0.823837	0.443674	-0.000027
C92	C	0.888347	0.379164	-0.000031
C93	C	0.633765	0.443661	0.219317
C94	C	0.633767	0.379148	0.293756
C95	C	0.823846	0.443665	0.219309
C96	C	0.888358	0.379152	0.293745
C97	C	0.443677	0.823832	-0.219340
C98	C	0.379164	0.888345	-0.293777
C99	C	0.443686	0.823823	-0.000004
C100	C	0.379176	0.888333	-0.000000
C101	C	0.633757	0.823835	-0.219348
C102	C	0.633756	0.888349	-0.293787
C103	C	0.881522	0.348871	-0.042868
C104	C	0.942131	0.288265	-0.042888
C105	C	1.009562	0.257950	-0.000066
C106	C	1.016385	0.288250	0.042773
C107	C	0.955777	0.348858	0.042788
C108	C	0.670886	0.348850	0.371549
C109	C	0.670885	0.288241	0.441500
C110	C	0.633768	0.257927	0.433655
C111	C	0.596644	0.288230	0.355854
C112	C	0.596641	0.348842	0.285905
C113	C	0.955776	0.348859	0.285870
C114	C	1.016398	0.288250	0.355805
C115	C	1.009602	0.257933	0.433614
C116	C	0.942177	0.288232	0.441487
C117	C	0.881556	0.348843	0.371553
C118	C	0.311746	0.918646	-0.285902
C119	C	0.251124	0.979273	-0.355836
C120	C	0.257920	1.009593	-0.433645
C121	C	0.325345	0.979290	-0.441518
C122	C	0.385966	0.918668	-0.371584
C123	C	0.386000	0.918633	0.042830
C124	C	0.325392	0.979255	0.042830
C125	C	0.257960	1.009572	0.000005
C126	C	0.251137	0.979270	-0.042830
C127	C	0.311745	0.918653	-0.042835
C128	C	0.670880	0.918645	-0.285917
C129	C	0.670892	0.979254	-0.355854
C130	C	0.633776	1.009571	-0.433661
C131	C	0.596651	0.979270	-0.441529
C132	C	0.596643	0.918657	-0.371593
H133	H	0.729001	-0.201271	0.109896
N134	N	0.808799	0.381556	-0.089057
H135	H	0.781991	0.442404	-0.132151
H136	H	0.782058	0.370941	-0.049715
N137	N	0.710910	0.479443	-0.338297
H138	H	0.691440	0.446985	-0.331736
H139	H	0.705268	0.490779	-0.295236
N140	N	0.192591	1.074941	0.000024
H141	H	0.163409	1.125247	-0.057977
H142	H	0.207207	1.089461	0.033698
N143	N	0.556618	0.788054	-0.516358
H144	H	0.504694	0.820516	-0.547261
H145	H	0.576153	0.820435	-0.547228
N146	N	0.304398	0.885954	-0.201989
H147	H	0.277628	0.932200	-0.195436
H148	H	0.353049	0.842938	-0.158920
N149	N	0.710913	0.479432	-0.483674
H150	H	0.734430	0.432403	-0.423774
H151	H	0.748228	0.476205	-0.510828
H152	H	0.440901	0.893953	0.077708
N153	N	0.742879	-0.097169	0.125893
H154	H	0.719978	-0.074357	0.157717
H155	H	0.770445	-0.074362	0.099406
H156	H	0.196227	1.003963	-0.077697
N157	N	0.934763	0.255594	-0.089095
H158	H	0.882847	0.283993	-0.116212
H159	H	0.958297	0.194745	-0.049777
H160	H	0.633775	0.208572	0.490619
H161	H	0.538527	0.358796	-0.109920
H162	H	0.196230	1.003935	-0.349409
H163	H	0.936654	0.263539	0.504848
N164	N	1.074927	0.192571	-0.000077
H165	H	1.118684	0.177958	0.033551
H166	H	1.074880	0.213722	-0.058111
N167	N	-0.191176	0.788066	-0.089046
H168	H	-0.228543	0.776804	-0.082550
H169	H	-0.196790	0.820488	-0.148941
H170	H	0.961323	0.373534	0.222521
H171	H	1.071296	0.263558	0.077637
N172	N	0.808842	0.381511	0.380053
H173	H	0.813743	0.353101	0.439958
H174	H	0.782078	0.370953	0.352908
N175	N	0.556614	0.788050	-0.661734
H176	H	0.562246	0.776785	-0.704850
H177	H	0.576103	0.820469	-0.668214
N178	N	0.963143	0.381526	0.088997
H179	H	1.015059	0.353119	0.116121
H180	H	0.939620	0.370966	0.132063
N181	N	0.332760	1.011929	0.089034
H182	H	0.384675	0.983515	0.116167
H183	H	0.309227	1.001383	0.132093
H184	H	0.208553	1.058955	-0.490582
N185	N	0.710924	0.381537	0.380022
H186	H	0.734433	0.353142	0.439922
H187	H	0.676843	0.442385	0.352866
H188	H	0.538519	0.468761	-0.109914
H189	H	0.701104	0.893970	-0.222569
N190	N	0.458680	0.885987	-0.380084
H191	H	0.453780	0.914396	-0.439989
H192	H	0.485442	0.825141	-0.352942
N193	N	0.332671	1.011989	-0.525442
H194	H	0.359447	1.037142	-0.532008
H195	H	0.284011	1.054954	-0.568492
H196	H	0.566424	0.263539	0.349479
N197	N	0.710929	0.255562	0.525406
H198	H	0.734447	0.283960	0.519755
H199	H	0.748243	0.194713	0.556293
N200	N	0.556561	0.381559	0.202001
H201	H	0.533037	0.353167	0.207654
H202	H	0.590604	0.371038	0.171069
H203	H	0.728989	0.278294	0.109876
H204	H	1.071293	0.263587	0.349380
N205	N	0.304379	0.885975	-0.089032
H206	H	0.252464	0.914382	-0.116156
H207	H	0.327904	0.825128	-0.049709
N208	N	0.556586	0.885999	-0.380092
H209	H	0.562206	0.843002	-0.323986
H210	H	0.576070	0.860901	-0.411026
N211	N	0.710938	1.011927	-0.347356
H212	H	0.734442	0.983526	-0.287452
H213	H	0.676863	1.072775	-0.374509
H214	H	1.058969	0.208579	0.490551
N215	N	0.089118	0.479445	0.088989
H216	H	0.084233	0.432417	0.116122
H217	H	0.115885	0.476210	0.132046
N218	N	0.633796	1.074938	-0.509088
H219	H	0.662949	1.089525	-0.492288
H220	H	0.583510	1.125201	-0.542728
N221	N	0.556620	1.011973	-0.525452
H222	H	0.562260	1.054969	-0.568555
H223	H	0.504711	1.037085	-0.531934
H224	H	-0.038672	0.499066	0.077679
H225	H	0.330911	0.499061	0.077687
H226	H	0.306194	0.768437	-0.077697
N227	N	0.524670	-0.004938	-0.125922
H228	H	0.491419	0.056714	-0.164295
H229	H	0.497136	-0.027797	-0.099440
H230	H	0.538523	0.099171	-0.109899
H231	H	0.728996	0.168323	0.109877
H232	H	0.440876	0.499058	0.077681
H233	H	-0.063391	0.768440	-0.077727
N234	N	0.178410	0.788057	-0.089025
H235	H	0.141043	0.776794	-0.082532
H236	H	0.172796	0.820481	-0.148920
