data_functionalizedCrystal
_audit_creation_method	'MofGen! by Chris Wilmer'
_symmetry_space_group_name_H-M	'P1'
_symmetry_Int_Tables_number	1
_symmetry_cell_setting	triclinic
loop_
_symmetry_equiv_pos_as_xyz
  x,y,z
_cell_length_a	6.817900
_cell_length_b	13.167930
_cell_length_c	12.908943
_cell_angle_alpha	100.244473
_cell_angle_beta	100.860631
_cell_angle_gamma	105.754568
loop_
_atom_site_label
_atom_site_type_symbol
_atom_site_fract_x
_atom_site_fract_y
_atom_site_fract_z
V1	V	-4.014048	-0.147492	-0.343109
O2	O	-3.983286	0.008469	-0.321597
O3	O	-3.983462	-0.293781	-0.355171
O4	O	-3.951977	-0.144617	-0.486178
O5	O	-4.014988	-0.141727	-0.189683
V6	V	-4.497139	-0.128909	-0.323008
O7	O	-4.276254	-0.188256	-0.387203
O8	O	-4.685131	-0.088145	-0.278914
O9	O	-4.304519	0.017380	-0.310946
O10	O	-4.645299	-0.284870	-0.344521
O11	O	-4.613596	-0.134674	-0.476434
O12	O	-4.336004	-0.131784	-0.179940
C13	C	-3.833239	-0.329462	-0.353476
C14	C	-3.889427	-0.449050	-0.364292
C15	C	-3.928873	-0.643836	-0.188591
C16	C	-3.981665	-0.756200	-0.198748
C17	C	-4.047818	-0.786144	-0.394763
C18	C	-3.995026	-0.673780	-0.384606
C19	C	-3.935551	-0.602630	-0.281516
C20	C	-3.882744	-0.490264	-0.271360
C21	C	-3.948912	-0.520210	-0.467374
C22	C	-4.001704	-0.632574	-0.477531
C23	C	-3.793076	-0.139187	-0.520587
C24	C	-3.823728	-0.137804	-0.637640
C25	C	-4.245876	-0.145881	-0.869377
C26	C	-4.274686	-0.144583	-0.979360
C27	C	-3.910155	-0.133901	-0.967589
C28	C	-3.881346	-0.135199	-0.857606
C29	C	-4.049215	-0.141192	-0.808505
C30	C	-4.020407	-0.142498	-0.698522
C31	C	-3.655875	-0.131808	-0.686751
C32	C	-3.684684	-0.130510	-0.796734
C33	C	-4.118085	0.053055	-0.312639
C34	C	-4.041135	0.172643	-0.301830
C35	C	-4.158248	-0.137217	-0.145526
C36	C	-4.106834	-0.138594	-0.028470
H37	H	-3.976224	-0.789745	-0.123078
O38	O	-4.065869	-0.709318	-0.588716
H39	H	-3.955206	-0.757146	-0.593701
H40	H	-3.880418	-0.585903	-0.104650
O41	O	-4.486804	-0.149639	-1.045011
H42	H	-4.478637	-0.147720	-1.129737
H43	H	-3.773490	-0.129015	-1.007585
H44	H	-3.548015	-0.125627	-0.836726
O45	O	-3.443736	-0.126739	-0.621096
H46	H	-3.451893	-0.128641	-0.536366
H47	H	-4.096279	-0.844094	-0.478694
H48	H	-4.382569	-0.150772	-0.829401
O49	O	-3.956126	-0.475780	-0.567618
H50	H	-4.118419	-0.508620	-0.620899
H51	H	-3.834305	-0.432333	-0.187418
H52	H	-4.157099	-0.147381	-0.658547
