data_functionalizedCrystal
_audit_creation_method	'MofGen! by Chris Wilmer'
_symmetry_space_group_name_H-M	'P1'
_symmetry_Int_Tables_number	1
_symmetry_cell_setting	triclinic
loop_
_symmetry_equiv_pos_as_xyz
  x,y,z
_cell_length_a	18.215407
_cell_length_b	21.295417
_cell_length_c	18.215399
_cell_angle_alpha	89.967848
_cell_angle_beta	89.980167
_cell_angle_gamma	90.030955
loop_
_atom_site_label
_atom_site_type_symbol
_atom_site_fract_x
_atom_site_fract_y
_atom_site_fract_z
Zn1	Zn	1.125043	-0.250608	-0.416094
Zn2	Zn	1.625043	0.249392	0.083906
Zn3	Zn	1.124940	-0.355879	-0.293019
Zn4	Zn	1.624940	0.144121	0.206981
Zn5	Zn	1.001976	-0.250629	-0.293042
Zn6	Zn	1.501976	0.249371	0.206958
Zn7	Zn	1.001930	-0.355844	-0.416044
Zn8	Zn	1.501930	0.144156	0.083956
O9	O	1.063472	-0.303240	-0.354550
O10	O	1.563472	0.196760	0.145450
O11	O	1.228014	-0.264579	-0.399780
O12	O	1.728014	0.235421	0.100220
O13	O	1.108604	-0.341941	-0.190038
O14	O	1.608604	0.158059	0.309962
O15	O	1.018364	-0.162537	-0.309396
O16	O	1.518364	0.337463	0.190604
O17	O	1.227938	-0.341921	-0.309357
O18	O	1.727938	0.158079	0.190643
O19	O	1.108781	-0.162521	-0.399802
O20	O	1.608781	0.337479	0.100198
O21	O	1.018263	-0.264614	-0.190054
O22	O	1.518263	0.235386	0.309946
O23	O	0.898985	-0.264580	-0.309347
O24	O	1.398985	0.235420	0.190653
O25	O	1.018285	-0.341861	-0.519035
O26	O	1.518285	0.158139	-0.019035
O27	O	0.898951	-0.341881	-0.399716
O28	O	1.398951	0.158119	0.100284
O29	O	1.108736	-0.264545	-0.519072
O30	O	1.608736	0.235455	-0.019072
O31	O	1.108559	-0.443964	-0.309308
O32	O	1.608559	0.056036	0.190692
O33	O	1.018184	-0.443938	-0.399694
O34	O	1.518184	0.056062	0.100306
C35	C	0.872266	-0.303229	-0.354529
C36	C	1.372266	0.196771	0.145471
C37	C	0.790467	-0.303240	-0.354537
C38	C	1.290467	0.196760	0.145463
C39	C	1.063376	-0.466792	-0.354509
C40	C	1.563376	0.033208	0.145491
C41	C	1.063402	-0.536760	-0.354516
C42	C	1.563402	-0.036760	0.145484
C43	C	0.602275	-0.343554	-0.401533
C44	C	1.102275	0.156446	0.098467
C45	C	0.525416	-0.343556	-0.401542
C46	C	1.025416	0.156444	0.098458
C47	C	0.525422	-0.262938	-0.307582
C48	C	1.025422	0.237062	0.192418
C49	C	0.602279	-0.262933	-0.307577
C50	C	1.102279	0.237067	0.192423
C51	C	0.640703	-0.303245	-0.354552
C52	C	1.140703	0.196755	0.145448
C53	C	0.486987	-0.303251	-0.354566
C54	C	0.986987	0.196749	0.145434
C55	C	0.403654	-0.303253	-0.354575
C56	C	0.903654	0.196747	0.145425
C57	C	0.724042	-0.303242	-0.354543
C58	C	1.224042	0.196758	0.145457
C59	C	1.110502	-0.569619	-0.307500
C60	C	1.610502	-0.069619	0.192500
C61	C	1.110536	-0.635361	-0.307517
C62	C	1.610536	-0.135361	0.192483
C63	C	1.063457	-0.668242	-0.354542
C64	C	1.563457	-0.168242	0.145458
C65	C	1.016354	-0.635375	-0.401566
C66	C	1.516354	-0.135375	0.098434
C67	C	1.016326	-0.569634	-0.401554
C68	C	1.516326	-0.069634	0.098446
N69	N	0.999079	-0.771508	-0.360145
N70	N	1.499079	-0.271508	0.139855
N71	N	0.999107	-0.833960	-0.360153
N72	N	1.499107	-0.333960	0.139847
C73	C	1.063540	-0.866317	-0.354584
C74	C	1.563540	-0.366317	0.145416
N75	N	1.127944	-0.833863	-0.348993
N76	N	1.627944	-0.333863	0.151007
N77	N	1.127915	-0.771406	-0.348981
N78	N	1.627915	-0.271406	0.151019
C79	C	1.063483	-0.739528	-0.354561
C80	C	1.563483	-0.239528	0.145439
C81	C	1.110681	-0.970462	-0.307584
C82	C	1.610681	-0.470462	0.192416
C83	C	1.110717	-1.036205	-0.307605
C84	C	1.610717	-0.536205	0.192395
C85	C	1.016528	-1.036218	-0.401651
C86	C	1.516528	-0.536218	0.098349
C87	C	1.016499	-0.970475	-0.401633
C88	C	1.516499	-0.470475	0.098367
C89	C	1.063575	-0.937601	-0.354595
C90	C	1.563575	-0.437601	0.145405
C91	C	1.255425	-0.303251	-0.354571
C92	C	1.755425	0.196749	0.145429
C93	C	1.337224	-0.303256	-0.354581
C94	C	1.837224	0.196744	0.145419
C95	C	1.063517	-0.303197	-0.546503
C96	C	1.563517	0.196803	-0.046503
C97	C	1.063536	-0.303178	-0.628302
C98	C	1.563536	0.196822	-0.128302
C99	C	1.063589	-0.139050	-0.354607
C100	C	1.563589	0.360950	0.145393
C101	C	1.063639	-0.069082	-0.354631
C102	C	1.563639	0.430918	0.145369
C103	C	1.110651	-0.262882	-0.816516
C104	C	1.610651	0.237118	-0.316516
C105	C	1.110660	-0.262863	-0.893375
C106	C	1.610660	0.237137	-0.393375
C107	C	1.016473	-0.343377	-0.893325
C108	C	1.516473	0.156623	-0.393325
C109	C	1.016461	-0.343392	-0.816468
C110	C	1.516461	0.156608	-0.316468
C111	C	1.063554	-0.303145	-0.778065
C112	C	1.563554	0.196855	-0.278065
C113	C	1.063575	-0.303112	-0.931781
C114	C	1.563575	0.196888	-0.431781
C115	C	1.063584	-0.303093	-1.015115
C116	C	1.563584	0.196907	-0.515115
C117	C	1.063544	-0.303164	-0.694726
C118	C	1.563544	0.196836	-0.194726
C119	C	1.063470	-0.303238	-0.163344
C120	C	1.563470	0.196762	0.336656
C121	C	1.063593	-0.303079	-0.081545
C122	C	1.563593	0.196921	0.418455
H123	H	0.633557	-0.376377	-0.439785
H124	H	1.133557	0.123623	0.060215
O125	O	0.639647	-0.223708	-0.262041
O126	O	1.139647	0.276292	0.237959
C127	C	0.684157	-0.183104	-0.304024
C128	C	1.184157	0.316896	0.195976
H129	H	0.661018	-0.179279	-0.361995
H130	H	1.161018	0.320721	0.138005
H131	H	0.685048	-0.134632	-0.277510
H132	H	1.185048	0.365368	0.222490
H133	H	0.742395	-0.202569	-0.306518
H134	H	1.242395	0.297431	0.193482
H135	H	1.148995	-0.230109	-0.785251
H136	H	1.648995	0.269891	-0.285251
O137	O	0.970774	-0.938622	-0.447400
O138	O	1.470774	-0.438622	0.052600
C139	C	0.986831	-0.954616	-0.520768
C140	C	1.486831	-0.454616	-0.020768
H141	H	1.015143	-1.002324	-0.522331
H142	H	1.515143	-0.502324	-0.022331
H143	H	0.933699	-0.956886	-0.553716
H144	H	1.433699	-0.456886	-0.053716
H145	H	1.024635	-0.917570	-0.545584
H146	H	1.524635	-0.417570	-0.045584
H147	H	1.149009	-0.230076	-0.924678
H148	H	1.649009	0.269924	-0.424678
H149	H	1.148893	-0.662121	-0.269231
H150	H	1.648893	-0.162121	0.230769
O151	O	0.970822	-1.068248	-0.447265
O152	O	1.470822	-0.568248	0.052735
C153	C	0.980962	-1.133320	-0.437212
C154	C	1.480962	-0.633320	0.062788
H155	H	1.005098	-1.142317	-0.380441
H156	H	1.505098	-0.642317	0.119559
H157	H	0.925847	-1.158346	-0.442163
H158	H	1.425847	-0.658346	0.057837
H159	H	1.020139	-1.151915	-0.480903
H160	H	1.520139	-0.651915	0.019097
O161	O	0.488200	-0.382773	-0.447202
O162	O	0.988200	0.117227	0.052798
C163	C	0.538599	-0.418337	-0.488673
C164	C	1.038599	0.081663	0.011327
H165	H	0.593370	-0.420481	-0.458518
H166	H	1.093370	0.079519	0.041482
H167	H	0.516368	-0.467944	-0.496419
H168	H	1.016368	0.032056	0.003581
H169	H	0.546812	-0.395346	-0.544614
H170	H	1.046812	0.104654	-0.044614
O171	O	0.970771	-0.382562	-0.930551
O172	O	1.470771	0.117438	-0.430551
C173	C	0.986823	-0.445306	-0.911761
C174	C	1.486823	0.054694	-0.411761
H175	H	1.015101	-0.446621	-0.855961
H176	H	1.515101	0.053379	-0.355961
H177	H	0.933691	-0.473532	-0.909112
H178	H	1.433691	0.026468	-0.409112
H179	H	1.024653	-0.466500	-0.955015
H180	H	1.524653	0.033500	-0.455015
H181	H	0.978104	-0.376179	-0.785160
H182	H	1.478104	0.123821	-0.285160
O183	O	0.487981	-0.223841	-0.261976
O184	O	0.987981	0.276159	0.238024
C185	C	0.411903	-0.232476	-0.272067
C186	C	0.911903	0.267524	0.227933
H187	H	0.401389	-0.281084	-0.296063
H188	H	0.901389	0.218916	0.203937
H189	H	0.382673	-0.228146	-0.216954
H190	H	0.882673	0.271854	0.283046
H191	H	0.390131	-0.195183	-0.311341
H192	H	0.890131	0.304817	0.188659
H193	H	0.978024	-0.662151	-0.439855
H194	H	1.478024	-0.162151	0.060145
O195	O	1.156306	-0.537784	-0.261794
O196	O	1.656306	-0.037784	0.238206
C197	C	1.197874	-0.580889	-0.220288
C198	C	1.697874	-0.080889	0.279712
H199	H	1.200419	-0.627732	-0.250442
H200	H	1.700419	-0.127732	0.249558
H201	H	1.255856	-0.561858	-0.212491
H202	H	1.755856	-0.061858	0.287509
H203	H	1.170961	-0.587933	-0.164370
H204	H	1.670961	-0.087933	0.335630
H205	H	1.149015	-0.943694	-0.269285
H206	H	1.649015	-0.443694	0.230715
O207	O	0.970499	-0.537809	-0.447248
O208	O	1.470499	-0.037809	0.052752
C209	C	0.928968	-0.580924	-0.488775
C210	C	1.428968	-0.080924	0.011225
H211	H	0.926457	-0.627809	-0.458642
H212	H	1.426457	-0.127809	0.041358
H213	H	0.870972	-0.561969	-0.496569
H214	H	1.370972	-0.061969	0.003431
H215	H	0.955891	-0.587857	-0.544694
H216	H	1.455891	-0.087857	-0.044694
O217	O	1.156497	-1.068030	-0.261863
O218	O	1.656497	-0.568030	0.238137
C219	C	1.198050	-1.024913	-0.220359
C220	C	1.698050	-0.524913	0.279641
H221	H	1.167885	-0.978076	-0.217775
H222	H	1.667885	-0.478076	0.282225
H223	H	1.205937	-1.043940	-0.162387
H224	H	1.705937	-0.543940	0.337613
H225	H	1.253926	-1.017858	-0.247354
H226	H	1.753926	-0.517858	0.252646
