data_functionalizedCrystal
_audit_creation_method	'MofGen! by Chris Wilmer'
_symmetry_space_group_name_H-M	'P1'
_symmetry_Int_Tables_number	1
_symmetry_cell_setting	triclinic
loop_
_symmetry_equiv_pos_as_xyz
  x,y,z
_cell_length_a	12.645331
_cell_length_b	12.645330
_cell_length_c	13.897441
_cell_angle_alpha	89.970564
_cell_angle_beta	89.977919
_cell_angle_gamma	90.011625
loop_
_atom_site_label
_atom_site_type_symbol
_atom_site_fract_x
_atom_site_fract_y
_atom_site_fract_z
Zn1	Zn	1.620762	-0.422034	-0.545424
Zn2	Zn	1.620661	-0.599330	-0.384128
Zn3	Zn	1.443479	-0.422078	-0.384138
Zn4	Zn	1.443474	-0.599253	-0.545377
O5	O	1.532094	-0.510674	-0.464767
O6	O	1.769096	-0.445567	-0.524043
O7	O	1.597117	-0.575867	-0.249148
O8	O	1.467040	-0.273725	-0.405557
O9	O	1.769022	-0.575825	-0.405540
O10	O	1.597289	-0.273693	-0.524052
O11	O	1.466942	-0.445641	-0.249155
O12	O	1.295131	-0.445566	-0.405512
O13	O	1.467032	-0.575694	-0.680365
O14	O	1.295127	-0.575736	-0.523973
O15	O	1.597285	-0.445493	-0.680399
O16	O	1.597113	-0.747667	-0.405495
O17	O	1.466934	-0.747611	-0.523964
C18	C	1.256664	-0.510649	-0.464739
C19	C	1.138834	-0.510663	-0.464750
C20	C	0.971237	-0.428397	-0.390637
C21	C	1.093797	-0.428610	-0.390310
C22	C	1.094324	-0.622339	-0.436981
C23	C	0.971726	-0.621889	-0.436475
C24	C	0.971681	-0.482318	-0.566918
C25	C	1.094287	-0.479823	-0.566351
C26	C	1.532041	-0.786104	-0.464744
C27	C	1.532115	-0.903934	-0.464766
C28	C	1.613879	-1.071489	-0.390086
C29	C	1.614145	-0.948929	-0.390269
C30	C	1.562414	-0.948311	-0.566444
C31	C	1.563063	-1.070910	-0.566047
C32	C	1.420020	-1.071260	-0.438772
C33	C	1.420557	-0.948656	-0.436491
C34	C	1.808599	-0.510700	-0.464795
C35	C	1.926429	-0.510711	-0.464808
C36	C	1.532169	-0.510580	-0.716360
C37	C	1.532201	-0.510540	-0.823574
C38	C	1.532176	-0.234169	-0.464811
C39	C	1.532211	-0.116338	-0.464830
C40	C	1.532230	-0.510468	-1.019869
C41	C	1.532211	-0.510511	-0.910637
C42	C	1.532080	-0.510691	-0.214152
C43	C	1.532253	-0.510432	-0.106939
H44	H	1.124949	-0.535403	-0.624570
H45	H	1.392468	-1.102272	-0.365920
Cl46	Cl	0.925959	-0.719788	-0.516235
Cl47	Cl	1.584987	-1.117127	-0.273343
H48	H	1.124982	-0.646830	-0.363134
H49	H	1.123890	-0.345798	-0.407716
Cl50	Cl	0.925736	-0.300152	-0.417217
H51	H	0.943083	-0.645967	-0.361827
Cl52	Cl	1.475205	-1.116714	-0.654949
H53	H	1.696529	-1.102220	-0.407129
Cl54	Cl	0.923594	-0.457028	-0.274500
Cl55	Cl	1.385276	-0.903885	-0.320970
Cl56	Cl	1.584809	-0.902606	-0.273884
H57	H	0.940777	-0.402305	-0.592172
Cl58	Cl	1.689674	-1.114936	-0.600122
H59	H	1.697241	-0.919521	-0.407505
Cl60	Cl	1.139011	-0.457579	-0.273483
H61	H	1.123499	-0.685308	-0.489307
Cl62	Cl	1.139228	-0.352952	-0.598694
Cl63	Cl	1.473367	-0.903323	-0.654730
Cl64	Cl	0.926947	-0.574879	-0.652242
H65	H	1.643494	-0.917524	-0.588884
Cl66	Cl	1.321539	-0.901388	-0.514379
Cl67	Cl	1.326072	-1.116043	-0.522816
