data_functionalizedCrystal
_audit_creation_method	'MofGen! by Chris Wilmer'
_symmetry_space_group_name_H-M	'P1'
_symmetry_Int_Tables_number	1
_symmetry_cell_setting	triclinic
loop_
_symmetry_equiv_pos_as_xyz
  x,y,z
_cell_length_a	6.817900
_cell_length_b	14.125469
_cell_length_c	19.453114
_cell_angle_alpha	96.284531
_cell_angle_beta	101.709288
_cell_angle_gamma	100.398878
loop_
_atom_site_label
_atom_site_type_symbol
_atom_site_fract_x
_atom_site_fract_y
_atom_site_fract_z
V1	V	-3.991106	-0.134114	-0.218726
O2	O	-3.995376	0.005414	-0.214841
O3	O	-3.927403	-0.264935	-0.216961
O4	O	-3.934209	-0.132504	-0.314242
O5	O	-3.988523	-0.127934	-0.116887
V6	V	-4.477817	-0.117372	-0.206578
O7	O	-4.245369	-0.170841	-0.245373
O8	O	-4.673751	-0.080645	-0.179930
O9	O	-4.318314	0.013449	-0.208342
O10	O	-4.590944	-0.256900	-0.210462
O11	O	-4.597797	-0.123552	-0.308416
O12	O	-4.311507	-0.118982	-0.111061
C13	C	-3.768956	-0.296812	-0.213441
C14	C	-3.798101	-0.403763	-0.212636
C15	C	-3.777637	-0.127882	-0.337532
C16	C	-3.812300	-0.127430	-0.415615
C17	C	-3.851530	-0.599581	-0.211170
C18	C	-4.036760	-0.651917	-0.214135
C19	C	-4.066490	-0.760877	-0.213320
C20	C	-3.821792	-0.490611	-0.211986
C21	C	-4.009802	-0.132048	-0.455863
C22	C	-4.042372	-0.131624	-0.529230
C23	C	-3.877435	-0.126602	-0.562350
C24	C	-3.679904	-0.121979	-0.522092
C25	C	-3.647336	-0.122393	-0.448725
N26	N	-3.811749	-0.177410	-0.681035
N27	N	-3.842699	-0.177019	-0.750731
C28	C	-3.975548	-0.125351	-0.783400
N29	N	-4.076310	-0.074102	-0.743742
N30	N	-4.045364	-0.074498	-0.674040
C31	C	-3.912729	-0.126151	-0.641903
C32	C	-4.208378	-0.129508	-0.903202
C33	C	-4.240939	-0.129078	-0.976570
C34	C	-3.878468	-0.119442	-0.969431
C35	C	-3.845909	-0.119863	-0.896063
C36	C	-4.010873	-0.124900	-0.862954
C37	C	-4.140102	0.045321	-0.211860
C38	C	-4.090194	0.152270	-0.212670
C39	C	-4.131421	-0.123608	-0.087768
C40	C	-4.075997	-0.124054	-0.009684
H41	H	-3.715288	-0.636605	-0.208019
H42	H	-4.144131	-0.136146	-0.428909
C43	C	-4.259643	-0.136727	-0.573514
H44	H	-4.353226	-0.139797	-0.543289
H45	H	-4.261410	-0.080381	-0.595994
H46	H	-4.298350	-0.193174	-0.608575
C47	C	-3.430078	-0.117324	-0.404451
H48	H	-3.336507	-0.114277	-0.434681
H49	H	-3.391323	-0.060895	-0.369380
H50	H	-3.428367	-0.173691	-0.381988
C51	C	-3.697036	-0.113918	-1.005853
H52	H	-3.744718	-0.114338	-1.055313
H53	H	-3.598717	-0.055614	-0.986063
H54	H	-3.635759	-0.168410	-0.998664
H55	H	-3.545612	-0.117887	-0.549062
C56	C	-4.389820	-0.135039	-0.866777
H57	H	-4.512111	-0.137714	-0.901256
H58	H	-4.403167	-0.191797	-0.844606
H59	H	-4.366131	-0.079002	-0.832003
H60	H	-4.173011	-0.614891	-0.217285
H61	H	-3.685086	-0.116113	-0.863294
H62	H	-4.401770	-0.132830	-1.009338
