data_functionalizedCrystal
_audit_creation_method	'MofGen! by Chris Wilmer'
_symmetry_space_group_name_H-M	'P1'
_symmetry_Int_Tables_number	1
_symmetry_cell_setting	triclinic
loop_
_symmetry_equiv_pos_as_xyz
  x,y,z
_cell_length_a	12.759395
_cell_length_b	16.959453
_cell_length_c	16.959447
_cell_angle_alpha	89.968936
_cell_angle_beta	89.988018
_cell_angle_gamma	90.019833
loop_
_atom_site_label
_atom_site_type_symbol
_atom_site_fract_x
_atom_site_fract_y
_atom_site_fract_z
Zn1	Zn	1.606153	-0.314669	-0.446855
Zn2	Zn	2.106153	0.185331	0.053145
Zn3	Zn	1.606050	-0.446862	-0.314675
Zn4	Zn	2.106050	0.053138	0.185325
Zn5	Zn	1.430474	-0.314701	-0.314698
Zn6	Zn	1.930474	0.185299	0.185302
Zn7	Zn	1.430427	-0.446809	-0.446819
Zn8	Zn	1.930427	0.053191	0.053181
O9	O	1.518276	-0.380760	-0.380762
O10	O	2.018276	0.119240	0.119238
O11	O	1.753160	-0.332214	-0.429327
O12	O	2.253160	0.167786	0.070673
O13	O	1.582736	-0.429365	-0.204067
O14	O	2.082736	0.070635	0.295933
O15	O	1.453841	-0.204086	-0.332254
O16	O	1.953841	0.295914	0.167746
O17	O	1.753085	-0.429335	-0.332214
O18	O	2.253085	0.070665	0.167786
O19	O	1.582911	-0.204063	-0.429349
O20	O	2.082911	0.295937	0.070651
O21	O	1.453741	-0.332267	-0.204084
O22	O	1.953741	0.167733	0.295916
O23	O	1.283447	-0.332216	-0.332219
O24	O	1.783447	0.167784	0.167781
O25	O	1.453761	-0.429246	-0.557435
O26	O	1.953761	0.070754	-0.057435
O27	O	1.283412	-0.429276	-0.429287
O28	O	1.783412	0.070724	0.070713
O29	O	1.582866	-0.332163	-0.557461
O30	O	2.082866	0.167837	-0.057461
O31	O	1.582691	-0.557466	-0.332179
O32	O	2.082691	-0.057466	0.167821
O33	O	1.453661	-0.557427	-0.429265
O34	O	1.953661	-0.057427	0.070735
C35	C	1.245308	-0.380745	-0.380752
C36	C	1.745308	0.119255	0.119248
C37	C	1.128532	-0.380757	-0.380767
C38	C	1.628532	0.119243	0.119233
C39	C	1.128591	-0.279788	-0.482053
C40	C	1.628591	0.220212	0.017947
C41	C	1.073760	-0.229313	-0.532703
C42	C	1.573760	0.270687	-0.032703
C43	C	0.964038	-0.229327	-0.532712
C44	C	1.464038	0.270673	-0.032712
C45	C	0.909145	-0.279820	-0.482066
C46	C	1.409145	0.220180	0.017934
C47	C	0.963976	-0.330295	-0.431416
C48	C	1.463976	0.169705	0.068584
C49	C	1.073701	-0.330277	-0.431413
C50	C	1.573701	0.169723	0.068587
C51	C	0.963917	-0.431258	-0.330127
C52	C	1.463917	0.068742	0.169873
C53	C	1.073639	-0.431250	-0.330120
C54	C	1.573639	0.068750	0.169880
C55	C	0.909024	-0.481751	-0.279480
C56	C	1.409024	0.018249	0.220520
C57	C	0.963855	-0.532231	-0.228833
C58	C	1.463855	-0.032231	0.271167
C59	C	1.073584	-0.532216	-0.228826
C60	C	1.573584	-0.032216	0.271174
C61	C	1.128470	-0.481724	-0.279470
C62	C	1.628470	0.018276	0.220530
C63	C	1.518188	-0.586127	-0.380733
C64	C	2.018188	-0.086127	0.119267
C65	C	1.518247	-0.673983	-0.380747
C66	C	2.018247	-0.173983	0.119253
C67	C	1.585569	-1.045388	-0.431415
C68	C	2.085569	-0.545388	0.068585
C69	C	1.451276	-1.045529	-0.330226
C70	C	1.951276	-0.545529	0.169774
C71	C	1.451237	-0.962983	-0.330208
C72	C	1.951237	-0.462983	0.169792
C73	C	1.518364	-0.921636	-0.380795
C74	C	2.018364	-0.421636	0.119205
C75	C	1.585530	-0.962835	-0.431400
C76	C	2.085530	-0.462835	0.068600
C77	C	1.384065	-0.921779	-0.279610
C78	C	1.884065	-0.421779	0.220390
C79	C	1.384023	-0.839228	-0.279590
C80	C	1.884023	-0.339228	0.220410
C81	C	1.451156	-0.797879	-0.330174
C82	C	1.951156	-0.297879	0.169826
C83	C	1.518325	-0.839082	-0.380780
C84	C	2.018325	-0.339082	0.119220
C85	C	1.585452	-0.797735	-0.431367
C86	C	2.085452	-0.297735	0.068633
C87	C	1.652627	-0.838937	-0.481970
C88	C	2.152627	-0.338937	0.018030
C89	C	1.652663	-0.921486	-0.481983
C90	C	2.152663	-0.421486	0.018017
C91	C	1.451120	-0.715330	-0.330160
C92	C	1.951120	-0.215330	0.169840
C93	C	1.585413	-0.715182	-0.431352
C94	C	2.085413	-0.215182	0.068648
C95	C	1.792309	-0.380777	-0.380772
C96	C	2.292309	0.119223	0.119228
C97	C	1.909086	-0.380784	-0.380776
C98	C	2.409086	0.119216	0.119224
C99	C	1.518320	-0.380695	-0.586930
C100	C	2.018320	0.119305	-0.086930
C101	C	1.518338	-0.380667	-0.674787
C102	C	2.018338	0.119333	-0.174787
C103	C	1.518393	-0.174592	-0.380808
C104	C	2.018393	0.325408	0.119192
C105	C	1.518442	-0.086735	-0.380828
C106	C	2.018442	0.413265	0.119172
C107	C	1.451245	-0.431130	-1.046251
C108	C	1.951245	0.068870	-0.546251
C109	C	1.585683	-0.330037	-1.046274
C110	C	2.085683	0.169963	-0.546274
C111	C	1.585655	-0.330054	-0.963728
C112	C	2.085655	0.169946	-0.463728
C113	C	1.518422	-0.380610	-0.922440
C114	C	2.018422	0.119390	-0.422440
C115	C	1.451217	-0.431150	-0.963698
C116	C	1.951217	0.068850	-0.463698
C117	C	1.652866	-0.279521	-0.922464
C118	C	2.152866	0.220479	-0.422464
C119	C	1.652842	-0.279536	-0.839913
C120	C	2.152842	0.220464	-0.339913
C121	C	1.585603	-0.330089	-0.798624
C122	C	2.085603	0.169911	-0.298624
C123	C	1.518394	-0.380630	-0.839886
C124	C	2.018394	0.119370	-0.339886
C125	C	1.451161	-0.431187	-0.798598
C126	C	1.951161	0.068813	-0.298598
C127	C	1.383946	-0.481724	-0.839859
C128	C	1.883946	0.018276	-0.339859
C129	C	1.383978	-0.481703	-0.922408
C130	C	1.883978	0.018297	-0.422408
C131	C	1.585571	-0.330110	-0.716075
C132	C	2.085571	0.169890	-0.216075
C133	C	1.451133	-0.431207	-0.716045
C134	C	1.951133	0.068793	-0.216045
C135	C	1.518293	-0.380768	-0.175396
C136	C	2.018293	0.119232	0.324604
C137	C	1.518478	-0.380574	-0.087539
C138	C	2.018478	0.119426	0.412461
H139	H	0.819804	-0.279820	-0.482072
H140	H	1.319804	0.220180	0.017928
H141	H	1.118466	-0.188202	-0.573937
H142	H	1.618466	0.311798	-0.073937
Cl143	Cl	1.366601	-0.494763	-0.664146
Cl144	Cl	1.866601	0.005237	-0.164146
Cl145	Cl	1.670069	-0.266588	-0.664207
Cl146	Cl	2.170069	0.233412	-0.164207
Cl147	Cl	0.771088	-0.481766	-0.279489
Cl148	Cl	1.271088	0.018234	0.220511
Cl149	Cl	1.266528	-0.279776	-0.482055
Cl150	Cl	1.766528	0.220224	0.017945
Cl151	Cl	1.737002	-0.786948	-0.545569
Cl152	Cl	2.237002	-0.286948	-0.045569
Cl153	Cl	1.299434	-0.545283	-0.787945
Cl154	Cl	1.799434	-0.045283	-0.287945
Cl155	Cl	1.299494	-0.545234	-0.974284
Cl156	Cl	1.799494	-0.045234	-0.474284
H157	H	1.217811	-0.481703	-0.279466
H158	H	1.717811	0.018297	0.220534
Cl159	Cl	0.895105	-0.165868	-0.596381
Cl160	Cl	1.395105	0.334132	-0.096381
H161	H	1.329411	-0.955450	-0.238427
H162	H	1.829411	-0.455450	0.261573
Cl163	Cl	0.894843	-0.595695	-0.165165
Cl164	Cl	1.394843	-0.095695	0.334835
H165	H	1.707610	-0.238365	-0.956087
H166	H	2.207610	0.261635	-0.456087
Cl167	Cl	1.366878	-1.097509	-0.266646
Cl168	Cl	1.866878	-0.597509	0.233354
H169	H	1.640427	-0.288881	-1.079896
H170	H	2.140427	0.211119	-0.579896
Cl171	Cl	1.142505	-0.595671	-0.165145
Cl172	Cl	1.642505	-0.095671	0.334855
Cl173	Cl	1.366677	-0.663537	-0.266552
Cl174	Cl	1.866677	-0.163537	0.233448
H175	H	1.396517	-0.472274	-1.079850
H176	H	1.896517	0.027726	-0.579850
Cl177	Cl	1.737334	-0.216001	-0.788049
Cl178	Cl	2.237334	0.283999	-0.288049
Cl179	Cl	1.669812	-0.663209	-0.494946
Cl180	Cl	2.169812	-0.163209	0.005054
Cl181	Cl	1.670017	-1.097182	-0.495024
Cl182	Cl	2.170017	-0.597182	0.004976
H183	H	1.329327	-0.805686	-0.238386
H184	H	1.829327	-0.305686	0.261614
H185	H	1.707353	-0.955040	-0.523182
H186	H	2.207353	-0.455040	-0.023182
