data_functionalizedCrystal
_audit_creation_method	'MofGen! by Chris Wilmer'
_symmetry_space_group_name_H-M	'P1'
_symmetry_Int_Tables_number	1
_symmetry_cell_setting	triclinic
loop_
_symmetry_equiv_pos_as_xyz
  x,y,z
_cell_length_a	18.050591
_cell_length_b	18.050582
_cell_length_c	18.050589
_cell_angle_alpha	90.018205
_cell_angle_beta	89.975773
_cell_angle_gamma	89.979078
loop_
_atom_site_label
_atom_site_type_symbol
_atom_site_fract_x
_atom_site_fract_y
_atom_site_fract_z
Zn1	Zn	1.135293	-0.420054	0.295786
Zn2	Zn	1.635293	0.079946	0.795786
Zn3	Zn	1.135203	-0.295873	0.419969
Zn4	Zn	1.635203	0.204127	0.919969
Zn5	Zn	1.011112	-0.295865	0.295789
Zn6	Zn	1.511112	0.204135	0.795789
Zn7	Zn	1.011060	-0.420009	0.419930
Zn8	Zn	1.511060	0.079991	0.919930
O9	O	1.073167	-0.357950	0.357868
O10	O	1.573167	0.142050	0.857868
O11	O	1.239205	-0.403603	0.312274
O12	O	1.739205	0.096397	0.812274
O13	O	1.118727	-0.191948	0.403514
O14	O	1.618727	0.308052	0.903514
O15	O	1.027644	-0.312354	0.191864
O16	O	1.527644	0.187646	0.691864
O17	O	1.239140	-0.312369	0.403511
O18	O	1.739140	0.187631	0.903511
O19	O	1.118879	-0.403595	0.191862
O20	O	1.618879	0.096405	0.691862
O21	O	1.027557	-0.191942	0.312279
O22	O	1.527557	0.308058	0.812279
O23	O	0.907180	-0.312311	0.312241
O24	O	1.407180	0.187689	0.812241
O25	O	1.027555	-0.523940	0.403444
O26	O	1.527555	-0.023940	0.903444
O27	O	0.907142	-0.403519	0.403447
O28	O	1.407142	0.096481	0.903447
O29	O	1.118828	-0.523973	0.312236
O30	O	1.618828	-0.023973	0.812236
O31	O	1.118676	-0.312325	0.523888
O32	O	1.618676	0.187675	1.023888
O33	O	1.027468	-0.403527	0.523860
O34	O	1.527468	0.096473	1.023860
C35	C	0.880215	-0.357909	0.357841
C36	C	1.380215	0.142091	0.857841
C37	C	0.797669	-0.357909	0.357847
C38	C	1.297669	0.142091	0.857847
C39	C	1.073196	-0.551656	0.357835
C40	C	1.573196	-0.051656	0.857835
C41	C	1.073208	-0.634202	0.357821
C42	C	1.573208	-0.134202	0.857821
C43	C	0.598217	-0.308425	0.308191
C44	C	1.098217	0.191575	0.808191
C45	C	0.548798	-0.290154	0.375927
C46	C	1.048798	0.209846	0.875927
C47	C	0.646539	-0.357943	0.357869
C48	C	1.146539	0.142057	0.857869
C49	C	0.548877	-0.376212	0.290157
C50	C	1.048877	0.123788	0.790157
C51	C	0.500553	-0.357974	0.357885
C52	C	1.000553	0.142026	0.857885
C53	C	0.598206	-0.339637	0.425641
C54	C	1.098206	0.160363	0.925641
C55	C	0.598289	-0.425726	0.339825
C56	C	1.098289	0.074274	0.839825
C57	C	0.548892	-0.407481	0.407607
C58	C	1.048892	0.092519	0.907607
C59	C	0.730637	-0.357923	0.357859
C60	C	1.230637	0.142077	0.857859
C61	C	0.416457	-0.357994	0.357903
C62	C	0.916457	0.142006	0.857903
C63	C	1.023612	-0.833635	0.407353
C64	C	1.523612	-0.333635	0.907353
C65	C	1.091367	-0.883034	0.425511
C66	C	1.591367	-0.383034	0.925511
C67	C	1.073245	-0.785332	0.357765
C68	C	1.573245	-0.285332	0.857765
C69	C	1.005527	-0.883014	0.339586
C70	C	1.505527	-0.383014	0.839586
C71	C	1.073274	-0.931317	0.357711
C72	C	1.573274	-0.431317	0.857711
C73	C	1.141036	-0.833645	0.375958
C74	C	1.641036	-0.333645	0.875958
C75	C	1.055150	-0.833620	0.290002
C76	C	1.555150	-0.333620	0.790002
C77	C	1.122952	-0.882998	0.308134
C78	C	1.622952	-0.382998	0.808134
C79	C	1.073227	-0.701234	0.357797
C80	C	1.573227	-0.201234	0.857797
C81	C	1.073300	-1.015414	0.357679
C82	C	1.573300	-0.515414	0.857679
C83	C	1.266872	-0.357992	0.357897
C84	C	1.766872	0.142008	0.857897
C85	C	1.349418	-0.358010	0.357909
C86	C	1.849418	0.141990	0.857909
C87	C	1.073077	-0.357938	0.550820
C88	C	1.573077	0.142062	1.050820
C89	C	1.073107	-0.357958	0.633366
C90	C	1.573107	0.142042	1.133366
C91	C	1.073181	-0.164998	0.357848
C92	C	1.573181	0.335002	0.857848
C93	C	1.073312	-0.082453	0.357652
C94	C	1.573312	0.417547	0.857652
C95	C	1.073277	-0.357979	0.164163
C96	C	1.573277	0.142021	0.664163
C97	C	1.073324	-0.357991	0.081617
C98	C	1.573324	0.142009	0.581617
C99	C	1.023557	-0.407536	0.832828
C100	C	1.523557	0.092464	1.332828
C101	C	1.005459	-0.339767	0.882261
C102	C	1.505459	0.160233	1.382261
C103	C	1.073180	-0.357967	0.784497
C104	C	1.573180	0.142033	1.284497
C105	C	1.091314	-0.425744	0.882146
C106	C	1.591314	0.074256	1.382146
C107	C	1.073249	-0.357983	0.930482
C108	C	1.573249	0.142017	1.430482
C109	C	1.055046	-0.290162	0.832842
C110	C	1.555046	0.209838	1.332842
C111	C	1.140933	-0.376186	0.832722
C112	C	1.640933	0.123814	1.332722
C113	C	1.122861	-0.308370	0.882133
C114	C	1.622861	0.191630	1.382133
C115	C	1.073138	-0.357959	0.700398
C116	C	1.573138	0.142041	1.200398
C117	C	1.073291	-0.357983	1.014578
C118	C	1.573291	0.142017	1.514578
H119	H	0.619875	-0.266503	0.266226
H120	H	1.119875	0.233497	0.766226
H121	H	1.039807	-0.811899	0.232736
H122	H	1.539807	-0.311899	0.732736
H123	H	0.620045	-0.483019	0.324530
H124	H	1.120045	0.016981	0.824530
H125	H	0.527370	-0.449370	0.449673
H126	H	1.027370	0.050630	0.949673
N127	N	0.520001	-0.214244	0.396167
N128	N	1.020001	0.285756	0.896167
H129	H	0.537587	-0.176931	0.358371
H130	H	1.037587	0.323069	0.858371
H131	H	0.464062	-0.215117	0.396923
H132	H	0.964062	0.284883	0.896923
N133	N	0.967887	-0.462975	0.804142
N134	N	1.467887	0.037025	1.304142
H135	H	0.968588	-0.462909	0.748192
H136	H	1.468588	0.037091	1.248192
H137	H	0.981061	-0.514013	0.822897
H138	H	1.481061	-0.014013	1.322897
H139	H	0.619785	-0.324134	0.482928
H140	H	1.119785	0.175866	0.982928
N141	N	0.929657	-0.911745	0.319244
N142	N	1.429657	-0.411745	0.819244
H143	H	0.892198	-0.893788	0.356758
H144	H	1.392198	-0.393788	0.856758
H145	H	0.915657	-0.892993	0.268431
H146	H	1.415657	-0.392993	0.768431
N147	N	0.520167	-0.396667	0.214301
N148	N	1.020167	0.103333	0.714301
H149	H	0.538109	-0.359213	0.176814
H150	H	1.038109	0.140787	0.676814
H151	H	0.538948	-0.447504	0.200343
H152	H	1.038948	0.052496	0.700343
H153	H	0.948195	-0.324371	0.904037
H154	H	1.448195	0.175629	1.404037
N155	N	1.034681	-0.214222	0.804283
N156	N	1.534681	0.285778	1.304283
H157	H	1.034759	-0.214690	0.748331
H158	H	1.534759	0.285310	1.248331
H159	H	0.983708	-0.200399	0.822795
H160	H	1.483708	0.299601	1.322795
H161	H	1.106690	-0.904739	0.482794
H162	H	1.606690	-0.404739	0.982794
H163	H	1.164855	-0.266409	0.903645
H164	H	1.664855	0.233591	1.403645
N165	N	0.968066	-0.804916	0.462966
N166	N	1.468066	-0.304916	0.962966
H167	H	0.981847	-0.822891	0.514120
H168	H	1.481847	-0.322891	1.014120
H169	H	0.968139	-0.748970	0.462194
H170	H	1.468139	-0.248970	0.962194
N171	N	1.216934	-0.805049	0.396383
N172	N	1.716934	-0.305049	0.896383
H173	H	1.216450	-0.749097	0.396298
H174	H	1.716450	-0.249097	0.896298
H175	H	1.230681	-0.823514	0.447369
H176	H	1.730681	-0.323514	0.947369
H177	H	1.164986	-0.904535	0.266177
H178	H	1.664986	-0.404535	0.766177
H179	H	1.198184	-0.391613	0.810948
H180	H	1.698184	0.108387	1.310948
N181	N	1.111597	-0.501655	0.910841
N182	N	1.611597	-0.001655	1.410841
H183	H	1.074050	-0.539048	0.892906
H184	H	1.574050	-0.039048	1.392906
H185	H	1.162396	-0.515732	0.892042
H186	H	1.662396	-0.015732	1.392042
