data_functionalizedCrystal
_audit_creation_method	'MofGen! by Chris Wilmer'
_symmetry_space_group_name_H-M	'P1'
_symmetry_Int_Tables_number	1
_symmetry_cell_setting	triclinic
loop_
_symmetry_equiv_pos_as_xyz
  x,y,z
_cell_length_a	13.635800
_cell_length_b	19.551900
_cell_length_c	11.102300
_cell_angle_alpha	85.476255
_cell_angle_beta	108.605850
_cell_angle_gamma	78.335171
loop_
_atom_site_label
_atom_site_type_symbol
_atom_site_fract_x
_atom_site_fract_y
_atom_site_fract_z
V1	V	2.038269	-0.096675	0.396854
O2	O	2.036122	0.004646	0.388685
O3	O	2.009461	-0.191691	0.394731
O4	O	2.026929	-0.095188	0.569666
O5	O	2.018534	-0.092525	0.212539
V6	V	2.279014	-0.084556	0.374736
O7	O	2.171129	-0.123259	0.445370
O8	O	2.371252	-0.057972	0.326220
O9	O	2.196218	0.010460	0.376859
O10	O	2.339859	-0.185877	0.382906
O11	O	2.357447	-0.088706	0.559052
O12	O	2.178751	-0.086043	0.201925
V13	V	2.538269	-0.096675	0.396854
O14	O	2.536122	0.004646	0.388685
O15	O	2.509461	-0.191691	0.394731
O16	O	2.526929	-0.095188	0.569666
O17	O	2.518534	-0.092525	0.212539
V18	V	2.779014	-0.084556	0.374736
O19	O	2.671129	-0.123259	0.445370
O20	O	2.871252	-0.057972	0.326220
O21	O	2.696218	0.010460	0.376859
O22	O	2.839859	-0.185877	0.382906
O23	O	2.857447	-0.088706	0.559052
O24	O	2.678751	-0.086043	0.201925
C25	C	1.930425	-0.214853	0.388623
C26	C	1.947601	-0.292530	0.388039
C27	C	2.162955	-0.855885	0.391408
C28	C	2.146824	-0.782899	0.391948
C29	C	2.047108	-0.742739	0.384661
C30	C	1.963510	-0.775568	0.376801
C31	C	1.979640	-0.848551	0.376248
C32	C	1.968905	-0.630693	0.454535
C33	C	1.952781	-0.557712	0.455095
C34	C	1.997352	-0.517633	0.386360
C35	C	2.058071	-0.550547	0.317081
C36	C	2.074201	-0.623530	0.316529
C37	C	2.029607	-0.663600	0.385259
C38	C	2.063454	-0.405673	0.394796
C39	C	2.047317	-0.332685	0.395328
C40	C	1.864003	-0.325356	0.380194
C41	C	1.880140	-0.398342	0.379649
C42	C	1.979868	-0.438496	0.386957
C43	C	1.952705	-0.091754	0.611768
C44	C	1.984045	-0.091167	0.753047
C45	C	2.106925	0.033619	0.382964
C46	C	2.079369	0.111294	0.383556
C47	C	2.084644	-0.089480	0.159816
C48	C	2.042924	-0.090063	0.018536
C49	C	2.430425	-0.214853	0.388623
C50	C	2.447601	-0.292530	0.388039
C51	C	2.452705	-0.091754	0.611768
C52	C	2.484045	-0.091167	0.753047
C53	C	2.090142	-0.094380	0.825915
C54	C	2.119582	-0.093826	0.958660
C55	C	1.936817	-0.086847	0.945657
C56	C	1.907378	-0.087396	0.812913
C57	C	2.606925	0.033619	0.382964
C58	C	2.579369	0.111294	0.383556
C59	C	2.584644	-0.089480	0.159816
C60	C	2.542924	-0.090063	0.018536
C61	C	2.547039	-0.332570	0.394137
C62	C	2.563196	-0.405558	0.393608
C63	C	2.479911	-0.438503	0.386972
C64	C	2.380466	-0.398457	0.380877
C65	C	2.364312	-0.325472	0.381416
C66	C	2.652424	0.151334	0.377462
C67	C	2.626539	0.224321	0.377997
C68	C	2.527601	0.257266	0.384636
C69	C	2.454540	0.217221	0.390727
C70	C	2.480422	0.144236	0.390182
C71	C	2.590142	-0.094380	0.825915
C72	C	2.619582	-0.093826	0.958660
C73	C	2.436817	-0.086847	0.945657
C74	C	2.407378	-0.087396	0.812913
H75	H	2.244159	-0.888574	0.397355
C76	C	2.288855	-0.434706	0.373556
N77	N	2.219852	-0.462010	0.368027
H78	H	1.820976	-0.084774	0.753579
C79	C	2.497696	-0.518789	0.386372
N80	N	2.511096	-0.579261	0.385915
C81	C	2.140978	-0.659730	0.240311
N82	N	2.191271	-0.686996	0.182898
H83	H	2.732990	0.124521	0.372057
H84	H	2.686043	0.256916	0.373039
C85	C	2.345709	0.253472	0.398028
N86	N	2.263739	0.280778	0.403533
H87	H	2.152571	-0.097449	0.777176
H88	H	2.420929	0.111640	0.395156
H89	H	2.614864	-0.305756	0.399532
H90	H	2.652571	-0.097449	0.777176
H91	H	2.705974	-0.096442	1.017985
C92	C	2.352473	-0.082633	1.011503
N93	N	2.288935	-0.079436	1.061090
C94	C	2.107102	-0.506465	0.241462
N95	N	2.144031	-0.473259	0.184509
C96	C	2.290658	-0.083864	0.732753
N97	N	2.202749	-0.081204	0.672377
H98	H	2.214890	-0.756170	0.398334
H99	H	2.144657	-0.438368	0.400740
H100	H	2.115385	-0.305963	0.401716
H101	H	1.782812	-0.292658	0.374256
H102	H	2.506539	0.316695	0.385078
H103	H	1.812075	-0.425065	0.373260
C104	C	1.885988	-0.521514	0.531298
N105	N	1.835674	-0.494251	0.588692
H106	H	1.932591	-0.663319	0.510496
H107	H	2.644175	-0.438153	0.398567
H108	H	1.882319	-0.742865	0.370866
H109	H	1.911572	-0.875273	0.369858
C110	C	1.852473	-0.082633	1.011503
N111	N	1.788935	-0.079436	1.061090
H112	H	2.283336	-0.292875	0.376443
H113	H	2.205974	-0.096442	1.017985
