data_functionalizedCrystal
_audit_creation_method	'MofGen! by Chris Wilmer'
_symmetry_space_group_name_H-M	'P1'
_symmetry_Int_Tables_number	1
_symmetry_cell_setting	triclinic
loop_
_symmetry_equiv_pos_as_xyz
  x,y,z
_cell_length_a	14.971486
_cell_length_b	23.532407
_cell_length_c	14.048226
_cell_angle_alpha	89.988910
_cell_angle_beta	89.998499
_cell_angle_gamma	83.231404
loop_
_atom_site_label
_atom_site_type_symbol
_atom_site_fract_x
_atom_site_fract_y
_atom_site_fract_z
O1	O	1.186163	0.074216	-0.079061
O2	O	0.925669	0.083104	-0.079088
O3	O	1.063771	-0.004238	-0.079057
O4	O	1.048061	0.161558	-0.079093
O5	O	1.063755	-0.004243	0.079265
O6	O	0.925652	0.083099	0.079233
O7	O	1.186146	0.074211	0.079260
Zn8	Zn	1.055897	0.078654	0.104383
Zn9	Zn	1.055919	0.078661	-0.104212
O10	O	1.048044	0.161553	0.079228
C11	C	0.892340	0.082704	0.000069
C12	C	0.793056	0.081513	0.000059
C13	C	0.735288	0.132824	0.000050
C14	C	0.642001	0.131701	0.000064
C15	C	0.606482	0.079267	0.000082
C16	C	0.664257	0.027952	0.000094
C17	C	0.757543	0.029075	0.000087
C18	C	0.469819	0.025615	0.000108
C19	C	0.376527	0.024491	0.000114
C20	C	0.354277	0.128241	0.000085
C21	C	0.447563	0.129364	0.000078
C22	C	0.505331	0.078049	0.000089
C23	C	1.063363	-0.025458	0.000107
C24	C	1.062160	-0.088680	0.000114
C25	C	1.136342	-0.487466	0.000069
C26	C	1.135224	-0.546871	0.000062
O27	O	1.203992	-0.583321	0.000034
N28	N	1.053123	-0.569849	0.000054
C29	C	0.972133	-0.533418	0.000044
O30	O	0.902196	-0.558417	0.000036
C31	C	0.973251	-0.474014	0.000044
C32	C	1.055358	-0.451040	0.000062
C33	C	1.218442	-0.464491	0.000086
C34	C	1.219559	-0.405090	0.000095
C35	C	1.138576	-0.368664	0.000087
C36	C	1.056475	-0.391639	0.000071
C37	C	0.892263	-0.437584	0.000027
C38	C	0.893388	-0.378177	0.000027
C39	C	0.975495	-0.355203	0.000045
C40	C	0.976609	-0.295812	0.000073
N41	N	1.058711	-0.272834	0.000081
C42	C	1.139694	-0.309260	0.000088
C43	C	0.969791	-0.658170	0.000041
C44	C	0.968671	-0.717573	0.000047
C45	C	1.131763	-0.731022	0.000064
C46	C	1.132882	-0.671618	0.000064
C47	C	1.051892	-0.635193	0.000049
C48	C	1.142034	-0.184513	0.000108
C49	C	1.143143	-0.125106	0.000121
C50	C	0.980052	-0.111663	0.000100
C51	C	0.978942	-0.171064	0.000092
C52	C	1.059940	-0.207489	0.000093
O53	O	0.907878	-0.259327	0.000097
O54	O	1.209619	-0.284253	0.000084
C55	C	1.219475	0.074611	0.000101
C56	C	1.318760	0.075802	0.000104
C57	C	1.048453	0.182773	0.000063
C58	C	1.049655	0.245996	0.000050
N59	N	1.055889	0.078649	0.246744
N60	N	1.055934	0.078661	-0.246572
C61	C	1.117059	0.039990	0.296576
C62	C	1.117065	0.039990	0.396234
C63	C	1.055904	0.078652	0.446058
C64	C	0.994727	0.117313	0.396218
C65	C	0.994717	0.117310	0.296563
C66	C	0.994753	0.117317	0.603933
C67	C	0.994763	0.117320	0.703595
C68	C	1.117101	0.039997	0.703604
C69	C	1.117091	0.039994	0.603948
C70	C	1.055915	0.078656	0.554116
H71	H	0.804577	-0.012707	0.000094
H72	H	0.764199	0.175522	0.000034
H73	H	0.516853	-0.016172	0.000118
H74	H	1.197704	-0.760691	0.000066
H75	H	0.594969	0.173484	0.000055
C76	C	0.883083	-0.230055	-0.081314
C77	C	0.888693	-0.196325	0.000081
H78	H	0.827370	-0.245650	-0.081322
H79	H	0.886910	-0.207148	-0.136507
H80	H	0.931161	-0.260249	-0.081305
H81	H	0.840620	-0.166129	0.000069
H82	H	0.884858	-0.219234	0.055288
C83	C	0.872898	0.129549	0.491880
C84	C	0.927506	0.159815	0.549157
H85	H	0.831383	0.155787	0.458070
H86	H	0.909319	0.106528	0.447949
H87	H	0.840944	0.105812	0.530781
H88	H	0.959465	0.183549	0.510255
H89	H	0.891080	0.182845	0.593093
H90	H	0.347612	-0.018205	0.000129
C91	C	0.807578	-0.698298	0.000029
C92	C	0.878417	-0.742822	0.000036
H93	H	0.751858	-0.713885	0.000012
H94	H	0.811403	-0.675419	0.055240
H95	H	0.811424	-0.675399	-0.055180
H96	H	0.874574	-0.765719	0.055249
H97	H	0.874590	-0.765710	-0.055181
C98	C	1.239031	-0.066094	-0.081245
C99	C	1.233400	-0.099853	0.000135
H100	H	1.294748	-0.050502	-0.081232
H101	H	1.235212	-0.088980	-0.136448
H102	H	1.190957	-0.035897	-0.081235
H103	H	1.281470	-0.130052	0.000122
H104	H	1.237228	-0.076965	0.055353
H105	H	0.944905	0.148789	0.255990
C106	C	0.572262	-0.033497	-0.081274
C107	C	0.625218	-0.029685	0.000111
H108	H	0.548168	-0.069082	-0.081267
H109	H	0.524510	-0.003102	-0.081272
H110	H	0.608201	-0.030900	-0.136479
H111	H	0.589278	-0.032278	0.055317
H112	H	0.672977	-0.060088	0.000118
C113	C	0.876413	-0.583574	0.081425
C114	C	0.880761	-0.618132	0.000039
H115	H	0.821452	-0.558856	0.081417
H116	H	0.879363	-0.607035	0.136624
H117	H	0.925469	-0.561387	0.081419
H118	H	0.831708	-0.640322	0.000048
H119	H	0.877801	-0.594668	-0.055174
H120	H	1.199740	-0.652917	0.000078
C121	C	0.416204	0.231804	0.000057
C122	C	0.486607	0.187000	0.000060
H123	H	0.440311	0.267385	0.000054
H124	H	0.380282	0.229212	-0.055147
H125	H	0.380283	0.229203	0.055274
H126	H	0.522525	0.189598	-0.055161
H127	H	0.522544	0.189592	0.055270
C128	C	1.303356	-0.191824	0.000138
C129	C	1.231067	-0.224545	0.000117
H130	H	1.358320	-0.216539	0.000154
H131	H	1.300404	-0.168369	-0.055067
H132	H	1.300376	-0.168379	0.055353
H133	H	1.234043	-0.247986	-0.055102
H134	H	1.234021	-0.248010	0.055329
C135	C	0.731173	-0.418299	-0.000017
C136	C	0.802006	-0.462827	-0.000001
H137	H	0.675450	-0.433883	-0.000042
H138	H	0.734995	-0.395420	0.055194
H139	H	0.735029	-0.395401	-0.055227
H140	H	0.798154	-0.485722	0.055213
H141	H	0.798183	-0.485715	-0.055218
C142	C	1.380650	-0.424368	0.000101
C143	C	1.309815	-0.379842	0.000101
H144	H	1.436372	-0.408783	0.000097
H145	H	1.376814	-0.447262	0.055307
H146	H	1.376811	-0.447252	-0.055114
H147	H	1.313650	-0.356961	0.055320
H148	H	1.313653	-0.356939	-0.055111
C149	C	1.311838	-0.539082	-0.081292
C150	C	1.307471	-0.504523	0.000094
H151	H	1.366808	-0.563790	-0.081282
H152	H	1.262798	-0.561274	-0.081292
H153	H	1.308883	-0.515616	-0.136497
H154	H	1.310420	-0.527988	0.055299
H155	H	1.356525	-0.482329	0.000103
C156	C	0.841370	-0.081904	0.081461
C157	C	0.891037	-0.071616	0.000086
H158	H	0.786418	-0.057177	0.081447
H159	H	0.828949	-0.120565	0.081450
H160	H	0.875056	-0.074938	0.136673
H161	H	0.857354	-0.078587	-0.055127
H162	H	0.903456	-0.032947	0.000088
H163	H	0.827435	-0.348522	0.000013
C164	C	1.237977	-0.036444	0.306605
C165	C	1.184289	-0.002510	0.241815
H166	H	1.279477	-0.062686	0.272797
H167	H	1.269940	-0.012703	0.345457
H168	H	1.200923	-0.056965	0.345491
H169	H	1.221343	0.018014	0.202933
H170	H	1.152324	-0.026254	0.202947
C171	C	1.137201	-0.037501	0.508318
C172	C	1.184312	-0.002505	0.451002
H173	H	1.178721	-0.063739	0.542122
H174	H	1.100787	-0.014480	0.552255
H175	H	1.100155	-0.058025	0.469444
H176	H	1.221353	0.018022	0.489878
H177	H	1.220742	-0.025529	0.407061
C178	C	0.236459	0.187169	-0.081306
C179	C	0.290782	0.184649	0.000075
H180	H	0.197255	0.221991	-0.081312
H181	H	0.273310	0.185451	-0.136508
H182	H	0.201957	0.155779	-0.081278
H183	H	0.325289	0.216036	0.000044
H184	H	0.253927	0.186373	0.055292
C185	C	1.170534	-0.058542	0.734299
C186	C	1.184351	-0.002503	0.758369
H187	H	1.212058	-0.084775	0.768107
H188	H	1.110910	-0.064791	0.750651
H189	H	1.179279	-0.064066	0.667815
H190	H	1.175598	0.003022	0.824853
H191	H	1.243989	0.003749	0.742024
H192	H	1.166897	0.008516	0.563382
C193	C	0.873807	0.193733	0.693583
C194	C	0.927518	0.159807	0.758364
H195	H	0.832286	0.219958	0.727397
H196	H	0.910837	0.214268	0.654706
H197	H	0.841860	0.169981	0.654721
H198	H	0.959471	0.183559	0.797222
H199	H	0.890484	0.139271	0.797257
H200	H	0.944924	0.148790	0.436791
