data_functionalizedCrystal
_audit_creation_method	'MofGen! by Chris Wilmer'
_symmetry_space_group_name_H-M	'P1'
_symmetry_Int_Tables_number	1
_symmetry_cell_setting	triclinic
loop_
_symmetry_equiv_pos_as_xyz
  x,y,z
_cell_length_a	16.109301
_cell_length_b	19.188924
_cell_length_c	14.586319
_cell_angle_alpha	89.994146
_cell_angle_beta	89.998857
_cell_angle_gamma	83.301774
loop_
_atom_site_label
_atom_site_type_symbol
_atom_site_fract_x
_atom_site_fract_y
_atom_site_fract_z
O1	O	1.102831	0.089745	-0.076194
O2	O	1.352831	0.339745	0.173806
O3	O	1.602831	0.589745	0.423806
O4	O	1.852831	0.839745	0.673806
O5	O	0.860731	0.100913	-0.076208
O6	O	1.110731	0.350913	0.173792
O7	O	1.360731	0.600913	0.423792
O8	O	1.610731	0.850913	0.673792
O9	O	0.988770	-0.006310	-0.076190
O10	O	1.238770	0.243690	0.173810
O11	O	1.488770	0.493690	0.423810
O12	O	1.738770	0.743690	0.673810
O13	O	0.974792	0.196969	-0.076212
O14	O	1.224792	0.446969	0.173788
O15	O	1.474792	0.696969	0.423788
O16	O	1.724792	0.946969	0.673788
O17	O	0.988762	-0.006312	0.076291
O18	O	1.238762	0.243688	0.326291
O19	O	1.488762	0.493688	0.576291
O20	O	1.738762	0.743688	0.826291
O21	O	0.860722	0.100912	0.076273
O22	O	1.110722	0.350912	0.326273
O23	O	1.360722	0.600912	0.576273
O24	O	1.610722	0.850912	0.826273
O25	O	1.102822	0.089743	0.076287
O26	O	1.352822	0.339743	0.326287
O27	O	1.602822	0.589743	0.576287
O28	O	1.852822	0.839743	0.826287
Cu29	Cu	0.981771	0.095328	0.090203
Cu30	Cu	1.231771	0.345328	0.340203
Cu31	Cu	1.481771	0.595328	0.590203
Cu32	Cu	1.731771	0.845328	0.840203
Cu33	Cu	0.981782	0.095329	-0.090124
Cu34	Cu	1.231782	0.345329	0.159876
Cu35	Cu	1.481782	0.595329	0.409876
Cu36	Cu	1.731782	0.845329	0.659876
O37	O	0.974783	0.196967	0.076269
O38	O	1.224783	0.446967	0.326269
O39	O	1.474783	0.696967	0.576269
O40	O	1.724783	0.946967	0.826269
C41	C	0.829754	0.100460	0.000031
C42	C	1.079754	0.350460	0.250031
C43	C	1.329754	0.600460	0.500031
C44	C	1.579754	0.850460	0.750031
C45	C	0.737463	0.099104	0.000026
C46	C	0.987463	0.349104	0.250026
C47	C	1.237463	0.599104	0.500026
C48	C	1.487463	0.849104	0.750026
C49	C	0.428267	0.158294	0.000036
C50	C	0.678267	0.408294	0.250036
C51	C	0.928267	0.658294	0.500036
C52	C	1.178267	0.908294	0.750036
C53	C	0.514983	0.159575	0.000030
C54	C	0.764983	0.409575	0.250030
C55	C	1.014983	0.659575	0.500030
C56	C	1.264983	0.909575	0.750030
C57	C	0.535281	0.032358	0.000032
C58	C	0.785281	0.282358	0.250032
C59	C	1.035281	0.532358	0.500032
C60	C	1.285281	0.782358	0.750032
C61	C	0.448567	0.031077	0.000031
C62	C	0.698567	0.281077	0.250031
C63	C	0.948567	0.531077	0.500031
C64	C	1.198567	0.781077	0.750031
C65	C	0.395061	0.094048	0.000038
C66	C	0.645061	0.344048	0.250038
C67	C	0.895061	0.594048	0.500038
C68	C	1.145061	0.844048	0.750038
C69	C	0.568492	0.096609	0.000033
C70	C	0.818492	0.346609	0.250033
C71	C	1.068492	0.596609	0.500033
C72	C	1.318492	0.846609	0.750033
C73	C	0.662513	0.097997	0.000027
C74	C	0.912513	0.347997	0.250027
C75	C	1.162513	0.597997	0.500027
C76	C	1.412513	0.847997	0.750027
C77	C	0.301034	0.092660	0.000042
C78	C	0.551034	0.342660	0.250042
C79	C	0.801034	0.592660	0.500042
C80	C	1.051034	0.842660	0.750042
C81	C	0.988314	-0.032323	0.000051
C82	C	1.238314	0.217677	0.250051
C83	C	1.488314	0.467677	0.500051
C84	C	1.738314	0.717677	0.750051
C85	C	0.986958	-0.109831	0.000054
C86	C	1.236958	0.140169	0.250054
C87	C	1.486958	0.390169	0.500054
C88	C	1.736958	0.640169	0.750054
C89	C	0.986330	-0.146231	-0.083064
C90	C	1.236330	0.103769	0.166936
C91	C	1.486330	0.353769	0.416936
C92	C	1.736330	0.603769	0.666936
C93	C	0.985044	-0.219057	-0.083071
C94	C	1.235044	0.030943	0.166929
C95	C	1.485044	0.280943	0.416929
C96	C	1.735044	0.530943	0.666929
C97	C	0.984403	-0.255482	0.000045
C98	C	1.234403	-0.005482	0.250045
C99	C	1.484403	0.244518	0.500045
C100	C	1.734403	0.494518	0.750045
C101	C	0.985027	-0.219073	0.083173
C102	C	1.235027	0.030927	0.333173
C103	C	1.485027	0.280927	0.583173
C104	C	1.735027	0.530927	0.833173
C105	C	0.986304	-0.146248	0.083178
C106	C	1.236304	0.103752	0.333178
C107	C	1.486304	0.353752	0.583178
C108	C	1.736304	0.603752	0.833178
N109	N	1.029706	-0.375040	0.061908
N110	N	1.279706	-0.125040	0.311908
N111	N	1.529706	0.124960	0.561908
N112	N	1.779706	0.374960	0.811908
N113	N	1.028494	-0.444221	0.061898
N114	N	1.278494	-0.194221	0.311898
N115	N	1.528494	0.055779	0.561898
N116	N	1.778494	0.305779	0.811898
C117	C	0.980552	-0.474900	0.000035
C118	C	1.230552	-0.224900	0.250035
C119	C	1.480552	0.025100	0.500035
C120	C	1.730552	0.275100	0.750035
N121	N	0.933878	-0.433786	-0.061830
N122	N	1.183878	-0.183786	0.188170
N123	N	1.433878	0.066214	0.438170
N124	N	1.683878	0.316214	0.688170
N125	N	0.935094	-0.364598	-0.061823
N126	N	1.185094	-0.114598	0.188177
N127	N	1.435094	0.135402	0.438177
N128	N	1.685094	0.385402	0.688177
C129	C	0.983017	-0.334448	0.000049
C130	C	1.233017	-0.084448	0.250049
C131	C	1.483017	0.165552	0.500049
C132	C	1.733017	0.415552	0.750049
C133	C	0.978528	-0.590265	-0.083095
C134	C	1.228528	-0.340265	0.166905
C135	C	1.478528	-0.090265	0.416905
C136	C	1.728528	0.159735	0.666905
C137	C	0.977237	-0.663092	-0.083099
C138	C	1.227237	-0.413092	0.166901
C139	C	1.477237	-0.163092	0.416901
C140	C	1.727237	0.086908	0.666901
C141	C	0.977228	-0.663108	0.083147
C142	C	1.227228	-0.413108	0.333147
C143	C	1.477228	-0.163108	0.583147
C144	C	1.727228	0.086892	0.833147
C145	C	0.978511	-0.590282	0.083148
C146	C	1.228511	-0.340282	0.333148
C147	C	1.478511	-0.090282	0.583148
C148	C	1.728511	0.159718	0.833148
C149	C	0.979165	-0.553865	0.000024
C150	C	1.229165	-0.303865	0.250024
C151	C	1.479165	-0.053865	0.500024
C152	C	1.729165	0.196135	0.750024
C153	C	1.133800	0.090197	0.000046
C154	C	1.383800	0.340197	0.250046
C155	C	1.633800	0.590197	0.500046
C156	C	1.883800	0.840197	0.750046
C157	C	1.226090	0.091553	0.000044
C158	C	1.476090	0.341553	0.250044
C159	C	1.726090	0.591553	0.500044
C160	C	1.976090	0.841553	0.750044
C161	C	0.975239	0.222980	0.000025
C162	C	1.225239	0.472980	0.250025
C163	C	1.475239	0.722980	0.500025
C164	C	1.725239	0.972980	0.750025
C165	C	0.976595	0.300488	0.000017
C166	C	1.226595	0.550488	0.250017
C167	C	1.476595	0.800488	0.500017
C168	C	1.726595	1.050488	0.750017
N169	N	0.981770	0.095326	0.217034
N170	N	1.231770	0.345326	0.467034
N171	N	1.481770	0.595326	0.717034
N172	N	1.731770	0.845326	0.967034
N173	N	0.981790	0.095326	-0.216955
N174	N	1.231790	0.345326	0.033045
N175	N	1.481790	0.595326	0.283045
N176	N	1.731790	0.845326	0.533045
C177	C	1.038484	0.047863	0.452049
C178	C	1.288484	0.297863	0.702049
C179	C	1.538484	0.547863	0.952049
C180	C	1.788484	0.797863	1.202049
C181	C	1.038487	0.047861	0.548030
C182	C	1.288487	0.297861	0.798030
C183	C	1.538487	0.547861	1.048030
C184	C	1.788487	0.797861	1.298030
C185	C	0.925069	0.142791	0.548024
C186	C	1.175069	0.392791	0.798024
C187	C	1.425069	0.642791	1.048024
C188	C	1.675069	0.892791	1.298024
C189	C	0.925064	0.142788	0.452044
C190	C	1.175064	0.392788	0.702044
C191	C	1.425064	0.642788	0.952044
C192	C	1.675064	0.892788	1.202044
C193	C	0.981776	0.095325	0.404059
C194	C	1.231776	0.345325	0.654059
C195	C	1.481776	0.595325	0.904059
C196	C	1.731776	0.845325	1.154059
C197	C	0.981784	0.095326	0.596020
C198	C	1.231784	0.345326	0.846020
C199	C	1.481784	0.595326	1.096020
C200	C	1.731784	0.845326	1.346020
C201	C	0.981786	0.095324	0.700087
C202	C	1.231786	0.345324	0.950087
C203	C	1.481786	0.595324	1.200087
C204	C	1.731786	0.845324	1.450087
C205	C	0.981773	0.095326	0.299985
C206	C	1.231773	0.345326	0.549985
C207	C	1.481773	0.595326	0.799985
C208	C	1.731773	0.845326	1.049985
H209	H	0.421532	-0.021243	0.000030
H210	H	0.671532	0.228757	0.250030
H211	H	0.921532	0.478757	0.500030
H212	H	1.171532	0.728757	0.750030
H213	H	1.084663	0.009212	0.587100
H214	H	1.334663	0.259212	0.837100
H215	H	1.584663	0.509212	1.087100
H216	H	1.834663	0.759212	1.337100
H217	H	0.878881	0.181438	0.412968
H218	H	1.128881	0.431438	0.662968
H219	H	1.378881	0.681438	0.912968
H220	H	1.628881	0.931438	1.162968
H221	H	0.976700	-0.692764	0.150821
H222	H	1.226700	-0.442764	0.400821
H223	H	1.476700	-0.192764	0.650821
H224	H	1.726700	0.057236	0.900821
Br225	Br	0.355655	0.243753	0.000043
Br226	Br	0.605655	0.493753	0.250043
Br227	Br	0.855655	0.743753	0.500043
Br228	Br	1.105655	0.993753	0.750043
H229	H	0.986860	-0.116585	-0.150750
H230	H	1.236860	0.133415	0.099250
H231	H	1.486860	0.383415	0.349250
H232	H	1.736860	0.633415	0.599250
Br233	Br	1.115449	-0.016552	0.386930
Br234	Br	1.365449	0.233448	0.636930
Br235	Br	1.615449	0.483448	0.886930
Br236	Br	1.865449	0.733448	1.136930
H237	H	0.578855	-0.018910	0.000029
H238	H	0.828855	0.231090	0.250029
H239	H	1.078855	0.481090	0.500029
H240	H	1.328855	0.731090	0.750029
H241	H	0.976722	-0.692727	-0.150786
H242	H	1.226722	-0.442727	0.099214
H243	H	1.476722	-0.192727	0.349214
H244	H	1.726722	0.057273	0.599214
H245	H	0.542014	0.211891	0.000028
H246	H	0.792014	0.461891	0.250028
H247	H	1.042014	0.711891	0.500028
H248	H	1.292014	0.961891	0.750028
Br249	Br	0.984189	-0.268467	-0.195881
Br250	Br	1.234189	-0.018467	0.054119
Br251	Br	1.484189	0.231533	0.304119
Br252	Br	1.734189	0.481533	0.554119
Br253	Br	0.979359	-0.540878	0.195957
Br254	Br	1.229359	-0.290878	0.445957
Br255	Br	1.479359	-0.040878	0.695957
Br256	Br	1.729359	0.209122	0.945957
H257	H	0.878897	0.181435	0.587102
H258	H	1.128897	0.431435	0.837102
H259	H	1.378897	0.681435	1.087102
H260	H	1.628897	0.931435	1.337102
Br261	Br	0.984146	-0.268504	0.195973
Br262	Br	1.234146	-0.018504	0.445973
Br263	Br	1.484146	0.231496	0.695973
Br264	Br	1.734146	0.481496	0.945973
H265	H	0.986812	-0.116611	0.150864
H266	H	1.236812	0.133389	0.400864
H267	H	1.486812	0.383389	0.650864
H268	H	1.736812	0.633389	0.900864
Br269	Br	0.979412	-0.540838	-0.195903
Br270	Br	1.229412	-0.290838	0.054097
Br271	Br	1.479412	-0.040838	0.304097
Br272	Br	1.729412	0.209162	0.554097
