data_functionalizedCrystal
_audit_creation_method	'MofGen! by Chris Wilmer'
_symmetry_space_group_name_H-M	'P1'
_symmetry_Int_Tables_number	1
_symmetry_cell_setting	triclinic
loop_
_symmetry_equiv_pos_as_xyz
  x,y,z
_cell_length_a	19.188933
_cell_length_b	14.519731
_cell_length_c	12.996460
_cell_angle_alpha	90.007128
_cell_angle_beta	89.995828
_cell_angle_gamma	96.582789
loop_
_atom_site_label
_atom_site_type_symbol
_atom_site_fract_x
_atom_site_fract_y
_atom_site_fract_z
O1	O	0.926561	-0.115144	-0.085535
O2	O	1.426561	0.384856	0.414465
O3	O	0.723306	-0.130642	-0.085545
O4	O	1.223306	0.369358	0.414455
O5	O	0.830315	0.011378	-0.085530
O6	O	1.330315	0.511378	0.414470
O7	O	0.819553	-0.257164	-0.085549
O8	O	1.319553	0.242836	0.414451
O9	O	0.830304	0.011385	0.085604
O10	O	1.330304	0.511385	0.585604
O11	O	0.723295	-0.130634	0.085589
O12	O	1.223295	0.369366	0.585589
O13	O	0.926550	-0.115137	0.085599
O14	O	1.426550	0.384863	0.585599
Cu15	Cu	0.824922	-0.122885	0.101220
Cu16	Cu	1.324922	0.377115	0.601220
Cu17	Cu	0.824935	-0.122894	-0.101166
Cu18	Cu	1.324935	0.377106	0.398834
O19	O	0.819542	-0.257156	0.085584
O20	O	1.319542	0.242844	0.585584
C21	C	0.697288	-0.130136	0.000021
C22	C	1.197288	0.369864	0.500021
C23	C	0.619778	-0.128628	0.000018
C24	C	1.119778	0.371372	0.500018
C25	C	0.066490	-0.117874	-0.093256
C26	C	0.566490	0.382126	0.406744
C27	C	0.139319	-0.119285	-0.093260
C28	C	0.639319	0.380715	0.406740
C29	C	0.175733	-0.119990	0.000025
C30	C	0.675733	0.380010	0.500025
C31	C	0.139313	-0.119261	0.093321
C32	C	0.639313	0.380739	0.593321
C33	C	0.066486	-0.117841	0.093322
C34	C	0.566486	0.382159	0.593322
N35	N	0.284946	-0.174694	0.069457
N36	N	0.784946	0.325306	0.569457
N37	N	0.354129	-0.176045	0.069449
N38	N	0.854129	0.323955	0.569449
C39	C	0.395157	-0.124267	0.000026
C40	C	0.895157	0.375733	0.500026
N41	N	0.364388	-0.071098	-0.069404
N42	N	0.864388	0.428902	0.430596
N43	N	0.295199	-0.069751	-0.069400
N44	N	0.795199	0.430249	0.430600
C45	C	0.254702	-0.121529	0.000034
C46	C	0.754702	0.378471	0.500034
C47	C	0.510538	-0.126519	-0.093268
C48	C	1.010538	0.373481	0.406732
C49	C	0.583370	-0.127924	-0.093268
C50	C	1.083370	0.372076	0.406732
C51	C	0.583361	-0.127910	0.093315
C52	C	1.083361	0.372090	0.593315
C53	C	0.510532	-0.126495	0.093313
C54	C	1.010532	0.373505	0.593313
C55	C	0.474125	-0.125805	0.000018
C56	C	0.974125	0.374195	0.500018
C57	C	0.829805	0.045738	0.000037
C58	C	1.329805	0.545738	0.500037
C59	C	0.828294	0.148109	0.000038
C60	C	1.328294	0.648109	0.500038
C61	C	0.952569	-0.115643	0.000031
C62	C	1.452569	0.384357	0.500031
C63	C	1.030079	-0.117150	0.000028
C64	C	1.530079	0.382850	0.500028
C65	C	0.820051	-0.291516	0.000015
C66	C	1.320051	0.208484	0.500015
C67	C	0.821563	-0.393887	0.000008
C68	C	1.321563	0.106113	0.500008
C69	C	0.827066	0.231245	0.000035
C70	C	1.327066	0.731245	0.500035
C71	C	0.825532	0.335544	0.000027
C72	C	1.325532	0.835544	0.500027
C73	C	0.824314	0.418676	0.000020
C74	C	1.324314	0.918676	0.500020
C75	C	0.822780	0.522982	0.000014
C76	C	1.322780	1.022982	0.500014
N77	N	0.824918	-0.122877	0.243567
N78	N	1.324918	0.377123	0.743567
N79	N	0.824945	-0.122893	-0.243513
N80	N	1.324945	0.377107	0.256487
C81	C	0.824934	-0.122895	0.663381
C82	C	1.324934	0.377105	1.163381
C83	C	0.824927	-0.122893	0.546576
C84	C	1.324927	0.377107	1.046576
C85	C	0.824926	-0.122887	0.453478
C86	C	1.324926	0.377113	0.953478
C87	C	0.824919	-0.122884	0.336665
C88	C	1.324919	0.377116	0.836665
H89	H	0.168966	-0.119834	0.169274
H90	H	0.668966	0.380166	0.669274
C91	C	0.436382	-0.045681	-0.201507
C92	C	0.936382	0.454319	0.298493
C93	C	0.470515	-0.125749	-0.195814
C94	C	0.970515	0.374251	0.304186
H95	H	0.411672	-0.045210	-0.264813
H96	H	0.911672	0.454790	0.235187
H97	H	0.470044	0.007524	-0.197630
H98	H	0.970044	0.507524	0.302370
H99	H	0.404270	-0.045064	-0.145945
H100	H	0.904270	0.454936	0.354055
H101	H	0.502630	-0.126362	-0.251372
H102	H	1.002630	0.373638	0.248628
H103	H	0.436848	-0.178968	-0.199700
H104	H	0.936848	0.321032	0.300300
C105	C	0.051808	-0.038132	0.252357
C106	C	0.551808	0.461868	0.752357
C107	C	0.026461	-0.117051	0.195869
C108	C	0.526461	0.382949	0.695869
H109	H	0.027099	-0.037650	0.315668
H110	H	0.527099	0.462350	0.815668
H111	H	0.045121	0.015852	0.214029
H112	H	0.545121	0.515852	0.714029
H113	H	0.100393	-0.039084	0.265697
H114	H	0.600393	0.460916	0.765697
H115	H	-0.022123	-0.116095	0.182522
H116	H	0.477877	0.383905	0.682522
H117	H	0.033141	-0.171049	0.234206
H118	H	0.533141	0.328951	0.734206
H119	H	0.613009	-0.128481	0.169269
H120	H	1.113009	0.371519	0.669269
C121	C	0.154009	-0.199025	-0.252271
C122	C	0.654009	0.300975	0.247729
C123	C	0.179357	-0.120096	-0.195800
C124	C	0.679357	0.379904	0.304200
H125	H	0.178729	-0.199530	-0.315571
H126	H	0.678729	0.300470	0.184429
H127	H	0.105433	-0.198069	-0.265628
H128	H	0.605433	0.301931	0.234372
H129	H	0.160686	-0.253008	-0.213916
H130	H	0.660686	0.246992	0.286084
H131	H	0.172675	-0.066112	-0.234153
H132	H	0.672675	0.433888	0.265847
H133	H	0.227944	-0.121044	-0.182446
H134	H	0.727944	0.378956	0.317554
C135	C	-0.023145	-0.195547	-0.201511
C136	C	0.476855	0.304453	0.298489
C137	C	0.026476	-0.117106	-0.195806
C138	C	0.526476	0.382894	0.304194
H139	H	-0.047844	-0.195072	-0.264825
H140	H	0.452156	0.304928	0.235175
H141	H	-0.055255	-0.194907	-0.145964
H142	H	0.444745	0.305093	0.354036
H143	H	0.000018	-0.249861	-0.197629
H144	H	0.500018	0.250139	0.302371
H145	H	0.003313	-0.062791	-0.199680
H146	H	0.503313	0.437209	0.300320
H147	H	0.058591	-0.117737	-0.251368
H148	H	0.558591	0.382263	0.248632
C149	C	0.576056	-0.127817	-0.277694
C150	C	1.076056	0.372183	0.222306
C151	C	0.623396	-0.128719	-0.195814
C152	C	1.123396	0.371281	0.304186
H153	H	0.600768	-0.128314	-0.341001
H154	H	1.100768	0.371686	0.158999
H155	H	0.552905	-0.073502	-0.273818
H156	H	1.052905	0.426498	0.226182
H157	H	0.542396	-0.181035	-0.273801
H158	H	1.042396	0.318965	0.226199
H159	H	0.657053	-0.075498	-0.199703
H160	H	1.157053	0.424502	0.300297
H161	H	0.646559	-0.183040	-0.199692
H162	H	1.146559	0.316960	0.300308
C163	C	0.436385	-0.045624	0.201557
C164	C	0.936385	0.454376	0.701557
C165	C	0.470507	-0.125703	0.195857
C166	C	0.970507	0.374297	0.695857
H167	H	0.411681	-0.045130	0.264871
H168	H	0.911681	0.454870	0.764871
H169	H	0.404277	-0.045012	0.146010
H170	H	0.904277	0.454988	0.646010
H171	H	0.470059	0.007579	0.197671
H172	H	0.970059	0.507579	0.697671
H173	H	0.436832	-0.178907	0.199735
H174	H	0.936832	0.321093	0.699735
H175	H	0.502618	-0.126324	0.251420
H176	H	1.002618	0.373676	0.751420
