data_functionalizedCrystal
_audit_creation_method	'MofGen! by Chris Wilmer'
_symmetry_space_group_name_H-M	'P1'
_symmetry_Int_Tables_number	1
_symmetry_cell_setting	triclinic
loop_
_symmetry_equiv_pos_as_xyz
  x,y,z
_cell_length_a	14.971486
_cell_length_b	9.130313
_cell_length_c	14.971494
_cell_angle_alpha	89.999536
_cell_angle_beta	83.615843
_cell_angle_gamma	89.995281
loop_
_atom_site_label
_atom_site_type_symbol
_atom_site_fract_x
_atom_site_fract_y
_atom_site_fract_z
O1	O	1.186943	0.121625	0.116558
O2	O	0.926543	0.121664	0.130517
O3	O	1.063719	0.121640	-0.006662
O4	O	1.049768	0.121649	0.253737
O5	O	1.063717	-0.121958	-0.006658
O6	O	0.926542	-0.121934	0.130521
O7	O	1.186941	-0.121974	0.116562
Cu8	Cu	1.056741	-0.144197	0.123542
Cu9	Cu	1.056743	0.143887	0.123537
O10	O	1.049766	-0.121950	0.253741
C11	C	0.893218	-0.000130	0.129895
C12	C	0.793921	-0.000115	0.128024
N13	N	1.056747	-0.346819	0.123544
C14	C	0.736698	-0.000114	0.208613
C15	C	0.643398	-0.000136	0.206850
C16	C	0.607323	-0.000148	0.124497
C17	C	0.664554	-0.000153	0.043902
C18	C	0.757851	-0.000142	0.045666
C19	C	0.470091	-0.000173	0.040231
C20	C	0.376787	-0.000182	0.038466
C21	C	0.355638	-0.000168	0.201415
C22	C	0.448936	-0.000156	0.203179
C23	C	0.506160	-0.000159	0.122583
C24	C	1.117503	-0.423482	0.062822
C25	C	1.117501	-0.576819	0.062811
C26	C	0.995982	-0.576817	0.184253
C27	C	0.995981	-0.423483	0.184259
C28	C	1.187664	-0.423484	-0.007289
C29	C	1.187661	-0.576821	-0.007300
C30	C	1.220267	-0.000176	0.117184
C31	C	1.319564	-0.000182	0.119055
C32	C	1.063093	-0.000157	-0.039985
C33	C	1.061219	-0.000150	-0.139281
N34	N	1.056745	0.346510	0.123528
C35	C	1.060342	0.132638	-0.185928
C36	C	1.058575	0.132640	-0.279227
C37	C	1.057693	-0.000147	-0.325879
C38	C	1.058567	-0.132945	-0.279225
C39	C	1.060327	-0.132945	-0.185927
C40	C	1.054901	-0.132934	-0.473688
C41	C	1.053143	-0.132934	-0.566993
C42	C	1.053149	0.132651	-0.566988
C43	C	1.054909	0.132650	-0.473690
C44	C	1.055786	-0.000148	-0.427043
C45	C	1.050392	-0.000149	0.287064
C46	C	1.052266	-0.000147	0.386360
H47	H	0.766062	-0.000103	0.275674
F48	F	1.057643	0.273971	-0.328868
F49	F	1.159896	-0.638974	-0.092001
F50	F	1.061287	0.273971	-0.136287
H51	H	0.804442	-0.000141	-0.019958
H52	H	0.596810	-0.000134	0.272473
H53	H	1.052434	0.240780	-0.604973
H54	H	1.172914	-0.381863	-0.075927
H55	H	1.052417	-0.241061	-0.604973
H56	H	0.635174	-0.000184	-0.023152
H57	H	1.055635	0.240777	-0.435710
H58	H	0.347418	-0.000194	-0.028593
F59	F	1.272329	-0.361326	0.020548
H60	H	1.055595	-0.241073	-0.435709
H61	H	0.309041	-0.000173	0.267038
H62	H	0.478304	-0.000133	0.270238
H63	H	1.256284	-0.618447	0.007501
H64	H	0.516681	-0.000178	-0.025399
F65	F	1.057618	-0.274267	-0.328876
H66	H	0.946501	-0.361065	0.233696
F67	F	1.061260	-0.274276	-0.136282
H68	H	0.946508	-0.639253	0.233684
