data_functionalizedCrystal
_audit_creation_method	'MofGen! by Chris Wilmer'
_symmetry_space_group_name_H-M	'P1'
_symmetry_Int_Tables_number	1
_symmetry_cell_setting	triclinic
loop_
_symmetry_equiv_pos_as_xyz
  x,y,z
_cell_length_a	6.817900
_cell_length_b	15.185311
_cell_length_c	19.453114
_cell_angle_alpha	95.653796
_cell_angle_beta	101.709288
_cell_angle_gamma	104.261569
loop_
_atom_site_label
_atom_site_type_symbol
_atom_site_fract_x
_atom_site_fract_y
_atom_site_fract_z
V1	V	-4.010750	-0.126703	-0.219207
O2	O	-3.994583	0.005115	-0.214822
O3	O	-3.966209	-0.250294	-0.217911
O4	O	-3.953618	-0.125181	-0.314717
O5	O	-4.007262	-0.120864	-0.117346
V6	V	-4.495009	-0.110885	-0.206998
O7	O	-4.270393	-0.161399	-0.245986
O8	O	-4.685564	-0.076189	-0.180219
O9	O	-4.316344	0.012706	-0.208294
O10	O	-4.628573	-0.242703	-0.211383
O11	O	-4.615895	-0.116724	-0.308859
O12	O	-4.328935	-0.112407	-0.111488
C13	C	-3.812432	-0.280409	-0.214506
C14	C	-3.857243	-0.381449	-0.214083
C15	C	-4.012022	-0.795423	-0.147973
C16	C	-4.081629	-0.821924	-0.276667
C17	C	-4.039499	-0.726990	-0.277060
C18	C	-3.983631	-0.666268	-0.212908
C19	C	-3.969893	-0.700480	-0.148364
C20	C	-4.053254	-0.692771	-0.341603
C21	C	-4.011125	-0.597832	-0.341999
C22	C	-3.955241	-0.537108	-0.277846
C23	C	-3.941502	-0.571326	-0.213299
C24	C	-3.885634	-0.510604	-0.149148
C25	C	-3.871880	-0.544819	-0.084600
C26	C	-3.914010	-0.639757	-0.084211
C27	C	-3.913111	-0.442171	-0.278235
C28	C	-3.843505	-0.415661	-0.149539
C29	C	-3.796369	-0.120814	-0.337990
C30	C	-3.830966	-0.120388	-0.416072
C31	C	-4.029144	-0.124750	-0.456336
C32	C	-4.061652	-0.124350	-0.529702
C33	C	-3.895979	-0.119605	-0.562803
C34	C	-3.697771	-0.115238	-0.522529
C35	C	-3.665264	-0.115629	-0.449164
N36	N	-3.837735	-0.167606	-0.681671
N37	N	-3.868628	-0.167236	-0.751366
C38	C	-3.993909	-0.118424	-0.783850
N39	N	-4.087165	-0.070007	-0.744008
N40	N	-4.056276	-0.070381	-0.674307
C41	C	-3.931207	-0.119180	-0.642356
C42	C	-4.227348	-0.122351	-0.903666
C43	C	-4.259846	-0.121944	-0.977033
C44	C	-3.895963	-0.112841	-0.969859
C45	C	-3.863466	-0.113239	-0.896493
C46	C	-4.029168	-0.117998	-0.863402
C47	C	-4.133464	0.042816	-0.211697
C48	C	-4.067890	0.143855	-0.212124
C49	C	-4.149527	-0.116777	-0.088211
C50	C	-4.094168	-0.117198	-0.010129
H51	H	-3.902821	-0.667624	-0.031660
H52	H	-3.562879	-0.111372	-0.549484
Br53	Br	-4.129099	-0.775181	-0.428661
Br54	Br	-3.796114	-0.462402	0.002458
H55	H	-3.503877	-0.112070	-0.416379
H56	H	-3.924346	-0.414318	-0.330789
Br57	Br	-3.993340	-0.841854	-0.060376
H58	H	-3.761065	-0.108970	-0.996808
Br59	Br	-4.452217	-0.128804	-0.858751
H60	H	-4.223040	-0.127907	-0.562493
Br61	Br	-4.157475	-0.904331	-0.363726
H62	H	-3.798001	-0.366226	-0.097298
Br63	Br	-3.594501	-0.107331	-0.841846
H64	H	-4.022323	-0.569983	-0.394558
H65	H	-4.164073	-0.128622	-0.429398
H66	H	-4.421226	-0.125490	-1.009814
