data_functionalizedCrystal
_audit_creation_method	'MofGen! by Chris Wilmer'
_symmetry_space_group_name_H-M	'P1'
_symmetry_Int_Tables_number	1
_symmetry_cell_setting	triclinic
loop_
_symmetry_equiv_pos_as_xyz
  x,y,z
_cell_length_a	13.635800
_cell_length_b	19.452420
_cell_length_c	17.982655
_cell_angle_alpha	78.793249
_cell_angle_beta	77.553664
_cell_angle_gamma	78.303285
loop_
_atom_site_label
_atom_site_type_symbol
_atom_site_fract_x
_atom_site_fract_y
_atom_site_fract_z
V1	V	1.867821	-0.097844	0.237923
O2	O	1.869106	0.004023	0.233010
O3	O	1.840000	-0.193355	0.236665
O4	O	1.782225	-0.096636	0.341521
O5	O	1.927281	-0.093365	0.127428
V6	V	2.118060	-0.085624	0.224662
O7	O	1.979855	-0.124648	0.267012
O8	O	2.231125	-0.058819	0.195573
O9	O	2.034278	0.009887	0.225920
O10	O	2.175474	-0.187491	0.229575
O11	O	2.117298	-0.090103	0.335157
O12	O	2.092053	-0.086831	0.121064
V13	V	2.367821	-0.097844	0.237923
O14	O	2.369106	0.004023	0.233010
O15	O	2.340000	-0.193355	0.236665
O16	O	2.282225	-0.096636	0.341521
O17	O	2.427281	-0.093365	0.127428
V18	V	2.618060	-0.085624	0.224662
O19	O	2.479855	-0.124648	0.267012
O20	O	2.731125	-0.058819	0.195573
O21	O	2.534278	0.009887	0.225920
O22	O	2.675474	-0.187491	0.229575
O23	O	2.617298	-0.090103	0.335157
O24	O	2.592053	-0.086831	0.121064
C25	C	1.763606	-0.216629	0.233007
C26	C	1.781093	-0.294712	0.232668
C27	C	1.811064	-0.321147	0.162690
C28	C	1.827545	-0.394513	0.162349
C29	C	1.814032	-0.441441	0.231989
C30	C	1.784061	-0.414999	0.301977
C31	C	1.767592	-0.341634	0.302317
N32	N	1.768364	-0.562025	0.281035
N33	N	1.784009	-0.631718	0.280708
C34	C	1.863655	-0.662484	0.230970
N35	N	1.927057	-0.620922	0.181559
N36	N	1.911407	-0.551223	0.181885
C37	C	1.831889	-0.520993	0.231628
C38	C	1.911500	-0.768469	0.160617
C39	C	1.927985	-0.841837	0.160279
C40	C	1.884491	-0.862321	0.299909
C41	C	1.868016	-0.788955	0.300245
C42	C	1.881517	-0.742033	0.230597
C43	C	1.689908	-0.093254	0.366760
C44	C	1.660541	-0.092899	0.451455
C45	C	1.942344	0.033157	0.229577
C46	C	1.914473	0.111240	0.229920
C47	C	1.657340	-0.157094	0.502362
C48	C	1.629763	-0.156771	0.581944
C49	C	1.605380	-0.092253	0.610617
C50	C	1.608585	-0.028054	0.559703
C51	C	1.636169	-0.028378	0.480123
C52	C	2.016043	-0.090216	0.095821
C53	C	2.035030	-0.090567	0.011126
C54	C	2.064266	-0.155089	-0.017534
C55	C	2.082108	-0.155421	-0.097114
C56	C	2.070720	-0.091231	-0.148033
C57	C	2.041479	-0.026705	-0.119369
C58	C	2.023630	-0.026373	-0.039790
C59	C	2.113458	-0.028040	-0.440301
C60	C	2.131312	-0.028377	-0.519885
C61	C	2.171935	-0.157089	-0.497625
C62	C	2.154087	-0.156757	-0.418046
C63	C	2.124842	-0.092231	-0.389388
C64	C	2.105494	-0.091871	-0.303099
C65	C	2.090075	-0.091590	-0.234322
C66	C	2.189908	-0.093254	0.366760
C67	C	2.160541	-0.092899	0.451455
C68	C	2.263606	-0.216629	0.233007
C69	C	2.281093	-0.294712	0.232668
C70	C	2.442344	0.033157	0.229577
C71	C	2.414473	0.111240	0.229920
C72	C	2.516043	-0.090216	0.095821
C73	C	2.535030	-0.090567	0.011126
C74	C	2.377942	-0.334973	0.236330
C75	C	2.394384	-0.408343	0.236024
C76	C	2.313976	-0.441450	0.232050
C77	C	2.217118	-0.401184	0.228391
C78	C	2.200676	-0.327816	0.228703
C79	C	2.490116	0.151501	0.226260
C80	C	2.463944	0.224870	0.226570
C81	C	2.362128	0.257977	0.230545
C82	C	2.286480	0.217711	0.234203
C83	C	2.312654	0.144344	0.233887
C84	C	2.455171	-0.094243	-0.024762
C85	C	2.472994	-0.094565	-0.104343
C86	C	2.570679	-0.091216	-0.148034
C87	C	2.650542	-0.087538	-0.112142
C88	C	2.632717	-0.087211	-0.032563
H89	H	1.851950	-0.416040	0.105362
O90	O	2.464682	-0.299283	0.240625
H91	H	2.477723	-0.258391	0.188751
H92	H	1.743189	-0.320113	0.359303
H93	H	2.407954	-0.097560	-0.133555
O94	O	2.718856	-0.083249	0.006143
H95	H	2.789772	-0.080980	-0.037612
H96	H	1.773062	-0.453212	0.358679
O97	O	2.130401	-0.436901	0.224107
H98	H	2.101004	-0.413462	0.170140
O99	O	2.176665	0.253422	0.238494
H100	H	2.130158	0.229975	0.292462
H101	H	1.922493	-0.730263	0.103905
O102	O	2.545547	0.268285	0.222630
H103	H	2.510256	0.324867	0.223507
H104	H	2.089638	0.024500	-0.416978
H105	H	2.121811	-0.295040	0.225717
H106	H	2.573025	0.124555	0.223024
H107	H	1.952398	-0.863357	0.103292
O108	O	2.331744	-0.520582	0.231701
H109	H	2.281577	-0.546045	0.282169
O110	O	2.333909	0.337107	0.230901
H111	H	2.374309	0.365646	0.177145
O112	O	1.825613	-0.270536	0.087573
H113	H	1.849224	-0.301249	0.038854
H114	H	2.251049	0.111568	0.236874
O115	O	2.349824	-0.097907	0.022363
H116	H	2.297302	-0.100529	-0.015971
O117	O	1.683644	-0.226685	0.471445
H118	H	1.676793	-0.271264	0.520224
O119	O	2.589903	-0.091577	-0.233865
H120	H	2.517956	-0.094704	-0.251472
H121	H	2.730076	-0.084809	-0.147727
O122	O	1.869914	-0.912925	0.375025
H123	H	1.886397	-0.968382	0.363033
O124	O	1.835669	-0.760435	0.375721
H125	H	1.829031	-0.805390	0.424091
H126	H	1.627155	-0.209051	0.623388
O127	O	2.029176	0.042528	-0.174288
H128	H	2.102704	0.048094	-0.213983
H129	H	1.582916	-0.091999	0.675417
H130	H	2.073544	-0.207360	0.023920
O131	O	2.166354	-0.225994	-0.363129
H132	H	2.245886	-0.254300	-0.375972
H133	H	2.473257	-0.441117	0.239002
O134	O	1.582270	0.041532	0.590632
H135	H	1.562538	0.030964	0.654521
H136	H	1.638766	0.023899	0.438679
O137	O	2.113630	-0.225012	-0.128028
H138	H	2.118557	-0.269591	-0.079251
H139	H	2.122034	0.023898	-0.561343
O140	O	2.203460	-0.226690	-0.528531
H141	H	2.213946	-0.216141	-0.592420
H142	H	1.999831	0.026167	-0.016458
