data_functionalizedCrystal
_audit_creation_method	'MofGen! by Chris Wilmer'
_symmetry_space_group_name_H-M	'P1'
_symmetry_Int_Tables_number	1
_symmetry_cell_setting	triclinic
loop_
_symmetry_equiv_pos_as_xyz
  x,y,z
_cell_length_a	20.919309
_cell_length_b	14.560438
_cell_length_c	14.560438
_cell_angle_alpha	89.999908
_cell_angle_beta	62.592480
_cell_angle_gamma	57.442603
loop_
_atom_site_label
_atom_site_type_symbol
_atom_site_fract_x
_atom_site_fract_y
_atom_site_fract_z
Zr1	Zr	0.700775	-0.159705	0.923939
O2	O	0.834333	-0.313815	0.784763
O3	O	0.567213	-0.107285	0.961425
O4	O	0.700773	-0.306351	0.968895
O5	O	0.700775	0.036390	0.777291
O6	O	0.700775	-0.306353	1.120033
O7	O	0.700773	-0.114748	0.777292
O8	O	0.461861	0.049741	1.106670
O9	O	0.939690	-0.319704	0.790654
O10	O	0.622151	-0.091184	1.096462
O11	O	0.622151	0.021610	0.983668
O12	O	0.779401	-0.212766	0.992463
O13	O	0.779401	-0.099972	0.879670
Zr14	Zr	0.700781	0.081340	1.164985
Zr15	Zr	0.700778	-0.159708	1.164987
Zr16	Zr	0.700777	0.081343	0.923937
Zr17	Zr	0.868806	-0.169098	0.933335
Zr18	Zr	0.532749	0.090733	1.155589
O19	O	0.834342	0.028920	1.127499
O20	O	0.834338	-0.313819	1.127502
O21	O	0.834337	0.028924	0.784760
O22	O	0.567222	0.235451	1.304161
O23	O	0.567218	-0.107288	1.304164
O24	O	0.567217	0.235454	0.961422
O25	O	0.700780	-0.114754	1.311633
O26	O	0.700782	0.227987	1.120029
O27	O	0.700780	0.227989	0.968890
O28	O	0.700782	0.036384	1.311631
O29	O	0.939692	-0.319707	0.982255
O30	O	0.461863	0.241342	1.106669
O31	O	0.461865	0.241340	1.298270
O32	O	0.461863	0.049739	1.298271
O33	O	0.939692	-0.128104	0.790652
O34	O	0.939695	-0.128106	0.982253
O35	O	0.622154	0.134401	1.096460
O36	O	0.622154	0.021607	1.209254
O37	O	0.779404	-0.099974	1.105255
O38	O	0.779404	0.012820	0.992462
C39	C	0.490596	-0.027434	1.032709
C40	C	0.419262	-0.023446	1.028720
C41	C	0.700774	-0.039179	0.742947
C42	C	0.700772	-0.039178	0.640616
C43	C	0.700781	0.262332	1.044459
C44	C	0.700782	0.364663	1.044458
C45	C	0.385750	-0.080450	1.085720
C46	C	0.318720	-0.076693	1.081975
C47	C	0.285208	-0.015937	1.021223
C48	C	0.318723	0.041074	0.964221
C49	C	0.385747	0.037323	0.967973
C50	C	0.082833	-0.001659	1.006954
C51	C	0.015805	0.002086	1.003203
C52	C	0.015805	-0.115680	1.120960
C53	C	0.082835	-0.119431	1.124701
C54	C	0.116341	-0.062415	1.067704
C55	C	0.216694	-0.012098	1.017390
C56	C	0.184849	-0.066248	1.071543
C57	C	0.910959	-0.050931	1.056215
C58	C	0.982293	-0.054918	1.060204
C59	C	0.700774	-0.340696	1.044464
C60	C	0.700773	-0.443028	1.044465
C61	C	0.782864	0.349277	0.990177
C62	C	0.782859	0.445432	0.990177
C63	C	0.618685	0.572356	1.098748
C64	C	0.618691	0.476202	1.098740
C65	C	0.877648	0.275999	0.927499
C66	C	0.877644	0.372155	0.927499
C67	C	0.700772	0.044088	0.592544
C68	C	0.700780	0.044082	0.496387
C69	C	0.700786	-0.122461	0.496384
C70	C	0.700784	-0.122459	0.592536
C71	C	0.700765	0.140243	0.592547
C72	C	0.700773	0.140237	0.496389
C73	C	0.700782	-0.039186	1.345976
C74	C	0.700783	-0.039187	1.448307
C75	C	0.490600	-0.027437	1.334223
C76	C	0.419268	-0.023451	1.432566
C77	C	0.490600	0.274081	1.032706
C78	C	0.419267	0.380399	1.028717
C79	C	0.490604	0.274077	1.334221
C80	C	0.419273	0.380395	1.432562
C81	C	0.910952	-0.352442	0.754703
C82	C	0.982283	-0.458759	0.656362
C83	C	0.910955	-0.050928	0.754700
C84	C	0.982287	-0.054914	0.656358
C85	C	0.910955	-0.352445	1.056217
C86	C	0.982288	-0.458764	1.060207
C87	C	0.385768	-0.080465	1.419872
C88	C	0.318753	-0.076742	1.512266
C89	C	0.285234	-0.015998	1.617353
C90	C	0.318741	0.041017	1.630045
C91	C	0.385759	0.037287	1.537652
C92	C	0.385770	0.489214	1.085719
C93	C	0.318755	0.589120	1.081966
C94	C	0.285234	0.580209	1.021217
C95	C	0.318737	0.471383	0.964208
C96	C	0.385756	0.371479	0.967955
C97	C	0.385775	0.371445	1.537632
C98	C	0.318761	0.471332	1.630044
C99	C	0.285242	0.580167	1.617383
C100	C	0.318746	0.589114	1.512303
C101	C	0.385763	0.489228	1.419894
C102	C	1.015789	-0.449810	0.551293
C103	C	1.082823	-0.549698	0.458882
C104	C	1.116346	-0.658534	0.471542
C105	C	1.082837	-0.667481	0.576622
C106	C	1.015809	-0.567594	0.669031
C107	C	1.015794	0.002090	0.669052
C108	C	1.082828	-0.001661	0.576659
C109	C	1.116349	-0.062408	0.471572
C110	C	1.082839	-0.119419	0.458880
C111	C	1.015811	-0.115675	0.551273
C112	C	1.015788	-0.449816	1.120967
C113	C	1.082804	-0.549704	1.124737
C114	C	1.116322	-0.658539	1.067740
C115	C	1.082816	-0.667484	1.006979
C116	C	1.015797	-0.567597	1.003216
H117	H	0.413035	-0.129930	1.135186
H118	H	0.988498	-0.361200	0.540963
H119	H	0.551852	0.488739	1.142930
H120	H	1.170925	-0.739859	0.396288
H121	H	0.413026	0.083722	1.548002
H122	H	1.110142	-0.168878	0.373306
H123	H	0.988508	-0.361207	1.167381
H124	H	0.635737	0.220334	0.665374
H125	H	0.230672	0.661492	1.692638
H126	H	0.551849	0.663181	1.142941
H127	H	0.110102	0.044773	0.960547
H128	H	0.988532	-0.162091	0.540922
H129	H	1.110117	-0.756110	0.960574
H130	H	0.765793	0.119806	0.423570
H131	H	1.110141	-0.756106	0.586918
H132	H	0.637755	0.225874	0.511968
H133	H	0.212133	-0.115710	1.121013
H134	H	0.291434	0.464146	0.914747
H135	H	1.110095	-0.542391	0.373330
H136	H	0.413056	0.496491	1.135188
H137	H	1.110078	-0.542398	1.174214
H138	H	0.230663	0.661567	1.018175
H139	H	0.291428	0.090549	0.914761
H140	H	0.291484	0.677721	1.128395
H141	H	0.413020	0.282882	0.921539
H142	H	0.413035	0.083738	0.921554
H143	H	0.988529	-0.574894	0.754580
H144	H	0.988507	0.051564	0.754610
H145	H	0.230663	-0.012969	1.692576
H146	H	0.291440	0.090473	1.715619
H147	H	0.907067	0.379230	0.842090
H148	H	0.763762	0.128486	0.576978
H149	H	0.413056	0.282835	1.547960
H150	H	0.413028	0.496532	1.334344
H151	H	0.291480	-0.123171	1.501911
H152	H	0.291488	0.464027	1.715596
H153	H	0.291445	0.677741	1.502011
H154	H	0.291433	-0.123109	1.128390
H155	H	1.170894	-0.739864	1.070813
H156	H	1.110100	0.044770	0.587014
H157	H	0.914045	0.221771	0.839505
H158	H	0.413058	-0.129943	1.334314
H159	H	0.907056	0.223439	0.974006
H160	H	0.988528	-0.574898	0.953734
H161	H	0.110119	-0.168903	1.174170
H162	H	-0.011483	-0.162098	1.167366
H163	H	0.914034	0.370115	0.967359
H164	H	1.170927	-0.065447	0.396349
H165	H	0.700796	-0.190269	0.631668
H166	H	0.189401	0.037369	0.967925
H167	H	-0.011476	0.051560	0.953726
H168	H	0.700796	-0.190267	0.457227
