data_functionalizedCrystal
_audit_creation_method	'MofGen! by Chris Wilmer'
_symmetry_space_group_name_H-M	'P1'
_symmetry_Int_Tables_number	1
_symmetry_cell_setting	triclinic
loop_
_symmetry_equiv_pos_as_xyz
  x,y,z
_cell_length_a	6.817900
_cell_length_b	10.943632
_cell_length_c	17.110486
_cell_angle_alpha	95.128976
_cell_angle_beta	99.060439
_cell_angle_gamma	108.838880
loop_
_atom_site_label
_atom_site_type_symbol
_atom_site_fract_x
_atom_site_fract_y
_atom_site_fract_z
V1	V	-4.004183	-0.178245	-0.246701
O2	O	-3.964002	0.008961	-0.242025
O3	O	-3.982903	-0.353811	-0.244995
O4	O	-3.933594	-0.175330	-0.354305
O5	O	-4.013652	-0.170756	-0.131958
V6	V	-4.487172	-0.155874	-0.232979
O7	O	-4.266613	-0.227319	-0.276801
O8	O	-4.674939	-0.106800	-0.202879
O9	O	-4.285245	0.019692	-0.234685
O10	O	-4.644749	-0.343080	-0.237656
O11	O	-4.595099	-0.163364	-0.347722
O12	O	-4.334553	-0.158789	-0.125376
C13	C	-3.835219	-0.396616	-0.241099
C14	C	-3.898959	-0.540142	-0.240421
C15	C	-3.745839	-0.617302	-0.235914
C16	C	-3.853497	-0.690048	-0.172035
C17	C	-3.904898	-0.723136	-0.303101
C18	C	-4.005757	-0.610984	-0.176497
C19	C	-4.057150	-0.644079	-0.307620
C20	C	-4.164924	-0.716787	-0.243728
C21	C	-3.772320	-0.168944	-0.380533
C22	C	-3.796069	-0.167722	-0.468499
C23	C	-3.989509	-0.173591	-0.513856
C24	C	-4.011811	-0.172442	-0.596510
C25	C	-3.840676	-0.165433	-0.633805
C26	C	-3.647219	-0.159559	-0.588441
C27	C	-3.624915	-0.160699	-0.505789
C28	C	-3.898898	-0.161661	-0.883160
C29	C	-3.921220	-0.160526	-0.965819
C30	C	-4.285810	-0.173406	-0.973882
C31	C	-4.263492	-0.174554	-0.891228
C32	C	-4.070035	-0.168673	-0.845871
C33	C	-3.863471	-0.164263	-0.718290
C34	C	-4.047239	-0.169834	-0.761386
C35	C	-4.096272	0.062490	-0.238580
C36	C	-4.011770	0.206015	-0.239263
C37	C	-4.159171	-0.165180	-0.099144
C38	C	-4.114660	-0.166395	-0.011177
H39	H	-4.342699	-0.760007	-0.247010
O40	O	-3.751257	-0.714877	-0.103694
C41	C	-3.531183	-0.663984	-0.099769
H42	H	-3.498361	-0.654296	-0.162643
H43	H	-3.463091	-0.563864	-0.061056
C44	C	-3.467413	-0.768626	0.014380
C45	C	-3.427101	-0.756737	-0.062844
H46	H	-3.403207	-0.825836	0.037160
H47	H	-3.615681	-0.802910	0.011738
H48	H	-3.410669	-0.685185	0.046631
H49	H	-3.483868	-0.840173	-0.095096
H50	H	-3.278840	-0.722469	-0.060206
O51	O	-3.711192	-0.156273	-0.839094
C52	C	-3.740754	-0.268956	-0.801847
H53	H	-3.913400	-0.312034	-0.796485
H54	H	-3.696945	-0.344039	-0.839300
C55	C	-3.386960	-0.179516	-0.724396
C56	C	-3.599004	-0.232420	-0.717804
H57	H	-3.299517	-0.156983	-0.672556
H58	H	-3.367039	-0.103602	-0.749491
H59	H	-3.350483	-0.242095	-0.755610
H60	H	-3.635485	-0.169837	-0.686599
H61	H	-3.618928	-0.308324	-0.692701
H62	H	-4.169324	-0.177215	-0.633435
H63	H	-3.568050	-0.573823	-0.232536
H64	H	-3.781849	-0.154814	-0.996182
O65	O	-3.436948	-0.154781	-0.461669
C66	C	-3.359950	-0.042756	-0.402881
H67	H	-3.432913	0.032444	-0.422585
H68	H	-3.404063	-0.070744	-0.343750
C69	C	-3.028078	-0.076525	-0.367726
C70	C	-3.117678	0.015842	-0.391929
H71	H	-2.878633	-0.040380	-0.360966
H72	H	-3.079954	-0.152001	-0.407329
H73	H	-3.064860	-0.099840	-0.318452
H74	H	-3.080918	0.039144	-0.441207
H75	H	-3.065790	0.091324	-0.352333
H76	H	-3.724138	-0.158561	-0.748666
H77	H	-4.142508	-0.623199	-0.364952
H78	H	-4.186572	-0.175537	-0.731016
O79	O	-4.055635	-0.552700	-0.112621
C80	C	-3.994404	-0.417045	-0.114007
H81	H	-3.864386	-0.386654	-0.150212
H82	H	-4.136419	-0.392005	-0.142731
C83	C	-4.070999	-0.381067	0.016655
C84	C	-3.911297	-0.343738	-0.027807
H85	H	-4.019744	-0.335846	0.069826
H86	H	-4.112260	-0.472460	0.017588
H87	H	-4.189333	-0.360199	-0.007290
H88	H	-3.792978	-0.364621	-0.003868
H89	H	-3.870014	-0.252346	-0.028735
O90	O	-3.854397	-0.781212	-0.366893
C91	C	-3.634130	-0.730237	-0.362484
H92	H	-3.566849	-0.629697	-0.324266
H93	H	-3.557211	-0.798353	-0.334341
C94	C	-3.670950	-0.841836	-0.494250
C95	C	-3.588316	-0.718347	-0.447315
H96	H	-3.642686	-0.834507	-0.546577
H97	H	-3.819347	-0.876184	-0.497220
H98	H	-3.606841	-0.898587	-0.470788
H99	H	-3.652444	-0.661603	-0.470771
H100	H	-3.439928	-0.683989	-0.444351
H101	H	-4.128874	-0.179308	-0.483497
H102	H	-3.507876	-0.153844	-0.618813
H103	H	-4.402852	-0.180260	-0.860868
H104	H	-4.443316	-0.178192	-1.010820
