data_functionalizedCrystal
_audit_creation_method	'MofGen! by Chris Wilmer'
_symmetry_space_group_name_H-M	'P1'
_symmetry_Int_Tables_number	1
_symmetry_cell_setting	triclinic
loop_
_symmetry_equiv_pos_as_xyz
  x,y,z
_cell_length_a	10.654558
_cell_length_b	11.792254
_cell_length_c	9.130313
_cell_angle_alpha	89.998555
_cell_angle_beta	90.000369
_cell_angle_gamma	84.343457
loop_
_atom_site_label
_atom_site_type_symbol
_atom_site_fract_x
_atom_site_fract_y
_atom_site_fract_z
O1	O	1.667385	0.159459	-0.121780
O2	O	1.301866	0.174637	-0.121787
O3	O	1.493487	0.001899	-0.121773
O4	O	1.475763	0.332197	-0.121794
O5	O	1.493485	0.001904	0.121826
O6	O	1.301863	0.174642	0.121812
O7	O	1.667383	0.159464	0.121819
Cu8	Cu	1.484623	0.167053	0.144058
Cu9	Cu	1.484625	0.167048	-0.144026
O10	O	1.475761	0.332202	0.121805
C11	C	1.255070	0.173523	0.000011
C12	C	1.115636	0.170183	0.000009
C13	C	0.919112	0.165485	-0.132777
C14	C	1.050126	0.168613	-0.132779
C15	C	1.050127	0.168612	0.132806
C16	C	0.919117	0.165476	0.132806
C17	C	0.853607	0.163927	-0.265573
C18	C	0.919107	0.165495	-0.398371
C19	C	1.050121	0.168624	-0.398373
C20	C	1.115635	0.170184	-0.265576
C21	C	1.492369	-0.040392	0.000026
C22	C	1.489028	-0.166413	0.000025
C23	C	1.486313	-0.268755	0.000019
C24	C	1.482917	-0.397150	0.000006
C25	C	1.714178	0.160578	0.000017
C26	C	1.853612	0.163918	0.000010
C27	C	1.476879	0.374493	0.000003
C28	C	1.480220	0.500513	-0.000006
N29	N	1.484630	0.167056	0.346681
N30	N	1.484628	0.167036	-0.346649
C31	C	1.569502	0.090594	0.423339
C32	C	1.569498	0.090581	0.576676
C33	C	1.399747	0.243501	0.576682
C34	C	1.399746	0.243509	0.423348
C35	C	1.654386	0.014142	0.346671
C36	C	1.739266	-0.062326	0.423329
C37	C	1.739262	-0.062339	0.576666
C38	C	1.654379	0.014115	0.653345
H39	H	0.865782	0.164221	0.240933
H40	H	1.103479	0.169885	0.240923
H41	H	1.330634	0.305770	0.360933
C42	C	1.832634	-0.146413	0.338990
H43	H	1.820492	-0.135447	0.236690
H44	H	1.818494	-0.222286	0.364105
H45	H	1.916530	-0.133363	0.364132
C46	C	1.654391	0.014160	0.178007
H47	H	1.591692	0.070654	0.143331
H48	H	1.636723	-0.058527	0.143301
H49	H	1.734765	0.030392	0.143334
C50	C	1.654367	0.014099	0.822012
H51	H	1.591658	0.070579	0.856695
H52	H	1.734735	0.030305	0.856710
H53	H	1.636677	-0.058599	0.856686
C54	C	1.832614	-0.146452	0.660994
H55	H	1.820452	-0.135519	0.763295
H56	H	1.916510	-0.133416	0.635870
H57	H	1.818454	-0.222321	0.635854
C58	C	0.709497	0.160487	-0.265577
H59	H	0.679864	0.159777	-0.363680
H60	H	0.670745	0.225849	-0.216529
H61	H	0.688977	0.093697	-0.216540
H62	H	1.103449	0.169890	-0.506503
H63	H	1.330640	0.305748	0.639124
H64	H	0.865758	0.164217	-0.506489
H65	H	1.222316	0.172725	-0.265588
