data_functionalizedCrystal
_audit_creation_method	'MofGen! by Chris Wilmer'
_symmetry_space_group_name_H-M	'P1'
_symmetry_Int_Tables_number	1
_symmetry_cell_setting	triclinic
loop_
_symmetry_equiv_pos_as_xyz
  x,y,z
_cell_length_a	15.995350
_cell_length_b	14.472310
_cell_length_c	15.995350
_cell_angle_alpha	90.001162
_cell_angle_beta	96.507625
_cell_angle_gamma	90.009379
loop_
_atom_site_label
_atom_site_type_symbol
_atom_site_fract_x
_atom_site_fract_y
_atom_site_fract_z
O1	O	1.110997	0.076758	-0.107921
O2	O	1.610997	0.576758	0.392079
O3	O	0.867221	0.076776	-0.121248
O4	O	1.367221	0.576776	0.378752
O5	O	0.995773	0.076766	0.007303
O6	O	1.495773	0.576766	0.507303
O7	O	0.982445	0.076769	-0.236472
O8	O	1.482445	0.576769	0.263528
O9	O	0.995740	-0.076916	0.007296
O10	O	1.495740	0.423084	0.507296
O11	O	0.867188	-0.076906	-0.121256
O12	O	1.367188	0.423094	0.378744
O13	O	1.110963	-0.076924	-0.107928
O14	O	1.610963	0.423076	0.392072
Cu15	Cu	0.989073	-0.090947	-0.114593
Cu16	Cu	1.489073	0.409053	0.385407
Cu17	Cu	0.989112	0.090800	-0.114584
Cu18	Cu	1.489112	0.590800	0.385416
O19	O	0.982412	-0.076913	-0.236480
O20	O	1.482412	0.423087	0.263520
C21	C	0.836010	-0.000062	-0.120701
C22	C	1.336010	0.499938	0.379299
C23	C	0.743060	-0.000055	-0.119049
C24	C	1.243060	0.499945	0.380951
N25	N	0.989051	-0.218778	-0.114598
N26	N	1.489051	0.281222	0.385402
C27	C	0.405312	-0.000074	-0.113117
C28	C	0.905312	0.499926	0.386883
C29	C	0.452746	-0.000418	-0.021565
C30	C	0.952746	0.499582	0.478435
C31	C	0.549436	-0.000065	-0.023217
C32	C	1.049436	0.499935	0.476783
C33	C	0.572873	-0.000065	-0.116060
C34	C	1.072873	0.499935	0.383940
C35	C	0.531804	0.087692	-0.161212
C36	C	1.031804	0.587692	0.338788
C37	C	0.435169	0.087759	-0.158912
C38	C	0.935169	0.587759	0.341088
C39	C	0.434792	-0.087007	-0.160812
C40	C	0.934792	0.412993	0.339188
C41	C	0.531737	-0.088160	-0.160790
C42	C	1.031737	0.411840	0.339210
C43	C	0.667570	-0.000057	-0.117727
C44	C	1.167570	0.499943	0.382273
C45	C	0.310614	-0.000076	-0.111452
C46	C	0.810614	0.499924	0.388548
C47	C	0.989111	-0.592869	-0.114581
C48	C	1.489111	-0.092869	0.385419
C49	C	0.920095	-0.553698	-0.183135
C50	C	1.420095	-0.053698	0.316865
C51	C	0.920254	-0.446610	-0.183385
C52	C	1.420254	0.053390	0.316615
C53	C	0.989081	-0.407278	-0.114590
C54	C	1.489081	0.092722	0.385410
C55	C	1.076445	-0.446122	-0.133671
C56	C	1.576445	0.053878	0.366329
C57	C	1.076057	-0.553243	-0.134159
C58	C	1.576057	-0.053243	0.365841
C59	C	0.971542	-0.553398	-0.026741
C60	C	1.471542	-0.053398	0.473259
C61	C	0.969538	-0.446270	-0.027327
C62	C	1.469538	0.053730	0.472673
C63	C	0.989069	-0.302390	-0.114593
C64	C	1.489069	0.197610	0.385407
C65	C	0.989128	-0.697757	-0.114579
C66	C	1.489128	-0.197757	0.385421
C67	C	1.142175	-0.000083	-0.108476
C68	C	1.642175	0.499917	0.391524
C69	C	1.235125	-0.000084	-0.110127
C70	C	1.735125	0.499916	0.389873
C71	C	0.995205	-0.000073	0.038494
C72	C	1.495205	0.499927	0.538494
C73	C	0.993553	-0.000068	0.131444
C74	C	1.493553	0.499932	0.631444
N75	N	0.989140	0.218631	-0.114572
N76	N	1.489140	0.718631	0.385428
C77	C	0.982980	-0.000072	-0.267671
C78	C	1.482980	0.499928	0.232329
C79	C	0.984631	-0.000071	-0.360621
C80	C	1.484631	0.499929	0.139379
C81	C	0.987621	-0.000071	0.469192
C82	C	1.487621	0.499929	0.969192
C83	C	0.896069	0.000281	0.421758
C84	C	1.396069	0.500281	0.921758
C85	C	0.897721	-0.000066	0.325068
C86	C	1.397721	0.499934	0.825068
C87	C	0.990564	-0.000069	0.301631
C88	C	1.490564	0.499931	0.801631
C89	C	1.035701	-0.087831	0.342705
C90	C	1.535701	0.412169	0.842705
C91	C	1.033401	-0.087904	0.439340
C92	C	1.533401	0.412096	0.939340
C93	C	1.035330	0.086861	0.439707
C94	C	1.535330	0.586861	0.939707
C95	C	1.035309	0.088021	0.342762
C96	C	1.535309	0.588021	0.842762
C97	C	0.992231	-0.000071	0.206934
C98	C	1.492231	0.499929	0.706934
C99	C	0.985956	-0.000075	0.563890
C100	C	1.485956	0.499925	1.063890
H101	H	0.434210	-0.063352	0.015027
H102	H	0.934210	0.436648	0.515027
N103	N	1.096558	-0.586345	-0.219011
N104	N	1.596558	-0.086345	0.280989
H105	H	1.153948	-0.562816	-0.229324
H106	H	1.653948	-0.062816	0.270676
H107	H	1.052901	-0.562265	-0.264335
H108	H	1.552901	-0.062265	0.235665
H109	H	1.102831	0.087449	0.471468
H110	H	1.602831	0.587449	0.971468
N111	N	1.031803	-0.410824	0.043417
N112	N	1.531803	0.089176	0.543417
H113	H	1.000941	-0.375257	0.084763
H114	H	1.500941	0.124743	0.584763
H115	H	1.073730	-0.368841	0.019726
H116	H	1.573730	0.131159	0.519726
H117	H	1.103909	-0.091097	0.328579
H118	H	1.603909	0.408903	0.828579
H119	H	1.100617	-0.091888	0.471588
H120	H	1.600617	0.408112	0.971588
N121	N	0.587084	-0.083394	0.023790
N122	N	1.087084	0.416606	0.523790
H123	H	0.540873	-0.120686	0.045775
H124	H	1.040873	0.379314	0.545775
H125	H	0.628445	-0.062366	0.072481
H126	H	1.128445	0.437634	0.572481
N127	N	1.038205	-0.586946	0.040840
N128	N	1.538205	-0.086946	0.540840
H129	H	1.079591	-0.627514	0.014733
H130	H	1.579591	-0.127514	0.514733
H131	H	1.010797	-0.623572	0.084073
H132	H	1.510797	-0.123572	0.584073
H133	H	1.000459	-0.153505	0.457639
H134	H	1.500459	0.346495	0.957639
H135	H	0.414242	-0.153524	-0.130885
H136	H	0.914242	0.346476	0.369115
H137	H	0.547101	-0.093461	-0.228494
H138	H	1.047101	0.406539	0.271506
H139	H	0.403031	-0.087600	-0.228313
H140	H	0.903031	0.412400	0.271687
H141	H	1.005412	0.153379	0.460250
H142	H	1.505412	0.653379	0.960250
N143	N	0.850720	0.083263	0.287415
N144	N	1.350720	0.583263	0.787415
H145	H	0.828739	0.120552	0.333623
H146	H	1.328739	0.620552	0.833623
H147	H	0.802027	0.062232	0.246057
H148	H	1.302027	0.562232	0.746057
N149	N	0.994155	-0.174342	0.305101
N150	N	1.494155	0.325658	0.805101
H151	H	0.946103	-0.156886	0.261472
H152	H	1.446103	0.343114	0.761472
H153	H	0.971921	-0.211959	0.350961
H154	H	1.471921	0.288041	0.850961
H155	H	1.002307	0.152945	0.315516
H156	H	1.502307	0.652945	0.815516
N157	N	0.567893	-0.174162	-0.117133
N158	N	1.067893	0.325838	0.382867
H159	H	0.595931	-0.213129	-0.158314
H160	H	1.095931	0.286871	0.341686
H161	H	0.521194	-0.210757	-0.095256
H162	H	1.021194	0.289243	0.404744
N163	N	0.850383	-0.083541	0.288149
N164	N	1.350383	0.416459	0.788149
H165	H	0.851259	-0.084112	0.225113
H166	H	1.351259	0.415888	0.725113
H167	H	0.790235	-0.080790	0.301561
H168	H	1.290235	0.419210	0.801561
H169	H	1.129018	-0.579154	-0.086196
H170	H	1.629018	-0.079154	0.413804
H171	H	0.859626	-0.062299	0.441349
H172	H	1.359626	0.437701	0.941349
N173	N	0.426794	0.082462	0.026708
N174	N	0.926794	0.582462	0.526708
H175	H	0.384446	0.120232	-0.010470
H176	H	0.884446	0.620232	0.489530
H177	H	0.477898	0.121594	0.044978
H178	H	0.977898	0.621594	0.544978
N179	N	0.586355	0.083408	0.024122
N180	N	1.086355	0.583408	0.524122
H181	H	0.561410	0.141467	-0.003462
H182	H	1.061410	0.641467	0.496538
H183	H	0.649388	0.083904	0.023239
H184	H	1.149388	0.583904	0.523239
H185	H	0.416874	0.153359	-0.125979
H186	H	0.916874	0.653359	0.374021
H187	H	0.855314	-0.420349	-0.172016
H188	H	1.355314	0.079651	0.327984
N189	N	0.833792	-0.587848	-0.168334
N190	N	1.333792	-0.087848	0.331666
H191	H	0.838591	-0.629046	-0.117048
H192	H	1.338591	-0.129046	0.382952
H193	H	0.808541	-0.623955	-0.219054
H194	H	1.308541	-0.123955	0.280946
N195	N	0.550521	0.092032	-0.251559
N196	N	1.050521	0.592032	0.248441
H197	H	0.585886	0.037021	-0.264119
H198	H	1.085886	0.537021	0.235881
H199	H	0.582181	0.150852	-0.260835
H200	H	1.082181	0.650852	0.239165
N201	N	1.124996	0.095044	0.322424
N202	N	1.624996	0.595044	0.822424
H203	H	1.125504	0.098958	0.259440
H204	H	1.625504	0.598958	0.759440
H205	H	1.157422	0.038620	0.344593
H206	H	1.657422	0.538620	0.844593
N207	N	0.392444	0.092998	-0.247943
N208	N	0.892444	0.592998	0.252057
H209	H	0.436411	0.095262	-0.288508
H210	H	0.936411	0.595262	0.211492
H211	H	0.356553	0.150507	-0.254667
H212	H	0.856553	0.650507	0.245333
H213	H	0.931159	-0.580608	-0.247952
H214	H	1.431159	-0.080608	0.252048
H215	H	0.560193	0.153002	-0.129845
H216	H	1.060193	0.653002	0.370155
N217	N	0.934891	-0.412643	-0.269788
N218	N	1.434891	0.087357	0.230212
H219	H	0.941294	-0.467258	-0.307854
H220	H	1.441294	0.032742	0.192146
H221	H	0.987744	-0.373931	-0.265495
H222	H	1.487744	0.126069	0.234505
H223	H	1.129029	-0.420643	-0.085068
H224	H	1.629029	0.079357	0.414932
N225	N	0.884403	-0.412636	-0.008174
N226	N	1.384403	0.087364	0.491826
H227	H	0.891043	-0.375684	0.045738
H228	H	1.391043	0.124316	0.545738
H229	H	0.846545	-0.467408	-0.001663
H230	H	1.346545	0.032592	0.498337
N231	N	1.097453	-0.410577	-0.217556
N232	N	1.597453	0.089423	0.282444
H233	H	1.050508	-0.369323	-0.243312
H234	H	1.550508	0.130677	0.256688
H235	H	1.104306	-0.464474	-0.256306
H236	H	1.604306	0.035526	0.243694
H237	H	0.909219	-0.580461	-0.008392
H238	H	1.409219	-0.080461	0.491608
H239	H	0.859490	0.063217	0.440293
H240	H	1.359490	0.563217	0.940293
