data_functionalizedCrystal
_audit_creation_method	'MofGen! by Chris Wilmer'
_symmetry_space_group_name_H-M	'P1'
_symmetry_Int_Tables_number	1
_symmetry_cell_setting	triclinic
loop_
_symmetry_equiv_pos_as_xyz
  x,y,z
_cell_length_a	10.654550
_cell_length_b	14.853559
_cell_length_c	9.130313
_cell_angle_alpha	89.997672
_cell_angle_beta	89.999724
_cell_angle_gamma	84.058192
loop_
_atom_site_label
_atom_site_type_symbol
_atom_site_fract_x
_atom_site_fract_y
_atom_site_fract_z
O1	O	1.666519	0.126627	-0.121682
O2	O	1.300914	0.138691	-0.121708
O3	O	1.493488	0.001481	-0.121693
O4	O	1.473945	0.263837	-0.121698
O5	O	1.493475	0.001477	0.121906
O6	O	1.300901	0.138687	0.121890
O7	O	1.666505	0.126622	0.121917
Cu8	Cu	1.483702	0.132654	0.144146
Cu9	Cu	1.483718	0.132659	-0.143938
O10	O	1.473932	0.263832	0.121901
C11	C	1.254119	0.137803	0.000088
C12	C	1.114703	0.135153	0.000077
C13	C	1.034375	0.215940	0.000080
C14	C	0.903380	0.213444	0.000106
C15	C	0.933055	0.049367	0.000120
C16	C	1.064047	0.051864	0.000104
C17	C	1.492598	-0.032115	0.000103
C18	C	1.489950	-0.132213	0.000095
C19	C	1.478724	-0.555446	-0.132692
C20	C	1.478710	-0.555445	0.132889
C21	C	1.481208	-0.461399	0.132891
C22	C	1.482463	-0.414371	0.000099
C23	C	1.481219	-0.461391	-0.132694
C24	C	1.482439	-0.414371	0.265681
C25	C	1.484936	-0.320319	0.265688
C26	C	1.486199	-0.273290	0.132895
C27	C	1.484957	-0.320316	0.000096
C28	C	1.486212	-0.273288	-0.132695
C29	C	1.484978	-0.320312	-0.265496
C30	C	1.482482	-0.414362	-0.265488
C31	C	1.488695	-0.179241	0.132887
C32	C	1.488706	-0.179232	-0.132698
C33	C	1.713301	0.127510	0.000117
C34	C	1.852716	0.130161	0.000118
C35	C	1.474822	0.297428	0.000101
C36	C	1.477470	0.397526	0.000100
N37	N	1.483700	0.132650	0.346769
N38	N	1.483729	0.132656	-0.346560
C39	C	1.569000	0.071919	0.423427
C40	C	1.569012	0.071920	0.576764
C41	C	1.398420	0.193389	0.576770
C42	C	1.398403	0.193384	0.423436
H43	H	0.891794	-0.018444	0.000150
H44	H	1.129454	-0.013927	0.000106
H45	H	1.489734	-0.140950	-0.240835
C46	C	1.477608	-0.606454	-0.276927
C47	C	1.586175	-0.593061	-0.357047
C48	C	1.585181	-0.640038	-0.489920
H49	H	1.404917	-0.584649	-0.331635
H50	H	1.476003	-0.669219	-0.257998
H51	H	1.587768	-0.530309	-0.375979
H52	H	1.658883	-0.614869	-0.302383
H53	H	1.583576	-0.702803	-0.470992
H54	H	1.512486	-0.618229	-0.544615
H55	H	1.658847	-0.630964	-0.544292
C56	C	1.661769	0.005945	0.659729
C57	C	1.736480	-0.047225	0.559761
C58	C	1.821954	-0.108006	0.636133
H59	H	1.616692	-0.031974	0.719560
H60	H	1.714168	0.038707	0.719502
H61	H	1.684087	-0.079985	0.500013
H62	H	1.781584	-0.009332	0.499926
H63	H	1.874353	-0.075245	0.695906
H64	H	1.776866	-0.145919	0.695962
H65	H	1.872663	-0.144084	0.568317
H66	H	1.485991	-0.282010	-0.373615
C67	C	1.089549	0.306300	0.000290
C68	C	1.163924	0.312517	0.125585
C69	C	1.214781	0.395741	0.125821
H70	H	1.023075	0.354136	0.000372
H71	H	1.140095	0.310693	-0.084623
H72	H	1.113382	0.308133	0.210476
H73	H	1.230419	0.264701	0.125530
H74	H	1.265327	0.400134	0.040908
H75	H	1.148298	0.443569	0.125899
H76	H	1.265259	0.399966	0.210824
H77	H	1.481477	-0.452658	-0.373606
H78	H	1.481411	-0.452667	0.373793
C79	C	1.486030	-0.269201	0.409822
C80	C	1.379495	-0.205746	0.417600
C81	C	1.380457	-0.158649	0.550363
H82	H	1.560100	-0.238856	0.415488
H83	H	1.484858	-0.310648	0.488946
H84	H	1.380678	-0.164306	0.338498
H85	H	1.305409	-0.236068	0.411960
H86	H	1.379285	-0.200095	0.629487
H87	H	1.454531	-0.128309	0.556017
H88	H	1.308169	-0.115596	0.555664
C89	C	1.489768	-0.128108	0.277001
C90	C	1.383225	-0.064658	0.284740
C91	C	1.384161	-0.017544	0.417489
H92	H	1.563832	-0.097757	0.282673
H93	H	1.488588	-0.169545	0.356137
H94	H	1.384416	-0.023226	0.205625
H95	H	1.309144	-0.094985	0.279094
H96	H	1.382980	-0.058981	0.496625
H97	H	1.458229	0.012802	0.423149
H98	H	1.311867	0.025507	0.422763
C99	C	1.305620	0.259224	0.659940
C100	C	1.182193	0.243757	0.622697
C101	C	1.096672	0.304379	0.699297
H102	H	1.319176	0.319524	0.634863
H103	H	1.317765	0.250524	0.762253
H104	H	1.170053	0.252464	0.520407
H105	H	1.168597	0.183468	0.647778
H106	H	1.108817	0.295679	0.801610
H107	H	1.110240	0.364676	0.674214
H108	H	1.012918	0.293888	0.674049
H109	H	0.837981	0.279229	0.000111
H110	H	1.328935	0.242839	0.361016
H111	H	1.477680	-0.593740	0.241002
H112	H	1.638453	0.022465	0.361008
