data_functionalizedCrystal
_audit_creation_method	'MofGen! by Chris Wilmer'
_symmetry_space_group_name_H-M	'P1'
_symmetry_Int_Tables_number	1
_symmetry_cell_setting	triclinic
loop_
_symmetry_equiv_pos_as_xyz
  x,y,z
_cell_length_a	10.489741
_cell_length_b	10.489741
_cell_length_c	8.965430
_cell_angle_alpha	89.999293
_cell_angle_beta	89.998843
_cell_angle_gamma	95.460826
loop_
_atom_site_label
_atom_site_type_symbol
_atom_site_fract_x
_atom_site_fract_y
_atom_site_fract_z
O1	O	1.694053	-0.179958	-0.123946
O2	O	1.322858	-0.196851	-0.123969
O3	O	1.516902	-0.002807	-0.123948
O4	O	1.500009	-0.374003	-0.123967
O5	O	1.516886	-0.002820	0.124130
O6	O	1.322841	-0.196864	0.124110
O7	O	1.694037	-0.179971	0.124133
Cu8	Cu	1.508438	-0.188419	0.146773
Cu9	Cu	1.508457	-0.188404	-0.146609
O10	O	1.499993	-0.374016	0.124112
C11	C	1.275318	-0.195582	0.000067
C12	C	1.133688	-0.191765	0.000059
C13	C	1.065548	-0.068300	0.000079
C14	C	0.973430	-0.126617	-0.122237
C15	C	0.973447	-0.126659	0.122349
C16	C	1.043435	-0.250133	-0.122358
C17	C	1.043462	-0.250158	0.122338
C18	C	0.951371	-0.308564	-0.000007
C19	C	1.515618	0.044718	0.000090
C20	C	1.511801	0.186348	0.000087
C21	C	1.741577	-0.181241	0.000093
C22	C	1.883206	-0.185058	0.000092
C23	C	1.501277	-0.421541	0.000070
C24	C	1.505094	-0.563170	0.000063
N25	N	1.508433	-0.188429	0.353122
C26	C	1.388336	0.254488	0.000069
C27	C	1.446652	0.346604	0.122388
C28	C	1.446697	0.346591	-0.122198
C29	C	1.570167	0.276599	0.122508
C30	C	1.570195	0.276576	-0.122189
C31	C	1.628600	0.368665	0.000161
N32	N	1.508471	-0.188384	-0.352958
C33	C	1.418666	-0.278138	0.450418
C34	C	1.534163	-0.303949	0.549838
C35	C	1.392986	-0.162629	0.549830
C36	C	1.623988	-0.214298	0.450352
C37	C	1.482735	-0.072927	0.450336
C38	C	1.598314	-0.098690	0.549711
H39	H	0.901947	-0.410168	-0.000079
H40	H	1.622398	0.245537	-0.225600
O41	O	0.932416	-0.057453	0.259341
H42	H	0.882950	0.026749	0.224897
H43	H	1.286824	0.204837	0.000185
H44	H	1.342824	-0.354072	0.406821
O45	O	1.084612	-0.319301	0.259307
H46	H	1.056892	-0.267859	0.360703
H47	H	1.460937	0.024699	0.406596
H48	H	1.295338	-0.140828	0.593530
H49	H	1.115238	0.033196	-0.000069
H50	H	1.394404	0.377610	0.225794
O51	O	1.639301	0.235775	0.259649
H52	H	1.573686	0.168898	0.326390
H53	H	1.074270	-0.302327	-0.225883
O54	O	1.753368	-0.243326	0.392723
H55	H	1.817673	-0.257681	0.488344
H56	H	0.942422	-0.074371	-0.225643
O57	O	1.763176	0.434155	0.000249
H58	H	1.814094	0.406118	0.101884
H59	H	1.394447	0.377561	-0.225620
O60	O	1.562954	-0.433287	0.607825
H61	H	1.488281	-0.507607	0.568100
O62	O	1.698990	0.001827	0.607129
H63	H	1.794687	-0.019881	0.567076
