data_functionalizedCrystal
_audit_creation_method	'MofGen! by Chris Wilmer'
_symmetry_space_group_name_H-M	'P1'
_symmetry_Int_Tables_number	1
_symmetry_cell_setting	triclinic
loop_
_symmetry_equiv_pos_as_xyz
  x,y,z
_cell_length_a	12.996460
_cell_length_b	14.519709
_cell_length_c	14.519709
_cell_angle_alpha	83.680145
_cell_angle_beta	89.992878
_cell_angle_gamma	90.005119
loop_
_atom_site_label
_atom_site_type_symbol
_atom_site_fract_x
_atom_site_fract_y
_atom_site_fract_z
O1	O	0.085423	-1.223863	-0.120894
O2	O	0.335423	-0.973863	0.129106
O3	O	0.585423	-0.723863	0.379106
O4	O	0.835423	-0.473863	0.629106
O5	O	0.085457	-0.955386	-0.135130
O6	O	0.335457	-0.705386	0.114870
O7	O	0.585457	-0.455386	0.364870
O8	O	0.835457	-0.205386	0.614870
O9	O	0.085430	-1.096742	0.006227
O10	O	0.335430	-0.846742	0.256227
O11	O	0.585430	-0.596742	0.506227
O12	O	0.835430	-0.346742	0.756227
O13	O	0.085450	-1.082506	-0.262250
O14	O	0.335450	-0.832506	-0.012250
O15	O	0.585450	-0.582506	0.237750
O16	O	0.835450	-0.332506	0.487750
O17	O	-0.085704	-1.096740	0.006236
O18	O	0.164296	-0.846740	0.256236
O19	O	0.414296	-0.596740	0.506236
O20	O	0.664296	-0.346740	0.756236
O21	O	-0.085677	-0.955383	-0.135121
O22	O	0.164323	-0.705383	0.114879
O23	O	0.414323	-0.455383	0.364879
O24	O	0.664323	-0.205383	0.614879
O25	O	-0.085711	-1.223860	-0.120884
O26	O	0.164289	-0.973860	0.129116
O27	O	0.414289	-0.723860	0.379116
O28	O	0.664289	-0.473860	0.629116
Cu29	Cu	-0.101320	-1.089622	-0.128002
Cu30	Cu	0.148680	-0.839622	0.121998
Cu31	Cu	0.398680	-0.589622	0.371998
Cu32	Cu	0.648680	-0.339622	0.621998
Cu33	Cu	0.101066	-1.089624	-0.128013
Cu34	Cu	0.351066	-0.839624	0.121987
Cu35	Cu	0.601066	-0.589624	0.371987
Cu36	Cu	0.851066	-0.339624	0.621987
O37	O	-0.085684	-1.082503	-0.262241
O38	O	0.164316	-0.832503	-0.012241
O39	O	0.414316	-0.582503	0.237759
O40	O	0.664316	-0.332503	0.487759
C41	C	-0.000106	-0.921025	-0.134462
C42	C	0.249894	-0.671025	0.115538
C43	C	0.499894	-0.421025	0.365538
C44	C	0.749894	-0.171025	0.615538
C45	C	-0.000093	-0.818643	-0.132474
C46	C	0.249907	-0.568643	0.117526
C47	C	0.499907	-0.318643	0.367526
C48	C	0.749907	-0.068643	0.617526
N49	N	-0.243667	-1.089626	-0.127993
N50	N	0.006333	-0.839626	0.122007
N51	N	0.256333	-0.589626	0.372007
N52	N	0.506333	-0.339626	0.622007
N53	N	0.243413	-1.089627	-0.128014
N54	N	0.493413	-0.839627	0.121986
N55	N	0.743413	-0.589627	0.371986
N56	N	0.993413	-0.339627	0.621986
C57	C	-0.000136	-0.443748	-0.125154
C58	C	0.249864	-0.193748	0.124846
C59	C	0.499864	0.056252	0.374846
C60	C	0.749864	0.306252	0.624846
C61	C	-0.000124	-0.548056	-0.127187
C62	C	0.249876	-0.298056	0.122813
C63	C	0.499876	-0.048056	0.372813
C64	C	0.749876	0.201944	0.622813
C65	C	-0.000113	-0.631192	-0.128814
C66	C	0.249887	-0.381192	0.121186
C67	C	0.499887	-0.131192	0.371186
C68	C	0.749887	0.118808	0.621186
C69	C	-0.000103	-0.735507	-0.130847
C70	C	0.249897	-0.485507	0.119153
C71	C	0.499897	-0.235507	0.369153
C72	C	0.749897	0.014493	0.619153
C73	C	0.663227	-1.089622	-0.128005
C74	C	0.913227	-0.839622	0.121995
C75	C	1.163227	-0.589622	0.371995
C76	C	1.413227	-0.339622	0.621995
C77	C	0.546422	-1.089620	-0.128010
C78	C	0.796422	-0.839620	0.121990
C79	C	1.046422	-0.589620	0.371990
C80	C	1.296422	-0.339620	0.621990
C81	C	0.453324	-1.089624	-0.128009
C82	C	0.703324	-0.839624	0.121991
C83	C	0.953324	-0.589624	0.371991
C84	C	1.203324	-0.339624	0.621991
C85	C	0.336511	-1.089623	-0.128015
C86	C	0.586511	-0.839623	0.121985
C87	C	0.836511	-0.589623	0.371985
C88	C	1.086511	-0.339623	0.621985
C89	C	-0.000137	-1.096078	0.040591
C90	C	0.249863	-0.846078	0.290591
C91	C	0.499863	-0.596078	0.540591
C92	C	0.749863	-0.346078	0.790591
C93	C	-0.000138	-1.094090	0.142972
C94	C	0.249862	-0.844090	0.392972
C95	C	0.499862	-0.594090	0.642972
C96	C	0.749862	-0.344090	0.892972
C97	C	-0.000144	-0.258221	-0.121553
C98	C	0.249856	-0.008221	0.128447
C99	C	0.499856	0.241779	0.378447
C100	C	0.749856	0.491779	0.628447
C101	C	-0.000142	-0.360602	-0.123541
C102	C	0.249858	-0.110602	0.126459
C103	C	0.499858	0.139398	0.376459
C104	C	0.749858	0.389398	0.626459
C105	C	-0.000115	-1.083168	-0.296605
C106	C	0.249885	-0.833168	-0.046605
C107	C	0.499885	-0.583168	0.203395
C108	C	0.749885	-0.333168	0.453395
C109	C	-0.000107	-1.085156	-0.398987
C110	C	0.249893	-0.835156	-0.148987
C111	C	0.499893	-0.585156	0.101013
C112	C	0.749893	-0.335156	0.351013
C113	C	-0.000110	-1.086770	0.517868
C114	C	0.249890	-0.836770	0.767868
C115	C	0.499890	-0.586770	1.017868
C116	C	0.749890	-0.336770	1.267868
C117	C	-0.000118	-1.088803	0.413560
C118	C	0.249882	-0.838803	0.663560
C119	C	0.499882	-0.588803	0.913560
C120	C	0.749882	-0.338803	1.163560
C121	C	-0.000125	-1.090430	0.330423
C122	C	0.249875	-0.840430	0.580423
C123	C	0.499875	-0.590430	0.830423
C124	C	0.749875	-0.340430	1.080423
C125	C	-0.000131	-1.092463	0.226109
C126	C	0.249869	-0.842463	0.476109
C127	C	0.499869	-0.592463	0.726109
C128	C	0.749869	-0.342463	0.976109
