data_functionalizedCrystal
_audit_creation_method	'MofGen! by Chris Wilmer'
_symmetry_space_group_name_H-M	'P1'
_symmetry_Int_Tables_number	1
_symmetry_cell_setting	triclinic
loop_
_symmetry_equiv_pos_as_xyz
  x,y,z
_cell_length_a	19.805407
_cell_length_b	16.625546
_cell_length_c	19.805399
_cell_angle_alpha	89.970726
_cell_angle_beta	89.983114
_cell_angle_gamma	90.022468
loop_
_atom_site_label
_atom_site_type_symbol
_atom_site_fract_x
_atom_site_fract_y
_atom_site_fract_z
Zn1	Zn	1.034736	-0.321009	-0.382718
Zn2	Zn	1.034664	-0.455850	-0.269529
Zn3	Zn	0.921556	-0.321035	-0.269543
Zn4	Zn	0.921522	-0.455803	-0.382676
O5	O	0.978120	-0.388424	-0.326117
O6	O	1.129443	-0.338905	-0.367716
O7	O	1.019644	-0.437996	-0.174815
O8	O	0.936614	-0.208199	-0.284579
O9	O	1.129390	-0.437971	-0.284556
O10	O	1.019767	-0.208180	-0.367729
O11	O	0.936544	-0.338948	-0.174825
O12	O	0.826835	-0.338903	-0.284538
O13	O	0.936556	-0.437893	-0.477398
O14	O	0.826810	-0.437917	-0.367657
O15	O	1.019734	-0.338860	-0.477429
O16	O	1.019611	-0.568676	-0.284515
O17	O	0.936486	-0.568642	-0.367644
C18	C	0.802264	-0.388409	-0.326095
C19	C	0.727032	-0.388422	-0.326102
C20	C	0.978056	-0.597915	-0.326088
C21	C	0.978090	-0.687536	-0.326099
C22	C	0.691692	-0.440056	-0.369311
C23	C	0.621004	-0.440057	-0.369321
C24	C	0.585656	-0.388428	-0.326117
C25	C	0.621001	-0.336788	-0.282905
C26	C	0.691688	-0.336783	-0.282899
C27	C	0.335927	-0.336806	-0.282927
C28	C	0.265235	-0.336816	-0.282935
C29	C	0.265243	-0.440080	-0.369349
C30	C	0.335931	-0.440075	-0.369343
C31	C	0.371269	-0.388433	-0.326134
C32	C	0.447917	-0.388431	-0.326125
C33	C	0.509009	-0.388433	-0.326122
C34	C	0.978208	-1.015712	-0.326169
C35	C	0.978173	-0.924403	-0.326152
C36	C	0.978149	-0.851627	-0.326134
C37	C	0.978115	-0.760313	-0.326117
C38	C	1.154662	-0.388440	-0.326139
C39	C	1.229894	-0.388447	-0.326149
C40	C	0.978149	-0.388368	-0.502660
C41	C	0.978162	-0.388344	-0.577892
C42	C	0.978202	-0.178115	-0.326160
C43	C	0.978238	-0.088494	-0.326178
C44	C	0.934904	-0.336765	-0.613240
C45	C	0.934914	-0.336750	-0.683929
C46	C	0.978185	-0.388310	-0.719267
C47	C	1.021444	-0.439894	-0.683913
C48	C	1.021431	-0.439914	-0.613226
C49	C	1.021498	-0.439819	-0.968987
C50	C	1.021509	-0.439794	-1.039679
C51	C	0.934980	-0.336655	-1.039689
C52	C	0.934967	-0.336674	-0.969002
C53	C	0.978224	-0.388262	-0.933655
C54	C	0.978213	-0.388279	-0.857006
C55	C	0.978200	-0.388289	-0.795914
C56	C	0.978129	-0.388422	-0.150261
C57	C	0.978248	-0.388218	-0.075029
H58	H	0.592234	-0.482104	-0.404506
O59	O	1.063456	-0.489899	-0.934552
C60	C	1.054180	-0.478854	-0.864583
H61	H	1.001954	-0.452445	-0.854926
H62	H	1.058743	-0.539260	-0.837709
H63	H	1.094341	-0.435927	-0.844536
H64	H	0.899734	-0.294686	-0.940233
H65	H	0.364707	-0.482120	-0.404522
O66	O	1.063455	-0.489906	-0.718344
C67	C	1.054181	-0.478844	-0.788315
H68	H	1.032042	-0.416613	-0.797981
H69	H	1.104883	-0.484313	-0.815183
H70	H	1.018120	-0.526660	-0.808359
H71	H	1.056747	-0.481784	-1.068450
H72	H	0.592215	-0.294747	-0.247730
O73	O	0.726056	-0.490295	-0.411184
C74	C	0.766929	-0.542300	-0.372571
H75	H	0.745607	-0.547203	-0.319256
H76	H	0.767721	-0.604388	-0.396960
H77	H	0.820507	-0.517364	-0.370274
O78	O	1.063418	-0.490129	-0.578959
C79	C	1.048582	-0.570485	-0.596201
H80	H	1.022575	-0.572137	-0.647523
H81	H	1.097414	-0.606648	-0.598613
H82	H	1.013760	-0.597647	-0.556409
O83	O	0.230810	-0.490165	-0.411307
C84	C	0.160840	-0.479115	-0.402042
H85	H	0.151192	-0.416855	-0.379972
H86	H	0.133996	-0.484667	-0.452736
H87	H	0.140752	-0.526886	-0.365926
O88	O	0.892880	-0.286664	-1.074057
C89	C	0.849160	-0.332551	-1.114939
H90	H	0.844951	-0.396061	-1.093622
H91	H	0.797084	-0.303382	-1.115738
H92	H	0.870092	-0.335316	-1.168515
H93	H	0.899672	-0.294775	-0.584473
O94	O	0.726095	-0.286741	-0.240890
C95	C	0.766942	-0.332578	-0.197092
H96	H	0.777521	-0.393719	-0.220870
H97	H	0.816656	-0.299719	-0.188069
H98	H	0.739680	-0.341361	-0.146920
O99	O	0.231002	-0.286580	-0.240946
C100	C	0.277349	-0.241010	-0.202796
H101	H	0.327749	-0.238256	-0.230518
H102	H	0.256935	-0.177474	-0.195679
H103	H	0.284840	-0.270451	-0.151342
H104	H	0.364691	-0.294761	-0.247739
H105	H	0.899686	-0.294752	-0.712707
