data_functionalizedCrystal
_audit_creation_method	'MofGen! by Chris Wilmer'
_symmetry_space_group_name_H-M	'P1'
_symmetry_Int_Tables_number	1
_symmetry_cell_setting	triclinic
loop_
_symmetry_equiv_pos_as_xyz
  x,y,z
_cell_length_a	18.101398
_cell_length_b	18.101395
_cell_length_c	16.625539
_cell_angle_alpha	89.974216
_cell_angle_beta	89.992183
_cell_angle_gamma	90.026661
loop_
_atom_site_label
_atom_site_type_symbol
_atom_site_fract_x
_atom_site_fract_y
_atom_site_fract_z
Zn1	Zn	1.132107	-0.294930	-0.455714
Zn2	Zn	1.382107	-0.044930	-0.205714
Zn3	Zn	1.632107	0.205070	0.044286
Zn4	Zn	1.882107	0.455070	0.294286
Zn5	Zn	1.132007	-0.418775	-0.320883
Zn6	Zn	1.382007	-0.168775	-0.070883
Zn7	Zn	1.632007	0.081225	0.179117
Zn8	Zn	1.882007	0.331225	0.429117
Zn9	Zn	1.008270	-0.294942	-0.320916
Zn10	Zn	1.258270	-0.044942	-0.070916
Zn11	Zn	1.508270	0.205058	0.179084
Zn12	Zn	1.758270	0.455058	0.429084
Zn13	Zn	1.008217	-0.418724	-0.455695
Zn14	Zn	1.258217	-0.168724	-0.205695
Zn15	Zn	1.508217	0.081276	0.044305
Zn16	Zn	1.758217	0.331276	0.294305
O17	O	1.070150	-0.356843	-0.388302
O18	O	1.320150	-0.106843	-0.138302
O19	O	1.570150	0.143157	0.111698
O20	O	1.820150	0.393157	0.361698
O21	O	1.235726	-0.311374	-0.437823
O22	O	1.485726	-0.061374	-0.187823
O23	O	1.735726	0.188626	0.062177
O24	O	1.985726	0.438626	0.312177
O25	O	1.115573	-0.402374	-0.208055
O26	O	1.365573	-0.152374	0.041945
O27	O	1.615573	0.097626	0.291945
O28	O	1.865573	0.347626	0.541945
O29	O	1.024761	-0.191308	-0.338820
O30	O	1.274761	0.058692	-0.088820
O31	O	1.524761	0.308692	0.161180
O32	O	1.774761	0.558692	0.411180
O33	O	1.235653	-0.402362	-0.338763
O34	O	1.485653	-0.152362	-0.088763
O35	O	1.735653	0.097638	0.161237
O36	O	1.985653	0.347638	0.411237
O37	O	1.115744	-0.191299	-0.437855
O38	O	1.365744	0.058701	-0.187855
O39	O	1.615744	0.308701	0.062145
O40	O	1.865744	0.558701	0.312145
O41	O	1.024664	-0.311395	-0.208080
O42	O	1.274664	-0.061395	0.041920
O43	O	1.524664	0.188605	0.291920
O44	O	1.774664	0.438605	0.541920
O45	O	0.904630	-0.311346	-0.338801
O46	O	1.154630	-0.061346	-0.088801
O47	O	1.404630	0.188654	0.161199
O48	O	1.654630	0.438654	0.411199
O49	O	1.024670	-0.402277	-0.568530
O50	O	1.274670	-0.152277	-0.318530
O51	O	1.524670	0.097723	-0.068530
O52	O	1.774670	0.347723	0.181470
O53	O	0.904591	-0.402288	-0.437822
O54	O	1.154591	-0.152288	-0.187822
O55	O	1.404591	0.097712	0.062178
O56	O	1.654591	0.347712	0.312178
O57	O	1.115692	-0.311325	-0.568544
O58	O	1.365692	-0.061325	-0.318544
O59	O	1.615692	0.188675	-0.068544
O60	O	1.865692	0.438675	0.181456
O61	O	1.115522	-0.522401	-0.338744
O62	O	1.365522	-0.272401	-0.088744
O63	O	1.615522	-0.022401	0.161256
O64	O	1.865522	0.227599	0.411256
O65	O	1.024573	-0.522364	-0.437789
O66	O	1.274573	-0.272364	-0.187789
O67	O	1.524573	-0.022364	0.062211
O68	O	1.774573	0.227636	0.312211
C69	C	0.877740	-0.356814	-0.388313
C70	C	1.127740	-0.106814	-0.138313
C71	C	1.377740	0.143186	0.111687
C72	C	1.627740	0.393186	0.361687
C73	C	0.795425	-0.356819	-0.388337
C74	C	1.045425	-0.106819	-0.138337
C75	C	1.295425	0.143181	0.111663
C76	C	1.545425	0.393181	0.361663
C77	C	0.496334	-0.356863	-0.388304
C78	C	0.746334	-0.106863	-0.138304
C79	C	0.996334	0.143137	0.111696
C80	C	1.246334	0.393137	0.361696
C81	C	0.527660	-0.414358	-0.450297
C82	C	0.777660	-0.164358	-0.200297
C83	C	1.027660	0.085642	0.049703
C84	C	1.277660	0.335642	0.299703
C85	C	0.613278	-0.414178	-0.450552
C86	C	0.863278	-0.164178	-0.200552
C87	C	1.113278	0.085822	0.049448
C88	C	1.363278	0.335822	0.299448
C89	C	0.644717	-0.356842	-0.388320
C90	C	0.894717	-0.106842	-0.138320
C91	C	1.144717	0.143158	0.111680
C92	C	1.394717	0.393158	0.361680
C93	C	0.613662	-0.278840	-0.411539
C94	C	0.863662	-0.028840	-0.161539
C95	C	1.113662	0.221160	0.088461
C96	C	1.363662	0.471160	0.338461
C97	C	0.528017	-0.279185	-0.411980
C98	C	0.778017	-0.029185	-0.161980
C99	C	1.028017	0.220815	0.088020
C100	C	1.278017	0.470815	0.338020
C101	C	0.527884	-0.376682	-0.302942
C102	C	0.777884	-0.126682	-0.052942
C103	C	1.027884	0.123318	0.197058
C104	C	1.277884	0.373318	0.447058
C105	C	0.613534	-0.378393	-0.303398
C106	C	0.863534	-0.128393	-0.053398
C107	C	1.113534	0.121607	0.196602
C108	C	1.363534	0.371607	0.446602
C109	C	0.728576	-0.356825	-0.388328
C110	C	0.978576	-0.106825	-0.138328
C111	C	1.228576	0.143175	0.111672
C112	C	1.478576	0.393175	0.361672
C113	C	0.412475	-0.356874	-0.388297
C114	C	0.662475	-0.106874	-0.138297
C115	C	0.912475	0.143126	0.111703
C116	C	1.162475	0.393126	0.361703
C117	C	1.070051	-0.549253	-0.388278
C118	C	1.320051	-0.299253	-0.138278
C119	C	1.570051	-0.049253	0.111722
C120	C	1.820051	0.200747	0.361722
C121	C	1.070076	-0.631567	-0.388295
C122	C	1.320076	-0.381567	-0.138295
C123	C	1.570076	-0.131567	0.111705
C124	C	1.820076	0.118433	0.361705
C125	C	1.070239	-0.930658	-0.388339
C126	C	1.320239	-0.680658	-0.138339
C127	C	1.570239	-0.430658	0.111661
C128	C	1.820239	-0.180658	0.361661
C129	C	1.013149	-0.899341	-0.450810
C130	C	1.263149	-0.649341	-0.200810
C131	C	1.513149	-0.399341	0.049190
C132	C	1.763149	-0.149341	0.299190
C133	C	1.012878	-0.813723	-0.450615
C134	C	1.262878	-0.563723	-0.200615
C135	C	1.512878	-0.313723	0.049385
C136	C	1.762878	-0.063723	0.299385
C137	C	1.070158	-0.782276	-0.388318
C138	C	1.320158	-0.532276	-0.138318
C139	C	1.570158	-0.282276	0.111682
C140	C	1.820158	-0.032276	0.361682
C141	C	1.049032	-0.813423	-0.303344
C142	C	1.299032	-0.563423	-0.053344
C143	C	1.549032	-0.313423	0.196656
C144	C	1.799032	-0.063423	0.446656
C145	C	1.048664	-0.899069	-0.303717
C146	C	1.298664	-0.649069	-0.053717
C147	C	1.548664	-0.399069	0.196283
C148	C	1.798664	-0.149069	0.446283
C149	C	1.148580	-0.899009	-0.410093
C150	C	1.398580	-0.649009	-0.160093
C151	C	1.648580	-0.399009	0.089907
C152	C	1.898580	-0.149009	0.339907
C153	C	1.148119	-0.813358	-0.411957
C154	C	1.398119	-0.563358	-0.161957
C155	C	1.648119	-0.313358	0.088043
C156	C	1.898119	-0.063358	0.338043
C157	C	1.070114	-0.698416	-0.388301
C158	C	1.320114	-0.448416	-0.138301
C159	C	1.570114	-0.198416	0.111699
C160	C	1.820114	0.051584	0.361699
C161	C	1.070281	-1.014518	-0.388350
C162	C	1.320281	-0.764518	-0.138350
C163	C	1.570281	-0.514518	0.111650
C164	C	1.820281	-0.264518	0.361650
C165	C	1.263312	-0.356873	-0.388291
C166	C	1.513312	-0.106873	-0.138291
C167	C	1.763312	0.143127	0.111709
C168	C	2.013312	0.393127	0.361709
C169	C	1.345626	-0.356885	-0.388287
C170	C	1.595626	-0.106885	-0.138287
C171	C	1.845626	0.143115	0.111713
C172	C	2.095626	0.393115	0.361713
C173	C	1.070186	-0.356794	-0.598611
C174	C	1.320186	-0.106794	-0.348611
C175	C	1.570186	0.143206	-0.098611
C176	C	1.820186	0.393206	0.151389
C177	C	1.070202	-0.356773	-0.688232
C178	C	1.320202	-0.106773	-0.438232
C179	C	1.570202	0.143227	-0.188232
C180	C	1.820202	0.393227	0.061768
C181	C	1.070270	-0.163681	-0.388344
C182	C	1.320270	0.086319	-0.138344
C183	C	1.570270	0.336319	0.111656
C184	C	1.820270	0.586319	0.361656
C185	C	1.070321	-0.081367	-0.388361
C186	C	1.320321	0.168633	-0.138361
C187	C	1.570321	0.418633	0.111639
C188	C	1.820321	0.668633	0.361639
C189	C	1.070214	-0.356757	-0.761015
C190	C	1.320214	-0.106757	-0.511015
C191	C	1.570214	0.143243	-0.261015
C192	C	1.820214	0.393243	-0.011015
C193	C	1.070231	-0.356729	-0.852323
C194	C	1.320231	-0.106729	-0.602323
C195	C	1.570231	0.143271	-0.352323
C196	C	1.820231	0.393271	-0.102323
C197	C	1.070249	-0.356703	-0.925100
C198	C	1.320249	-0.106703	-0.675100
C199	C	1.570249	0.143297	-0.425100
C200	C	1.820249	0.393297	-0.175100
C201	C	1.070267	-0.356676	-1.016414
C202	C	1.320267	-0.106676	-0.766414
C203	C	1.570267	0.143324	-0.516414
C204	C	1.820267	0.393324	-0.266414
C205	C	1.070157	-0.356838	-0.178811
C206	C	1.320157	-0.106838	0.071189
C207	C	1.570157	0.143162	0.321189
C208	C	1.820157	0.393162	0.571189
C209	C	1.070285	-0.356650	-0.089191
C210	C	1.320285	-0.106650	0.160809
C211	C	1.570285	0.143350	0.410809
C212	C	1.820285	0.393350	0.660809
H213	H	0.508054	-0.262375	-0.474383
H214	H	0.758054	-0.012375	-0.224383
H215	H	1.008054	0.237625	0.025617
H216	H	1.258054	0.487625	0.275617
O217	O	0.500343	-0.491228	-0.431249
O218	O	0.750343	-0.241228	-0.181249
O219	O	1.000343	0.008772	0.068751
O220	O	1.250343	0.258772	0.318751
H221	H	0.523181	-0.530762	-0.475787
H222	H	0.773181	-0.280762	-0.225787
H223	H	1.023181	-0.030762	0.024213
H224	H	1.273181	0.219238	0.274213
H225	H	0.955434	-0.920922	-0.436582
H226	H	1.205434	-0.670922	-0.186582
H227	H	1.455434	-0.420922	0.063418
H228	H	1.705434	-0.170922	0.313418
H229	H	0.954810	-0.793295	-0.436205
H230	H	1.204810	-0.543295	-0.186205
H231	H	1.454810	-0.293295	0.063795
H232	H	1.704810	-0.043295	0.313795
H233	H	0.507627	-0.334803	-0.256751
H234	H	0.757627	-0.084803	-0.006751
H235	H	1.007627	0.165197	0.243249
H236	H	1.257627	0.415197	0.493249
H237	H	1.164051	-0.792997	-0.474493
H238	H	1.414051	-0.542997	-0.224493
H239	H	1.664051	-0.292997	0.025507
H240	H	1.914051	-0.042997	0.275507
H241	H	0.991397	-0.919107	-0.285287
H242	H	1.241397	-0.669107	-0.035287
H243	H	1.491397	-0.419107	0.214713
H244	H	1.741397	-0.169107	0.464713
H245	H	0.634274	-0.472020	-0.436000
H246	H	0.884274	-0.222020	-0.186000
H247	H	1.134274	0.027980	0.064000
H248	H	1.384274	0.277980	0.314000
O249	O	1.204997	-0.925827	-0.349905
O250	O	1.454997	-0.675827	-0.099905
O251	O	1.704997	-0.425827	0.150095
O252	O	1.954997	-0.175827	0.400095
H253	H	1.248356	-0.957930	-0.381603
H254	H	1.498356	-0.707930	-0.131603
H255	H	1.748356	-0.457930	0.118397
H256	H	1.998356	-0.207930	0.368397
O257	O	1.207444	-0.785033	-0.356058
O258	O	1.457444	-0.535033	-0.106058
O259	O	1.707444	-0.285033	0.143942
O260	O	1.957444	-0.035033	0.393942
H261	H	1.182175	-0.748195	-0.310349
H262	H	1.432175	-0.498195	-0.060349
H263	H	1.682175	-0.248195	0.189651
H264	H	1.932175	0.001805	0.439651
O265	O	0.500560	-0.220511	-0.354793
O266	O	0.750560	0.029489	-0.104793
O267	O	1.000560	0.279489	0.145207
O268	O	1.250560	0.529489	0.395207
H269	H	0.548456	-0.192012	-0.326950
H270	H	0.798456	0.057988	-0.076950
H271	H	1.048456	0.307988	0.173050
H272	H	1.298456	0.557988	0.423050
O273	O	1.102372	-0.786449	-0.239998
O274	O	1.352372	-0.536449	0.010002
O275	O	1.602372	-0.286449	0.260002
O276	O	1.852372	-0.036449	0.510002
H277	H	1.100967	-0.725186	-0.237692
H278	H	1.350967	-0.475186	0.012308
H279	H	1.600967	-0.225186	0.262308
H280	H	1.850967	0.024814	0.512308
H281	H	0.506147	-0.401411	-0.513179
H282	H	0.756147	-0.151411	-0.263179
H283	H	1.006147	0.098589	-0.013179
H284	H	1.256147	0.348589	0.236821
O285	O	0.642113	-0.256164	-0.493290
O286	O	0.892113	-0.006164	-0.243290
O287	O	1.142113	0.243836	0.006710
O288	O	1.392113	0.493836	0.256710
H289	H	0.624050	-0.297158	-0.538864
H290	H	0.874050	-0.047158	-0.288864
H291	H	1.124050	0.202842	-0.038864
H292	H	1.374050	0.452842	0.211136
O293	O	0.640444	-0.396793	-0.534324
O294	O	0.890444	-0.146793	-0.284324
O295	O	1.140444	0.103207	-0.034324
O296	O	1.390444	0.353207	0.215676
H297	H	0.592409	-0.388474	-0.574810
H298	H	0.842409	-0.138474	-0.324810
H299	H	1.092409	0.111526	-0.074810
H300	H	1.342409	0.361526	0.175190
H301	H	1.088441	-0.919788	-0.255585
H302	H	1.338441	-0.669788	-0.005585
H303	H	1.588441	-0.419788	0.244415
H304	H	1.838441	-0.169788	0.494415
O305	O	0.973977	-0.785101	-0.278486
O306	O	1.223977	-0.535101	-0.028486
O307	O	1.473977	-0.285101	0.221514
O308	O	1.723977	-0.035101	0.471514
H309	H	0.951601	-0.748851	-0.326510
H310	H	1.201601	-0.498851	-0.076510
H311	H	1.451601	-0.248851	0.173490
H312	H	1.701601	0.001149	0.423490
H313	H	0.634027	-0.234840	-0.367794
H314	H	0.884027	0.015160	-0.117794
H315	H	1.134027	0.265160	0.132206
H316	H	1.384027	0.515160	0.382206
H317	H	0.633839	-0.435791	-0.285886
H318	H	0.883839	-0.185791	-0.035886
H319	H	1.133839	0.064209	0.214114
H320	H	1.383839	0.314209	0.464114
O321	O	0.499253	-0.450730	-0.274978
O322	O	0.749253	-0.200730	-0.024978
O323	O	0.999253	0.049270	0.225022
O324	O	1.249253	0.299270	0.475022
H325	H	0.462212	-0.474236	-0.321616
H326	H	0.712212	-0.224236	-0.071616
H327	H	0.962212	0.025764	0.178384
H328	H	1.212212	0.275764	0.428384
H329	H	1.026095	-0.792661	-0.513623
H330	H	1.276095	-0.542661	-0.263623
H331	H	1.526095	-0.292661	-0.013623
H332	H	1.776095	-0.042661	0.236377
H333	H	0.634936	-0.339557	-0.254727
H334	H	0.884936	-0.089557	-0.004727
H335	H	1.134936	0.160443	0.245273
H336	H	1.384936	0.410443	0.495273
H337	H	1.026236	-0.919891	-0.514022
H338	H	1.276236	-0.669891	-0.264022
H339	H	1.526236	-0.419891	-0.014022
H340	H	1.776236	-0.169891	0.235978
H341	H	1.167842	-0.920560	-0.471000
H342	H	1.417842	-0.670560	-0.221000
H343	H	1.667842	-0.420560	0.029000
H344	H	1.917842	-0.170560	0.279000
