data_functionalizedCrystal
_audit_creation_method	'MofGen! by Chris Wilmer'
_symmetry_space_group_name_H-M	'P1'
_symmetry_Int_Tables_number	1
_symmetry_cell_setting	triclinic
loop_
_symmetry_equiv_pos_as_xyz
  x,y,z
_cell_length_a	8.559649
_cell_length_b	8.559649
_cell_length_c	7.088899
_cell_angle_alpha	97.658681
_cell_angle_beta	97.661462
_cell_angle_gamma	69.778664
loop_
_atom_site_label
_atom_site_type_symbol
_atom_site_fract_x
_atom_site_fract_y
_atom_site_fract_z
O1	O	-2.113825	0.068076	0.158981
O2	O	-1.638340	-0.015705	0.158983
O3	O	-1.917973	0.263928	0.158980
O4	O	-1.834192	-0.211557	0.158984
O5	O	-1.944067	0.237850	-0.158995
O6	O	-1.664434	-0.041783	-0.158992
O7	O	-2.139919	0.041998	-0.158994
Cu8	Cu	-1.904559	-0.002274	-0.188027
Cu9	Cu	-1.873700	0.028567	0.188016
O10	O	-1.860285	-0.237635	-0.158991
C11	C	-1.591078	-0.035093	-0.000004
C12	C	-1.411378	-0.053992	-0.000003
C13	C	-1.937369	0.311198	-0.000004
C14	C	-1.956267	0.490898	0.000006
C15	C	-2.187180	0.061387	-0.000003
C16	C	-2.366879	0.080287	0.000009
N17	N	-1.926275	-0.023963	-0.452515
C18	C	-1.840889	-0.284905	-0.000003
C19	C	-1.821990	-0.464604	-0.000001
N20	N	-1.851998	0.050270	0.452504
H21	H	-1.311999	-0.183410	0.000017
H22	H	-1.692571	0.436018	-0.000006
F23	F	-1.496780	0.249461	0.000006
F24	F	-2.125443	0.620798	-0.000017
H25	H	-2.003256	-0.100884	-0.534164
H26	H	-1.774993	0.127178	-0.465837
