data_functionalizedCrystal
_audit_creation_method	'MofGen! by Chris Wilmer'
_symmetry_space_group_name_H-M	'P1'
_symmetry_Int_Tables_number	1
_symmetry_cell_setting	triclinic
loop_
_symmetry_equiv_pos_as_xyz
  x,y,z
_cell_length_a	9.065218
_cell_length_b	19.188930
_cell_length_c	7.540329
_cell_angle_alpha	89.991297
_cell_angle_beta	89.996962
_cell_angle_gamma	84.080333
loop_
_atom_site_label
_atom_site_type_symbol
_atom_site_fract_x
_atom_site_fract_y
_atom_site_fract_z
O1	O	1.956847	0.102369	-0.147510
O2	O	1.527271	0.110766	-0.147515
O3	O	1.754456	0.005009	-0.147478
O4	O	1.729662	0.208127	-0.147547
O5	O	1.754442	0.005007	0.147487
O6	O	1.527257	0.110765	0.147450
O7	O	1.956833	0.102368	0.147455
Cu8	Cu	1.742044	0.106566	0.174385
Cu9	Cu	1.742060	0.106568	-0.174445
O10	O	1.729649	0.208126	0.147418
C11	C	1.472305	0.109959	-0.000032
C12	C	1.308546	0.107546	-0.000033
C13	C	1.753646	-0.021009	0.000010
C14	C	1.751236	-0.098533	0.000025
C15	C	1.884540	-0.142421	0.000035
C16	C	1.882276	-0.215262	0.000006
C17	C	1.746699	-0.244212	0.000004
C18	C	1.613377	-0.200314	-0.000016
C19	C	1.615646	-0.127474	-0.000006
N20	N	1.643063	-0.353023	0.100385
N21	N	1.640917	-0.422218	0.100379
C22	C	1.739858	-0.463674	-0.000032
N23	N	1.841047	-0.433322	-0.100414
N24	N	1.843197	-0.364120	-0.100400
C25	C	1.744225	-0.323194	-0.000009
C26	C	1.870716	-0.586546	-0.000056
C27	C	1.868446	-0.659388	-0.000095
C28	C	1.599544	-0.644438	-0.000100
C29	C	1.601818	-0.571598	-0.000078
C30	C	1.737408	-0.542656	-0.000048
C31	C	2.011799	0.103176	-0.000032
C32	C	2.175558	0.105589	-0.000043
C33	C	1.730458	0.234144	-0.000074
C34	C	1.732869	0.311667	-0.000101
N35	N	1.742044	0.106565	0.419734
N36	N	1.742072	0.106564	-0.419794
H37	H	1.994948	-0.118862	0.000054
O38	O	1.481642	-0.228400	-0.000331
C39	C	1.400401	-0.206031	-0.153078
H40	H	1.479698	-0.190372	-0.259846
H41	H	1.317882	-0.159093	-0.118543
C42	C	1.218615	-0.285385	-0.091224
C43	C	1.316011	-0.266158	-0.222363
H44	H	1.166554	-0.322473	-0.133959
H45	H	1.273345	-0.300454	0.011689
H46	H	1.149863	-0.246265	-0.062456
H47	H	1.384772	-0.305275	-0.251112
H48	H	1.261291	-0.251097	-0.325282
H49	H	1.990832	-0.251003	0.000007
H50	H	1.981122	-0.562980	-0.000039
H51	H	1.977004	-0.695122	-0.000097
O52	O	1.467972	-0.672666	-0.000033
C53	C	1.494552	-0.746369	-0.000097
H54	H	1.609782	-0.762746	0.055754
H55	H	1.487549	-0.766670	-0.141613
C56	C	1.235862	-0.757214	0.046958
C57	C	1.377384	-0.777330	0.115569
H58	H	1.163584	-0.776314	0.118299
H59	H	1.217952	-0.707560	0.046995
H60	H	1.230047	-0.774134	-0.070971
H61	H	1.383203	-0.760403	0.233488
H62	H	1.395292	-0.826982	0.115555
O63	O	1.472188	-0.529061	0.000014
C64	C	1.352035	-0.570229	-0.000039
H65	H	1.389830	-0.624348	0.055793
H66	H	1.310458	-0.575665	-0.141550
C67	C	1.179475	-0.468280	0.047068
C68	C	1.225892	-0.534748	0.115656
H69	H	1.101660	-0.446394	0.118426
H70	H	1.260423	-0.440544	0.047097
H71	H	1.144838	-0.472820	-0.070857
H72	H	1.260545	-0.530208	0.233570
H73	H	1.144947	-0.562484	0.115650
H74	H	1.507089	-0.091740	-0.000013
