data_functionalizedCrystal
_audit_creation_method	'MofGen! by Chris Wilmer'
_symmetry_space_group_name_H-M	'P1'
_symmetry_Int_Tables_number	1
_symmetry_cell_setting	triclinic
loop_
_symmetry_equiv_pos_as_xyz
  x,y,z
_cell_length_a	29.839131
_cell_length_b	10.685972
_cell_length_c	10.685880
_cell_angle_alpha	99.082357
_cell_angle_beta	94.334932
_cell_angle_gamma	85.594303
loop_
_atom_site_label
_atom_site_type_symbol
_atom_site_fract_x
_atom_site_fract_y
_atom_site_fract_z
Zn1	Zn	-0.148053	-1.995545	-0.866660
Zn2	Zn	-0.217850	-1.979042	-0.654375
Zn3	Zn	-0.148074	-1.766985	-0.638127
Zn4	Zn	-0.228502	-1.783140	-0.850270
O5	O	-0.185620	-1.881178	-0.752358
O6	O	-0.152845	-2.170995	-0.852160
O7	O	-0.204144	-1.937244	-0.474596
O8	O	-0.085202	-1.797450	-0.668502
O9	O	-0.204124	-2.158870	-0.696195
O10	O	-0.085186	-1.965372	-0.836405
O11	O	-0.152881	-1.781447	-0.462658
O12	O	-0.163210	-1.591489	-0.652609
O13	O	-0.222280	-1.824983	-1.030068
O14	O	-0.222300	-1.603358	-0.808469
O15	O	-0.163174	-1.981037	-1.042110
O16	O	-0.282132	-1.952909	-0.680301
O17	O	-0.289959	-1.808981	-0.824224
C18	C	-0.193914	-1.551364	-0.726998
C19	C	-0.197473	-1.410270	-0.716179
C20	C	-0.302347	-1.880944	-0.752278
C21	C	-0.352281	-1.880963	-0.752294
C22	C	-0.657832	-1.956278	-0.677547
C23	C	-0.845502	-1.956439	-0.677609
O24	O	-0.866290	-2.020289	-0.613994
N25	N	-0.873058	-1.881448	-0.752474
C26	C	-0.853693	-1.806419	-0.827336
O27	O	-0.881437	-1.742649	-0.891025
C28	C	-0.666024	-1.806266	-0.827280
C29	C	-0.638470	-1.881252	-0.752400
C30	C	-0.630278	-2.031258	-0.602675
C31	C	-0.583364	-2.031212	-0.602655
C32	C	-0.564002	-1.956186	-0.677508
C33	C	-0.591555	-1.881206	-0.752381
C34	C	-0.646660	-1.731245	-0.902148
C35	C	-0.599739	-1.731216	-0.902130
C36	C	-0.572186	-1.806201	-0.827250
C37	C	-0.525279	-1.806133	-0.827214
N38	N	-0.497723	-1.881123	-0.752348
C39	C	-0.517085	-1.956150	-0.677495
C40	C	-0.952222	-1.806503	-0.827357
C41	C	-0.999139	-1.806539	-0.827370
C42	C	-0.990945	-1.956560	-0.677644
C43	C	-0.944027	-1.956516	-0.677626
C44	C	-0.924666	-1.881493	-0.752492
C45	C	-0.418561	-1.956046	-0.677459
C46	C	-0.371642	-1.955989	-0.677441
C47	C	-0.379841	-1.805974	-0.827171
C48	C	-0.426755	-1.806025	-0.827184
C49	C	-0.446114	-1.881071	-0.752324
O50	O	-0.504460	-1.742327	-0.890806
O51	O	-0.489333	-2.019932	-0.613838
C52	C	-0.704746	-1.956324	-0.677567
C53	C	-0.732299	-1.881344	-0.752440
C54	C	-0.712938	-1.806318	-0.827293
C55	C	-0.779217	-1.881380	-0.752452
C56	C	-0.798578	-1.956407	-0.677599
C57	C	-0.771023	-2.031397	-0.602734
C58	C	-0.724108	-2.031351	-0.602714
C59	C	-0.740494	-1.731328	-0.902158
C60	C	-0.787408	-1.731379	-0.902171
C61	C	-0.806770	-1.806405	-0.827318
C62	C	-0.068437	-1.881450	-0.752469
C63	C	-0.018501	-1.881565	-0.752517
C64	C	-0.193913	-1.906653	-1.083433
C65	C	-0.197447	-1.917509	-1.224517
C66	C	-0.177291	-1.212280	-0.777812
C67	C	-0.173733	-1.353374	-0.788643
C68	C	-0.177325	-1.855875	-0.422577
C69	C	-0.173658	-1.845265	-0.281512
H70	H	-0.220522	-1.351032	-0.645852
H71	H	-0.349209	-2.017051	-0.616461
O72	O	-0.146200	-1.423834	-0.872567
C73	C	-0.124852	-1.342613	-0.937794
H74	H	-0.124323	-1.244069	-0.878644
H75	H	-0.144122	-1.335962	-1.033043
C76	C	-0.076867	-1.517026	-1.032931
C77	C	-0.076214	-1.395995	-0.960276
H78	H	-0.046866	-1.549956	-1.046805
H79	H	-0.091251	-1.571748	-0.988990
H80	H	-0.092927	-1.511467	-1.112296
H81	H	-0.060159	-1.401558	-0.880907
H82	H	-0.061827	-1.341275	-1.004204
H83	H	-0.434317	-2.017159	-0.616504
H84	H	-0.560932	-2.092275	-0.541685
H85	H	-0.646037	-2.092361	-0.541720
O86	O	-1.009690	-2.029663	-0.605017
C87	C	-0.995684	-2.158275	-0.642662
H88	H	-0.962774	-2.164534	-0.691658
H89	H	-1.022625	-2.206026	-0.711254
C90	C	-1.028873	-2.218115	-0.464761
C91	C	-0.988449	-2.225803	-0.524930
H92	H	-1.024411	-2.259773	-0.392141
H93	H	-1.038310	-2.131467	-0.439401
H94	H	-1.051319	-2.257906	-0.521934
H95	H	-0.966005	-2.185999	-0.467762
H96	H	-0.979007	-2.312446	-0.550277
H97	H	-0.150588	-1.775099	-1.222373
H98	H	-0.921595	-2.017577	-0.616653
H99	H	-0.220520	-1.987675	-1.283663
H100	H	-1.021570	-1.745466	-0.888332
H101	H	-0.936462	-1.745406	-0.888324
O102	O	-0.673353	-1.658377	-0.975009
C103	C	-0.646193	-1.592142	-1.041045
H104	H	-0.611533	-1.644457	-1.049446
H105	H	-0.642503	-1.492180	-0.987082
C106	C	-0.710900	-1.519904	-1.164408
C107	C	-0.668331	-1.584163	-1.174736
H108	H	-0.724557	-1.514976	-1.246873
H109	H	-0.729199	-1.564523	-1.119915
H110	H	-0.707819	-1.436609	-1.119433
H111	H	-0.671413	-1.667462	-1.219695
H112	H	-0.650034	-1.539558	-1.219239
H113	H	-0.583979	-1.670124	-0.963099
H114	H	-0.449191	-1.744970	-0.888162
H115	H	-0.364069	-1.744884	-0.888112
O116	O	-0.697392	-2.104123	-0.529800
C117	C	-0.706406	-2.066735	-0.401148
H118	H	-0.741649	-2.017750	-0.394746
H119	H	-0.680597	-1.998200	-0.353308
C120	C	-0.660223	-2.244810	-0.341750
C121	C	-0.703510	-2.184655	-0.333887
H122	H	-0.658435	-2.317547	-0.300258
H123	H	-0.654149	-2.269997	-0.428425
H124	H	-0.638721	-2.187685	-0.301885
H125	H	-0.725011	-2.241775	-0.373766
H126	H	-0.709588	-2.159481	-0.247217
H127	H	-0.786795	-2.092482	-0.541782
H128	H	-0.809839	-1.670305	-0.963145
H129	H	-0.724734	-1.670234	-0.963114
