data_functionalizedCrystal
_audit_creation_method	'MofGen! by Chris Wilmer'
_symmetry_space_group_name_H-M	'P1'
_symmetry_Int_Tables_number	1
_symmetry_cell_setting	triclinic
loop_
_symmetry_equiv_pos_as_xyz
  x,y,z
_cell_length_a	12.759395
_cell_length_b	16.120484
_cell_length_c	12.759387
_cell_angle_alpha	87.136424
_cell_angle_beta	90.020509
_cell_angle_gamma	92.926975
loop_
_atom_site_label
_atom_site_type_symbol
_atom_site_fract_x
_atom_site_fract_y
_atom_site_fract_z
Zn1	Zn	1.584987	-0.331828	0.615167
Zn2	Zn	1.575935	-0.471265	0.448379
Zn3	Zn	1.409282	-0.331874	0.439506
Zn4	Zn	1.400339	-0.471205	0.624015
O5	O	1.492636	-0.401543	0.531767
O6	O	1.730807	-0.350331	0.593052
O7	O	1.553783	-0.452818	0.300184
O8	O	1.440121	-0.215202	0.455392
O9	O	1.724157	-0.452774	0.470514
O10	O	1.569211	-0.215169	0.584449
O11	O	1.431344	-0.350408	0.293665
O12	O	1.261075	-0.350350	0.463971
O13	O	1.424878	-0.452673	0.769859
O14	O	1.254504	-0.452717	0.599529
O15	O	1.560539	-0.350273	0.763359
O16	O	1.545111	-0.587922	0.479094
O17	O	1.416101	-0.587879	0.608132
C18	C	1.219669	-0.401533	0.531748
C19	C	1.102891	-0.401549	0.531766
C20	C	1.478681	-0.618150	0.545559
C21	C	1.472808	-0.710816	0.551495
C22	C	1.096077	-0.508315	0.672716
C23	C	1.037808	-0.561705	0.743194
C24	C	0.928086	-0.561715	0.743207
C25	C	0.876630	-0.508328	0.672737
C26	C	0.934899	-0.454938	0.602259
C27	C	1.044623	-0.454935	0.602251
C28	C	0.941713	-0.348169	0.461316
C29	C	1.051436	-0.348161	0.461296
C30	C	0.890258	-0.294781	0.390846
C31	C	0.948526	-0.241394	0.320361
C32	C	1.058255	-0.241387	0.320350
C33	C	1.109704	-0.294771	0.390818
C34	C	1.462090	-0.880477	0.562353
C35	C	1.523370	-0.921768	0.501198
C36	C	1.517406	-1.016173	0.507239
C37	C	1.468052	-0.786063	0.556313
C38	C	1.766669	-0.401554	0.531786
C39	C	1.883445	-0.401558	0.531794
C40	C	1.492720	-0.401461	0.805795
C41	C	1.492756	-0.401426	0.922570
C42	C	1.506673	-0.184090	0.517944
C43	C	1.512655	-0.091424	0.512053
C44	C	1.492616	-0.401564	0.258801
C45	C	1.492798	-0.401364	0.142012
C46	C	1.634028	-0.294805	0.915821
C47	C	1.704680	-0.241481	0.967306
C48	C	1.704707	-0.241451	1.077026
C49	C	1.634074	-0.294748	1.135263
C50	C	1.563422	-0.348071	1.083777
C51	C	1.563404	-0.348098	0.974055
C52	C	1.422147	-0.454688	1.090526
C53	C	1.422123	-0.454723	0.980807
C54	C	1.351514	-0.507985	1.148763
C55	C	1.280866	-0.561313	1.097278
C56	C	1.280842	-0.561342	0.987551
C57	C	1.351472	-0.508047	0.929321
H58	H	1.079716	-0.605170	0.800571
C59	C	1.781412	-0.183528	0.904261
C60	C	1.843271	-0.136809	0.972835
C61	C	1.913957	-0.083405	0.914800
H62	H	1.825216	-0.215344	0.863483
H63	H	1.743590	-0.147163	0.859165
H64	H	1.881090	-0.173169	1.017912
H65	H	1.799497	-0.104976	1.013614
H66	H	1.876135	-0.047041	0.869703
H67	H	1.957752	-0.115228	0.874023
H68	H	1.955929	-0.051695	0.961317
C69	C	1.599462	-0.874415	0.425460
C70	C	1.702106	-0.895410	0.449751
C71	C	1.772224	-0.851793	0.380013
H72	H	1.583373	-0.888659	0.355713
H73	H	1.593499	-0.816336	0.431437
H74	H	1.708065	-0.953476	0.443764
H75	H	1.718228	-0.881164	0.519485
H76	H	1.766260	-0.793714	0.385991
H77	H	1.756125	-0.866040	0.310271
H78	H	1.841876	-0.866025	0.396491
C79	C	1.386295	-0.927829	0.638378
C80	C	1.410434	-0.906660	0.741026
C81	C	1.340643	-0.950283	0.811085
H82	H	1.316549	-0.913709	0.622188
H83	H	1.392340	-0.985907	0.632472
H84	H	1.404380	-0.848595	0.746928
H85	H	1.480168	-0.920782	0.757249
H86	H	1.346687	-1.008361	0.805179
H87	H	1.270901	-0.936160	0.794885
H88	H	1.357017	-0.935932	0.880740
C89	C	1.634134	-0.294690	0.796687
C90	C	1.711094	-0.236593	0.756705
C91	C	1.711215	-0.236456	0.646962
H92	H	1.648855	-0.348451	0.775156
H93	H	1.567285	-0.280229	0.770893
H94	H	1.777928	-0.251059	0.782488
H95	H	1.696390	-0.182824	0.778206
H96	H	1.644366	-0.221995	0.621169
H97	H	1.725934	-0.290220	0.625442
H98	H	1.763425	-0.197033	0.619820
C99	C	1.781244	-0.183454	1.132980
C100	C	1.725222	-0.129985	1.192548
C101	C	1.795691	-0.076540	1.244096
H102	H	1.824992	-0.215245	1.177894
H103	H	1.823290	-0.151666	1.082617
H104	H	1.683194	-0.161769	1.242905
H105	H	1.681478	-0.098176	1.147659
H106	H	1.837737	-0.044752	1.193733
H107	H	1.839436	-0.108338	1.289004
H108	H	1.757691	-0.040250	1.284511
H109	H	1.634094	-0.294711	1.224602
C110	C	1.204303	-0.619287	0.931520
C111	C	1.260324	-0.672733	0.871916
C112	C	1.189853	-0.726116	0.820277
H113	H	1.162213	-0.651102	0.981800
H114	H	1.160598	-0.587424	0.886622
H115	H	1.304011	-0.704593	0.916810
H116	H	1.302410	-0.640941	0.821618
H117	H	1.146148	-0.694253	0.775380
H118	H	1.147767	-0.757926	0.870565
H119	H	1.227852	-0.762380	0.779823
C120	C	1.351537	-0.508132	1.267899
C121	C	1.373183	-0.587506	1.309242
C122	C	1.373200	-0.587681	1.418987
H123	H	1.403722	-0.468808	1.290363
H124	H	1.284664	-0.493745	1.291837
H125	H	1.440047	-0.601884	1.285314
H126	H	1.321006	-0.626844	1.286808
H127	H	1.306327	-0.573293	1.442925
H128	H	1.425386	-0.548354	1.441440
H129	H	1.387878	-0.641537	1.447052
C130	C	0.771140	-0.294637	0.390957
C131	C	0.739950	-0.215302	0.412912
C132	C	0.630227	-0.215142	0.413033
H133	H	0.745239	-0.308933	0.324073
H134	H	0.743768	-0.334042	0.443049
H135	H	0.767311	-0.175908	0.360823
H136	H	0.765823	-0.200990	0.479796
H137	H	0.602854	-0.254547	0.465125
H138	H	0.604336	-0.229441	0.346147
H139	H	0.609050	-0.161316	0.427938
H140	H	1.223356	-0.604699	1.144702
H141	H	1.185418	-0.508318	0.672704
H142	H	0.880644	-0.605185	0.800602
H143	H	0.906622	-0.197927	0.262995
H144	H	0.787289	-0.508334	0.672763
H145	H	1.351463	-0.508069	0.839981
H146	H	1.199045	-0.294773	0.390812
C147	C	1.121327	-0.183390	0.243708
C148	C	1.052774	-0.136658	0.181985
C149	C	1.110832	-0.083231	0.111359
H150	H	1.166497	-0.147028	0.281535
H151	H	1.162032	-0.215216	0.199824
H152	H	1.012087	-0.104835	0.225863
H153	H	1.007602	-0.172998	0.144135
H154	H	1.151537	-0.115057	0.067475
H155	H	1.156001	-0.046875	0.149195
H156	H	1.064328	-0.051523	0.069466
