data_functionalizedCrystal
_audit_creation_method	'MofGen! by Chris Wilmer'
_symmetry_space_group_name_H-M	'P1'
_symmetry_Int_Tables_number	1
_symmetry_cell_setting	triclinic
loop_
_symmetry_equiv_pos_as_xyz
  x,y,z
_cell_length_a	18.101395
_cell_length_b	18.215407
_cell_length_c	18.215399
_cell_angle_alpha	90.016860
_cell_angle_beta	89.973573
_cell_angle_gamma	89.972763
loop_
_atom_site_label
_atom_site_type_symbol
_atom_site_fract_x
_atom_site_fract_y
_atom_site_fract_z
Zn1	Zn	-0.294914	-1.125040	-0.416065
Zn2	Zn	0.205086	-0.625040	0.083935
Zn3	Zn	-0.418760	-1.124935	-0.293002
Zn4	Zn	0.081240	-0.624935	0.206998
Zn5	Zn	-0.294929	-1.001973	-0.293019
Zn6	Zn	0.205071	-0.501973	0.206981
Zn7	Zn	-0.418709	-1.001925	-0.416034
Zn8	Zn	0.081291	-0.501925	0.083966
O9	O	-0.356828	-1.063468	-0.354530
O10	O	0.143172	-0.563468	0.145470
O11	O	-0.311357	-1.228010	-0.399747
O12	O	0.188643	-0.728010	0.100253
O13	O	-0.402361	-1.108600	-0.190020
O14	O	0.097639	-0.608600	0.309980
O15	O	-0.191294	-1.018362	-0.309362
O16	O	0.308706	-0.518362	0.190638
O17	O	-0.402346	-1.227933	-0.309333
O18	O	0.097654	-0.727933	0.190667
O19	O	-0.191283	-1.108779	-0.399763
O20	O	0.308717	-0.608779	0.100237
O21	O	-0.311382	-1.018260	-0.190032
O22	O	0.188618	-0.518260	0.309968
O23	O	-0.311333	-0.898982	-0.309331
O24	O	0.188667	-0.398982	0.190669
O25	O	-0.402260	-1.018281	-0.519022
O26	O	0.097740	-0.518281	-0.019022
O27	O	-0.402275	-0.898947	-0.399709
O28	O	0.097725	-0.398947	0.100291
O29	O	-0.311308	-1.108733	-0.519045
O30	O	0.188692	-0.608733	-0.019045
O31	O	-0.522386	-1.108554	-0.309302
O32	O	-0.022386	-0.608554	0.190698
O33	O	-0.522349	-1.018179	-0.399693
O34	O	-0.022349	-0.518179	0.100307
C35	C	-0.549239	-1.063370	-0.354508
C36	C	-0.049239	-0.563370	0.145492
C37	C	-0.631553	-1.063395	-0.354524
C38	C	-0.131553	-0.563395	0.145476
C39	C	-0.356801	-0.872262	-0.354519
C40	C	0.143199	-0.372262	0.145481
C41	C	-0.356807	-0.790463	-0.354531
C42	C	0.143193	-0.290463	0.145469
C43	C	-0.356777	-1.063513	-0.546483
C44	C	0.143223	-0.563513	-0.046483
C45	C	-0.356755	-1.063532	-0.628282
C46	C	0.143245	-0.563532	-0.128282
C47	C	-0.930643	-1.063557	-0.354563
C48	C	-0.430643	-0.563557	0.145437
C49	C	-0.899326	-1.006827	-0.411576
C50	C	-0.399326	-0.506827	0.088424
C51	C	-0.813708	-1.006557	-0.411397
C52	C	-0.313708	-0.506557	0.088603
C53	C	-0.782261	-1.063476	-0.354544
C54	C	-0.282261	-0.563476	0.145456
C55	C	-0.813410	-1.042478	-0.276984
C56	C	-0.313410	-0.542478	0.223016
C57	C	-0.899055	-1.042113	-0.277326
C58	C	-0.399055	-0.542113	0.222674
C59	C	-0.898993	-1.141408	-0.374428
C60	C	-0.398993	-0.641408	0.125572
C61	C	-0.813342	-1.140950	-0.376129
C62	C	-0.313342	-0.640950	0.123871
C63	C	-0.698402	-1.063432	-0.354529
C64	C	-0.198402	-0.563432	0.145471
C65	C	-1.014503	-1.063599	-0.354574
C66	C	-0.514503	-0.563599	0.145426
C67	C	-0.163666	-1.063587	-0.354568
C68	C	0.336334	-0.563587	0.145432
C69	C	-0.081352	-1.063638	-0.354584
C70	C	0.418648	-0.563638	0.145416
C71	C	-0.404246	-0.525407	-0.401526
C72	C	0.095754	-0.025407	0.098474
C73	C	-0.404242	-0.602265	-0.401522
C74	C	0.095758	-0.102265	0.098478
C75	C	-0.309403	-0.602271	-0.307548
C76	C	0.190597	-0.102271	0.192452
C77	C	-0.309412	-0.525414	-0.307548
C78	C	0.190588	-0.025414	0.192452
C79	C	-0.356832	-0.486984	-0.354541
C80	C	0.143168	0.013016	0.145459
C81	C	-0.356819	-0.640700	-0.354537
C82	C	0.143181	-0.140700	0.145463
C83	C	-0.356814	-0.724033	-0.354533
C84	C	0.143186	-0.224033	0.145467
C85	C	-0.356839	-0.403645	-0.354545
C86	C	0.143161	0.096355	0.145455
C87	C	-0.356850	-0.255421	-0.354542
C88	C	0.143150	0.244579	0.145458
C89	C	-0.356844	-0.337220	-0.354547
C90	C	0.143156	0.162780	0.145453
C91	C	-0.309352	-1.110648	-0.816489
C92	C	0.190648	-0.610648	-0.316489
C93	C	-0.309330	-1.110656	-0.893348
C94	C	0.190670	-0.610656	-0.393348
C95	C	-0.404044	-1.016469	-0.893313
C96	C	0.095956	-0.516469	-0.393313
C97	C	-0.404061	-1.016457	-0.816455
C98	C	0.095939	-0.516457	-0.316455
C99	C	-0.356716	-1.063550	-0.778045
C100	C	0.143284	-0.563550	-0.278045
C101	C	-0.356677	-1.063571	-0.931762
C102	C	0.143323	-0.563571	-0.431762
C103	C	-0.356654	-1.063580	-1.015095
C104	C	0.143346	-0.563580	-0.515095
C105	C	-0.356738	-1.063541	-0.694706
C106	C	0.143262	-0.563541	-0.194706
C107	C	-0.356825	-1.063466	-0.163324
C108	C	0.143175	-0.563466	0.336676
C109	C	-0.356638	-1.063589	-0.081525
C110	C	0.143362	-0.563589	0.418475
H111	H	-0.919875	-1.019834	-0.469272
H112	H	-0.419875	-0.519834	0.030728
H113	H	-0.270794	-0.633570	-0.269289
H114	H	0.229206	-0.133570	0.230711
O115	O	-0.263280	-0.488199	-0.261882
O116	O	0.236720	0.011801	0.238118
C117	C	-0.169245	-0.496308	-0.168640
C118	C	0.330755	0.003692	0.331360
C119	C	-0.221431	-0.538546	-0.220330
C120	C	0.278569	-0.038546	0.279670
H121	H	-0.135407	-0.536996	-0.135021
H122	H	0.364593	-0.036996	0.364979
H123	H	-0.130519	-0.460368	-0.202457
H124	H	0.369481	0.039632	0.297543
H125	H	-0.203217	-0.460283	-0.130136
H126	H	0.296783	0.039717	0.369864
H127	H	-0.187518	-0.574611	-0.258845
H128	H	0.312482	-0.074611	0.241155
H129	H	-0.260159	-0.574439	-0.186468
H130	H	0.239841	-0.074439	0.313532
O131	O	-0.450206	-0.488040	-0.447246
O132	O	0.049794	0.011960	0.052754
C133	C	-0.460303	-0.401258	-0.546560
C134	C	0.039697	0.098742	-0.046560
C135	C	-0.408167	-0.443541	-0.494840
C136	C	0.091833	0.056459	0.005160
H137	H	-0.426337	-0.365259	-0.585041
H138	H	0.073663	0.134741	-0.085041
H139	H	-0.494180	-0.441891	-0.580194
H140	H	0.005820	0.058109	-0.080194
H141	H	-0.499002	-0.365283	-0.512691
H142	H	0.000998	0.134717	-0.012691
H143	H	-0.369424	-0.479517	-0.528652
H144	H	0.130576	0.020483	-0.028652
H145	H	-0.374343	-0.402869	-0.461203
H146	H	0.125657	0.097131	0.038797
H147	H	-0.792021	-0.986172	-0.259855
H148	H	-0.292021	-0.486172	0.240145
H149	H	-0.442630	-0.978100	-0.785153
H150	H	0.057370	-0.478100	-0.285153
H151	H	-0.792981	-1.156785	-0.433209
H152	H	-0.292981	-0.656785	0.066791
H153	H	-0.442852	-0.633546	-0.439781
H154	H	0.057148	-0.133546	0.060219
H155	H	-0.919245	-1.183674	-0.332904
H156	H	-0.419245	-0.683674	0.167096
H157	H	-0.792645	-1.019695	-0.468908
H158	H	-0.292645	-0.519695	0.031092
O159	O	-0.263289	-1.156411	-0.779291
O160	O	0.236711	-0.656411	-0.279291
C161	C	-0.169371	-1.249859	-0.787442
C162	C	0.330629	-0.749859	-0.287442
C163	C	-0.221491	-1.198059	-0.829657
C164	C	0.278509	-0.698059	-0.329657
H165	H	-0.135575	-1.283556	-0.828145
H166	H	0.364425	-0.783556	-0.328145
H167	H	-0.130603	-1.216123	-0.751484
H168	H	0.369397	-0.716123	-0.251484
H169	H	-0.203393	-1.288285	-0.751437
H170	H	0.296607	-0.788285	-0.251437
H171	H	-0.187528	-1.159622	-0.865702
H172	H	0.312472	-0.659622	-0.365702
H173	H	-0.260260	-1.231840	-0.865569
H174	H	0.239740	-0.731840	-0.365569
H175	H	-0.920908	-0.949472	-0.398583
H176	H	-0.420908	-0.449472	0.101417
O177	O	-0.263240	-1.156301	-0.930723
O178	O	0.236760	-0.656301	-0.430723
C179	C	-0.163256	-1.166272	-1.017544
C180	C	0.336744	-0.666272	-0.517544
C181	C	-0.215401	-1.114495	-0.975252
C182	C	0.284599	-0.614495	-0.475252
H183	H	-0.124575	-1.132494	-1.053568
H184	H	0.375425	-0.632494	-0.553568
H185	H	-0.129369	-1.199911	-0.976918
H186	H	0.370631	-0.699911	-0.476918
H187	H	-0.197263	-1.204754	-1.053496
H188	H	0.302737	-0.704754	-0.553496
H189	H	-0.181451	-1.075969	-0.939300
H190	H	0.318549	-0.575969	-0.439300
H191	H	-0.249291	-1.080909	-1.015919
H192	H	0.250709	-0.580909	-0.515919
H193	H	-0.442592	-0.978129	-0.924595
H194	H	0.057408	-0.478129	-0.424595
H195	H	-0.793281	-0.948852	-0.398239
H196	H	-0.293281	-0.448852	0.101761
H197	H	-0.919774	-1.081640	-0.233399
H198	H	-0.419774	-0.581640	0.266601
O199	O	-0.923093	-0.974270	-0.257240
O200	O	-0.423093	-0.474270	0.242760
C201	C	-1.028092	-0.896097	-0.234598
C202	C	-0.528092	-0.396097	0.265402
C203	C	-1.000976	-0.972968	-0.257335
C204	C	-0.500976	-0.472968	0.242665
H205	H	-1.091063	-0.895014	-0.234682
H206	H	-0.591063	-0.395014	0.265318
H207	H	-1.006968	-0.882711	-0.177184
H208	H	-0.506968	-0.382711	0.322816
H209	H	-1.006311	-0.853635	-0.275149
H210	H	-0.506311	-0.353635	0.224851
H211	H	-1.022746	-1.015479	-0.216834
H212	H	-0.522746	-0.515479	0.283166
H213	H	-1.022092	-0.986291	-0.314765
H214	H	-0.522092	-0.486291	0.185235
O215	O	-0.789248	-1.090293	-0.224930
O216	O	-0.289248	-0.590293	0.275070
C217	C	-0.822876	-1.179062	-0.132742
C218	C	-0.322876	-0.679062	0.367258
C219	C	-0.850332	-1.124936	-0.191671
C220	C	-0.350332	-0.624936	0.308329
H221	H	-0.872248	-1.207074	-0.105825
H222	H	-0.372248	-0.707074	0.394175
H223	H	-0.785957	-1.222239	-0.159386
H224	H	-0.285957	-0.722239	0.340614
H225	H	-0.790090	-1.147900	-0.089350
H226	H	-0.290090	-0.647900	0.410650
H227	H	-0.883149	-1.156036	-0.235081
H228	H	-0.383149	-0.656036	0.264919
H229	H	-0.887212	-1.081760	-0.164975
H230	H	-0.387212	-0.581760	0.335025
O231	O	-0.924570	-1.164289	-0.440785
O232	O	-0.424570	-0.664289	0.059215
C233	C	-0.893617	-1.201763	-0.563899
C234	C	-0.393617	-0.701763	-0.063899
C235	C	-0.864550	-1.175883	-0.488779
C236	C	-0.364550	-0.675883	0.011221
H237	H	-0.845107	-1.211130	-0.602727
H238	H	-0.345107	-0.711130	-0.102727
H239	H	-0.925553	-1.255221	-0.556793
H240	H	-0.425553	-0.755221	-0.056793
H241	H	-0.931724	-1.158041	-0.587804
H242	H	-0.431724	-0.658041	-0.087804
H243	H	-0.826414	-1.219553	-0.464832
H244	H	-0.326414	-0.719553	0.035168
H245	H	-0.832656	-1.122407	-0.495931
H246	H	-0.332656	-0.622407	0.004069
O247	O	-0.787851	-1.194140	-0.330286
O248	O	-0.287851	-0.694140	0.169714
C249	C	-0.788201	-1.322801	-0.299563
C250	C	-0.288201	-0.822801	0.200437
C251	C	-0.817106	-1.262643	-0.351554
C252	C	-0.317106	-0.762643	0.148446
H253	H	-0.811854	-1.378197	-0.316730
H254	H	-0.311854	-0.878197	0.183270
H255	H	-0.725321	-1.324873	-0.302482
H256	H	-0.225321	-0.824873	0.197518
H257	H	-0.806070	-1.309855	-0.240949
H258	H	-0.306070	-0.809855	0.259051
H259	H	-0.799291	-1.275546	-0.410191
H260	H	-0.299291	-0.775546	0.089809
H261	H	-0.879983	-1.260585	-0.348572
H262	H	-0.379983	-0.760585	0.151428
