data_functionalizedCrystal
_audit_creation_method	'MofGen! by Chris Wilmer'
_symmetry_space_group_name_H-M	'P1'
_symmetry_Int_Tables_number	1
_symmetry_cell_setting	triclinic
loop_
_symmetry_equiv_pos_as_xyz
  x,y,z
_cell_length_a	8.597340
_cell_length_b	6.394989
_cell_length_c	7.681481
_cell_angle_alpha	95.906187
_cell_angle_beta	103.474906
_cell_angle_gamma	94.092678
loop_
_atom_site_label
_atom_site_type_symbol
_atom_site_fract_x
_atom_site_fract_y
_atom_site_fract_z
O1	O	2.105650	-0.288858	0.173048
O2	O	1.642258	-0.322139	0.102741
O3	O	1.880531	-0.001434	0.138891
O4	O	1.867377	-0.609563	0.136898
O5	O	1.909857	0.038128	0.436198
O6	O	1.671584	-0.282577	0.400048
O7	O	2.134976	-0.249296	0.470355
Zn8	Zn	1.907936	-0.259655	0.482405
Zn9	Zn	1.869298	-0.311780	0.090691
O10	O	1.896702	-0.570001	0.434205
C11	C	1.597510	-0.300988	0.242380
C12	C	1.420483	-0.296880	0.215521
C13	C	2.179724	-0.270448	0.330712
C14	C	2.356749	-0.274557	0.357560
C15	C	1.892593	0.096167	0.287143
C16	C	1.884643	0.332402	0.285936
N17	N	1.934317	-0.224079	0.749742
N18	N	1.842929	-0.347339	-0.176644
H19	H	1.339608	-0.312851	0.073351
F20	F	1.720992	-0.511788	0.706569
H21	H	1.437617	-0.258572	0.499720
F22	F	2.056276	-0.059642	0.866539
