data_functionalizedCrystal
_audit_creation_method	'MofGen! by Chris Wilmer'
_symmetry_space_group_name_H-M	'P1'
_symmetry_Int_Tables_number	1
_symmetry_cell_setting	triclinic
loop_
_symmetry_equiv_pos_as_xyz
  x,y,z
_cell_length_a	10.685980
_cell_length_b	16.959453
_cell_length_c	10.686551
_cell_angle_alpha	85.591100
_cell_angle_beta	81.591741
_cell_angle_gamma	94.386467
loop_
_atom_site_label
_atom_site_type_symbol
_atom_site_fract_x
_atom_site_fract_y
_atom_site_fract_z
Zn1	Zn	1.995762	-0.177169	-0.866685
Zn2	Zn	1.979318	-0.320365	-0.654406
Zn3	Zn	1.767185	-0.199169	-0.638147
Zn4	Zn	1.783441	-0.320288	-0.850316
O5	O	1.881427	-0.254248	-0.752389
O6	O	2.171215	-0.186989	-0.852180
O7	O	1.937493	-0.313527	-0.474616
O8	O	1.797585	-0.085633	-0.668509
O9	O	2.159134	-0.292195	-0.696220
O10	O	1.965519	-0.069470	-0.836415
O11	O	1.781640	-0.224485	-0.462671
O12	O	1.591707	-0.224410	-0.652637
O13	O	1.825291	-0.292064	-1.030121
O14	O	1.603650	-0.313396	-0.808517
O15	O	1.981282	-0.186915	-1.042147
O16	O	1.953256	-0.430971	-0.680348
O17	O	1.809346	-0.430915	-0.824283
C18	C	1.551620	-0.271283	-0.727037
C19	C	1.410529	-0.278588	-0.716222
C20	C	1.881317	-0.459622	-0.752334
C21	C	1.881390	-0.547473	-0.752362
C22	C	1.968986	-0.910458	-0.839978
C23	C	1.794237	-0.927406	-0.665015
C24	C	1.794187	-0.844864	-0.664982
C25	C	1.881537	-0.795115	-0.752450
C26	C	1.968936	-0.827908	-0.839951
C27	C	1.706781	-0.812065	-0.577491
C28	C	1.706728	-0.729518	-0.577456
C29	C	1.794085	-0.679767	-0.664919
C30	C	1.881488	-0.712565	-0.752422
C31	C	1.968838	-0.662816	-0.839890
C32	C	2.056249	-0.695613	-0.927389
C33	C	2.056293	-0.778158	-0.927414
C34	C	1.794040	-0.597222	-0.664894
C35	C	1.968789	-0.580267	-0.839863
C36	C	2.212521	-0.237146	-0.777840
C37	C	2.353614	-0.229859	-0.788686
C38	C	1.906934	-0.237027	-1.083480
C39	C	1.917804	-0.229688	-1.224571
C40	C	1.881573	-0.048068	-0.752474
C41	C	1.881636	0.039793	-0.752510
C42	C	1.856091	-0.271341	-0.422591
C43	C	1.845467	-0.278444	-0.281519
H44	H	1.351312	-0.325899	-0.645898
F45	F	2.061767	-0.527326	-0.932955
F46	F	1.431004	-0.168017	-0.880591
H47	H	1.775225	-0.325802	-1.222336
H48	H	2.127364	-0.655097	-0.998612
F49	F	2.149310	-0.813068	-1.020531
F50	F	2.062013	-0.945362	-0.933092
H51	H	1.723115	-0.967916	-0.593807
F52	F	1.613805	-0.865014	-0.484427
F53	F	2.009636	-0.167790	-1.301932
H54	H	1.635555	-0.702821	-0.506209
H55	H	1.722866	-0.570523	-0.593659
