data_functionalizedCrystal
_audit_creation_method	'MofGen! by Chris Wilmer'
_symmetry_space_group_name_H-M	'P1'
_symmetry_Int_Tables_number	1
_symmetry_cell_setting	triclinic
loop_
_symmetry_equiv_pos_as_xyz
  x,y,z
_cell_length_a	13.897449
_cell_length_b	21.295417
_cell_length_c	21.295420
_cell_angle_alpha	90.017905
_cell_angle_beta	90.005229
_cell_angle_gamma	90.030982
loop_
_atom_site_label
_atom_site_type_symbol
_atom_site_fract_x
_atom_site_fract_y
_atom_site_fract_z
Zn1	Zn	1.474474	-0.250676	0.355896
Zn2	Zn	1.474378	-0.355923	0.250623
Zn3	Zn	1.313207	-0.250674	0.250643
Zn4	Zn	1.313112	-0.355914	0.355857
O5	O	1.393793	-0.303297	0.303255
O6	O	1.609443	-0.264642	0.341939
O7	O	1.452998	-0.341965	0.162537
O8	O	1.334680	-0.162585	0.264630
O9	O	1.609373	-0.341967	0.264596
O10	O	1.453162	-0.162587	0.341959
O11	O	1.334587	-0.264639	0.162551
O12	O	1.178213	-0.264630	0.264592
O13	O	1.334517	-0.341951	0.443952
O14	O	1.178143	-0.341949	0.341892
O15	O	1.453069	-0.264633	0.443980
O16	O	1.452906	-0.444011	0.264558
O17	O	1.334424	-0.444004	0.341873
C18	C	1.143179	-0.303288	0.303241
C19	C	1.035965	-0.303300	0.303249
C20	C	0.839670	-0.303302	0.303266
C21	C	0.948902	-0.303299	0.303255
C22	C	1.393670	-0.466848	0.303223
C23	C	1.393706	-0.536817	0.303231
C24	C	1.455364	-0.569627	0.343524
C25	C	1.455398	-0.635369	0.343540
C26	C	1.393784	-0.668299	0.303250
C27	C	1.332113	-0.635481	0.262954
C28	C	1.332074	-0.569740	0.262944
N29	N	1.386518	-0.771549	0.248159
N30	N	1.386560	-0.834000	0.248171
C31	C	1.393896	-0.866374	0.303279
N32	N	1.401207	-0.833936	0.358377
N33	N	1.401169	-0.771479	0.358365
C34	C	1.393819	-0.739584	0.303257
C35	C	1.455595	-0.970470	0.343593
C36	C	1.455622	-1.036213	0.343610
C37	C	1.332343	-1.036323	0.263018
C38	C	1.332310	-0.970581	0.263007
C39	C	1.393942	-0.937658	0.303293
C40	C	1.645386	-0.303306	0.303270
C41	C	1.752600	-0.303309	0.303276
C42	C	1.393793	-0.303291	0.467445
C43	C	1.393793	-0.303289	0.537413
C44	C	1.393943	-0.139107	0.303301
C45	C	1.394006	-0.069138	0.303320
C46	C	1.455481	-0.263037	1.036887
C47	C	1.455491	-0.263038	0.971145
C48	C	1.393769	-0.303291	0.938253
C49	C	1.332050	-0.343558	0.971109
C50	C	1.332049	-0.343560	1.036850
N51	N	1.309333	-0.308114	0.835025
N52	N	1.309338	-0.308109	0.772574
C53	C	1.393772	-0.303288	0.740178
N54	N	1.478204	-0.298462	0.772593
N55	N	1.478198	-0.298464	0.835050
C56	C	1.393765	-0.303294	0.866967
C57	C	1.455503	-0.263029	0.636044
C58	C	1.455515	-0.263034	0.570301
C59	C	1.332065	-0.343551	0.570266
C60	C	1.332062	-0.343549	0.636009
C61	C	1.393779	-0.303284	0.668894
C62	C	1.393781	-0.303311	1.139703
C63	C	1.393766	-0.303296	1.069735
H64	H	1.505545	-0.542823	0.376330
H65	H	1.505756	-0.230242	0.662821
H66	H	1.505776	-0.943663	0.376399
O67	O	1.515420	-0.223972	0.538293
C68	C	1.570050	-0.188231	0.437031
C69	C	1.502187	-0.232519	0.473202
H70	H	1.559360	-0.195116	0.384399
H71	H	1.647850	-0.199265	0.449905
H72	H	1.553130	-0.137486	0.450017
H73	H	1.519019	-0.283279	0.460235
H74	H	1.424406	-0.221431	0.460325
O75	O	1.272204	-0.382753	0.939186
C76	C	1.225280	-0.489832	0.919052
C77	C	1.293123	-0.445510	0.955234
H78	H	1.242155	-0.540579	0.932024
H79	H	1.235891	-0.482967	0.866415
H80	H	1.147512	-0.478753	0.931965
H81	H	1.370917	-0.456561	0.942374
H82	H	1.282428	-0.452382	1.007862
O83	O	1.272232	-0.382737	1.068788
C84	C	1.259186	-0.467704	1.143010
C85	C	1.327038	-0.423385	1.106868
H86	H	1.303469	-0.500570	1.173816
H87	H	1.215094	-0.496524	1.108238
H88	H	1.208749	-0.438793	1.173766
H89	H	1.377534	-0.452247	1.076111
H90	H	1.371063	-0.394563	1.141674
H91	H	1.505832	-1.062926	0.376424
H92	H	1.281813	-0.376329	0.543486
O93	O	1.272150	-0.382741	0.667849
C94	C	1.225275	-0.489823	0.687944
C95	C	1.293171	-0.445503	0.651838
H96	H	1.242260	-0.540575	0.675023
H97	H	1.147491	-0.478819	0.675002
H98	H	1.235854	-0.482881	0.740578
H99	H	1.282677	-0.452420	0.599196
H100	H	1.370930	-0.456517	0.664832
O101	O	1.515377	-0.667153	0.382709
C102	C	1.637593	-0.660111	0.462679
C103	C	1.569740	-0.624040	0.418338
H104	H	1.681548	-0.625270	0.491506
H105	H	1.688148	-0.690859	0.433848
H106	H	1.593256	-0.690913	0.495543
H107	H	1.613998	-0.593204	0.385465
H108	H	1.519181	-0.593331	0.447208
O109	O	1.515530	-0.223910	1.068733
C110	C	1.637932	-0.144022	1.061826
C111	C	1.569989	-0.188309	1.025681
H112	H	1.681965	-0.115219	1.027035
H113	H	1.688410	-0.172895	1.092579
H114	H	1.593660	-0.111135	1.092632
H115	H	1.614183	-0.221206	0.994841
H116	H	1.519508	-0.159398	0.994968
H117	H	1.505746	-0.230252	0.944394
H118	H	1.281945	-0.662296	0.230151
H119	H	1.282169	-1.063134	0.230217
O120	O	1.272046	-0.537934	0.223829
C121	C	1.107993	-0.517897	0.193199
C122	C	1.175864	-0.553969	0.237527
H123	H	1.030215	-0.530838	0.204266
H124	H	1.124921	-0.530850	0.142442
H125	H	1.118603	-0.465258	0.200100
H126	H	1.165292	-0.606616	0.230681
H127	H	1.158920	-0.540963	0.288267
H128	H	1.282106	-0.943865	0.230193
