data_functionalizedCrystal
_audit_creation_method	'MofGen! by Chris Wilmer'
_symmetry_space_group_name_H-M	'P1'
_symmetry_Int_Tables_number	1
_symmetry_cell_setting	triclinic
loop_
_symmetry_equiv_pos_as_xyz
  x,y,z
_cell_length_a	14.971486
_cell_length_b	14.472310
_cell_length_c	14.971486
_cell_angle_alpha	90.001268
_cell_angle_beta	83.614129
_cell_angle_gamma	90.008074
loop_
_atom_site_label
_atom_site_type_symbol
_atom_site_fract_x
_atom_site_fract_y
_atom_site_fract_z
O1	O	1.186956	0.076735	0.116557
O2	O	1.686956	0.576735	0.616557
O3	O	0.926556	0.076760	0.130515
O4	O	1.426556	0.576760	0.630515
O5	O	1.063736	0.076740	-0.006664
O6	O	1.563736	0.576740	0.493336
O7	O	1.049777	0.076755	0.253736
O8	O	1.549777	0.576755	0.753736
O9	O	1.063700	-0.076942	-0.006656
O10	O	1.563700	0.423058	0.493344
O11	O	0.926521	-0.076922	0.130523
O12	O	1.426521	0.423078	0.630523
O13	O	1.186921	-0.076947	0.116565
O14	O	1.686921	0.423053	0.616565
Cu15	Cu	1.056718	-0.090967	0.123545
Cu16	Cu	1.556718	0.409033	0.623545
Cu17	Cu	1.056760	0.090780	0.123535
Cu18	Cu	1.556760	0.590780	0.623535
O19	O	1.049742	-0.076927	0.253744
O20	O	1.549742	0.423073	0.753744
C21	C	0.893214	-0.000077	0.129895
C22	C	1.393214	0.499923	0.629895
C23	C	0.793917	-0.000068	0.128024
C24	C	1.293917	0.499932	0.628024
N25	N	1.056695	-0.218798	0.123551
N26	N	1.556695	0.281202	0.623551
C27	C	0.736691	-0.000065	0.208614
C28	C	1.236691	0.499935	0.708614
C29	C	0.643392	-0.000079	0.206850
C30	C	1.143392	0.499921	0.706850
C31	C	0.607320	-0.000089	0.124497
C32	C	1.107320	0.499911	0.624497
C33	C	0.664552	-0.000095	0.043902
C34	C	1.164552	0.499905	0.543902
C35	C	0.757850	-0.000088	0.045666
C36	C	1.257850	0.499912	0.545666
C37	C	0.470090	-0.000108	0.040231
C38	C	0.970090	0.499892	0.540231
C39	C	0.376786	-0.000114	0.038466
C40	C	0.876786	0.499886	0.538466
C41	C	0.355632	-0.000099	0.201415
C42	C	0.855632	0.499901	0.701415
C43	C	0.448930	-0.000092	0.203179
C44	C	0.948930	0.499908	0.703179
C45	C	0.506156	-0.000096	0.122584
C46	C	1.006156	0.499904	0.622584
C47	C	1.056758	-0.592889	0.123532
C48	C	1.556758	-0.092889	0.623532
C49	C	0.983110	-0.553712	0.196687
C50	C	1.483110	-0.053712	0.696687
C51	C	0.983280	-0.446624	0.196954
C52	C	1.483280	0.053376	0.696954
C53	C	1.056726	-0.407298	0.123541
C54	C	1.556726	0.092702	0.623541
C55	C	1.150076	-0.446143	0.144025
C56	C	1.650076	0.053857	0.644025
C57	C	1.149662	-0.553264	0.144545
C58	C	1.649662	-0.053264	0.644545
C59	C	1.037890	-0.553421	0.029676
C60	C	1.537890	-0.053421	0.529676
C61	C	1.035750	-0.446293	0.030299
C62	C	1.535750	0.053707	0.530299
C63	C	1.056714	-0.302410	0.123545
C64	C	1.556714	0.197590	0.623545
C65	C	1.056777	-0.697777	0.123530
C66	C	1.556777	-0.197777	0.623530
C67	C	1.220263	-0.000107	0.117185
C68	C	1.720263	0.499893	0.617185
C69	C	1.319561	-0.000110	0.119056
C70	C	1.819561	0.499890	0.619056
C71	C	1.063094	-0.000100	-0.039985
C72	C	1.563094	0.499900	0.460015
C73	C	1.061223	-0.000099	-0.139282
C74	C	1.561223	0.499901	0.360718
N75	N	1.056790	0.218611	0.123522
N76	N	1.556790	0.718611	0.623522
C77	C	1.141812	-0.000108	-0.196507
C78	C	1.641812	0.499892	0.303493
C79	C	1.140049	-0.000098	-0.289807
C80	C	1.640049	0.499902	0.210193
C81	C	1.057696	-0.000087	-0.325879
C82	C	1.557696	0.499913	0.174121
C83	C	0.977101	-0.000076	-0.268646
C84	C	1.477101	0.499924	0.231354
C85	C	0.978865	-0.000078	-0.175349
C86	C	1.478865	0.499922	0.324651
C87	C	0.973430	-0.000072	-0.463109
C88	C	1.473430	0.499928	0.036891
C89	C	0.971665	-0.000071	-0.556413
C90	C	1.471665	0.499929	-0.056413
C91	C	1.134614	-0.000092	-0.577567
C92	C	1.634614	0.499908	-0.077567
C93	C	1.136378	-0.000094	-0.484269
C94	C	1.636378	0.499906	0.015731
C95	C	1.055782	-0.000085	-0.427043
C96	C	1.555782	0.499915	0.072957
C97	C	1.050383	-0.000084	0.287065
C98	C	1.550383	0.499916	0.787065
C99	C	1.052254	-0.000079	0.386362
C100	C	1.552254	0.499921	0.886362
H101	H	0.766054	-0.000056	0.275675
H102	H	1.266054	0.499944	0.775675
Cl103	Cl	1.241366	-0.000112	-0.361744
Cl104	Cl	1.741366	0.499888	0.138256
H105	H	0.347419	-0.000123	-0.028593
H106	H	0.847419	0.499877	0.471407
H107	H	0.913500	-0.579494	0.184667
H108	H	1.413500	-0.079494	0.684667
Cl109	Cl	1.236743	-0.593278	0.065331
Cl110	Cl	1.736743	-0.093278	0.565331
H111	H	0.309033	-0.000100	0.267039
H112	H	0.809033	0.499900	0.767039
Cl113	Cl	1.001482	-0.595233	0.303616
Cl114	Cl	1.501482	-0.095233	0.803616
Cl115	Cl	0.619204	-0.000114	-0.059629
Cl116	Cl	1.119204	0.499886	0.440371
Cl117	Cl	1.001864	-0.407036	0.304493
Cl118	Cl	1.501864	0.092964	0.804493
H119	H	0.804443	-0.000090	-0.019958
H120	H	1.304443	0.499910	0.480042
H121	H	1.208874	-0.000123	-0.167145
H122	H	1.708874	0.499877	0.332855
H123	H	1.166274	-0.578238	0.212997
H124	H	1.666274	-0.078238	0.712997
Cl125	Cl	0.542030	-0.000115	-0.061092
Cl126	Cl	1.042030	0.499885	0.438908
H127	H	0.913895	-0.420362	0.184735
H128	H	1.413895	0.079638	0.684735
H129	H	0.907800	-0.000062	-0.416517
H130	H	1.407800	0.499938	0.083483
Cl131	Cl	1.236722	-0.406816	0.063956
Cl132	Cl	1.736722	0.093184	0.563956
Cl133	Cl	1.176337	-0.404709	0.248505
Cl134	Cl	1.676337	0.095291	0.748505
H135	H	1.085900	-0.419527	-0.026698
H136	H	1.585900	0.080473	0.473302
Cl137	Cl	1.239909	-0.000104	-0.438922
Cl138	Cl	1.739909	0.499896	0.061078
H139	H	0.971292	-0.580483	0.010004
H140	H	1.471292	-0.080483	0.510004
H141	H	0.967080	-0.420905	0.014756
H142	H	1.467080	0.079095	0.514756
Cl143	Cl	1.120807	-0.592535	-0.054377
Cl144	Cl	1.620807	-0.092535	0.445623
Cl145	Cl	0.873570	-0.000050	-0.313995
Cl146	Cl	1.373570	0.499950	0.186005
H147	H	1.200238	-0.000096	-0.624165
H148	H	1.700238	0.499904	-0.124165
Cl149	Cl	0.877548	-0.000064	-0.103407
Cl150	Cl	1.377548	0.499936	0.396593
Cl151	Cl	0.868134	-0.000057	-0.601760
Cl152	Cl	1.368134	0.499943	-0.101760
H153	H	0.478296	-0.000074	0.270239
H154	H	0.978296	0.499926	0.770239
Cl155	Cl	0.571455	-0.000069	0.308168
Cl156	Cl	1.071455	0.499931	0.808168
