data_functionalizedCrystal
_audit_creation_method	'MofGen! by Chris Wilmer'
_symmetry_space_group_name_H-M	'P1'
_symmetry_Int_Tables_number	1
_symmetry_cell_setting	triclinic
loop_
_symmetry_equiv_pos_as_xyz
  x,y,z
_cell_length_a	17.019292
_cell_length_b	17.038272
_cell_length_c	22.610064
_cell_angle_alpha	89.985903
_cell_angle_beta	93.879878
_cell_angle_gamma	87.242323
loop_
_atom_site_label
_atom_site_type_symbol
_atom_site_fract_x
_atom_site_fract_y
_atom_site_fract_z
O1	O	-1.053360	-0.099562	-0.004489
O2	O	-0.553360	0.400438	0.495511
O3	O	-0.824548	-0.112274	0.007172
O4	O	-0.324548	0.387726	0.507172
O5	O	-0.937594	0.007896	0.001406
O6	O	-0.437594	0.507896	0.501406
O7	O	-0.940314	-0.219732	0.001277
O8	O	-0.440314	0.280268	0.501277
O9	O	-0.937591	0.007921	-0.096963
O10	O	-0.437591	0.507921	0.403037
O11	O	-0.824544	-0.112249	-0.091197
O12	O	-0.324544	0.387751	0.408803
O13	O	-1.053357	-0.099537	-0.102858
O14	O	-0.553357	0.400463	0.397142
Zn15	Zn	-0.938950	-0.105889	-0.112646
Zn16	Zn	-0.438950	0.394111	0.387354
Zn17	Zn	-0.938955	-0.105922	0.016960
Zn18	Zn	-0.438955	0.394078	0.516960
O19	O	-0.940311	-0.219707	-0.097092
O20	O	-0.440311	0.280293	0.402908
C21	C	-0.795125	-0.111781	-0.040513
C22	C	-0.295125	0.388219	0.459487
C23	C	-0.707457	-0.110341	-0.036046
C24	C	-0.207457	0.389659	0.463954
C25	C	-0.666274	-0.109649	-0.087570
C26	C	-0.166274	0.390351	0.412430
C27	C	-0.583902	-0.108283	-0.083374
C28	C	-0.083902	0.391717	0.416626
C29	C	-0.542715	-0.107615	-0.027654
C30	C	-0.042715	0.392385	0.472346
C31	C	-0.583904	-0.108305	0.023874
C32	C	-0.083904	0.391695	0.523874
C33	C	-0.666275	-0.109665	0.019677
C34	C	-0.166275	0.390335	0.519677
C35	C	-0.294009	-0.103504	-0.012300
C36	C	0.205991	0.396496	0.487700
C37	C	-0.211632	-0.102146	-0.008108
C38	C	0.288368	0.397854	0.491892
C39	C	-0.211636	-0.102123	-0.115355
C40	C	0.288364	0.397877	0.384645
C41	C	-0.294008	-0.103487	-0.119547
C42	C	0.205992	0.396513	0.380453
C43	C	-0.335190	-0.104173	-0.068020
C44	C	0.164810	0.395827	0.431980
C45	C	-0.458517	-0.106221	-0.023363
C46	C	0.041483	0.393779	0.476637
C47	C	-0.419387	-0.105561	-0.072311
C48	C	0.080613	0.394439	0.427689
C49	C	-0.082781	-0.100026	-0.055170
C50	C	0.417219	0.399974	0.444830
C51	C	-0.170449	-0.101454	-0.059631
C52	C	0.329551	0.398546	0.440369
C53	C	-0.935119	0.037035	-0.047652
C54	C	-0.435119	0.537035	0.452348
C55	C	-0.927738	0.123821	-0.047276
C56	C	-0.427738	0.623821	0.452724
C57	C	-0.942786	-0.248845	-0.048032
C58	C	-0.442786	0.251155	0.451968
C59	C	-0.950166	-0.335632	-0.048405
C60	C	-0.450166	0.164368	0.451595
C61	C	-0.995499	0.173997	-0.050730
C62	C	-0.495499	0.673997	0.449270
C63	C	-0.988559	0.255541	-0.050370
C64	C	-0.488559	0.755541	0.449630
C65	C	-0.913859	0.286908	-0.046562
C66	C	-0.413859	0.786908	0.453438
C67	C	-0.846094	0.236726	-0.043106
C68	C	-0.346094	0.736726	0.456894
C69	C	-0.853034	0.155183	-0.043461
C70	C	-0.353034	0.655183	0.456539
C71	C	-0.889341	0.532644	-0.045304
C72	C	-0.389341	1.032644	0.454696
C73	C	-0.882406	0.614193	-0.044951
C74	C	-0.382406	1.114193	0.455049
C75	C	-1.024872	0.633002	-0.052214
C76	C	-0.524872	1.133002	0.447786
C77	C	-1.031806	0.551457	-0.052573
C78	C	-0.531806	1.051457	0.447427
C79	C	-0.964041	0.501282	-0.049114
C80	C	-0.464041	1.001282	0.450886
C81	C	-0.906764	0.370259	-0.046196
C82	C	-0.406764	0.870259	0.453804
C83	C	-0.971136	0.417933	-0.049475
C84	C	-0.471136	0.917933	0.450525
N85	N	-0.938957	-0.105938	0.105412
N86	N	-0.438957	0.394062	0.605412
N87	N	-0.938953	-0.105866	-0.201098
N88	N	-0.438953	0.394134	0.298902
C89	C	-0.989894	-0.153391	0.387662
C90	C	-0.489894	0.346609	0.887662
C91	C	-0.989895	-0.153396	0.325742
C92	C	-0.489895	0.346604	0.825742
O93	O	-1.033221	-0.193764	0.291514
O94	O	-0.533221	0.306236	0.791514
N95	N	-0.938968	-0.105914	0.297364
N96	N	-0.438968	0.394086	0.797364
C97	C	-0.888042	-0.058417	0.330908
C98	C	-0.388042	0.441583	0.830908
O99	O	-0.844725	-0.018029	0.301084
O100	O	-0.344725	0.481971	0.801084
C101	C	-0.888046	-0.058408	0.392827
C102	C	-0.388046	0.441592	0.892827
C103	C	-0.938971	-0.105900	0.421202
C104	C	-0.438971	0.394100	0.921202
C105	C	-1.040816	-0.200879	0.416038
C106	C	-0.540816	0.299121	0.916038
C107	C	-1.040814	-0.200875	0.477954
C108	C	-0.540814	0.299125	0.977954
C109	C	-0.989890	-0.153383	0.511494
C110	C	-0.489890	0.346617	1.011494
C111	C	-0.938969	-0.105896	0.483118
C112	C	-0.438969	0.394104	0.983118
C113	C	-0.837125	-0.010908	0.426370
C114	C	-0.337125	0.489092	0.926370
C115	C	-0.837133	-0.010903	0.488293
C116	C	-0.337133	0.489097	0.988293
C117	C	-0.888058	-0.058395	0.516668
C118	C	-0.388058	0.441605	1.016668
C119	C	-0.888044	-0.058401	0.578574
C120	C	-0.388044	0.441599	1.078574
N121	N	-0.938971	-0.105884	0.606952
N122	N	-0.438971	0.394116	1.106952
C123	C	-0.989894	-0.153375	0.573412
C124	C	-0.489894	0.346625	1.073412
C125	C	-0.888039	-0.058438	0.200875
C126	C	-0.388039	0.441562	0.700875
C127	C	-0.888031	-0.058450	0.138958
C128	C	-0.388031	0.441550	0.638958
C129	C	-0.989885	-0.153428	0.133796
C130	C	-0.489885	0.346572	0.633796
C131	C	-0.989889	-0.153420	0.195715
C132	C	-0.489889	0.346580	0.695715
C133	C	-0.938966	-0.105920	0.229253
C134	C	-0.438966	0.394080	0.729253
C135	C	-0.989886	-0.153363	0.703440
C136	C	-0.489886	0.346637	1.203440
C137	C	-0.989877	-0.153357	0.765362
C138	C	-0.489877	0.346643	1.265362
C139	C	-0.888026	-0.058376	0.770518
C140	C	-0.388026	0.441624	1.270518
C141	C	-0.888031	-0.058385	0.708602
C142	C	-0.388031	0.441615	1.208602
C143	C	-0.938968	-0.105881	0.675064
C144	C	-0.438968	0.394119	1.175064
O145	O	-0.844742	-0.018052	0.612840
O146	O	-0.344742	0.481948	1.112840
O147	O	-1.033211	-0.193748	0.603244
O148	O	-0.533211	0.306252	1.103244
H149	H	-0.178099	-0.101604	0.037269
H150	H	0.321901	0.398396	0.537269
H151	H	-0.795657	0.027766	0.403278
H152	H	-0.295657	0.527766	0.903278
H153	H	-0.550375	-0.107706	-0.125330
H154	H	-0.050375	0.392294	0.374670
H155	H	-1.031356	-0.192092	0.218814
H156	H	-0.531356	0.307908	0.718814
H157	H	-0.846565	-0.019761	0.228179
H158	H	-0.346565	0.480239	0.728179
H159	H	-1.031349	-0.192099	0.106476
H160	H	-0.531349	0.307901	0.606476
H161	H	-0.327529	-0.104059	0.029657
H162	H	0.172471	0.395941	0.529657
H163	H	-0.452925	-0.106101	-0.117678
H164	H	0.047075	0.393899	0.382322
H165	H	-0.797856	0.114330	-0.040648
H166	H	-0.297856	0.614330	0.459352
H167	H	-0.699803	-0.110199	-0.132943
H168	H	-0.199803	0.389801	0.367057
H169	H	-0.821573	0.639728	-0.041859
H170	H	-0.321573	1.139728	0.458141
H171	H	-1.031957	0.392390	-0.052563
H172	H	-0.531957	0.892390	0.447437
H173	H	-0.845943	0.395807	-0.043096
H174	H	-0.345943	0.895807	0.456904
H175	H	-0.699805	-0.110230	0.061633
H176	H	-0.199805	0.389770	0.561633
H177	H	-0.550363	-0.107755	0.069242
H178	H	-0.050363	0.392245	0.569242
H179	H	-1.056328	0.148464	-0.053835
H180	H	-0.556328	0.648464	0.446165
H181	H	-0.327537	-0.104028	-0.164920
H182	H	0.172463	0.395972	0.335080
H183	H	-0.795666	0.027778	0.515597
H184	H	-0.295666	0.527778	1.015597
H185	H	-0.846555	-0.019723	0.685498
H186	H	-0.346555	0.480277	1.185498
H187	H	-1.031346	-0.192035	0.788462
H188	H	-0.531346	0.307965	1.288462
H189	H	-1.092635	0.525924	-0.055674
H190	H	-0.592635	1.025924	0.444326
H191	H	-0.178097	-0.101563	-0.157306
H192	H	0.321903	0.398437	0.342694
H193	H	-1.031363	-0.192038	0.676141
H194	H	-0.531363	0.307962	1.176141
H195	H	-0.846563	-0.019712	0.797837
H196	H	-0.346563	0.480288	1.297837
H197	H	-1.082288	-0.239552	0.388736
H198	H	-0.582288	0.260448	0.888736
H199	H	-0.846554	-0.019787	0.115860
H200	H	-0.346554	0.480213	0.615860
H201	H	-1.043737	0.296391	-0.053184
H202	H	-0.543737	0.796391	0.446816
H203	H	-0.424973	-0.105677	0.022004
H204	H	0.075027	0.394323	0.522004
H205	H	-1.080043	0.673863	-0.055029
H206	H	-0.580043	1.173863	0.444971
H207	H	-0.834162	0.491801	-0.042488
H208	H	-0.334162	0.991801	0.457512
H209	H	-0.785271	0.262271	-0.040001
H210	H	-0.285271	0.762271	0.459999
H211	H	-1.082285	-0.239544	0.501051
H212	H	-0.582285	0.260456	1.001051
