data_functionalizedCrystal
_audit_creation_method	'MofGen! by Chris Wilmer'
_symmetry_space_group_name_H-M	'P1'
_symmetry_Int_Tables_number	1
_symmetry_cell_setting	triclinic
loop_
_symmetry_equiv_pos_as_xyz
  x,y,z
_cell_length_a	16.992696
_cell_length_b	16.992694
_cell_length_c	15.455313
_cell_angle_alpha	92.857794
_cell_angle_beta	87.160376
_cell_angle_gamma	90.668339
loop_
_atom_site_label
_atom_site_type_symbol
_atom_site_fract_x
_atom_site_fract_y
_atom_site_fract_z
O1	O	-0.163693	-1.054082	-0.072047
O2	O	-0.161861	-0.825683	-0.072072
O3	O	-0.048578	-0.938965	-0.072036
O4	O	-0.276976	-0.940799	-0.072084
O5	O	-0.055028	-0.932486	0.072224
O6	O	-0.168311	-0.819203	0.072188
O7	O	-0.170143	-1.047602	0.072213
Cu8	Cu	-0.169816	-0.932811	0.085372
Cu9	Cu	-0.162188	-0.940474	-0.085232
O10	O	-0.283426	-0.934319	0.072176
C11	C	-0.162730	-0.793083	0.000055
C12	C	-0.155701	-0.705599	0.000046
C13	C	-0.022443	-0.933370	0.000098
C14	C	0.065041	-0.926340	0.000110
C15	C	0.111031	-0.994157	0.000126
C16	C	0.193232	-0.987548	0.000129
C17	C	0.229440	-0.913121	0.000123
C18	C	0.183444	-0.845298	0.000105
C19	C	0.101245	-0.851909	0.000096
C20	C	0.474754	-0.885725	0.000145
C21	C	0.556958	-0.879119	0.000157
C22	C	0.566741	-1.021370	0.000180
C23	C	0.484540	-1.027973	0.000175
C24	C	0.438551	-0.960151	0.000153
N25	N	0.313462	-0.906363	0.000130
N26	N	0.354531	-0.966910	0.000140
C27	C	-0.169274	-1.080202	0.000084
C28	C	-0.176303	-1.167686	0.000087
C29	C	0.690438	-0.939913	0.000078
C30	C	0.602949	-0.946936	0.000173
C31	C	-0.223518	-0.659609	0.000033
C32	C	-0.216910	-0.577407	0.000046
C33	C	-0.142483	-0.541198	0.000067
C34	C	-0.074661	-0.587194	0.000083
C35	C	-0.081270	-0.669393	0.000076
C36	C	-0.115090	-0.295882	0.000096
C37	C	-0.108485	-0.213677	0.000100
C38	C	-0.250735	-0.203895	0.000065
C39	C	-0.257338	-0.286097	0.000053
C40	C	-0.189516	-0.332086	0.000073
N41	N	-0.135726	-0.457175	0.000078
N42	N	-0.196273	-0.416107	0.000069
N43	N	-0.175180	-0.927427	0.205366
N44	N	-0.156818	-0.945864	-0.205226
C45	C	-0.127074	-0.975572	0.250776
C46	C	-0.131138	-0.971508	0.341582
C47	C	-0.183314	-0.919302	0.386978
C48	C	-0.231422	-0.871151	0.341562
C49	C	-0.227353	-0.875212	0.250757
C50	C	-0.200857	-0.901774	0.658553
C51	C	-0.204924	-0.897718	0.749365
C52	C	-0.104639	-0.998075	0.749379
C53	C	-0.100577	-1.002134	0.658573
C54	C	-0.148683	-0.953980	0.613164
N55	N	-0.187472	-0.915149	0.479797
N56	N	-0.144521	-0.958130	0.520347
H57	H	0.081556	-1.054764	0.000136
O58	O	-0.261202	-0.841409	0.798333
H59	H	-0.227495	-0.799237	0.839731
O60	O	-0.008126	-0.719004	0.000093
H61	H	0.029877	-0.708216	-0.058698
H62	H	-0.065473	-1.037278	0.786359
O63	O	-0.323882	-0.154290	0.000062
H64	H	-0.321647	-0.119230	-0.058727
O65	O	0.005616	-0.548145	0.000113
H66	H	0.014667	-0.513567	-0.058685
O67	O	0.425162	-0.812571	0.000142
H68	H	0.441225	-0.779831	-0.058650
H69	H	0.586436	-0.818508	0.000167
O70	O	-0.290055	-0.527800	0.000032
H71	H	-0.342918	-0.566789	0.000006
O72	O	-0.287701	-0.814846	0.390524
H73	H	-0.348917	-0.829500	0.373063
O74	O	-0.337618	-0.325142	0.000050
H75	H	-0.367834	-0.309646	-0.058746
O76	O	-0.252750	-0.849844	0.609589
H77	H	-0.241154	-0.861428	0.538819
O78	O	0.616346	-1.094515	0.000196
H79	H	0.600294	-1.127243	0.059001
O80	O	0.222491	-0.765020	0.000108
H81	H	0.287375	-0.771814	0.000130
O82	O	-0.028208	-0.174617	0.000131
H83	H	0.017843	-0.220404	0.000153
O84	O	-0.041943	-0.345480	0.000118
H85	H	0.010919	-0.306490	0.000126
H86	H	0.063801	-0.796684	0.000083
O87	O	0.445496	-1.108254	0.000162
H88	H	0.460999	-1.138457	0.058959
H89	H	-0.284124	-0.689084	0.000015
O90	O	-0.070795	-1.031877	0.201814
H91	H	-0.038020	-1.064666	0.248650
O92	O	-0.079268	-1.023451	0.390563
H93	H	-0.042316	-1.060447	0.343742
O94	O	-0.279243	-0.823289	0.201772
H95	H	-0.316214	-0.786310	0.248592
H96	H	-0.058092	-1.044644	0.621614
H97	H	0.230674	-1.042772	0.000144
