data_functionalizedCrystal
_audit_creation_method	'MofGen! by Chris Wilmer'
_symmetry_space_group_name_H-M	'P1'
_symmetry_Int_Tables_number	1
_symmetry_cell_setting	triclinic
loop_
_symmetry_equiv_pos_as_xyz
  x,y,z
_cell_length_a	6.817900
_cell_length_b	7.190339
_cell_length_c	17.110486
_cell_angle_alpha	87.266861
_cell_angle_beta	80.939561
_cell_angle_gamma	119.388276
loop_
_atom_site_label
_atom_site_type_symbol
_atom_site_fract_x
_atom_site_fract_y
_atom_site_fract_z
V1	V	4.063976	0.294461	-0.246162
O2	O	3.960996	-0.014804	-0.242052
O3	O	4.101591	0.584495	-0.243925
O4	O	3.992410	0.289645	-0.353774
O5	O	4.070933	0.282088	-0.131442
V6	V	4.539460	0.257503	-0.232508
O7	O	4.342868	0.375531	-0.276114
O8	O	4.710766	0.176433	-0.202556
O9	O	4.278639	-0.032531	-0.234745
O10	O	4.759838	0.566768	-0.236618
O11	O	4.649901	0.269876	-0.347228
O12	O	4.387820	0.262319	-0.124895
C13	C	3.828993	0.279095	-0.380022
C14	C	3.852332	0.277076	-0.467992
C15	C	3.968282	0.655211	-0.239902
C16	C	4.082272	0.896773	-0.238771
C17	C	4.047741	0.286772	-0.513331
C18	C	4.069658	0.284874	-0.595988
C19	C	3.896172	0.273295	-0.633305
C20	C	3.700744	0.263591	-0.587959
C21	C	3.678822	0.265474	-0.505302
C22	C	3.953128	0.267064	-0.882671
C23	C	3.975070	0.265188	-0.965334
C24	C	4.343981	0.286467	-0.973357
C25	C	4.322047	0.288362	-0.890700
C26	C	4.126617	0.278647	-0.845360
C27	C	3.918574	0.271361	-0.717793
C28	C	4.104211	0.280565	-0.760872
C29	C	4.214582	0.272877	-0.098644
C30	C	4.170478	0.274885	-0.010673
H31	H	4.228771	0.292758	-0.632899
H32	H	3.777328	0.261942	-0.748186
N33	N	3.468049	0.255004	-0.456400
H34	H	3.456270	0.382834	-0.476458
H35	H	3.480608	0.257871	-0.398389
H36	H	4.463321	0.297789	-0.860322
N37	N	4.291314	0.293059	-0.720620
H38	H	4.440821	0.430197	-0.744186
H39	H	4.310531	0.164480	-0.729333
N40	N	4.554751	0.296924	-1.022252
H41	H	4.637134	0.429424	-1.064157
H42	H	4.506840	0.163710	-1.049239
N43	N	4.234870	0.299249	-0.473093
H44	H	4.168938	0.167692	-0.431548
H45	H	4.299004	0.433393	-0.446457
N46	N	3.787913	0.252635	-1.005582
H47	H	3.660768	0.246739	-0.964317
H48	H	3.723969	0.118563	-1.032264
H49	H	3.794038	0.259229	-0.845770
N50	N	3.513610	0.251097	-0.628197
H51	H	3.449430	0.117036	-0.654884
H52	H	3.579684	0.382752	-0.669703
