data_functionalizedCrystal
_audit_creation_method	'MofGen! by Chris Wilmer'
_symmetry_space_group_name_H-M	'P1'
_symmetry_Int_Tables_number	1
_symmetry_cell_setting	triclinic
loop_
_symmetry_equiv_pos_as_xyz
  x,y,z
_cell_length_a	14.971482
_cell_length_b	15.995292
_cell_length_c	14.048226
_cell_angle_alpha	89.999488
_cell_angle_beta	90.004139
_cell_angle_gamma	83.540612
loop_
_atom_site_label
_atom_site_type_symbol
_atom_site_fract_x
_atom_site_fract_y
_atom_site_fract_z
O1	O	1.186798	0.109100	0.079141
O2	O	1.686798	0.609100	0.579141
O3	O	0.926380	0.122171	0.079145
O4	O	1.426380	0.622171	0.579145
O5	O	1.063735	-0.006249	0.079145
O6	O	1.563735	0.493751	0.579145
O7	O	1.049443	0.237519	0.079142
O8	O	1.549443	0.737519	0.579142
O9	O	1.063722	-0.006247	-0.079177
O10	O	1.563722	0.493753	0.420823
O11	O	0.926367	0.122172	-0.079176
O12	O	1.426367	0.622172	0.420824
O13	O	1.186785	0.109101	-0.079180
O14	O	1.686785	0.609101	0.420820
Zn15	Zn	1.056574	0.115637	-0.104315
Zn16	Zn	1.556574	0.615637	0.395685
Zn17	Zn	1.056591	0.115635	0.104280
Zn18	Zn	1.556591	0.615635	0.604280
O19	O	1.049430	0.237520	-0.079179
O20	O	1.549430	0.737520	0.420821
C21	C	0.893049	0.121587	-0.000015
C22	C	1.393049	0.621587	0.499985
C23	C	0.793755	0.119837	-0.000013
C24	C	1.293755	0.619837	0.499987
C25	C	0.747104	0.119014	-0.086315
C26	C	1.247104	0.619014	0.413685
C27	C	0.653808	0.117356	-0.086316
C28	C	1.153808	0.617356	0.413684
C29	C	0.607163	0.116528	-0.000014
C30	C	1.107163	0.616528	0.499986
C31	C	0.653821	0.117349	0.086294
C32	C	1.153821	0.617349	0.586294
C33	C	0.747116	0.119001	0.086294
C34	C	1.247116	0.619001	0.586294
C35	C	0.459363	0.113908	0.086288
C36	C	0.959363	0.613908	0.586288
C37	C	0.366061	0.112258	0.086289
C38	C	0.866061	0.612258	0.586289
C39	C	0.366055	0.112264	-0.086322
C40	C	0.866055	0.612264	0.413678
C41	C	0.459351	0.113915	-0.086322
C42	C	0.959351	0.613915	0.413678
C43	C	0.506001	0.114738	-0.000013
C44	C	1.006001	0.614738	0.499987
C45	C	1.063147	-0.037444	-0.000014
C46	C	1.563147	0.462556	0.499986
C47	C	1.061403	-0.130399	-0.000006
C48	C	1.561403	0.369601	0.499994
C49	C	1.054992	-0.468144	-0.000015
C50	C	1.554992	0.031856	0.499985
C51	C	1.154131	-0.444733	-0.000370
C52	C	1.654131	0.055267	0.499630
C53	C	1.156016	-0.348056	-0.000010
C54	C	1.656016	0.151944	0.499990
C55	C	1.058173	-0.300585	-0.000011
C56	C	1.558173	0.199415	0.499989
C57	C	1.008616	-0.329735	0.090396
C58	C	1.508616	0.170265	0.590396
C59	C	1.007422	-0.426527	0.090468
C60	C	1.507422	0.073473	0.590468
C61	C	1.005383	-0.426385	-0.089573
C62	C	1.505383	0.073615	0.410427
C63	C	1.009057	-0.329889	-0.090764
C64	C	1.509057	0.170111	0.409236
C65	C	1.059966	-0.205887	-0.000006
C66	C	1.559966	0.294113	0.499994
C67	C	1.053197	-0.562841	-0.000014
C68	C	1.553197	-0.062841	0.499986
C69	C	1.220116	0.109685	-0.000018
C70	C	1.720116	0.609685	0.499982
C71	C	1.319411	0.111435	-0.000013
C72	C	1.819411	0.611435	0.499987
C73	C	1.050018	0.268716	-0.000019
C74	C	1.550018	0.768716	0.499981
C75	C	1.051762	0.361671	-0.000020
C76	C	1.551762	0.861671	0.499980
N77	N	1.056569	0.115637	-0.246676
N78	N	1.556569	0.615637	0.253324
C79	C	1.002370	0.064759	-0.703542
C80	C	1.502370	0.564759	-0.203542
C81	C	1.002367	0.064757	-0.603884
C82	C	1.502367	0.564757	-0.103884
C83	C	1.056593	0.115628	-0.554046
C84	C	1.556593	0.615628	-0.054046
C85	C	1.110832	0.166499	-0.603870
C86	C	1.610832	0.666499	-0.103870
C87	C	1.110839	0.166496	-0.703526
C88	C	1.610839	0.666496	-0.203526
C89	C	1.110811	0.166502	-0.396156
C90	C	1.610811	0.666502	0.103844
C91	C	1.110802	0.166506	-0.296493
C92	C	1.610802	0.666506	0.203507
C93	C	1.002338	0.064762	-0.296514
C94	C	1.502338	0.564762	0.203486
C95	C	1.002346	0.064760	-0.396170
C96	C	1.502346	0.564760	0.103830
C97	C	1.056584	0.115632	-0.445987
C98	C	1.556584	0.615632	0.054013
N99	N	1.056603	0.115628	0.246641
N100	N	1.556603	0.615628	0.746641
H101	H	0.497326	0.114595	-0.156597
H102	H	0.997326	0.614595	0.343403
Cl103	Cl	1.179025	0.230445	-0.766154
Cl104	Cl	1.679025	0.730445	-0.266154
H105	H	1.154954	0.207933	-0.255917
H106	H	1.654954	0.707933	0.244083
Cl107	Cl	0.307409	0.111230	-0.194825
Cl108	Cl	0.807409	0.611230	0.305175
H109	H	0.785075	0.119695	-0.156592
H110	H	1.285075	0.619695	0.343408
Cl111	Cl	0.595163	0.116336	-0.194815
Cl112	Cl	1.095163	0.616336	0.305185
H113	H	1.041754	-0.453310	0.158050
H114	H	1.541754	0.046690	0.658050
Cl115	Cl	0.934152	0.000809	-0.233887
Cl116	Cl	1.434152	0.500809	0.266113
Cl117	Cl	1.179001	0.230454	-0.458782
Cl118	Cl	1.679001	0.730454	0.041218
H119	H	1.154987	0.207915	-0.563284
H120	H	1.654987	0.707915	-0.063284
H121	H	0.328086	0.111585	0.156563
H122	H	0.828086	0.611585	0.656563
H123	H	0.497343	0.114579	0.156570
H124	H	0.997343	0.614579	0.656570
Cl125	Cl	0.934168	0.000813	-0.458823
Cl126	Cl	1.434168	0.500813	0.041177
H127	H	0.615836	0.116669	0.156563
H128	H	1.115836	0.616669	0.656563
Cl129	Cl	0.898793	-0.279099	-0.099197
Cl130	Cl	1.398793	0.220901	0.400803
Cl131	Cl	0.805763	0.120032	0.194793
Cl132	Cl	1.305763	0.620032	0.694793
Cl133	Cl	0.895200	-0.449107	0.096809
Cl134	Cl	1.395200	0.050893	0.596809
Cl135	Cl	1.215917	-0.318616	-0.100080
Cl136	Cl	1.715917	0.181384	0.399920
H137	H	1.192339	-0.472692	-0.065205
H138	H	1.692339	0.027308	0.434795
H139	H	1.192137	-0.473714	0.064100
H140	H	1.692137	0.026286	0.564100
H141	H	0.936617	-0.297939	0.093756
H142	H	1.436617	0.202061	0.593756
Cl143	Cl	1.216305	-0.319575	0.100224
Cl144	Cl	1.716305	0.180425	0.600224
H145	H	1.043040	-0.309641	0.157677
H146	H	1.543040	0.190359	0.657677
H147	H	1.036598	-0.454442	-0.158101
H148	H	1.536598	0.045558	0.341899
H149	H	1.045142	-0.311287	-0.157647
H150	H	1.545142	0.188713	0.342353
H151	H	0.932409	-0.440447	-0.090183
H152	H	1.432409	0.059553	0.409817
Cl153	Cl	0.934193	0.000807	-0.766186
Cl154	Cl	1.434193	0.500807	-0.266186
Cl155	Cl	0.934157	0.000831	-0.541260
Cl156	Cl	1.434157	0.500831	-0.041260
