data_functionalizedCrystal
_audit_creation_method	'MofGen! by Chris Wilmer'
_symmetry_space_group_name_H-M	'P1'
_symmetry_Int_Tables_number	1
_symmetry_cell_setting	triclinic
loop_
_symmetry_equiv_pos_as_xyz
  x,y,z
_cell_length_a	12.759401
_cell_length_b	18.050589
_cell_length_c	12.759393
_cell_angle_alpha	89.970454
_cell_angle_beta	89.979062
_cell_angle_gamma	90.029746
loop_
_atom_site_label
_atom_site_type_symbol
_atom_site_fract_x
_atom_site_fract_y
_atom_site_fract_z
Zn1	Zn	1.606168	-0.295593	-0.594027
Zn2	Zn	1.606017	-0.419801	-0.418350
Zn3	Zn	1.430466	-0.295633	-0.418362
Zn4	Zn	1.430417	-0.419749	-0.593987
O5	O	1.518267	-0.357694	-0.506182
O6	O	1.753169	-0.312075	-0.570735
O7	O	1.582688	-0.403368	-0.271331
O8	O	1.453857	-0.191703	-0.441686
O9	O	1.753058	-0.403330	-0.441666
O10	O	1.582944	-0.191674	-0.570746
O11	O	1.453711	-0.312142	-0.271339
O12	O	1.283439	-0.312092	-0.441648
O13	O	1.453773	-0.403241	-0.741014
O14	O	1.283402	-0.403280	-0.570679
O15	O	1.582896	-0.312025	-0.741043
O16	O	1.582640	-0.523719	-0.441627
O17	O	1.453627	-0.523681	-0.570667
C18	C	1.245300	-0.357685	-0.506161
C19	C	1.128523	-0.357699	-0.506177
C20	C	1.518140	-0.550646	-0.506164
C21	C	1.518182	-0.633192	-0.506192
C22	C	1.073670	-0.405253	-0.573257
C23	C	0.963946	-0.405256	-0.573278
C24	C	0.963938	-0.310149	-0.439129
C25	C	1.073660	-0.310143	-0.439114
C26	C	0.814041	-0.431904	-0.697139
C27	C	0.759184	-0.479469	-0.764211
C28	C	0.794757	-0.551945	-0.780160
C29	C	0.885186	-0.576870	-0.729023
C30	C	0.940038	-0.529309	-0.661944
C31	C	0.904466	-0.456822	-0.646014
C32	C	1.223567	-0.283503	-0.315251
C33	C	1.278420	-0.235944	-0.248166
C34	C	1.242849	-0.163467	-0.232206
C35	C	1.152417	-0.138545	-0.283325
C36	C	1.097563	-0.186103	-0.350410
C37	C	1.133142	-0.258579	-0.366372
C38	C	1.448094	-0.832649	-0.576339
C39	C	1.422478	-0.882097	-0.480470
C40	C	1.518285	-0.784322	-0.506206
C41	C	1.543953	-0.881956	-0.602085
C42	C	1.518383	-0.930307	-0.506227
C43	C	1.492619	-0.832683	-0.410286
C44	C	1.614139	-0.832538	-0.531966
C45	C	1.588559	-0.881964	-0.436031
C46	C	1.518226	-0.700224	-0.506194
C47	C	1.518442	-1.014404	-0.506228
C48	C	1.792300	-0.357704	-0.506203
C49	C	1.909077	-0.357708	-0.506212
C50	C	1.518346	-0.357623	-0.780215
C51	C	1.518379	-0.357592	-0.896992
C52	C	1.518423	-0.163989	-0.506222
C53	C	1.518489	-0.081443	-0.506239
C54	C	1.585619	-0.310088	-0.951871
C55	C	1.585637	-0.310056	-1.061595
C56	C	1.451172	-0.405039	-1.061552
C57	C	1.451150	-0.405067	-0.951829
C58	C	1.623278	-0.222435	-1.211571
C59	C	1.690534	-0.174938	-1.266453
C60	C	1.793050	-0.163549	-1.230862
C61	C	1.828332	-0.199670	-1.140389
C62	C	1.761082	-0.247173	-1.085512
C63	C	1.658550	-0.258547	-1.121102
C64	C	1.413520	-0.492689	-0.801851
C65	C	1.346274	-0.540196	-0.746972
C66	C	1.243755	-0.551592	-0.782562
C67	C	1.208478	-0.515485	-0.873038
C68	C	1.275723	-0.467977	-0.927917
C69	C	1.378241	-0.456580	-0.892320
C70	C	1.518249	-0.357712	-0.233214
C71	C	1.518419	-0.357533	-0.116438
H72	H	1.013662	-0.549603	-0.620308
N73	N	1.465297	-0.805663	-0.308545
N74	N	1.445912	-0.850226	-0.236061
H75	H	1.426612	-0.831143	-0.164208
N76	N	1.116087	-0.064505	-0.267045
N77	N	1.108720	-0.020923	-0.342844
H78	H	1.083064	0.031369	-0.331343
H79	H	1.125000	-0.524766	-0.902019
N80	N	1.175081	-0.600130	-0.726499
N81	N	1.206588	-0.632374	-0.645726
H82	H	1.158086	-0.666652	-0.606133
H83	H	1.640358	-0.271430	-0.907225
H84	H	1.647959	-0.903481	-0.376662
N85	N	1.298884	-0.114900	-0.163663
N86	N	1.379616	-0.137159	-0.118011
H87	H	1.419189	-0.102858	-0.069604
N88	N	1.259886	-0.357546	-0.331540
N89	N	1.202380	-0.411228	-0.308516
H90	H	1.228026	-0.463523	-0.320015
H91	H	1.388648	-0.810995	-0.635565
H92	H	1.352055	-0.256243	-0.206542
N93	N	0.921496	-0.650913	-0.745311
N94	N	0.872509	-0.693371	-0.805202
H95	H	0.898154	-0.745665	-0.816707
H96	H	1.341464	-0.903882	-0.458702
H97	H	1.375010	-0.569604	-0.673309
N98	N	1.654408	-0.137991	-1.358788
N99	N	1.653467	-0.068793	-1.362472
H100	H	1.627927	-0.042687	-1.427662
H101	H	1.695134	-0.810755	-0.553780
N102	N	1.382506	-0.453538	-1.117558
N103	N	1.389397	-0.522070	-1.105288
H104	H	1.340895	-0.556324	-1.144837
H105	H	1.565624	-0.903600	-0.683161
N106	N	1.129728	-0.453824	-0.641750
N107	N	1.190906	-0.501113	-0.604662
H108	H	1.230497	-0.535417	-0.653037
N109	N	1.797126	-0.284065	-0.993108
N110	N	1.888667	-0.273897	-0.961341
H111	H	1.914126	-0.299948	-0.896076
H112	H	1.246992	-0.438577	-1.001588
N113	N	1.518236	-0.481046	-0.765472
N114	N	1.549721	-0.513293	-0.684693
H115	H	1.623676	-0.505072	-0.658996
H116	H	1.847810	-0.124875	-1.275555
N117	N	0.738708	-0.600525	-0.848668
N118	N	0.657970	-0.578266	-0.894310
H119	H	0.618381	-0.612572	-0.942697
N120	N	0.666817	-0.454000	-0.816435
N121	N	0.635069	-0.389281	-0.802199
H122	H	0.569832	-0.371296	-0.839078
H123	H	1.911815	-0.190399	-1.111423
N124	N	1.518546	-0.234049	-1.247912
N125	N	1.456860	-0.180531	-1.255344
H126	H	1.382891	-0.188732	-1.281014
N127	N	0.777698	-0.357867	-0.680875
N128	N	0.696957	-0.335629	-0.726533
H129	H	0.671284	-0.283340	-0.715046
H130	H	1.023933	-0.165803	-0.392041
N131	N	0.907879	-0.261578	-0.370636
N132	N	0.809913	-0.261590	-0.370657
H133	H	0.770321	-0.227287	-0.322281
