data_functionalizedCrystal
_audit_creation_method	'MofGen! by Chris Wilmer'
_symmetry_space_group_name_H-M	'P1'
_symmetry_Int_Tables_number	1
_symmetry_cell_setting	triclinic
loop_
_symmetry_equiv_pos_as_xyz
  x,y,z
_cell_length_a	15.711784
_cell_length_b	10.540510
_cell_length_c	14.750779
_cell_angle_alpha	77.231938
_cell_angle_beta	106.501624
_cell_angle_gamma	102.051056
loop_
_atom_site_label
_atom_site_type_symbol
_atom_site_fract_x
_atom_site_fract_y
_atom_site_fract_z
O1	O	1.132542	0.717073	-0.079847
O2	O	0.880288	0.620140	-0.079842
O3	O	1.012184	0.486499	-0.079844
O4	O	1.000647	0.850713	-0.079845
O5	O	1.049469	0.448727	0.079805
O6	O	0.917573	0.582367	0.079808
O7	O	1.169827	0.679300	0.079803
Zn8	Zn	1.049620	0.624836	0.105153
Zn9	Zn	1.000495	0.674603	-0.105192
O10	O	1.037932	0.812941	0.079805
C11	C	0.866630	0.585419	-0.000017
C12	C	0.770384	0.538222	-0.000015
C13	C	0.644353	0.360541	-0.000014
C14	C	0.734789	0.404903	-0.000015
C15	C	0.715548	0.627232	-0.000019
C16	C	0.625107	0.582890	-0.000023
C17	C	0.589517	0.449543	-0.000019
C18	C	0.570271	0.671892	-0.000028
C19	C	0.479839	0.627552	-0.000027
C20	C	0.444243	0.494210	-0.000020
C21	C	0.499085	0.405203	-0.000018
C22	C	0.605864	0.805237	-0.000025
C23	C	0.551028	0.894239	-0.000030
C24	C	0.460593	0.849901	-0.000035
C25	C	0.424997	0.716559	-0.000029
C26	C	0.405751	0.938908	-0.000038
C27	C	0.315319	0.894567	-0.000036
C28	C	0.334565	0.672218	-0.000027
C29	C	1.029966	0.419922	-0.000021
C30	C	1.027393	0.277813	-0.000027
C31	C	1.119105	0.101603	0.000337
C32	C	1.121764	0.249523	-0.000028
C33	C	0.957792	0.232833	-0.091192
C34	C	0.955701	0.085152	-0.091263
C35	C	0.996135	0.041503	0.090288
C36	C	1.000892	0.189579	0.091488
C37	C	1.183485	0.714021	-0.000025
C38	C	1.279729	0.761220	-0.000033
C39	C	1.020149	0.879518	-0.000020
C40	C	1.022721	1.021629	-0.000021
N41	N	1.083153	0.590874	0.248708
N42	N	0.966969	0.708559	-0.248747
C43	C	0.873316	0.803355	0.600530
C44	C	0.896820	0.779568	0.701028
C45	C	1.013639	0.661304	0.700989
C46	C	0.990141	0.685076	0.600489
C47	C	0.919980	0.756103	0.550267
C48	C	1.036805	0.637824	0.550225
C49	C	1.013313	0.661600	0.449733
C50	C	0.943156	0.732628	0.399505
C51	C	0.896488	0.779879	0.449775
C52	C	1.106970	0.566805	0.600449
C53	C	1.153634	0.519553	0.550186
C54	C	1.130138	0.543321	0.449692
C55	C	1.059981	0.614349	0.399463
C56	C	1.176807	0.496070	0.399422
C57	C	1.153314	0.519846	0.298930
C58	C	1.036489	0.638125	0.298971
H59	H	0.270671	0.967041	-0.000037
H60	H	1.210763	0.461726	0.591088
H61	H	0.779434	0.332417	-0.000014
H62	H	0.933279	0.206264	0.096995
Cl63	Cl	0.785102	0.892632	0.537390
Cl64	Cl	1.136505	0.536926	0.726784
H65	H	0.839349	0.837705	0.408882
Cl66	Cl	0.838148	0.838985	0.764209
Cl67	Cl	0.450506	1.106535	-0.000032
Cl68	Cl	0.886966	-0.042268	0.091242
Cl69	Cl	0.982108	0.070944	-0.196474
Cl70	Cl	1.101840	0.572019	0.764132
Cl71	Cl	0.599605	0.192901	-0.000007
H72	H	0.979351	0.695951	0.258079
H73	H	0.744539	0.735804	-0.000019
Cl74	Cl	1.211982	0.460447	0.235741
Cl75	Cl	0.985126	0.328611	-0.195944
H76	H	1.051794	0.218091	0.158931
Cl77	Cl	0.913626	0.762526	0.273170
Cl78	Cl	1.199449	0.038555	0.101278
Cl79	Cl	1.265015	0.406799	0.462568
H80	H	0.305584	0.563636	-0.000035
H81	H	0.370609	0.458108	-0.000010
H82	H	0.580019	1.002810	-0.000030
Cl83	Cl	0.454337	0.237562	-0.000011
Cl84	Cl	0.845235	0.002000	-0.097657
H85	H	0.679501	0.841334	-0.000022
H86	H	1.174824	0.280456	0.065321
H87	H	1.140477	0.089968	-0.064674
Cl88	Cl	0.849306	0.258857	-0.096434
H89	H	1.144493	0.310566	-0.065493
H90	H	1.042264	-0.003501	0.159392
