data_functionalizedCrystal
_audit_creation_method	'MofGen! by Chris Wilmer'
_symmetry_space_group_name_H-M	'P1'
_symmetry_Int_Tables_number	1
_symmetry_cell_setting	triclinic
loop_
_symmetry_equiv_pos_as_xyz
  x,y,z
_cell_length_a	10.967874
_cell_length_b	10.654551
_cell_length_c	10.065875
_cell_angle_alpha	98.877446
_cell_angle_beta	69.229500
_cell_angle_gamma	84.600153
loop_
_atom_site_label
_atom_site_type_symbol
_atom_site_fract_x
_atom_site_fract_y
_atom_site_fract_z
O1	O	1.740619	0.091833	-0.522853
O2	O	1.363314	0.123003	-0.434118
O3	O	1.560641	-0.075652	-0.480526
O4	O	1.543292	0.290487	-0.476444
O5	O	1.523015	-0.037623	-0.244688
O6	O	1.325687	0.161031	-0.198280
O7	O	1.702993	0.129861	-0.287015
Zn8	Zn	1.508366	0.151484	-0.205203
Zn9	Zn	1.557941	0.101380	-0.515930
O10	O	1.505666	0.328516	-0.240607
C11	C	1.296188	0.142622	-0.304837
C12	C	1.152232	0.144411	-0.270982
C13	C	1.540554	-0.103387	-0.362311
C14	C	1.536744	-0.242687	-0.361424
C15	C	1.107544	0.125508	-0.378059
C16	C	0.958759	0.127356	-0.343071
C17	C	1.555465	-0.328860	-0.489556
C18	C	1.551871	-0.459742	-0.488704
C19	C	1.510838	-0.418267	-0.231578
C20	C	1.514423	-0.287385	-0.232429
C21	C	1.577786	-0.284161	-0.618550
C22	C	1.596510	-0.370336	-0.746693
C23	C	1.592916	-0.501218	-0.745842
C24	C	1.570598	-0.545926	-0.616847
C25	C	1.770119	0.110241	-0.416299
C26	C	1.914076	0.108451	-0.450163
C27	C	1.525753	0.356251	-0.358825
C28	C	1.529565	0.495549	-0.359721
N29	N	1.474543	0.185677	0.006857
N30	N	1.591774	0.067176	-0.727992
C31	C	1.546164	0.113269	0.057792
C32	C	1.520143	0.139595	0.221079
H33	H	1.179434	0.107964	-0.495634
Cl34	Cl	1.670285	-0.012807	-0.061440
H35	H	1.608150	-0.571377	-0.850178
H36	H	1.492668	-0.454679	-0.126558
Cl37	Cl	1.395714	0.265398	0.340379
H38	H	1.672357	-0.014314	0.194735
H39	H	1.499151	-0.217216	-0.128086
Cl40	Cl	1.350119	0.311475	0.126161
H41	H	0.985961	0.090907	-0.567747
Cl42	Cl	0.847777	0.154466	-0.161529
H43	H	1.580718	-0.177593	-0.619259
Cl44	Cl	1.624563	-0.314132	-0.908847
Cl45	Cl	1.041247	0.171519	-0.089448
H46	H	1.567654	-0.652498	-0.616160
