data_functionalizedCrystal
_audit_creation_method	'MofGen! by Chris Wilmer'
_symmetry_space_group_name_H-M	'P1'
_symmetry_Int_Tables_number	1
_symmetry_cell_setting	triclinic
loop_
_symmetry_equiv_pos_as_xyz
  x,y,z
_cell_length_a	18.215407
_cell_length_b	16.959453
_cell_length_c	16.959447
_cell_angle_alpha	90.027499
_cell_angle_beta	90.016298
_cell_angle_gamma	90.017431
loop_
_atom_site_label
_atom_site_type_symbol
_atom_site_fract_x
_atom_site_fract_y
_atom_site_fract_z
Zn1	Zn	1.125089	-0.314748	0.446879
Zn2	Zn	1.125010	-0.446932	0.314699
Zn3	Zn	1.002024	-0.314765	0.314720
Zn4	Zn	1.001998	-0.446882	0.446840
O5	O	1.063530	-0.380832	0.380785
O6	O	1.228063	-0.332296	0.429353
O7	O	1.108674	-0.429428	0.204091
O8	O	1.018393	-0.204152	0.332276
O9	O	1.228005	-0.429411	0.332241
O10	O	1.108808	-0.204139	0.429373
O11	O	1.018316	-0.332326	0.204106
O12	O	0.899036	-0.332278	0.332238
O13	O	1.018349	-0.429326	0.557457
O14	O	0.899017	-0.429343	0.429307
O15	O	1.108783	-0.332247	0.557485
O16	O	1.108649	-0.557536	0.332203
O17	O	1.018272	-0.557500	0.429287
C18	C	0.872324	-0.380808	0.380771
C19	C	0.790525	-0.380816	0.380784
C20	C	0.602360	-0.330352	0.431430
C21	C	0.525502	-0.330359	0.431433
C22	C	0.525452	-0.431333	0.330153
C23	C	0.602310	-0.431322	0.330147
C24	C	0.640762	-0.380833	0.380790
C25	C	0.487046	-0.380851	0.380799
C26	C	0.403712	-0.380859	0.380801
C27	C	0.724101	-0.380824	0.380787
C28	C	1.063469	-0.586198	0.380756
C29	C	1.063510	-0.674055	0.380770
C30	C	1.110670	-1.045465	0.431439
C31	C	1.016596	-1.045595	0.330248
C32	C	1.016569	-0.963050	0.330230
C33	C	1.063592	-0.921708	0.380818
C34	C	1.110643	-0.962911	0.431424
C35	C	0.969514	-0.921840	0.279631
C36	C	0.969485	-0.839289	0.279611
C37	C	1.016512	-0.797945	0.330195
C38	C	1.063565	-0.839154	0.380803
C39	C	1.110588	-0.797812	0.431391
C40	C	1.157645	-0.839019	0.481995
C41	C	1.157670	-0.921568	0.482008
C42	C	1.016487	-0.715397	0.330182
C43	C	1.110561	-0.715258	0.431376
C44	C	1.255483	-0.380857	0.380799
C45	C	1.337282	-0.380867	0.380805
C46	C	1.063572	-0.380779	0.586953
C47	C	1.063589	-0.380757	0.674810
C48	C	1.063612	-0.174664	0.380831
C49	C	1.063647	-0.086807	0.380851
C50	C	1.063532	-0.380827	0.175418
C51	C	1.063657	-0.380627	0.087562
C52	C	1.016513	-0.431291	0.716070
C53	C	1.110677	-0.330196	0.716103
C54	C	1.110693	-0.330170	0.798649
C55	C	1.063617	-0.380705	0.839909
C56	C	1.016526	-0.431265	0.798624
C57	C	1.157778	-0.279605	0.839940
C58	C	1.157794	-0.279576	0.922491
C59	C	1.110722	-0.330116	0.963753
C60	C	1.063629	-0.380679	0.922463
C61	C	1.016553	-0.431214	0.963723
C62	C	0.969464	-0.481781	0.922434
C63	C	0.969453	-0.481805	0.839886
C64	C	1.110733	-0.330092	1.046302
C65	C	1.016566	-0.431188	1.046277
H66	H	0.494135	-0.472441	0.288923
O67	O	0.923771	-0.530979	0.962431
C68	C	0.888041	-0.665423	0.987719
C69	C	0.939820	-0.609798	0.942357
H70	H	0.901007	-0.729160	0.971519
H71	H	0.828688	-0.651613	0.971468
H72	H	0.896126	-0.656670	1.053806
H73	H	0.931799	-0.618520	0.876260
H74	H	0.999153	-0.623621	0.958674
O75	O	1.156334	-1.085406	0.480708
C76	C	1.191941	-1.110590	0.615208
C77	C	1.140198	-1.065291	0.559496
H78	H	1.178903	-1.094356	0.678921
H79	H	1.251300	-1.094315	0.601456
H80	H	1.183894	-1.176687	0.606488
H81	H	1.148179	-0.999184	0.568185
H82	H	1.080858	-1.081631	0.573262
H83	H	0.931115	-0.522974	0.806261
H84	H	1.195981	-0.955126	0.523208
O85	O	1.203298	-0.798734	0.531061
C86	C	1.244899	-0.671495	0.575915
C87	C	1.193176	-0.717024	0.520296
H88	H	1.236723	-0.605425	0.567243
H89	H	1.304272	-0.687624	0.562092
H90	H	1.231957	-0.687741	0.639634
H91	H	1.206052	-0.700802	0.456559
H92	H	1.133818	-0.700891	0.534187
H93	H	0.633577	-0.472430	0.288906
H94	H	1.149001	-0.289050	0.682503
H95	H	0.978176	-0.472465	0.682449
H96	H	1.148855	-0.681603	0.472568
O97	O	0.639633	-0.281345	0.480727
C98	C	0.663232	-0.243171	0.615248
C99	C	0.620965	-0.298712	0.559508
H100	H	0.648166	-0.257203	0.678954
H101	H	0.648112	-0.179407	0.601543
H102	H	0.724757	-0.251821	0.606507
H103	H	0.559430	-0.290132	0.568218
H104	H	0.636146	-0.362455	0.573226
H105	H	0.978170	-0.681849	0.288985
H106	H	1.196138	-0.238402	0.956101
O107	O	0.970991	-1.085874	0.281135
C108	C	0.929313	-1.213106	0.236345
C109	C	0.981010	-1.167586	0.291998
H110	H	0.937383	-1.279178	0.245121
H111	H	0.942272	-1.196970	0.172602
H112	H	0.869965	-1.196861	0.250152
H113	H	1.040375	-1.183807	0.278263
H114	H	0.967987	-1.183726	0.355725
O115	O	0.923912	-0.962119	0.230515
C116	C	0.882250	-1.089354	0.185714
C117	C	0.933941	-1.043831	0.241372
H118	H	0.890329	-1.155426	0.194485
H119	H	0.895208	-1.073211	0.121972
H120	H	0.822900	-1.073118	0.199522
H121	H	0.993308	-1.060042	0.227635
H122	H	0.920920	-1.059978	0.305097
O123	O	0.923758	-0.799386	0.230377
C124	C	0.830425	-0.808234	0.130038
C125	C	0.882182	-0.853523	0.185745
H126	H	0.796786	-0.851985	0.093951
H127	H	0.864191	-0.769617	0.088679
H128	H	0.791943	-0.769564	0.166292
H129	H	0.920674	-0.892237	0.149555
H130	H	0.848369	-0.892091	0.227107
O131	O	1.203493	-0.230607	0.799739
C132	C	1.245207	-0.185853	0.672577
C133	C	1.193397	-0.241387	0.718010
H134	H	1.237050	-0.194536	0.606491
H135	H	1.304556	-0.199750	0.688766
H136	H	1.232332	-0.122111	0.688847
H137	H	1.206205	-0.305147	0.701764
H138	H	1.134063	-0.227421	0.701817
H139	H	1.149066	-0.288915	1.079915
H140	H	0.494239	-0.289252	0.472667
O141	O	0.970766	-0.480304	1.086232
C142	C	0.877401	-0.580619	1.077488
C143	C	0.929218	-0.525023	1.032141
H144	H	0.843808	-0.616801	1.033775
H145	H	0.838886	-0.544354	1.116112
H146	H	0.911193	-0.621903	1.116158
H147	H	0.895486	-0.483728	0.993429
H148	H	0.967736	-0.561337	0.993568
