data_functionalizedCrystal
_audit_creation_method	'MofGen! by Chris Wilmer'
_symmetry_space_group_name_H-M	'P1'
_symmetry_Int_Tables_number	1
_symmetry_cell_setting	triclinic
loop_
_symmetry_equiv_pos_as_xyz
  x,y,z
_cell_length_a	16.704493
_cell_length_b	20.875790
_cell_length_c	20.875641
_cell_angle_alpha	64.262324
_cell_angle_beta	85.843777
_cell_angle_gamma	59.557308
loop_
_atom_site_label
_atom_site_type_symbol
_atom_site_fract_x
_atom_site_fract_y
_atom_site_fract_z
Zr1	Zr	0.820332	0.660958	-0.094155
O2	O	0.703967	0.782173	-0.180358
O3	O	0.850466	0.535285	-0.071847
O4	O	0.863824	0.653869	-0.195746
O5	O	0.686371	0.670736	0.045960
O6	O	0.996222	0.653347	-0.203201
O7	O	0.690609	0.663589	-0.056458
O8	O	0.972327	0.441223	0.018433
O9	O	0.710267	0.882861	-0.175674
O10	O	0.968816	0.588238	-0.062921
O11	O	0.866847	0.593960	0.019076
O12	O	0.882574	0.733577	-0.126800
O13	O	0.780605	0.739300	-0.044803
Zr14	Zr	1.024734	0.671524	0.057301
Zr15	Zr	1.031492	0.660126	-0.106044
Zr16	Zr	0.813574	0.672355	0.069190
Zr17	Zr	0.830380	0.821543	-0.086684
Zr18	Zr	1.014686	0.510939	0.049831
O19	O	0.994600	0.797197	0.034993
O20	O	1.004209	0.780991	-0.197263
O21	O	0.694358	0.798379	0.051898
O22	O	1.141099	0.550309	0.143504
O23	O	1.150708	0.534103	-0.088752
O24	O	0.840857	0.551491	0.160409
O25	O	1.158694	0.661746	-0.082813
O26	O	0.981242	0.678613	0.158893
O27	O	0.848843	0.679134	0.166347
O28	O	1.154457	0.668892	0.019605
O29	O	0.878111	0.882200	-0.185124
O30	O	0.966955	0.450282	0.148270
O31	O	1.134799	0.449621	0.138820
O32	O	1.140171	0.440562	0.008982
O33	O	0.704895	0.891920	-0.045836
O34	O	0.872739	0.891259	-0.055286
O35	O	0.962492	0.598904	0.089946
O36	O	1.064461	0.593182	0.007949
O37	O	0.978219	0.738522	-0.055929
O38	O	0.876250	0.744244	0.026067
C39	C	0.909965	0.465374	-0.027772
C40	C	0.905699	0.397201	-0.030943
C41	C	0.970812	0.313348	0.017299
C42	C	0.966761	0.249312	0.014318
C43	C	0.897601	0.269131	-0.036910
C44	C	0.832482	0.352993	-0.085155
C45	C	0.836530	0.417027	-0.082169
C46	C	0.878295	0.083177	-0.051170
C47	C	0.874254	0.019134	-0.054153
C48	C	1.008532	-0.084543	0.045321
C49	C	1.012577	-0.020502	0.048299
C50	C	0.947455	0.063354	0.000057
N51	N	0.893461	0.203677	-0.039961
N52	N	0.951591	0.128806	0.003112
C53	C	0.658404	0.667281	-0.003555
C54	C	0.568761	0.667634	0.001492
C55	C	0.404990	0.660407	-0.101877
C56	C	0.320762	0.660739	-0.097137
C57	C	0.316081	0.668623	0.015712
C58	C	0.400309	0.668291	0.010973
C59	C	0.444759	0.664185	-0.047824
C60	C	0.528984	0.663859	-0.052566
C61	C	0.524305	0.671737	0.060286
C62	C	0.440078	0.672068	0.065025
C63	C	1.186662	0.665201	-0.033298
C64	C	1.276304	0.664848	-0.038346
C65	C	0.930986	0.651984	-0.222747
C66	C	0.933855	0.647146	-0.292091
C67	C	0.935101	0.867108	-0.009082
C68	C	0.939366	0.935280	-0.005910
C69	C	0.890187	0.720736	-0.358013
C70	C	0.892895	0.716185	-0.423168
C71	C	0.939266	0.638042	-0.422399
C72	C	0.982939	0.564446	-0.356469
C73	C	0.980237	0.568998	-0.291316
C74	C	0.952182	0.616292	-0.613680
C75	C	0.954879	0.611746	-0.678840
C76	C	0.864835	0.763485	-0.745535
C77	C	0.862132	0.768030	-0.680377
C78	C	0.905810	0.694434	-0.614454
N79	N	0.942032	0.633388	-0.488996
N80	N	0.903049	0.699089	-0.547858
C81	C	0.914080	0.680498	0.185893
C82	C	0.911211	0.685336	0.255238
C83	C	1.174093	0.464334	-0.042643
C84	C	1.259471	0.395808	-0.050862
C85	C	0.901512	0.479631	0.176548
C86	C	0.894377	0.416297	0.242721
C87	C	1.165640	0.478590	0.161677
C88	C	1.248149	0.414904	0.222802
C89	C	0.679425	0.853891	-0.198530
C90	C	0.596917	0.917578	-0.259656
C91	C	0.670972	0.868148	0.005790
C92	C	0.585595	0.936673	0.014008
C93	C	0.943554	0.852851	-0.213402
C94	C	0.950689	0.916185	-0.279575
C95	C	1.249640	0.361047	-0.091722
C96	C	1.329854	0.296668	-0.099459
C97	C	1.419898	0.267047	-0.066331
C98	C	1.429728	0.301815	-0.025469
C99	C	1.349515	0.366197	-0.017737
C100	C	0.940952	0.389136	0.310797
C101	C	0.934245	0.329636	0.372980
C102	C	0.880968	0.297295	0.367086
C103	C	0.834387	0.324461	0.299003
C104	C	0.841089	0.383964	0.236822
C105	C	1.340131	0.382009	0.208706
C106	C	1.417666	0.322176	0.266133
C107	C	1.403215	0.295236	0.337657
C108	C	1.311223	0.328137	0.351753
C109	C	1.233691	0.387973	0.294326
C110	C	0.504935	0.950481	-0.245559
C111	C	0.427402	1.010333	-0.302986
C112	C	0.441853	1.037277	-0.374509
C113	C	0.533845	1.004371	-0.388605
C114	C	0.611376	0.944525	-0.331179
C115	C	0.595427	0.971441	0.054862
C116	C	0.515215	1.035837	0.062582
C117	C	0.425171	1.065459	0.029451
C118	C	0.415340	1.030688	-0.011407
C119	C	0.495552	0.966298	-0.019131
C120	C	1.003973	0.948508	-0.273657
C121	C	1.010695	1.008009	-0.335829
C122	C	0.964127	1.035190	-0.403917
C123	C	0.910840	1.002860	-0.409833
C124	C	0.904124	0.943356	-0.347663
H125	H	1.019782	0.181036	0.053602
H126	H	0.342016	1.054817	-0.038380
O127	O	0.392132	0.676501	0.128438
H128	H	0.326879	0.676103	0.122652
O129	O	0.268130	0.673049	0.079124
H130	H	0.316832	0.618145	0.130204
O131	O	0.998413	0.424017	0.317164
H132	H	1.029658	0.395133	0.374954
O133	O	0.567200	0.675807	0.118594
H134	H	0.633239	0.674882	0.105425
H135	H	0.852420	0.784369	-0.358648
O136	O	0.817744	0.842855	-0.816641
H137	H	0.741097	0.880324	-0.817065
H138	H	1.321832	0.268367	-0.132731
O139	O	0.484939	0.928800	-0.063194
H140	H	0.514753	0.860810	-0.028224
O141	O	0.358226	1.101825	-0.436446
H142	H	0.363353	1.157793	-0.468132
H143	H	0.872926	1.025000	-0.465279
O144	O	0.489326	0.921435	-0.168421
H145	H	0.519485	0.852842	-0.142137
O146	O	1.486842	0.230689	0.399594
H147	H	1.553228	0.212338	0.377768
H148	H	1.054085	1.034326	-0.330997
O149	O	0.452926	0.655993	-0.165297
H150	H	0.518171	0.656406	-0.159515
O151	O	0.549426	1.033429	-0.465750
H152	H	0.480054	1.080562	-0.503307
O153	O	1.054217	0.919188	-0.200224
H154	H	1.092407	0.951659	-0.206567
H155	H	0.857338	0.776110	-0.476843
H156	H	1.027131	0.297201	0.059013
H157	H	0.860730	0.917045	-0.352491
O158	O	0.984498	0.300341	0.446404
H159	H	0.970884	0.253539	0.488659
O160	O	0.873760	0.233102	0.434153
H161	H	0.915114	0.219643	0.482478
O162	O	1.355738	0.411058	0.131568
H163	H	1.286379	0.458189	0.093994
O164	O	0.971360	1.099380	-0.470970
H165	H	1.016228	1.117294	-0.455407
H166	H	1.485205	0.214622	-0.072632
O167	O	0.338655	1.134887	0.037808
H168	H	0.360628	1.154069	0.071797
O169	O	0.328190	1.045798	-0.287768
H170	H	0.320149	1.077197	-0.254271
O171	O	1.087167	-0.041877	0.103555
H172	H	1.131760	-0.110946	0.136605
O173	O	1.526848	0.269858	0.010268
H174	H	1.580964	0.219242	-0.001970
H175	H	1.492563	0.295394	0.254643
H176	H	0.992638	0.548109	-0.678206
H177	H	1.061549	-0.152823	0.084598
H178	H	0.686270	0.917735	-0.342666
O179	O	1.295641	0.299066	0.428897
H180	H	1.365012	0.251923	0.466454
O181	O	1.027389	0.489622	-0.220216
H182	H	1.017748	0.505914	-0.175042
H183	H	0.824375	0.831663	-0.681012
O184	O	1.152526	0.392995	-0.127464
H185	H	1.159182	0.358008	-0.157183
H186	H	1.158796	0.414748	0.305814
H187	H	0.987748	0.556365	-0.560011
O188	O	1.360122	0.403677	0.026348
H189	H	1.436212	0.372251	0.048089
H190	H	0.817935	0.035281	-0.095873
O191	O	0.692543	0.939510	0.090586
H192	H	0.685889	0.974523	0.120278
H193	H	0.523237	1.064137	0.095855
O194	O	1.032952	0.480160	-0.355633
H195	H	1.027487	0.489356	-0.412012
O196	O	0.776956	0.289551	0.292646
H197	H	0.780146	0.243599	0.347323
H198	H	0.825281	0.151447	-0.090462
H199	H	0.803165	0.406070	0.181393
O200	O	0.757895	0.374376	-0.140418
H201	H	0.766028	0.315761	-0.134398
O202	O	0.766309	0.507473	-0.134207
H203	H	0.717545	0.510498	-0.170337
H204	H	0.288385	0.657662	-0.141151
O205	O	0.576934	0.659432	-0.115979
H206	H	0.595561	0.600875	-0.117186
