data_functionalizedCrystal
_audit_creation_method	'MofGen! by Chris Wilmer'
_symmetry_space_group_name_H-M	'P1'
_symmetry_Int_Tables_number	1
_symmetry_cell_setting	triclinic
loop_
_symmetry_equiv_pos_as_xyz
  x,y,z
_cell_length_a	23.096457
_cell_length_b	23.096457
_cell_length_c	20.919309
_cell_angle_alpha	62.592728
_cell_angle_beta	89.999561
_cell_angle_gamma	60.002514
loop_
_atom_site_label
_atom_site_type_symbol
_atom_site_fract_x
_atom_site_fract_y
_atom_site_fract_z
Zr1	Zr	0.560687	0.627995	-0.080854
O2	O	0.471714	0.741844	-0.179239
O3	O	0.587954	0.509338	-0.050697
O4	O	0.592493	0.621059	-0.179246
O5	O	0.463603	0.637271	0.050716
O6	O	0.687775	0.621057	-0.179248
O7	O	0.467174	0.630124	-0.050689
O8	O	0.679656	0.421209	0.050703
O9	O	0.471723	0.837119	-0.179235
O10	O	0.670701	0.559922	-0.037833
O11	O	0.596928	0.565259	0.037847
O12	O	0.602272	0.696795	-0.113504
O13	O	0.528499	0.702131	-0.037824
Zr14	Zr	0.706956	0.639391	0.080873
Zr15	Zr	0.712651	0.627991	-0.080857
Zr16	Zr	0.554991	0.639395	0.080876
Zr17	Zr	0.560702	0.779948	-0.080848
Zr18	Zr	0.706941	0.487439	0.080867
O19	O	0.679689	0.758048	0.050716
O20	O	0.687787	0.741839	-0.179243
O21	O	0.463615	0.758053	0.050721
O22	O	0.795929	0.525542	0.179258
O23	O	0.804028	0.509333	-0.050702
O24	O	0.579855	0.525548	0.179263
O25	O	0.804040	0.630115	-0.050697
O26	O	0.675150	0.646327	0.179265
O27	O	0.579867	0.646330	0.179267
O28	O	0.800468	0.637263	0.050708
O29	O	0.592514	0.837116	-0.179238
O30	O	0.675128	0.430270	0.179257
O31	O	0.795920	0.430267	0.179254
O32	O	0.800447	0.421206	0.050700
O33	O	0.467196	0.846181	-0.050681
O34	O	0.587987	0.846178	-0.050684
O35	O	0.665371	0.570591	0.113523
O36	O	0.739144	0.565255	0.037843
O37	O	0.670715	0.702128	-0.037827
O38	O	0.596942	0.707464	0.037852
C39	C	0.633803	0.443624	0.000002
C40	C	0.633796	0.379116	-0.000000
C41	C	0.443737	0.633698	0.000014
C42	C	0.379224	0.633700	0.000015
C43	C	0.350889	0.629768	-0.055853
C44	C	0.290277	0.629760	-0.055853
C45	C	0.257994	0.633701	0.000010
C46	C	0.286339	0.637629	0.055888
C47	C	0.346954	0.637628	0.055891
N48	N	0.139051	0.681246	0.016924
N49	N	0.081468	0.681248	0.016917
C50	C	0.075365	0.633701	0.000006
N51	N	0.129014	0.586161	-0.016912
N52	N	0.186601	0.586162	-0.016908
C53	C	0.192267	0.633701	0.000013
C54	C	-0.018693	0.629760	-0.055866
C55	C	-0.079304	0.629747	-0.055861
C56	C	-0.083244	0.637624	0.055878
C57	C	-0.022631	0.637628	0.055876
C58	C	0.009640	0.633700	0.000000
C59	C	0.640946	0.619434	-0.202290
C60	C	0.643364	0.614594	-0.270949
C61	C	0.823906	0.633688	0.000005
C62	C	0.888419	0.633687	0.000004
C63	C	0.684321	0.300267	0.055859
C64	C	0.684326	0.239645	0.055866
C65	C	0.633811	0.257878	0.000002
C66	C	0.583277	0.336741	-0.055861
C67	C	0.583269	0.397360	-0.055863
N68	N	0.620265	0.197098	-0.066244
N69	N	0.620277	0.139509	-0.066240
C70	C	0.633830	0.075239	0.000004
N71	N	0.647385	0.070724	0.066247
N72	N	0.647377	0.128317	0.066243
C73	C	0.633813	0.192152	-0.000002
C74	C	0.684363	-0.069346	0.055875
C75	C	0.684363	-0.129967	0.055883
C76	C	0.583316	-0.032869	-0.055851
C77	C	0.583314	0.027749	-0.055852
C78	C	0.633840	0.009505	0.000010
C79	C	0.633840	0.823763	0.000017
C80	C	0.633847	0.888271	0.000019
C81	C	0.608782	0.683765	-0.342704
C82	C	0.611062	0.679213	-0.407213
C83	C	0.647922	0.605490	-0.399966
C84	C	0.682508	0.536314	-0.328203
C85	C	0.680231	0.540866	-0.263695
C86	C	0.656588	0.588169	-0.592762
C87	C	0.658861	0.583621	-0.657277
C88	C	0.587416	0.726521	-0.736283
C89	C	0.585139	0.731068	-0.671770
C90	C	0.619728	0.661892	-0.600013
C91	C	0.650252	0.600835	-0.465904
C92	C	0.617401	0.666547	-0.534077
C93	C	0.626697	0.647953	0.202309
C94	C	0.624279	0.652792	0.270968
C95	C	0.823887	0.443619	-0.000002
C96	C	0.888393	0.379109	-0.000006
C97	C	0.626678	0.457883	0.202302
C98	C	0.624254	0.398215	0.270958
C99	C	0.816763	0.457878	0.202298
C100	C	0.878851	0.398208	0.270952
C101	C	0.450880	0.809508	-0.202279
C102	C	0.388792	0.869178	-0.270933
C103	C	0.443756	0.823768	0.000021
C104	C	0.379249	0.888277	0.000025
C105	C	0.640965	0.809503	-0.202283
C106	C	0.643389	0.869172	-0.270939
C107	C	0.882960	0.346031	-0.039517
C108	C	0.943565	0.285425	-0.039535
C109	C	1.009603	0.257894	-0.000038
C110	C	1.015035	0.290979	0.039474
C111	C	0.954431	0.351588	0.039487
C112	C	0.658842	0.372978	0.342709
C113	C	0.656561	0.316922	0.407225
C114	C	0.619696	0.286100	0.399988
C115	C	0.585104	0.311342	0.328230
C116	C	0.587381	0.367401	0.263716
C117	C	0.946524	0.367401	0.263689
C118	C	1.004869	0.311343	0.328192
C119	C	0.995539	0.286089	0.399956
C120	C	0.927860	0.316902	0.407217
C121	C	0.869516	0.372963	0.342716
C122	C	0.321119	0.899992	-0.263670
C123	C	0.262774	0.956069	-0.328173
C124	C	0.272103	0.981327	-0.399937
C125	C	0.339783	0.950510	-0.407198
C126	C	0.398127	0.894438	-0.342697
C127	C	0.384683	0.921361	0.039529
C128	C	0.324078	0.981983	0.039530
C129	C	0.258040	1.009515	0.000031
C130	C	0.252608	0.976428	-0.039478
C131	C	0.313213	0.915812	-0.039483
C132	C	0.680260	0.899976	-0.263679
C133	C	0.682552	0.956033	-0.328182
C134	C	0.647967	0.981289	-0.399945
C135	C	0.611095	0.950478	-0.407204
C136	C	0.608808	0.894418	-0.342702
H137	H	0.377163	0.626566	-0.101349
H138	H	0.582938	0.971050	-0.465643
H139	H	0.542174	0.091953	-0.101343
O140	O	0.955721	0.391808	0.194039
C141	C	1.027966	0.352543	0.201476
H142	H	1.058264	0.331694	0.259008
H143	H	1.038053	0.394706	0.155158
H144	H	1.046002	0.299479	0.196275
O145	O	0.733433	0.163007	0.110031
C146	C	0.773055	0.122410	0.075834
H147	H	0.741383	0.154602	0.014819
H148	H	0.786217	0.059829	0.107918
H149	H	0.823602	0.119971	0.077114
O150	O	0.959625	0.383695	0.077938
C151	C	0.924856	0.372759	0.133402
H152	H	0.884119	0.364063	0.116791
H153	H	0.897794	0.426918	0.138213
H154	H	0.964538	0.318454	0.190052
H155	H	0.708391	0.484540	-0.205269
O156	O	0.650062	1.035823	-0.462655
C157	C	0.581361	1.102914	-0.505866
H158	H	0.542554	1.085615	-0.491773
H159	H	0.576544	1.127846	-0.568444
H160	H	0.569433	1.149533	-0.492323
O161	O	0.329329	1.014229	0.077799
C162	C	0.298283	1.095588	0.027105
H163	H	0.297582	1.107995	-0.032414
H164	H	0.329836	1.114201	0.044243
H165	H	0.242327	1.130356	0.028495
O166	O	0.463911	0.864461	-0.349623
C167	C	0.513415	0.809543	-0.277311
H168	H	0.488299	0.822488	-0.234534
H169	H	0.560175	0.814429	-0.278034
H170	H	0.531802	0.747304	-0.260890
O171	O	0.818780	0.372905	-0.077944
C172	C	0.783465	0.453925	-0.133392
H173	H	0.806027	0.480799	-0.116781
H174	H	0.725300	0.484993	-0.138176
H175	H	0.790509	0.461496	-0.190054
H176	H	0.208698	1.058874	0.000041
H177	H	0.313509	0.879431	-0.205242
O178	O	0.188401	1.003243	-0.077775
C179	C	0.136084	1.063849	-0.069305
H180	H	0.157843	1.057649	-0.015955
H181	H	0.089178	1.059254	-0.064766
H182	H	0.118925	1.123648	-0.120343
H183	H	0.688861	0.398068	0.348615
O184	O	0.733429	0.282409	0.110200
C185	C	0.778036	0.199809	0.159494
H186	H	0.749855	0.171795	0.156836
H187	H	0.792860	0.184847	0.219606
H188	H	0.827462	0.175991	0.141900
O189	O	0.012733	0.625974	-0.110100
C190	C	0.072317	0.626804	-0.098112
H191	H	0.066494	0.655005	-0.063817
H192	H	0.077585	0.662344	-0.154829
H193	H	0.121052	0.563738	-0.065995
O194	O	0.262817	0.625973	-0.110202
C195	C	0.304309	0.622482	-0.159505
H196	H	0.334537	0.648447	-0.156843
H197	H	0.269145	0.657786	-0.219615
H198	H	0.342797	0.558391	-0.141924
H199	H	0.578780	0.869343	-0.348624
O200	O	0.197084	0.985887	-0.320975
C201	C	0.201368	0.951572	-0.243801
H202	H	0.254246	0.892562	-0.209417
H203	H	0.157581	0.941755	-0.234803
H204	H	0.195742	0.992650	-0.224777
O205	O	0.803731	0.402986	0.349642
C206	C	0.754228	0.457867	0.277330
H207	H	0.779340	0.481378	0.234556
H208	H	0.707463	0.508898	0.278058
H209	H	0.735849	0.427705	0.260902
H210	H	1.068812	0.268554	0.071630
O211	O	0.215349	1.035772	-0.462513
C212	C	0.153622	1.057560	-0.440704
H213	H	0.165446	1.008591	-0.381158
H214	H	0.112243	1.067281	-0.481451
H215	H	0.133261	1.114426	-0.441868
H216	H	0.587394	0.726572	-0.539975
H217	H	0.370025	0.640830	0.101387
H218	H	0.578762	0.743799	-0.348614
O219	O	0.690235	0.292464	0.476868
C220	C	0.723252	0.331699	0.469412
H221	H	0.732624	0.352609	0.411842
H222	H	0.775541	0.289494	0.515671
H223	H	0.688291	0.384720	0.474695
H224	H	0.555089	0.286239	0.322349
O225	O	0.254886	0.641598	0.110059
C226	C	0.185763	0.709708	0.075870
H227	H	0.181430	0.754918	0.017938
H228	H	0.171941	0.735975	0.112686
H229	H	0.148024	0.693306	0.069341
H230	H	0.559217	0.387941	0.205296
O231	O	0.938153	0.253352	-0.077925
C232	C	0.866870	0.290658	-0.112785
H233	H	0.833469	0.317813	-0.081788
H234	H	0.858336	0.245343	-0.110657
H235	H	0.851163	0.338984	-0.174099
H236	H	0.347371	0.971082	-0.465637
O237	O	0.448774	0.894739	0.077914
C238	C	0.440559	0.936936	0.112791
H239	H	0.387566	0.996190	0.081805
H240	H	0.484110	0.947228	0.110665
H241	H	0.443358	0.901514	0.174105
H242	H	1.043052	0.240439	0.452471
H243	H	0.308778	0.888876	-0.071650
H244	H	0.542147	0.351582	-0.101345
O245	O	1.070619	0.281505	0.321160
C246	C	1.106676	0.298779	0.356107
H247	H	1.067243	0.352102	0.359098
H248	H	1.141378	0.312442	0.321876
H249	H	1.140564	0.245762	0.415603
H250	H	0.920274	0.296331	0.465657
O251	O	0.534158	0.473916	-0.110204
C252	C	0.489558	0.477016	-0.159498
H253	H	0.517746	0.418607	-0.156840
H254	H	0.474733	0.527002	-0.219610
H255	H	0.440132	0.487945	-0.141906
H256	H	-0.102372	0.626540	-0.101354
O257	O	0.713924	0.875508	-0.194029
C258	C	0.746943	0.914739	-0.201468
H259	H	0.756319	0.935655	-0.259036
H260	H	0.799229	0.872528	-0.155205
H261	H	0.711981	0.967755	-0.196179
H262	H	-0.109526	0.640828	0.101366
H263	H	0.617848	0.240454	0.452526
O264	O	0.718358	0.986017	-0.321255
C265	C	0.712955	1.040926	-0.393570
H266	H	0.700803	1.027962	-0.436339
H267	H	0.764596	1.036049	-0.392840
H268	H	0.669098	1.103166	-0.410006
O269	O	0.004797	0.641596	0.110083
C270	C	-0.045158	0.711863	0.106555
H271	H	-0.084388	0.757007	0.047634
H272	H	-0.017581	0.736433	0.119304
H273	H	-0.073899	0.698971	0.149872
O274	O	0.733467	-0.087197	0.110217
C275	C	0.778070	-0.169797	0.159518
H276	H	0.749888	-0.197809	0.156861
H277	H	0.792888	-0.184752	0.219628
H278	H	0.827499	-0.193621	0.141932
O279	O	0.549431	0.802635	-0.678711
C280	C	0.595847	0.809555	-0.643773
H281	H	0.643153	0.748204	-0.599816
H282	H	0.567909	0.842985	-0.615122
H283	H	0.614012	0.843072	-0.688127
O284	O	0.733356	-0.206572	0.110210
C285	C	0.699799	-0.241908	0.151082
H286	H	0.645556	-0.194247	0.145618
H287	H	0.732206	-0.284646	0.213088
H288	H	0.694501	-0.275406	0.127592
H289	H	0.542185	-0.018022	-0.101335
H290	H	0.582904	0.735539	-0.465638
H291	H	0.712524	0.476286	-0.322307
O292	O	0.553938	0.793692	-0.806002
C293	C	0.602990	0.795322	-0.845684
H294	H	0.657433	0.756146	-0.803825
H295	H	0.588166	0.858462	-0.881353
H296	H	0.603035	0.772679	-0.883963
O297	O	0.690089	0.520945	-0.523086
C298	C	0.662502	0.476374	-0.514848
H299	H	0.607366	0.516944	-0.555695
H300	H	0.660468	0.446944	-0.454507
H301	H	0.697362	0.429194	-0.527678
O302	O	1.068400	0.198985	-0.000102
C303	C	1.049435	0.175711	-0.043461
H304	H	0.993588	0.192213	-0.046422
H305	H	1.086752	0.109133	-0.016117
H306	H	1.052630	0.206964	-0.102904
H307	H	0.688876	0.523584	-0.651368
H308	H	0.680263	0.540809	-0.460010
