data_functionalizedCrystal
_audit_creation_method	'MofGen! by Chris Wilmer'
_symmetry_space_group_name_H-M	'P1'
_symmetry_Int_Tables_number	1
_symmetry_cell_setting	triclinic
loop_
_symmetry_equiv_pos_as_xyz
  x,y,z
_cell_length_a	21.295418
_cell_length_b	21.295417
_cell_length_c	21.295120
_cell_angle_alpha	89.638316
_cell_angle_beta	89.913853
_cell_angle_gamma	90.046319
loop_
_atom_site_label
_atom_site_type_symbol
_atom_site_fract_x
_atom_site_fract_y
_atom_site_fract_z
Zn1	Zn	0.962621	-0.248301	-0.356246
Zn2	Zn	0.962445	-0.354178	-0.250968
Zn3	Zn	0.857266	-0.248955	-0.250952
Zn4	Zn	0.857314	-0.353566	-0.356168
O5	O	0.909911	-0.301250	-0.303583
O6	O	1.050687	-0.262328	-0.342320
O7	O	0.948399	-0.340750	-0.162873
O8	O	0.871295	-0.160779	-0.264946
O9	O	1.050558	-0.340115	-0.264972
O10	O	0.948699	-0.160298	-0.342305
O11	O	0.871125	-0.263443	-0.162862
O12	O	0.769183	-0.262850	-0.264870
O13	O	0.871377	-0.339072	-0.444271
O14	O	0.769218	-0.339707	-0.342171
O15	O	0.948746	-0.261734	-0.444328
O16	O	0.948446	-0.442186	-0.264896
O17	O	0.871206	-0.441736	-0.342187
C18	C	0.909829	-0.464802	-0.303548
C19	C	0.909851	-0.534770	-0.303555
C20	C	0.746360	-0.301283	-0.303511
C21	C	0.676392	-0.301313	-0.303495
C22	C	0.643560	-0.341386	-0.343685
C23	C	0.577817	-0.341370	-0.343714
C24	C	0.544909	-0.301288	-0.303540
C25	C	0.577749	-0.261207	-0.263347
C26	C	0.643490	-0.261220	-0.263324
N27	N	0.441592	-0.296688	-0.248481
N28	N	0.379141	-0.296680	-0.248504
C29	C	0.346835	-0.301248	-0.303607
N30	N	0.379339	-0.305836	-0.358687
N31	N	0.441796	-0.305847	-0.358663
C32	C	0.473624	-0.301270	-0.303560
C33	C	0.242717	-0.341306	-0.343832
C34	C	0.176973	-0.341286	-0.343861
C35	C	0.176907	-0.261126	-0.263488
C36	C	0.242649	-0.261143	-0.263464
C37	C	0.275550	-0.301236	-0.303635
C38	C	0.950106	-0.567849	-0.263351
C39	C	0.950135	-0.633592	-0.263365
C40	C	0.909899	-0.666252	-0.303576
C41	C	0.869642	-0.633165	-0.343788
C42	C	0.869618	-0.567423	-0.343777
N43	N	0.854836	-0.769506	-0.308351
N44	N	0.854860	-0.831957	-0.308358
C45	C	0.909970	-0.864327	-0.303612
N46	N	0.965055	-0.831886	-0.298848
N47	N	0.965030	-0.769428	-0.298838
C48	C	0.909921	-0.737537	-0.303593
C49	C	0.950259	-0.968692	-0.263422
C50	C	0.950290	-1.034435	-0.263441
C51	C	0.869791	-1.034007	-0.343860
C52	C	0.869766	-0.968264	-0.343845
C53	C	0.909999	-0.935611	-0.303622
C54	C	1.074102	-0.301217	-0.303656
C55	C	1.144070	-0.301202	-0.303688
C56	C	0.910086	-0.300262	-0.467779
C57	C	0.910160	-0.299841	-0.537750
C58	C	0.910012	-0.137059	-0.303632
C59	C	0.910054	-0.067091	-0.303653
C60	C	0.909774	-0.302188	-0.140026
C61	C	0.909821	-0.302432	-0.070056
C62	C	0.949825	-0.261712	-0.037730
C63	C	0.949871	-0.261394	0.028011
C64	C	0.909903	-0.301789	0.061423
C65	C	0.869897	-0.342517	0.029088
C66	C	0.869856	-0.342838	-0.036651
N67	N	0.854898	-0.306525	0.164815
N68	N	0.854938	-0.306216	0.227264
C69	C	0.910024	-0.300825	0.259491
N70	N	0.965069	-0.295742	0.226910
N71	N	0.965028	-0.296048	0.164454
C72	C	0.909943	-0.301446	0.132706
C73	C	0.950081	-0.259758	0.363101
C74	C	0.950128	-0.259445	0.428843
C75	C	0.870148	-0.340564	0.429919
C76	C	0.870107	-0.340881	0.364179
C77	C	0.910072	-0.300475	0.330774
H78	H	0.670344	-0.374032	-0.376397
C79	C	0.994050	-0.215317	0.326354
N80	N	1.027169	-0.181845	0.298677
H81	H	0.150243	-0.373917	-0.376593
C82	C	0.994417	-0.669987	-0.219133
N83	N	1.027768	-0.697397	-0.185815
C84	C	0.825380	-0.669092	-0.388018
N85	N	0.792040	-0.696153	-0.421334
H86	H	0.551080	-0.374002	-0.376444
C87	C	0.994136	-0.214646	0.464402
N88	N	1.027282	-0.180901	0.491185
C89	C	0.825532	-1.069929	-0.388094
N90	N	0.792195	-1.096989	-0.421414
C91	C	0.825843	-0.387631	-0.072211
N92	N	0.792690	-0.421368	-0.098996
C93	C	0.993793	-0.217269	-0.074471
N94	N	1.026911	-0.183795	-0.102146
H95	H	0.836984	-0.941329	-0.376580
H96	H	0.269507	-0.373949	-0.376544
H97	H	0.983022	-0.942104	-0.230672
H98	H	0.550951	-0.228571	-0.230638
H99	H	0.837608	-0.373457	0.457122
H100	H	0.836837	-0.540489	-0.376516
C101	C	0.825930	-0.386950	0.065842
N102	N	0.792814	-0.420420	0.093525
H103	H	0.150114	-0.228488	-0.230781
C104	C	0.993876	-0.216594	0.063577
N105	N	1.027020	-0.182850	0.090364
C106	C	0.278766	-0.217065	-0.219245
N107	N	0.305968	-0.183862	-0.185937
C108	C	0.826092	-0.385670	0.328618
N109	N	0.792939	-0.419407	0.301834
H110	H	0.983074	-1.061367	-0.230703
C111	C	0.994357	-0.531934	-0.219098
N112	N	1.027685	-0.504882	-0.185764
C113	C	0.679607	-0.217138	-0.219106
N114	N	0.706810	-0.183936	-0.185798
