data_functionalizedCrystal
_audit_creation_method	'MofGen! by Chris Wilmer'
_symmetry_space_group_name_H-M	'P1'
_symmetry_Int_Tables_number	1
_symmetry_cell_setting	triclinic
loop_
_symmetry_equiv_pos_as_xyz
  x,y,z
_cell_length_a	12.759401
_cell_length_b	18.215405
_cell_length_c	12.759393
_cell_angle_alpha	89.963343
_cell_angle_beta	89.982824
_cell_angle_gamma	90.025046
loop_
_atom_site_label
_atom_site_type_symbol
_atom_site_fract_x
_atom_site_fract_y
_atom_site_fract_z
Zn1	Zn	1.606167	-0.292944	-0.593937
Zn2	Zn	1.606034	-0.416029	-0.418239
Zn3	Zn	1.430473	-0.292981	-0.418277
Zn4	Zn	1.430427	-0.415974	-0.593881
O5	O	1.518275	-0.354482	-0.506084
O6	O	1.753171	-0.309279	-0.570639
O7	O	1.582710	-0.399744	-0.271223
O8	O	1.453855	-0.189992	-0.441618
O9	O	1.753073	-0.399709	-0.441554
O10	O	1.582936	-0.189965	-0.570675
O11	O	1.453726	-0.309342	-0.271251
O12	O	1.283446	-0.309289	-0.441563
O13	O	1.453775	-0.399616	-0.740909
O14	O	1.283412	-0.399651	-0.570578
O15	O	1.582891	-0.309226	-0.740951
O16	O	1.582665	-0.519006	-0.441499
O17	O	1.453646	-0.518966	-0.570542
C18	C	1.245308	-0.354468	-0.506069
C19	C	1.128531	-0.354480	-0.506088
C20	C	1.073679	-0.401607	-0.573155
C21	C	0.963955	-0.401617	-0.573167
C22	C	0.963945	-0.307370	-0.439035
C23	C	1.073667	-0.307357	-0.439029
C24	C	1.073684	-0.456023	-0.650592
C25	C	0.963960	-0.456032	-0.650604
C26	C	1.518165	-0.545688	-0.506033
C27	C	1.518213	-0.627487	-0.506047
C28	C	1.585551	-0.815678	-0.438977
C29	C	1.585598	-0.892536	-0.439003
C30	C	1.451135	-0.892534	-0.573265
C31	C	1.451094	-0.815677	-0.573244
C32	C	1.518300	-0.777251	-0.506094
C33	C	1.518388	-0.930967	-0.506141
C34	C	1.518439	-1.014300	-0.506169
C35	C	1.518251	-0.693912	-0.506067
C36	C	1.792309	-0.354496	-0.506098
C37	C	1.909085	-0.354502	-0.506105
C38	C	1.518343	-0.354411	-0.780117
C39	C	1.518371	-0.354380	-0.896894
C40	C	1.518415	-0.162529	-0.506157
C41	C	1.518475	-0.080730	-0.506189
C42	C	1.451163	-0.401424	-0.951736
C43	C	1.451202	-0.401397	-1.061460
C44	C	1.585659	-0.307277	-1.061490
C45	C	1.585625	-0.307308	-0.951768
C46	C	1.373532	-0.455761	-0.951719
C47	C	1.373570	-0.455735	-1.061443
C48	C	1.518269	-0.354500	-0.233116
C49	C	1.518444	-0.354323	-0.116340
H50	H	1.107685	-0.510135	-0.621300
H51	H	1.640276	-0.784393	-0.384302
H52	H	1.103494	-0.440824	-0.732001
H53	H	0.919262	-0.269003	-0.384439
H54	H	1.640363	-0.269008	-0.907120
O55	O	1.378555	-0.774228	-0.645643
H56	H	1.389828	-0.714329	-0.634355
H57	H	1.640361	-0.923820	-0.384351
H58	H	1.640416	-0.268953	-1.106183
O59	O	0.924462	-0.531507	-0.621533
H60	H	0.876108	-0.527769	-0.549407
O61	O	1.402289	-0.531296	-0.912310
H62	H	1.474422	-0.527698	-0.863982
O63	O	1.271158	-0.428723	-0.906643
H64	H	1.275353	-0.429857	-0.819769
O65	O	1.378629	-0.933979	-0.645670
H66	H	1.389942	-0.993879	-0.634398
H67	H	0.929965	-0.435688	-0.727959
O68	O	1.412112	-0.527447	-1.106511
H69	H	1.432511	-0.565490	-1.041671
H70	H	1.292222	-0.440452	-1.091229
H71	H	1.118324	-0.268977	-0.384424
