data_functionalizedCrystal
_audit_creation_method	'MofGen! by Chris Wilmer'
_symmetry_space_group_name_H-M	'P1'
_symmetry_Int_Tables_number	1
_symmetry_cell_setting	triclinic
loop_
_symmetry_equiv_pos_as_xyz
  x,y,z
_cell_length_a	16.992694
_cell_length_b	19.288865
_cell_length_c	18.366186
_cell_angle_alpha	90.011479
_cell_angle_beta	90.003288
_cell_angle_gamma	86.902236
loop_
_atom_site_label
_atom_site_type_symbol
_atom_site_fract_x
_atom_site_fract_y
_atom_site_fract_z
O1	O	-1.039876	-0.147253	-0.060473
O2	O	-0.706543	0.186080	0.272861
O3	O	-0.373210	0.519414	0.606194
O4	O	-0.811597	-0.145638	-0.060494
O5	O	-0.478263	0.187696	0.272839
O6	O	-0.144930	0.521029	0.606173
O7	O	-0.932333	-0.045699	-0.060468
O8	O	-0.598999	0.287634	0.272865
O9	O	-0.265666	0.620967	0.606198
O10	O	-0.919140	-0.247191	-0.060498
O11	O	-0.585807	0.086142	0.272835
O12	O	-0.252474	0.419475	0.606168
O13	O	-0.932312	-0.045693	0.060631
O14	O	-0.598979	0.287640	0.393964
O15	O	-0.265646	0.620974	0.727298
O16	O	-0.811576	-0.145631	0.060605
O17	O	-0.478243	0.187702	0.393939
O18	O	-0.144910	0.521035	0.727272
O19	O	-1.039856	-0.147247	0.060627
O20	O	-0.706522	0.186087	0.393960
O21	O	-0.373189	0.519420	0.727293
Zn22	Zn	-0.925713	-0.146438	0.079843
Zn23	Zn	-0.592379	0.186895	0.413176
Zn24	Zn	-0.259046	0.520229	0.746510
Zn25	Zn	-0.925740	-0.146446	-0.079711
Zn26	Zn	-0.592406	0.186887	0.253623
Zn27	Zn	-0.259073	0.520220	0.586956
O28	O	-0.919120	-0.247185	0.060601
O29	O	-0.585786	0.086149	0.393934
O30	O	-0.252453	0.419482	0.727268
C31	C	-0.782381	-0.143556	0.000053
C32	C	-0.449048	0.189777	0.333386
C33	C	-0.115715	0.523110	0.666720
C34	C	-0.695359	-0.137355	0.000046
C35	C	-0.362026	0.195978	0.333379
C36	C	-0.028692	0.529311	0.666712
C37	C	-0.931898	-0.019795	0.000083
C38	C	-0.598565	0.313538	0.333417
C39	C	-0.265231	0.646872	0.666750
C40	C	-0.930624	0.057383	0.000090
C41	C	-0.597290	0.390716	0.333423
C42	C	-0.263957	0.724049	0.666756
C43	C	-1.069071	-0.149328	0.000078
C44	C	-0.735738	0.184005	0.333411
C45	C	-0.402405	0.517339	0.666745
C46	C	-1.156093	-0.155529	0.000081
C47	C	-0.822760	0.177805	0.333414
C48	C	-0.489427	0.511138	0.666747
C49	C	-0.644907	-0.197184	0.000037
C50	C	-0.311574	0.136150	0.333371
C51	C	0.021759	0.469483	0.666704
C52	C	-0.563141	-0.191353	0.000048
C53	C	-0.229808	0.141980	0.333382
C54	C	0.103526	0.475313	0.666715
C55	C	-0.531829	-0.125694	0.000062
C56	C	-0.198495	0.207639	0.333396
C57	C	0.134838	0.540972	0.666729
C58	C	-0.582287	-0.065862	0.000073
C59	C	-0.248953	0.267472	0.333406
C60	C	0.084380	0.600805	0.666740
C61	C	-0.664051	-0.071693	0.000067
C62	C	-0.330718	0.261641	0.333400
C63	C	0.002615	0.594974	0.666734
C64	C	-0.288316	-0.101527	0.000085
C65	C	0.045017	0.231806	0.333419
C66	C	0.378351	0.565140	0.666752
C67	C	-0.206545	-0.095701	0.000089
C68	C	0.126788	0.237633	0.333422
C69	C	0.460121	0.570966	0.666756
C70	C	-0.187405	-0.221193	0.000066
C71	C	0.145928	0.112140	0.333399
C72	C	0.479261	0.445474	0.666732
C73	C	-0.269172	-0.227018	0.000056
C74	C	0.064161	0.106315	0.333389
C75	C	0.397495	0.439648	0.666722
C76	C	-0.319623	-0.167186	0.000070
C77	C	0.013710	0.166148	0.333403
C78	C	0.347043	0.499481	0.666737
N79	N	-0.448251	-0.119733	0.000071
N80	N	-0.114917	0.213600	0.333405
N81	N	0.218416	0.546934	0.666738
N82	N	-0.403199	-0.173147	0.000066
N83	N	-0.069866	0.160186	0.333400
N84	N	0.263467	0.493519	0.666733
C85	C	-0.919555	-0.273089	0.000048
C86	C	-0.586221	0.060244	0.333381
C87	C	-0.252888	0.393577	0.666714
C88	C	-0.920829	-0.350267	0.000036
C89	C	-0.587495	-0.016934	0.333370
C90	C	-0.254162	0.316400	0.666703
N91	N	-0.925700	-0.146432	0.188734
N92	N	-0.592367	0.186901	0.522068
N93	N	-0.259033	0.520235	0.855401
C94	C	-1.001466	0.097950	0.000100
C95	C	-0.668133	0.431284	0.333433
C96	C	-0.334799	0.764617	0.666767
C97	C	-1.000269	0.170467	0.000088
C98	C	-0.666936	0.503801	0.333422
C99	C	-0.333602	0.837134	0.666755
C100	C	-0.928225	0.202413	0.000081
C101	C	-0.594892	0.535747	0.333414
C102	C	-0.261559	0.869080	0.666748
C103	C	-0.857374	0.161837	0.000067
C104	C	-0.524040	0.495170	0.333400
C105	C	-0.190707	0.828503	0.666734
C106	C	-0.858573	0.089321	0.000071
C107	C	-0.525239	0.422655	0.333404
C108	C	-0.191906	0.755988	0.666738
C109	C	-0.871584	0.314004	0.042494
C110	C	-0.538250	0.647337	0.375828
C111	C	-0.204917	0.980670	0.709161
C112	C	-0.870387	0.386518	0.042494
C113	C	-0.537054	0.719851	0.375828
C114	C	-0.203721	1.053185	0.709161
C115	C	-0.924524	0.426075	0.000064
C116	C	-0.591191	0.759408	0.333398
C117	C	-0.257857	1.092741	0.666731
C118	C	-0.979870	0.393109	-0.042356
C119	C	-0.646537	0.726443	0.290977
C120	C	-0.313203	1.059776	0.624310
C121	C	-0.981069	0.320594	-0.042352
C122	C	-0.647736	0.653927	0.290981
C123	C	-0.314402	0.987261	0.624315
C124	C	-0.926917	0.281044	0.000076
C125	C	-0.593584	0.614377	0.333409
C126	C	-0.260250	0.947710	0.666743
C127	C	-0.994073	0.545274	0.000061
C128	C	-0.660740	0.878607	0.333394
C129	C	-0.327406	1.211940	0.666728
C130	C	-0.992873	0.617792	0.000045
C131	C	-0.659540	0.951125	0.333378
C132	C	-0.326206	1.284458	0.666712
C133	C	-0.849976	0.609160	0.000031
C134	C	-0.516642	0.942493	0.333364
C135	C	-0.183309	1.275826	0.666697
C136	C	-0.851178	0.536643	0.000040
C137	C	-0.517844	0.869976	0.333373
C138	C	-0.184511	1.203310	0.666706
C139	C	-0.923229	0.504705	0.000058
C140	C	-0.589895	0.838038	0.333391
C141	C	-0.256562	1.171371	0.666725
N142	N	-0.925759	-0.146447	-0.188602
N143	N	-0.592425	0.186886	0.144732
N144	N	-0.259092	0.520220	0.478065
C145	C	-0.979179	-0.102204	0.226846
C146	C	-0.645846	0.231130	0.560179
C147	C	-0.312513	0.564463	0.893513
C148	C	-0.979184	-0.102201	0.303074
C149	C	-0.645851	0.231133	0.636407
C150	C	-0.312518	0.564466	0.969741
C151	C	-0.925717	-0.146439	0.341187
C152	C	-0.592384	0.186895	0.674520
C153	C	-0.259051	0.520228	1.007854
C154	C	-0.872228	-0.190670	0.303066
C155	C	-0.538895	0.142663	0.636399
C156	C	-0.205561	0.475996	0.969733
C157	C	-0.872219	-0.190667	0.226840
C158	C	-0.538886	0.142667	0.560173
C159	C	-0.205553	0.476000	0.893506
C160	C	-0.915223	-0.209115	0.461937
C161	C	-0.581890	0.124218	0.795271
C162	C	-0.248556	0.457552	1.128604
C163	C	-0.915237	-0.209120	0.538162
C164	C	-0.581904	0.124214	0.871496
C165	C	-0.248571	0.457547	1.204829
C166	C	-0.925740	-0.146449	0.576295
C167	C	-0.592406	0.186885	0.909628
C168	C	-0.259073	0.520218	1.242961
C169	C	-0.936245	-0.083772	0.538192
C170	C	-0.602911	0.249562	0.871526
C171	C	-0.269578	0.582895	1.204859
C172	C	-0.936236	-0.083768	0.461966
C173	C	-0.602903	0.249565	0.795299
C174	C	-0.269569	0.582899	1.128633
C175	C	-0.925721	-0.146447	0.423842
C176	C	-0.592387	0.186886	0.757175
C177	C	-0.259054	0.520220	1.090508
C178	C	-0.979227	-0.102214	0.697061
C179	C	-0.645894	0.231120	1.030395
C180	C	-0.312561	0.564453	1.363728
C181	C	-0.979227	-0.102209	0.773290
C182	C	-0.645894	0.231124	1.106624
C183	C	-0.312560	0.564457	1.439957
C184	C	-0.872274	-0.190685	0.773281
C185	C	-0.538941	0.142648	1.106615
C186	C	-0.205608	0.475982	1.439948
C187	C	-0.872271	-0.190683	0.697053
C188	C	-0.538938	0.142650	1.030387
C189	C	-0.205604	0.475984	1.363720
C190	C	-0.925752	-0.146448	0.658948
C191	C	-0.592418	0.186885	0.992281
C192	C	-0.259085	0.520219	1.325615
H193	H	-0.670395	-0.250650	0.000025
H194	H	-0.337062	0.082683	0.333359
H195	H	-0.003728	0.416016	0.666692
H196	H	-0.827497	0.281802	0.077050
H197	H	-0.494164	0.615136	0.410383
H198	H	-0.160830	0.948469	0.743717
H199	H	-1.022735	-0.066183	0.334110
H200	H	-0.689402	0.267150	0.667444
H201	H	-0.356068	0.600483	1.000777
H202	H	-1.026132	0.293756	-0.076894
H203	H	-0.692799	0.627090	0.256440
H204	H	-0.359465	0.960423	0.589773
F205	F	-0.815366	-0.237762	0.813840
F206	F	-0.482033	0.095571	1.147174
F207	F	-0.148700	0.428905	1.480507
H208	H	-0.556786	-0.012400	0.000095
H209	H	-0.223452	0.320933	0.333428
H210	H	0.109881	0.654266	0.666761
H211	H	-0.705129	-0.022974	0.000074
H212	H	-0.371796	0.310360	0.333407
H213	H	-0.038462	0.643693	0.666740
H214	H	-0.906689	-0.260155	0.569179
H215	H	-0.573355	0.073178	0.902513
H216	H	-0.240022	0.406511	1.235846
F217	F	-1.078149	0.063963	0.000104
F218	F	-0.744816	0.397297	0.333437
F219	F	-0.411483	0.730630	0.666771
H220	H	-1.052741	0.519268	0.000073
H221	H	-0.719408	0.852601	0.333406
H222	H	-0.386075	1.185935	0.666739
F223	F	-0.509450	-0.255031	0.000036
F224	F	-0.176116	0.078302	0.333370
F225	F	0.157217	0.411635	0.666703
F226	F	-0.342000	-0.037847	0.000101
F227	F	-0.008666	0.295486	0.333434
F228	F	0.324667	0.628820	0.666767
F229	F	-0.947428	-0.017068	0.578769
F230	F	-0.614095	0.316266	0.912102
F231	F	-0.280761	0.649599	1.245436
H232	H	-0.181054	-0.042230	0.000100
H233	H	0.152279	0.291103	0.333433
H234	H	0.485612	0.624436	0.666766
F235	F	-1.075672	0.213651	0.000098
F236	F	-0.742339	0.546984	0.333431
F237	F	-0.409005	0.880317	0.666765
F238	F	-1.037490	0.435203	-0.087518
F239	F	-0.704157	0.768536	0.245815
F240	F	-0.370823	1.101869	0.579149
H241	H	-0.825318	0.413353	0.077032
H242	H	-0.491985	0.746686	0.410365
H243	H	-0.158651	1.080019	0.743698
F244	F	-0.783169	0.046145	0.000060
F245	F	-0.449836	0.379478	0.333393
F246	F	-0.116502	0.712811	0.666727
F247	F	-0.773301	0.643154	0.000019
F248	F	-0.439967	0.976488	0.333353
F249	F	-0.106634	1.309821	0.666686
H250	H	-1.050564	0.650821	0.000049
H251	H	-0.717231	0.984155	0.333382
H252	H	-0.383897	1.317488	0.666716
F253	F	-0.775777	0.493466	0.000032
F254	F	-0.442443	0.826800	0.333365
F255	F	-0.109110	1.160133	0.666698
H256	H	-0.828693	-0.226688	0.334102
H257	H	-0.495360	0.106645	0.667435
H258	H	-0.162027	0.439978	1.000768
H259	H	-0.798715	0.187852	0.000059
H260	H	-0.465382	0.521185	0.333393
H261	H	-0.132049	0.854519	0.666726
F262	F	-1.036094	-0.055123	0.186293
F263	F	-0.702761	0.278210	0.519626
F264	F	-0.369428	0.611544	0.852960
H265	H	-1.022772	-0.066193	0.666035
H266	H	-0.689439	0.267141	0.999368
H267	H	-0.356106	0.600474	1.332701
F268	F	-0.947409	-0.017064	0.421418
F269	F	-0.614076	0.316269	0.754751
F270	F	-0.280743	0.649602	1.088084
H271	H	-1.022774	-0.066190	0.804322
H272	H	-0.689441	0.267144	1.137655
H273	H	-0.356107	0.600477	1.470988
F274	F	-0.815354	-0.237760	0.656489
F275	F	-0.482021	0.095573	0.989822
F276	F	-0.148688	0.428906	1.323156
H277	H	-0.294660	-0.280485	0.000036
H278	H	0.038673	0.052849	0.333369
H279	H	0.372006	0.386182	0.666702
H280	H	-0.906657	-0.260152	0.430896
H281	H	-0.573324	0.073182	0.764230
H282	H	-0.239991	0.406515	1.097563
H283	H	-0.828669	-0.226684	0.195808
H284	H	-0.495336	0.106650	0.529142
H285	H	-0.162003	0.439983	0.862475
H286	H	-0.146320	-0.269905	0.000055
H287	H	0.187014	0.063428	0.333389
H288	H	0.520347	0.396761	0.666722
