data_functionalizedCrystal
_audit_creation_method	'MofGen! by Chris Wilmer'
_symmetry_space_group_name_H-M	'P1'
_symmetry_Int_Tables_number	1
_symmetry_cell_setting	triclinic
loop_
_symmetry_equiv_pos_as_xyz
  x,y,z
_cell_length_a	14.395555
_cell_length_b	14.395555
_cell_length_c	14.395555
_cell_angle_alpha	60.000749
_cell_angle_beta	90.002623
_cell_angle_gamma	60.001260
loop_
_atom_site_label
_atom_site_type_symbol
_atom_site_fract_x
_atom_site_fract_y
_atom_site_fract_z
Zr1	Zr	0.894946	1.016746	-0.121871
O2	O	0.746622	1.210542	-0.270205
O3	O	0.940411	0.822950	-0.076396
O4	O	0.940418	1.016737	-0.270192
O5	O	0.746614	1.016762	0.076458
O6	O	1.093292	1.016730	-0.270184
O7	O	0.746615	1.016755	-0.076409
O8	O	1.093279	0.670081	0.076482
O9	O	0.746627	1.363411	-0.270207
O10	O	1.073894	0.902656	-0.056998
O11	O	0.959805	0.902666	0.057079
O12	O	0.959814	1.130826	-0.171091
O13	O	0.845725	1.130836	-0.057014
Zr14	Zr	1.138760	1.016746	0.121948
Zr15	Zr	1.138762	1.016735	-0.121858
Zr16	Zr	0.894944	1.016757	0.121935
Zr17	Zr	0.894953	1.260555	-0.121874
Zr18	Zr	1.138753	0.772937	0.121952
O19	O	1.093295	1.210542	0.076473
O20	O	1.093298	1.210526	-0.270187
O21	O	0.746620	1.210557	0.076455
O22	O	1.287084	0.822950	0.270283
O23	O	1.287086	0.822935	-0.076378
O24	O	0.940408	0.822966	0.270264
O25	O	1.287092	1.016730	-0.076380
O26	O	1.093288	1.016755	0.270269
O27	O	0.940414	1.016762	0.270261
O28	O	1.287091	1.016737	0.076487
O29	O	0.940428	1.363403	-0.270197
O30	O	1.093278	0.670089	0.270275
O31	O	1.287079	0.670081	0.270285
O32	O	1.287081	0.670072	0.076492
O33	O	0.746625	1.363420	-0.076414
O34	O	0.940427	1.363411	-0.076404
O35	O	1.073892	0.902666	0.171168
O36	O	1.187982	0.902656	0.057091
O37	O	1.073901	1.130826	-0.057002
O38	O	0.959812	1.130836	0.057076
C39	C	1.016844	0.711778	0.000043
C40	C	1.016841	0.608274	0.000045
C41	C	0.954638	0.547688	0.062248
C42	C	0.909556	0.561941	-0.045029
C43	C	1.061895	0.409625	0.107290
C44	C	0.971697	0.623954	-0.107296
C45	C	1.124095	0.471575	0.045100
C46	C	1.079040	0.485875	-0.062241
C47	C	0.711876	1.016760	0.000023
C48	C	0.608369	1.016764	0.000017
C49	C	0.485579	1.141173	-0.062181
C50	C	0.454742	1.078977	-0.107255
C51	C	0.454783	1.078955	0.045082
C52	C	0.578896	0.954568	-0.045119
C53	C	0.578934	0.954564	0.107278
C54	C	0.548170	0.892278	0.062231
C55	C	1.321830	1.016732	0.000055
C56	C	1.425337	1.016728	0.000060
C57	C	1.016855	1.016732	-0.304925
C58	C	1.016856	1.016728	-0.408427
C59	C	1.016862	1.321714	0.000034
C60	C	1.016865	1.425218	0.000033
C61	C	1.079063	0.892319	-0.406807
C62	C	0.971789	0.954515	-0.499835
C63	C	1.124104	0.954537	-0.499827
C64	C	0.909518	1.078924	-0.500092
C65	C	1.061911	1.078928	-0.500069
C66	C	0.954572	1.141214	-0.593115
C67	C	1.016851	1.016760	0.305002
C68	C	1.016850	1.016764	0.408504
C69	C	1.321821	0.711764	0.000060
C70	C	1.425325	0.608256	0.000067
C71	C	1.016842	0.711792	0.305007
C72	C	1.016838	0.608293	0.408510
C73	C	1.321819	0.711778	0.305023
C74	C	1.425322	0.608274	0.408532
C75	C	0.711887	1.321714	-0.304946
C76	C	0.608384	1.425218	-0.408455
C77	C	0.711885	1.321728	0.000018
C78	C	0.608381	1.425236	0.000011
C79	C	1.016864	1.321700	-0.304929
C80	C	1.016868	1.425199	-0.408433
C81	C	1.548117	0.547697	0.062244
C82	C	1.578974	0.409590	0.107299
C83	C	1.578885	0.561988	-0.045040
C84	C	1.454818	0.471449	0.045186
C85	C	1.454733	0.623920	-0.107214
C86	C	1.485516	0.485822	-0.062185
C87	C	0.954628	0.547711	0.406894
C88	C	1.061903	0.409609	0.499919
C89	C	0.909593	0.561948	0.499916
C90	C	1.124176	0.471491	0.500173
C91	C	0.971788	0.623905	0.500155
C92	C	1.079128	0.485812	0.593198
C93	C	1.423704	0.547671	0.531322
C94	C	1.516691	0.409573	0.562122
C95	C	1.516764	0.561844	0.562159
C96	C	1.516946	0.471477	0.437969
C97	C	1.517004	0.623822	0.438009
C98	C	1.610009	0.485734	0.468736
H99	H	0.933498	0.715518	-0.198039
H100	H	1.214768	0.434406	0.083246
N101	N	1.148723	0.450164	-0.132012
H102	H	1.114569	0.530381	-0.212982
H103	H	1.148878	0.379432	-0.131007
N104	N	1.649611	0.611470	-0.095555
H105	H	1.727808	0.552525	-0.037599
H106	H	1.611519	0.703943	-0.117705
N107	N	1.383814	0.745332	-0.227308
H108	H	1.429827	0.780387	-0.261286
H109	H	1.313565	0.814408	-0.226337
N110	N	1.384186	0.421867	0.095819
H111	H	1.306203	0.480292	0.037670
H112	H	1.376570	0.423001	0.165050
H113	H	1.099988	0.318019	0.197990
N114	N	1.649901	0.288198	0.227411
H115	H	1.657078	0.211443	0.234114
H116	H	1.612021	0.303894	0.281987
N117	N	0.921294	0.884886	-0.501091
H118	H	0.899056	0.852499	-0.430853
H119	H	0.979348	0.807793	-0.502164
H120	H	0.818775	1.131468	-0.499276
N121	N	1.581809	0.583561	0.132033
H122	H	1.511172	0.654276	0.130989
H123	H	1.629058	0.616972	0.098787
N124	N	0.383921	1.148616	0.095562
H125	H	0.305738	1.225767	0.037554
H126	H	0.421880	1.180919	0.117783
N127	N	1.515824	0.422008	0.367253
H128	H	1.445432	0.423211	0.359502
H129	H	1.585766	0.329238	0.405638
N130	N	0.885046	0.583600	0.301239
H131	H	0.919229	0.503458	0.300368
H132	H	0.884961	0.654374	0.231627
H133	H	0.460139	1.246371	-0.114861
H134	H	1.131581	0.787124	-0.327043
N135	N	0.649563	0.884965	-0.095721
H136	H	0.719482	0.885442	-0.095457
H137	H	0.603068	0.931628	-0.176472
N138	N	1.451488	0.450102	-0.131917
H139	H	1.405433	0.415183	-0.097764
H140	H	1.522034	0.380567	-0.132140
H141	H	1.100018	0.317987	0.500849
H142	H	0.401226	1.131554	-0.197947
H143	H	1.343944	0.574771	0.556757
N144	N	0.789430	0.611179	-0.095516
H145	H	0.782711	0.610734	-0.165109
H146	H	0.734877	0.703631	-0.117682
N147	N	1.244378	0.421964	0.499100
H148	H	1.243631	0.492629	0.428703
H149	H	1.278465	0.341387	0.498926
N150	N	0.582144	0.752821	0.131920
H151	H	0.628200	0.706005	0.097765
H152	H	0.511567	0.753670	0.132083
N153	N	1.148904	0.450015	0.698682
H154	H	1.229874	0.415105	0.699436
H155	H	1.147899	0.380445	0.768410
H156	H	1.517592	0.317968	0.615605
H157	H	0.933645	0.715560	0.499166
N158	N	0.649839	0.884997	0.227369
H159	H	0.603815	0.932097	0.261333
H160	H	0.720076	0.884821	0.226383
N161	N	1.715490	0.449917	0.434763
H162	H	1.716215	0.415042	0.388678
H163	H	1.785220	0.380316	0.505341
N164	N	0.789456	0.611205	0.501126
H165	H	0.742537	0.633630	0.431635
H166	H	0.755028	0.692212	0.500672
N167	N	1.515768	0.745185	0.367165
H168	H	1.514744	0.780173	0.413224
H169	H	1.445722	0.814324	0.296908
H170	H	0.901890	1.246499	-0.672747
H171	H	1.100053	1.131459	-0.499093
N172	N	1.518018	0.611046	0.633078
H173	H	1.448528	0.633485	0.657566
H174	H	1.517593	0.692036	0.586525
H175	H	0.901964	0.574918	0.114773
N176	N	1.244242	0.884864	-0.501033
H177	H	1.291157	0.790884	-0.431541
H178	H	1.278673	0.930988	-0.500578
