data_functionalizedCrystal
_audit_creation_method	'MofGen! by Chris Wilmer'
_symmetry_space_group_name_H-M	'P1'
_symmetry_Int_Tables_number	1
_symmetry_cell_setting	triclinic
loop_
_symmetry_equiv_pos_as_xyz
  x,y,z
_cell_length_a	6.817900
_cell_length_b	14.125465
_cell_length_c	11.102244
_cell_angle_alpha	94.634221
_cell_angle_beta	108.604870
_cell_angle_gamma	100.398878
loop_
_atom_site_label
_atom_site_type_symbol
_atom_site_fract_x
_atom_site_fract_y
_atom_site_fract_z
V1	V	-4.017262	-0.299974	-0.174747
O2	O	-3.978095	-0.294266	0.009521
O3	O	-3.994678	-0.297920	-0.347574
O4	O	-3.952932	-0.430804	-0.171566
O5	O	-4.020130	-0.160462	-0.167706
V6	V	-4.499609	-0.283287	-0.152764
O7	O	-4.281100	-0.336577	-0.222967
O8	O	-4.685968	-0.246684	-0.104545
O9	O	-4.298986	-0.285342	0.020063
O10	O	-4.656173	-0.288995	-0.337032
O11	O	-4.614137	-0.422799	-0.159805
O12	O	-4.340732	-0.152457	-0.155945
C13	C	-3.846475	-0.293187	-0.389721
C14	C	-3.909191	-0.292380	-0.531006
C15	C	-3.906168	-0.203898	-0.579563
C16	C	-3.965107	-0.203151	-0.712318
C17	C	-4.030082	-0.379374	-0.747949
C18	C	-3.971157	-0.380121	-0.615196
C19	C	-3.868647	-0.102157	-0.558992
C20	C	-3.927587	-0.101409	-0.691747
C21	C	-3.793222	-0.462693	-0.165203
C22	C	-3.822079	-0.569647	-0.163746
C23	C	-3.874973	-0.765470	-0.161074
C24	C	-4.061266	-0.817791	-0.166434
C25	C	-4.090699	-0.926754	-0.164948
C26	C	-3.845532	-0.656497	-0.162561
C27	C	-4.110533	-0.290072	0.062203
C28	C	-4.027055	-0.290885	0.203487
C29	C	-4.163786	-0.120564	-0.162312
C30	C	-4.114166	-0.013608	-0.163763
H31	H	-4.198659	-0.780753	-0.172153
H32	H	-3.737599	-0.802508	-0.155370
C33	C	-4.097709	-0.474566	-0.839518
C34	C	-4.305671	-0.483801	-0.922882
C35	C	-4.368028	-0.571475	-1.007261
H36	H	-4.091265	-0.527454	-0.791750
H37	H	-4.005392	-0.474878	-0.887995
H38	H	-4.397963	-0.483499	-0.874409
H39	H	-4.312169	-0.430935	-0.970679
H40	H	-4.275711	-0.571787	-1.055739
H41	H	-4.361572	-0.624356	-0.959482
H42	H	-4.509128	-0.577749	-1.063841
H43	H	-3.694170	-0.067019	-0.506319
C44	C	-4.014596	-0.055088	-0.506903
C45	C	-3.894513	0.025915	-0.415025
C46	C	-4.028885	0.069305	-0.367024
H47	H	-4.086270	-0.100694	-0.468285
H48	H	-4.115514	-0.034979	-0.575289
H49	H	-3.793633	0.005805	-0.346651
H50	H	-3.822843	0.071543	-0.453612
H51	H	-4.129803	0.089413	-0.435410
H52	H	-4.100552	0.023691	-0.328413
H53	H	-3.947431	0.124275	-0.304689
H54	H	-3.973639	-0.452171	-0.575669
C55	C	-4.128947	-0.063905	-0.745074
C56	C	-4.085359	0.018790	-0.801688
C57	C	-4.270786	0.053370	-0.850828
H58	H	-4.179238	-0.047487	-0.677320
H59	H	-4.234003	-0.112962	-0.807783
H60	H	-3.980338	0.067837	-0.738984
H61	H	-4.035095	0.002396	-0.869458
H62	H	-4.375843	0.004312	-0.913538
H63	H	-4.321064	0.069783	-0.783067
H64	H	-4.241242	0.109476	-0.889257
H65	H	-3.789061	-0.058465	-0.714922
