data_functionalizedCrystal
_audit_creation_method	'MofGen! by Chris Wilmer'
_symmetry_space_group_name_H-M	'P1'
_symmetry_Int_Tables_number	1
_symmetry_cell_setting	triclinic
loop_
_symmetry_equiv_pos_as_xyz
  x,y,z
_cell_length_a	16.959455
_cell_length_b	16.625545
_cell_length_c	16.959447
_cell_angle_alpha	90.030136
_cell_angle_beta	89.980656
_cell_angle_gamma	89.977015
loop_
_atom_site_label
_atom_site_type_symbol
_atom_site_fract_x
_atom_site_fract_y
_atom_site_fract_z
Zn1	Zn	1.208382	0.321008	-0.446961
Zn2	Zn	1.708382	0.821008	0.053039
Zn3	Zn	1.208290	0.455855	-0.314783
Zn4	Zn	1.708290	0.955855	0.185217
Zn5	Zn	1.076205	0.321038	-0.314793
Zn6	Zn	1.576205	0.821038	0.185207
Zn7	Zn	1.076166	0.455800	-0.446916
Zn8	Zn	1.576166	0.955800	0.053084
O9	O	1.142261	0.388425	-0.380863
O10	O	1.642261	0.888425	0.119137
O11	O	1.318981	0.338906	-0.429442
O12	O	1.818981	0.838906	0.070558
O13	O	1.190746	0.438007	-0.204173
O14	O	1.690746	0.938007	0.295827
O15	O	1.093793	0.208201	-0.332348
O16	O	1.593793	0.708201	0.167652
O17	O	1.318913	0.437978	-0.332331
O18	O	1.818913	0.937978	0.167669
O19	O	1.190904	0.208179	-0.429451
O20	O	1.690904	0.708179	0.070549
O21	O	1.093704	0.338958	-0.204180
O22	O	1.593704	0.838958	0.295820
O23	O	0.965589	0.338904	-0.332305
O24	O	1.465589	0.838904	0.167695
O25	O	1.093728	0.437883	-0.557533
O26	O	1.593728	0.937883	-0.057533
O27	O	0.965561	0.437912	-0.429375
O28	O	1.465561	0.937912	0.070625
O29	O	1.190866	0.338852	-0.557566
O30	O	1.690866	0.838852	-0.057566
O31	O	1.190708	0.568680	-0.332288
O32	O	1.690708	1.068680	0.167712
O33	O	1.093638	0.568639	-0.429365
O34	O	1.593638	1.068639	0.070635
C35	C	0.936895	0.388406	-0.380836
C36	C	1.436895	0.888406	0.119164
C37	C	0.849038	0.388417	-0.380844
C38	C	1.349038	0.888417	0.119156
C39	C	0.807755	0.336794	-0.330385
C40	C	1.307755	0.836794	0.169615
C41	C	0.807767	0.440046	-0.431314
C42	C	1.307767	0.940046	0.068686
C43	C	0.725221	0.440055	-0.431326
C44	C	1.225221	0.940055	0.068674
C45	C	0.683939	0.388432	-0.380867
C46	C	1.183939	0.888432	0.119133
C47	C	0.725202	0.336800	-0.330396
C48	C	1.225202	0.836800	0.169604
C49	C	0.683952	0.491681	-0.481801
C50	C	1.183952	0.991681	0.018199
C51	C	0.601401	0.491691	-0.481816
C52	C	1.101401	0.991691	0.018184
C53	C	0.560117	0.440072	-0.431352
C54	C	1.060117	0.940072	0.068648
C55	C	0.601385	0.388438	-0.380879
C56	C	1.101385	0.888438	0.119121
C57	C	0.560102	0.336815	-0.330420
C58	C	1.060102	0.836815	0.169580
C59	C	0.601369	0.285185	-0.279942
C60	C	1.101369	0.785185	0.220058
C61	C	0.683918	0.285181	-0.279933
C62	C	1.183918	0.785181	0.220067
C63	C	0.477568	0.440076	-0.431361
C64	C	0.977568	0.940076	0.068639
C65	C	0.477549	0.336821	-0.330431
C66	C	0.977549	0.836821	0.169569
C67	C	1.142180	0.597916	-0.380838
C68	C	1.642180	1.097916	0.119162
C69	C	1.142218	0.687537	-0.380853
C70	C	1.642218	1.187537	0.119147
C71	C	1.142347	1.015713	-0.380948
C72	C	1.642347	1.515713	0.119052
C73	C	1.142309	0.924404	-0.380924
C74	C	1.642309	1.424404	0.119076
C75	C	1.142282	0.851628	-0.380900
C76	C	1.642282	1.351628	0.119100
C77	C	1.142245	0.760313	-0.380877
C78	C	1.642245	1.260313	0.119123
C79	C	1.348429	0.388445	-0.380890
C80	C	1.848429	0.888445	0.119110
C81	C	1.436286	0.388454	-0.380902
C82	C	1.936286	0.888454	0.119098
C83	C	1.142303	0.388358	-0.587031
C84	C	1.642303	0.888358	-0.087031
C85	C	1.142321	0.388329	-0.674888
C86	C	1.642321	0.888329	-0.174888
C87	C	1.142356	1.178116	-0.380915
C88	C	1.642356	1.678116	0.119085
C89	C	1.142380	1.088495	-0.380961
C90	C	1.642380	1.588495	0.119039
C91	C	1.091866	0.336674	-1.046374
C92	C	1.591866	0.836674	-0.546374
C93	C	1.192916	0.439815	-1.046354
C94	C	1.692916	0.939815	-0.546354
C95	C	1.192903	0.439834	-0.963808
C96	C	1.692903	0.939834	-0.463808
C97	C	1.142369	0.388273	-0.922541
C98	C	1.642369	0.888273	-0.422541
C99	C	1.091849	0.336693	-0.963820
C100	C	1.591849	0.836693	-0.463820
C101	C	1.243416	0.491419	-0.922523
C102	C	1.743416	0.991419	-0.422523
C103	C	1.243404	0.491440	-0.839972
C104	C	1.743404	0.991440	-0.339972
C105	C	1.192873	0.439875	-0.798703
C106	C	1.692873	0.939875	-0.298703
C107	C	1.142352	0.388292	-0.839988
C108	C	1.642352	0.888292	-0.339988
C109	C	1.091818	0.336730	-0.798721
C110	C	1.591818	0.836730	-0.298721
C111	C	1.041300	0.285143	-0.840004
C112	C	1.541300	0.785143	-0.340004
C113	C	1.041318	0.285127	-0.922552
C114	C	1.541318	0.785127	-0.422552
C115	C	1.192855	0.439891	-0.716155
C116	C	1.692855	0.939891	-0.216155
C117	C	1.091801	0.336749	-0.716167
C118	C	1.591801	0.836749	-0.216167
C119	C	1.142264	0.388434	-0.175497
C120	C	1.642264	0.888434	0.324503
C121	C	1.142399	0.388235	-0.087641
C122	C	1.642399	0.888235	0.412359
H123	H	0.717571	0.533707	-0.522885
H124	H	1.217571	1.033707	-0.022885
H125	H	1.284549	0.533406	-0.956128
H126	H	1.784549	1.033406	-0.456128
H127	H	0.717524	0.243146	-0.238837
H128	H	1.217524	0.743146	0.261163
H129	H	0.443973	0.482108	-0.472464
H130	H	0.943973	0.982108	0.027536
H131	H	0.841358	0.294760	-0.289285
H132	H	1.341358	0.794760	0.210715
H133	H	1.050653	0.294758	-0.682574
H134	H	1.550653	0.794758	-0.182574
H135	H	0.841385	0.482071	-0.472399
H136	H	1.341385	0.982071	0.027601
H137	H	1.233992	0.481887	-0.682546
H138	H	1.733992	0.981887	-0.182546
O139	O	0.437572	0.286598	-0.281388
O140	O	0.937572	0.786598	0.218612
C141	C	0.446272	0.184223	-0.181239
C142	C	0.946272	0.684223	0.318761
C143	C	0.491643	0.241045	-0.236752
C144	C	0.991643	0.741045	0.263248
H145	H	0.489969	0.147391	-0.145124
H146	H	0.989969	0.647391	0.354876
H147	H	0.407680	0.142051	-0.217566
H148	H	0.907680	0.642051	0.282434
H149	H	0.407568	0.221208	-0.139889
H150	H	0.907568	0.721208	0.360111
H151	H	0.530390	0.204125	-0.278113
H152	H	1.030390	0.704125	0.221887
H153	H	0.530185	0.283220	-0.200376
H154	H	1.030185	0.783220	0.299624
O155	O	0.561352	0.235079	-0.230817
O156	O	1.061352	0.735079	0.269183
C157	C	0.535988	0.195819	-0.096431
C158	C	1.035988	0.695819	0.403569
C159	C	0.581373	0.252600	-0.151974
C160	C	1.081373	0.752600	0.348026
H161	H	0.552146	0.209976	-0.032674
H162	H	1.052146	0.709976	0.467326
H163	H	0.552263	0.130804	-0.110347
H164	H	1.052263	0.630804	0.389653
H165	H	0.469905	0.204678	-0.105157
H166	H	0.969905	0.704678	0.394843
H167	H	0.647467	0.243812	-0.143279
H168	H	1.147467	0.743812	0.356721
H169	H	0.565033	0.317594	-0.138044
H170	H	1.065033	0.817594	0.361956
O171	O	0.561441	0.541924	-0.530866
O172	O	1.061441	1.041924	-0.030866
C173	C	0.570172	0.644309	-0.631001
C174	C	1.070172	1.144309	-0.131001
C175	C	0.615526	0.587472	-0.575483
C176	C	1.115526	1.087472	-0.075483
H177	H	0.613880	0.681137	-0.667101
H178	H	1.113880	1.181137	-0.167101
H179	H	0.531520	0.686484	-0.594680
H180	H	1.031520	1.186484	-0.094680
H181	H	0.531529	0.607336	-0.672365
H182	H	1.031529	1.107336	-0.172365
H183	H	0.654211	0.624380	-0.534109
H184	H	1.154211	1.124380	-0.034109
H185	H	0.654127	0.545295	-0.611854
H186	H	1.154127	1.045295	-0.111854
O187	O	0.992286	0.235085	-0.799791
O188	O	1.492286	0.735085	-0.299791
C189	C	0.947445	0.189456	-0.672619
C190	C	1.447445	0.689456	-0.172619
C191	C	1.003004	0.246171	-0.718065
C192	C	1.503004	0.746171	-0.218065
H193	H	0.956079	0.198411	-0.606535
H194	H	1.456079	0.698411	-0.106535
H195	H	0.961362	0.124417	-0.688802
H196	H	1.461362	0.624417	-0.188802
H197	H	0.883713	0.203593	-0.688885
H198	H	1.383713	0.703593	-0.188885
H199	H	1.066754	0.232107	-0.701823
H200	H	1.566754	0.732107	-0.201823
H201	H	0.989019	0.311193	-0.701878
H202	H	1.489019	0.811193	-0.201878
O203	O	1.292404	0.541519	-0.799751
O204	O	1.792404	1.041519	-0.299751
C205	C	1.337207	0.587220	-0.672574
C206	C	1.837207	1.087220	-0.172574
C207	C	1.281660	0.530481	-0.718026
C208	C	1.781660	1.030481	-0.218026
H209	H	1.328552	0.578304	-0.606491
H210	H	1.828552	1.078304	-0.106491
H211	H	1.323298	0.652250	-0.688721
H212	H	1.823298	1.152250	-0.188721
H213	H	1.400944	0.573071	-0.688869
H214	H	1.900944	1.073071	-0.188869
H215	H	1.217905	0.544558	-0.701755
H216	H	1.717905	1.044558	-0.201755
H217	H	1.295637	0.465468	-0.701875
H218	H	1.795637	0.965468	-0.201875
H219	H	1.000188	0.243128	-0.956172
H220	H	1.500188	0.743128	-0.456172
H221	H	1.050737	0.294670	-1.079990
H222	H	1.550737	0.794670	-0.579990
H223	H	1.234053	0.481800	-1.079958
H224	H	1.734053	0.981800	-0.579958
