data_functionalizedCrystal
_audit_creation_method	'MofGen! by Chris Wilmer'
_symmetry_space_group_name_H-M	'P1'
_symmetry_Int_Tables_number	1
_symmetry_cell_setting	triclinic
loop_
_symmetry_equiv_pos_as_xyz
  x,y,z
_cell_length_a	15.995350
_cell_length_b	14.750779
_cell_length_c	15.995354
_cell_angle_alpha	102.654118
_cell_angle_beta	96.506688
_cell_angle_gamma	102.645612
loop_
_atom_site_label
_atom_site_type_symbol
_atom_site_fract_x
_atom_site_fract_y
_atom_site_fract_z
O1	O	1.092823	-0.079776	-0.126081
O2	O	0.849043	-0.079798	-0.139414
O3	O	0.977603	-0.079752	-0.010852
O4	O	0.964264	-0.079822	-0.254643
O5	O	1.013945	0.079912	0.025487
O6	O	0.885385	0.079865	-0.103075
O7	O	1.129166	0.079888	-0.089742
Zn8	Zn	1.013046	0.105227	-0.090639
Zn9	Zn	0.965163	-0.105137	-0.138517
O10	O	1.000606	0.079841	-0.218304
C11	C	0.836019	0.000031	-0.120694
C12	C	0.743067	0.000024	-0.119044
N13	N	1.045730	0.248794	-0.057963
N14	N	0.932485	-0.248705	-0.171186
C15	C	0.405324	0.000046	-0.113106
C16	C	0.452844	0.000428	-0.021468
C17	C	0.549451	0.000061	-0.023203
C18	C	0.572883	0.000035	-0.116051
C19	C	0.511041	-0.091150	-0.181961
C20	C	0.414389	-0.091219	-0.179677
C21	C	0.455378	0.090348	-0.140245
C22	C	0.552597	0.091547	-0.139950
C23	C	0.667578	0.000026	-0.117721
C24	C	0.310627	0.000048	-0.111441
C25	C	1.142189	0.000056	-0.108463
C26	C	1.235140	0.000057	-0.110114
C27	C	0.995224	0.000087	0.038514
C28	C	0.993576	0.000107	0.131469
C29	C	0.841201	0.600538	-0.262409
C30	C	0.864111	0.701045	-0.239517
C31	C	0.977974	0.701049	-0.125718
C32	C	0.955071	0.600540	-0.148597
C33	C	0.886685	0.550292	-0.216944
C34	C	1.000555	0.550294	-0.103132
C35	C	0.977657	0.449793	-0.126013
C36	C	0.909275	0.399539	-0.194359
C37	C	0.863787	0.449791	-0.239825
C38	C	1.068945	0.600544	-0.034789
C39	C	1.114429	0.550298	0.010675
C40	C	1.091527	0.449796	-0.012201
C41	C	1.023145	0.399541	-0.080547
C42	C	1.137015	0.399543	0.033265
C43	C	1.114117	0.299042	0.010384
C44	C	1.000247	0.299040	-0.103428
C45	C	0.990575	0.000109	0.301654
C46	C	0.897775	0.000102	0.324998
C47	C	0.895943	-0.000258	0.421594
C48	C	0.987619	0.000111	0.469214
C49	C	1.013569	-0.090881	0.419405
C50	C	1.014656	-0.090960	0.322595
C51	C	1.057344	0.090614	0.364025
C52	C	1.054187	0.091812	0.460793
C53	C	0.985953	0.000109	0.563911
C54	C	0.992242	0.000104	0.206956
C55	C	0.982981	0.000035	0.732336
C56	C	0.984619	0.000113	0.639400
H57	H	0.592758	0.065428	0.027169
H58	H	1.125849	0.091501	0.350207
C59	C	0.829938	-0.087935	0.265808
N60	N	0.778846	-0.154248	0.221226
H61	H	0.874252	0.064950	0.455458
C62	C	1.164149	0.243768	0.060400
N63	N	1.201836	0.202136	0.098072
C64	C	1.146257	0.099621	0.507081
N65	N	1.215606	0.105497	0.541947
C66	C	0.448897	0.183720	-0.078553
N67	N	0.444016	0.254043	-0.032077
H68	H	1.087589	0.682378	-0.016165
H69	H	0.890635	0.317704	-0.212990
C70	C	0.369540	-0.096854	-0.271762
N71	N	0.335761	-0.101109	-0.341122
C72	C	0.447920	0.088770	0.048079
N73	N	0.444205	0.155311	0.100463
C74	C	0.529078	-0.095762	-0.275157
N75	N	0.542667	-0.099235	-0.345352
H76	H	1.081826	-0.094834	0.307140
H77	H	0.595267	0.159005	-0.091633
H78	H	0.418452	-0.064584	0.000163
C79	C	0.368701	-0.183273	-0.156132
N80	N	0.334293	-0.252609	-0.138394
C81	C	1.212241	0.454829	0.108442
N82	N	1.268902	0.496470	0.165066
H83	H	1.080268	-0.094000	0.450541
C84	C	0.575059	0.098973	-0.229720
N85	N	0.591983	0.104565	-0.297337
C86	C	0.528503	-0.182805	-0.160447
N87	N	0.541654	-0.251838	-0.144236
H88	H	1.170112	0.591221	0.066322
C89	C	0.924984	0.243762	-0.178579
N90	N	0.868289	0.202126	-0.235171
C91	C	0.765939	0.545260	-0.337560
N92	N	0.709243	0.503624	-0.394152
H93	H	0.808094	0.408878	-0.295474
H94	H	1.033657	0.741973	-0.070071
H95	H	0.562408	-0.065398	-0.002366
C96	C	0.412653	0.091159	-0.231248
N97	N	0.380466	0.091763	-0.299791
H98	H	0.844657	-0.065872	0.425092
C99	C	0.869234	0.088224	0.307210
N100	N	0.847734	0.154597	0.293801
C101	C	0.814067	0.756312	-0.289536
N102	N	0.776375	0.797939	-0.327210
C103	C	1.039001	0.183813	0.347060
N104	N	1.025175	0.254006	0.334279
H105	H	0.967179	-0.159244	0.280263
H106	H	0.966080	-0.158858	0.424019
H107	H	1.035530	0.159129	0.494679
