data_functionalizedCrystal
_audit_creation_method	'MofGen! by Chris Wilmer'
_symmetry_space_group_name_H-M	'P1'
_symmetry_Int_Tables_number	1
_symmetry_cell_setting	triclinic
loop_
_symmetry_equiv_pos_as_xyz
  x,y,z
_cell_length_a	13.897448
_cell_length_b	21.395362
_cell_length_c	21.395364
_cell_angle_alpha	90.027061
_cell_angle_beta	90.009246
_cell_angle_gamma	90.033571
loop_
_atom_site_label
_atom_site_type_symbol
_atom_site_fract_x
_atom_site_fract_y
_atom_site_fract_z
Zn1	Zn	-0.383779	0.957812	0.354598
Zn2	Zn	0.116221	1.457812	0.854598
Zn3	Zn	-0.545040	0.957769	0.249826
Zn4	Zn	-0.045040	1.457769	0.749826
Zn5	Zn	-0.383806	0.853057	0.249799
Zn6	Zn	0.116194	1.353057	0.749799
Zn7	Zn	-0.545078	0.853020	0.354531
Zn8	Zn	-0.045078	1.353020	0.854531
O9	O	-0.464426	0.905414	0.302188
O10	O	0.035574	1.405414	0.802188
O11	O	-0.405143	1.045484	0.340739
O12	O	0.094857	1.545484	0.840739
O13	O	-0.523648	0.943877	0.162144
O14	O	-0.023648	1.443877	0.662144
O15	O	-0.248820	0.866987	0.263718
O16	O	0.251180	1.366987	0.763718
O17	O	-0.523621	1.045452	0.263763
O18	O	-0.023621	1.545452	0.763763
O19	O	-0.248801	0.943950	0.340713
O20	O	0.251199	1.443950	0.840713
O21	O	-0.405189	0.866946	0.162125
O22	O	0.094811	1.366946	0.662125
O23	O	-0.405226	0.765375	0.263653
O24	O	0.094774	1.265375	0.763653
O25	O	-0.523686	0.866923	0.442217
O26	O	-0.023686	1.366923	0.942217
O27	O	-0.523712	0.765347	0.340598
O28	O	-0.023712	1.265347	0.840598
O29	O	-0.405180	0.943913	0.442267
O30	O	0.094820	1.443913	0.942267
O31	O	-0.680027	0.943840	0.263698
O32	O	-0.180027	1.443840	0.763698
O33	O	-0.680055	0.866881	0.340624
O34	O	-0.180055	1.366881	0.840624
C35	C	-0.464477	0.742627	0.302116
C36	C	0.035523	1.242627	0.802116
C37	C	-0.464522	0.672985	0.302099
C38	C	0.035478	1.172985	0.802099
C39	C	-0.715040	0.905369	0.302170
C40	C	-0.215040	1.405369	0.802170
C41	C	-0.822254	0.905406	0.302183
C42	C	-0.322254	1.405406	0.802183
C43	C	-0.526299	0.640274	0.342105
C44	C	-0.026299	1.140274	0.842105
C45	C	-0.526276	0.574839	0.342133
C46	C	-0.026276	1.074839	0.842133
C47	C	-0.464485	0.542117	0.302144
C48	C	0.035515	1.042117	0.802144
C49	C	-0.402695	0.574836	0.262136
C50	C	0.097305	1.074836	0.762136
C51	C	-0.402714	0.640270	0.262113
C52	C	0.097286	1.140270	0.762113
C53	C	-0.456704	0.438408	0.245739
C54	C	0.043296	0.938408	0.745739
C55	C	-0.456692	0.372975	0.245760
C56	C	0.043308	0.872975	0.745760
C57	C	-0.464422	0.340296	0.302213
C58	C	0.035578	0.840296	0.802213
C59	C	-0.472183	0.373059	0.358647
C60	C	0.027817	0.873059	0.858647
C61	C	-0.472202	0.438493	0.358625
C62	C	0.027798	0.938493	0.858625
C63	C	-0.464457	0.471165	0.302164
C64	C	0.035543	0.971165	0.802164
C65	C	-0.526177	0.236633	0.342253
C66	C	-0.026177	0.736633	0.842253
C67	C	-0.526146	0.171196	0.342281
C68	C	-0.026146	0.671196	0.842281
C69	C	-0.402571	0.171195	0.262279
C70	C	0.097429	0.671195	0.762279
C71	C	-0.402596	0.236630	0.262255
C72	C	0.097404	0.736630	0.762255
C73	C	-0.464404	0.269345	0.302241
C74	C	0.035596	0.769345	0.802241
C75	C	-1.018549	0.905472	0.302223
C76	C	-0.518549	1.405472	0.802223
C77	C	-0.909317	0.905434	0.302203
C78	C	-0.409317	1.405434	0.802203
C79	C	-0.212833	0.905477	0.302220
C80	C	0.287167	1.405477	0.802220
C81	C	-0.105619	0.905504	0.302234
C82	C	0.394381	1.405504	0.802234
C83	C	-0.464375	1.068838	0.302262
C84	C	0.035625	1.568838	0.802262
C85	C	-0.464354	1.138479	0.302293
C86	C	0.035646	1.638479	0.802293
C87	C	-0.464434	0.905418	0.465612
C88	C	0.035566	1.405418	0.965612
C89	C	-0.464438	0.905420	0.535253
C90	C	0.035562	1.405420	1.035253
C91	C	-0.526099	0.945472	1.037060
C92	C	-0.026099	1.445472	1.537060
C93	C	-0.526106	0.945470	0.971624
C94	C	-0.026106	1.445470	1.471624
C95	C	-0.464431	0.905418	0.938891
C96	C	0.035569	1.405418	1.438891
C97	C	-0.402763	0.865353	0.971599
C98	C	0.097237	1.365353	1.471599
C99	C	-0.402764	0.865351	1.037033
C100	C	0.097236	1.365351	1.537033
C101	C	-0.377525	0.900496	0.835232
C102	C	0.122475	1.400496	1.335232
C103	C	-0.377522	0.900502	0.769799
C104	C	0.122478	1.400502	1.269799
C105	C	-0.464426	0.905421	0.737070
C106	C	0.035574	1.405421	1.237070
C107	C	-0.551337	0.910346	0.769783
C108	C	-0.051337	1.410346	1.269783
C109	C	-0.551339	0.910344	0.835218
C110	C	-0.051339	1.410344	1.335218
C111	C	-0.464423	0.905416	0.867939
C112	C	0.035577	1.405416	1.367939
C113	C	-0.526103	0.945479	0.633418
C114	C	-0.026103	1.445479	1.133418
C115	C	-0.526112	0.945473	0.567981
C116	C	-0.026112	1.445473	1.067981
C117	C	-0.402760	0.865359	0.567957
C118	C	0.097240	1.365359	1.067957
C119	C	-0.402760	0.865361	0.633393
C120	C	0.097240	1.365361	1.133393
C121	C	-0.464430	0.905425	0.666119
C122	C	0.035570	1.405425	1.166119
C123	C	-0.464439	0.905408	1.139401
C124	C	0.035561	1.405408	1.639401
C125	C	-0.464435	0.905414	1.069760
C126	C	0.035565	1.405414	1.569760
H127	H	-0.576582	0.548200	0.374713
H128	H	-0.076582	1.048200	0.874713
H129	H	-0.352546	0.832746	0.541307
H130	H	0.147454	1.332746	1.041307
H131	H	-0.576451	0.144564	0.374863
H132	H	-0.076451	0.644564	0.874863
H133	H	-0.576627	0.666907	0.374666
H134	H	-0.076627	1.166907	0.874666
N135	N	-0.480554	0.473829	0.419489
N136	N	0.019446	0.973829	0.919489
H137	H	-0.479391	0.520238	0.410906
H138	H	0.020609	1.020238	0.910906
H139	H	-0.543025	0.462380	0.440717
H140	H	-0.043025	0.962380	0.940717
H141	H	-0.576335	0.978090	0.541358
H142	H	-0.076335	1.478090	1.041358
N143	N	-0.335968	0.271907	0.219097
N144	N	0.164032	0.771907	0.719097
H145	H	-0.375101	0.299013	0.190006
H146	H	0.124899	0.799013	0.690006
H147	H	-0.291346	0.299062	0.244643
H148	H	0.208654	0.799062	0.744643
H149	H	-0.622103	0.914353	0.743138
H150	H	-0.122103	1.414353	1.243138
H151	H	-0.576500	0.263271	0.374815
H152	H	-0.076500	0.763271	0.874815
N153	N	-0.336080	0.675548	0.218956
N154	N	0.163920	1.175548	0.718956
H155	H	-0.375216	0.702652	0.189865
H156	H	0.124784	1.202652	0.689865
H157	H	-0.291462	0.702706	0.244503
H158	H	0.208538	1.202706	0.744503
N159	N	-0.448325	0.337639	0.184897
N160	N	0.051675	0.837639	0.684897
H161	H	-0.504030	0.348979	0.156787
H162	H	-0.004030	0.848979	0.656787
H163	H	-0.385814	0.349053	0.163700
H164	H	0.114186	0.849053	0.663700
H165	H	-0.478475	0.346454	0.404617
H166	H	0.021525	0.846454	0.904617
N167	N	-0.336240	0.822159	0.936292
N168	N	0.163760	1.322159	1.436292
H169	H	-0.267318	0.831905	0.947694
H170	H	0.232682	1.331905	1.447694
H171	H	-0.351318	0.777404	0.947664
H172	H	0.148682	1.277404	1.447664
N173	N	-0.448363	0.473651	0.184846
N174	N	0.051637	0.973651	0.684846
H175	H	-0.443452	0.442969	0.149100
H176	H	0.056548	0.942969	0.649100
H177	H	-0.507128	0.500766	0.178954
H178	H	-0.007128	1.000766	0.678954
N179	N	-0.336254	0.822143	1.072307
N180	N	0.163746	1.322143	1.572307
H181	H	-0.297185	0.796767	1.041644
H182	H	0.202815	1.296767	1.541644
H183	H	-0.291604	0.847657	1.099472
H184	H	0.208396	1.347657	1.599472
N185	N	-0.592617	0.988686	0.668722
N186	N	-0.092617	1.488686	1.168722
H187	H	-0.631689	1.014059	0.638075
H188	H	-0.131689	1.514059	1.138075
H189	H	-0.637263	0.963172	0.695856
H190	H	-0.137263	1.463172	1.195856
H191	H	-0.622104	0.914353	0.861850
H192	H	-0.122104	1.414353	1.361850
H193	H	-0.352255	0.144553	0.229722
H194	H	0.147745	0.644553	0.729722
N195	N	-0.283786	0.895188	0.870527
N196	N	0.216214	1.395188	1.370527
H197	H	-0.285099	0.856576	0.897653
H198	H	0.214901	1.356576	1.397653
H199	H	-0.228785	0.892099	0.839836
H200	H	0.271215	1.392099	1.339836
H201	H	-0.306754	0.896495	0.743169
H202	H	0.193246	1.396495	1.243169
N203	N	-0.336060	0.539548	0.218997
N204	N	0.163940	1.039548	0.718997
H205	H	-0.345429	0.493132	0.225076
H206	H	0.154571	0.993132	0.725076
H207	H	-0.350981	0.550949	0.174232
H208	H	0.149019	1.050949	0.674232
N209	N	-0.592619	0.988675	1.072359
N210	N	-0.092619	1.488675	1.572359
H211	H	-0.577621	1.033445	1.060996
H212	H	-0.077621	1.533445	1.560996
H213	H	-0.661514	0.978874	1.060943
H214	H	-0.161514	1.478874	1.560943
N215	N	-0.592620	0.988677	0.936347
N216	N	-0.092620	1.488677	1.436347
H217	H	-0.631686	1.014054	0.967011
H218	H	-0.131686	1.514054	1.467011
H219	H	-0.553338	1.017680	0.909218
H220	H	-0.053338	1.517680	1.409218
H221	H	-0.352543	0.832744	0.660017
H222	H	0.147457	1.332744	1.160017
