data_functionalizedCrystal
_audit_creation_method	'MofGen! by Chris Wilmer'
_symmetry_space_group_name_H-M	'P1'
_symmetry_Int_Tables_number	1
_symmetry_cell_setting	triclinic
loop_
_symmetry_equiv_pos_as_xyz
  x,y,z
_cell_length_a	10.540539
_cell_length_b	10.540535
_cell_length_c	9.016244
_cell_angle_alpha	90.000632
_cell_angle_beta	89.996950
_cell_angle_gamma	95.475433
loop_
_atom_site_label
_atom_site_type_symbol
_atom_site_fract_x
_atom_site_fract_y
_atom_site_fract_z
O1	O	-0.178876	1.685888	0.123249
O2	O	-0.195738	1.316474	0.123268
O3	O	-0.002600	1.509609	0.123259
O4	O	-0.372013	1.492753	0.123258
O5	O	-0.002589	1.509598	-0.123422
O6	O	-0.195726	1.316463	-0.123412
O7	O	-0.178864	1.685877	-0.123432
Cu8	Cu	-0.187294	1.501169	-0.145946
Cu9	Cu	-0.187308	1.501182	0.145782
O10	O	-0.372002	1.492742	-0.123423
C11	C	-0.194469	1.269165	-0.000069
C12	C	-0.190689	1.128217	-0.000061
C13	C	-0.049675	1.091546	-0.000067
C14	C	-0.045698	0.944946	-0.000641
C15	C	-0.255053	0.918875	-0.140672
C16	C	-0.258053	1.065640	-0.140775
C17	C	-0.260118	1.065537	0.139756
C18	C	-0.253596	0.919190	0.141590
C19	C	-0.419311	1.494011	-0.000083
C20	C	-0.560259	1.497793	-0.000084
C21	C	-0.743683	1.642711	0.000479
C22	C	-0.597065	1.638877	-0.000088
C23	C	-0.621919	1.429892	-0.140942
C24	C	-0.768464	1.434707	-0.141049
C25	C	-0.768978	1.431849	0.139473
C26	C	-0.621996	1.430550	0.141324
C27	C	0.044709	1.508339	-0.000078
C28	C	0.185657	1.504557	-0.000067
C29	C	-0.180133	1.733185	-0.000091
C30	C	-0.183913	1.874134	-0.000089
N31	N	-0.187284	1.501169	-0.351132
C32	C	-0.083981	1.604541	-0.414061
C33	C	-0.084267	1.604926	-0.585952
C34	C	-0.320184	1.530770	-0.586604
C35	C	-0.319566	1.531501	-0.414659
C36	C	-0.158904	1.367918	-0.414514
C37	C	-0.155917	1.368796	-0.586470
N38	N	-0.187308	1.501192	0.350969
H39	H	-0.201826	0.890593	0.245595
H40	H	-0.816186	1.329937	0.140413
H41	H	-0.554459	1.692312	0.100879
H42	H	-0.206236	0.887968	-0.245697
H43	H	-0.058159	1.346366	-0.627272
H44	H	-0.772265	1.698440	0.101510
H45	H	-0.345498	1.626867	-0.629662
H46	H	-0.210000	1.105807	-0.246266
H47	H	0.015063	1.587124	-0.372695
H48	H	-0.063984	1.339653	-0.371161
H49	H	-0.102583	1.703800	-0.627082
H50	H	-0.361427	1.088671	-0.146783
H51	H	-0.774008	1.698262	-0.099875
H52	H	-0.796663	1.484882	-0.246348
H53	H	-0.599567	1.326283	-0.146177
H54	H	0.014451	1.587217	-0.628162
H55	H	-0.356818	0.871518	-0.145504
H56	H	-0.102026	1.702850	-0.370828
H57	H	0.009939	0.915613	0.100114
H58	H	-0.354470	0.870142	0.150515
H59	H	-0.216121	1.108000	0.246350
H60	H	-0.597770	1.327692	0.149838
H61	H	-0.363869	1.087721	0.141116
H62	H	-0.555310	1.692667	-0.101244
H63	H	-0.398647	1.458896	-0.373028
H64	H	-0.344314	1.628699	-0.374549
H65	H	-0.816434	1.333242	-0.147448
H66	H	-0.226158	1.288219	-0.629403
H67	H	-0.579332	1.477062	-0.245776
H68	H	-0.800535	1.477511	0.246242
H69	H	-0.398985	1.457513	-0.627460
H70	H	-0.581059	1.480168	0.245530
H71	H	-0.234220	1.290985	-0.373816
H72	H	0.004471	1.133520	0.100733
H73	H	0.009675	0.916489	-0.102012
H74	H	0.003574	1.135000	-0.100733
