data_functionalizedCrystal
_audit_creation_method	'MofGen! by Chris Wilmer'
_symmetry_space_group_name_H-M	'P1'
_symmetry_Int_Tables_number	1
_symmetry_cell_setting	triclinic
loop_
_symmetry_equiv_pos_as_xyz
  x,y,z
_cell_length_a	18.215407
_cell_length_b	19.076808
_cell_length_c	18.215399
_cell_angle_alpha	92.328322
_cell_angle_beta	90.019833
_cell_angle_gamma	92.323864
loop_
_atom_site_label
_atom_site_type_symbol
_atom_site_fract_x
_atom_site_fract_y
_atom_site_fract_z
Zn1	Zn	1.113298	-0.280216	0.404332
Zn2	Zn	1.613298	0.219784	0.904332
Zn3	Zn	1.108261	-0.397924	0.276316
Zn4	Zn	1.608261	0.102076	0.776316
Zn5	Zn	0.990230	-0.280239	0.281279
Zn6	Zn	1.490230	0.219761	0.781279
Zn7	Zn	0.985252	-0.397885	0.399343
Zn8	Zn	1.485252	0.102115	0.899343
O9	O	1.049260	-0.339066	0.340318
O10	O	1.549260	0.160934	0.840318
O11	O	1.215614	-0.295837	0.387362
O12	O	1.715614	0.204163	0.887362
O13	O	1.092578	-0.382339	0.173989
O14	O	1.592578	0.117661	0.673989
O15	O	1.010746	-0.181739	0.301767
O16	O	1.510746	0.318261	0.801767
O17	O	1.211913	-0.382316	0.293309
O18	O	1.711913	0.117684	0.793309
O19	O	1.101164	-0.181722	0.392174
O20	O	1.601164	0.318278	0.892174
O21	O	1.005861	-0.295876	0.177635
O22	O	1.505861	0.204124	0.677635
O23	O	0.886585	-0.295838	0.296929
O24	O	1.386585	0.204162	0.796929
O25	O	1.002263	-0.382250	0.502990
O26	O	1.502263	0.117750	1.002990
O27	O	0.882928	-0.382272	0.383670
O28	O	1.382928	0.117728	0.883670
O29	O	1.096338	-0.295799	0.506656
O30	O	1.596338	0.204201	1.006656
O31	O	1.087752	-0.496415	0.288471
O32	O	1.587752	0.003585	0.788471
O33	O	0.997378	-0.496386	0.378858
O34	O	1.497378	0.003614	0.878858
C35	C	0.858054	-0.339054	0.340297
C36	C	1.358054	0.160946	0.840297
C37	C	0.776255	-0.339065	0.340305
C38	C	1.276255	0.160935	0.840305
C39	C	0.586173	-0.384142	0.385409
C40	C	1.086173	0.115858	0.885409
C41	C	0.509314	-0.384145	0.385418
C42	C	1.009314	0.115855	0.885418
C43	C	0.513098	-0.294002	0.295242
C44	C	1.013098	0.205998	0.795242
C45	C	0.589956	-0.293996	0.295237
C46	C	1.089956	0.206004	0.795237
C47	C	0.626491	-0.339071	0.340319
C48	C	1.126491	0.160929	0.840319
C49	C	0.472775	-0.339078	0.340333
C50	C	0.972775	0.160922	0.840333
C51	C	0.389441	-0.339080	0.340343
C52	C	0.889441	0.160920	0.840343
C53	C	0.709830	-0.339068	0.340311
C54	C	1.209830	0.160932	0.840311
C55	C	1.041498	-0.521940	0.332601
C56	C	1.541498	-0.021940	0.832601
C57	C	1.038245	-0.600174	0.329324
C58	C	1.538245	-0.100174	0.829324
C59	C	1.083757	-0.636859	0.374893
C60	C	1.583757	-0.136859	0.874893
C61	C	1.080698	-0.710369	0.371815
C62	C	1.580698	-0.210369	0.871815
C63	C	1.032129	-0.747192	0.323165
C64	C	1.532129	-0.247192	0.823165
C65	C	0.986612	-0.710501	0.277594
C66	C	1.486612	-0.210501	0.777594
C67	C	0.989668	-0.636993	0.280676
C68	C	1.489668	-0.136993	0.780676
C69	C	1.017940	-0.967045	0.308900
C70	C	1.517940	-0.467045	0.808900
C71	C	1.014889	-1.040558	0.305820
C72	C	1.514889	-0.540558	0.805820
C73	C	1.108974	-1.040420	0.400043
C74	C	1.608974	-0.540420	0.900043
C75	C	1.112029	-0.966911	0.403117
C76	C	1.612029	-0.466911	0.903117
C77	C	1.066510	-0.930227	0.357549
C78	C	1.566510	-0.430227	0.857549
N79	N	1.029002	-0.822330	0.320016
N80	N	1.529002	-0.322330	0.820016
N81	N	1.069633	-0.855090	0.360702
N82	N	1.569633	-0.355090	0.860702
C83	C	1.241212	-0.339078	0.340339
C84	C	1.741212	0.160922	0.840339
C85	C	1.323011	-0.339084	0.340348
C86	C	1.823011	0.160916	0.840348
C87	C	1.049307	-0.339017	0.532273
C88	C	1.549307	0.160983	1.032273
C89	C	1.049327	-0.338996	0.614072
C90	C	1.549327	0.161004	1.114072
C91	C	1.057072	-0.155477	0.348081
C92	C	1.557072	0.344523	0.848081
C93	C	1.060401	-0.077243	0.351389
C94	C	1.560401	0.422757	0.851389
C95	C	1.049258	-0.339063	0.149111
C96	C	1.549258	0.160937	0.649111
C97	C	1.049389	-0.338886	0.067320
C98	C	1.549389	0.161114	0.567320
C99	C	1.098330	-0.293939	0.804178
C100	C	1.598330	0.206061	1.304178
C101	C	1.098340	-0.293919	0.881038
C102	C	1.598340	0.206081	1.381038
C103	C	1.000380	-0.383945	0.877209
C104	C	1.500380	0.116055	1.377209
C105	C	1.000368	-0.383961	0.800351
C106	C	1.500368	0.116039	1.300351
C107	C	1.049347	-0.338959	0.763838
C108	C	1.549347	0.161041	1.263838
C109	C	1.049369	-0.338923	0.917555
C110	C	1.549369	0.161077	1.417555
C111	C	1.049379	-0.338901	1.000890
C112	C	1.549379	0.161099	1.500890
C113	C	1.049336	-0.338980	0.680498
C114	C	1.549336	0.161020	1.180498
H115	H	1.123310	-0.606883	0.414506
H116	H	1.623310	-0.106883	0.914506
C117	C	0.939606	-0.596635	0.230549
C118	C	1.439606	-0.096635	0.730549
C119	C	0.945236	-0.606782	0.146466
C120	C	1.445236	-0.106782	0.646466
C121	C	0.895170	-0.566424	0.096341
C122	C	1.395170	-0.066424	0.596341
C123	C	0.839473	-0.515921	0.130297
C124	C	1.339473	-0.015921	0.630297
C125	C	0.833840	-0.505772	0.214384
C126	C	1.333840	-0.005772	0.714384
C127	C	0.883907	-0.546130	0.264510
C128	C	1.383907	-0.046130	0.764510
H129	H	0.986469	-0.644169	0.121326
H130	H	1.486469	-0.144169	0.621326
H131	H	0.899339	-0.573937	0.034094
H132	H	1.399339	-0.073937	0.534094
H133	H	0.802410	-0.486046	0.093191
H134	H	1.302410	0.013954	0.593191
H135	H	0.792608	-0.468385	0.239525
H136	H	1.292608	0.031615	0.739525
H137	H	0.879737	-0.538617	0.326756
H138	H	1.379737	-0.038617	0.826756
C139	C	0.472907	-0.244428	0.245647
C140	C	0.972907	0.255572	0.745647
C141	C	0.388367	-0.244434	0.245645
C142	C	0.888367	0.255566	0.745645
C143	C	0.348178	-0.194861	0.196047
C144	C	0.848178	0.305139	0.696047
C145	C	0.392529	-0.145281	0.146450
C146	C	0.892529	0.354719	0.646450
C147	C	0.477074	-0.145273	0.146449
C148	C	0.977074	0.354727	0.646449
C149	C	0.517264	-0.194847	0.196048
C150	C	1.017264	0.305153	0.696048
H151	H	0.355531	-0.281137	0.282362
H152	H	0.855531	0.218863	0.782362
H153	H	0.285592	-0.194867	0.196047
H154	H	0.785592	0.305133	0.696047
H155	H	0.362779	-0.108584	0.109734
H156	H	0.862779	0.391416	0.609734
H157	H	0.509910	-0.108570	0.109733
H158	H	1.009910	0.391430	0.609733
H159	H	0.579850	-0.194840	0.196047
H160	H	1.079850	0.305160	0.696047
H161	H	0.947063	-0.740488	0.237985
H162	H	1.447063	-0.240488	0.737985
H163	H	1.151578	-0.936931	0.442732
H164	H	1.651578	-0.436931	0.942732
H165	H	0.960505	-0.420585	0.906948
H166	H	1.460505	0.079415	1.406948
C167	C	0.464964	-0.433727	0.435014
C168	C	0.964964	0.066273	0.935014
C169	C	0.380424	-0.433734	0.435027
C170	C	0.880424	0.066266	0.935027
C171	C	0.336074	-0.483319	0.484626
C172	C	0.836074	0.016681	0.984626
C173	C	0.376265	-0.532896	0.534212
C174	C	0.876265	-0.032896	1.034212
C175	C	0.460810	-0.532891	0.534201
C176	C	0.960810	-0.032891	1.034201
C177	C	0.505159	-0.483307	0.484603
C178	C	1.005159	0.016693	0.984603
H179	H	0.350668	-0.397032	0.398318
H180	H	0.850668	0.102968	0.898318
H181	H	0.273488	-0.483322	0.484634
H182	H	0.773488	0.016678	0.984634
H183	H	0.343434	-0.569602	0.570928
H184	H	0.843434	-0.069602	1.070928
H185	H	0.490565	-0.569593	0.570910
H186	H	0.990565	-0.069593	1.070910
H187	H	0.567745	-0.483303	0.484595
H188	H	1.067745	0.016697	0.984595
C189	C	0.946477	-0.433481	0.755971
C190	C	1.446477	0.066519	1.255971
C191	C	0.946457	-0.433492	0.671430
C192	C	1.446457	0.066508	1.171430
C193	C	0.892564	-0.483004	0.627049
C194	C	1.392564	0.016996	1.127049
C195	C	0.838690	-0.532506	0.667209
C196	C	1.338690	-0.032506	1.167209
C197	C	0.838708	-0.532497	0.751754
C198	C	1.338708	-0.032497	1.251754
C199	C	0.892601	-0.482985	0.796135
C200	C	1.392601	0.017015	1.296135
H201	H	0.986339	-0.396846	0.641697
H202	H	1.486339	0.103154	1.141697
H203	H	0.892551	-0.483010	0.564463
H204	H	1.392551	0.016990	1.064463
H205	H	0.798795	-0.569158	0.634356
H206	H	1.298795	-0.069158	1.134356
H207	H	0.798826	-0.569143	0.781487
H208	H	1.298826	-0.069143	1.281487
H209	H	0.892614	-0.482979	0.858721
H210	H	1.392614	0.017021	1.358721
C211	C	1.159038	-1.080773	0.450171
C212	C	1.659038	-0.580773	0.950171
C213	C	1.153404	-1.070617	0.534252
C214	C	1.653404	-0.570617	1.034252
C215	C	1.203468	-1.110968	0.584386
C216	C	1.703468	-0.610968	1.084386
C217	C	1.259166	-1.161475	0.550439
C218	C	1.759166	-0.661475	1.050439
C219	C	1.264803	-1.171633	0.466353
C220	C	1.764803	-0.671633	0.966353
C221	C	1.214739	-1.131282	0.416219
C222	C	1.714739	-0.631282	0.916219
H223	H	1.112170	-1.033226	0.559386
H224	H	1.612170	-0.533226	1.059386
H225	H	1.199295	-1.103448	0.646632
H226	H	1.699295	-0.603448	1.146632
H227	H	1.296227	-1.191346	0.587551
H228	H	1.796227	-0.691346	1.087551
H229	H	1.306036	-1.209024	0.441220
H230	H	1.806036	-0.709024	0.941220
H231	H	1.218912	-1.138802	0.353974
H232	H	1.718912	-0.638802	0.853974
C233	C	1.152225	-0.244398	0.925413
C234	C	1.652225	0.255602	1.425413
C235	C	1.122695	-0.189121	0.980581
C236	C	1.622695	0.310879	1.480581
C237	C	1.176582	-0.139598	1.024956
C238	C	1.676582	0.360402	1.524956
C239	C	1.259997	-0.145351	1.014165
C240	C	1.759997	0.354649	1.514165
C241	C	1.289531	-0.200631	0.958995
C242	C	1.789531	0.299369	1.458995
C243	C	1.235644	-0.250154	0.914619
C244	C	1.735644	0.249846	1.414619
H245	H	1.060942	-0.184860	0.988571
H246	H	1.560942	0.315140	1.488571
H247	H	1.154719	-0.098677	1.065797
H248	H	1.654719	0.401323	1.565797
H249	H	1.299887	-0.108691	1.047015
H250	H	1.799887	0.391309	1.547015
H251	H	1.351284	-0.204892	0.951005
H252	H	1.851284	0.295108	1.451005
H253	H	1.257508	-0.291075	0.873779
H254	H	1.757508	0.208925	1.373779
C255	C	0.626363	-0.433716	0.435004
C256	C	1.126363	0.066284	0.935004
C257	C	0.676845	-0.488938	0.400693
C258	C	1.176845	0.011062	0.900693
C259	C	0.717033	-0.538512	0.450292
C260	C	1.217033	-0.038512	0.950292
C261	C	0.706740	-0.532864	0.534202
C262	C	1.206740	-0.032864	1.034202
C263	C	0.656256	-0.477639	0.568518
C264	C	1.156256	0.022361	1.068518
C265	C	0.616068	-0.428066	0.518919
C266	C	1.116068	0.071934	1.018919
H267	H	0.684466	-0.493122	0.338574
H268	H	1.184466	0.006878	0.838574
H269	H	0.754404	-0.579393	0.424889
H270	H	1.254404	-0.079393	0.924889
H271	H	0.736489	-0.569561	0.570918
H272	H	1.236489	-0.069561	1.070918
H273	H	0.648634	-0.473456	0.630637
H274	H	1.148634	0.026544	1.130637
H275	H	0.578697	-0.387185	0.544322
H276	H	1.078697	0.112815	1.044322
C277	C	0.634310	-0.244415	0.245633
C278	C	1.134310	0.255585	0.745633
C279	C	0.689501	-0.189189	0.279943
C280	C	1.189501	0.310811	0.779943
C281	C	0.733855	-0.139608	0.230343
C282	C	1.233855	0.360392	0.730343
C283	C	0.723018	-0.145253	0.146434
C284	C	1.223018	0.354747	0.646434
C285	C	0.667824	-0.200481	0.112120
C286	C	1.167824	0.299519	0.612120
C287	C	0.623470	-0.250062	0.161719
C288	C	1.123470	0.249938	0.661719
H289	H	0.697526	-0.185008	0.342061
H290	H	1.197526	0.314992	0.842061
H291	H	0.774713	-0.098724	0.255745
H292	H	1.274713	0.401276	0.755745
H293	H	0.755851	-0.108550	0.109718
H294	H	1.255851	0.391450	0.609718
H295	H	0.659799	-0.204662	0.050001
H296	H	1.159799	0.295338	0.550001
H297	H	0.582612	-0.290946	0.136317
H298	H	1.082612	0.209054	0.636317
C299	C	1.130768	-0.750718	0.421940
C300	C	1.630768	-0.250718	0.921940
C301	C	1.214855	-0.740542	0.416428
C302	C	1.714855	-0.240542	0.916428
C303	C	1.264929	-0.780889	0.466557
C304	C	1.764929	-0.280889	0.966557
C305	C	1.230915	-0.831412	0.522197
C306	C	1.730915	-0.331412	1.022197
C307	C	1.146823	-0.841590	0.527711
C308	C	1.646823	-0.341590	1.027711
C309	C	1.096750	-0.801243	0.477583
C310	C	1.596750	-0.301243	0.977583
H311	H	1.240038	-0.703140	0.375238
H312	H	1.740038	-0.203140	0.875238
H313	H	1.327179	-0.773355	0.462474
H314	H	1.827179	-0.273355	0.962474
H315	H	1.267982	-0.861280	0.559305
H316	H	1.767982	-0.361280	1.059305
H317	H	1.121641	-0.878993	0.568901
H318	H	1.621641	-0.378993	1.068901
H319	H	1.034500	-0.808778	0.481665
H320	H	1.534500	-0.308778	0.981665
H321	H	0.975335	-1.070537	0.266202
H322	H	1.475335	-0.570537	0.766202
C323	C	0.967875	-0.926703	0.258767
C324	C	1.467875	-0.426703	0.758767
C325	C	0.973513	-0.936862	0.174687
C326	C	1.473513	-0.436862	0.674687
C327	C	0.923445	-0.896519	0.124549
C328	C	1.423445	-0.396519	0.624549
C329	C	0.867739	-0.846017	0.158491
C330	C	1.367739	-0.346017	0.658491
C331	C	0.862097	-0.835857	0.242576
C332	C	1.362097	-0.335857	0.742576
C333	C	0.912165	-0.876200	0.292714
C334	C	1.412165	-0.376200	0.792714
H335	H	1.014753	-0.974248	0.149556
H336	H	1.514753	-0.474248	0.649556
H337	H	0.927622	-0.904041	0.062303
H338	H	1.427622	-0.404041	0.562303
H339	H	0.830675	-0.816153	0.121376
H340	H	1.330675	-0.316153	0.621376
H341	H	0.820858	-0.798471	0.267707
H342	H	1.320858	-0.298471	0.767707
H343	H	0.907989	-0.868678	0.354960
H344	H	1.407989	-0.368678	0.854960
C345	C	1.152201	-0.244434	0.764013
C346	C	1.652201	0.255566	1.264013
C347	C	1.152193	-0.244450	0.679472
C348	C	1.652193	0.255550	1.179472
C349	C	1.206063	-0.194941	0.639309
C350	C	1.706063	0.305059	1.139309
C351	C	1.259941	-0.145417	0.683687
C352	C	1.759941	0.354583	1.183687
C353	C	1.259951	-0.145400	0.768232
C354	C	1.759951	0.354600	1.268232
C355	C	1.206081	-0.194908	0.808395
C356	C	1.706081	0.305092	1.308395
H357	H	1.112307	-0.281112	0.646616
H358	H	1.612307	0.218888	1.146616
H359	H	1.206056	-0.194954	0.576722
H360	H	1.706056	0.305046	1.076722
H361	H	1.299819	-0.108768	0.653955
H362	H	1.799819	0.391232	1.153955
H363	H	1.299837	-0.108737	0.801088
H364	H	1.799837	0.391263	1.301088
H365	H	1.206088	-0.194895	0.870982
H366	H	1.706088	0.305105	1.370982
