data_functionalizedCrystal
_audit_creation_method	'MofGen! by Chris Wilmer'
_symmetry_space_group_name_H-M	'P1'
_symmetry_Int_Tables_number	1
_symmetry_cell_setting	triclinic
loop_
_symmetry_equiv_pos_as_xyz
  x,y,z
_cell_length_a	12.645330
_cell_length_b	15.297475
_cell_length_c	15.303935
_cell_angle_alpha	88.486596
_cell_angle_beta	99.668222
_cell_angle_gamma	99.678956
loop_
_atom_site_label
_atom_site_type_symbol
_atom_site_fract_x
_atom_site_fract_y
_atom_site_fract_z
Zn1	Zn	-0.825644	-1.254842	-0.726347
Zn2	Zn	-0.978179	-1.279833	-0.579932
Zn3	Zn	-0.765952	-1.133387	-0.554655
Zn4	Zn	-0.967855	-1.108291	-0.701010
O5	O	-0.884407	-1.194088	-0.640486
O6	O	-0.875180	-1.380778	-0.728107
O7	O	-0.929366	-1.281368	-0.454054
O8	O	-0.625537	-1.149543	-0.577456
O9	O	-0.987247	-1.399138	-0.620537
O10	O	-0.669393	-1.238775	-0.703597
O11	O	-0.773444	-1.173775	-0.435483
O12	O	-0.763433	-1.007438	-0.552887
O13	O	-0.969651	-1.106770	-0.826896
O14	O	-0.911770	-0.989000	-0.660414
O15	O	-0.865169	-1.214440	-0.845511
O16	O	-1.125143	-1.257033	-0.595969
O17	O	-1.117557	-1.131002	-0.684924
C18	C	-0.830004	-0.966424	-0.601159
C19	C	-0.806760	-0.869025	-0.584355
C20	C	-1.159820	-1.194026	-0.640463
C21	C	-1.277667	-1.194075	-0.640496
C22	C	-0.922917	-1.155018	-0.868861
C23	C	-0.939327	-1.138369	-0.966181
C24	C	-1.440605	-1.115032	-0.696715
C25	C	-1.317926	-1.114725	-0.696437
C26	C	-1.300703	-1.184887	-0.543910
C27	C	-1.423272	-1.184405	-0.544251
C28	C	-1.470925	-1.282847	-0.680187
C29	C	-1.348523	-1.281932	-0.682106
C30	C	-0.607929	-1.194171	-0.640533
C31	C	-0.490110	-1.194206	-0.640553
C32	C	-0.939024	-1.422641	-0.679968
C33	C	-0.962298	-1.520037	-0.696792
C34	C	-1.050550	-0.556231	-0.760587
C35	C	-1.072397	-0.647743	-0.776372
C36	C	-1.005989	-0.703068	-0.728370
C37	C	-0.917731	-0.666873	-0.664578
C38	C	-0.895887	-0.575353	-0.648786
C39	C	-0.851327	-0.722189	-0.616569
C40	C	-0.763068	-0.685994	-0.552778
C41	C	-0.741228	-0.594483	-0.536989
C42	C	-0.807635	-0.539158	-0.584992
C43	C	-0.873171	-0.813709	-0.632361
C44	C	-0.718508	-0.832830	-0.520561
C45	C	-0.696661	-0.741319	-0.504775
C46	C	-0.845984	-1.233057	-0.413008
C47	C	-0.829315	-1.249876	-0.315718
C48	C	-1.002108	-1.074858	-0.002023
C49	C	-1.017780	-1.059057	-0.093432
C50	C	-0.970665	-1.106760	-0.149008
C51	C	-0.907876	-1.170268	-0.113166
C52	C	-0.892210	-1.186075	-0.021749
C53	C	-0.860766	-1.217977	-0.168734
C54	C	-0.797978	-1.281484	-0.132892
C55	C	-0.782314	-1.297288	-0.041483
C56	C	-0.829429	-1.249585	0.014093
C57	C	-0.876432	-1.202170	-0.260151
C58	C	-0.766534	-1.313386	-0.279877
C59	C	-0.750863	-1.329187	-0.188468
H60	H	-1.303065	-1.118642	-0.767555
H61	H	-1.455344	-1.240426	-0.500119
H62	H	-0.731198	-1.349008	-0.012306
H63	H	-0.669371	-0.565017	-0.485037
Br64	Br	-1.550034	-1.301968	-0.796986
Br65	Br	-0.961644	-1.115985	-0.308783
Br66	Br	-1.326568	-1.293964	-0.800715
H67	H	-0.728171	-1.352231	-0.325127
Br68	Br	-0.992947	-0.862821	-0.718931
Br69	Br	-1.192174	-0.696861	-0.862939
Br70	Br	-1.103001	-0.972882	-0.142070
H71	H	-1.104615	-0.511180	-0.799658
H72	H	-0.624800	-0.711835	-0.452835
H73	H	-0.983428	-1.093891	-0.223436
H74	H	-1.269634	-1.048692	-0.668918
H75	H	-0.789850	-0.464640	-0.572145
Br76	Br	-1.066051	-1.010133	0.073402
H77	H	-1.274154	-1.241425	-0.500220
Br78	Br	-0.628385	-0.907908	-0.455403
H79	H	-1.023782	-0.777581	-0.741226
Br80	Br	-1.460602	-1.005629	-0.651329
Br81	Br	-1.305627	-1.383323	-0.621020
Br82	Br	-0.808139	-1.271011	0.138157
H83	H	-1.432398	-1.120078	-0.512534
H84	H	-1.503590	-1.341639	-0.639476
H85	H	-0.699740	-1.380896	-0.159272
H86	H	-1.485314	-1.118767	-0.768033
H87	H	-1.250633	-1.121329	-0.511953
