data_functionalizedCrystal
_audit_creation_method	'MofGen! by Chris Wilmer'
_symmetry_space_group_name_H-M	'P1'
_symmetry_Int_Tables_number	1
_symmetry_cell_setting	triclinic
loop_
_symmetry_equiv_pos_as_xyz
  x,y,z
_cell_length_a	15.944499
_cell_length_b	14.421503
_cell_length_c	10.654550
_cell_angle_alpha	90.002669
_cell_angle_beta	96.018730
_cell_angle_gamma	90.010077
loop_
_atom_site_label
_atom_site_type_symbol
_atom_site_fract_x
_atom_site_fract_y
_atom_site_fract_z
O1	O	1.115492	0.077167	-0.161643
O2	O	0.871052	0.077157	-0.181679
O3	O	0.998892	0.077156	0.011152
O4	O	0.987652	0.077167	-0.354475
O5	O	0.998871	-0.077067	0.011130
O6	O	0.871032	-0.077067	-0.181701
O7	O	1.115471	-0.077056	-0.161665
Cu8	Cu	0.993249	-0.091143	-0.171685
Cu9	Cu	0.993274	0.091244	-0.171659
O10	O	0.987631	-0.077056	-0.354497
C11	C	0.839742	0.000044	-0.180870
C12	C	0.746480	0.000040	-0.178411
C13	C	0.455592	0.000057	-0.290441
C14	C	0.516294	0.076097	-0.232194
C15	C	0.410791	0.000061	-0.169476
C16	C	0.516260	-0.075955	-0.232183
C17	C	0.575726	0.000049	-0.173872
C18	C	0.470265	0.076164	-0.111195
C19	C	0.470225	-0.075957	-0.111201
C20	C	0.530909	0.000102	-0.052866
C21	C	0.315777	0.000068	-0.166947
C22	C	0.670739	0.000048	-0.176392
N23	N	0.993239	-0.219425	-0.171702
C24	C	0.934622	-0.530878	-0.261566
C25	C	0.916970	-0.469054	-0.148439
C26	C	0.993273	-0.591314	-0.171653
C27	C	1.010868	-0.469044	-0.284802
C28	C	0.993254	-0.408592	-0.171683
C29	C	0.975584	-0.530851	-0.058469
C30	C	1.069515	-0.530846	-0.194906
C31	C	1.051895	-0.469050	-0.081696
C32	C	0.993282	-0.696575	-0.171637
C33	C	0.993246	-0.303333	-0.171686
C34	C	1.146781	0.000059	-0.162474
C35	C	1.240043	0.000069	-0.164933
C36	C	0.998056	0.000045	0.057929
C37	C	0.995587	0.000046	0.197339
N38	N	0.993291	0.219525	-0.171632
C39	C	0.988467	0.000057	-0.401273
C40	C	0.990936	0.000062	-0.540683
C41	C	1.070857	0.000050	0.277820
C42	C	1.068532	0.000061	0.408810
C43	C	0.915660	0.000061	0.378826
C44	C	0.917986	0.000057	0.247839
H45	H	0.536697	0.140382	-0.283352
H46	H	1.134045	0.000043	0.236708
C47	C	1.178076	-0.379157	-0.034982
C48	C	1.118843	-0.432620	0.021035
H49	H	1.219405	-0.356670	0.028443
H50	H	1.150467	-0.328294	-0.078274
H51	H	1.204537	-0.416255	-0.093090
H52	H	1.092377	-0.395519	0.079137
H53	H	1.146455	-0.483490	0.064348
H54	H	1.133978	-0.558011	-0.214606
H55	H	0.884996	-0.558025	-0.337503
C56	C	0.768607	-0.463605	-0.216142
C57	C	0.829924	-0.432402	-0.121892
H58	H	0.714868	-0.440975	-0.199760
H59	H	0.767837	-0.529461	-0.216697
H60	H	0.781524	-0.441528	-0.295887
H61	H	0.817010	-0.454486	-0.042147
H62	H	0.830691	-0.366533	-0.121324
H63	H	1.025769	-0.441912	-0.380481
H64	H	0.449999	0.140522	-0.060070
H65	H	1.129825	0.000066	0.474332
C66	C	0.824374	0.079341	0.508754
C67	C	0.830366	0.000062	0.434345
H68	H	0.771718	0.079335	0.543033
H69	H	0.828461	0.133112	0.458279
H70	H	0.868875	0.079333	0.575428
H71	H	0.785868	0.000074	0.367666
H72	H	0.826271	-0.053722	0.484823
C73	C	0.766638	0.000048	0.231346
C74	C	0.835242	0.000050	0.159363
H75	H	0.715560	0.000040	0.176723
H76	H	0.768917	0.053827	0.283059
H77	H	0.768906	-0.053736	0.283061
H78	H	0.832978	0.053837	0.107655
H79	H	0.832963	-0.053735	0.107629
H80	H	0.449803	-0.140248	-0.060089
C81	C	0.434467	0.079892	-0.488987
C82	C	0.411369	0.000159	-0.425953
H83	H	0.407159	0.079960	-0.572640
H84	H	0.493835	0.080436	-0.491513
H85	H	0.418057	0.133356	-0.445565
H86	H	0.427784	-0.053305	-0.469370
H87	H	0.351988	-0.000393	-0.423434
H88	H	0.536623	-0.140239	-0.283376
C89	C	0.551714	0.079833	0.145798
C90	C	0.574927	0.000153	0.082767
H91	H	0.578894	0.079868	0.229528
H92	H	0.492327	0.080338	0.148111
H93	H	0.568191	0.133333	0.102510
H94	H	0.558444	-0.053347	0.126050
H95	H	0.634327	-0.000361	0.080461
H96	H	0.960618	-0.557886	0.037227
