data_functionalizedCrystal
_audit_creation_method	'MofGen! by Chris Wilmer'
_symmetry_space_group_name_H-M	'P1'
_symmetry_Int_Tables_number	1
_symmetry_cell_setting	triclinic
loop_
_symmetry_equiv_pos_as_xyz
  x,y,z
_cell_length_a	10.686220
_cell_length_b	16.625545
_cell_length_c	10.686551
_cell_angle_alpha	94.407339
_cell_angle_beta	89.691918
_cell_angle_gamma	94.407346
loop_
_atom_site_label
_atom_site_type_symbol
_atom_site_fract_x
_atom_site_fract_y
_atom_site_fract_z
Zn1	Zn	1.972230	-0.196578	0.562377
Zn2	Zn	2.305563	0.136755	0.895710
Zn3	Zn	2.638897	0.470088	1.229044
Zn4	Zn	1.955958	-0.342521	0.352612
Zn5	Zn	2.289291	-0.009187	0.685945
Zn6	Zn	2.622625	0.324146	1.019279
Zn7	Zn	1.746342	-0.217205	0.368694
Zn8	Zn	2.079676	0.116128	0.702027
Zn9	Zn	2.413009	0.449462	1.035360
Zn10	Zn	1.762389	-0.340887	0.578390
Zn11	Zn	2.095722	-0.007553	0.911723
Zn12	Zn	2.429055	0.325780	1.245056
O13	O	1.859230	-0.274298	0.465518
O14	O	2.192563	0.059036	0.798851
O15	O	2.525896	0.392369	1.132185
O16	O	2.145616	-0.207990	0.521120
O17	O	2.478949	0.125344	0.854453
O18	O	2.812282	0.458677	1.187786
O19	O	1.914627	-0.335213	0.179199
O20	O	2.247960	-0.001880	0.512533
O21	O	2.581293	0.331453	0.845866
O22	O	1.776401	-0.101630	0.394415
O23	O	2.109735	0.231703	0.727749
O24	O	2.443068	0.565036	1.061082
O25	O	2.133661	-0.315213	0.367006
O26	O	2.466994	0.018121	0.700340
O27	O	2.800327	0.351454	1.033673
O28	O	1.942360	-0.086476	0.536714
O29	O	2.275693	0.246857	0.870047
O30	O	2.609027	0.580191	1.203380
O31	O	1.760623	-0.243144	0.191014
O32	O	2.093956	0.090189	0.524348
O33	O	2.427290	0.423522	0.857681
O34	O	1.572927	-0.241560	0.409942
O35	O	1.906260	0.091773	0.743275
O36	O	2.239593	0.425107	1.076609
O37	O	1.803750	-0.312428	0.751811
O38	O	2.137083	0.020906	1.085145
O39	O	2.470416	0.354239	1.418478
O40	O	1.584716	-0.332428	0.564005
O41	O	1.918049	0.000905	0.897338
O42	O	2.251383	0.334238	1.230671
O43	O	1.957919	-0.206405	0.740047
O44	O	2.291253	0.126928	1.073380
O45	O	2.624586	0.460262	1.406714
O46	O	1.930186	-0.455142	0.382533
O47	O	2.263519	-0.121809	0.715866
O48	O	2.596853	0.211524	1.049200
O49	O	1.787972	-0.453942	0.548411
O50	O	2.121305	-0.120608	0.881744
O51	O	2.454638	0.212725	1.215077
C52	C	1.533305	-0.289056	0.490457
C53	C	1.866638	0.044278	0.823790
C54	C	2.199971	0.377611	1.157123
C55	C	1.393875	-0.295387	0.501155
C56	C	1.727208	0.037946	0.834489
C57	C	2.060542	0.371280	1.167822
C58	C	1.859090	-0.483797	0.465489
C59	C	2.192424	-0.150463	0.798822
C60	C	2.525757	0.182870	1.132156
C61	C	1.859149	-0.573414	0.465510
C62	C	2.192482	-0.240081	0.798843
C63	C	2.525815	0.093253	1.132176
C64	C	1.859199	-0.646193	0.465531
C65	C	2.192533	-0.312860	0.798864
C66	C	2.525866	0.020474	1.132198
C67	C	1.859275	-0.737497	0.465553
C68	C	2.192608	-0.404163	0.798886
C69	C	2.525941	-0.070830	1.132220
C70	C	1.859341	-0.810269	0.465564
C71	C	2.192674	-0.476936	0.798897
C72	C	2.526008	-0.143603	1.132231
C73	C	1.859415	-0.901579	0.465584
C74	C	2.192748	-0.568245	0.798918
C75	C	2.526081	-0.234912	1.132251
C76	C	2.186428	-0.259483	0.440483
C77	C	2.519761	0.073851	0.773816
C78	C	2.853094	0.407184	1.107150
C79	C	2.325860	-0.253169	0.429814
C80	C	2.659193	0.080164	0.763148
C81	C	2.992526	0.413497	1.096481
C82	C	1.884440	-0.256933	0.792719
C83	C	2.217773	0.076400	1.126052
C84	C	2.551106	0.409733	1.459386
C85	C	1.895183	-0.249534	0.932153
C86	C	2.228516	0.083800	1.265486
C87	C	2.561849	0.417133	1.598819
C88	C	1.859406	-0.063977	0.465572
C89	C	2.192739	0.269356	0.798905
C90	C	2.526073	0.602689	1.132239
C91	C	1.859481	0.025649	0.465595
C92	C	2.192814	0.358982	0.798928
C93	C	2.526148	0.692315	1.132262
C94	C	1.834190	-0.291533	0.139584
C95	C	2.167524	0.041800	0.472918
C96	C	2.500857	0.375134	0.806251
C97	C	1.823690	-0.298694	0.000133
C98	C	2.157024	0.034639	0.333466
C99	C	2.490357	0.367972	0.666800
H100	H	1.374297	-0.212182	0.360551
H101	H	1.707630	0.121152	0.693884
H102	H	2.040964	0.454485	1.027217
H103	H	1.964619	-0.201784	0.980628
H104	H	2.297952	0.131549	1.313962
H105	H	2.631285	0.464883	1.647295
F106	F	1.732948	-0.361111	0.936782
F107	F	2.066281	-0.027778	1.270115
F108	F	2.399614	0.305555	1.603448
H109	H	1.345431	-0.336383	0.570415
H110	H	1.678764	-0.003049	0.903749
H111	H	2.012098	0.330284	1.237082
