data_functionalizedCrystal
_audit_creation_method	'MofGen! by Chris Wilmer'
_symmetry_space_group_name_H-M	'P1'
_symmetry_Int_Tables_number	1
_symmetry_cell_setting	triclinic
loop_
_symmetry_equiv_pos_as_xyz
  x,y,z
_cell_length_a	10.654551
_cell_length_b	10.654550
_cell_length_c	9.130313
_cell_angle_alpha	90.003780
_cell_angle_beta	90.001552
_cell_angle_gamma	95.514868
loop_
_atom_site_label
_atom_site_type_symbol
_atom_site_fract_x
_atom_site_fract_y
_atom_site_fract_z
O1	O	0.176393	-1.667835	-0.121910
O2	O	0.193199	-1.302356	-0.121885
O3	O	0.002057	-1.493498	-0.121899
O4	O	0.367535	-1.476693	-0.121896
O5	O	0.002062	-1.493496	0.121700
O6	O	0.193204	-1.302354	0.121713
O7	O	0.176398	-1.667832	0.121689
Cu8	Cu	0.184802	-1.485093	0.143944
Cu9	Cu	0.184796	-1.485096	-0.144140
O10	O	0.367540	-1.476691	0.121703
C11	C	0.191968	-1.255557	-0.000083
C12	C	0.188276	-1.116114	-0.000074
N13	N	0.184805	-1.485100	0.346566
C14	C	-0.044739	-1.492263	-0.000103
C15	C	-0.184182	-1.488570	-0.000112
C16	C	-0.249696	-1.486839	-0.132895
C17	C	-0.380717	-1.483359	-0.132888
C18	C	-0.380697	-1.483346	0.132696
C19	C	-0.249678	-1.486817	0.132688
C20	C	-0.184201	-1.488592	-0.265696
C21	C	-0.249716	-1.486863	-0.398490
C22	C	-0.380736	-1.483382	-0.398483
C23	C	-0.446241	-1.481632	-0.265682
C24	C	0.414336	-1.477926	-0.000097
C25	C	0.553779	-1.481619	-0.000097
C26	C	0.177629	-1.714632	-0.000117
C27	C	0.181321	-1.854075	-0.000135
C28	C	0.300817	-1.036629	-0.000095
C29	C	0.297341	-0.905608	-0.000120
C30	C	0.068771	-0.933570	-0.000110
C31	C	0.072249	-1.064589	-0.000074
C32	C	0.416844	-1.088154	-0.000094
C33	C	0.529395	-1.008667	-0.000116
C34	C	0.525918	-0.877647	-0.000142
C35	C	0.409891	-0.826112	-0.000145
N36	N	0.184782	-1.485098	-0.346763
C37	C	0.100196	-1.569760	0.423212
C38	C	0.100181	-1.569756	0.576549
C39	C	0.269395	-1.400430	0.576581
C40	C	0.269403	-1.400428	0.423246
C41	C	0.015599	-1.654431	0.346532
C42	C	-0.069016	-1.739099	0.423178
C43	C	-0.069031	-1.739095	0.576515
C44	C	0.015569	-1.654425	0.653206
H45	H	-0.077518	-1.491429	-0.265716
O46	O	-0.444408	-1.481472	-0.527431
C47	C	-0.506938	-1.370898	-0.535361
H48	H	-0.458166	-1.296050	-0.460011
H49	H	-0.503974	-1.334422	-0.652808
H50	H	-0.609235	-1.392808	-0.499681
H51	H	-0.196371	-1.488276	-0.506611
H52	H	0.015541	-1.654420	0.778063
H53	H	0.338274	-1.331496	0.639032
H54	H	0.419687	-1.194836	-0.000080
H55	H	-0.552925	-1.478779	-0.265687
O56	O	-0.043822	-0.883305	-0.000191
C57	C	-0.022758	-0.750620	-0.000194
H58	H	0.074984	-0.720726	-0.046315
H59	H	-0.097065	-0.709773	-0.070935
H60	H	-0.029160	-0.714069	0.116661
O61	O	0.351716	-1.318150	0.349010
C62	C	0.426369	-1.243404	0.449566
H63	H	0.428267	-1.294902	0.558866
H64	H	0.526492	-1.225113	0.405269
H65	H	0.384719	-1.149759	0.465874
H66	H	-0.434042	-1.481921	0.240816
H67	H	0.015606	-1.654444	0.221678
H68	H	0.623860	-1.050636	-0.000101
O69	O	-0.185934	-1.488276	0.261626
C70	C	-0.096851	-1.381717	0.269526
H71	H	-0.127079	-1.304789	0.194180
H72	H	-0.090878	-1.345299	0.386969
H73	H	-0.000564	-1.408894	0.233820
H74	H	0.617562	-0.812931	-0.000145
O75	O	0.406575	-0.698831	-0.000425
C76	C	0.468125	-0.647413	-0.126578
H77	H	0.468115	-0.723182	-0.214741
H78	H	0.416556	-0.565795	-0.168947
H79	H	0.569473	-0.611683	-0.098057
H80	H	-0.019392	-1.129308	-0.000062
O81	O	-0.151141	-1.821491	0.348821
C82	C	-0.129577	-1.946002	0.386221
H83	H	-0.081195	-1.946301	0.497568
H84	H	-0.223416	-2.007020	0.391412
H85	H	-0.066684	-1.985367	0.299929
H86	H	-0.137936	-1.808026	0.638919
