data_functionalizedCrystal
_audit_creation_method	'MofGen! by Chris Wilmer'
_symmetry_space_group_name_H-M	'P1'
_symmetry_Int_Tables_number	1
_symmetry_cell_setting	triclinic
loop_
_symmetry_equiv_pos_as_xyz
  x,y,z
_cell_length_a	16.109301
_cell_length_b	11.892095
_cell_length_c	16.109301
_cell_angle_alpha	93.886619
_cell_angle_beta	96.538519
_cell_angle_gamma	93.895190
loop_
_atom_site_label
_atom_site_type_symbol
_atom_site_fract_x
_atom_site_fract_y
_atom_site_fract_z
O1	O	1.108445	0.093935	-0.101554
O2	O	0.866384	0.093953	-0.114853
O3	O	0.994064	0.093932	0.012827
O4	O	0.980766	0.093956	-0.229234
O5	O	0.983418	-0.094074	0.002198
O6	O	0.855739	-0.094052	-0.125482
O7	O	1.097800	-0.094071	-0.112184
Zn8	Zn	0.975079	-0.123912	-0.120520
Zn9	Zn	0.989105	0.123794	-0.106516
O10	O	0.970120	-0.094050	-0.239863
C11	C	0.830087	-0.000047	-0.119628
C12	C	0.737792	-0.000041	-0.118013
N13	N	0.965513	-0.292964	-0.130078
C14	C	0.515519	-0.000047	-0.190021
C15	C	0.428798	-0.000054	-0.188497
C16	C	0.448672	-0.000064	-0.037009
C17	C	0.535391	-0.000065	-0.038534
C18	C	0.568812	-0.000050	-0.115042
C19	C	0.395373	-0.000057	-0.111994
C20	C	0.301346	-0.000065	-0.110341
C21	C	0.662844	-0.000045	-0.116695
C22	C	1.065245	-0.529628	-0.030401
C23	C	1.058565	-0.647969	-0.037087
C24	C	0.945467	-0.647989	-0.150132
C25	C	0.952148	-0.529648	-0.143446
C26	C	1.012040	-0.470472	-0.083579
C27	C	1.018724	-0.352129	-0.076897
C28	C	0.905623	-0.352150	-0.189938
C29	C	0.898942	-0.470491	-0.196624
C30	C	1.134097	-0.000068	-0.107408
C31	C	1.226393	-0.000067	-0.109023
C32	C	0.988202	-0.000071	0.038487
C33	C	0.986587	-0.000073	0.130782
N34	N	0.998678	0.292847	-0.096952
C35	C	0.975982	-0.000044	-0.265523
C36	C	0.977598	-0.000035	-0.357818
C37	C	1.058595	-0.000060	0.353055
C38	C	1.057072	-0.000051	0.439776
C39	C	0.905584	-0.000044	0.419902
C40	C	0.907108	-0.000045	0.333184
C41	C	0.983617	-0.000059	0.299762
C42	C	0.980568	-0.000048	0.473202
C43	C	0.978916	-0.000038	0.567229
C44	C	0.985270	-0.000067	0.205730
H45	H	0.542727	-0.000043	-0.252319
H46	H	0.846048	-0.000041	0.289790
F47	F	1.140022	-0.000074	0.317489
H48	H	1.114017	-0.481447	0.018340
F49	F	0.592113	-0.000077	0.041273
F50	F	0.881722	-0.710980	-0.213836
H51	H	0.421449	-0.000083	0.025281
F52	F	0.372083	-0.000052	-0.268300
F53	F	1.082468	-0.289152	-0.013184
H54	H	1.101889	-0.696131	0.006217
H55	H	0.850177	-0.518686	-0.245365
F56	F	0.848999	-0.289180	-0.246540
F57	F	1.136875	-0.000050	0.496492
H58	H	0.843293	-0.000035	0.447125
