data_functionalizedCrystal
_audit_creation_method	'MofGen! by Chris Wilmer'
_symmetry_space_group_name_H-M	'P1'
_symmetry_Int_Tables_number	1
_symmetry_cell_setting	triclinic
loop_
_symmetry_equiv_pos_as_xyz
  x,y,z
_cell_length_a	21.395362
_cell_length_b	18.050590
_cell_length_c	21.395355
_cell_angle_alpha	89.981964
_cell_angle_beta	89.956060
_cell_angle_gamma	90.034430
loop_
_atom_site_label
_atom_site_type_symbol
_atom_site_fract_x
_atom_site_fract_y
_atom_site_fract_z
Zn1	Zn	0.957912	-0.295431	-0.354588
Zn2	Zn	1.457912	0.204569	0.145412
Zn3	Zn	0.957837	-0.419603	-0.249811
Zn4	Zn	1.457837	0.080397	0.250189
Zn5	Zn	0.853127	-0.295465	-0.249789
Zn6	Zn	1.353127	0.204535	0.250211
Zn7	Zn	0.853119	-0.419618	-0.354516
Zn8	Zn	1.353119	0.080382	0.145484
O9	O	0.905499	-0.357529	-0.302176
O10	O	1.405499	0.142471	0.197824
O11	O	1.045580	-0.311881	-0.340728
O12	O	1.545580	0.188119	0.159272
O13	O	0.943919	-0.403143	-0.162130
O14	O	1.443919	0.096857	0.337870
O15	O	0.867062	-0.191536	-0.263712
O16	O	1.367062	0.308464	0.236288
O17	O	1.045525	-0.403110	-0.263749
O18	O	1.545525	0.096890	0.236251
O19	O	0.944048	-0.191511	-0.340707
O20	O	1.444048	0.308489	0.159293
O21	O	0.866989	-0.311940	-0.162114
O22	O	1.366989	0.188060	0.337886
O23	O	0.765448	-0.311955	-0.263642
O24	O	1.265448	0.188045	0.236358
O25	O	0.867048	-0.403136	-0.442203
O26	O	1.367048	0.096864	0.057797
O27	O	0.765442	-0.403170	-0.340584
O28	O	1.265442	0.096830	0.159416
O29	O	0.944039	-0.311896	-0.442256
O30	O	1.444039	0.188104	0.057744
O31	O	0.943911	-0.523529	-0.263680
O32	O	1.443911	-0.023529	0.236320
O33	O	0.866975	-0.523540	-0.340606
O34	O	1.366975	-0.023540	0.159394
C35	C	0.742711	-0.357568	-0.302103
C36	C	1.242711	0.142432	0.197897
C37	C	0.673070	-0.357603	-0.302087
C38	C	1.173070	0.142397	0.197913
C39	C	0.905451	-0.550481	-0.302151
C40	C	1.405451	-0.050481	0.197849
C41	C	0.905487	-0.633027	-0.302161
C42	C	1.405487	-0.133027	0.197839
C43	C	0.640370	-0.405161	-0.342091
C44	C	1.140370	0.094839	0.157909
C45	C	0.574935	-0.405143	-0.342119
C46	C	1.074935	0.094857	0.157881
C47	C	0.542202	-0.357574	-0.302132
C48	C	1.042202	0.142426	0.197868
C49	C	0.574910	-0.310007	-0.262125
C50	C	1.074910	0.189993	0.237875
C51	C	0.640344	-0.310021	-0.262103
C52	C	1.140344	0.189979	0.237897
C53	C	0.438476	-0.351592	-0.245726
C54	C	0.938476	0.148408	0.254274
C55	C	0.373043	-0.351583	-0.245748
C56	C	0.873043	0.148417	0.254252
C57	C	0.340381	-0.357526	-0.302201
C58	C	0.840381	0.142474	0.197799
C59	C	0.373160	-0.363494	-0.358634
C60	C	0.873160	0.136506	0.141366
C61	C	0.438594	-0.363508	-0.358612
C62	C	0.938594	0.136492	0.141388
C63	C	0.471249	-0.357553	-0.302152
C64	C	0.971249	0.142447	0.197848
C65	C	0.236728	-0.405067	-0.342238
C66	C	0.736728	0.094933	0.157762
C67	C	0.171292	-0.405044	-0.342267
C68	C	0.671292	0.094956	0.157733
C69	C	0.171268	-0.309911	-0.262268
C70	C	0.671268	0.190089	0.237732
C71	C	0.236703	-0.309931	-0.262245
C72	C	0.736703	0.190069	0.237755
C73	C	0.269430	-0.357513	-0.302229
C74	C	0.769430	0.142487	0.197771
C75	C	0.947412	-0.832444	-0.260387
C76	C	1.447412	-0.332444	0.239613
C77	C	0.962722	-0.881784	-0.317576
C78	C	1.462722	-0.381784	0.182424
C79	C	0.905523	-0.784157	-0.302186
C80	C	1.405523	-0.284157	0.197814
C81	C	0.890277	-0.881899	-0.245023
C82	C	1.390277	-0.381899	0.254977
C83	C	0.905559	-0.930142	-0.302205
C84	C	1.405559	-0.430142	0.197795
C85	C	0.920862	-0.832410	-0.359405
C86	C	1.420862	-0.332410	0.140595
C87	C	0.848390	-0.832520	-0.286813
C88	C	1.348390	-0.332520	0.213187
C89	C	0.863678	-0.881838	-0.344042
C90	C	1.363678	-0.381838	0.155958
C91	C	0.905504	-0.700059	-0.302174
C92	C	1.405504	-0.200059	0.197826
C93	C	0.905577	-1.014239	-0.302224
C94	C	1.405577	-0.514239	0.197776
C95	C	1.068922	-0.357490	-0.302249
C96	C	1.568922	0.142510	0.197751
C97	C	1.138563	-0.357474	-0.302281
C98	C	1.638563	0.142526	0.197719
C99	C	0.905551	-0.357514	-0.465599
C100	C	1.405551	0.142486	0.034401
C101	C	0.905573	-0.357508	-0.535241
C102	C	1.405573	0.142492	-0.035241
C103	C	0.905564	-0.163823	-0.302215
C104	C	1.405564	0.336177	0.197785
C105	C	0.905592	-0.081278	-0.302231
C106	C	1.405592	0.418722	0.197769
C107	C	0.945661	-0.309997	-0.567982
C108	C	1.445661	0.190003	-0.067982
C109	C	0.945660	-0.309965	-0.633418
C110	C	1.445660	0.190035	-0.133418
C111	C	0.905578	-0.357457	-0.666109
C112	C	1.405578	0.142543	-0.166109
C113	C	0.865482	-0.404971	-0.633359
C114	C	1.365482	0.095029	-0.133359
C115	C	0.865480	-0.404996	-0.567925
C116	C	1.365480	0.095004	-0.067925
C117	C	0.900614	-0.424328	-0.769773
C118	C	1.400614	0.075672	-0.269773
C119	C	0.900621	-0.424304	-0.835206
C120	C	1.400621	0.075696	-0.335206
C121	C	0.905582	-0.357379	-0.867930
C122	C	1.405582	0.142621	-0.367930
C123	C	0.910549	-0.290475	-0.835212
C124	C	1.410549	0.209525	-0.335212
C125	C	0.910547	-0.290501	-0.769778
C126	C	1.410547	0.209499	-0.269778
C127	C	0.905576	-0.357434	-0.737061
C128	C	1.405576	0.142566	-0.237061
C129	C	0.945671	-0.309829	-0.971624
C130	C	1.445671	0.190171	-0.471624
C131	C	0.945665	-0.309796	-1.037061
C132	C	1.445665	0.190204	-0.537061
C133	C	0.865491	-0.404808	-1.037001
C134	C	1.365491	0.095192	-0.537001
C135	C	0.865493	-0.404835	-0.971566
C136	C	1.365493	0.095165	-0.471566
C137	C	0.905586	-0.357346	-0.938881
C138	C	1.405586	0.142654	-0.438881
C139	C	0.905483	-0.357490	-0.139388
C140	C	1.405483	0.142510	0.360612
C141	C	0.905582	-0.357288	-0.069747
C142	C	1.405582	0.142712	0.430253
H143	H	0.667012	-0.443905	-0.374650
H144	H	1.167012	0.056095	0.125350
N145	N	0.994349	-0.803703	-0.213618
N146	N	1.494349	-0.303703	0.286382
H147	H	0.972154	-0.772947	-0.181023
H148	H	1.472154	-0.272947	0.318977
H149	H	1.015929	-0.846851	-0.192732
H150	H	1.515929	-0.346851	0.307268
N151	N	1.026740	-0.910458	-0.334813
N152	N	1.526740	-0.410458	0.165187
H153	H	1.026173	-0.966407	-0.335091
H154	H	1.526173	-0.466407	0.164909
H155	H	1.038561	-0.891630	-0.377681
H156	H	1.538561	-0.391630	0.122319
N157	N	0.136019	-0.456344	-0.385414
N158	N	0.636019	0.043656	0.114586
H159	H	0.166683	-0.486490	-0.410736
H160	H	0.666683	0.013510	0.089264
H161	H	0.108820	-0.490654	-0.359860
H162	H	0.608820	0.009346	0.140140
N163	N	0.938036	-0.803746	-0.423472
N164	N	1.438036	-0.303746	0.076528
H165	H	0.937934	-0.747795	-0.423065
H166	H	1.437934	-0.247795	0.076935
H167	H	0.981054	-0.822155	-0.435148
H168	H	1.481054	-0.322155	0.064852
N169	N	0.915906	-0.218285	-0.870496
N170	N	1.415906	0.281715	-0.370496
H171	H	0.915152	-0.228418	-0.916913
H172	H	1.415152	0.271582	-0.416913
H173	H	0.879686	-0.185094	-0.859029
H174	H	1.379686	0.314906	-0.359029
N175	N	0.337695	-0.345148	-0.184882
N176	N	0.837695	0.154852	0.315118
H177	H	0.310575	-0.299382	-0.185806
H178	H	0.810575	0.200618	0.314194
H179	H	0.310548	-0.390409	-0.178978
H180	H	0.810548	0.109591	0.321022
N181	N	0.988901	-0.258770	-0.532739
N182	N	1.488901	0.241230	-0.032739
H183	H	0.979186	-0.205708	-0.544124
H184	H	1.479186	0.294292	-0.044124
H185	H	0.982803	-0.266051	-0.486327
H186	H	1.482803	0.233949	0.013673
N187	N	0.539661	-0.456449	-0.385265
N188	N	1.039661	0.043551	0.114735
H189	H	0.512463	-0.490809	-0.359753
H190	H	1.012463	0.009191	0.140247
H191	H	0.512599	-0.426267	-0.414350
H192	H	1.012599	0.073733	0.085650
H193	H	0.828269	-0.903388	-0.379439
H194	H	1.328269	-0.403388	0.120561
H195	H	0.346568	-0.368332	-0.404604
H196	H	0.846568	0.131668	0.095396
N197	N	0.135973	-0.258598	-0.219142
N198	N	0.635973	0.241402	0.280858
H199	H	0.089558	-0.265803	-0.225227
H200	H	0.589558	0.234197	0.274773
H201	H	0.147352	-0.270080	-0.174373
H202	H	0.647352	0.229920	0.325627
N203	N	0.988920	-0.258616	-0.936373
N204	N	1.488920	0.241384	-0.436373
H205	H	1.017946	-0.288813	-0.909258
H206	H	1.517946	0.211187	-0.409258
H207	H	1.014270	-0.228529	-0.967094
H208	H	1.514270	0.271471	-0.467094
H209	H	0.465064	-0.346749	-0.199752
H210	H	0.965064	0.153251	0.300248
H211	H	0.465280	-0.368366	-0.404562
H212	H	0.965280	0.131634	0.095438
H213	H	0.263328	-0.271207	-0.229666
H214	H	0.763328	0.228793	0.270334
H215	H	0.800073	-0.810862	-0.273781
H216	H	1.300073	-0.310862	0.226219
H217	H	0.832849	-0.443470	-1.063618
H218	H	1.332849	0.056530	-0.563618
N219	N	0.822240	-0.456183	-0.668615
N220	N	1.322240	0.043817	-0.168615
H221	H	0.828323	-0.448957	-0.715036
H222	H	1.328323	0.051043	-0.215036
H223	H	0.831964	-0.509228	-0.657188
H224	H	1.331964	-0.009228	-0.157188
H225	H	0.263376	-0.443807	-0.374799
H226	H	0.763376	0.056193	0.125201
H227	H	0.877367	-0.903637	-0.196673
H228	H	1.377367	-0.403637	0.303327
N229	N	0.822265	-0.456082	-0.936238
N230	N	1.322265	0.043918	-0.436238
H231	H	0.793243	-0.425912	-0.909068
H232	H	1.293243	0.074088	-0.409068
H233	H	0.796910	-0.486159	-0.966906
H234	H	1.296910	0.013841	-0.466906
H235	H	0.978303	-0.271272	-0.660081
H236	H	1.478303	0.228728	-0.160081
N237	N	0.988894	-0.258537	-1.072378
N238	N	1.488894	0.241463	-0.572378
H239	H	1.014288	-0.228457	-1.041741
H240	H	1.514288	0.271543	-0.541741
H241	H	1.017879	-0.288742	-1.099556
H242	H	1.517879	0.211258	-0.599556
N243	N	0.915906	-0.218349	-0.734489
N244	N	1.415906	0.281651	-0.234489
H245	H	0.919051	-0.175945	-0.765143
H246	H	1.419051	0.324055	-0.265143
H247	H	0.877732	-0.211472	-0.707311
H248	H	1.377732	0.288528	-0.207311
H249	H	0.896580	-0.478780	-0.861840
H250	H	1.396580	0.021220	-0.361840
H251	H	0.896406	-0.478812	-0.743135
H252	H	1.396406	0.021188	-0.243135
N253	N	0.822232	-0.456231	-0.532606
N254	N	1.322232	0.043769	-0.032606
H255	H	0.796834	-0.486309	-0.563243
H256	H	1.296834	0.013691	-0.063243
H257	H	0.847716	-0.490609	-0.505473
H258	H	1.347716	0.009391	-0.005473
H259	H	0.548254	-0.271275	-0.229568
H260	H	1.048254	0.228725	0.270432
H261	H	0.666968	-0.271291	-0.229527
H262	H	1.166968	0.228709	0.270473
