data_functionalizedCrystal
_audit_creation_method	'MofGen! by Chris Wilmer'
_symmetry_space_group_name_H-M	'P1'
_symmetry_Int_Tables_number	1
_symmetry_cell_setting	triclinic
loop_
_symmetry_equiv_pos_as_xyz
  x,y,z
_cell_length_a	12.827893
_cell_length_b	12.645330
_cell_length_c	12.827885
_cell_angle_alpha	89.971022
_cell_angle_beta	89.980728
_cell_angle_gamma	90.017662
loop_
_atom_site_label
_atom_site_type_symbol
_atom_site_fract_x
_atom_site_fract_y
_atom_site_fract_z
Zn1	Zn	1.597653	-0.421989	-0.590855
Zn2	Zn	1.597540	-0.599290	-0.416117
Zn3	Zn	1.422894	-0.422040	-0.416128
Zn4	Zn	1.422873	-0.599211	-0.590817
O5	O	1.510240	-0.510632	-0.503479
O6	O	1.743874	-0.445520	-0.567686
O7	O	1.574335	-0.575832	-0.269883
O8	O	1.446133	-0.273686	-0.439326
O9	O	1.743791	-0.575782	-0.439308
O10	O	1.574527	-0.273648	-0.567697
O11	O	1.446023	-0.445608	-0.269891
O12	O	1.276655	-0.445531	-0.439290
O13	O	1.446096	-0.575647	-0.737058
O14	O	1.276639	-0.575697	-0.567633
O15	O	1.574506	-0.445443	-0.737086
O16	O	1.574314	-0.747626	-0.439271
O17	O	1.445986	-0.747568	-0.567623
C18	C	1.238730	-0.510612	-0.503459
C19	C	1.122577	-0.510629	-0.503476
C20	C	1.070812	-0.575140	-0.566886
C21	C	0.950762	-0.575159	-0.566904
C22	C	1.510164	-0.786062	-0.503465
C23	C	1.510227	-0.903892	-0.503493
C24	C	1.429829	-1.071464	-0.584488
C25	C	1.429418	-0.948904	-0.584228
C26	C	1.480414	-0.948494	-0.393362
C27	C	1.479923	-1.071093	-0.393854
C28	C	1.620929	-1.070979	-0.531736
C29	C	1.620251	-0.948372	-0.534144
C30	C	1.782810	-0.510654	-0.503500
C31	C	1.898963	-0.510663	-0.503509
C32	C	1.510311	-0.510531	-0.776050
C33	C	1.510341	-0.510487	-0.892203
C34	C	1.510345	-0.234127	-0.503517
C35	C	1.510390	-0.116297	-0.503533
C36	C	1.573890	-0.446045	-0.944001
C37	C	1.573923	-0.445999	-1.064052
C38	C	1.510229	-0.510657	-0.231969
C39	C	1.510401	-0.510402	-0.115817
H40	H	1.448070	-0.918744	-0.665889
H41	H	1.628268	-0.390905	-0.899471
H42	H	1.537231	-0.919340	-0.331396
C43	C	1.130998	-0.649738	-0.640211
C44	C	1.116072	-0.770258	-0.631499
C45	C	1.176257	-0.844859	-0.704826
C46	C	1.251367	-0.798940	-0.786865
C47	C	1.266296	-0.678414	-0.795581
C48	C	1.206112	-0.603813	-0.722254
H49	H	1.060468	-0.804255	-0.570765
H50	H	1.165205	-0.934080	-0.698373
H51	H	1.295919	-0.854164	-0.841146
H52	H	1.321900	-0.644417	-0.856315
H53	H	1.217164	-0.514592	-0.728707
H54	H	0.906245	-0.630392	-0.621189
H55	H	1.628332	-0.390832	-1.108597
H56	H	0.943473	-0.455433	-0.449214
H57	H	1.648124	-1.101818	-0.610678
C58	C	1.370762	-1.109864	-0.361584
C59	C	1.357589	-1.179734	-0.264108
C60	C	1.248424	-1.218498	-0.231840
C61	C	1.152432	-1.187392	-0.297049
C62	C	1.165602	-1.117517	-0.394532
C63	C	1.274767	-1.078753	-0.426799
H64	H	1.428650	-1.202765	-0.215831
H65	H	1.238675	-1.270224	-0.159677
H66	H	1.071621	-1.216087	-0.273163
H67	H	1.094540	-1.094487	-0.442809
H68	H	1.284515	-1.027027	-0.498963
C69	C	1.319810	-1.113207	-0.559579
C70	C	1.302874	-1.187755	-0.466130
C71	C	1.192858	-1.229503	-0.441220
C72	C	1.099776	-1.196705	-0.509759
C73	C	1.116709	-1.122154	-0.603214
C74	C	1.226726	-1.080405	-0.628124
H75	H	1.371781	-1.212037	-0.415388
H76	H	1.180323	-1.284691	-0.372039
H77	H	1.018335	-1.227610	-0.491320
H78	H	1.047802	-1.097871	-0.653957
H79	H	1.239260	-1.025217	-0.697306
H80	H	1.455953	-0.565617	-0.936733
H81	H	1.642733	-0.919216	-0.615195
H82	H	1.536054	-1.100754	-0.331479
H83	H	1.078018	-0.455408	-0.449206
C84	C	1.454792	-1.111178	-0.695176
C85	C	1.548631	-1.184808	-0.713414
C86	C	1.573601	-1.224525	-0.824107
C87	C	1.504731	-1.190612	-0.916561
C88	C	1.410886	-1.116979	-0.898325
C89	C	1.385916	-1.077261	-0.787633
H90	H	1.599619	-1.209916	-0.644972
H91	H	1.643072	-1.279034	-0.837605
H92	H	1.523215	-1.220014	-0.998502
H93	H	1.359899	-1.091871	-0.966768
H94	H	1.316446	-1.022753	-0.774134
C95	C	1.372385	-0.907159	-0.360499
C96	C	1.311130	-0.832994	-0.433392
C97	C	1.203098	-0.791662	-0.400535
C98	C	1.156321	-0.824495	-0.294785
C99	C	1.217576	-0.898664	-0.221885
C100	C	1.325608	-0.939996	-0.254742
H101	H	1.345757	-0.808686	-0.511680
H102	H	1.157753	-0.736757	-0.454501
H103	H	1.076349	-0.793898	-0.270463
H104	H	1.182950	-0.922972	-0.143597
H105	H	1.370953	-0.994901	-0.200776
C106	C	1.705599	-0.907058	-0.460231
C107	C	1.676754	-0.831868	-0.370349
C108	C	1.762092	-0.790593	-0.296396
C109	C	1.876275	-0.824509	-0.312325
C110	C	1.905125	-0.899704	-0.402211
C111	C	1.819787	-0.940978	-0.476164
H112	H	1.592224	-0.806757	-0.358554
H113	H	1.740735	-0.734929	-0.229857
H114	H	1.939448	-0.793955	-0.257581
H115	H	1.989655	-0.924814	-0.414007
H116	H	1.841144	-0.996642	-0.542704
H117	H	1.347469	-0.919671	-0.565543
H118	H	1.680949	-1.099972	-0.472773
C119	C	1.436894	-0.584942	-1.055656
C120	C	1.354914	-0.538960	-0.980595
C121	C	1.281407	-0.613500	-0.920425
C122	C	1.289878	-0.734023	-0.935316
C123	C	1.371861	-0.780011	-1.010380
C124	C	1.445369	-0.705471	-1.070550
H125	H	1.348640	-0.449737	-0.969568
H126	H	1.220718	-0.579456	-0.864857
H127	H	1.235463	-0.789202	-0.890775
H128	H	1.378135	-0.869234	-1.021407
H129	H	1.506057	-0.739515	-1.126118
