data_functionalizedCrystal
_audit_creation_method	'MofGen! by Chris Wilmer'
_symmetry_space_group_name_H-M	'P1'
_symmetry_Int_Tables_number	1
_symmetry_cell_setting	triclinic
loop_
_symmetry_equiv_pos_as_xyz
  x,y,z
_cell_length_a	18.215407
_cell_length_b	18.215405
_cell_length_c	18.215399
_cell_angle_alpha	89.971534
_cell_angle_beta	90.019833
_cell_angle_gamma	89.970909
loop_
_atom_site_label
_atom_site_type_symbol
_atom_site_fract_x
_atom_site_fract_y
_atom_site_fract_z
Zn1	Zn	1.125053	0.292983	0.416113
Zn2	Zn	1.124953	0.416054	0.293046
Zn3	Zn	1.001985	0.293007	0.293061
Zn4	Zn	1.001943	0.416013	0.416071
O5	O	1.063484	0.354514	0.354573
O6	O	1.228024	0.309316	0.399800
O7	O	1.108617	0.399759	0.190063
O8	O	1.018370	0.190020	0.309408
O9	O	1.227951	0.399736	0.309383
O10	O	1.108787	0.190002	0.399814
O11	O	1.018273	0.309357	0.190074
O12	O	0.898995	0.309317	0.309367
O13	O	1.018298	0.399666	0.519061
O14	O	0.898964	0.399689	0.399742
O15	O	1.108746	0.309276	0.519092
O16	O	1.108576	0.519033	0.309341
O17	O	1.018201	0.519003	0.399727
C18	C	0.872277	0.354502	0.354551
C19	C	0.790478	0.354514	0.354560
C20	C	0.602288	0.401645	0.401559
C21	C	0.525429	0.401647	0.401568
C22	C	0.525432	0.307397	0.307602
C23	C	0.602289	0.307392	0.307597
C24	C	0.640715	0.354520	0.354575
C25	C	0.486999	0.354528	0.354589
C26	C	0.403665	0.354530	0.354598
C27	C	0.724054	0.354517	0.354566
C28	C	1.063393	0.545721	0.354544
C29	C	1.063422	0.627520	0.354557
C30	C	1.110505	0.815643	0.401692
C31	C	1.110524	0.892502	0.401704
C32	C	1.016450	0.892634	0.307483
C33	C	1.016428	0.815776	0.307475
C34	C	1.063460	0.777283	0.354578
C35	C	1.063500	0.930999	0.354599
C36	C	1.063520	1.014333	0.354612
C37	C	1.063439	0.693944	0.354566
C38	C	1.255436	0.354528	0.354594
C39	C	1.337235	0.354533	0.354603
C40	C	1.063528	0.354464	0.546526
C41	C	1.063547	0.354442	0.628325
C42	C	1.063568	1.162561	0.354613
C43	C	1.063538	1.080763	0.354620
C44	C	1.063481	0.354512	0.163366
C45	C	1.063605	0.354326	0.081568
C46	C	1.110661	0.307332	0.816536
C47	C	1.110670	0.307311	0.893395
C48	C	1.016486	0.401438	0.893351
C49	C	1.016474	0.401455	0.816494
C50	C	1.063566	0.354403	0.778088
C51	C	1.063586	0.354365	0.931804
C52	C	1.063596	0.354342	1.015138
C53	C	1.063556	0.354425	0.694749
H54	H	0.633572	0.440018	0.439813
H55	H	0.978114	0.784541	0.269109
C56	C	0.964672	0.453241	0.774198
H57	H	0.936636	0.481270	0.808077
H58	H	0.932618	0.425098	0.744215
H59	H	0.992811	0.485315	0.744215
C60	C	1.162481	0.255542	0.935688
H61	H	1.155742	0.262265	0.986962
H62	H	1.211917	0.266323	0.923097
H63	H	1.151738	0.206093	0.923104
H64	H	1.149004	0.269017	0.785268
C65	C	0.964697	0.453198	0.935599
H66	H	0.971454	0.446452	0.986880
H67	H	0.915253	0.442431	0.922999
H68	H	0.975445	0.502649	0.922990
C69	C	1.162231	0.773300	0.453506
H70	H	1.155487	0.722032	0.446750
H71	H	1.151434	0.785874	0.502944
H72	H	1.211691	0.785864	0.442781
H73	H	0.978159	0.923984	0.269132
H74	H	0.494145	0.440020	0.439829
H75	H	0.494136	0.269028	0.269354
H76	H	0.633577	0.269012	0.269337
H77	H	1.148831	0.923732	0.440071
