data_functionalizedCrystal
_audit_creation_method	'MofGen! by Chris Wilmer'
_symmetry_space_group_name_H-M	'P1'
_symmetry_Int_Tables_number	1
_symmetry_cell_setting	triclinic
loop_
_symmetry_equiv_pos_as_xyz
  x,y,z
_cell_length_a	11.792241
_cell_length_b	11.792241
_cell_length_c	10.268362
_cell_angle_alpha	89.995478
_cell_angle_beta	90.008848
_cell_angle_gamma	84.193416
loop_
_atom_site_label
_atom_site_type_symbol
_atom_site_fract_x
_atom_site_fract_y
_atom_site_fract_z
O1	O	-1.506894	-0.155569	0.108174
O2	O	-1.256894	0.094431	0.358174
O3	O	-1.006894	0.344431	0.608174
O4	O	-0.756894	0.594431	0.858174
O5	O	-1.176553	-0.171602	0.108205
O6	O	-0.926553	0.078398	0.358205
O7	O	-0.676553	0.328398	0.608205
O8	O	-0.426553	0.578398	0.858205
O9	O	-1.349740	0.001585	0.108180
O10	O	-1.099740	0.251585	0.358180
O11	O	-0.849740	0.501585	0.608180
O12	O	-0.599740	0.751585	0.858180
O13	O	-1.333707	-0.328756	0.108199
O14	O	-1.083707	-0.078756	0.358199
O15	O	-0.833707	0.171244	0.608199
O16	O	-0.583707	0.421244	0.858199
O17	O	-1.349755	0.001593	-0.108421
O18	O	-1.099755	0.251593	0.141579
O19	O	-0.849755	0.501593	0.391579
O20	O	-0.599755	0.751593	0.641579
O21	O	-1.176568	-0.171594	-0.108396
O22	O	-0.926568	0.078406	0.141604
O23	O	-0.676568	0.328406	0.391604
O24	O	-0.426568	0.578406	0.641604
O25	O	-1.506909	-0.155561	-0.108426
O26	O	-1.256909	0.094439	0.141574
O27	O	-1.006909	0.344439	0.391574
O28	O	-0.756909	0.594439	0.641574
Cu29	Cu	-1.341740	-0.163577	-0.128188
Cu30	Cu	-1.091740	0.086423	0.121812
Cu31	Cu	-0.841740	0.336423	0.371812
Cu32	Cu	-0.591740	0.586423	0.621812
Cu33	Cu	-1.341722	-0.163586	0.127967
Cu34	Cu	-1.091722	0.086414	0.377967
Cu35	Cu	-0.841722	0.336414	0.627967
Cu36	Cu	-0.591722	0.586414	0.877967
O37	O	-1.333722	-0.328748	-0.108401
O38	O	-1.083722	-0.078748	0.141599
O39	O	-0.833722	0.171252	0.391599
O40	O	-0.583722	0.421252	0.641599
C41	C	-1.134269	-0.170591	-0.000092
C42	C	-0.884269	0.079409	0.249908
C43	C	-0.634269	0.329409	0.499908
C44	C	-0.384269	0.579409	0.749908
C45	C	-1.008256	-0.167576	-0.000080
C46	C	-0.758256	0.082424	0.249920
C47	C	-0.508256	0.332424	0.499920
C48	C	-0.258256	0.582424	0.749920
C49	C	-1.348740	0.043880	-0.000120
C50	C	-1.098740	0.293880	0.249880
C51	C	-0.848740	0.543880	0.499880
C52	C	-0.598740	0.793880	0.749880
C53	C	-1.345726	0.169894	-0.000119
C54	C	-1.095726	0.419894	0.249881
C55	C	-0.845726	0.669894	0.499881
C56	C	-0.595726	0.919894	0.749881
C57	C	-1.549192	-0.156572	-0.000127
C58	C	-1.299192	0.093428	0.249873
C59	C	-1.049192	0.343428	0.499873
C60	C	-0.799192	0.593428	0.749873
C61	C	-1.675206	-0.159587	-0.000130
C62	C	-1.425206	0.090413	0.249870
C63	C	-1.175206	0.340413	0.499870
C64	C	-0.925206	0.590413	0.749870
C65	C	-0.777543	-0.162034	-0.000118
C66	C	-0.527543	0.087966	0.249882
C67	C	-0.277543	0.337966	0.499882
C68	C	-0.027543	0.587966	0.749882
C69	C	-0.905928	-0.165113	-0.000097
C70	C	-0.655928	0.084887	0.249903
C71	C	-0.405928	0.334887	0.499903
C72	C	-0.155928	0.584887	0.749903
C73	C	-1.334721	-0.371043	-0.000099
C74	C	-1.084721	-0.121043	0.249901
C75	C	-0.834721	0.128957	0.499901
C76	C	-0.584721	0.378957	0.749901
C77	C	-1.337736	-0.497057	-0.000092
C78	C	-1.087736	-0.247057	0.249908
C79	C	-0.837736	0.002943	0.499908
C80	C	-0.587736	0.252943	0.749908
N81	N	-1.341761	-0.163570	-0.308354
N82	N	-1.091761	0.086430	-0.058354
N83	N	-0.841761	0.336430	0.191646
N84	N	-0.591761	0.586430	0.441646
C85	C	-1.340183	0.400606	-0.000096
C86	C	-1.090183	0.650606	0.249904
C87	C	-0.840183	0.900606	0.499904
C88	C	-0.590183	1.150606	0.749904
C89	C	-1.343262	0.272221	-0.000108
C90	C	-1.093262	0.522221	0.249892
C91	C	-0.843262	0.772221	0.499892
C92	C	-0.593262	1.022221	0.749892
N93	N	-1.341710	-0.163584	0.308133
N94	N	-1.091710	0.086416	0.558133
N95	N	-0.841710	0.336416	0.808133
N96	N	-0.591710	0.586416	1.058133
C97	C	-1.341717	-0.163584	0.425975
C98	C	-1.091717	0.086416	0.675975
C99	C	-0.841717	0.336416	0.925975
C100	C	-0.591717	0.586416	1.175975
C101	C	-1.341738	-0.163580	0.573813
C102	C	-1.091738	0.086420	0.823813
C103	C	-0.841738	0.336420	1.073813
C104	C	-0.591738	0.586420	1.323813
