data_functionalizedCrystal
_audit_creation_method	'MofGen! by Chris Wilmer'
_symmetry_space_group_name_H-M	'P1'
_symmetry_Int_Tables_number	1
_symmetry_cell_setting	triclinic
loop_
_symmetry_equiv_pos_as_xyz
  x,y,z
_cell_length_a	10.654550
_cell_length_b	10.489741
_cell_length_c	9.130313
_cell_angle_alpha	89.999004
_cell_angle_beta	89.996220
_cell_angle_gamma	84.512038
loop_
_atom_site_label
_atom_site_type_symbol
_atom_site_fract_x
_atom_site_fract_y
_atom_site_fract_z
O1	O	1.667918	0.179156	-0.121919
O2	O	1.302447	0.196226	-0.121895
O3	O	1.493499	0.002089	-0.121899
O4	O	1.476867	0.373293	-0.121915
O5	O	1.493497	0.002094	0.121700
O6	O	1.302445	0.196231	0.121703
O7	O	1.667916	0.179161	0.121680
Cu8	Cu	1.485180	0.187697	0.143934
Cu9	Cu	1.485183	0.187690	-0.144150
O10	O	1.476864	0.373298	0.121683
C11	C	1.255648	0.194975	-0.000093
C12	C	1.116203	0.191225	-0.000084
C13	C	1.036771	0.305530	-0.000110
C14	C	0.905748	0.301999	-0.000135
C15	C	0.933603	0.069849	-0.000114
C16	C	1.064623	0.073381	-0.000078
C17	C	1.020688	0.439560	-0.000129
C18	C	0.889665	0.436029	-0.000154
C19	C	1.492241	-0.045439	-0.000100
C20	C	1.488483	-0.187067	-0.000103
C21	C	1.366923	-0.255148	-0.000106
C22	C	1.424346	-0.347296	0.119997
C23	C	1.424377	-0.347276	-0.120172
C24	C	1.545956	-0.277349	0.120099
C25	C	1.545970	-0.277320	-0.120178
C26	C	1.603481	-0.369440	-0.000045
C27	C	1.714715	0.180412	-0.000126
C28	C	1.854160	0.184162	-0.000145
C29	C	1.478122	0.420826	-0.000118
C30	C	1.481880	0.562454	-0.000126
N31	N	1.485187	0.187700	0.346557
N32	N	1.485186	0.187677	-0.346772
C33	C	1.569807	0.101766	0.423207
C34	C	1.569803	0.101751	0.576544
C35	C	1.400557	0.273615	0.576567
C36	C	1.400555	0.273623	0.423232
C37	C	1.667524	0.002545	0.423195
C38	C	1.667520	0.002530	0.576532
H39	H	1.266977	-0.205449	0.000022
O40	O	0.877967	-0.057249	-0.000102
H41	H	0.909820	-0.112245	-0.099370
H42	H	1.597345	-0.246540	0.221751
O43	O	1.059545	0.508915	0.134983
H44	H	1.012853	0.608148	0.134962
O45	O	1.067963	0.496100	-0.139427
H46	H	0.987069	0.523224	-0.213306
O47	O	1.356230	-0.388342	0.254515
H48	H	1.258055	-0.342148	0.254281
H49	H	1.331651	0.343570	0.639012
H50	H	0.844012	0.476537	0.105012
H51	H	0.847957	0.486527	-0.102110
H52	H	1.372927	-0.378217	-0.221719
H53	H	1.646035	-0.095500	0.381581
H54	H	1.703518	-0.418912	0.000015
H55	H	1.597363	-0.246302	-0.221728
H56	H	1.331641	0.343586	0.360825
O57	O	1.788330	0.043668	0.360166
H58	H	1.852381	0.065461	0.450754
O59	O	1.627106	-0.120214	0.639545
H60	H	1.605680	-0.185278	0.548949
H61	H	1.764042	0.024385	0.618141
H62	H	1.129293	-0.019697	-0.000036
