data_functionalizedCrystal
_audit_creation_method	'MofGen! by Chris Wilmer'
_symmetry_space_group_name_H-M	'P1'
_symmetry_Int_Tables_number	1
_symmetry_cell_setting	triclinic
loop_
_symmetry_equiv_pos_as_xyz
  x,y,z
_cell_length_a	12.759401
_cell_length_b	19.805405
_cell_length_c	12.759393
_cell_angle_alpha	89.963446
_cell_angle_beta	89.979062
_cell_angle_gamma	90.027935
loop_
_atom_site_label
_atom_site_type_symbol
_atom_site_fract_x
_atom_site_fract_y
_atom_site_fract_z
Zn1	Zn	1.606181	-0.269403	-0.593976
Zn2	Zn	2.106181	0.230597	-0.093976
Zn3	Zn	1.606036	-0.382606	-0.418277
Zn4	Zn	2.106036	0.117394	0.081723
Zn5	Zn	1.430480	-0.269439	-0.418311
Zn6	Zn	1.930480	0.230561	0.081689
Zn7	Zn	1.430436	-0.382558	-0.593915
Zn8	Zn	1.930436	0.117442	-0.093915
O9	O	1.518283	-0.326001	-0.506120
O10	O	2.018283	0.173999	-0.006120
O11	O	1.753183	-0.284424	-0.570681
O12	O	2.253183	0.215576	-0.070681
O13	O	1.582706	-0.367629	-0.271261
O14	O	2.082706	0.132371	0.228739
O15	O	1.453866	-0.174718	-0.441653
O16	O	1.953866	0.325282	0.058347
O17	O	1.753076	-0.367594	-0.441596
O18	O	2.253076	0.132406	0.058404
O19	O	1.582953	-0.174691	-0.570713
O20	O	2.082953	0.325309	-0.070713
O21	O	1.453725	-0.284486	-0.271285
O22	O	1.953725	0.215514	0.228715
O23	O	1.283453	-0.284440	-0.441594
O24	O	1.783453	0.215560	0.058406
O25	O	1.453791	-0.367513	-0.740944
O26	O	1.953791	0.132487	-0.240944
O27	O	1.283420	-0.367548	-0.570609
O28	O	1.783420	0.132452	-0.070609
O29	O	1.582910	-0.284378	-0.740989
O30	O	2.082910	0.215622	-0.240989
O31	O	1.582663	-0.477316	-0.441536
O32	O	2.082663	0.022684	0.058464
O33	O	1.453650	-0.477281	-0.570576
O34	O	1.953650	0.022719	-0.070576
C35	C	1.245316	-0.325993	-0.506099
C36	C	1.745316	0.174007	-0.006099
C37	C	1.128539	-0.326006	-0.506115
C38	C	1.628539	0.173994	-0.006115
C39	C	1.073688	-0.369346	-0.573187
C40	C	1.573688	0.130654	-0.073187
C41	C	0.963964	-0.369349	-0.573208
C42	C	1.463964	0.130651	-0.073208
C43	C	0.963952	-0.282669	-0.439075
C44	C	1.463952	0.217331	0.060925
C45	C	1.073674	-0.282663	-0.439060
C46	C	1.573674	0.217337	0.060940
C47	C	1.518165	-0.501858	-0.506069
C48	C	2.018165	-0.001858	-0.006069
C49	C	1.518210	-0.577089	-0.506082
C50	C	2.018210	-0.077089	-0.006082
C51	C	1.585453	-0.612429	-0.438962
C52	C	2.085453	-0.112429	0.061038
C53	C	1.585497	-0.683118	-0.438985
C54	C	2.085497	-0.183118	0.061015
C55	C	1.518294	-0.718465	-0.506124
C56	C	2.018294	-0.218465	-0.006124
C57	C	1.451048	-0.683120	-0.573252
C58	C	1.951048	-0.183120	-0.073252
C59	C	1.451010	-0.612433	-0.573234
C60	C	1.951010	-0.112433	-0.073234
C61	C	1.451203	-0.968194	-0.573330
C62	C	1.951203	-0.468194	-0.073330
C63	C	1.451245	-1.038886	-0.573342
C64	C	1.951245	-0.538886	-0.073342
C65	C	1.585691	-1.038878	-0.439081
C66	C	2.085691	-0.538878	0.060919
C67	C	1.585652	-0.968191	-0.439063
C68	C	2.085652	-0.468191	0.060937
C69	C	1.518411	-0.932852	-0.506194
C70	C	2.018411	-0.432852	-0.006194
C71	C	1.518365	-0.856204	-0.506170
C72	C	2.018365	-0.356204	-0.006170
C73	C	1.518334	-0.795112	-0.506144
C74	C	2.018334	-0.295112	-0.006144
C75	C	1.792316	-0.326010	-0.506141
C76	C	2.292316	0.173990	-0.006141
C77	C	1.909093	-0.326014	-0.506150
C78	C	2.409093	0.173986	-0.006150
C79	C	1.518362	-0.325936	-0.780153
C80	C	2.018362	0.174064	-0.280153
C81	C	1.518395	-0.325909	-0.896930
C82	C	2.018395	0.174091	-0.396930
C83	C	1.518430	-0.149459	-0.506194
C84	C	2.018430	0.350541	-0.006194
C85	C	1.518493	-0.074227	-0.506225
C86	C	2.018493	0.425773	-0.006225
C87	C	1.585633	-0.282614	-0.951817
C88	C	2.085633	0.217386	-0.451817
C89	C	1.585650	-0.282584	-1.061541
C90	C	2.085650	0.217416	-0.561541
C91	C	1.451190	-0.369151	-1.061481
C92	C	1.951190	0.130849	-0.561481
C93	C	1.451168	-0.369177	-0.951759
C94	C	1.951168	0.130823	-0.451759
C95	C	1.518265	-0.326017	-0.233152
C96	C	2.018265	0.173983	0.266848
C97	C	1.518435	-0.325854	-0.116376
C98	C	2.018435	0.174146	0.383624
H99	H	0.919309	-0.404640	-0.627827
H100	H	1.419309	0.095360	-0.127827
O101	O	1.651035	-0.240676	-0.898506
O102	O	2.151035	0.259324	-0.398506
C103	C	1.718833	-0.279223	-0.835010
C104	C	2.218833	0.220777	-0.335010
H105	H	1.725293	-0.332524	-0.868051
H106	H	2.225293	0.167476	-0.368051
H107	H	1.799703	-0.254741	-0.833787
H108	H	2.299703	0.245259	-0.333787
H109	H	1.686328	-0.281573	-0.751848
H110	H	2.186328	0.218427	-0.251848
H111	H	1.640372	-0.939413	-0.384388
H112	H	2.140372	-0.439413	0.115612
O113	O	1.385739	-0.411141	-0.898389
O114	O	1.885739	0.088859	-0.398389
C115	C	1.317922	-0.372616	-0.834908
C116	C	1.817922	0.127384	-0.334908
H117	H	1.311485	-0.319300	-0.867999
H118	H	1.811485	0.180700	-0.367999
H119	H	1.237047	-0.397092	-0.833635
H120	H	1.737047	0.102908	-0.333635
H121	H	1.350393	-0.370302	-0.751759
H122	H	1.850393	0.129698	-0.251759
H123	H	1.118335	-0.247366	-0.384442
H124	H	1.618335	0.252634	0.115558
O125	O	0.910491	-0.240633	-0.373974
O126	O	1.410491	0.259367	0.126026
C127	C	0.801885	-0.249918	-0.388386
C128	C	1.301885	0.250082	0.111614
H129	H	0.786882	-0.302182	-0.422642
H130	H	1.286882	0.197818	0.077358
H131	H	0.760148	-0.245264	-0.309710
H132	H	1.260148	0.254736	0.190290
H133	H	0.770804	-0.209818	-0.444459
H134	H	1.270804	0.290182	0.055541
O135	O	1.651002	-1.073312	-0.373991
O136	O	2.151002	-0.573312	0.126009
C137	C	1.636626	-1.143282	-0.388393
C138	C	2.136626	-0.643282	0.111607
H139	H	1.602161	-1.152911	-0.469437
H140	H	2.102161	-0.652911	0.030563
H141	H	1.715350	-1.170099	-0.381369
H142	H	2.215350	-0.670099	0.118631
H143	H	1.580743	-1.163415	-0.326019
H144	H	2.080743	-0.663415	0.173981
H145	H	1.640173	-0.583654	-0.384284
H146	H	2.140173	-0.083654	0.115716
H147	H	1.118356	-0.404637	-0.627790
H148	H	1.618356	0.095363	-0.127790
O149	O	1.386112	-1.073297	-0.638624
O150	O	1.886112	-0.573297	-0.138624
C151	C	1.445926	-1.114107	-0.706550
C152	C	1.945926	-0.614107	-0.206550
H153	H	1.525567	-1.124669	-0.669558
H154	H	2.025567	-0.624669	-0.169558
H155	H	1.403157	-1.163832	-0.720604
H156	H	1.903157	-0.663832	-0.220604
H157	H	1.457422	-1.086821	-0.784413
H158	H	1.957422	-0.586821	-0.284413
H159	H	1.640400	-0.247328	-1.106225
H160	H	2.140400	0.252672	-0.606225
O161	O	1.385744	-0.578175	-0.638581
O162	O	1.885744	-0.078175	-0.138581
C163	C	1.408684	-0.595370	-0.743317
C164	C	1.908684	-0.095370	-0.243317
H165	H	1.449093	-0.646672	-0.745540
H166	H	1.949093	-0.146672	-0.245540
H167	H	1.332841	-0.597801	-0.790367
H168	H	1.832841	-0.097801	-0.290367
H169	H	1.462667	-0.555541	-0.778737
H170	H	1.962667	-0.055541	-0.278737
H171	H	1.396459	-0.404380	-1.106137
H172	H	1.896459	0.095620	-0.606137
H173	H	1.396452	-0.939426	-0.627989
H174	H	1.896452	-0.439426	-0.127989
O175	O	1.650847	-0.717342	-0.373681
O176	O	2.150847	-0.217342	0.126319
C177	C	1.710166	-0.670986	-0.314432
C178	C	2.210166	-0.170986	0.185568
H179	H	1.667104	-0.620624	-0.310745
H180	H	2.167104	-0.120624	0.189255
H181	H	1.721423	-0.691446	-0.231669
H182	H	2.221423	-0.191446	0.268331
H183	H	1.789937	-0.663402	-0.352969
H184	H	2.289937	-0.163402	0.147031
H185	H	1.396334	-0.711906	-0.627923
H186	H	1.896334	-0.211906	-0.127923
