data_functionalizedCrystal
_audit_creation_method	'MofGen! by Chris Wilmer'
_symmetry_space_group_name_H-M	'P1'
_symmetry_Int_Tables_number	1
_symmetry_cell_setting	triclinic
loop_
_symmetry_equiv_pos_as_xyz
  x,y,z
_cell_length_a	12.837943
_cell_length_b	14.853567
_cell_length_c	11.295483
_cell_angle_alpha	94.104625
_cell_angle_beta	85.461227
_cell_angle_gamma	89.231935
loop_
_atom_site_label
_atom_site_type_symbol
_atom_site_fract_x
_atom_site_fract_y
_atom_site_fract_z
O1	O	1.382763	0.228927	-0.098984
O2	O	1.080941	0.217348	-0.098992
O3	O	1.239915	0.092592	-0.098991
O4	O	1.223790	0.353684	-0.098985
O5	O	1.225952	0.103530	0.099059
O6	O	1.066978	0.228287	0.099059
O7	O	1.368800	0.239866	0.099067
Cu8	Cu	1.216614	0.235075	0.117146
Cu9	Cu	1.233127	0.222139	-0.117072
O10	O	1.209827	0.364623	0.099066
C11	C	1.035334	0.218906	0.000032
C12	C	0.920240	0.207240	0.000029
C13	C	1.232203	0.064410	0.000030
C14	C	1.230014	-0.035860	0.000020
C15	C	0.679482	0.347487	0.000049
C16	C	0.571341	0.336530	0.000047
C17	C	0.595813	0.174369	0.000030
C18	C	0.703954	0.185327	0.000032
C19	C	0.745785	0.271888	0.000040
C20	C	0.853929	0.282844	0.000034
C21	C	0.878399	0.120685	0.000026
C22	C	0.770257	0.109728	0.000023
C23	C	1.126324	-0.457187	0.000040
C24	C	1.315188	-0.462449	0.000045
C25	C	1.317247	-0.368241	0.000038
C26	C	1.223843	-0.318502	0.000034
C27	C	1.128380	-0.362970	0.000037
C28	C	1.412707	-0.323764	0.000047
C29	C	1.414770	-0.229551	0.000042
C30	C	1.321366	-0.179810	0.000029
C31	C	1.225899	-0.224285	0.000030
C32	C	1.132495	-0.174546	0.000026
C33	C	1.037028	-0.219019	0.000019
C34	C	1.034976	-0.313230	0.000024
C35	C	1.323418	-0.085599	0.000024
C36	C	1.134551	-0.080329	0.000023
C37	C	1.414408	0.238308	0.000040
C38	C	1.529502	0.249974	0.000036
C39	C	1.217539	0.392804	0.000042
C40	C	1.219728	0.493073	0.000044
N41	N	1.205008	0.244174	0.281883
N42	N	1.244742	0.213033	-0.281808
C43	C	1.328293	0.147484	0.531173
C44	C	1.319529	0.154367	0.655836
C45	C	1.178712	0.264819	0.655876
C46	C	1.187475	0.257935	0.531212
C47	C	1.262270	0.199267	0.468865
C48	C	1.271038	0.192389	0.344199
C49	C	1.130216	0.302836	0.344241
C50	C	1.121452	0.309719	0.468904
H51	H	0.713541	0.417969	0.000054
H52	H	1.488750	-0.364268	0.000062
H53	H	0.517360	0.398091	0.000058
C54	C	0.764998	-0.037477	-0.101809
C55	C	0.724273	0.014582	0.000009
H56	H	0.736614	-0.096219	-0.101816
H57	H	0.747108	-0.009767	-0.170854
H58	H	0.838893	-0.041764	-0.101798
H59	H	0.650378	0.018873	-0.000007
H60	H	0.742155	-0.013136	0.069071
H61	H	0.932395	0.059126	0.000010
C62	C	0.818872	0.442032	0.000066
C63	C	0.899912	0.377991	0.000050
H64	H	0.847260	0.500772	0.000086
H65	H	0.782073	0.430577	-0.068996
H66	H	0.772333	0.438185	0.069134
H67	H	0.946448	0.381832	-0.069023
H68	H	0.936728	0.389449	0.069119
C69	C	1.601252	-0.244226	0.000038
C70	C	1.519705	-0.180671	0.000035
H71	H	1.666034	-0.214047	0.000024
H72	H	1.591655	-0.277038	0.069104
H73	H	1.601379	-0.284685	-0.069026
H74	H	1.519572	-0.140215	0.069104
H75	H	1.529304	-0.147843	-0.069038
H76	H	0.561728	0.103900	0.000122
C77	C	0.939356	0.349284	0.507340
C78	C	1.039239	0.374201	0.537448
H79	H	0.888602	0.389091	0.549662
H80	H	0.935132	0.352605	0.424188
H81	H	0.926588	0.289260	0.527770
H82	H	1.052011	0.434222	0.517010
H83	H	1.043466	0.370888	0.620618
H84	H	1.058490	-0.039837	0.000014
C85	C	1.428116	0.022920	0.101841
C86	C	1.428346	-0.036717	0.000034
H87	H	1.492902	0.053091	0.101847
H88	H	1.372794	0.066023	0.101822
H89	H	1.418512	-0.009914	0.170901
H90	H	1.437942	-0.003882	-0.069026
H91	H	1.483684	-0.079826	0.000042
H92	H	1.048597	-0.493402	0.000030
H93	H	0.960979	-0.178508	0.000024
C94	C	1.466612	0.039003	0.543650
C95	C	1.410506	0.083001	0.462632
H96	H	1.517363	-0.000810	0.501334
H97	H	1.500535	0.082442	0.592263
H98	H	1.419985	0.005526	0.592285
H99	H	1.457132	0.116483	0.414003
H100	H	1.376582	0.039556	0.413999
H101	H	1.331942	0.144621	0.293437
H102	H	1.373291	0.112199	0.706564
H103	H	0.957251	-0.349448	0.000020
C104	C	1.429612	-0.577079	-0.101756
C105	C	1.417853	-0.517120	0.000050
H106	H	1.492999	-0.610829	-0.101754
H107	H	1.372470	-0.617042	-0.101742
H108	H	1.431357	-0.544026	-0.170816
H109	H	1.416100	-0.550173	0.069111
H110	H	1.475010	-0.477152	0.000048
H111	H	1.117809	0.312578	0.706655
H112	H	1.076458	0.345004	0.293496
