data_functionalizedCrystal
_audit_creation_method	'MofGen! by Chris Wilmer'
_symmetry_space_group_name_H-M	'P1'
_symmetry_Int_Tables_number	1
_symmetry_cell_setting	triclinic
loop_
_symmetry_equiv_pos_as_xyz
  x,y,z
_cell_length_a	15.944551
_cell_length_b	23.532407
_cell_length_c	14.421503
_cell_angle_alpha	89.999621
_cell_angle_beta	89.996859
_cell_angle_gamma	83.173708
loop_
_atom_site_label
_atom_site_type_symbol
_atom_site_fract_x
_atom_site_fract_y
_atom_site_fract_z
O1	O	1.113910	0.073442	-0.077025
O2	O	0.869284	0.082498	-0.077049
O3	O	0.998974	-0.004933	-0.077019
O4	O	0.984221	0.160873	-0.077055
O5	O	0.998953	-0.004920	0.077204
O6	O	0.869263	0.082511	0.077174
O7	O	1.113889	0.073455	0.077199
Cu8	Cu	0.991574	0.077984	0.091268
Cu9	Cu	0.991599	0.077969	-0.091119
O10	O	0.984199	0.160886	0.077169
C11	C	0.837983	0.082128	0.000060
C12	C	0.744746	0.081001	0.000051
C13	C	0.530369	0.024113	0.000081
C14	C	0.469137	0.050524	-0.075964
C15	C	0.574038	0.078962	0.000063
C16	C	0.469138	0.050550	0.076088
C17	C	0.409142	0.076989	0.000078
C18	C	0.514034	0.105388	-0.076046
C19	C	0.514041	0.105406	0.076075
C20	C	0.452826	0.131856	0.000010
C21	C	0.669030	0.080097	0.000053
C22	C	0.314150	0.075858	0.000081
C23	C	0.998588	-0.026144	0.000095
C24	C	0.997458	-0.089366	0.000102
C25	C	1.067121	-0.488199	0.000058
C26	C	1.066072	-0.547603	0.000051
O27	O	1.130650	-0.584098	0.000023
N28	N	0.988971	-0.570528	0.000044
C29	C	0.912915	-0.534045	0.000035
O30	O	0.847239	-0.558999	0.000027
C31	C	0.913965	-0.474642	0.000035
C32	C	0.991071	-0.451721	0.000052
C33	C	1.144220	-0.465277	0.000073
C34	C	1.145269	-0.405877	0.000082
C35	C	1.069219	-0.369399	0.000076
C36	C	0.992120	-0.392320	0.000060
C37	C	0.837910	-0.438160	0.000019
C38	C	0.838967	-0.378754	0.000019
C39	C	0.916072	-0.355832	0.000035
C40	C	0.917118	-0.296442	0.000063
N41	N	0.994219	-0.273517	0.000070
C42	C	1.070269	-0.309995	0.000076
C43	C	0.910716	-0.658796	0.000032
C44	C	0.909664	-0.718198	0.000038
C45	C	1.062821	-0.731752	0.000053
C46	C	1.063872	-0.672349	0.000053
C47	C	0.987816	-0.635871	0.000039
C48	C	1.072466	-0.185250	0.000096
C49	C	1.073508	-0.125844	0.000108
C50	C	0.920352	-0.112295	0.000089
C51	C	0.919309	-0.171696	0.000081
C52	C	0.995373	-0.208173	0.000081
O53	O	0.852574	-0.259913	0.000087
O54	O	1.135935	-0.285033	0.000072
C55	C	1.145190	0.073824	0.000088
C56	C	1.238427	0.074951	0.000090
C57	C	0.984586	0.182097	0.000053
C58	C	0.985715	0.245318	0.000040
N59	N	0.991562	0.077994	0.219550
N60	N	0.991618	0.077954	-0.219400
C61	C	0.931583	0.118404	0.469190
C62	C	1.007390	0.129461	0.530997
C63	C	0.991583	0.077981	0.408711
C64	C	0.915795	0.066938	0.530998
C65	C	0.991596	0.077969	0.591433
C66	C	1.067428	0.089063	0.469158
C67	C	0.975783	0.026517	0.469153
C68	C	1.051645	0.037552	0.530932
C69	C	0.991574	0.077989	0.303450
C70	C	0.991613	0.077960	0.696691
H71	H	0.419284	0.177423	-0.000042
O72	O	0.839364	0.055693	0.563356
C73	C	0.822217	0.001842	0.530474
H74	H	0.884076	-0.025250	0.512153
H75	H	0.788106	-0.020680	0.586569
H76	H	0.780605	0.007909	0.466112
H77	H	1.124746	-0.761464	0.000054
O78	O	0.570537	-0.030206	-0.000161
C79	C	0.547792	-0.058923	-0.080471
H80	H	0.525524	-0.026235	-0.136232
H81	H	0.604831	-0.088214	-0.107007
H82	H	0.494632	-0.085542	-0.063115
H83	H	0.858434	-0.082584	0.000087
O84	O	1.143915	0.100354	0.437033
C85	C	1.160551	0.154449	0.469318
H86	H	1.121902	0.165985	0.534585
H87	H	1.230656	0.153096	0.485957
H88	H	1.142549	0.188009	0.413522
H89	H	1.206153	-0.494973	0.000075
H90	H	0.848778	-0.629098	0.000028
O91	O	0.445236	0.022887	-0.152628
C92	C	0.356852	0.022655	-0.151972
H93	H	0.326630	0.059453	-0.107208
H94	H	0.331605	0.027997	-0.225804
H95	H	0.340851	-0.019669	-0.122375
O96	O	0.959698	-0.025331	0.436599
C97	C	0.886164	-0.018367	0.381476
H98	H	0.875347	0.027432	0.354404
H99	H	0.894085	-0.049355	0.320481
H100	H	0.829600	-0.027546	0.424967
H101	H	0.775123	-0.456812	0.000000
O102	O	0.537589	0.133125	-0.152766
C103	C	0.497052	0.189738	-0.152966
H104	H	0.478348	0.203049	-0.079101
H105	H	0.541931	0.219655	-0.181741
H106	H	0.438099	0.192288	-0.198217
H107	H	0.533968	0.128591	0.140359
O108	O	1.148338	-0.103485	0.000160
C109	C	1.132965	-0.043231	0.000143
H110	H	1.067295	-0.029291	0.029338
H111	H	1.182267	-0.024988	0.044924
H112	H	1.136902	-0.026693	-0.073844
H113	H	1.020766	0.172977	0.558161
O114	O	0.445510	0.022795	0.152759
C115	C	0.485381	-0.033991	0.152464
H116	H	0.544811	-0.036724	0.107952
H117	H	0.503193	-0.047638	0.226418
H118	H	0.440382	-0.063528	0.122787
H119	H	1.134405	-0.214943	0.000092
O120	O	0.871203	0.159290	0.436880
C121	C	0.888184	0.213473	0.468413
H122	H	0.958182	0.211868	0.485745
H123	H	0.871059	0.246692	0.411881
H124	H	0.849044	0.225671	0.533107
O125	O	1.112354	-0.003178	0.563037
C126	C	1.192106	0.008668	0.531336
H127	H	1.189307	0.056132	0.514084
H128	H	1.241310	-0.002798	0.587735
H129	H	1.210190	-0.017749	0.466558
H130	H	0.777032	-0.349056	0.000006
H131	H	1.208056	-0.387220	0.000092
H132	H	1.126658	-0.653691	0.000066
O133	O	0.834690	-0.740366	-0.000009
C134	C	0.767798	-0.695424	0.000013
H135	H	0.791007	-0.655068	-0.029176
H136	H	0.713940	-0.707840	-0.044770
H137	H	0.744355	-0.687024	0.074000
H138	H	0.856524	-0.190359	0.000094
