data_functionalizedCrystal
_audit_creation_method	'MofGen! by Chris Wilmer'
_symmetry_space_group_name_H-M	'P1'
_symmetry_Int_Tables_number	1
_symmetry_cell_setting	triclinic
loop_
_symmetry_equiv_pos_as_xyz
  x,y,z
_cell_length_a	6.817900
_cell_length_b	12.840933
_cell_length_c	17.078472
_cell_angle_alpha	81.675883
_cell_angle_beta	79.875873
_cell_angle_gamma	88.345099
loop_
_atom_site_label
_atom_site_type_symbol
_atom_site_fract_x
_atom_site_fract_y
_atom_site_fract_z
V1	V	-3.878750	0.281214	0.111637
O2	O	-3.888907	0.320379	-0.003441
O3	O	-3.812211	0.236475	0.219508
O4	O	-3.774495	0.423395	0.110764
O5	O	-3.926883	0.132165	0.106055
V6	V	-4.371965	0.268588	0.097773
O7	O	-4.118746	0.308911	0.142050
O8	O	-4.582166	0.240891	0.067360
O9	O	-4.215298	0.313327	-0.010098
O10	O	-4.479205	0.229423	0.212851
O11	O	-4.441229	0.417637	0.103354
O12	O	-4.253013	0.126407	0.098646
C13	C	-3.654606	0.220990	0.245778
C14	C	-3.681117	0.185358	0.333969
C15	C	-3.872927	0.172230	0.379460
C16	C	-3.897865	0.138765	0.462327
C17	C	-3.730991	0.118421	0.499702
C18	C	-3.539166	0.131554	0.454205
C19	C	-3.514231	0.165026	0.371340
C20	C	-3.606509	0.459426	0.107060
C21	C	-3.602356	0.577559	0.107059
C22	C	-4.084342	0.090371	0.102348
C23	C	-4.067346	-0.027761	0.102347
V24	V	-3.861697	0.767376	0.111642
O25	O	-3.899212	0.920782	0.106060
O26	O	-3.767590	0.620536	0.110770
O27	O	-3.793620	0.766265	0.219512
O28	O	-3.873002	0.774045	-0.003435
V29	V	-4.352966	0.810284	0.097783
O30	O	-4.103631	0.739862	0.142058
O31	O	-4.560435	0.860482	0.067372
O32	O	-4.224261	0.945877	0.098653
O33	O	-4.432641	0.662793	0.103366
O34	O	-4.458851	0.809531	0.212861
O35	O	-4.198231	0.800148	-0.010089
C36	C	-4.036245	0.328807	-0.036364
C37	C	-3.988969	0.364446	-0.124555
C38	C	-3.635567	0.763448	0.245776
C39	C	-3.660743	0.765682	0.333966
C40	C	-4.020219	0.786000	-0.036361
C41	C	-3.974319	0.782730	-0.124552
C42	C	-3.851902	0.770570	0.379471
C43	C	-3.875545	0.772674	0.462333
C44	C	-3.708028	0.769883	0.499691
C45	C	-3.516854	0.764997	0.454179
C46	C	-3.493212	0.762901	0.371317
C47	C	-3.759503	0.775748	0.747074
C48	C	-3.783161	0.777842	0.829943
C49	C	-4.141851	0.785521	0.838091
C50	C	-4.118193	0.783417	0.755228
C51	C	-3.927022	0.778538	0.709723
N52	N	-3.732191	0.772030	0.584390
N53	N	-3.902860	0.776398	0.625024
C54	C	-4.142146	0.377576	-0.170045
C55	C	-4.097749	0.411046	-0.252912
C56	C	-3.900176	0.431392	-0.290286
C57	C	-3.746988	0.418257	-0.244790
C58	C	-3.791384	0.384780	-0.161926
H59	H	-4.054072	0.128075	0.499359
O60	O	-4.246464	0.423649	-0.297153
C61	C	-4.212387	0.356508	-0.356624
H62	H	-4.113037	0.288135	-0.337240
H63	H	-4.360665	0.324737	-0.364934
H64	H	-4.135908	0.402356	-0.415787
H65	H	-3.403307	0.114986	0.484648
H66	H	-4.031203	0.776656	0.499380
H67	H	-4.303032	0.361016	-0.139626
O68	O	-3.856926	0.463742	-0.370801
C69	C	-3.726949	0.390620	-0.407552
H70	H	-3.742390	0.310936	-0.367762
H71	H	-3.766485	0.382498	-0.468524
H72	H	-3.566873	0.419296	-0.416087
O73	O	-4.281129	0.786197	0.719061
C74	C	-4.454928	0.790942	0.776997
H75	H	-4.416778	0.824410	0.830745
H76	H	-4.569797	0.843805	0.749577
H77	H	-4.518747	0.708451	0.797516
H78	H	-3.586122	0.434826	-0.275233
H79	H	-3.988318	0.772834	0.349062
O80	O	-4.327452	0.790129	0.882396
C81	C	-4.358521	0.700988	0.941849
H82	H	-4.208566	0.667769	0.954490
H83	H	-4.449561	0.724461	0.999302
H84	H	-4.442557	0.638656	0.919831
H85	H	-3.666640	0.374101	-0.124892
H86	H	-3.358035	0.175707	0.334307
O87	O	-4.035258	0.191984	0.343297
C88	C	-4.209883	0.173191	0.401228
H89	H	-4.175205	0.179826	0.463226
H90	H	-4.328357	0.233764	0.386459
H91	H	-4.267294	0.090789	0.400845
H92	H	-3.380460	0.762731	0.484601
H93	H	-3.751324	0.091167	0.567176
O94	O	-3.620557	0.775278	0.866301
C95	C	-3.616848	0.866840	0.902686
H96	H	-3.773893	0.900680	0.914878
H97	H	-3.559058	0.846314	0.961768
H98	H	-3.514597	0.927563	0.860836
H99	H	-3.603844	0.771768	0.710035
O100	O	-3.307493	0.757962	0.327169
C101	C	-3.210775	0.665580	0.356238
H102	H	-3.326840	0.605098	0.389293
H103	H	-3.116102	0.632060	0.303684
H104	H	-3.111173	0.684879	0.399242
