data_functionalizedCrystal
_audit_creation_method	'MofGen! by Chris Wilmer'
_symmetry_space_group_name_H-M	'P1'
_symmetry_Int_Tables_number	1
_symmetry_cell_setting	triclinic
loop_
_symmetry_equiv_pos_as_xyz
  x,y,z
_cell_length_a	12.594516
_cell_length_b	12.594517
_cell_length_c	12.594509
_cell_angle_alpha	89.978673
_cell_angle_beta	90.026199
_cell_angle_gamma	89.984147
loop_
_atom_site_label
_atom_site_type_symbol
_atom_site_fract_x
_atom_site_fract_y
_atom_site_fract_z
Zn1	Zn	-0.423716	-1.627267	0.601875
Zn2	Zn	-0.601726	-1.627158	0.423903
Zn3	Zn	-0.423761	-1.449271	0.423904
Zn4	Zn	-0.601652	-1.449253	0.601833
O5	O	-0.512714	-1.538237	0.512879
O6	O	-0.447341	-1.776198	0.578284
O7	O	-0.578169	-1.603522	0.274957
O8	O	-0.274809	-1.472936	0.447530
O9	O	-0.578124	-1.776118	0.447528
O10	O	-0.274776	-1.603709	0.578285
O11	O	-0.447419	-1.472830	0.274958
O12	O	-0.447347	-1.300323	0.447489
O13	O	-0.577998	-1.472905	0.750784
O14	O	-0.578042	-1.300310	0.578213
O15	O	-0.447269	-1.603691	0.750815
O16	O	-0.750662	-1.603505	0.447488
O17	O	-0.750608	-1.472799	0.578212
C18	C	-0.512692	-1.261696	0.512847
C19	C	-0.512709	-1.143391	0.512859
C20	C	-0.789255	-1.538167	0.512868
C21	C	-0.907560	-1.538235	0.512899
C22	C	-0.512620	-1.538308	0.790500
C23	C	-0.512581	-1.538339	0.908805
C24	C	-0.976822	-1.467137	0.583950
C25	C	-1.047688	-1.441204	0.486827
C26	C	-1.047494	-1.564265	0.610039
C27	C	-0.976867	-1.512250	0.415725
C28	C	-0.976667	-1.635357	0.539002
C29	C	-1.047500	-1.609460	0.441812
C30	C	-0.235093	-1.538336	0.512912
C31	C	-0.116787	-1.538378	0.512927
C32	C	-0.512736	-1.815858	0.512911
C33	C	-0.512745	-1.934163	0.512924
C34	C	-0.441526	-1.074114	0.441894
C35	C	-0.538615	-1.003303	0.415718
C36	C	-0.415668	-1.003403	0.539054
C37	C	-0.609849	-1.074138	0.486632
C38	C	-0.486836	-1.074244	0.610013
C39	C	-0.583991	-1.003465	0.583874
C40	C	-0.512730	-1.538227	0.236338
C41	C	-0.512470	-1.538403	0.118033
C42	C	-0.583644	-1.467227	0.978042
C43	C	-0.609650	-1.564347	1.048833
C44	C	-0.486510	-1.441294	1.048813
C45	C	-0.538638	-1.635510	0.978038
C46	C	-0.415453	-1.512391	0.978012
C47	C	-0.441422	-1.609579	1.048772
H48	H	-1.078906	-1.359136	0.464772
H49	H	-1.078518	-1.586224	0.692178
O50	O	-0.369768	-1.110953	0.370140
C51	C	-0.238780	-1.066404	0.238046
C52	C	-0.320021	-1.024540	0.319250
H53	H	-0.198522	-0.996560	0.196894
H54	H	-0.281170	-1.117369	0.176416
H55	H	-0.176449	-1.116288	0.280772
H56	H	-0.382374	-0.974611	0.276616
H57	H	-0.277558	-0.973632	0.380875
O58	O	-0.564706	-0.965902	0.317810
C59	C	-0.594658	-0.811727	0.208460
C60	C	-0.565182	-0.853962	0.319401
H61	H	-0.595031	-0.721220	0.209704
H62	H	-0.676836	-0.841902	0.185444
H63	H	-0.533850	-0.840804	0.148073
H64	H	-0.625919	-0.824903	0.379862
H65	H	-0.482977	-0.823795	0.342328
O66	O	-0.565040	-1.733404	0.940937
C67	C	-0.594655	-1.843211	0.787115
C68	C	-0.564761	-1.732296	0.828990
H69	H	-0.594417	-1.842359	0.696602
H70	H	-0.677175	-1.865519	0.816841
H71	H	-0.534423	-1.903896	0.816913
H72	H	-0.624921	-1.671538	0.799210
H73	H	-0.482214	-1.710078	0.799273
H74	H	-0.464506	-1.359198	1.079902
O75	O	-0.656046	-0.966729	0.655381
C76	C	-0.839721	-0.961339	0.708598
C77	C	-0.758233	-1.002996	0.627534
H78	H	-0.922354	-0.990662	0.686125
H79	H	-0.838813	-0.870825	0.708595
H80	H	-0.818300	-0.991753	0.791141
H81	H	-0.779598	-0.972661	0.544951
H82	H	-0.759156	-1.093509	0.627630
O83	O	-0.317779	-0.966385	0.565648
C84	C	-0.178921	-0.962134	0.697263
C85	C	-0.289798	-1.004106	0.667302
H86	H	-0.156254	-0.992633	0.779442
H87	H	-0.180040	-0.871624	0.697878
H88	H	-0.118348	-0.991133	0.636603
H89	H	-0.350433	-0.975186	0.727931
H90	H	-0.288591	-1.094614	0.666653
H91	H	-0.691742	-1.586329	1.079941
O92	O	-0.317600	-1.486202	0.940683
C93	C	-0.207880	-1.457665	0.786607
C94	C	-0.318740	-1.487379	0.828743
H95	H	-0.208771	-1.458584	0.696099
H96	H	-0.147001	-1.517480	0.816850
H97	H	-0.185813	-1.374850	0.815691
H98	H	-0.340907	-1.570169	0.799676
H99	H	-0.379554	-1.427496	0.798508
H100	H	-0.945788	-1.406905	0.643949
O101	O	-0.369792	-1.681577	1.085548
C102	C	-0.316282	-1.865206	1.090963
C103	C	-0.397485	-1.783783	1.049261
H104	H	-0.338629	-1.947855	1.061623
H105	H	-0.316266	-1.864311	1.181477
H106	H	-0.233779	-1.843710	1.060601
H107	H	-0.480026	-1.805223	1.079545
H108	H	-0.397407	-1.784694	0.958748
O109	O	-0.707808	-1.110915	0.459965
C110	C	-0.846085	-1.115758	0.327761
C111	C	-0.735154	-1.074013	0.357839
H112	H	-0.868219	-1.085958	0.245182
H113	H	-0.906884	-1.086023	0.387838
H114	H	-0.845242	-1.206271	0.327973
H115	H	-0.735893	-0.983503	0.357617
H116	H	-0.674402	-1.103829	0.297756
H117	H	-1.078338	-1.669647	0.381669
O118	O	-0.939968	-1.485759	0.317772
C119	C	-0.835935	-1.363174	0.214097
C120	C	-0.877673	-1.393044	0.325077
H121	H	-0.785542	-1.288225	0.219969
H122	H	-0.905812	-1.348266	0.158480
H123	H	-0.785488	-1.430974	0.181687
H124	H	-0.928103	-1.325283	0.357582
H125	H	-0.807747	-1.407990	0.380622
O126	O	-0.939370	-1.733271	0.565177
C127	C	-0.835544	-1.884453	0.510700
C128	C	-0.877732	-1.773586	0.480898
H129	H	-0.785683	-1.917071	0.442587
H130	H	-0.905192	-1.940065	0.526434
H131	H	-0.784461	-1.878265	0.585189
H132	H	-0.928799	-1.779671	0.406394
H133	H	-0.808036	-1.718016	0.465233
O134	O	-0.460730	-1.111636	0.707914
C135	C	-0.432295	-1.265783	0.817705
C136	C	-0.461918	-1.223576	0.706793
H137	H	-0.433225	-1.356290	0.816830
H138	H	-0.492154	-1.235578	0.878488
H139	H	-0.349494	-1.236715	0.839893
H140	H	-0.544694	-1.252626	0.684505
H141	H	-0.401991	-1.253772	0.646074
H142	H	-0.643833	-1.407136	0.946986
