data_functionalizedCrystal
_audit_creation_method	'MofGen! by Chris Wilmer'
_symmetry_space_group_name_H-M	'P1'
_symmetry_Int_Tables_number	1
_symmetry_cell_setting	triclinic
loop_
_symmetry_equiv_pos_as_xyz
  x,y,z
_cell_length_a	6.817900
_cell_length_b	14.125369
_cell_length_c	16.255661
_cell_angle_alpha	95.868413
_cell_angle_beta	103.488922
_cell_angle_gamma	100.397648
loop_
_atom_site_label
_atom_site_type_symbol
_atom_site_fract_x
_atom_site_fract_y
_atom_site_fract_z
V1	V	-4.010926	-0.133890	-0.263536
O2	O	-4.014855	0.005634	-0.258862
O3	O	-3.947054	-0.264711	-0.261405
O4	O	-3.962690	-0.132181	-0.378624
O5	O	-3.999111	-0.127814	-0.140831
V6	V	-4.496538	-0.117159	-0.248900
O7	O	-4.267603	-0.170588	-0.295643
O8	O	-4.690058	-0.080461	-0.216794
O9	O	-4.337204	0.013662	-0.251032
O10	O	-4.610006	-0.256683	-0.253574
O11	O	-4.625750	-0.123235	-0.371605
O12	O	-4.321568	-0.118868	-0.133812
C13	C	-3.788285	-0.296592	-0.257162
C14	C	-3.817350	-0.403543	-0.256187
C15	C	-4.056172	-0.651689	-0.258007
C16	C	-3.870671	-0.599360	-0.254432
C17	C	-3.841004	-0.490397	-0.255409
C18	C	-4.085847	-0.760662	-0.257031
C19	C	-3.808229	-0.127535	-0.406686
C20	C	-3.849972	-0.127004	-0.500769
C21	C	-3.761277	-0.120657	-0.723603
C22	C	-3.908035	-0.202573	-0.792875
C23	C	-3.926474	-0.126008	-0.673020
C24	C	-3.854117	-0.043154	-0.771388
C25	C	-4.000356	-0.125041	-0.839406
C26	C	-4.072705	-0.207997	-0.741061
C27	C	-4.018734	-0.048505	-0.719559
C28	C	-4.165625	-0.130445	-0.788811
C29	C	-3.883907	-0.126565	-0.577169
C30	C	-4.042939	-0.124490	-0.935256
C31	C	-4.159313	0.045538	-0.255272
C32	C	-4.109487	0.152488	-0.256253
C33	C	-4.139370	-0.123517	-0.105746
C34	C	-4.076866	-0.124044	-0.011663
H35	H	-3.734138	-0.636394	-0.250638
O36	O	-4.073893	0.029131	-0.681303
C37	C	-4.035076	0.027011	-0.592507
H38	H	-4.032536	-0.050650	-0.579637
H39	H	-3.879488	0.076564	-0.558551
C40	C	-4.209403	0.158051	-0.574572
C41	C	-4.206300	0.062664	-0.558765
H42	H	-4.315015	0.180047	-0.553756
H43	H	-4.235548	0.159482	-0.634394
H44	H	-4.079737	0.199333	-0.546275
H45	H	-4.335955	0.021382	-0.587071
H46	H	-4.180180	0.061227	-0.498946
O47	O	-3.744589	0.040056	-0.787745
C48	C	-3.801127	0.121204	-0.748815
H49	H	-3.961582	0.098108	-0.738478
H50	H	-3.685257	0.151186	-0.684506
C51	C	-3.605589	0.228914	-0.819820
C52	C	-3.802670	0.200548	-0.807130
H53	H	-3.606533	0.277860	-0.855789
H54	H	-3.567491	0.174244	-0.846046
H55	H	-3.509052	0.253893	-0.766225
H56	H	-3.899198	0.175559	-0.860724
H57	H	-3.840785	0.255216	-0.780915
O58	O	-4.218809	-0.607355	-0.262486
C59	C	-4.152510	-0.506857	-0.262487
H60	H	-3.979346	-0.484193	-0.232090
H61	H	-4.187226	-0.490838	-0.331119
C62	C	-4.479790	-0.477164	-0.248170
C63	C	-4.267110	-0.449327	-0.210830
H64	H	-4.550486	-0.441676	-0.216309
H65	H	-4.524462	-0.544872	-0.248173
H66	H	-4.508692	-0.463814	-0.305363
H67	H	-4.238209	-0.462688	-0.153642
H68	H	-4.222436	-0.381620	-0.210816
O69	O	-3.556990	-0.116015	-0.689690
C70	C	-3.498965	-0.197424	-0.727405
H71	H	-3.640821	-0.258845	-0.753790
H72	H	-3.428276	-0.176491	-0.781719
C73	C	-3.165220	-0.156223	-0.627185
C74	C	-3.339447	-0.231663	-0.659585
H75	H	-3.066815	-0.177341	-0.585353
H76	H	-3.204308	-0.101373	-0.601778
H77	H	-3.106338	-0.138785	-0.672454
H78	H	-3.398340	-0.249091	-0.614319
H79	H	-3.300365	-0.286517	-0.684984
O80	O	-3.852572	-0.280171	-0.831051
C81	C	-3.701074	-0.246914	-0.873518
H82	H	-3.712118	-0.170646	-0.888463
H83	H	-3.541500	-0.244893	-0.830748
C84	C	-3.722662	-0.410017	-0.939136
C85	C	-3.736238	-0.316346	-0.957499
H86	H	-3.744344	-0.452847	-0.990938
H87	H	-3.824724	-0.432424	-0.910523
H88	H	-3.589681	-0.408318	-0.903493
H89	H	-3.869224	-0.318044	-0.993132
H90	H	-3.634199	-0.293941	-0.986120
O91	O	-4.182134	-0.291265	-0.724757
C92	C	-4.045197	-0.343183	-0.679491
H93	H	-3.886816	-0.320748	-0.691979
H94	H	-4.031724	-0.326170	-0.608060
C95	C	-4.322289	-0.480739	-0.694329
C96	C	-4.127766	-0.453190	-0.709673
H97	H	-4.373224	-0.548597	-0.712943
H98	H	-4.414548	-0.445760	-0.724823
H99	H	-4.311035	-0.466554	-0.634803
H100	H	-4.139027	-0.467364	-0.769199
H101	H	-4.035511	-0.488174	-0.679189
H102	H	-4.337007	-0.134605	-0.817147
