data_functionalizedCrystal
_audit_creation_method	'MofGen! by Chris Wilmer'
_symmetry_space_group_name_H-M	'P1'
_symmetry_Int_Tables_number	1
_symmetry_cell_setting	triclinic
loop_
_symmetry_equiv_pos_as_xyz
  x,y,z
_cell_length_a	29.019771
_cell_length_b	29.019011
_cell_length_c	29.015668
_cell_angle_alpha	60.004890
_cell_angle_beta	60.009825
_cell_angle_gamma	59.993818
loop_
_atom_site_label
_atom_site_type_symbol
_atom_site_fract_x
_atom_site_fract_y
_atom_site_fract_z
O1	O	0.063866	-0.673289	0.563007
O2	O	0.563866	-0.173289	1.063007
O3	O	0.024059	-0.524205	0.453633
O4	O	0.524059	-0.024205	0.953633
O5	O	0.118464	-0.618532	0.453552
O6	O	0.618464	-0.118532	0.953552
O7	O	-0.030540	-0.578962	0.563088
O8	O	0.469460	-0.078962	1.063088
O9	O	0.149785	-0.587215	0.484789
O10	O	0.649785	-0.087215	0.984789
O11	O	0.055379	-0.492888	0.484869
O12	O	0.555379	0.007112	0.984869
O13	O	0.095186	-0.641972	0.594244
O14	O	0.595186	-0.141972	1.094244
Cu15	Cu	0.078143	-0.564571	0.542409
Cu16	Cu	0.578143	-0.064571	1.042409
Cu17	Cu	0.041102	-0.601606	0.505468
Cu18	Cu	0.541102	-0.101606	1.005468
O19	O	0.000781	-0.547645	0.594325
O20	O	0.500781	-0.047645	1.094325
N21	N	0.104196	-0.538525	0.568394
N22	N	0.604196	-0.038525	1.068394
N23	N	0.015054	-0.627656	0.479483
N24	N	0.515054	-0.127656	0.979483
C25	C	0.143783	-0.499167	0.850823
C26	C	0.643783	0.000833	1.350823
C27	C	0.386758	-0.499111	0.607645
C28	C	0.886758	0.000889	1.107645
C29	C	0.143618	-0.499136	0.607763
C30	C	0.643618	0.000864	1.107763
C31	C	0.143598	-0.256029	0.607770
C32	C	0.643598	0.243971	1.107770
C33	C	0.182748	-0.373362	0.646852
C34	C	0.682748	0.126638	1.146852
C35	C	0.182758	-0.460025	0.646847
C36	C	0.682758	0.039975	1.146847
C37	C	0.204440	-0.438361	0.668500
C38	C	0.704440	0.061639	1.168500
C39	C	0.298958	-0.422064	0.618723
C40	C	0.798958	0.077936	1.118723
C41	C	0.358043	-0.441753	0.599006
C42	C	0.858043	0.058247	1.099006
C43	C	0.358069	-0.537354	0.635461
C44	C	0.858069	-0.037354	1.135461
C45	C	0.298985	-0.517664	0.655180
C46	C	0.798985	-0.017664	1.155180
C47	C	0.196983	-0.343808	0.588767
C48	C	0.696983	0.156192	1.088767
C49	C	0.177262	-0.284720	0.569090
C50	C	0.677262	0.215280	1.069090
C51	C	0.129075	-0.284743	0.665586
C52	C	0.629075	0.215257	1.165586
C53	C	0.148797	-0.343831	0.685263
C54	C	0.648797	0.156169	1.185263
C55	C	0.124666	-0.445760	0.661149
C56	C	0.624666	0.054240	1.161149
C57	C	0.104961	-0.465454	0.641458
C58	C	0.604961	0.034546	1.141458
C59	C	0.201435	-0.513678	0.593176
C60	C	0.701435	-0.013678	1.093176
C61	C	0.221143	-0.493984	0.612860
C62	C	0.721143	0.006016	1.112860
C63	C	0.124738	-0.445777	0.763064
C64	C	0.624738	0.054223	1.263064
C65	C	0.105085	-0.465488	0.822151
C66	C	0.605085	0.034512	1.322151
C67	C	0.201594	-0.513722	0.822097
C68	C	0.701594	-0.013722	1.322097
C69	C	0.221247	-0.494012	0.763009
C70	C	0.721247	0.005988	1.263009
C71	C	0.182817	-0.460038	0.733494
C72	C	0.682817	0.039962	1.233494
C73	C	0.269432	-0.460018	0.646809
C74	C	0.769432	0.039982	1.146809
C75	C	0.121399	-0.520450	0.915812
C76	C	0.621399	-0.020450	1.415812
C77	C	0.451745	-0.520012	0.585655
C78	C	0.951745	-0.020012	1.085655
C79	C	0.121177	-0.520429	0.586502
C80	C	0.621177	-0.020429	1.086502
C81	C	0.121544	-0.191035	0.586883
C82	C	0.621544	0.308965	1.086883
C83	C	-0.110592	-0.666601	0.440035
C84	C	0.389408	-0.166601	0.940035
C85	C	-0.023978	-0.666709	0.440231
C86	C	0.476022	-0.166709	0.940231
C87	C	-0.045598	-0.688342	0.418486
C88	C	0.454402	-0.188342	0.918486
C89	C	-0.061967	-0.782825	0.468184
C90	C	0.438033	-0.282825	0.968184
C91	C	-0.042323	-0.841914	0.487907
C92	C	0.457677	-0.341914	0.987907
C93	C	0.053280	-0.842025	0.451623
C94	C	0.553280	-0.342025	0.951623
C95	C	0.033634	-0.782937	0.431899
C96	C	0.533634	-0.282937	0.931899
C97	C	-0.140218	-0.680832	0.498102
C98	C	0.359782	-0.180832	0.998102
C99	C	-0.199302	-0.661065	0.517690
C100	C	0.300698	-0.161065	1.017690
C101	C	-0.199129	-0.612843	0.421140
C102	C	0.300871	-0.112843	0.921140
C103	C	-0.140045	-0.632610	0.401552
C104	C	0.359955	-0.132610	0.901552
C105	C	-0.038209	-0.608622	0.425941
C106	C	0.461791	-0.108622	0.925941
C107	C	-0.018555	-0.588961	0.445716
C108	C	0.481445	-0.088961	0.945716
C109	C	0.029562	-0.685470	0.494059
C110	C	0.529562	-0.185470	0.994059
C111	C	0.009908	-0.705133	0.474291
C112	C	0.509908	-0.205133	0.974291
C113	C	-0.038037	-0.608631	0.323917
C114	C	0.461963	-0.108631	0.823917
C115	C	-0.018247	-0.588973	0.264830
C116	C	0.481753	-0.088973	0.764830
C117	C	0.029955	-0.685489	0.264893
C118	C	0.529955	-0.185489	0.764893
C119	C	0.010165	-0.705145	0.323981
C120	C	0.510165	-0.205145	0.823981
C121	C	-0.023833	-0.666715	0.353492
C122	C	0.476167	-0.166715	0.853492
C123	C	-0.023990	-0.753339	0.440182
C124	C	0.476010	-0.253339	0.940182
N125	N	0.504925	-0.538487	0.568205
N126	N	1.004925	-0.038487	1.068205
O127	O	0.685342	-0.543679	0.433426
O128	O	1.185342	-0.043679	0.933426
O129	O	0.685533	-0.653395	0.582361
O130	O	1.185533	-0.153395	1.082361
O131	O	0.685457	-0.653145	0.487904
O132	O	1.185457	-0.153145	0.987904
O133	O	0.685418	-0.543929	0.527882
O134	O	1.185418	-0.043929	1.027882
O135	O	0.591592	-0.621921	0.519268
O136	O	1.091592	-0.121921	1.019268
O137	O	0.591667	-0.622171	0.613725
O138	O	1.091667	-0.122171	1.113725
O139	O	0.591477	-0.512455	0.464790
O140	O	1.091477	-0.012455	0.964790
Cu141	Cu	0.583001	-0.564462	0.542121
Cu142	Cu	1.083001	-0.064462	1.042121
Cu143	Cu	0.694008	-0.601388	0.505029
Cu144	Cu	1.194008	-0.101388	1.005029
O145	O	0.591553	-0.512705	0.559246
O146	O	1.091553	-0.012705	1.059246
N147	N	0.772084	-0.627363	0.478939
N148	N	1.272084	-0.127363	0.978939
N149	N	0.104168	-0.137853	0.568408
N150	N	0.604168	0.362147	1.068408
O151	O	-0.030538	0.042663	0.563097
O152	O	0.469462	0.542663	1.063097
O153	O	0.118403	0.042683	0.453379
O154	O	0.618403	0.542683	0.953379
O155	O	0.023918	0.042657	0.453664
O156	O	0.523918	0.542657	0.953664
O157	O	0.063947	0.042689	0.562813
O158	O	0.563947	0.542689	1.062813
O159	O	0.055242	-0.051215	0.484950
O160	O	0.555242	0.448785	0.984950
O161	O	0.149727	-0.051189	0.484666
O162	O	0.649727	0.448811	0.984666
O163	O	0.000787	-0.051210	0.594384
O164	O	0.500787	0.448790	1.094384
Cu165	Cu	0.078117	-0.059771	0.542381
Cu166	Cu	0.578117	0.440229	1.042381
Cu167	Cu	0.041072	0.051244	0.505382
Cu168	Cu	0.541072	0.551244	1.005382
O169	O	0.095272	-0.051184	0.594099
O170	O	0.595272	0.448816	1.094099
N171	N	0.015015	0.129326	0.479356
N172	N	0.515015	0.629326	0.979356
N173	N	0.104469	-0.538576	0.968995
N174	N	0.604469	-0.038576	1.468995
O175	O	0.099171	-0.673268	1.149499
O176	O	0.599171	-0.173268	1.649499
O177	O	-0.010519	-0.524279	1.149527
O178	O	0.489481	-0.024279	1.649527
O179	O	-0.010265	-0.618748	1.149494
O180	O	0.489735	-0.118748	1.649494
O181	O	0.098916	-0.578799	1.149533
O182	O	0.598916	-0.078799	1.649533
O183	O	0.021008	-0.587443	1.055625
O184	O	0.521008	-0.087443	1.555625
O185	O	0.020753	-0.492974	1.055659
O186	O	0.520753	0.007026	1.555659
O187	O	0.130444	-0.641963	1.055630
O188	O	0.630444	-0.141963	1.555630
Cu189	Cu	0.078454	-0.564610	1.047074
Cu190	Cu	0.578454	-0.064610	1.547074
Cu191	Cu	0.041470	-0.601632	1.158084
Cu192	Cu	0.541470	-0.101632	1.658084
O193	O	0.130189	-0.547494	1.055664
O194	O	0.630189	-0.047494	1.555664
N195	N	0.015455	-0.627672	1.236163
N196	N	0.515455	-0.127672	1.736163
C197	C	0.035988	-0.489761	0.454182
C198	C	0.535988	0.010239	0.954182
C199	C	0.152897	-0.606574	0.454082
C200	C	0.652897	-0.106574	0.954082
C201	C	0.083257	-0.676417	0.593694
C202	C	0.583257	-0.176417	1.093694
C203	C	-0.033653	-0.559604	0.593794
C204	C	0.466347	-0.059604	1.093794
C205	C	0.638623	-0.652892	0.616806
C206	C	1.138623	-0.152892	1.116806
C207	C	0.638531	-0.652583	0.499833
C208	C	1.138531	-0.152583	0.999833
C209	C	0.638384	-0.512957	0.430345
C210	C	1.138384	-0.012957	0.930345
C211	C	0.638480	-0.513267	0.547317
C212	C	1.138480	-0.013267	1.047317
C213	C	0.152789	-0.004135	0.453875
C214	C	0.652789	0.495865	0.953875
C215	C	0.035820	-0.004282	0.454266
C216	C	0.535820	0.495718	0.954266
C217	C	-0.033639	-0.004275	0.593849
C218	C	0.466361	0.495725	1.093849
C219	C	0.083370	-0.004245	0.593498
C220	C	0.583370	0.495755	1.093498
C221	C	-0.009989	-0.489856	1.102597
C222	C	0.490011	0.010144	1.602597
C223	C	-0.009667	-0.606839	1.102536
C224	C	0.490333	-0.106839	1.602536
C225	C	0.129914	-0.676386	1.102561
C226	C	0.629914	-0.176386	1.602561
C227	C	0.129599	-0.559396	1.102601
C228	C	0.629599	-0.059396	1.602601
H229	H	0.093440	-0.418108	0.739036
H230	H	0.593440	0.081892	1.239036
O231	O	-0.050552	-0.617105	1.102550
O232	O	0.449448	-0.117105	1.602550
C233	C	-0.109914	-0.674336	1.151101
C234	C	0.390086	-0.174336	1.651101
C235	C	-0.063602	-0.662778	1.151150
C236	C	0.436398	-0.162778	1.651150
H237	H	-0.120488	-0.711255	1.190396
H238	H	0.379512	-0.211255	1.690396
H239	H	-0.094257	-0.685113	1.111823
H240	H	0.405743	-0.185113	1.611823
H241	H	-0.149316	-0.635162	1.151065
H242	H	0.350684	-0.135162	1.651065
H243	H	-0.024184	-0.701933	1.151206
H244	H	0.475816	-0.201933	1.651206
H245	H	-0.079305	-0.651978	1.190424
H246	H	0.420695	-0.151978	1.690424
O247	O	0.093389	-0.727549	0.634626
O248	O	0.593389	-0.227549	1.134626
C249	C	0.118173	-0.827970	0.661680
C250	C	0.618173	-0.327970	1.161680
C251	C	0.106699	-0.770098	0.615281
C252	C	0.606699	-0.270098	1.115281
H253	H	0.128949	-0.862388	0.646052
H254	H	0.628949	-0.362388	1.146052
H255	H	0.079007	-0.828203	0.701077
H256	H	0.579007	-0.328203	1.201077
H257	H	0.155099	-0.836166	0.672249
H258	H	0.655099	-0.336166	1.172249
H259	H	0.069792	-0.761866	0.604663
H260	H	0.569792	-0.261866	1.104663
H261	H	0.145894	-0.769894	0.575913
H262	H	0.645894	-0.269894	1.075913
O263	O	0.638647	-0.693568	0.489625
O264	O	1.138647	-0.193568	0.989625
C265	C	0.687313	-0.787555	0.484328
C266	C	1.187313	-0.287555	0.984328
C267	C	0.687259	-0.741185	0.495889
C268	C	1.187259	-0.241185	0.995889
H269	H	0.726606	-0.826069	0.489400
H270	H	1.226606	-0.326069	0.989400
H271	H	0.687303	-0.771044	0.439481
H272	H	1.187303	-0.271044	0.939481
H273	H	0.648043	-0.799893	0.515585
H274	H	1.148043	-0.299893	1.015585
H275	H	0.726523	-0.728827	0.464668
H276	H	1.226523	-0.228827	0.964668
H277	H	0.687240	-0.757721	0.540751
H278	H	1.187240	-0.257721	1.040751
H279	H	0.638671	-0.687334	0.659583
H280	H	1.138671	-0.187334	1.159583
O281	O	0.171019	-0.727434	1.102626
O282	O	0.671019	-0.227434	1.602626
C283	C	0.232718	-0.810296	1.151265
C284	C	0.732718	-0.310296	1.651265
C285	C	0.186178	-0.752489	1.151256
C286	C	0.686178	-0.252489	1.651256
H287	H	0.244980	-0.830575	1.190584
H288	H	0.744980	-0.330575	1.690584
H289	H	0.271235	-0.804394	1.112011
H290	H	0.771235	-0.304394	1.612011
H291	H	0.216362	-0.838733	1.151223
H292	H	0.716362	-0.338733	1.651223
H293	H	0.202481	-0.724022	1.151318
H294	H	0.702481	-0.224022	1.651318
H295	H	0.147670	-0.758435	1.190506
H296	H	0.647670	-0.258435	1.690506
O297	O	0.386787	-0.404928	0.571645
O298	O	0.886787	0.095072	1.071645
C299	C	0.453422	-0.365428	0.485765
C300	C	0.953422	0.134572	0.985765
C301	C	0.420915	-0.407166	0.516692
C302	C	0.920915	0.092834	1.016692
H303	H	0.481013	-0.367215	0.441326
H304	H	0.981013	0.132785	0.941326
H305	H	0.481144	-0.377282	0.509866
H306	H	0.981144	0.122718	1.009866
H307	H	0.422137	-0.320854	0.483199
H308	H	0.922137	0.179146	0.983199
H309	H	0.452159	-0.451754	0.519266
H310	H	0.952159	0.048246	1.019266
H311	H	0.393184	-0.395264	0.492579
H312	H	0.893184	0.104736	0.992579
H313	H	0.382132	-0.584293	0.642268
H314	H	0.882132	-0.084293	1.142268
O315	O	0.025888	-0.438719	0.413128
O316	O	0.525888	0.061281	0.913128
C317	C	0.020644	-0.388189	0.319119
C318	C	0.520644	0.111811	0.819119
C319	C	0.032108	-0.446029	0.365559
C320	C	0.532108	0.053971	0.865559
H321	H	0.025657	-0.394078	0.280652
H322	H	0.525657	0.105922	0.780652
H323	H	0.051928	-0.367838	0.306718
H324	H	0.551928	0.132162	0.806718
H325	H	-0.024186	-0.359822	0.335625
H326	H	0.475814	0.140178	0.835625
H327	H	0.076922	-0.474439	0.349092
H328	H	0.576922	0.025561	0.849092
H329	H	0.000789	-0.466335	0.377952
H330	H	0.500789	0.033665	0.877952
H331	H	-0.076451	-0.551170	0.628189
H332	H	0.423549	-0.051170	1.128189
O333	O	-0.084709	-0.004247	0.634871
O334	O	0.415291	0.495753	1.134871
C335	C	-0.177683	-0.004279	0.661140
C336	C	0.322317	0.495721	1.161140
C337	C	-0.119875	-0.004305	0.614632
C338	C	0.380125	0.495695	1.114632
H339	H	-0.206126	-0.004339	0.644799
H340	H	0.293874	0.495661	1.144799
H341	H	-0.197982	0.035023	0.673432
H342	H	0.302018	0.535023	1.173432
H343	H	-0.171722	-0.043548	0.699641
H344	H	0.328278	0.456452	1.199641
H345	H	-0.125787	0.034937	0.576101
H346	H	0.374213	0.534937	1.076101
H347	H	-0.099596	-0.043633	0.602388
H348	H	0.400404	0.456367	1.102388
H349	H	0.188851	-0.260656	0.521790
H350	H	0.688851	0.239344	1.021790
O351	O	-0.051022	-0.438787	1.102631
O352	O	0.448978	0.061213	1.602631
C353	C	-0.077251	-0.345795	1.102623
C354	C	0.422749	0.154205	1.602623
C355	C	-0.030737	-0.403609	1.102598
C356	C	0.469263	0.096391	1.602598
H357	H	-0.060864	-0.317334	1.102584
H358	H	0.439136	0.182666	1.602584
H359	H	-0.115741	-0.351689	1.141913
H360	H	0.384259	0.148311	1.641913
H361	H	-0.089573	-0.325548	1.063345
H362	H	0.410427	0.174452	1.563345
H363	H	-0.018367	-0.423888	1.141848
H364	H	0.481633	0.076112	1.641848
H365	H	0.007723	-0.397678	1.063281
H366	H	0.507723	0.102322	1.563281
O367	O	0.170537	-0.549143	1.102506
O368	O	0.670537	-0.049143	1.602506
C369	C	0.229843	-0.491847	1.053906
C370	C	0.729843	0.008153	1.553906
C371	C	0.183488	-0.503407	1.053937
C372	C	0.683488	-0.003407	1.553937
H373	H	0.240320	-0.454862	1.014649
H374	H	0.740320	0.045138	1.514649
H375	H	0.269295	-0.530972	1.053862
H376	H	0.769295	-0.030972	1.553862
H377	H	0.214201	-0.481126	1.093214
H378	H	0.714201	0.018874	1.593214
H379	H	0.199077	-0.514114	1.014636
H380	H	0.699077	-0.014114	1.514636
H381	H	0.144046	-0.464273	1.054011
H382	H	0.644046	0.035727	1.554011
O383	O	0.048644	-0.451551	0.850782
O384	O	0.548644	0.048449	1.350782
C385	C	-0.045004	-0.401644	0.844593
C386	C	0.454996	0.098356	1.344593
C387	C	0.018898	-0.417374	0.812097
C388	C	0.518898	0.082626	1.312097
H389	H	-0.069072	-0.374020	0.813331
H390	H	0.430928	0.125980	1.313331
H391	H	-0.056647	-0.377559	0.872242
H392	H	0.443353	0.122441	1.372242
H393	H	-0.056598	-0.441750	0.872272
H394	H	0.443402	0.058250	1.372272
H395	H	0.030538	-0.377298	0.784387
H396	H	0.530538	0.122702	1.284387
H397	H	0.030507	-0.441481	0.784484
H398	H	0.530507	0.058519	1.284484
H399	H	0.195476	-0.003868	0.419344
H400	H	0.695476	0.496132	0.919344
H401	H	0.638322	-0.478510	0.387573
H402	H	1.138322	0.021490	0.887573
H403	H	0.027247	-0.004286	0.419974
H404	H	0.527247	0.495714	0.919974
O405	O	0.638439	-0.472388	0.557620
O406	O	1.138439	0.027612	1.057620
C407	C	0.638517	-0.446581	0.624654
C408	C	1.138517	0.053419	1.124654
C409	C	0.638549	-0.492921	0.613066
C410	C	1.138549	0.007079	1.113066
H411	H	0.638617	-0.463169	0.669478
H412	H	1.138617	0.036831	1.169478
H413	H	0.599195	-0.408073	0.619681
H414	H	1.099195	0.091927	1.119681
H415	H	0.677760	-0.434204	0.593362
H416	H	1.177760	0.065796	1.093362
H417	H	0.599333	-0.505346	0.644349
H418	H	1.099333	-0.005346	1.144349
H419	H	0.677897	-0.531399	0.618020
H420	H	1.177897	-0.031399	1.118020
O421	O	0.093696	-0.004271	0.634358
O422	O	0.593696	0.495729	1.134358
C423	C	0.160769	-0.004235	0.660137
C424	C	0.660769	0.495765	1.160137
C425	C	0.149154	-0.004214	0.613816
C426	C	0.649154	0.495786	1.113816
H427	H	0.205602	-0.004177	0.643543
H428	H	0.705602	0.495823	1.143543
H429	H	0.155783	-0.043535	0.698658
H430	H	0.655783	0.456465	1.198658
H431	H	0.129501	0.035036	0.672493
H432	H	0.629501	0.535036	1.172493
H433	H	0.180412	-0.043459	0.601412
H434	H	0.680412	0.456541	1.101412
H435	H	0.154121	0.035112	0.575326
H436	H	0.654121	0.535112	1.075326
O437	O	0.203908	-0.616637	0.412992
O438	O	0.703908	-0.116637	0.912992
C439	C	0.254336	-0.621676	0.318909
C440	C	0.754336	-0.121676	0.818909
C441	C	0.196533	-0.610278	0.365399
C442	C	0.696533	-0.110278	0.865399
H443	H	0.248391	-0.616527	0.280415
H444	H	0.748391	-0.116527	0.780415
H445	H	0.282771	-0.666515	0.335289
H446	H	0.782771	-0.166515	0.835289
H447	H	0.274639	-0.590383	0.306594
H448	H	0.774639	-0.090383	0.806594
H449	H	0.176181	-0.641535	0.377734
H450	H	0.676181	-0.141535	0.877734
H451	H	0.168138	-0.565424	0.348993
H452	H	0.668138	-0.065424	0.848993
H453	H	0.232890	-0.541375	0.846122
H454	H	0.732890	-0.041375	1.346122
H455	H	0.268542	-0.505632	0.738936
H456	H	0.768542	-0.005632	1.238936
H457	H	0.093408	-0.418110	0.688821
H458	H	0.593408	0.081890	1.188821
O459	O	-0.111350	-0.618759	0.345123
O460	O	0.388650	-0.118759	0.845123
C461	C	-0.117411	-0.568820	0.251423
C462	C	0.382589	-0.068820	0.751423
C463	C	-0.149977	-0.584474	0.315311
C464	C	0.350023	-0.084474	0.815311
H465	H	-0.148626	-0.541089	0.227301
H466	H	0.351374	-0.041089	0.727301
H467	H	-0.089769	-0.608917	0.239792
H468	H	0.410231	-0.108917	0.739792
H469	H	-0.089721	-0.544834	0.239879
H470	H	0.410279	-0.044834	0.739879
H471	H	-0.177698	-0.608446	0.326901
H472	H	0.322302	-0.108446	0.826901
H473	H	-0.177583	-0.544357	0.326908
H474	H	0.322417	-0.044357	0.826908
O475	O	0.048512	-0.451573	0.655426
O476	O	0.548512	0.048427	1.155426
C477	C	-0.045102	-0.401650	0.705380
C478	C	0.454898	0.098350	1.205380
C479	C	0.018810	-0.417337	0.689613
C480	C	0.518810	0.082663	1.189613
H481	H	-0.069135	-0.373958	0.733012
H482	H	0.430865	0.126042	1.233012
H483	H	-0.056738	-0.441736	0.729467
H484	H	0.443262	0.058264	1.229467
H485	H	-0.056747	-0.377611	0.665292
H486	H	0.443253	0.122389	1.165292
H487	H	0.030500	-0.441362	0.729671
H488	H	0.530500	0.058638	1.229671
H489	H	0.030411	-0.377231	0.665504
H490	H	0.530411	0.122769	1.165504
H491	H	0.232695	-0.541333	0.565509
H492	H	0.732695	-0.041333	1.065509
H493	H	0.274946	-0.548573	0.678050
H494	H	0.774946	-0.048573	1.178050
O495	O	0.277592	-0.507896	0.598922
O496	O	0.777592	-0.007896	1.098922
C497	C	0.371206	-0.557738	0.548888
C498	C	0.871206	-0.057738	1.048888
C499	C	0.307294	-0.542046	0.564650
C500	C	0.807294	-0.042046	1.064650
H501	H	0.395239	-0.585341	0.521168
H502	H	0.895239	-0.085341	1.021168
H503	H	0.382920	-0.581834	0.588939
H504	H	0.882920	-0.081834	1.088939
H505	H	0.382772	-0.517616	0.524857
H506	H	0.882772	-0.017616	1.024857
H507	H	0.295682	-0.582139	0.588667
H508	H	0.795682	-0.082139	1.088667
H509	H	0.295614	-0.517929	0.524579
H510	H	0.795614	-0.017929	1.024579
H511	H	0.274901	-0.375125	0.611905
H512	H	0.774901	0.124875	1.111905
H513	H	0.101438	-0.260698	0.696864
H514	H	0.601438	0.239302	1.196864
O515	O	0.229877	-0.372472	0.551437
O516	O	0.729877	0.127528	1.051437
C517	C	0.237386	-0.390515	0.474985
C518	C	0.737386	0.109485	0.974985
C519	C	0.200070	-0.358029	0.517241
C520	C	0.700070	0.141971	1.017241
H521	H	0.213305	-0.378841	0.447318
H522	H	0.713305	0.121159	0.947318
H523	H	0.249025	-0.437830	0.498998
H524	H	0.749025	0.062170	0.998998
H525	H	0.277475	-0.378894	0.447328
H526	H	0.777475	0.121106	0.947328
H527	H	0.159957	-0.369603	0.544908
H528	H	0.659957	0.130397	1.044908
H529	H	0.188476	-0.310722	0.493192
H530	H	0.688476	0.189278	0.993192
O531	O	0.134938	-0.372456	0.741709
O532	O	0.634938	0.127544	1.241709
C533	C	0.085031	-0.366246	0.835346
C534	C	0.585031	0.133754	1.335346
C535	C	0.100696	-0.333760	0.771438
C536	C	0.600696	0.166240	1.271438
H537	H	0.057335	-0.334975	0.859401
H538	H	0.557335	0.165025	1.359401
H539	H	0.125122	-0.393891	0.846989
H540	H	0.625122	0.106109	1.346989
H541	H	0.061008	-0.393931	0.846958
H542	H	0.561008	0.106069	1.346958
H543	H	0.124705	-0.306045	0.759779
H544	H	0.624705	0.193955	1.259779
H545	H	0.060585	-0.306151	0.759829
H546	H	0.560585	0.193849	1.259829
O547	O	-0.227773	-0.579905	0.383785
O548	O	0.272227	-0.079905	0.883785
C549	C	-0.294428	-0.569278	0.349883
C550	C	0.205572	-0.069278	0.849883
C551	C	-0.262015	-0.606644	0.392208
C552	C	0.237985	-0.106644	0.892208
H553	H	-0.322130	-0.590876	0.356687
H554	H	0.177870	-0.090876	0.856687
H555	H	-0.263132	-0.562517	0.305000
H556	H	0.236868	-0.062517	0.805000
H557	H	-0.322048	-0.526752	0.356655
H558	H	0.177952	-0.026752	0.856655
H559	H	-0.234395	-0.649191	0.385488
H560	H	0.265605	-0.149191	0.885488
H561	H	-0.293341	-0.613358	0.437076
H562	H	0.206659	-0.113358	0.937076
H563	H	-0.029822	-0.541673	0.240758
H564	H	0.470178	-0.041673	0.740758
O565	O	-0.032395	-0.532516	0.431750
O566	O	0.467605	-0.032516	0.931750
C567	C	-0.082186	-0.438862	0.381706
C568	C	0.417814	0.061138	0.881706
C569	C	-0.066553	-0.502769	0.397476
C570	C	0.433447	-0.002769	0.897476
H571	H	-0.109815	-0.414793	0.354003
H572	H	0.390185	0.085207	0.854003
H573	H	-0.042079	-0.427275	0.357692
H574	H	0.457921	0.072725	0.857692
H575	H	-0.106271	-0.427209	0.421787
H576	H	0.393729	0.072791	0.921787
H577	H	-0.042482	-0.514468	0.357424
H578	H	0.457518	-0.014468	0.857424
H579	H	-0.106681	-0.514322	0.421512
H580	H	0.393319	-0.014322	0.921512
H581	H	0.057627	-0.716785	0.240872
H582	H	0.557627	-0.216785	0.740872
O583	O	-0.071144	-0.571315	0.352603
O584	O	0.428856	-0.071315	0.852603
C585	C	-0.161133	-0.537457	0.419204
C586	C	0.338867	-0.037457	0.919204
C587	C	-0.123708	-0.579738	0.386746
C588	C	0.376292	-0.079738	0.886746
H589	H	-0.203634	-0.544261	0.446825
H590	H	0.296366	-0.044261	0.946825
H591	H	-0.167932	-0.492555	0.387936
H592	H	0.332068	0.007445	0.887936
H593	H	-0.139519	-0.544279	0.446910
H594	H	0.360481	-0.044279	0.946910
H595	H	-0.145290	-0.572968	0.359039
H596	H	0.354710	-0.072968	0.859039
H597	H	-0.116907	-0.624625	0.418045
H598	H	0.383093	-0.124625	0.918045
O599	O	0.023897	-0.761576	0.352685
O600	O	0.523897	-0.261576	0.852685
C601	C	0.019379	-0.850037	0.370701
C602	C	0.519379	-0.350037	0.870701
C603	C	0.003781	-0.786136	0.338171
C604	C	0.503781	-0.286136	0.838171
H605	H	0.003133	-0.869915	0.358970
H606	H	0.503133	-0.369915	0.858970
H607	H	-0.000619	-0.857520	0.418007
H608	H	0.499381	-0.357520	0.918007
H609	H	0.067213	-0.869990	0.359179
H610	H	0.567213	-0.369990	0.859179
H611	H	-0.044045	-0.766141	0.349645
H612	H	0.455955	-0.266141	0.849645
H613	H	0.023820	-0.778693	0.290873
H614	H	0.523820	-0.278693	0.790873
O615	O	0.062455	-0.722873	0.527154
O616	O	0.562455	-0.222873	1.027154
C617	C	0.108137	-0.820677	0.572985
C618	C	0.608137	-0.320677	1.072985
C619	C	0.070871	-0.778378	0.535509
C620	C	0.570871	-0.278378	1.035509
H621	H	0.114963	-0.865562	0.579742
H622	H	0.614963	-0.365562	1.079742
H623	H	0.086436	-0.813888	0.615504
H624	H	0.586436	-0.313888	1.115504
H625	H	0.150637	-0.813891	0.551417
H626	H	0.650637	-0.313891	1.051417
H627	H	0.028365	-0.785139	0.557028
H628	H	0.528365	-0.285139	1.057028
H629	H	0.092616	-0.785178	0.492992
H630	H	0.592616	-0.285178	0.992992
H631	H	0.021495	-0.752433	0.485928
H632	H	0.521495	-0.252433	0.985928
O633	O	0.070591	-0.754355	0.404641
O634	O	0.570591	-0.254355	0.904641
C635	C	0.152558	-0.736356	0.325102
C636	C	0.652558	-0.236356	0.825102
C637	C	0.110753	-0.768770	0.355924
C638	C	0.610753	-0.268770	0.855924
H639	H	0.185033	-0.747989	0.285702
H640	H	0.685033	-0.247989	0.785702
H641	H	0.174957	-0.748004	0.354312
H642	H	0.674957	-0.248004	0.854312
H643	H	0.128604	-0.689043	0.312455
H644	H	0.628604	-0.189043	0.812455
H645	H	0.134664	-0.816091	0.368574
H646	H	0.634664	-0.316091	0.868574
H647	H	0.088354	-0.757075	0.326695
H648	H	0.588354	-0.257075	0.826695
O649	O	-0.079302	-0.870470	0.515185
O650	O	0.420698	-0.370470	1.015185
C651	C	-0.176218	-0.864126	0.549219
C652	C	0.323782	-0.364126	1.049219
C653	C	-0.134396	-0.831714	0.518286
C654	C	0.365604	-0.331714	1.018286
H655	H	-0.220769	-0.832806	0.551726
H656	H	0.279231	-0.332806	1.051726
H657	H	-0.174481	-0.891725	0.593678
H658	H	0.325519	-0.391725	1.093678
H659	H	-0.164356	-0.891849	0.525117
H660	H	0.335644	-0.391849	1.025117
H661	H	-0.146229	-0.803961	0.542341
H662	H	0.353771	-0.303961	1.042341
H663	H	-0.136140	-0.804151	0.473825
H664	H	0.363860	-0.304151	0.973825
O665	O	-0.117918	-0.754006	0.476122
O666	O	0.382082	-0.254006	0.976122
C667	C	-0.189284	-0.687256	0.432416
C668	C	0.310716	-0.187256	0.932416
C669	C	-0.125903	-0.719854	0.423352
C670	C	0.374097	-0.219854	0.923352
H671	H	-0.195761	-0.659645	0.389759
H672	H	0.304239	-0.159645	0.889759
H673	H	-0.205966	-0.659540	0.458364
H674	H	0.294034	-0.159540	0.958364
H675	H	-0.213051	-0.718486	0.455841
H676	H	0.286949	-0.218486	0.955841
H677	H	-0.102089	-0.688665	0.399912
H678	H	0.397911	-0.188665	0.899912
H679	H	-0.109264	-0.747578	0.397428
H680	H	0.390736	-0.247578	0.897428
O681	O	0.109239	-0.870805	0.443682
O682	O	0.609239	-0.370805	0.943682
C683	C	0.180614	-0.937601	0.487366
C684	C	0.680614	-0.437601	0.987366
C685	C	0.117228	-0.905035	0.496442
C686	C	0.617228	-0.405035	0.996442
H687	H	0.187092	-0.965292	0.530015
H688	H	0.687092	-0.465292	1.030015
H689	H	0.204408	-0.906401	0.463996
H690	H	0.704408	-0.406401	0.963996
H691	H	0.197266	-0.965249	0.461360
H692	H	0.697266	-0.465249	0.961360
H693	H	0.100525	-0.877386	0.522462
H694	H	0.600525	-0.377386	1.022462
H695	H	0.093473	-0.936265	0.519788
H696	H	0.593473	-0.436265	1.019788
H697	H	-0.065797	-0.577331	0.398207
H698	H	0.434203	-0.077331	0.898207
H699	H	-0.116238	-0.708516	0.529438
H700	H	0.383762	-0.208516	1.029438
H701	H	-0.223425	-0.672650	0.564976
H702	H	0.276575	-0.172650	1.064976
