data_functionalizedCrystal
_audit_creation_method	'MofGen! by Chris Wilmer'
_symmetry_space_group_name_H-M	'P1'
_symmetry_Int_Tables_number	1
_symmetry_cell_setting	triclinic
loop_
_symmetry_equiv_pos_as_xyz
  x,y,z
_cell_length_a	14.628931
_cell_length_b	14.395555
_cell_length_c	14.628931
_cell_angle_alpha	90.001754
_cell_angle_beta	60.000000
_cell_angle_gamma	59.999615
loop_
_atom_site_label
_atom_site_type_symbol
_atom_site_fract_x
_atom_site_fract_y
_atom_site_fract_z
Zr1	Zr	1.000538	0.894916	-0.119915
O2	O	1.191250	0.746586	-0.265884
O3	O	0.809831	0.940387	-0.075168
O4	O	1.000536	0.940387	-0.265873
O5	O	1.000546	0.746585	0.075253
O6	O	1.000529	1.093261	-0.265865
O7	O	1.000545	0.746585	-0.075178
O8	O	0.659393	1.093260	0.075272
O9	O	1.341682	0.746586	-0.265884
O10	O	0.888265	1.073868	-0.056078
O11	O	0.888270	0.959780	0.056182
O12	O	1.112801	0.959780	-0.168350
O13	O	1.112806	0.845692	-0.056090
Zr14	Zr	1.000528	1.138732	0.120019
Zr15	Zr	1.000528	1.138732	-0.119902
Zr16	Zr	1.000539	0.894916	0.120006
Zr17	Zr	1.240460	0.894916	-0.119916
Zr18	Zr	0.760607	1.138732	0.120019
O19	O	1.191236	1.093261	0.075271
O20	O	1.191235	1.093262	-0.265866
O21	O	1.191251	0.746585	0.075253
O22	O	0.809816	1.287062	0.265987
O23	O	0.809815	1.287062	-0.075150
O24	O	0.809832	0.940386	0.265969
O25	O	1.000521	1.287063	-0.075150
O26	O	1.000531	1.093261	0.265977
O27	O	1.000537	0.940387	0.265969
O28	O	1.000522	1.287063	0.075282
O29	O	1.341673	0.940388	-0.265874
O30	O	0.659393	1.093260	0.265977
O31	O	0.659385	1.287062	0.265988
O32	O	0.659384	1.287062	0.075282
O33	O	1.341683	0.746586	-0.075179
O34	O	1.341674	0.940388	-0.075169
O35	O	0.888266	1.073868	0.168453
O36	O	0.888260	1.187956	0.056194
O37	O	1.112796	1.073868	-0.056078
O38	O	1.112802	0.959780	0.056181
C39	C	0.700428	1.016824	0.000052
C40	C	0.598575	1.016823	0.000052
C41	C	0.553163	1.073419	-0.055636
C42	C	0.447893	1.073420	-0.055637
C43	C	1.000547	0.711847	0.000036
C44	C	1.000551	0.608340	0.000030
C45	C	1.122978	0.485546	-0.061175
C46	C	1.061777	0.454710	-0.105532
C47	C	1.061748	0.454752	0.044379
C48	C	0.939349	0.578868	-0.044388
C49	C	0.939338	0.578907	0.105581
C50	C	0.878047	0.548145	0.061251
C51	C	1.300639	1.016824	0.000051
C52	C	1.402492	1.016825	0.000051
C53	C	1.000532	1.016824	-0.300053
C54	C	1.000532	1.016825	-0.401906
C55	C	1.000520	1.321801	0.000068
C56	C	1.000515	1.425308	0.000073
C57	C	1.111917	0.960229	-0.503009
C58	C	1.111919	0.960228	-0.608281
C59	C	1.000534	1.016824	0.300157
C60	C	1.000534	1.016823	0.402009
C61	C	0.700415	1.321801	0.000068
C62	C	0.598557	1.425307	0.000074
C63	C	0.700429	1.016823	0.300157
C64	C	0.598576	1.016823	0.402010
C65	C	0.700415	1.321800	0.300173
C66	C	0.598558	1.425307	0.402031
C67	C	1.300651	0.711848	-0.300069
C68	C	1.402508	0.608341	-0.401928
C69	C	1.300652	0.711847	0.000035
C70	C	1.402510	0.608341	0.000030
C71	C	1.300638	1.016825	-0.300053
C72	C	1.402490	1.016825	-0.401906
C73	C	0.553148	1.414858	-0.055618
C74	C	0.447873	1.521836	-0.055614
C75	C	0.553165	1.073418	0.503113
C76	C	0.447895	1.073419	0.608385
C77	C	0.553144	1.528048	0.391755
C78	C	0.447869	1.635029	0.497029
H79	H	0.592212	1.121877	-0.103308
Br80	Br	0.467581	0.936047	0.079512
Br81	Br	0.382819	1.154173	-0.135118
Br82	Br	0.841578	1.097579	-0.453435
H83	H	0.408811	1.723167	0.488404
H84	H	0.905173	1.065280	-0.393283
Br85	Br	1.295520	0.443146	-0.147569
Br86	Br	0.618243	1.542665	0.247193
H87	H	0.408818	1.513068	-0.103289
Br88	Br	0.467536	1.477676	0.612518
H89	H	0.592215	1.326714	-0.103306
Br90	Br	0.382800	1.154194	0.752944
H91	H	0.559525	0.968365	0.393387
H92	H	0.559517	0.968374	0.047731
Br93	Br	0.853170	0.668108	0.254300
H94	H	0.559505	1.416546	0.488767
H95	H	0.441501	1.633349	0.047774
H96	H	1.113519	0.401193	-0.194778
H97	H	0.559499	1.513452	0.047752
H98	H	0.441534	0.968374	0.511366
Br99	Br	0.618263	1.154168	0.517500
H100	H	0.887643	0.632227	-0.081979
H101	H	1.207276	0.911782	-0.511632
Br102	Br	0.705409	0.590788	0.147459
Br103	Br	1.270871	0.879453	-0.752840
Br104	Br	1.148026	0.365570	0.106862
