data_functionalizedCrystal
_audit_creation_method	'MofGen! by Chris Wilmer'
_symmetry_space_group_name_H-M	'P1'
_symmetry_Int_Tables_number	1
_symmetry_cell_setting	triclinic
loop_
_symmetry_equiv_pos_as_xyz
  x,y,z
_cell_length_a	11.792241
_cell_length_b	10.654550
_cell_length_c	9.130313
_cell_angle_alpha	90.000110
_cell_angle_beta	89.996046
_cell_angle_gamma	84.339159
loop_
_atom_site_label
_atom_site_type_symbol
_atom_site_fract_x
_atom_site_fract_y
_atom_site_fract_z
O1	O	-1.507300	-0.172130	-0.121653
O2	O	-1.177000	-0.189870	-0.121687
O3	O	-1.349744	0.001761	-0.121664
O4	O	-1.334556	-0.363761	-0.121676
O5	O	-1.349742	0.001756	0.121935
O6	O	-1.176998	-0.189875	0.121912
O7	O	-1.507298	-0.172135	0.121946
Cu8	Cu	-1.342148	-0.181006	0.144171
Cu9	Cu	-1.342150	-0.180999	-0.143912
O10	O	-1.334554	-0.363766	0.121923
C11	C	-1.348628	0.048553	0.000134
C12	C	-1.345291	0.187987	0.000128
C13	C	-1.134705	-0.188758	0.000108
C14	C	-1.008684	-0.185423	0.000095
C15	C	-1.549592	-0.173247	0.000147
C16	C	-1.675614	-0.176582	0.000151
C17	C	-0.777958	-0.179290	0.000138
C18	C	-0.906351	-0.182697	0.000114
C19	C	-1.335670	-0.410558	0.000122
C20	C	-1.339006	-0.549992	0.000118
N21	N	-1.342154	-0.181009	0.346794
C22	C	-1.447000	0.267760	0.000143
C23	C	-1.443858	0.398772	0.000133
C24	C	-1.237290	0.370224	0.000099
C25	C	-1.240433	0.239215	0.000099
C26	C	-1.566261	0.284243	0.000169
C27	C	-1.563120	0.415255	0.000159
N28	N	-1.342152	-0.180986	-0.346535
C29	C	-1.418665	-0.096184	0.423456
C30	C	-1.418662	-0.096169	0.576793
C31	C	-1.265633	-0.265815	0.576792
C32	C	-1.265632	-0.265823	0.423458
C33	C	-1.507018	0.001757	0.423458
C34	C	-1.507015	0.001772	0.576795
H35	H	-1.151917	0.411951	0.000073
O36	O	-1.606208	0.469648	-0.125367
C37	C	-1.690242	0.437633	-0.361323
C38	C	-1.641501	0.375871	-0.219232
H39	H	-1.718767	0.361840	-0.437264
H40	H	-1.766246	0.508333	-0.334003
H41	H	-1.621714	0.488452	-0.417935
H42	H	-1.709947	0.324984	-0.162550
H43	H	-1.565471	0.305239	-0.246646
H44	H	-1.589425	-0.028599	0.375907
O45	O	-1.484083	0.116887	0.373713
C46	C	-1.549827	0.300320	0.231559
C47	C	-1.575966	0.169980	0.287830
H48	H	-1.624088	0.343273	0.162086
H49	H	-1.536952	0.364739	0.328598
H50	H	-1.469039	0.289400	0.162248
H51	H	-1.656764	0.180780	0.357117
H52	H	-1.588769	0.105609	0.190726
H53	H	-1.612910	0.255019	-0.101765
O54	O	-1.616869	0.465112	0.121739
C55	C	-1.791911	0.493385	0.259329
C56	C	-1.731181	0.436828	0.121604
H57	H	-1.884349	0.470562	0.259250
H58	H	-1.747067	0.451496	0.361332
H59	H	-1.789288	0.600058	0.259315
H60	H	-1.733786	0.330158	0.121477
H61	H	-1.776042	0.478815	0.019663
H62	H	-1.203321	-0.334884	0.361041
H63	H	-1.203330	-0.334868	0.639228
O64	O	-1.141526	0.161902	0.000137
C65	C	-0.936307	0.147418	-0.000005
C66	C	-1.048236	0.235119	-0.000014
H67	H	-0.860853	0.206577	-0.000159
H68	H	-0.932523	0.085391	0.101963
H69	H	-0.932688	0.085345	-0.101929
H70	H	-1.051930	0.297270	0.101840
H71	H	-1.051974	0.297060	-0.102050
H72	H	-1.479439	0.092916	0.624342
O73	O	-1.611638	0.241848	0.125598
C74	C	-1.760484	0.133085	0.234123
C75	C	-1.709236	0.180923	0.091897
H76	H	-1.839414	0.083840	0.206928
H77	H	-1.694872	0.063748	0.290824
H78	H	-1.785146	0.216343	0.309932
H79	H	-1.684578	0.097745	0.015979
H80	H	-1.774880	0.250298	0.035312
O81	O	-1.611117	-0.023667	0.626220
C82	C	-1.800842	-0.069859	0.562219
C83	C	-1.682998	-0.041098	0.506047
H84	H	-1.858998	-0.083934	0.465089
H85	H	-1.791247	-0.159269	0.631545
H86	H	-1.839546	0.012432	0.631626
H87	H	-1.644228	-0.123311	0.436579
H88	H	-1.692666	0.048355	0.436801
