data_functionalizedCrystal
_audit_creation_method	'MofGen! by Chris Wilmer'
_symmetry_space_group_name_H-M	'P1'
_symmetry_Int_Tables_number	1
_symmetry_cell_setting	triclinic
loop_
_symmetry_equiv_pos_as_xyz
  x,y,z
_cell_length_a	14.446369
_cell_length_b	21.606444
_cell_length_c	21.606444
_cell_angle_alpha	59.997726
_cell_angle_beta	89.997476
_cell_angle_gamma	60.002910
loop_
_atom_site_label
_atom_site_type_symbol
_atom_site_fract_x
_atom_site_fract_y
_atom_site_fract_z
Zr1	Zr	0.891761	0.677479	-0.081257
O2	O	0.743968	0.806593	-0.180079
O3	O	0.937062	0.548362	-0.050963
O4	O	0.937071	0.677483	-0.180085
O5	O	0.743958	0.677470	0.050896
O6	O	1.089399	0.677488	-0.180090
O7	O	0.743959	0.677473	-0.050957
O8	O	1.089384	0.446515	0.050885
O9	O	0.743973	0.908444	-0.180079
O10	O	1.070070	0.601474	-0.038047
O11	O	0.956388	0.601468	0.037969
O12	O	0.956398	0.753492	-0.114056
O13	O	0.842716	0.753486	-0.038040
Zr14	Zr	1.134706	0.677484	0.081178
Zr15	Zr	1.134708	0.677488	-0.081266
Zr16	Zr	0.891759	0.677475	0.081187
Zr17	Zr	0.891770	0.839918	-0.081258
Zr18	Zr	1.134697	0.515044	0.081179
O19	O	1.089405	0.806600	0.050883
O20	O	1.089407	0.806606	-0.180091
O21	O	0.743965	0.806588	0.050896
O22	O	1.282499	0.548369	0.179999
O23	O	1.282501	0.548375	-0.050975
O24	O	0.937060	0.548356	0.180011
O25	O	1.282509	0.677492	-0.050976
O26	O	1.089396	0.677480	0.180005
O27	O	0.937067	0.677474	0.180011
O28	O	1.282508	0.677490	0.050877
O29	O	0.937084	0.908451	-0.180086
O30	O	1.089383	0.446512	0.180007
O31	O	1.282493	0.446519	0.180000
O32	O	1.282495	0.446522	0.050878
O33	O	0.743972	0.908440	-0.050958
O34	O	0.937082	0.908448	-0.050965
O35	O	1.070069	0.601471	0.113976
O36	O	1.183751	0.601477	0.037960
O37	O	1.070079	0.753494	-0.038048
O38	O	0.956397	0.753488	0.037968
C39	C	1.013222	0.474294	-0.000039
C40	C	1.013218	0.405334	-0.000038
C41	C	1.072591	-0.017971	-0.039719
C42	C	1.072583	0.046829	-0.039722
C43	C	1.013238	0.079223	-0.000043
C44	C	0.953889	0.046820	0.039637
C45	C	0.953891	-0.017975	0.039635
C46	C	0.953877	0.308130	0.039644
C47	C	0.953882	0.372928	0.039645
C48	C	1.072568	0.372935	-0.039713
C49	C	1.072571	0.308140	-0.039715
C50	C	1.013217	0.275745	-0.000039
C51	C	1.013225	0.205483	-0.000038
C52	C	1.013236	0.149480	-0.000039
C53	C	0.709344	0.677470	-0.000029
C54	C	0.606207	0.677466	-0.000025
C55	C	0.531218	0.581599	0.047665
C56	C	0.638547	0.581534	0.047938
C57	C	0.531649	0.725088	0.034944
C58	C	0.424790	0.724479	0.035288
C59	C	0.423218	0.726456	-0.082761
C60	C	0.531889	0.724650	-0.082625
C61	C	1.317123	0.677492	-0.000051
C62	C	1.420260	0.677496	-0.000054
C63	C	1.013235	0.677486	-0.203233
C64	C	1.013236	0.677488	-0.272194
C65	C	1.013245	0.880668	-0.000041
C66	C	1.013249	0.949628	-0.000041
C67	C	1.097155	0.677492	-0.304596
C68	C	1.097158	0.677486	-0.369389
C69	C	1.013237	0.677482	-0.401782
C70	C	0.929314	0.677474	-0.369375
C71	C	0.929316	0.677474	-0.304580
C72	C	0.929304	0.677473	-0.630685
C73	C	0.929306	0.677476	-0.695486
C74	C	1.097146	0.677486	-0.695494
C75	C	1.097148	0.677485	-0.630699
C76	C	1.013229	0.677474	-0.598295
C77	C	1.013228	0.677479	-0.528038
C78	C	1.013233	0.677483	-0.472041
C79	C	1.013232	0.677476	0.203153
C80	C	1.013231	0.677475	0.272115
C81	C	1.317111	0.474305	-0.000050
C82	C	1.420245	0.405349	-0.000053
C83	C	1.013220	0.474289	0.203154
C84	C	1.013216	0.405328	0.272116
C85	C	1.317109	0.474301	0.203143
C86	C	1.420242	0.405343	0.272101
C87	C	0.709357	0.880662	-0.203223
C88	C	0.606224	0.949620	-0.272181
C89	C	0.709355	0.880657	-0.000030
C90	C	0.606222	0.949613	-0.000027
C91	C	1.013247	0.880673	-0.203234
C92	C	1.013251	0.949634	-0.272196
C93	C	1.409337	0.372966	-0.039737
C94	C	1.506233	0.308183	-0.039755
C95	C	1.614035	0.275781	-0.000085
C96	C	1.624940	0.308171	0.039600
C97	C	1.528046	0.372957	0.039614
C98	C	1.072553	0.372944	0.344183
C99	C	1.072545	0.308157	0.408987
C100	C	1.013204	0.275750	0.401721
C101	C	0.953859	0.308140	0.329646
C102	C	0.953862	0.372931	0.264844
C103	C	1.528025	0.372963	0.264806
C104	C	1.624939	0.308179	0.329593
C105	C	1.614067	0.275772	0.401676
C106	C	1.506272	0.308158	0.408970
C107	C	1.409361	0.372945	0.344183
C108	C	0.498441	0.982008	-0.264885
C109	C	0.401528	1.046812	-0.329673
C110	C	0.412400	1.079222	-0.401756
C111	C	0.520195	1.046832	-0.409050
C112	C	0.617106	0.982033	-0.344263
C113	C	0.617130	0.982003	0.039650
C114	C	0.520234	1.046804	0.039651
C115	C	0.412432	1.079208	-0.000022
C116	C	0.401527	1.046815	-0.039704
C117	C	0.498421	0.982020	-0.039708
C118	C	1.072603	0.982021	-0.264906
C119	C	1.072630	1.046809	-0.329697
C120	C	1.013297	1.079214	-0.401777
C121	C	0.953943	1.046821	-0.409065
C122	C	0.953924	0.982030	-0.344275
H123	H	1.120922	-0.044346	-0.072027
C124	C	0.836866	0.677626	-0.595133
N125	N	0.767193	0.677801	-0.568382
H126	H	0.313766	1.073173	-0.323719
C127	C	1.137840	0.272520	-0.083375
N128	N	1.186994	0.245697	-0.116267
H129	H	1.692923	0.223028	-0.000101
C130	C	0.735703	0.946375	0.083292
N131	N	0.825010	0.919548	0.116161
C132	C	1.720684	0.204497	0.472936
N133	N	1.800992	0.150810	0.526607
C134	C	1.494332	0.272494	0.488269
N135	N	1.485341	0.245624	0.547998
C136	C	0.837009	0.677457	-0.405004
N137	N	0.767483	0.677443	-0.431840
H138	H	0.529136	1.073168	0.071967
H139	H	1.013321	1.131971	-0.454527
H140	H	1.165481	0.677494	-0.604328
H141	H	0.860982	0.677469	-0.278199
H142	H	1.321568	0.399347	-0.072050
H143	H	0.333544	1.131968	-0.000012
C144	C	1.137835	0.408591	-0.083374
N145	N	1.186989	0.435449	-0.116261
H146	H	0.313742	1.073209	-0.072004
C147	C	1.290801	0.408554	0.352222
N148	N	1.201503	0.435374	0.358282
C149	C	1.137868	0.082464	-0.083369
N150	N	1.187045	0.109304	-0.116244
H151	H	1.712725	0.281780	0.071898
C152	C	0.711874	0.531050	0.016260
N153	N	0.767105	0.493019	-0.007596
C154	C	0.486454	0.946374	-0.185600
N155	N	0.477416	0.919543	-0.125884
C156	C	1.494211	0.272558	-0.083405
N157	N	1.485154	0.245725	-0.116280
H158	H	0.346215	0.794837	0.002777
H159	H	0.905550	0.399304	0.071956
C160	C	0.888595	0.408536	0.185571
N161	N	0.839435	0.435350	0.125864
C162	C	1.540063	0.408563	0.083280
N163	N	1.549123	0.435378	0.116173
H164	H	0.489524	0.955650	-0.072016
C165	C	1.137845	0.272531	0.488262
N166	N	1.187032	0.245698	0.547970
H167	H	0.333480	1.131985	-0.454503
H168	H	0.905551	0.281760	0.071953
H169	H	0.905564	0.073204	0.071941
C170	C	0.534372	0.530747	0.016143
N171	N	0.536739	0.492444	-0.007599
C172	C	0.532854	0.531121	0.129680
N173	N	0.534170	0.493147	0.191486
H174	H	1.165481	0.677491	-0.721882
C175	C	1.137886	0.946383	-0.185623
N176	N	1.187068	0.919540	-0.125909
C177	C	1.137920	1.082433	-0.321662
N178	N	1.187095	1.109264	-0.315609
H179	H	1.165492	0.677489	-0.395769
H180	H	1.120876	0.399323	0.350114
C181	C	0.836988	0.677463	-0.731114
N182	N	0.767459	0.677451	-0.757948
C183	C	0.532135	1.082485	-0.488348
N184	N	0.541125	1.109335	-0.548078
H185	H	1.013211	0.222993	0.454493
C186	C	0.888595	0.272478	0.321667
N187	N	0.839445	0.245611	0.315659
H188	H	0.704865	0.955663	-0.350213
H189	H	0.425057	0.690634	0.096149
H190	H	1.536899	0.399339	0.206118
C191	C	0.888727	1.082445	-0.488361
N192	N	0.839620	1.109270	-0.548089
C193	C	0.888610	0.946423	-0.352307
N194	N	0.839409	0.919610	-0.358362
H195	H	0.583250	0.692009	0.095229
H196	H	0.905566	-0.044354	0.071943
C197	C	0.494872	0.820377	-0.009741
N198	N	0.467175	0.892149	-0.043399
C199	C	0.711207	0.530731	0.130365
N200	N	0.765935	0.492464	0.192452
H201	H	1.712701	0.281816	0.323640
H202	H	0.583310	0.689928	-0.108749
C203	C	0.497423	0.819200	-0.134699
N204	N	0.471465	0.890418	-0.173919
C205	C	0.317559	0.821893	-0.131018
N206	N	0.237974	0.893773	-0.167360
C207	C	1.189477	0.677497	-0.268968
N208	N	1.259020	0.677496	-0.242133
C209	C	0.417663	0.684996	-0.122224
N210	N	0.413487	0.653759	-0.151940
