data_functionalizedCrystal
_audit_creation_method	'MofGen! by Chris Wilmer'
_symmetry_space_group_name_H-M	'P1'
_symmetry_Int_Tables_number	1
_symmetry_cell_setting	triclinic
loop_
_symmetry_equiv_pos_as_xyz
  x,y,z
_cell_length_a	21.295418
_cell_length_b	25.639239
_cell_length_c	21.295411
_cell_angle_alpha	89.980474
_cell_angle_beta	89.956262
_cell_angle_gamma	90.054499
loop_
_atom_site_label
_atom_site_type_symbol
_atom_site_fract_x
_atom_site_fract_y
_atom_site_fract_z
Zn1	Zn	0.962320	-0.207990	-0.356243
Zn2	Zn	0.962207	-0.295410	-0.250972
Zn3	Zn	0.857043	-0.208014	-0.250953
Zn4	Zn	0.856998	-0.295420	-0.356169
O5	O	0.909642	-0.251708	-0.303584
O6	O	1.050395	-0.219572	-0.342318
O7	O	0.948229	-0.283822	-0.162880
O8	O	0.871075	-0.134846	-0.264943
O9	O	1.050312	-0.283799	-0.264976
O10	O	0.948421	-0.134828	-0.342299
O11	O	0.870965	-0.219613	-0.162866
O12	O	0.768948	-0.219623	-0.264871
O13	O	0.870997	-0.283816	-0.444268
O14	O	0.768914	-0.283840	-0.342172
O15	O	0.948377	-0.219582	-0.444322
O16	O	0.948185	-0.368576	-0.264904
O17	O	0.870888	-0.368584	-0.342191
C18	C	0.746090	-0.251736	-0.303512
C19	C	0.676122	-0.251760	-0.303496
C20	C	0.643255	-0.285242	-0.343686
C21	C	0.577512	-0.285229	-0.343715
C22	C	0.544640	-0.251740	-0.303541
C23	C	0.577515	-0.218252	-0.263347
C24	C	0.643257	-0.218262	-0.263325
N25	N	0.441365	-0.247648	-0.248483
N26	N	0.378913	-0.247641	-0.248506
C27	C	0.346565	-0.251707	-0.303608
N28	N	0.379028	-0.255789	-0.358686
N29	N	0.441485	-0.255799	-0.358662
C30	C	0.473354	-0.251725	-0.303561
C31	C	0.242412	-0.285176	-0.343832
C32	C	0.176668	-0.285160	-0.343862
C33	C	0.176673	-0.218185	-0.263489
C34	C	0.242415	-0.218199	-0.263465
C35	C	0.275281	-0.251697	-0.303636
C36	C	0.909536	-0.387551	-0.303555
C37	C	0.909548	-0.445665	-0.303564
C38	C	0.949996	-0.806011	-0.263409
C39	C	0.950020	-0.860616	-0.263418
O40	O	0.984300	-0.888838	-0.229245
N41	N	0.909753	-0.887947	-0.303626
C42	C	0.869463	-0.860672	-0.343833
O43	O	0.835215	-0.888934	-0.378034
C44	C	0.869442	-0.806069	-0.343827
C45	C	0.909708	-0.778740	-0.303612
C46	C	0.990259	-0.778683	-0.223198
C47	C	0.990233	-0.724082	-0.223188
C48	C	0.949945	-0.696810	-0.263391
C49	C	0.909682	-0.724139	-0.303603
C50	C	0.829156	-0.778794	-0.384037
C51	C	0.829139	-0.724187	-0.384028
C52	C	0.869404	-0.696858	-0.343812
C53	C	0.869369	-0.642267	-0.343796
N54	N	0.909636	-0.614935	-0.303588
C55	C	0.949924	-0.642207	-0.263385
C56	C	0.869510	-0.975343	-0.343842
C57	C	0.869527	-1.029945	-0.343845
C58	C	0.950086	-1.029885	-0.263431
C59	C	0.950065	-0.975282	-0.263425
C60	C	0.909778	-0.948011	-0.303634
C61	C	0.949868	-0.527542	-0.263369
C62	C	0.949837	-0.472937	-0.263361
C63	C	0.869281	-0.473001	-0.343778
C64	C	0.869309	-0.527602	-0.343783
C65	C	0.909607	-0.554871	-0.303577
O66	O	0.835108	-0.614010	-0.377953
O67	O	0.984172	-0.613939	-0.229195
C68	C	1.073832	-0.251681	-0.303657
C69	C	1.143801	-0.251670	-0.303688
C70	C	0.909694	-0.251697	-0.467774
C71	C	0.909717	-0.251693	-0.537743
C72	C	0.909766	-0.115335	-0.303627
C73	C	0.909818	-0.057221	-0.303645
C74	C	0.950007	-0.218244	-0.570639
C75	C	0.950006	-0.218221	-0.636381
C76	C	0.909721	-0.251657	-0.669225
C77	C	0.869424	-0.285108	-0.636321
C78	C	0.869421	-0.285126	-0.570580
N79	N	0.904857	-0.297396	-0.772441
N80	N	0.904863	-0.297377	-0.834892
C81	C	0.909725	-0.251604	-0.867300
N82	N	0.914594	-0.205848	-0.834897
N83	N	0.914591	-0.205867	-0.772440
C84	C	0.909719	-0.251641	-0.740511
C85	C	0.950017	-0.218128	-0.971482
C86	C	0.950011	-0.218104	-1.037225
C87	C	0.869433	-0.284995	-1.037164
C88	C	0.869435	-0.285014	-0.971422
C89	C	0.909730	-0.251581	-0.938584
C90	C	0.909626	-0.251682	-0.140032
C91	C	0.909726	-0.251539	-0.070065
H92	H	0.269176	-0.190937	-0.230734
O93	O	0.144809	-0.317661	-0.382993
C94	C	0.160950	-0.306313	-0.445753
H95	H	0.208711	-0.286223	-0.447087
H96	H	0.124011	-0.279455	-0.467033
C97	C	0.105299	-0.382009	-0.482125
C98	C	0.163963	-0.357339	-0.483763
H99	H	0.107156	-0.413484	-0.505573
H100	H	0.094423	-0.389655	-0.439843
H101	H	0.074523	-0.359622	-0.499857
H102	H	0.194737	-0.379723	-0.466025
H103	H	0.174845	-0.349699	-0.526044
O104	O	0.790092	-0.697673	-0.423154
C105	C	0.825898	-0.666023	-0.463840
H106	H	0.875482	-0.682421	-0.467790
H107	H	0.828055	-0.624645	-0.444374
C108	C	0.734214	-0.645054	-0.524392
C109	C	0.795114	-0.665197	-0.529247
H110	H	0.715224	-0.644542	-0.564737
H111	H	0.710090	-0.666375	-0.496979
H112	H	0.736020	-0.610574	-0.508168
H113	H	0.793306	-0.699678	-0.545463
H114	H	0.819236	-0.643881	-0.556664
H115	H	0.670017	-0.190995	-0.230596
H116	H	0.982684	-0.549738	-0.230630
O117	O	0.989195	-0.185832	-0.538705
C118	C	1.029814	-0.215589	-0.500680
H119	H	1.033691	-0.256761	-0.520492
H120	H	1.010332	-0.217411	-0.450849
C121	C	1.090504	-0.139446	-0.475366
C122	C	1.095270	-0.190014	-0.499701
H123	H	1.130880	-0.123670	-0.474759
H124	H	1.063137	-0.119398	-0.500982
H125	H	1.074267	-0.140972	-0.433841
H126	H	1.111500	-0.188487	-0.541227
H127	H	1.122641	-0.210062	-0.474092
H128	H	0.149909	-0.190915	-0.230781
H129	H	0.670010	-0.312519	-0.376398
O130	O	1.029416	-0.805088	-0.184080
C131	C	1.064955	-0.769248	-0.148605
H132	H	1.039151	-0.730355	-0.146401
H133	H	1.112751	-0.763381	-0.171714
C134	C	1.105758	-0.838329	-0.084324
C135	C	1.074063	-0.790562	-0.081612
H136	H	1.111380	-0.851477	-0.043000
H137	H	1.081817	-0.862476	-0.108225
H138	H	1.145585	-0.833434	-0.103583
H139	H	1.034234	-0.795459	-0.062360
H140	H	1.097998	-0.766416	-0.057705
H141	H	0.836524	-0.549854	-0.376532
O142	O	0.545673	-0.317802	-0.382781
C143	C	0.588778	-0.347357	-0.418246
H144	H	0.635610	-0.349147	-0.392443
H145	H	0.595850	-0.328269	-0.466094
C146	C	0.505529	-0.400810	-0.458900
C147	C	0.563047	-0.403012	-0.427206
H148	H	0.489657	-0.435140	-0.464430
H149	H	0.476487	-0.380897	-0.435009
H150	H	0.511430	-0.384901	-0.498770
H151	H	0.557144	-0.418915	-0.387335
H152	H	0.592088	-0.422929	-0.451092
H153	H	0.982626	-0.450687	-0.230611
O154	O	0.989240	-0.948817	-0.224343
C155	C	1.024787	-0.984604	-0.188849
H156	H	1.026965	-1.023514	-0.214643
H157	H	1.001758	-0.990453	-0.141014
C158	C	1.089107	-0.915442	-0.148174
C159	C	1.091787	-0.963231	-0.179857
H160	H	1.130435	-0.902257	-0.142624
H161	H	1.065157	-0.891331	-0.172084
H162	H	1.069914	-0.920322	-0.108314
H163	H	1.110972	-0.958348	-0.219719
H164	H	1.115741	-0.987340	-0.155953
H165	H	0.269173	-0.312450	-0.376545
O166	O	0.830094	-0.446585	-0.382855
C167	C	0.794572	-0.482411	-0.418369
H168	H	0.792406	-0.521346	-0.392589
H169	H	0.817615	-0.488178	-0.466202
C170	C	0.730229	-0.413338	-0.459036
C171	C	0.727564	-0.461158	-0.427371
H172	H	0.688897	-0.400228	-0.464592
H173	H	0.754162	-0.389201	-0.435112
H174	H	0.749435	-0.418150	-0.498893
H175	H	0.708367	-0.456344	-0.387512
H176	H	0.703627	-0.485294	-0.451288
O177	O	0.545613	-0.185648	-0.224388
C178	C	0.561771	-0.133556	-0.238242
H179	H	0.579902	-0.130979	-0.288531
H180	H	0.599912	-0.119852	-0.204510
C181	C	0.481139	-0.101813	-0.169247
C182	C	0.503403	-0.098647	-0.231014
H183	H	0.445136	-0.080279	-0.164786
H184	H	0.470254	-0.136908	-0.159911
H185	H	0.512928	-0.090394	-0.141144
H186	H	0.471617	-0.110073	-0.259116
H187	H	0.514281	-0.063554	-0.240355
O188	O	0.989180	-0.185803	-0.668414
C189	C	1.029817	-0.215562	-0.706455
H190	H	1.007573	-0.255183	-0.716284
H191	H	1.076459	-0.221310	-0.681152
C192	C	1.068571	-0.138117	-0.756842
C193	C	1.041247	-0.186780	-0.768918
H194	H	1.075625	-0.120363	-0.795371
H195	H	1.041195	-0.118068	-0.731211
H196	H	1.107437	-0.142915	-0.735754
H197	H	1.002379	-0.181981	-0.789999
H198	H	1.068617	-0.206828	-0.794554
H199	H	0.836630	-0.312254	-0.944637
H200	H	1.023023	-0.701834	-0.190444
O201	O	0.830234	-0.317605	-0.668125
C202	C	0.794682	-0.347142	-0.624989
H203	H	0.792519	-0.325739	-0.578126
H204	H	0.817698	-0.386849	-0.618011
C205	C	0.730338	-0.380971	-0.708158
C206	C	0.727676	-0.354681	-0.650601
H207	H	0.689006	-0.385623	-0.723957
H208	H	0.754291	-0.361072	-0.737220
H209	H	0.749520	-0.414057	-0.702335
H210	H	0.708502	-0.321593	-0.656426
H211	H	0.703719	-0.374574	-0.621540
O212	O	0.989249	-1.056463	-0.224482
C213	C	0.980641	-1.110516	-0.233128
H214	H	0.959943	-1.117960	-0.281661
H215	H	0.947202	-1.126094	-0.195717
C216	C	1.069793	-1.129321	-0.167942
C217	C	1.044376	-1.138464	-0.227553
H218	H	1.109106	-1.146561	-0.164500
H219	H	1.075591	-1.092904	-0.162114
H220	H	1.041921	-1.142302	-0.136772
H221	H	1.072243	-1.125477	-0.258721
H222	H	1.038584	-1.174879	-0.233386
H223	H	0.836698	-0.953141	-0.376584
O224	O	0.830388	-1.056408	-0.382965
C225	C	0.794815	-1.020621	-0.418431
H226	H	0.820584	-0.981671	-0.420633
H227	H	0.747015	-1.014875	-0.395317
C228	C	0.754065	-1.089750	-0.482719
C229	C	0.785718	-1.041911	-0.485427
H230	H	0.748451	-1.102882	-0.524044
H231	H	0.778030	-1.113860	-0.458823
H232	H	0.714236	-1.084954	-0.463454
H233	H	0.825549	-1.046708	-0.504684
H234	H	0.761760	-1.017801	-0.509327
H235	H	0.796364	-0.801036	-0.416781
O236	O	0.830364	-0.317462	-1.069158
C237	C	0.838994	-0.310266	-1.134238
H238	H	0.887587	-0.293126	-1.143252
H239	H	0.801677	-0.282429	-1.152870
C240	C	0.773507	-0.384212	-1.156912
C241	C	0.833192	-0.363165	-1.167983
H242	H	0.769926	-0.416842	-1.177728
H243	H	0.767691	-0.389060	-1.113066
H244	H	0.742416	-0.361010	-1.172439
H245	H	0.864281	-0.386363	-1.152449
H246	H	0.839014	-0.358323	-1.211827
H247	H	0.836609	-0.312363	-0.543796
O248	O	0.989172	-0.185599	-0.939676
C249	C	1.024741	-0.156076	-0.982813
H250	H	0.998959	-0.154256	-1.029656
H251	H	1.072533	-0.175211	-0.989841
C252	C	1.065527	-0.102671	-0.899627
C253	C	1.033859	-0.100432	-0.957159
H254	H	1.071155	-0.068347	-0.883802
H255	H	1.041566	-0.122562	-0.870564
H256	H	1.105351	-0.118619	-0.905492
H257	H	0.994033	-0.084490	-0.951291
H258	H	1.057813	-0.080536	-0.986220
H259	H	0.982819	-0.190863	-1.064008
