data_functionalizedCrystal
_audit_creation_method	'MofGen! by Chris Wilmer'
_symmetry_space_group_name_H-M	'P1'
_symmetry_Int_Tables_number	1
_symmetry_cell_setting	triclinic
loop_
_symmetry_equiv_pos_as_xyz
  x,y,z
_cell_length_a	14.908520
_cell_length_b	18.215407
_cell_length_c	18.215399
_cell_angle_alpha	89.982223
_cell_angle_beta	86.730636
_cell_angle_gamma	86.683764
loop_
_atom_site_label
_atom_site_type_symbol
_atom_site_fract_x
_atom_site_fract_y
_atom_site_fract_z
Zn1	Zn	-0.359273	-1.108172	0.432983
Zn2	Zn	-0.510141	-1.100984	0.317016
Zn3	Zn	-0.359290	-0.985104	0.309935
Zn4	Zn	-0.510078	-0.977977	0.440043
O5	O	-0.434695	-1.043059	0.374994
O6	O	-0.379305	-1.210202	0.417608
O7	O	-0.490164	-1.085587	0.213094
O8	O	-0.233043	-1.007420	0.320340
O9	O	-0.490147	-1.204921	0.332408
O10	O	-0.233031	-1.097838	0.410742
O11	O	-0.379334	-1.000450	0.207892
O12	O	-0.379273	-0.881175	0.327186
O13	O	-0.490040	-0.995273	0.542089
O14	O	-0.490057	-0.875939	0.422775
O15	O	-0.379244	-1.090927	0.536902
O16	O	-0.636377	-1.078676	0.339254
O17	O	-0.636331	-0.988303	0.429641
C18	C	-0.434660	-0.851855	0.374979
C19	C	-0.434667	-0.770055	0.374990
C20	C	-0.377063	-0.584605	0.419432
C21	C	-0.377068	-0.507746	0.419434
C22	C	-0.492314	-0.502266	0.330562
C23	C	-0.492304	-0.579124	0.330556
C24	C	-0.434680	-0.620291	0.374996
C25	C	-0.434695	-0.466575	0.375003
C26	C	-0.434700	-0.383241	0.375005
C27	C	-0.434673	-0.703631	0.374993
C28	C	-0.669088	-1.031956	0.385998
C29	C	-0.769362	-1.027273	0.390730
C30	C	-0.957775	-1.112676	0.305578
C31	C	-1.051991	-1.108279	0.310022
C32	C	-1.052013	-1.014086	0.404065
C33	C	-0.957797	-1.018483	0.399621
C34	C	-0.910681	-1.067779	0.350375
C35	C	-0.816463	-1.072172	0.345928
C36	C	-0.816486	-0.977983	0.439974
C37	C	-0.910703	-0.973586	0.444418
C38	C	-0.199388	-1.054226	0.363964
C39	C	-0.099114	-1.058984	0.359263
C40	C	-0.434633	-1.043107	0.566944
C41	C	-0.434607	-1.043127	0.648742
C42	C	-0.434722	-0.235011	0.375009
C43	C	-0.434708	-0.316810	0.375009
C44	C	-0.434692	-1.043057	0.183788
C45	C	-0.434465	-1.043191	0.101979
C46	C	-0.376861	-1.092954	0.834234
C47	C	-0.376835	-1.092964	0.911092
C48	C	-0.492213	-0.993360	0.916482
C49	C	-0.492234	-0.993347	0.839625
C50	C	-0.434559	-1.043148	0.798504
C51	C	-0.434512	-1.043171	0.952217
C52	C	-0.434484	-1.043181	1.035550
C53	C	-0.434586	-1.043137	0.715166
H54	H	-0.539224	-0.608180	0.294367
H55	H	-0.778102	-1.112309	0.305828
H56	H	-0.919412	-1.152810	0.265475
H57	H	-1.090332	-1.144840	0.273545
H58	H	-0.330138	-0.618122	0.455615
H59	H	-0.539218	-0.952783	0.810533
H60	H	-0.330148	-0.478694	0.455618
H61	H	-1.090391	-0.973956	0.444163
C62	C	-0.645025	-0.471378	0.301686
C63	C	-0.555662	-0.457013	0.281722
H64	H	-0.684133	-0.443444	0.271532
H65	H	-0.658296	-0.458172	0.351734
H66	H	-0.653251	-0.522262	0.295319
H67	H	-0.547434	-0.406130	0.288094
H68	H	-0.542386	-0.470214	0.231662
C69	C	-1.055140	-0.925018	0.492984
C70	C	-0.962498	-0.919398	0.498543
H71	H	-1.087113	-0.891558	0.526396
H72	H	-1.070518	-0.973733	0.504534
H73	H	-1.070620	-0.913560	0.444254
H74	H	-0.947017	-0.930861	0.547273
H75	H	-0.947113	-0.870672	0.486999
H76	H	-0.778132	-0.941423	0.476449
C77	C	-0.262805	-1.191402	0.836628
C78	C	-0.313458	-1.147687	0.789032
H79	H	-0.223657	-1.225188	0.808722
H80	H	-0.302106	-1.217694	0.868448
H81	H	-0.228290	-1.160969	0.864986
H82	H	-0.347978	-1.178120	0.760678
H83	H	-0.274152	-1.121394	0.757199
H84	H	-0.329850	-1.133520	0.940180
H85	H	-0.539171	-0.952815	0.949972
