data_functionalizedCrystal
_audit_creation_method	'MofGen! by Chris Wilmer'
_symmetry_space_group_name_H-M	'P1'
_symmetry_Int_Tables_number	1
_symmetry_cell_setting	triclinic
loop_
_symmetry_equiv_pos_as_xyz
  x,y,z
_cell_length_a	23.532407
_cell_length_b	15.944551
_cell_length_c	15.021413
_cell_angle_alpha	89.996935
_cell_angle_beta	89.995415
_cell_angle_gamma	96.826258
loop_
_atom_site_label
_atom_site_type_symbol
_atom_site_fract_x
_atom_site_fract_y
_atom_site_fract_z
O1	O	0.755658	-0.101954	-0.073978
O2	O	1.255658	0.398046	0.426022
O3	O	0.589851	-0.116707	-0.073992
O4	O	1.089851	0.383293	0.426008
O5	O	0.677282	0.012982	-0.073977
O6	O	1.177282	0.512982	0.426023
O7	O	0.668227	-0.231643	-0.073993
O8	O	1.168227	0.268357	0.426007
O9	O	0.677268	0.012964	0.074088
O10	O	1.177268	0.512964	0.574088
O11	O	0.589837	-0.116726	0.074072
O12	O	1.089837	0.383274	0.574072
O13	O	0.755644	-0.101972	0.074086
O14	O	1.255644	0.398028	0.574086
Zn15	Zn	0.672738	-0.109352	0.097588
Zn16	Zn	1.172738	0.390648	0.597588
Zn17	Zn	0.672757	-0.109328	-0.097493
Zn18	Zn	1.172757	0.390672	0.402507
O19	O	0.668213	-0.231662	0.074071
O20	O	1.168213	0.268338	0.574071
C21	C	0.568627	-0.116341	0.000038
C22	C	1.068627	0.383659	0.500038
C23	C	0.505406	-0.115211	0.000033
C24	C	1.005406	0.384789	0.500033
C25	C	0.238923	-0.033805	0.000063
C26	C	0.738923	0.466195	0.500063
C27	C	0.298327	-0.034855	0.000062
C28	C	0.798327	0.465145	0.500062
O29	O	0.334821	0.029724	0.000098
O30	O	0.834821	0.529724	0.500098
N31	N	0.321252	-0.111955	0.000051
N32	N	0.821252	0.388045	0.500051
C33	C	0.284769	-0.188011	0.000049
C34	C	0.784769	0.311989	0.500049
O35	O	0.309723	-0.253688	0.000040
O36	O	0.809723	0.246312	0.500040
C37	C	0.225366	-0.186961	0.000056
C38	C	0.725366	0.313039	0.500056
C39	C	0.202444	-0.109856	0.000058
C40	C	0.702444	0.390144	0.500058
C41	C	0.216001	0.043294	0.000066
C42	C	0.716001	0.543294	0.500066
C43	C	0.156601	0.044343	0.000065
C44	C	0.656601	0.544343	0.500065
C45	C	0.120122	-0.031708	0.000060
C46	C	0.620122	0.468292	0.500060
C47	C	0.143044	-0.108807	0.000057
C48	C	0.643044	0.391193	0.500057
C49	C	0.188884	-0.263016	0.000060
C50	C	0.688884	0.236984	0.500060
C51	C	0.129477	-0.261959	0.000068
C52	C	0.629477	0.238041	0.500068
C53	C	0.106556	-0.184854	0.000070
C54	C	0.606556	0.315146	0.500070
C55	C	0.047166	-0.183808	0.000051
C56	C	0.547166	0.316192	0.500051
N57	N	0.024241	-0.106708	0.000062
N58	N	0.524241	0.393292	0.500062
C59	C	0.060719	-0.030657	0.000067
C60	C	0.560719	0.469343	0.500067
C61	C	0.409520	-0.190211	0.000037
C62	C	0.909520	0.309789	0.500037
C63	C	0.468922	-0.191262	0.000024
C64	C	0.968922	0.308738	0.500024
C65	C	0.482476	-0.038105	0.000039
C66	C	0.982476	0.461895	0.500039
C67	C	0.423073	-0.037055	0.000045
C68	C	0.923073	0.462945	0.500045
C69	C	0.386595	-0.113110	0.000048
C70	C	0.886595	0.386890	0.500048
C71	C	-0.064026	-0.028460	0.000063
C72	C	0.435974	0.471540	0.500063
C73	C	-0.123432	-0.027418	0.000058
C74	C	0.376568	0.472582	0.500058
C75	C	-0.136981	-0.180575	0.000048
C76	C	0.363019	0.319425	0.500048
C77	C	-0.077580	-0.181617	0.000048
C78	C	0.422420	0.318383	0.500048
C79	C	-0.041104	-0.105553	0.000059
C80	C	0.458896	0.394447	0.500059
O81	O	0.010637	-0.248352	0.000019
O82	O	0.510637	0.251648	0.500019
O83	O	0.035757	0.035008	0.000087
O84	O	0.535757	0.535008	0.500087
C85	C	0.676899	0.044264	0.000056
C86	C	1.176899	0.544264	0.500056
C87	C	0.675772	0.137501	0.000056
C88	C	1.175772	0.637501	0.500056
C89	C	0.776868	-0.102339	0.000054
C90	C	1.276868	0.397661	0.500054
C91	C	0.840090	-0.103468	0.000053
C92	C	1.340090	0.396532	0.500053
C93	C	0.668596	-0.262944	0.000037
C94	C	1.168596	0.237056	0.500037
C95	C	0.669723	-0.356180	0.000030
C96	C	1.169723	0.143820	0.500030
N97	N	0.672730	-0.109368	0.230725
N98	N	1.172730	0.390632	0.730725
C99	C	0.618885	0.351878	0.000039
C100	C	1.118885	0.851878	0.500039
C101	C	0.645295	0.413109	0.073046
C102	C	1.145295	0.913109	0.573046
C103	C	0.673733	0.308209	0.000049
C104	C	1.173733	0.808209	0.500049
C105	C	0.645321	0.413110	-0.072934
C106	C	1.145321	0.913110	0.427066
C107	C	0.671760	0.473105	0.000038
C108	C	1.171760	0.973105	0.500038
C109	C	0.700158	0.368212	0.073116
C110	C	1.200158	0.868212	0.573116
C111	C	0.700177	0.368207	-0.072929
C112	C	1.200177	0.868207	0.427071
C113	C	0.726627	0.429421	0.000096
C114	C	1.226627	0.929421	0.500096
C115	C	0.674869	0.213216	0.000056
C116	C	1.174869	0.713216	0.500056
C117	C	0.670629	0.568097	0.000038
C118	C	1.170629	1.068097	0.500038
N119	N	0.672770	-0.109305	-0.230631
N120	N	1.172770	0.390695	0.269369
C121	C	0.632296	-0.169309	0.470401
C122	C	1.132296	0.330691	0.970401
C123	C	0.683757	-0.185182	0.529739
C124	C	1.183757	0.314818	1.029739
C125	C	0.672745	-0.109347	0.412332
C126	C	1.172745	0.390653	0.912332
C127	C	0.621298	-0.093492	0.529736
C128	C	1.121298	0.406508	1.029736
C129	C	0.672754	-0.109329	0.587756
C130	C	1.172754	0.390671	1.087756
C131	C	0.724231	-0.125258	0.470363
C132	C	1.224231	0.374742	0.970363
C133	C	0.661739	-0.033535	0.470355
C134	C	1.161739	0.466465	0.970355
C135	C	0.713237	-0.049376	0.529666
C136	C	1.213237	0.450624	1.029666
C137	C	0.672738	-0.109360	0.311275
C138	C	1.172738	0.390640	0.811275
C139	C	0.672766	-0.109315	0.688811
C140	C	1.172766	0.390685	1.188811
H141	H	0.137944	0.107130	0.000070
H142	H	0.637944	0.607130	0.500070
H143	H	0.379822	-0.252148	0.000032
H144	H	0.879822	0.247852	0.500032
Cl145	Cl	0.217684	-0.359955	0.000058
Cl146	Cl	0.717684	0.140045	0.500058
H147	H	0.404415	0.025731	0.000048
H148	H	0.904415	0.525731	0.500048
H149	H	-0.142091	0.035373	0.000058
H150	H	0.357909	0.535373	0.500058
H151	H	0.622090	0.433014	0.134763
H152	H	1.122090	0.933014	0.634763
H153	H	-0.166692	-0.242493	0.000040
H154	H	0.333308	0.257507	0.500040
H155	H	0.598124	-0.220057	0.444380
H156	H	1.098124	0.279943	0.944380
H157	H	0.245696	0.105227	0.000073
H158	H	0.745696	0.605227	0.500073
H159	H	0.577786	-0.080091	0.555819
H160	H	1.077786	0.419909	1.055819
Cl161	Cl	0.735938	0.337644	0.168514
Cl162	Cl	1.235938	0.837644	0.668514
Cl163	Cl	0.083623	-0.357579	0.000074
Cl164	Cl	0.583623	0.142421	0.500074
Cl165	Cl	0.528346	0.057502	0.000044
Cl166	Cl	1.028346	0.557502	0.500044
Cl167	Cl	0.609498	0.443839	-0.168220
Cl168	Cl	1.109498	0.943839	0.331780
Cl169	Cl	-0.048764	-0.278551	0.000034
Cl170	Cl	0.451236	0.221449	0.500034
H171	H	0.747484	0.001343	0.555525
H172	H	1.247484	0.501343	1.055525
H173	H	0.772194	0.462963	0.000141
H174	H	1.272194	0.962963	0.500141
Cl175	Cl	0.735973	0.337437	-0.168222
Cl176	Cl	1.235973	0.837437	0.331778
Cl177	Cl	0.497730	-0.288198	0.000002
Cl178	Cl	0.997730	0.211802	0.500002
H179	H	-0.034333	0.033478	0.000072
H180	H	0.465667	0.533478	0.500072
H181	H	0.693074	-0.249286	0.555823
H182	H	1.193074	0.250714	1.055823
H183	H	0.767753	-0.138737	0.444393
H184	H	1.267753	0.361263	0.944393
H185	H	0.573358	0.318187	0.000108
H186	H	1.073358	0.818187	0.500108
Cl187	Cl	0.647328	0.065405	0.430048
Cl188	Cl	1.147328	0.565405	0.930048
