data_functionalizedCrystal
_audit_creation_method	'MofGen! by Chris Wilmer'
_symmetry_space_group_name_H-M	'P1'
_symmetry_Int_Tables_number	1
_symmetry_cell_setting	triclinic
loop_
_symmetry_equiv_pos_as_xyz
  x,y,z
_cell_length_a	13.339070
_cell_length_b	27.732048
_cell_length_c	11.804365
_cell_angle_alpha	101.725897
_cell_angle_beta	74.875130
_cell_angle_gamma	99.135974
loop_
_atom_site_label
_atom_site_type_symbol
_atom_site_fract_x
_atom_site_fract_y
_atom_site_fract_z
O1	O	1.359069	0.234806	-0.099120
O2	O	1.065035	0.203067	-0.099106
O3	O	1.221179	0.149799	-0.099091
O4	O	1.202924	0.288074	-0.099136
O5	O	1.180073	0.163802	0.098961
O6	O	1.023928	0.217071	0.098945
O7	O	1.317962	0.248810	0.098932
Cu8	Cu	1.167192	0.234219	0.117022
Cu9	Cu	1.215805	0.217658	-0.117197
O10	O	1.161818	0.302078	0.098916
C11	C	1.006876	0.204708	-0.000078
C12	C	0.894822	0.188727	-0.000072
C13	C	1.200242	0.138741	-0.000062
C14	C	1.199085	0.084928	-0.000052
C15	C	0.528099	0.312985	-0.000131
C16	C	0.633379	0.328001	-0.000141
C17	C	0.698745	0.293183	-0.000123
C18	C	0.658821	0.243348	-0.000097
C19	C	0.553532	0.228329	-0.000096
C20	C	0.724178	0.208528	-0.000089
C21	C	0.684254	0.158692	-0.000062
C22	C	0.578976	0.143677	-0.000061
C23	C	0.513610	0.178494	-0.000079
C24	C	0.829467	0.223546	-0.000089
C25	C	0.854900	0.138891	-0.000054
C26	C	0.749620	0.123875	-0.000045
C27	C	1.284104	-0.242187	-0.000117
C28	C	1.279824	-0.444438	-0.000134
O29	O	1.357567	-0.464995	-0.000189
N30	N	1.187234	-0.476310	-0.000128
C31	C	1.095709	-0.457617	-0.000126
O32	O	1.016860	-0.489368	-0.000134
C33	C	1.099992	-0.255368	-0.000118
C34	C	1.192585	-0.223497	-0.000112
C35	C	1.376690	-0.210317	-0.000112
C36	C	1.377758	-0.159757	-0.000101
C37	C	1.286239	-0.141067	-0.000096
C38	C	1.193653	-0.172937	-0.000101
C39	C	1.008469	-0.236677	-0.000125
C40	C	1.009549	-0.186111	-0.000126
C41	C	1.102143	-0.154240	-0.000120
C42	C	1.103202	-0.103688	-0.000085
N43	N	1.195792	-0.071816	-0.000091
C44	C	1.287311	-0.090505	-0.000096
C45	C	1.093466	-0.563800	-0.000128
C46	C	1.092395	-0.614362	-0.000128
C47	C	1.276511	-0.601180	-0.000137
C48	C	1.277580	-0.550616	-0.000129
C49	C	1.186057	-0.531928	-0.000134
C50	C	1.289545	0.015674	-0.000073
C51	C	1.290604	0.066238	-0.000057
C52	C	1.106490	0.053051	-0.000054
C53	C	1.105429	0.002491	-0.000063
C54	C	1.196966	-0.016196	-0.000077
O55	O	1.025503	-0.083098	-0.000043
O56	O	1.366154	-0.058749	-0.000115
C57	C	1.283036	-0.292747	-0.000128
C58	C	1.190450	-0.324617	-0.000133
C59	C	1.098931	-0.305928	-0.000128
C60	C	1.189379	-0.375179	-0.000133
C61	C	1.280897	-0.393869	-0.000138
C62	C	1.373487	-0.361997	-0.000144
C63	C	1.374555	-0.311437	-0.000133
C64	C	1.006341	-0.337800	-0.000122
C65	C	1.005281	-0.388359	-0.000131
C66	C	1.096799	-0.407049	-0.000137
C67	C	1.376122	0.247169	-0.000099
C68	C	1.488177	0.263149	-0.000113
C69	C	1.182756	0.313135	-0.000116
C70	C	1.183914	0.366948	-0.000133
N71	N	1.133007	0.245868	0.281760
N72	N	1.249998	0.206006	-0.281934
C73	C	1.332087	0.178023	0.655728
C74	C	1.357947	0.169209	0.531069
C75	C	1.301714	0.188373	0.468735
C76	C	1.219618	0.216353	0.531073
C77	C	1.193761	0.225172	0.655745
C78	C	1.163387	0.235521	0.468752
C79	C	1.081291	0.263501	0.531090
C80	C	1.055438	0.272318	0.655749
C81	C	1.111671	0.253154	0.718083
C82	C	1.189244	0.226702	0.344081
C83	C	1.050918	0.273850	0.344097
C84	C	1.025058	0.282665	0.468757
H85	H	0.861961	0.264123	-0.000105
H86	H	1.018933	-0.548590	-0.000132
O87	O	0.945382	0.309908	0.529184
C88	C	0.967364	0.357711	0.498729
H89	H	1.025049	0.356482	0.408204
H90	H	0.891991	0.370965	0.494479
H91	H	1.002826	0.384342	0.568874
H92	H	0.546476	0.103096	-0.000053
H93	H	0.717101	0.083297	-0.000033
H94	H	1.377870	0.162426	0.706488
O95	O	1.467637	-0.128767	0.000099
C96	C	1.452488	-0.091869	0.102654
H97	H	1.385047	-0.105775	0.174357
H98	H	1.526778	-0.083040	0.137069
H99	H	1.433389	-0.056956	0.079465
H100	H	1.366007	0.092186	-0.000049
O101	O	0.672344	0.376382	-0.000246
C102	C	0.779282	0.382172	-0.000233
H103	H	0.812364	0.345191	-0.037684
H104	H	0.823108	0.410833	-0.057780
H105	H	0.788848	0.395174	0.094771
H106	H	1.364085	0.000465	-0.000088
O107	O	0.996121	0.292439	0.283690
C108	C	0.889998	0.273316	0.314157
H109	H	0.871637	0.261144	0.404681
H110	H	0.838832	0.303193	0.318415
H111	H	0.873710	0.240148	0.244014
O112	O	1.326909	0.179896	0.347642
C113	C	1.355314	0.225492	0.305965
H114	H	1.381982	0.255050	0.377787
H115	H	1.421791	0.221390	0.222554
H116	H	1.285140	0.236905	0.283853
H117	H	1.090614	0.260329	0.819590
H118	H	1.424789	0.146428	0.480318
H119	H	0.935018	-0.170899	-0.000132
H120	H	0.784469	0.305412	-0.000134
H121	H	0.474872	0.341327	-0.000155
O122	O	0.411389	0.163837	-0.000233
C123	C	0.404479	0.128361	-0.102813
H124	H	0.479673	0.109879	-0.137006
H125	H	0.335503	0.099139	-0.079736
H126	H	0.392671	0.147376	-0.174645
H127	H	0.908122	0.110540	-0.000045
O128	O	1.465500	-0.228515	0.000043
C129	C	1.449114	-0.250107	0.102633
H130	H	1.361932	-0.260994	0.136828
H131	H	1.492125	-0.284498	0.079568
H132	H	1.480035	-0.222289	0.174459
H133	H	0.988598	0.295106	0.706505
H134	H	1.448004	-0.377223	-0.000143
O135	O	1.367627	-0.519732	-0.000187
C136	C	1.448159	-0.547075	-0.000159
H137	H	1.428179	-0.587698	-0.037646
H138	H	1.524789	-0.531925	-0.057666
H139	H	1.456631	-0.543712	0.094856
H140	H	0.933071	-0.262619	-0.000138
O141	O	0.917468	-0.319578	0.000045
C142	C	0.891269	-0.283492	0.102641
H143	H	0.964258	-0.267776	0.136832
H144	H	0.857835	-0.252357	0.079585
H145	H	0.830530	-0.301161	0.174466
H146	H	1.351029	-0.616405	-0.000141
O147	O	1.002465	-0.645312	-0.000333
C148	C	0.968006	-0.644199	-0.102890
H149	H	1.037049	-0.631511	-0.174582
H150	H	0.932684	-0.682870	-0.137322
H151	H	0.906423	-0.617316	-0.079698
O152	O	1.015407	-0.028406	-0.000118
C153	C	0.934854	-0.001062	-0.000077
H154	H	0.970387	0.034268	-0.037551
H155	H	0.882102	-0.024337	-0.057588
H156	H	0.886935	0.008994	0.094940
H157	H	1.031977	0.068277	-0.000046
H158	H	1.449954	-0.285492	-0.000128
O159	O	0.915345	-0.419310	-0.000348
C160	C	0.880895	-0.418191	-0.102907
H161	H	0.949941	-0.405499	-0.174589
H162	H	0.845578	-0.456861	-0.137354
H163	H	0.819309	-0.391310	-0.079712
O164	O	1.268863	0.199434	0.283628
C165	C	1.246843	0.151651	0.314202
H166	H	1.158907	0.142995	0.348465
H167	H	1.275842	0.123188	0.232264
H168	H	1.287972	0.150131	0.386596
