data_functionalizedCrystal
_audit_creation_method	'MofGen! by Chris Wilmer'
_symmetry_space_group_name_H-M	'P1'
_symmetry_Int_Tables_number	1
_symmetry_cell_setting	triclinic
loop_
_symmetry_equiv_pos_as_xyz
  x,y,z
_cell_length_a	10.654550
_cell_length_b	10.654550
_cell_length_c	9.730223
_cell_angle_alpha	90.004253
_cell_angle_beta	89.997011
_cell_angle_gamma	95.515083
loop_
_atom_site_label
_atom_site_type_symbol
_atom_site_fract_x
_atom_site_fract_y
_atom_site_fract_z
O1	O	1.667839	-0.176398	-0.114281
O2	O	1.302361	-0.193204	-0.114285
O3	O	1.493503	-0.002062	-0.114274
O4	O	1.476697	-0.367541	-0.114292
O5	O	1.493490	-0.002057	0.114306
O6	O	1.302348	-0.193199	0.114295
O7	O	1.667827	-0.176393	0.114299
Zn8	Zn	1.485085	-0.184795	0.150589
Zn9	Zn	1.485102	-0.184802	-0.150575
O10	O	1.476684	-0.367535	0.114288
C11	C	1.255556	-0.191968	0.000004
C12	C	1.116113	-0.188276	0.000002
C13	C	1.492263	0.044739	0.000015
C14	C	1.488571	0.184182	0.000013
C15	C	1.714631	-0.177630	0.000007
C16	C	1.854074	-0.181321	-0.000001
C17	C	1.933560	-0.068780	-0.000001
C18	C	2.064581	-0.072257	0.000006
C19	C	2.036617	-0.300826	0.000006
C20	C	1.905599	-0.297348	0.000010
C21	C	1.882035	0.047247	-0.000011
C22	C	1.961522	0.159798	-0.000013
C23	C	2.092543	0.156321	-0.000006
C24	C	2.144077	0.040294	0.000002
C25	C	1.477925	-0.414336	-0.000004
C26	C	1.481617	-0.553779	-0.000011
N27	N	1.485084	-0.184790	0.356125
C28	C	1.601112	0.263667	0.000014
C29	C	1.597636	0.394688	-0.000003
C30	C	1.369066	0.366725	-0.000016
C31	C	1.372544	0.235707	-0.000009
N32	N	1.485114	-0.184798	-0.356111
C33	C	1.569750	-0.100188	0.428056
C34	C	1.569763	-0.100188	0.571939
C35	C	1.400438	-0.269404	0.571948
C36	C	1.400420	-0.269396	0.428067
H37	H	1.775353	0.050090	-0.000020
H38	H	1.919554	0.254263	-0.000031
H39	H	2.157258	0.247965	0.000006
O40	O	1.828429	-0.406701	-0.000241
C41	C	1.851956	-0.477097	-0.118611
H42	H	1.896161	-0.411192	-0.201353
H43	H	1.759448	-0.526642	-0.158347
H44	H	1.919280	-0.550381	-0.091850
O45	O	1.713785	0.213556	0.000263
C46	C	1.722624	0.138594	0.118632
H47	H	1.656721	0.170148	0.201376
H48	H	1.823740	0.149481	0.158366
H49	H	1.694562	0.035538	0.091872
O50	O	1.256472	0.416987	0.000037
C51	C	1.277531	0.549672	0.000001
H52	H	1.375270	0.579586	0.043277
H53	H	1.203219	0.590542	0.066362
H54	H	1.271133	0.586182	-0.109661
O55	O	1.652132	-0.017962	0.641599
C56	C	1.726825	0.056732	0.547242
H57	H	1.728675	0.005227	0.444673
H58	H	1.826958	0.074954	0.588796
H59	H	1.685244	0.150414	0.531957
H60	H	1.331468	-0.338289	0.369497
H61	H	2.250764	0.037472	0.000020
O62	O	1.706841	0.472080	-0.000062
C63	C	1.678899	0.598771	-0.000045
H64	H	1.580212	0.604646	-0.043327
H65	H	1.750572	0.657482	-0.066410
H66	H	1.683321	0.636632	0.109612
H67	H	1.280893	0.170986	-0.000014
O68	O	1.651883	-0.018067	0.357957
C69	C	1.633669	-0.036148	0.215539
H70	H	1.587667	-0.135588	0.195858
H71	H	1.728629	-0.022962	0.160810
H72	H	1.569984	0.035481	0.174785
O73	O	2.086616	-0.413557	0.000243
C74	C	2.046073	-0.482248	0.118606
H75	H	2.018235	-0.414426	0.201358
H76	H	2.125898	-0.536370	0.158332
H77	H	1.961308	-0.551491	0.091840
O78	O	1.318155	-0.351419	0.641990
C79	C	1.240089	-0.283439	0.725221
H80	H	1.289262	-0.185628	0.746778
H81	H	1.220692	-0.335681	0.826395
H82	H	1.147190	-0.274040	0.669796
