data_functionalizedCrystal
_audit_creation_method	'MofGen! by Chris Wilmer'
_symmetry_space_group_name_H-M	'P1'
_symmetry_Int_Tables_number	1
_symmetry_cell_setting	triclinic
loop_
_symmetry_equiv_pos_as_xyz
  x,y,z
_cell_length_a	12.784905
_cell_length_b	13.339070
_cell_length_c	11.892095
_cell_angle_alpha	94.950121
_cell_angle_beta	86.511728
_cell_angle_gamma	94.368307
loop_
_atom_site_label
_atom_site_type_symbol
_atom_site_fract_x
_atom_site_fract_y
_atom_site_fract_z
O1	O	1.416902	-0.000709	-0.094010
O2	O	1.119901	0.041519	-0.094010
O3	O	1.234315	-0.123860	-0.094006
O4	O	1.302488	0.164670	-0.094013
O5	O	1.224770	-0.110091	0.094001
O6	O	1.110355	0.055288	0.093998
O7	O	1.407357	0.013060	0.093997
Zn8	Zn	1.257341	0.036361	0.123848
Zn9	Zn	1.269917	0.018219	-0.123860
O10	O	1.292942	0.178439	0.093994
C11	C	1.076339	0.051150	-0.000006
C12	C	0.960755	0.059321	-0.000006
C13	C	0.715273	-0.107166	-0.000022
C14	C	0.606671	-0.099493	-0.000022
C15	C	0.634947	0.082340	-0.000014
C16	C	0.743549	0.074666	-0.000014
C17	C	0.783707	-0.020090	-0.000016
C18	C	0.892311	-0.027761	-0.000008
C19	C	0.920586	0.154070	-0.000008
C20	C	0.811983	0.161743	-0.000008
C21	C	1.218027	-0.153652	-0.000004
C22	C	1.183702	-0.262934	-0.000009
C23	C	1.450598	-0.651205	-0.000009
C24	C	1.482851	-0.548528	0.000002
C25	C	1.408066	-0.477125	-0.000001
C26	C	1.301023	-0.508408	-0.000014
C27	C	1.268766	-0.611093	-0.000016
C28	C	1.226235	-0.437014	-0.000008
C29	C	1.119192	-0.468297	-0.000021
C30	C	1.086940	-0.570973	-0.000024
C31	C	1.161725	-0.642376	-0.000021
C32	C	1.258492	-0.334328	-0.000007
C33	C	1.076660	-0.294217	-0.000014
C34	C	1.044407	-0.396893	-0.000024
C35	C	1.450919	0.003429	-0.000009
C36	C	1.566503	-0.004743	-0.000016
C37	C	1.309231	0.208231	-0.000011
C38	C	1.343556	0.317513	-0.000013
N39	N	1.248765	0.048741	0.292902
N40	N	1.278499	0.005830	-0.292914
C41	C	1.338156	-0.080373	0.529552
C42	C	1.332171	-0.071713	0.647894
C43	C	1.230805	0.074716	0.647929
C44	C	1.236790	0.066056	0.529587
C45	C	1.290468	-0.011490	0.470403
C46	C	1.296459	-0.020146	0.352059
C47	C	1.195087	0.126279	0.352096
C48	C	1.189102	0.134939	0.470438
H49	H	0.602231	0.159484	-0.000027
C50	C	1.089499	0.278802	0.458585
C51	C	1.130094	0.220171	0.535498
H52	H	1.053064	0.331417	0.498752
H53	H	1.145424	0.307123	0.412425
H54	H	1.042462	0.237627	0.412429
H55	H	1.177137	0.261344	0.581649
H56	H	1.074162	0.191849	0.581678
C57	C	1.218918	0.252711	0.219029
C58	C	1.142669	0.202007	0.287079
H59	H	1.186559	0.299460	0.178888
H60	H	1.270163	0.287776	0.265193
H61	H	1.251731	0.205281	0.166843
H62	H	1.109861	0.249437	0.339271
H63	H	1.091405	0.166941	0.240912
H64	H	0.550954	-0.170400	-0.000029
C65	C	0.658058	0.254244	0.000003
C66	C	0.767834	0.265895	0.000003
H67	H	0.630806	0.318547	0.000020
H68	H	0.637789	0.213361	-0.065561
H69	H	0.631131	0.222938	0.065564
H70	H	0.794761	0.297195	-0.065563
H71	H	0.788113	0.306794	0.065573
H72	H	0.976317	0.224974	0.000002
H73	H	1.381872	-0.143509	0.481363
H74	H	1.345647	-0.308869	0.000004
C75	C	1.396041	-0.164021	0.363915
C76	C	1.355455	-0.105386	0.287000
H77	H	1.432455	-0.216651	0.323750
H78	H	1.443083	-0.122861	0.410060
H79	H	1.340103	-0.192332	0.410086
H80	H	1.411394	-0.077070	0.240834
H81	H	1.308410	-0.146553	0.240836
C82	C	1.089376	0.118160	0.781062
C83	C	1.171801	0.159941	0.713007
H84	H	1.052955	0.170775	0.821245
H85	H	1.042341	0.077012	0.734897
H86	H	1.116939	0.078368	0.833211
H87	H	1.144237	0.199727	0.660852
H88	H	1.218843	0.201106	0.759177
H89	H	1.371001	-0.127805	0.696050
H90	H	1.135470	-0.725986	-0.000033
C91	C	0.993123	-0.134816	0.096634
C92	C	0.936455	-0.131915	-0.000014
H93	H	1.020366	-0.199122	0.096629
H94	H	1.049422	-0.084065	0.096632
H95	H	0.948004	-0.123246	0.162189
H96	H	0.981577	-0.143478	-0.065569
H97	H	0.880149	-0.182682	-0.000022
C98	C	0.676419	-0.286129	-0.000029
C99	C	0.759423	-0.211317	-0.000026
H100	H	0.703678	-0.350428	-0.000040
H101	H	0.631325	-0.274558	0.065531
H102	H	0.637974	-0.284147	-0.065594
H103	H	0.797864	-0.213294	0.065543
H104	H	0.804536	-0.222892	-0.065593
H105	H	1.434333	-0.393523	0.000008
H106	H	1.570005	-0.523066	0.000014
H107	H	0.999779	-0.596438	-0.000026
H108	H	0.957251	-0.422379	-0.000034
C109	C	0.936505	-0.235495	-0.096666
C110	C	0.994444	-0.215743	-0.000020
H111	H	0.885749	-0.187048	-0.096662
H112	H	0.982476	-0.231704	-0.162215
H113	H	0.901983	-0.301127	-0.096654
H114	H	1.028973	-0.150114	-0.000037
H115	H	0.948466	-0.219525	0.065546
H116	H	1.511475	-0.709348	0.000003
