data_functionalizedCrystal
_audit_creation_method	'MofGen! by Chris Wilmer'
_symmetry_space_group_name_H-M	'P1'
_symmetry_Int_Tables_number	1
_symmetry_cell_setting	triclinic
loop_
_symmetry_equiv_pos_as_xyz
  x,y,z
_cell_length_a	15.297475
_cell_length_b	18.215405
_cell_length_c	18.215399
_cell_angle_alpha	89.969449
_cell_angle_beta	99.684492
_cell_angle_gamma	99.673149
loop_
_atom_site_label
_atom_site_type_symbol
_atom_site_fract_x
_atom_site_fract_y
_atom_site_fract_z
Zn1	Zn	1.379205	0.487998	0.610456
Zn2	Zn	1.379093	0.611053	0.487369
Zn3	Zn	1.228339	0.466690	0.466144
Zn4	Zn	1.228297	0.589690	0.589144
O5	O	1.303733	0.538858	0.538278
O6	O	1.505437	0.522179	0.611930
O7	O	1.359065	0.591926	0.381565
O8	O	1.248416	0.366541	0.485324
O9	O	1.505354	0.612588	0.521498
O10	O	1.359257	0.382196	0.591350
O11	O	1.248307	0.485863	0.365971
O12	O	1.102087	0.465148	0.464658
O13	O	1.248345	0.576178	0.694959
O14	O	1.102056	0.555516	0.555026
O15	O	1.359216	0.501465	0.710618
O16	O	1.359025	0.711195	0.500833
O17	O	1.248236	0.695499	0.575606
C18	C	1.069337	0.505703	0.505227
C19	C	0.969061	0.491536	0.491104
C20	C	1.303638	0.730051	0.538229
C21	C	1.303680	0.811856	0.538245
C22	C	1.303788	0.538815	0.730239
C23	C	1.303812	0.538797	0.812041
C24	C	0.686437	0.640112	0.639213
C25	C	0.780651	0.653427	0.652480
C26	C	0.827758	0.612956	0.612137
C27	C	0.780642	0.559166	0.558526
C28	C	0.686419	0.545854	0.545254
C29	C	0.827740	0.518697	0.518178
C30	C	0.780624	0.464908	0.464566
C31	C	0.686410	0.451598	0.451297
C32	C	0.639303	0.492069	0.491640
C33	C	0.921963	0.532010	0.531450
C34	C	0.921945	0.437752	0.437490
C35	C	0.827731	0.424436	0.424224
C36	C	1.539045	0.572143	0.571459
C37	C	1.639321	0.586328	0.585599
C38	C	1.303854	0.346922	0.538347
C39	C	1.303905	0.265130	0.538376
C40	C	1.361503	1.008217	0.499416
C41	C	1.361544	1.085081	0.499439
C42	C	1.246079	1.068763	0.577210
C43	C	1.246044	0.991901	0.577190
C44	C	1.303755	0.961630	0.538289
C45	C	1.303830	1.115356	0.538332
C46	C	1.303874	1.198696	0.538358
C47	C	1.303713	0.878285	0.538264
C48	C	1.303731	0.538855	0.347072
C49	C	1.303882	0.538691	0.265294
C50	C	1.361563	0.499853	1.008393
C51	C	1.361574	0.499833	1.085253
C52	C	1.246124	0.577636	1.068937
C53	C	1.246110	0.577651	0.992077
C54	C	1.303834	0.538761	0.961808
C55	C	1.303860	0.538726	1.115528
C56	C	1.303871	0.538705	1.198863
C57	C	1.303822	0.538781	0.878467
H58	H	0.960316	0.575805	0.575101
O59	O	0.640538	0.679334	0.678351
C60	C	0.495391	0.700631	0.699504
C61	C	0.547259	0.656142	0.655136
H62	H	0.419965	0.681908	0.680740
H63	H	0.513878	0.690400	0.761491
H64	H	0.513941	0.762568	0.689090
H65	H	0.528736	0.594192	0.665488
H66	H	0.528767	0.666436	0.593164
O67	O	0.919277	0.625956	0.625141
C68	C	1.054491	0.696810	0.695707
C69	C	0.950843	0.682150	0.681062
H70	H	1.080044	0.742254	0.740908
H71	H	1.080148	0.643486	0.714744
H72	H	1.080015	0.715576	0.642264
H73	H	0.925243	0.663405	0.734476
H74	H	0.925247	0.735489	0.661992
O75	O	0.826277	0.705676	0.704604
C76	C	0.816346	0.797796	0.796364
C77	C	0.764562	0.738630	0.737363
H78	H	0.766472	0.824467	0.822855
H79	H	0.860467	0.770330	0.841171
H80	H	0.860447	0.842431	0.768703
H81	H	0.720412	0.693978	0.764958
H82	H	0.720497	0.766149	0.692562
O83	O	1.417565	0.462046	1.130606
C84	C	1.468783	0.427564	1.256246
C85	C	1.405314	0.470379	1.204967
H86	H	1.458913	0.434298	1.316379
H87	H	1.452968	0.365975	1.238971
H88	H	1.541510	0.450766	1.251350
H89	H	1.332566	0.447240	1.209837
H90	H	1.421207	0.531963	1.222257
O91	O	1.190188	0.615513	1.098395
C92	C	1.178010	0.713101	1.183454
C93	C	1.241460	0.670276	1.150142
H94	H	1.219437	0.757376	1.225310
H95	H	1.136760	0.740968	1.136990
H96	H	1.130847	0.672620	1.212762
H97	H	1.288677	0.710707	1.120840
H98	H	1.282647	0.642397	1.196637
H99	H	1.199018	0.953967	0.608849
O100	O	1.417721	0.462187	0.978966
C101	C	1.539473	0.469511	0.909334
C102	C	1.475948	0.512265	0.942635
H103	H	1.586553	0.509977	0.879940
H104	H	1.580799	0.441717	0.955810
H105	H	1.498043	0.425167	0.867553
H106	H	1.517308	0.556643	0.984408
H107	H	1.434619	0.540007	0.896120
O108	O	1.190126	0.615570	0.946866
C109	C	1.146220	0.734546	0.917142
C110	C	1.209690	0.691703	0.968386
H111	H	1.162002	0.796104	0.934532
H112	H	1.156128	0.727937	0.857001
H113	H	1.073490	0.711296	0.921987
H114	H	1.282444	0.714924	0.963606
H115	H	1.199703	0.698310	1.028505
O116	O	0.547781	0.479027	0.478820
C117	C	0.412595	0.389408	0.478781
C118	C	0.516243	0.404072	0.493339
H119	H	0.387065	0.328804	0.490499
H120	H	0.386989	0.427528	0.516848
H121	H	0.386997	0.401031	0.418160
H122	H	0.541917	0.392441	0.553941
H123	H	0.541788	0.365959	0.455225
H124	H	0.648051	0.407806	0.407636
H125	H	0.960300	0.404797	0.404639
O126	O	0.781819	0.372241	0.372147
C127	C	0.636659	0.309935	0.310097
C128	C	0.688542	0.369078	0.369083
H129	H	0.561236	0.307347	0.307612
H130	H	0.655077	0.325385	0.253309
H131	H	0.655264	0.253246	0.325740
H132	H	0.669965	0.425788	0.353510
H133	H	0.670120	0.353564	0.425855
O134	O	1.417661	1.130452	0.461790
C135	C	1.468975	1.256105	0.427432
C136	C	1.405354	1.204805	0.470083
H137	H	1.459034	1.316228	0.434108
H138	H	1.541698	1.251238	0.450714
H139	H	1.453247	1.238812	0.365846
H140	H	1.421000	1.222064	0.531674
H141	H	1.332650	1.209678	0.446740
H142	H	1.408496	0.983572	0.467741
H143	H	1.199092	1.093420	0.608881
