data_functionalizedCrystal
_audit_creation_method	'MofGen! by Chris Wilmer'
_symmetry_space_group_name_H-M	'P1'
_symmetry_Int_Tables_number	1
_symmetry_cell_setting	triclinic
loop_
_symmetry_equiv_pos_as_xyz
  x,y,z
_cell_length_a	14.908932
_cell_length_b	18.215407
_cell_length_c	18.215399
_cell_angle_alpha	89.980167
_cell_angle_beta	93.314574
_cell_angle_gamma	86.699847
loop_
_atom_site_label
_atom_site_type_symbol
_atom_site_fract_x
_atom_site_fract_y
_atom_site_fract_z
Zn1	Zn	0.359158	1.108273	-0.399257
Zn2	Zn	0.859158	1.608273	0.100743
Zn3	Zn	0.510027	1.101125	-0.269108
Zn4	Zn	1.010027	1.601125	0.230892
Zn5	Zn	0.359187	0.985204	-0.276203
Zn6	Zn	0.859187	1.485204	0.223797
Zn7	Zn	0.509977	0.978117	-0.392136
Zn8	Zn	1.009977	1.478117	0.107864
O9	O	0.434587	1.043180	-0.334176
O10	O	0.934587	1.543180	0.165824
O11	O	0.379180	1.210309	-0.382003
O12	O	0.879180	1.710309	0.117997
O13	O	0.490051	1.085722	-0.167064
O14	O	0.990051	1.585722	0.332936
O15	O	0.232939	1.007487	-0.298475
O16	O	0.732939	1.507487	0.201525
O17	O	0.490022	1.205057	-0.286384
O18	O	0.990022	1.705057	0.213616
O19	O	0.232917	1.097905	-0.388882
O20	O	0.732917	1.597905	0.111118
O21	O	0.379230	1.000556	-0.172276
O22	O	0.879230	1.500556	0.327724
O23	O	0.379181	0.881280	-0.291570
O24	O	0.879181	1.381280	0.208430
O25	O	0.489937	0.995408	-0.496066
O26	O	0.989937	1.495408	0.003934
O27	O	0.489965	0.876074	-0.376746
O28	O	0.989965	1.376074	0.123254
O29	O	0.379131	1.091033	-0.501298
O30	O	0.879131	1.591033	-0.001298
O31	O	0.636265	1.078850	-0.279479
O32	O	1.136265	1.578850	0.220521
O33	O	0.636228	0.988477	-0.369867
O34	O	1.136228	1.488477	0.130133
C35	C	0.434572	0.851974	-0.334155
C36	C	0.934572	1.351974	0.165845
C37	C	0.434587	0.770175	-0.334163
C38	C	0.934587	1.270175	0.165837
C39	C	0.199279	1.054284	-0.345264
C40	C	0.699279	1.554284	0.154736
C41	C	0.099004	1.059016	-0.349990
C42	C	0.599004	1.559016	0.150010
C43	C	0.492363	0.579285	-0.378451
C44	C	0.992363	1.079285	0.121549
C45	C	0.492366	0.502426	-0.378460
C46	C	0.992366	1.002426	0.121540
C47	C	0.376828	0.507826	-0.289916
C48	C	0.876828	1.007826	0.210084
C49	C	0.376821	0.584684	-0.289912
C50	C	0.876821	1.084684	0.210088
C51	C	0.434594	0.620411	-0.334178
C52	C	0.934594	1.120411	0.165822
C53	C	0.434603	0.466694	-0.334191
C54	C	0.934603	0.966694	0.165809
C55	C	0.434606	0.383361	-0.334201
C56	C	0.934606	0.883361	0.165799
C57	C	0.434590	0.703750	-0.334169
C58	C	0.934590	1.203750	0.165831
C59	C	-0.089401	0.973738	-0.264730
C60	C	0.410599	1.473738	0.235270
C61	C	-0.183618	0.978182	-0.269167
C62	C	0.316382	1.478182	0.230833
C63	C	-0.183648	1.072342	-0.363305
C64	C	0.316352	1.572342	0.136695
C65	C	-0.089431	1.067899	-0.358868
C66	C	0.410569	1.567899	0.141132
C67	C	-0.042311	1.018596	-0.309578
C68	C	0.457689	1.518596	0.190422
C69	C	0.051907	1.014157	-0.305137
C70	C	0.551907	1.514157	0.194863
C71	C	0.051876	1.108313	-0.399278
C72	C	0.551876	1.608313	0.100722
C73	C	-0.042341	1.112757	-0.403716
C74	C	0.457659	1.612757	0.096284
C75	C	0.668981	1.032139	-0.323146
C76	C	1.168981	1.532139	0.176854
C77	C	0.769255	1.027483	-0.318453
C78	C	1.269255	1.527483	0.181547
C79	C	0.434525	1.043228	-0.526132
C80	C	0.934525	1.543228	-0.026132
C81	C	0.434499	1.043248	-0.607932
C82	C	0.934499	1.543248	-0.107932
C83	C	0.434603	1.235132	-0.334197
C84	C	0.934603	1.735132	0.165803
C85	C	0.434610	1.316931	-0.334206
C86	C	0.934610	1.816931	0.165794
C87	C	0.376748	1.093059	-0.798854
C88	C	0.876748	1.593059	-0.298854
C89	C	0.376722	1.093069	-0.875714
C90	C	0.876722	1.593069	-0.375714
C91	C	0.492110	0.993495	-0.870254
C92	C	0.992110	1.493495	-0.370254
C93	C	0.492131	0.993482	-0.793396
C94	C	0.992131	1.493482	-0.293396
C95	C	0.434451	1.043269	-0.757698
C96	C	0.934451	1.543269	-0.257698
C97	C	0.434404	1.043291	-0.911416
C98	C	0.934404	1.543291	-0.411416
C99	C	0.434376	1.043302	-0.994751
C100	C	0.934376	1.543302	-0.494751
C101	C	0.434478	1.043257	-0.674357
C102	C	0.934478	1.543257	-0.174357
C103	C	0.434584	1.043178	-0.142970
C104	C	0.934584	1.543178	0.357030
C105	C	0.434356	1.043312	-0.061182
C106	C	0.934356	1.543312	0.438818
H107	H	0.539406	0.468944	-0.414513
H108	H	1.039406	0.968944	0.085487
H109	H	0.329779	1.133597	-0.769791
H110	H	0.829779	1.633597	-0.269791
N111	N	0.314532	0.469294	-0.242161
N112	N	0.814532	0.969294	0.257839
H113	H	0.328471	0.482002	-0.188908
H114	H	0.828471	0.982002	0.311092
H115	H	0.250113	0.485723	-0.256763
H116	H	0.750113	0.985723	0.243237
H117	H	0.329732	1.133613	-0.909220
H118	H	0.829732	1.633613	-0.409220
N119	N	0.314499	0.629049	-0.242168
N120	N	0.814499	1.129049	0.257832
H121	H	0.277903	0.594755	-0.214124
H122	H	0.777903	1.094755	0.285876
H123	H	0.351158	0.659203	-0.206335
H124	H	0.851158	1.159203	0.293665
N125	N	-0.038577	0.920571	-0.211563
N126	N	0.461423	1.420571	0.288437
H127	H	0.000505	0.884630	-0.239623
H128	H	0.500505	1.384630	0.260377
H129	H	0.000472	0.948687	-0.175636
H130	H	0.500472	1.448687	0.324364
N131	N	0.102665	1.156704	-0.447649
N132	N	0.602665	1.656704	0.052351
H133	H	0.169501	1.146412	-0.437359
H134	H	0.669501	1.646412	0.062641
H135	H	0.086181	1.146046	-0.500986
H136	H	0.586181	1.646046	-0.000986
N137	N	-0.234411	0.929800	-0.220797
N138	N	0.265589	1.429800	0.279203
H139	H	-0.190260	0.897894	-0.188901
H140	H	0.309740	1.397894	0.311099
H141	H	-0.273487	0.961590	-0.188582
H142	H	0.226513	1.461590	0.311418
N143	N	0.554305	0.939789	-0.908759
N144	N	1.054305	1.439789	-0.408759
H145	H	0.545534	0.947349	-0.963694
H146	H	1.045534	1.447349	-0.463694
H147	H	0.618745	0.948190	-0.892293
H148	H	1.118745	1.448190	-0.392293
H149	H	0.090271	0.974013	-0.265001
H150	H	0.590271	1.474013	0.234999
H151	H	0.539119	0.952932	-0.759886
H152	H	1.039119	1.452932	-0.259886
N153	N	-0.234470	1.125518	-0.416466
N154	N	0.265530	1.625518	0.083534
H155	H	-0.218088	1.113330	-0.468275
H156	H	0.281912	1.613330	0.031725
H157	H	-0.301286	1.121502	-0.412413
H158	H	0.198714	1.621502	0.087587
N159	N	0.554671	0.617821	-0.426193
N160	N	1.054671	1.117821	0.073807
H161	H	0.591266	0.580102	-0.454241
H162	H	1.091266	1.080102	0.045759
H163	H	0.517998	0.651451	-0.462021
H164	H	1.017998	1.151451	0.037979
N165	N	-0.093165	1.165925	-0.456882
N166	N	0.406835	1.665925	0.043118
H167	H	-0.159997	1.161932	-0.452890
H168	H	0.340003	1.661932	0.047110
H169	H	-0.076694	1.217705	-0.444655
H170	H	0.423306	1.717705	0.055345
