data_functionalizedCrystal
_audit_creation_method	'MofGen! by Chris Wilmer'
_symmetry_space_group_name_H-M	'P1'
_symmetry_Int_Tables_number	1
_symmetry_cell_setting	triclinic
loop_
_symmetry_equiv_pos_as_xyz
  x,y,z
_cell_length_a	19.288864
_cell_length_b	14.519709
_cell_length_c	17.766277
_cell_angle_alpha	89.992699
_cell_angle_beta	89.976791
_cell_angle_gamma	83.408195
loop_
_atom_site_label
_atom_site_type_symbol
_atom_site_fract_x
_atom_site_fract_y
_atom_site_fract_z
O1	O	0.921767	0.115045	-0.062837
O2	O	0.719562	0.130564	-0.062786
O3	O	0.826026	-0.011468	-0.062806
O4	O	0.815304	0.257077	-0.062817
O5	O	0.826007	-0.011475	0.062382
O6	O	0.719544	0.130557	0.062402
O7	O	0.921748	0.115038	0.062351
Cu8	Cu	0.820644	0.122797	0.073808
Cu9	Cu	0.820666	0.122805	-0.074242
O10	O	0.815285	0.257070	0.062371
C11	C	0.693675	0.130061	-0.000185
C12	C	0.616566	0.128562	-0.000165
C13	C	0.825517	-0.045828	-0.000212
C14	C	0.824019	-0.148200	-0.000211
C15	C	0.572169	0.211900	-0.000181
C16	C	0.499717	0.210492	-0.000189
C17	C	0.471665	0.125741	-0.000197
C18	C	0.516071	0.042392	-0.000178
C19	C	0.588521	0.043803	-0.000162
C20	C	0.363169	0.059120	-0.044079
C21	C	0.290720	0.057713	-0.044099
C22	C	0.248203	0.121387	-0.000242
C23	C	0.278144	0.186483	0.043625
C24	C	0.350594	0.187894	0.043641
C25	C	0.393105	0.124202	-0.000214
C26	C	0.125246	0.203203	-0.000265
C27	C	0.052792	0.201792	-0.000269
C28	C	0.069148	0.033689	-0.000265
C29	C	0.141599	0.035103	-0.000254
C30	C	0.169644	0.119863	-0.000258
C31	C	0.818507	-0.523061	-0.000229
C32	C	0.820037	-0.418762	-0.000224
C33	C	0.821263	-0.335633	-0.000219
C34	C	0.822794	-0.231329	-0.000215
C35	C	0.947636	0.115541	-0.000251
C36	C	1.024745	0.117040	-0.000276
C37	C	0.815794	0.291430	-0.000225
C38	C	0.817291	0.393802	-0.000230
N39	N	0.820634	0.122790	0.177938
N40	N	0.820682	0.122805	-0.178373
C41	C	0.867791	0.059929	0.217316
C42	C	0.867795	0.059925	0.296118
C43	C	0.820648	0.122798	0.335538
C44	C	0.773482	0.185664	0.296151
C45	C	0.773475	0.185660	0.217351
C46	C	0.811652	0.206826	0.460375
C47	C	0.811664	0.206831	0.539173
C48	C	0.820667	0.122809	0.578585
C49	C	0.829672	0.038778	0.539188
C50	C	0.829665	0.038775	0.460387
C51	C	0.820651	0.122808	0.420984
C52	C	0.867831	0.059938	0.703409
C53	C	0.867830	0.059932	0.782212
C54	C	0.773521	0.185679	0.782244
C55	C	0.773518	0.185676	0.703442
C56	C	0.820677	0.122807	0.664029
H57	H	0.594998	0.280918	-0.000185
N58	N	0.722607	0.253465	0.174880
H59	H	0.730683	0.318894	0.188581
H60	H	0.729781	0.243846	0.118992
N61	N	0.722629	0.253471	0.338668
H62	H	0.749220	0.294220	0.371340
H63	H	0.692763	0.293231	0.301715
H64	H	0.463563	0.278358	-0.000199
N65	N	0.839374	-0.051851	0.417896
H66	H	0.882365	-0.054009	0.385181
H67	H	0.845050	-0.105027	0.454864
N68	N	0.722665	0.253493	0.660967
H69	H	0.729815	0.243951	0.605066
H70	H	0.673381	0.243009	0.674768
N71	N	0.258432	-0.012499	-0.091408
H72	H	0.206084	-0.003729	-0.084767
H73	H	0.270290	-0.003634	-0.146112
N74	N	0.918651	-0.007880	0.174806
H75	H	0.948525	-0.047704	0.211715
H76	H	0.892009	-0.048565	0.142134
H77	H	0.016645	0.269658	-0.000277
N78	N	0.038904	-0.057725	-0.000276
H79	H	0.055063	-0.094225	0.046136
H80	H	-0.013725	-0.045899	-0.000315
N81	N	0.189490	-0.054783	-0.000238
H82	H	0.160727	-0.108688	-0.000243
H83	H	0.219933	-0.057859	-0.046639
H84	H	0.804309	0.275251	0.428292
N85	N	0.382890	0.258095	0.090954
H86	H	0.344967	0.298221	0.118737
H87	H	0.416230	0.224737	0.128421
H88	H	0.148080	0.272220	-0.000257
N89	N	0.839402	-0.051852	0.581685
H90	H	0.845113	-0.105080	0.544771
H91	H	0.882393	-0.053903	0.614349
N92	N	0.232290	0.255155	0.090935
H93	H	0.245709	0.246805	0.145664
H94	H	0.238606	0.320260	0.074503
N95	N	0.409020	-0.009564	-0.091386
H96	H	0.435807	0.024893	-0.128885
H97	H	0.442872	-0.048573	-0.057731
N98	N	0.722663	0.253485	0.824751
H99	H	0.749250	0.294235	0.857428
H100	H	0.692800	0.293245	0.787795
H101	H	0.493226	-0.026613	-0.000195
N102	N	0.636412	-0.046087	-0.000142
H103	H	0.607650	-0.099992	-0.000145
H104	H	0.666853	-0.049163	-0.046545
N105	N	0.801948	0.297457	0.581663
H106	H	0.796231	0.350684	0.544741
H107	H	0.758966	0.299520	0.614379
H108	H	0.906198	0.008734	0.328185
H109	H	0.906229	0.008743	0.671318
H110	H	0.906230	0.008738	0.814274
