data_functionalizedCrystal
_audit_creation_method	'MofGen! by Chris Wilmer'
_symmetry_space_group_name_H-M	'P1'
_symmetry_Int_Tables_number	1
_symmetry_cell_setting	triclinic
loop_
_symmetry_equiv_pos_as_xyz
  x,y,z
_cell_length_a	10.654550
_cell_length_b	6.394989
_cell_length_c	9.130313
_cell_angle_alpha	89.998359
_cell_angle_beta	89.996220
_cell_angle_gamma	94.508693
loop_
_atom_site_label
_atom_site_type_symbol
_atom_site_fract_x
_atom_site_fract_y
_atom_site_fract_z
O1	O	1.670942	-0.293432	-0.121910
O2	O	1.305759	-0.321389	-0.121885
O3	O	1.493534	-0.003422	-0.121899
O4	O	1.483167	-0.611400	-0.121896
O5	O	1.493532	-0.003430	0.121700
O6	O	1.305757	-0.321398	0.121713
O7	O	1.670940	-0.293441	0.121689
Cu8	Cu	1.488348	-0.307420	0.143944
Cu9	Cu	1.488351	-0.307410	-0.144140
O10	O	1.483165	-0.611408	0.121703
C11	C	1.258939	-0.319341	-0.000083
C12	C	1.119430	-0.313199	-0.000074
C13	C	1.041927	-0.500414	-0.000094
C14	C	0.910845	-0.494630	-0.000120
C15	C	0.934782	-0.114402	-0.000110
C16	C	1.065861	-0.120188	-0.000074
C17	C	1.028107	-0.719936	-0.000106
C18	C	0.897025	-0.714152	-0.000132
C19	C	1.717760	-0.295489	-0.000117
C20	C	1.857269	-0.301631	-0.000135
C21	C	1.491483	0.074425	-0.000105
C22	C	1.485219	0.310751	-0.000106
N23	N	1.488355	-0.307426	0.346566
N24	N	1.488353	-0.307388	-0.346763
C25	C	1.571524	-0.166678	0.423212
C26	C	1.571521	-0.166653	0.576549
C27	C	1.405175	-0.448142	0.576581
C28	C	1.405174	-0.448155	0.423247
C29	C	1.667567	-0.004169	0.423195
C30	C	1.667563	-0.004143	0.576532
H31	H	0.891149	0.042742	-0.000133
O32	O	1.324325	-0.584557	0.651234
C33	C	1.245049	-0.471447	0.739894
H34	H	1.292497	-0.308733	0.762846
H35	H	1.226552	-0.558326	0.847728
H36	H	1.151994	-0.455820	0.680803
O37	O	1.776984	-0.065184	0.366636
C38	C	1.795242	-0.270219	0.414472
H39	H	1.739983	-0.304506	0.519823
H40	H	1.899665	-0.284339	0.435768
H41	H	1.760846	-0.387609	0.326509
O42	O	1.324553	-0.584966	0.348636
C43	C	1.393848	-0.714961	0.259976
H44	H	1.490823	-0.633284	0.236984
H45	H	1.341938	-0.747218	0.152161
H46	H	1.404816	-0.869495	0.319087
O47	O	1.629440	0.176900	0.633463
C48	C	1.726619	0.274412	0.720284
H49	H	1.791774	0.152092	0.758283
H50	H	1.684087	0.350241	0.819740
H51	H	1.782576	0.399752	0.653037
H52	H	0.852055	-0.780498	0.105037
O53	O	1.064153	-0.822049	0.121669
C54	C	1.026565	-0.715678	0.247599
H55	H	1.013951	-0.545121	0.218867
H56	H	1.101696	-0.722089	0.336031
H57	H	0.933656	-0.793808	0.289731
O58	O	1.071755	-0.803204	-0.125498
C59	C	1.203879	-0.804271	-0.118025
H60	H	1.242396	-0.680357	-0.036484
H61	H	1.246099	-0.767925	-0.230775
H62	H	1.229984	-0.965390	-0.080775
O63	O	1.141203	0.061612	0.000215
C64	C	1.217730	0.069592	0.126379
H65	H	1.171412	-0.036561	0.214542
H66	H	1.229794	0.237661	0.168739
H67	H	1.313864	0.014133	0.097879
O68	O	0.848188	-0.813104	-0.121606
C69	C	0.763925	-0.983454	-0.079332
H70	H	0.787816	-1.034911	0.036232
H71	H	0.772291	-1.119584	-0.158432
H72	H	0.663533	-0.933621	-0.081612
O73	O	1.640003	0.187292	0.373283
C74	C	1.640017	0.186893	0.218860
H75	H	1.699939	0.059196	0.177424
H76	H	1.680683	0.346012	0.177039
H77	H	1.539443	0.155152	0.177245
O78	O	1.783246	-0.046584	0.626016
C79	C	1.874268	0.107925	0.574430
H80	H	1.837413	0.184237	0.471858
H81	H	1.964746	0.032180	0.547094
H82	H	1.894250	0.232295	0.662621
