data_functionalizedCrystal
_audit_creation_method	'MofGen! by Chris Wilmer'
_symmetry_space_group_name_H-M	'P1'
_symmetry_Int_Tables_number	1
_symmetry_cell_setting	triclinic
loop_
_symmetry_equiv_pos_as_xyz
  x,y,z
_cell_length_a	19.288840
_cell_length_b	14.044190
_cell_length_c	17.766277
_cell_angle_alpha	89.989261
_cell_angle_beta	89.983415
_cell_angle_gamma	88.158896
loop_
_atom_site_label
_atom_site_type_symbol
_atom_site_fract_x
_atom_site_fract_y
_atom_site_fract_z
O1	O	0.928955	0.118101	-0.062729
O2	O	0.727718	0.134072	-0.062705
O3	O	0.825313	-0.011885	-0.062702
O4	O	0.831359	0.264058	-0.062732
O5	O	0.825294	-0.011892	0.062487
O6	O	0.727699	0.134065	0.062484
O7	O	0.928935	0.118093	0.062459
Cu8	Cu	0.828315	0.126078	0.073902
Cu9	Cu	0.828338	0.126087	-0.074148
O10	O	0.831340	0.264051	0.062456
C11	C	0.701799	0.133559	-0.000107
C12	C	0.624596	0.132028	-0.000097
C13	C	0.588356	0.131297	-0.068339
C14	C	0.515816	0.129848	-0.068348
C15	C	0.479519	0.129111	-0.000111
C16	C	0.515768	0.129848	0.068140
C17	C	0.588307	0.131306	0.068147
C18	C	0.366468	0.071292	0.052164
C19	C	0.293931	0.069828	0.052154
C20	C	0.255787	0.124617	-0.000130
C21	C	0.290189	0.180858	-0.052417
C22	C	0.362727	0.182316	-0.052410
C23	C	0.400864	0.127530	-0.000111
C24	C	0.140890	0.122316	-0.068387
C25	C	0.068349	0.120873	-0.068393
C26	C	0.068303	0.120863	0.068097
C27	C	0.140843	0.122316	0.068101
C28	C	0.177132	0.123038	-0.000143
C29	C	0.822659	-0.047192	-0.000105
C30	C	0.814769	-0.152383	-0.000097
C31	C	0.856301	-0.402852	-0.000132
C32	C	0.800356	-0.344977	-0.000120
C33	C	0.808377	-0.237808	-0.000107
C34	C	0.848280	-0.510031	-0.000145
C35	C	0.954854	0.118607	-0.000140
C36	C	1.032057	0.120138	-0.000155
C37	C	0.833995	0.299357	-0.000142
C38	C	0.841885	0.404549	-0.000155
N39	N	0.828304	0.126072	0.178033
N40	N	0.828354	0.126086	-0.178278
C41	C	0.871537	0.061473	0.217421
C42	C	0.871541	0.061469	0.296223
C43	C	0.828319	0.126079	0.335633
C44	C	0.785079	0.190683	0.296236
C45	C	0.785071	0.190679	0.217435
C46	C	0.824570	0.212423	0.460462
C47	C	0.824582	0.212428	0.539261
C48	C	0.828339	0.126091	0.578680
C49	C	0.832097	0.039745	0.539289
C50	C	0.832090	0.039741	0.460489
C51	C	0.828323	0.126090	0.421079
C52	C	0.871578	0.061482	0.703514
C53	C	0.871576	0.061477	0.782317
C54	C	0.785118	0.190698	0.782328
C55	C	0.785115	0.190696	0.703527
C56	C	0.828349	0.126089	0.664124
H57	H	0.265927	0.024029	0.094725
H58	H	0.906747	0.008863	0.328298
H59	H	0.821499	0.282734	0.428375
H60	H	0.749915	0.243302	0.671455
H61	H	0.617898	0.131884	-0.123908
N62	N	0.625330	0.132069	0.137858
N63	N	0.614944	0.198692	0.183539
H64	H	0.641093	0.199232	0.232773
H65	H	0.749865	0.243283	0.185365
N66	N	0.732707	-0.383765	-0.000104
N67	N	0.680104	-0.329412	-0.000086
H68	H	0.632327	-0.356808	-0.000072
H69	H	0.910216	-0.371915	-0.000131
N70	N	0.405416	0.015333	0.105591
N71	N	0.374695	-0.034875	0.152269
H72	H	0.402201	-0.074390	0.190004
N73	N	0.915765	-0.004446	0.177185
N74	N	0.954405	-0.062067	0.212369
H75	H	0.985665	-0.108594	0.183952
N76	N	0.835928	-0.048460	0.420264
N77	N	0.839283	-0.125545	0.455460
H78	H	0.841992	-0.187839	0.427052
H79	H	0.486303	0.129253	-0.123920
N80	N	0.397878	0.239778	-0.105794
N81	N	0.462644	0.241078	-0.105770
H82	H	0.487471	0.281668	-0.143469
N83	N	0.835924	-0.048447	0.579554
N84	N	0.835918	-0.048436	0.649911
H85	H	0.838617	-0.110718	0.678352
H86	H	0.906779	0.008872	0.671431
H87	H	0.906779	0.008868	0.814387
H88	H	0.259133	0.225476	-0.094989
N89	N	0.177953	0.123053	-0.138099
N90	N	0.145583	0.122408	-0.199027
H91	H	0.171757	0.122928	-0.248263
H92	H	0.038751	0.120270	0.123657
N93	N	0.740965	0.256682	0.822587
N94	N	0.740973	0.256673	0.892944
H95	H	0.709786	0.303272	0.921381
N96	N	0.820753	0.300632	0.579482
N97	N	0.817392	0.377712	0.544281
H98	H	0.814689	0.440010	0.572684
N99	N	0.740929	0.256668	0.336500
N100	N	0.740941	0.256664	0.406857
H101	H	0.709756	0.303265	0.435295
H102	H	0.038843	0.120283	-0.123966
H103	H	0.170350	0.122905	0.123672
N104	N	0.478685	0.129105	0.137836
N105	N	0.413919	0.127803	0.137821
H106	H	0.387728	0.127284	0.187046
