data_functionalizedCrystal
_audit_creation_method	'MofGen! by Chris Wilmer'
_symmetry_space_group_name_H-M	'P1'
_symmetry_Int_Tables_number	1
_symmetry_cell_setting	triclinic
loop_
_symmetry_equiv_pos_as_xyz
  x,y,z
_cell_length_a	17.077402
_cell_length_b	18.215407
_cell_length_c	18.215398
_cell_angle_alpha	89.979773
_cell_angle_beta	90.026219
_cell_angle_gamma	89.977196
loop_
_atom_site_label
_atom_site_type_symbol
_atom_site_fract_x
_atom_site_fract_y
_atom_site_fract_z
Zn1	Zn	-0.312537	-1.125080	0.416127
Zn2	Zn	0.020796	-0.791746	0.749460
Zn3	Zn	0.354129	-0.458413	1.082793
Zn4	Zn	-0.443804	-1.124993	0.293059
Zn5	Zn	-0.110471	-0.791660	0.626392
Zn6	Zn	0.222863	-0.458326	0.959725
Zn7	Zn	-0.312556	-1.002013	0.293072
Zn8	Zn	0.020777	-0.668680	0.626406
Zn9	Zn	0.354111	-0.335346	0.959739
Zn10	Zn	-0.443765	-1.001982	0.416082
Zn11	Zn	-0.110432	-0.668649	0.749415
Zn12	Zn	0.222902	-0.335316	1.082749
O13	O	-0.378166	-1.063517	0.354585
O14	O	-0.044832	-0.730184	0.687918
O15	O	0.288501	-0.396850	1.021252
O16	O	-0.329959	-1.228052	0.399815
O17	O	0.003375	-0.894719	0.733148
O18	O	0.336708	-0.561386	1.066481
O19	O	-0.426418	-1.108656	0.190076
O20	O	-0.093085	-0.775323	0.523410
O21	O	0.240249	-0.441989	0.856743
O22	O	-0.202707	-1.018387	0.309420
O23	O	0.130627	-0.685054	0.642754
O24	O	0.463960	-0.351720	0.976087
O25	O	-0.426400	-1.227989	0.309397
O26	O	-0.093066	-0.894655	0.642730
O27	O	0.240267	-0.561322	0.976064
O28	O	-0.202693	-1.108803	0.399828
O29	O	0.130640	-0.775470	0.733161
O30	O	0.463974	-0.442137	1.066494
O31	O	-0.329991	-1.018303	0.190086
O32	O	0.003343	-0.684970	0.523420
O33	O	0.336676	-0.351636	0.856753
O34	O	-0.329953	-0.899025	0.309377
O35	O	0.003381	-0.565691	0.642710
O36	O	0.336714	-0.232358	0.976044
O37	O	-0.426333	-1.018335	0.519072
O38	O	-0.093000	-0.685001	0.852406
O39	O	0.240334	-0.351668	1.185739
O40	O	-0.426351	-0.899002	0.399752
O41	O	-0.093018	-0.565669	0.733085
O42	O	0.240315	-0.232335	1.066418
O43	O	-0.329921	-1.108774	0.519105
O44	O	0.003413	-0.775440	0.852438
O45	O	0.336746	-0.442107	1.185772
O46	O	-0.553646	-1.108626	0.309354
O47	O	-0.220313	-0.775293	0.642687
O48	O	0.113021	-0.441960	0.976020
O49	O	-0.553617	-1.018251	0.399738
O50	O	-0.220284	-0.684918	0.733072
O51	O	0.113050	-0.351584	1.066405
C52	C	-0.378150	-0.872311	0.354561
C53	C	-0.044817	-0.538977	0.687895
C54	C	0.288516	-0.205644	1.021228
C55	C	-0.378163	-0.790512	0.354569
C56	C	-0.044829	-0.457178	0.687902
C57	C	0.288504	-0.123845	1.021235
C58	C	-0.582114	-1.063446	0.354556
C59	C	-0.248780	-0.730113	0.687889
C60	C	0.084553	-0.396779	1.021222
C61	C	-0.669363	-1.063483	0.354568
C62	C	-0.336030	-0.730149	0.687901
C63	C	-0.002697	-0.396816	1.021234
C64	C	-0.710342	-1.110589	0.307555
C65	C	-0.377009	-0.777256	0.640888
C66	C	-0.043676	-0.443923	0.974222
C67	C	-0.792323	-1.110625	0.307574
C68	C	-0.458989	-0.777292	0.640907
C69	C	-0.125656	-0.443959	0.974240
C70	C	-0.833323	-1.063551	0.354602
C71	C	-0.499989	-0.730217	0.687935
C72	C	-0.166656	-0.396884	1.021269
C73	C	-0.792338	-1.016442	0.401620
C74	C	-0.459005	-0.683109	0.734953
C75	C	-0.125671	-0.349775	1.068287
C76	C	-0.710359	-1.016410	0.401604
C77	C	-0.377026	-0.683077	0.734938
C78	C	-0.043692	-0.349743	1.068271
C79	C	-0.963208	-1.016510	0.401648
C80	C	-0.629875	-0.683177	0.734981
C81	C	-0.296541	-0.349843	1.068315
C82	C	-1.045192	-1.016541	0.401663
C83	C	-0.711859	-0.683207	0.734996
C84	C	-0.378526	-0.349874	1.068329
C85	C	-1.045172	-1.110725	0.307617
C86	C	-0.711838	-0.777392	0.640951
C87	C	-0.378505	-0.444059	0.974284
C88	C	-0.963193	-1.110694	0.307602
C89	C	-0.629859	-0.777360	0.640935
C90	C	-0.296526	-0.444027	0.974268
C91	C	-0.922214	-1.063584	0.354619
C92	C	-0.588880	-0.730250	0.687952
C93	C	-0.255547	-0.396917	1.021285
C94	C	-0.428435	-0.602325	0.401565
C95	C	-0.095101	-0.268992	0.734899
C96	C	0.238232	0.064341	1.068232
C97	C	-0.428436	-0.525467	0.401573
C98	C	-0.095103	-0.192133	0.734907
C99	C	0.238230	0.141200	1.068240
C100	C	-0.327901	-0.525460	0.307608
C101	C	0.005432	-0.192127	0.640941
C102	C	0.338765	0.141206	0.974274
C103	C	-0.327896	-0.602318	0.307604
C104	C	0.005437	-0.268984	0.640937
C105	C	0.338771	0.064349	0.974270
C106	C	-0.378167	-0.640748	0.354581
C107	C	-0.044834	-0.307415	0.687915
C108	C	0.288499	0.025918	1.021248
C109	C	-0.378174	-0.487032	0.354593
C110	C	-0.044841	-0.153699	0.687927
C111	C	0.288493	0.179634	1.021260
C112	C	-0.378175	-0.403699	0.354602
C113	C	-0.044842	-0.070365	0.687935
C114	C	0.288491	0.262968	1.021269
C115	C	-0.378165	-0.724087	0.354574
C116	C	-0.044832	-0.390754	0.687907
C117	C	0.288502	-0.057421	1.021241
C118	C	-0.173421	-1.063608	0.354631
C119	C	0.159912	-0.730275	0.687964
C120	C	0.493245	-0.396942	1.021297
C121	C	-0.086172	-1.063647	0.354650
C122	C	0.247162	-0.730314	0.687983
C123	C	0.580495	-0.396981	1.021317
C124	C	-0.378121	-1.063561	0.546538
C125	C	-0.044787	-0.730227	0.879871
C126	C	0.288546	-0.396894	1.213205
C127	C	-0.378101	-1.063579	0.628337
C128	C	-0.044768	-0.730246	0.961670
C129	C	0.288565	-0.396912	1.295004
C130	C	-0.378179	-0.255470	0.354606
C131	C	-0.044846	0.077864	0.687939
C132	C	0.288488	0.411197	1.021273
C133	C	-0.378179	-0.337269	0.354606
C134	C	-0.044845	-0.003935	0.687940
C135	C	0.288488	0.329398	1.021273
C136	C	-0.378154	-1.063516	0.163379
C137	C	-0.044821	-0.730182	0.496712
C138	C	0.288513	-0.396849	0.830045
C139	C	-0.377952	-1.063640	0.081580
C140	C	-0.044619	-0.730307	0.414914
C141	C	0.288715	-0.396973	0.748247
C142	C	-0.428214	-1.110659	0.893394
C143	C	-0.094881	-0.777326	1.226727
C144	C	0.238453	-0.443993	1.560061
C145	C	-0.428241	-1.110648	0.816535
C146	C	-0.094908	-0.777315	1.149868
C147	C	0.238425	-0.443982	1.483202
C148	C	-0.327837	-1.016554	0.816529
C149	C	0.005496	-0.683221	1.149862
C150	C	0.338830	-0.349888	1.483195
C151	C	-0.327814	-1.016562	0.893386
C152	C	0.005519	-0.683229	1.226720
C153	C	0.338852	-0.349896	1.560053
C154	C	-0.378002	-1.063619	0.931817
C155	C	-0.044668	-0.730286	1.265150
C156	C	0.288665	-0.396952	1.598483
C157	C	-0.378052	-1.063600	0.778101
C158	C	-0.044718	-0.730266	1.111434
C159	C	0.288615	-0.396933	1.444767
C160	C	-0.378081	-1.063587	0.694767
C161	C	-0.044747	-0.730254	1.028100
C162	C	0.288586	-0.396921	1.361433
C163	C	-0.377974	-1.063631	1.015156
C164	C	-0.044640	-0.730298	1.348489
C165	C	0.288693	-0.396964	1.681822
H166	H	-0.676966	-1.148920	0.269256
H167	H	-0.343632	-0.815587	0.602589
H168	H	-0.010299	-0.482253	0.935923
H169	H	-0.469368	-0.494186	0.439833
H170	H	-0.136034	-0.160853	0.773167
H171	H	0.197299	0.172481	1.106500
H172	H	-0.825727	-0.978116	0.439915
H173	H	-0.492393	-0.644783	0.773248
H174	H	-0.159060	-0.311449	1.106581
H175	H	-0.929845	-0.978151	0.439937
H176	H	-0.596512	-0.644817	0.773270
H177	H	-0.263179	-0.311484	1.106604
N178	N	-1.089416	-0.965774	0.452391
N179	N	-0.756083	-0.632441	0.785724
N180	N	-0.422750	-0.299108	1.119057
H181	H	-1.123477	-0.931697	0.422459
H182	H	-0.790144	-0.598364	0.755792
H183	H	-0.456811	-0.265031	1.089125
H184	H	-1.050968	-0.935979	0.482167
H185	H	-0.717635	-0.602646	0.815500
H186	H	-0.384302	-0.269313	1.148834
H187	H	-0.286975	-0.978243	0.785229
H188	H	0.046358	-0.644910	1.118563
H189	H	0.379691	-0.311577	1.451896
N190	N	-0.273703	-0.484010	0.256922
N191	N	0.059630	-0.150677	0.590255
N192	N	0.392964	0.182656	0.923588
H193	H	-0.281341	-0.429491	0.264045
H194	H	0.051992	-0.096157	0.597378
H195	H	0.385326	0.237176	0.930711
H196	H	-0.285867	-0.497431	0.204348
H197	H	0.047466	-0.164098	0.537682
H198	H	0.380799	0.169235	0.871015
N199	N	-0.666152	-0.965598	0.452303
N200	N	-0.332819	-0.632265	0.785636
N201	N	0.000514	-0.298931	1.118970
H202	H	-0.632090	-0.995473	0.486429
H203	H	-0.298757	-0.662139	0.819762
H204	H	0.034577	-0.328806	1.153096
H205	H	-0.704610	-0.935787	0.482048
H206	H	-0.371277	-0.602454	0.815382
H207	H	-0.037943	-0.269121	1.148715
N208	N	-0.482652	-0.643777	0.452232
N209	N	-0.149319	-0.310444	0.785565
N210	N	0.184015	0.022890	1.118898
H211	H	-0.514495	-0.607771	0.481997
H212	H	-0.181162	-0.274437	0.815331
H213	H	0.152172	0.058896	1.148664
H214	H	-0.450745	-0.675691	0.486340
H215	H	-0.117412	-0.342357	0.819673
H216	H	0.215922	-0.009024	1.153006
H217	H	-1.078541	-1.149086	0.269337
H218	H	-0.745208	-0.815753	0.602670
H219	H	-0.411874	-0.482420	0.936003
H220	H	-0.469129	-1.148953	0.785255
H221	H	-0.135796	-0.815620	1.118588
H222	H	0.197537	-0.482287	1.451921
H223	H	-0.469081	-1.148975	0.924682
H224	H	-0.135747	-0.815642	1.258015
H225	H	0.197586	-0.482309	1.591348
N226	N	-0.273667	-0.643766	0.256936
N227	N	0.059667	-0.310433	0.590269
N228	N	0.393000	0.022900	0.923602
H229	H	-0.241823	-0.607760	0.227174
H230	H	0.091511	-0.274426	0.560508
H231	H	0.424844	0.058907	0.893841
H232	H	-0.305563	-0.675636	0.222823
H233	H	0.027770	-0.342303	0.556157
H234	H	0.361103	-0.008970	0.889490
H235	H	-0.286924	-0.978253	0.924671
H236	H	0.046409	-0.644919	1.258004
H237	H	0.379742	-0.311586	1.591338
H238	H	-0.825684	-1.148984	0.269291
H239	H	-0.492351	-0.815650	0.602624
H240	H	-0.159018	-0.482317	0.935957
H241	H	-0.929811	-1.149022	0.269304
H242	H	-0.596477	-0.815688	0.602637
H243	H	-0.263144	-0.482355	0.935971
