data_functionalizedCrystal
_audit_creation_method	'MofGen! by Chris Wilmer'
_symmetry_space_group_name_H-M	'P1'
_symmetry_Int_Tables_number	1
_symmetry_cell_setting	triclinic
loop_
_symmetry_equiv_pos_as_xyz
  x,y,z
_cell_length_a	19.188930
_cell_length_b	22.610064
_cell_length_c	19.188930
_cell_angle_alpha	89.998940
_cell_angle_beta	96.855221
_cell_angle_gamma	90.022082
loop_
_atom_site_label
_atom_site_type_symbol
_atom_site_fract_x
_atom_site_fract_y
_atom_site_fract_z
O1	O	0.926150	0.049381	-0.087158
O2	O	1.259483	0.382715	0.246175
O3	O	1.592816	0.716048	0.579509
O4	O	0.722838	0.049342	-0.098892
O5	O	1.056172	0.382675	0.234441
O6	O	1.389505	0.716008	0.567774
O7	O	0.830361	0.049351	0.008630
O8	O	1.163695	0.382684	0.341964
O9	O	1.497028	0.716018	0.675297
O10	O	0.818627	0.049372	-0.194681
O11	O	1.151960	0.382705	0.138652
O12	O	1.485294	0.716039	0.471986
O13	O	0.830342	-0.049018	0.008615
O14	O	1.163676	0.284315	0.341948
O15	O	1.497009	0.617649	0.675281
O16	O	0.722819	-0.049028	-0.098908
O17	O	1.056153	0.284306	0.234425
O18	O	1.389486	0.617639	0.567759
O19	O	0.926131	-0.048988	-0.087174
O20	O	1.259464	0.284345	0.246160
O21	O	1.592797	0.617679	0.579493
Zn22	Zn	0.824472	-0.064626	-0.093043
Zn23	Zn	1.157805	0.268707	0.240290
Zn24	Zn	1.491139	0.602041	0.573623
Zn25	Zn	0.824497	0.064980	-0.093023
Zn26	Zn	1.157830	0.398313	0.240311
Zn27	Zn	1.491164	0.731646	0.573644
O28	O	0.818608	-0.048997	-0.194697
O29	O	1.151941	0.284336	0.138637
O30	O	1.485275	0.617669	0.471970
C31	C	0.696818	0.000152	-0.098520
C32	C	1.030151	0.333485	0.234813
C33	C	1.363485	0.666818	0.568146
C34	C	0.619313	0.000136	-0.097380
C35	C	0.952647	0.333469	0.235954
C36	C	1.285980	0.666803	0.569287
N37	N	0.824460	-0.153078	-0.093057
N38	N	1.157793	0.180255	0.240276
N39	N	1.491127	0.513588	0.573610
C40	C	0.574389	0.000152	-0.160470
C41	C	0.907723	0.333485	0.172863
C42	C	1.241056	0.666819	0.506196
C43	C	0.501566	0.000158	-0.159399
C44	C	0.834899	0.333492	0.173935
C45	C	1.168232	0.666825	0.507268
C46	C	0.473669	0.000161	-0.095233
C47	C	0.807002	0.333494	0.238101
C48	C	1.140336	0.666827	0.571434
C49	C	0.518603	0.000142	-0.032133
C50	C	0.851936	0.333475	0.301200
C51	C	1.185270	0.666808	0.634533
C52	C	0.591425	0.000129	-0.033207
C53	C	0.924758	0.333463	0.300126
C54	C	1.258092	0.666796	0.633460
N55	N	0.365695	0.033659	-0.046180
N56	N	0.699029	0.366992	0.287153
N57	N	1.032362	0.700326	0.620486
N58	N	0.296517	0.033672	-0.045165
N59	N	0.629850	0.367005	0.288168
N60	N	0.963183	0.700339	0.621502
C61	C	0.254260	0.000197	-0.091994
C62	C	0.587594	0.333530	0.241339
C63	C	0.920927	0.666863	0.574672
N64	N	0.283795	-0.033285	-0.139889
N65	N	0.617128	0.300049	0.193445
N66	N	0.950461	0.633382	0.526778
N67	N	0.352979	-0.033295	-0.140906
N68	N	0.686313	0.300038	0.192427
N69	N	1.019646	0.633372	0.525761
C70	C	0.394707	0.000174	-0.094061
C71	C	0.728040	0.333507	0.239272
C72	C	1.061373	0.666840	0.572605
C73	C	0.130372	0.000218	-0.153928
C74	C	0.463705	0.333552	0.179406
C75	C	0.797039	0.666885	0.512739
C76	C	0.057547	0.000221	-0.152853
C77	C	0.390881	0.333555	0.180480
C78	C	0.724214	0.666888	0.513813
C79	C	0.074586	0.000211	-0.025586
C80	C	0.407919	0.333544	0.307747
C81	C	0.741253	0.666877	0.641080
C82	C	0.147409	0.000202	-0.026662
C83	C	0.480743	0.333535	0.306671
C84	C	0.814076	0.666869	0.640004
C85	C	0.175298	0.000209	-0.090835
C86	C	0.508631	0.333542	0.242498
C87	C	0.841964	0.666875	0.575832
C88	C	0.872110	-0.561716	-0.045419
C89	C	1.205444	-0.228382	0.287914
C90	C	1.538777	0.104951	0.621248
C91	C	0.872114	-0.623636	-0.045414
C92	C	1.205447	-0.290302	0.287919
C93	C	1.538781	0.043031	0.621253
O94	O	0.912598	-0.655651	-0.004921
O95	O	1.245931	-0.322317	0.328413
O96	O	1.579265	0.011016	0.661746
N97	N	0.824497	-0.654616	-0.093008
N98	N	1.157830	-0.321282	0.240325
N99	N	1.491163	0.012051	0.573658
C100	C	0.776868	-0.623672	-0.140606
C101	C	1.110201	-0.290339	0.192727
C102	C	1.443535	0.042994	0.526061
O103	O	0.736366	-0.655709	-0.181088
O104	O	1.069699	-0.322376	0.152245
O105	O	1.403032	0.010958	0.485579
C106	C	0.776862	-0.561754	-0.140607
C107	C	1.110195	-0.228420	0.192726
C108	C	1.443528	0.104913	0.526059
C109	C	0.824487	-0.530777	-0.093014
C110	C	1.157820	-0.197444	0.240319
C111	C	1.491153	0.135890	0.573652
C112	C	0.919731	-0.530739	0.002171
C113	C	1.253064	-0.197405	0.335504
C114	C	1.586398	0.135928	0.668837
C115	C	0.919728	-0.468823	0.002164
C116	C	1.253061	-0.135490	0.335498
C117	C	1.586395	0.197844	0.668831
C118	C	0.872105	-0.437884	-0.045431
C119	C	1.205438	-0.104551	0.287902
C120	C	1.538771	0.228782	0.621235
C121	C	0.824484	-0.468861	-0.093021
C122	C	1.157817	-0.135528	0.240313
C123	C	1.491150	0.197805	0.573646
C124	C	0.729230	-0.530812	-0.188201
C125	C	1.062563	-0.197478	0.145132
C126	C	1.395897	0.135855	0.478465
C127	C	0.729227	-0.468889	-0.188198
C128	C	1.062561	-0.135555	0.145135
C129	C	1.395894	0.197778	0.478469
C130	C	0.776853	-0.437912	-0.140605
C131	C	1.110186	-0.104579	0.192728
C132	C	1.443519	0.228755	0.526062
C133	C	0.776857	-0.376007	-0.140622
C134	C	1.110191	-0.042673	0.192711
C135	C	1.443524	0.290660	0.526044
N136	N	0.824475	-0.345027	-0.093028
N137	N	1.157808	-0.011693	0.240305
N138	N	1.491141	0.321640	0.573639
C139	C	0.872098	-0.375966	-0.045432
C140	C	1.205432	-0.042632	0.287901
C141	C	1.538765	0.290701	0.621234
C142	C	0.776884	-0.753706	-0.140599
C143	C	1.110217	-0.420373	0.192734
C144	C	1.443551	-0.087039	0.526068
C145	C	0.776893	-0.815624	-0.140602
C146	C	1.110226	-0.482290	0.192731
C147	C	1.443560	-0.148957	0.526065
C148	C	0.872138	-0.815583	-0.045409
C149	C	1.205472	-0.482249	0.287925
C150	C	1.538805	-0.148916	0.621258
C151	C	0.872132	-0.753664	-0.045410
C152	C	1.205465	-0.420330	0.287924
C153	C	1.538799	-0.086997	0.621257
C154	C	0.824501	-0.722726	-0.093005
C155	C	1.157835	-0.389393	0.240329
C156	C	1.491168	-0.056059	0.573662
C157	C	0.872089	-0.245938	-0.045449
C158	C	1.205422	0.087395	0.287884
C159	C	1.538756	0.420728	0.621217
C160	C	0.872084	-0.184017	-0.045461
C161	C	1.205417	0.149316	0.287872
C162	C	1.538750	0.482650	0.621205
C163	C	0.776836	-0.184064	-0.140652
C164	C	1.110170	0.149270	0.192681
C165	C	1.443503	0.482603	0.526015
C166	C	0.776844	-0.245979	-0.140643
C167	C	1.110177	0.087354	0.192691
C168	C	1.443510	0.420687	0.526024
C169	C	0.824473	-0.276915	-0.093035
C170	C	1.157806	0.056418	0.240298
C171	C	1.491139	0.389751	0.573631
O172	O	0.736392	-0.343952	-0.181093
O173	O	1.069725	-0.010619	0.152240
O174	O	1.403058	0.322714	0.485574
O175	O	0.912588	-0.343921	-0.004951
O176	O	1.245921	-0.010588	0.328382
O177	O	1.579254	0.322745	0.661715
C178	C	0.952151	0.000203	-0.087546
C179	C	1.285485	0.333537	0.245787
C180	C	1.618818	0.666870	0.579121
C181	C	1.029656	0.000223	-0.088687
C182	C	1.362989	0.333556	0.244647
C183	C	1.696322	0.666889	0.577980
C184	C	0.829972	0.000165	0.034634
C185	C	1.163305	0.333498	0.367967
C186	C	1.496638	0.666831	0.701300
C187	C	0.828831	0.000159	0.112138
C188	C	1.162164	0.333493	0.445471
C189	C	1.495498	0.666826	0.778805
N190	N	0.824515	0.153432	-0.093004
N191	N	1.157848	0.486765	0.240330
N192	N	1.491181	0.820099	0.573663
C193	C	0.818997	0.000190	-0.220700
C194	C	1.152331	0.333524	0.112634
C195	C	1.485664	0.666857	0.445967
C196	C	0.820138	0.000200	-0.298204
C197	C	1.153471	0.333533	0.035129
C198	C	1.486805	0.666866	0.368462
C199	C	0.891922	0.000169	0.157062
C200	C	1.225255	0.333502	0.490395
C201	C	1.558589	0.666836	0.823729
C202	C	0.890850	0.000178	0.229886
C203	C	1.224184	0.333511	0.563219
C204	C	1.557517	0.666845	0.896553
C205	C	0.826684	0.000166	0.257782
C206	C	1.160017	0.333499	0.591116
C207	C	1.493351	0.666833	0.924449
C208	C	0.763585	0.000160	0.212849
C209	C	1.096918	0.333493	0.546182
C210	C	1.430252	0.666827	0.879515
C211	C	0.764658	0.000157	0.140026
C212	C	1.097992	0.333490	0.473360
C213	C	1.431325	0.666823	0.806693
N214	N	0.777630	-0.033320	0.365782
N215	N	1.110964	0.300013	0.699115
N216	N	1.444297	0.633346	1.032449
N217	N	0.776615	-0.033319	0.434961
N218	N	1.109948	0.300015	0.768294
N219	N	1.443282	0.633348	1.101627
C220	C	0.823446	0.000177	0.477191
C221	C	1.156779	0.333511	0.810524
C222	C	1.490113	0.666844	1.143858
N223	N	0.871342	0.033664	0.447631
N224	N	1.204675	0.366997	0.780964
N225	N	1.538008	0.700331	1.114298
N226	N	0.872359	0.033659	0.378446
N227	N	1.205692	0.366993	0.711780
N228	N	1.539026	0.700326	1.045113
C229	C	0.825513	0.000170	0.336745
C230	C	1.158846	0.333503	0.670078
C231	C	1.492180	0.666837	1.003412
C232	C	0.885379	0.000198	0.601079
C233	C	1.218712	0.333531	0.934413
C234	C	1.552046	0.666864	1.267746
C235	C	0.884305	0.000211	0.673904
C236	C	1.217638	0.333544	1.007238
C237	C	1.550971	0.666877	1.340571
C238	C	0.757038	0.000186	0.656865
C239	C	1.090371	0.333520	0.990199
C240	C	1.423704	0.666853	1.323532
C241	C	0.758114	0.000179	0.584042
C242	C	1.091447	0.333513	0.917376
C243	C	1.424781	0.666846	1.250709
C244	C	0.822287	0.000182	0.556154
C245	C	1.155620	0.333516	0.889487
C246	C	1.488953	0.666849	1.222821
H247	H	0.597091	0.000159	-0.212725
H248	H	0.930424	0.333492	0.120609
H249	H	1.263758	0.666825	0.453942
Cl250	Cl	0.717029	-0.854559	-0.200444
Cl251	Cl	1.050362	-0.521226	0.132889
Cl252	Cl	1.383695	-0.187892	0.466222
H253	H	0.958512	-0.555924	0.040932
H254	H	1.291845	-0.222590	0.374265
H255	H	1.625179	0.110743	0.707598
H256	H	0.704792	0.000180	0.679578
H257	H	1.038126	0.333513	1.012911
H258	H	1.371459	0.666846	1.346245
Cl259	Cl	0.203888	0.000186	0.052657
Cl260	Cl	0.537222	0.333519	0.385990
Cl261	Cl	0.870555	0.666852	0.719323
Cl262	Cl	0.717005	-0.714819	-0.200445
Cl263	Cl	1.050338	-0.381485	0.132889
Cl264	Cl	1.383672	-0.048152	0.466222
H265	H	0.738070	-0.271201	-0.179404
H266	H	1.071403	0.062132	0.153930
H267	H	1.404736	0.395465	0.487263
H268	H	0.937632	0.000203	0.578372
H269	H	1.270966	0.333536	0.911705
H270	H	1.604299	0.666869	1.245038
Cl271	Cl	0.972596	0.000189	0.122006
Cl272	Cl	1.305929	0.333522	0.455339
Cl273	Cl	1.639262	0.666856	0.788673
Cl274	Cl	0.931961	-0.145078	0.014373
Cl275	Cl	1.265294	0.188255	0.347706
Cl276	Cl	1.598627	0.521589	0.681039
H277	H	0.495885	0.000152	0.020111
H278	H	0.829218	0.333485	0.353444
H279	H	1.162552	0.666819	0.686778
Cl280	Cl	0.970170	0.000191	0.286372
Cl281	Cl	1.303504	0.333524	0.619705
Cl282	Cl	1.636837	0.666857	0.953039
Cl283	Cl	0.682919	0.000149	0.247918
Cl284	Cl	1.016252	0.333483	0.581251
Cl285	Cl	1.349586	0.666816	0.914584
H286	H	0.690449	-0.556024	-0.226955
H287	H	1.023782	-0.222691	0.106378
H288	H	1.357116	0.110642	0.439712
H289	H	0.706738	0.000168	0.547464
H290	H	1.040072	0.333502	0.880797
H291	H	1.373405	0.666835	1.214131
H292	H	0.628003	0.000117	0.018171
H293	H	0.961336	0.333450	0.351504
H294	H	1.294670	0.666784	0.684838
H295	H	0.153080	0.000215	-0.206181
H296	H	0.486413	0.333549	0.127153
H297	H	0.819746	0.666882	0.460486
H298	H	0.910872	-0.271119	-0.006682
H299	H	1.244205	0.062214	0.326651
H300	H	1.577539	0.395547	0.659984
Cl301	Cl	0.445079	0.000177	-0.238719
Cl302	Cl	0.778413	0.333510	0.094614
Cl303	Cl	1.111746	0.666843	0.427948
H304	H	0.713281	0.000149	0.103449
H305	H	1.046614	0.333482	0.436782
H306	H	1.379947	0.666815	0.770115
Cl307	Cl	0.932007	-0.854490	0.014427
Cl308	Cl	1.265340	-0.521156	0.347761
Cl309	Cl	1.598673	-0.187823	0.681094
H310	H	0.690438	-0.443702	-0.226955
H311	H	1.023772	-0.110369	0.106378
H312	H	1.357105	0.222964	0.439712
H313	H	0.051874	0.000249	0.026659
H314	H	0.385207	0.333583	0.359992
H315	H	0.718540	0.666916	0.693326
Cl316	Cl	0.963627	0.000227	0.730382
Cl317	Cl	1.296960	0.333560	1.063715
Cl318	Cl	1.630294	0.666893	1.397049
Cl319	Cl	0.979597	-0.429888	0.062002
Cl320	Cl	1.312931	-0.096554	0.395335
Cl321	Cl	1.646264	0.236779	0.728669
H322	H	0.020970	0.000231	-0.204232
H323	H	0.354303	0.333564	0.129102
H324	H	0.687637	0.666897	0.462435
H325	H	0.738064	-0.158864	-0.179406
H326	H	1.071397	0.174470	0.153927
H327	H	1.404730	0.507803	0.487261
Cl328	Cl	0.932004	-0.714728	0.014425
Cl329	Cl	1.265338	-0.381395	0.347758
Cl330	Cl	1.598671	-0.048062	0.681092
