data_functionalizedCrystal
_audit_creation_method	'MofGen! by Chris Wilmer'
_symmetry_space_group_name_H-M	'P1'
_symmetry_Int_Tables_number	1
_symmetry_cell_setting	triclinic
loop_
_symmetry_equiv_pos_as_xyz
  x,y,z
_cell_length_a	15.297475
_cell_length_b	15.299816
_cell_length_c	19.077174
_cell_angle_alpha	101.521953
_cell_angle_beta	78.456872
_cell_angle_gamma	72.651123
loop_
_atom_site_label
_atom_site_type_symbol
_atom_site_fract_x
_atom_site_fract_y
_atom_site_fract_z
Zn1	Zn	1.529026	-0.659714	-0.693211
Zn2	Zn	1.549936	-0.809291	-0.598554
Zn3	Zn	1.364501	-0.623782	-0.548498
Zn4	Zn	1.400355	-0.788194	-0.693198
O5	O	1.460954	-0.720246	-0.633365
O6	O	1.663254	-0.703423	-0.701609
O7	O	1.519084	-0.778475	-0.491742
O8	O	1.362570	-0.497143	-0.546751
O9	O	1.678617	-0.813317	-0.632065
O10	O	1.483445	-0.523542	-0.653071
O11	O	1.382846	-0.642182	-0.454965
O12	O	1.237802	-0.621725	-0.546738
O13	O	1.423677	-0.777360	-0.793372
O14	O	1.264144	-0.742518	-0.653049
O15	O	1.518211	-0.682966	-0.793382
O16	O	1.553850	-0.937898	-0.632052
O17	O	1.443953	-0.922398	-0.701587
C18	C	1.216889	-0.675934	-0.594461
C19	C	1.112481	-0.657001	-0.577838
C20	C	1.505087	-0.964226	-0.672270
C21	C	1.524055	-1.068619	-0.688951
C22	C	0.873188	-0.855571	-0.752173
C23	C	0.971284	-0.873366	-0.767790
C24	C	1.006589	-0.819276	-0.720304
C25	C	0.943786	-0.747388	-0.657197
C26	C	0.845680	-0.729596	-0.641576
C27	C	0.979081	-0.693301	-0.609706
C28	C	0.916278	-0.621413	-0.546600
C29	C	0.818183	-0.603623	-0.530981
C30	C	0.782878	-0.657713	-0.578468
C31	C	1.077187	-0.711093	-0.625328
C32	C	1.049680	-0.585118	-0.514730
C33	C	0.951583	-0.567323	-0.499113
C34	C	1.326020	-1.308242	-0.514484
C35	C	1.308194	-1.210159	-0.498812
C36	C	1.362158	-1.174769	-0.546345
C37	C	1.433951	-1.237472	-0.609553
C38	C	1.451773	-1.335564	-0.625230
C39	C	1.487911	-1.202091	-0.657091
C40	C	1.559704	-1.264794	-0.720299
C41	C	1.577523	-1.362876	-0.735972
C42	C	1.523560	-1.398266	-0.688439
C43	C	1.470089	-1.103999	-0.641415
C44	C	1.595841	-1.131321	-0.752160
C45	C	1.613667	-1.229404	-0.767832
C46	C	1.705973	-0.764731	-0.672422
C47	C	1.810386	-0.783688	-0.689065
C48	C	1.472611	-0.731818	-0.820077
C49	C	1.477578	-0.736749	-0.899642
C50	C	1.416676	-0.475318	-0.594329
C51	C	1.397807	-0.370944	-0.577694
C52	C	1.408982	-0.668107	-0.917874
C53	C	1.413648	-0.672747	-0.992635
C54	C	1.486913	-0.746027	-1.049162
C55	C	1.555512	-0.814676	-1.030926
C56	C	1.550842	-0.810038	-0.956166
C57	C	1.508481	-0.767509	-1.274804
C58	C	1.513148	-0.772140	-1.349567
C59	C	1.371281	-0.630212	-1.311271
C60	C	1.366622	-0.625578	-1.236512
C61	C	1.435218	-0.694229	-1.218282
N62	N	1.491685	-0.750770	-1.125580
N63	N	1.430441	-0.689489	-1.141865
C64	C	1.449385	-0.708661	-0.447378
C65	C	1.444552	-0.703498	-0.367800
H66	H	1.128312	-0.769625	-0.676710
Cl67	Cl	1.605266	-0.864263	-1.420631
H68	H	1.357787	-0.616855	-1.007475
Cl69	Cl	1.663684	-1.086838	-0.811921
H70	H	1.306959	-0.565908	-1.190491
H71	H	1.672121	-1.280470	-0.819297
H72	H	1.315434	-0.574321	-1.326123
Cl73	Cl	1.094055	-0.517120	-0.455027
Cl74	Cl	1.050229	-0.963737	-0.847120
H75	H	1.411634	-1.052955	-0.589950
Cl76	Cl	1.217936	-1.131339	-0.419361
Cl77	Cl	1.594723	-0.853809	-1.251896
H78	H	1.615162	-0.874345	-1.076956
H79	H	1.086464	-0.833769	-0.733023
Cl80	Cl	1.258176	-1.352736	-0.454745
Cl81	Cl	0.828802	-0.923579	-0.811850
Cl82	Cl	0.659551	-0.635339	-0.558841
Cl83	Cl	1.316876	-0.575975	-0.846818
H84	H	1.635978	-1.413927	-0.787443
H85	H	1.606706	-0.865928	-0.941324
Cl86	Cl	0.739234	-0.513257	-0.451643
H87	H	1.347641	-1.094905	-0.533581
Cl88	Cl	0.872621	-0.476952	-0.419782
H89	H	1.538073	-1.478133	-0.701194
