data_functionalizedCrystal
_audit_creation_method	'MofGen! by Chris Wilmer'
_symmetry_space_group_name_H-M	'P1'
_symmetry_Int_Tables_number	1
_symmetry_cell_setting	triclinic
loop_
_symmetry_equiv_pos_as_xyz
  x,y,z
_cell_length_a	12.827893
_cell_length_b	16.120531
_cell_length_c	12.827885
_cell_angle_alpha	92.860433
_cell_angle_beta	90.019272
_cell_angle_gamma	87.067629
loop_
_atom_site_label
_atom_site_type_symbol
_atom_site_fract_x
_atom_site_fract_y
_atom_site_fract_z
Zn1	Zn	1.576455	0.331862	0.611870
Zn2	Zn	1.567435	0.471297	0.445962
Zn3	Zn	1.401694	0.331903	0.437146
Zn4	Zn	1.392772	0.471236	0.620658
O5	O	1.484589	0.401575	0.528909
O6	O	1.721494	0.350367	0.589873
O7	O	1.545408	0.452849	0.298559
O8	O	1.432385	0.215232	0.452956
O9	O	1.714867	0.452810	0.467982
O10	O	1.560781	0.215202	0.581324
O11	O	1.423639	0.350437	0.292082
O12	O	1.254275	0.350377	0.461478
O13	O	1.417179	0.452705	0.765726
O14	O	1.247720	0.452744	0.596303
O15	O	1.552130	0.350307	0.759269
O16	O	1.536757	0.587955	0.476504
O17	O	1.408433	0.587909	0.604852
C18	C	1.213080	0.401559	0.528888
C19	C	1.096926	0.401573	0.528905
C20	C	1.048414	0.350971	0.589326
C21	C	0.928363	0.350984	0.589345
C22	C	1.470677	0.618182	0.542611
C23	C	1.464820	0.710847	0.548508
C24	C	1.454135	0.880508	0.559295
C25	C	1.515082	0.921800	0.498464
C26	C	1.509137	1.016206	0.504466
C27	C	1.460079	0.786095	0.553294
C28	C	1.757158	0.401591	0.528931
C29	C	1.873311	0.401597	0.528940
C30	C	1.484665	0.401495	0.801474
C31	C	1.484698	0.401460	0.917625
C32	C	1.498547	1.184122	0.515157
C33	C	1.504400	1.091456	0.509248
C34	C	1.484577	0.401594	0.257400
C35	C	1.484762	0.401393	0.141235
C36	C	1.551483	0.350781	0.966214
C37	C	1.551518	0.350745	1.086262
H38	H	1.049581	0.444903	0.477189
H39	H	1.608631	0.307417	0.918938
O40	O	1.582563	0.879268	0.430971
C41	C	1.573560	0.793112	0.439934
H42	H	1.493624	0.781360	0.473366
H43	H	1.582722	0.759994	0.359597
H44	H	1.637052	0.768313	0.494082
H45	H	0.915035	0.444926	0.477215
H46	H	1.608699	0.307359	1.128060
O47	O	1.386580	0.923039	0.626703
C48	C	1.395623	1.009194	0.617767
H49	H	1.429175	1.021005	0.537889
H50	H	1.315293	1.042415	0.626842
H51	H	1.449711	1.033830	0.681341
O52	O	1.416688	0.453202	1.091271
C53	C	1.472765	0.507038	1.031562
H54	H	1.553863	0.477631	1.013471
H55	H	1.429536	0.518176	0.955464
H56	H	1.480241	0.568840	1.077467
H57	H	1.427540	0.444816	0.964901
H58	H	0.886632	0.307664	0.641077
O59	O	1.105043	0.299352	0.650994
C60	C	1.212302	0.310820	0.637232
H61	H	1.222965	0.375136	0.606928
H62	H	1.254253	0.305264	0.715123
H63	H	1.246421	0.261335	0.578520
