data_functionalizedCrystal
_audit_creation_method	'MofGen! by Chris Wilmer'
_symmetry_space_group_name_H-M	'P1'
_symmetry_Int_Tables_number	1
_symmetry_cell_setting	triclinic
loop_
_symmetry_equiv_pos_as_xyz
  x,y,z
_cell_length_a	16.120530
_cell_length_b	12.645330
_cell_length_c	16.120256
_cell_angle_alpha	87.121491
_cell_angle_beta	89.871735
_cell_angle_gamma	87.113442
loop_
_atom_site_label
_atom_site_type_symbol
_atom_site_fract_x
_atom_site_fract_y
_atom_site_fract_z
Zn1	Zn	1.247481	-0.537102	0.534597
Zn2	Zn	1.747481	-0.037102	1.034597
Zn3	Zn	1.254445	-0.705858	0.395549
Zn4	Zn	1.754445	-0.205858	0.895549
Zn5	Zn	1.115470	-0.519182	0.388514
Zn6	Zn	1.615470	-0.019182	0.888514
Zn7	Zn	1.108401	-0.704887	0.527519
Zn8	Zn	1.608401	-0.204887	1.027519
O9	O	1.181449	-0.616757	0.461545
O10	O	1.681449	-0.116757	0.961545
O11	O	1.364772	-0.567393	0.522059
O12	O	1.864772	-0.067393	1.022059
O13	O	1.241883	-0.674002	0.278249
O14	O	1.741883	-0.174002	0.778249
O15	O	1.133026	-0.373216	0.407910
O16	O	1.633026	0.126784	0.907910
O17	O	1.369888	-0.691378	0.419901
O18	O	1.869888	-0.191378	0.919901
O19	O	1.230014	-0.386381	0.515237
O20	O	1.730014	0.113619	1.015237
O21	O	1.139778	-0.536852	0.273081
O22	O	1.639778	-0.036852	0.773081
O23	O	0.998166	-0.535910	0.401046
O24	O	1.498166	-0.035910	0.901046
O25	O	1.120978	-0.689723	0.644824
O26	O	1.620978	-0.189723	1.144824
O27	O	0.992972	-0.672347	0.503173
O28	O	1.492972	-0.172347	1.003173
O29	O	1.223159	-0.566452	0.650025
O30	O	1.723159	-0.066452	1.150025
O31	O	1.235028	-0.854073	0.413037
O32	O	1.735028	-0.354073	0.913037
O33	O	1.127730	-0.853359	0.509994
O34	O	1.627730	-0.353359	1.009994
C35	C	0.965396	-0.602080	0.450579
C36	C	1.465396	-0.102080	0.950579
C37	C	0.872967	-0.595827	0.445907
C38	C	1.372967	-0.095827	0.945907
C39	C	1.181389	-0.892182	0.461530
C40	C	1.681389	-0.392182	0.961530
C41	C	1.181438	-1.010017	0.461555
C42	C	1.681438	-0.510017	0.961555
C43	C	0.703736	-0.584388	0.437385
C44	C	1.203736	-0.084388	0.937385
C45	C	0.660000	-0.649209	0.485765
C46	C	1.160000	-0.149209	0.985765
C47	C	0.565834	-0.642844	0.481024
C48	C	1.065834	-0.142844	0.981024
C49	C	0.797911	-0.590751	0.442125
C50	C	1.297911	-0.090751	0.942125
C51	C	1.114192	-1.177206	0.522763
C52	C	1.614192	-0.677206	1.022763
C53	C	1.113875	-1.054612	0.522539
C54	C	1.613875	-0.554612	1.022539
C55	C	1.162161	-1.047628	0.372718
C56	C	1.662161	-0.547628	0.872718
C57	C	1.161750	-1.170224	0.373090
C58	C	1.661750	-0.670224	0.873090
C59	C	1.268390	-1.184460	0.488494
C60	C	1.768390	-0.684460	0.988494
C61	C	1.267753	-1.061934	0.490383
C62	C	1.767753	-0.561934	0.990383
C63	C	1.398346	-0.631493	0.472554
C64	C	1.898346	-0.131493	0.972554
C65	C	1.490775	-0.637772	0.477246
C66	C	1.990775	-0.137772	0.977246
C67	C	1.170503	-0.629978	0.678441
C68	C	1.670503	-0.129978	1.178441
C69	C	1.165839	-0.635612	0.770869
C70	C	1.665839	-0.135612	1.270869
C71	C	1.181532	-0.340259	0.461579
C72	C	1.681532	0.159741	0.961579
C73	C	1.181566	-0.222433	0.461593
C74	C	1.681566	0.277567	0.961593
C75	C	1.192401	-0.603515	0.245495
C76	C	1.692401	-0.103515	0.745495
C77	C	1.197227	-0.597593	0.153076
C78	C	1.697227	-0.097593	0.653076
C79	C	1.205774	-0.587350	0.983850
C80	C	1.705774	-0.087350	1.483850
C81	C	1.157294	-0.645852	0.940089
C82	C	1.657294	-0.145852	1.440089
C83	C	1.162050	-0.640153	0.845926
C84	C	1.662050	-0.140153	1.345926
C85	C	1.201019	-0.593048	1.078022
C86	C	1.701019	-0.093048	1.578022
H87	H	0.693277	-0.709483	0.530748
H88	H	1.193277	-0.209483	1.030748
H89	H	1.250847	-0.532990	0.950598
H90	H	1.750847	-0.032990	1.450598
H91	H	0.670461	-0.524118	0.392407
H92	H	1.170461	-0.024118	0.892407
H93	H	1.125422	-1.029449	0.588272
H94	H	1.625422	-0.529449	1.088272
H95	H	1.125591	-1.211613	0.588702
H96	H	1.625591	-0.711613	1.088702
N97	N	1.033835	-1.209337	0.500228
N98	N	1.533835	-0.709337	1.000228
N99	N	1.025971	-1.265400	0.439312
N100	N	1.525971	-0.765400	0.939312
H101	H	0.969220	-1.288096	0.423394
H102	H	1.469220	-0.788096	0.923394
H103	H	1.099512	-1.011514	0.350138
H104	H	1.599512	-0.511514	0.850138
N105	N	1.033012	-1.011252	0.499744
N106	N	1.533012	-0.511252	0.999744
N107	N	0.976637	-1.071546	0.483943
N108	N	1.476637	-0.571546	0.983943
H109	H	0.919523	-1.040924	0.467841
H110	H	1.419523	-0.540924	0.967841
H111	H	1.098414	-1.193388	0.350819
H112	H	1.598414	-0.693388	0.850819
H113	H	1.208934	-1.199868	0.325720
H114	H	1.708934	-0.699868	0.825720
H115	H	1.209874	-1.018514	0.325701
H116	H	1.709874	-0.518514	0.825701
H117	H	1.286844	-1.220624	0.552408
H118	H	1.786844	-0.720624	1.052408
N119	N	1.286085	-1.031844	0.572428
N120	N	1.786085	-0.531844	1.072428
N121	N	1.235812	-0.972387	0.609580
N122	N	1.735812	-0.472387	1.109580
H123	H	1.248756	-0.951131	0.667526
H124	H	1.748756	-0.451131	1.167526
N125	N	1.333589	-1.024415	0.438999
N126	N	1.833589	-0.524415	0.938999
N127	N	1.317895	-0.958511	0.380030
N128	N	1.817895	-0.458511	0.880030
H129	H	1.364390	-0.932015	0.343730
H130	H	1.864390	-0.432015	0.843730
H131	H	1.112214	-0.700211	0.973343
H132	H	1.612214	-0.200211	1.473343
N133	N	1.331283	-1.221277	0.432664
N134	N	1.831283	-0.721277	0.932664
N135	N	1.312361	-1.275252	0.373303
N136	N	1.812361	-0.775252	0.873303
H137	H	1.356773	-1.301258	0.333869
H138	H	1.856773	-0.801258	0.833869
