data_functionalizedCrystal
_audit_creation_method	'MofGen! by Chris Wilmer'
_symmetry_space_group_name_H-M	'P1'
_symmetry_Int_Tables_number	1
_symmetry_cell_setting	triclinic
loop_
_symmetry_equiv_pos_as_xyz
  x,y,z
_cell_length_a	6.817900
_cell_length_b	12.000032
_cell_length_c	14.858572
_cell_angle_alpha	90.996126
_cell_angle_beta	104.524003
_cell_angle_gamma	119.142083
loop_
_atom_site_label
_atom_site_type_symbol
_atom_site_fract_x
_atom_site_fract_y
_atom_site_fract_z
V1	V	-4.125924	-0.177674	-0.291535
O2	O	-4.021811	0.007710	-0.284372
O3	O	-4.163070	-0.351502	-0.291094
O4	O	-4.081395	-0.175305	-0.417976
O5	O	-4.104051	-0.169707	-0.156611
V6	V	-4.597965	-0.155457	-0.275209
O7	O	-4.412368	-0.226409	-0.327349
O8	O	-4.761719	-0.106722	-0.239395
O9	O	-4.337613	0.018371	-0.275651
O10	O	-4.819475	-0.340842	-0.282372
O11	O	-4.737235	-0.163425	-0.410133
O12	O	-4.419287	-0.157827	-0.148768
C13	C	-4.028756	-0.393867	-0.286895
C14	C	-4.140440	-0.535976	-0.287376
C15	C	-4.013932	-0.593134	-0.283125
C16	C	-4.129359	-0.740010	-0.283623
C17	C	-3.924571	-0.169107	-0.448745
C18	C	-3.970013	-0.168320	-0.552121
C19	C	-4.136337	-0.165443	-0.930664
C20	C	-4.090052	-0.166243	-0.825341
C21	C	-4.053177	-0.166882	-0.741396
C22	C	-4.006888	-0.167681	-0.636067
C23	C	-4.135271	0.060728	-0.279847
C24	C	-4.002827	0.202836	-0.279372
C25	C	-4.239456	-0.164029	-0.117994
C26	C	-4.173249	-0.164810	-0.014617
H27	H	-3.809053	-0.737368	-0.275361
N28	N	-4.372441	-0.814992	-0.288644
N29	N	-4.444252	-0.790243	-0.225758
H30	H	-4.615928	-0.843198	-0.229304
H31	H	-4.334197	-0.595775	-0.291374
H32	H	-3.820166	-0.533330	-0.279112
