data_functionalizedCrystal
_audit_creation_method	'MofGen! by Chris Wilmer'
_symmetry_space_group_name_H-M	'P1'
_symmetry_Int_Tables_number	1
_symmetry_cell_setting	triclinic
loop_
_symmetry_equiv_pos_as_xyz
  x,y,z
_cell_length_a	27.732043
_cell_length_b	26.210047
_cell_length_c	27.731996
_cell_angle_alpha	90.001499
_cell_angle_beta	82.631092
_cell_angle_gamma	90.000725
loop_
_atom_site_label
_atom_site_type_symbol
_atom_site_fract_x
_atom_site_fract_y
_atom_site_fract_z
O1	O	0.640922	0.042337	0.057501
O2	O	1.140922	0.542337	0.557501
O3	O	0.500126	0.042361	0.066249
O4	O	1.000126	0.542361	0.566249
O5	O	0.574910	0.042337	-0.008524
O6	O	1.074910	0.542337	0.491476
O7	O	0.566138	0.042361	0.132274
O8	O	1.066138	0.542361	0.632274
O9	O	0.574896	-0.042521	-0.008512
O10	O	1.074896	0.457479	0.491488
O11	O	0.500112	-0.042497	0.066261
O12	O	1.000112	0.457503	0.566261
O13	O	0.640907	-0.042521	0.057513
O14	O	1.140907	0.457479	0.557513
Cu15	Cu	0.570508	-0.050257	0.061888
Cu16	Cu	1.070508	0.449743	0.561888
Cu17	Cu	0.570525	0.050097	0.061874
Cu18	Cu	1.070525	0.550097	0.561874
O19	O	0.566124	-0.042497	0.132285
O20	O	1.066124	0.457503	0.632285
C21	C	0.482112	-0.000065	0.066072
C22	C	0.982112	0.499935	0.566072
C23	C	0.428457	-0.000057	0.065520
C24	C	0.928457	0.499943	0.565520
N25	N	0.570500	-0.120841	0.061897
N26	N	1.070500	0.379159	0.561897
C27	C	0.574723	-0.000093	-0.026525
C28	C	1.074723	0.499907	0.473475
C29	C	0.574180	-0.000099	-0.080181
C30	C	1.074180	0.499901	0.419819
C31	C	0.658922	-0.000093	0.057690
C32	C	1.158922	0.499907	0.557690
C33	C	0.712576	-0.000099	0.058242
C34	C	1.212576	0.499901	0.558242
C35	C	1.045306	0.046183	0.061608
C36	C	1.545306	0.546183	0.561608
C37	C	1.246965	0.046192	0.063661
C38	C	1.746965	0.546192	0.563661
O39	O	1.273048	0.085532	0.063900
O40	O	1.773048	0.585532	0.563900
N41	N	1.272174	-0.000063	0.063926
N42	N	1.772174	0.499937	0.563926
C43	C	1.246965	-0.046325	0.063674
C44	C	1.746965	0.453675	0.563674
O45	O	1.273035	-0.085668	0.063941
O46	O	1.773035	0.414332	0.563941
C47	C	1.045308	-0.046333	0.061618
C48	C	1.545308	0.453667	0.561618
C49	C	1.020101	-0.000075	0.061358
C50	C	1.520101	0.499925	0.561358
C51	C	1.020099	0.092438	0.061348
C52	C	1.520099	0.592438	0.561348
C53	C	0.969687	0.092435	0.060837
C54	C	1.469687	0.592435	0.560837
C55	C	0.944482	0.046177	0.060587
C56	C	1.444482	0.546177	0.560587
C57	C	0.969689	-0.000077	0.060848
C58	C	1.469689	0.499923	0.560848
C59	C	1.020100	-0.092594	0.061363
C60	C	1.520100	0.407406	0.561363
C61	C	0.969683	-0.092592	0.060848
C62	C	1.469683	0.407408	0.560848
C63	C	0.944476	-0.046333	0.060588
C64	C	1.444476	0.453667	0.560588
C65	C	0.894071	-0.046338	0.060087
C66	C	1.394071	0.453662	0.560087
N67	N	0.868862	-0.000082	0.059822
N68	N	1.368862	0.499918	0.559822
C69	C	0.894068	0.046175	0.060072
C70	C	1.394068	0.546175	0.560072
C71	C	1.352838	-0.046317	0.064755
C72	C	1.852838	0.453683	0.564755
C73	C	1.403252	-0.046315	0.065270
C74	C	1.903252	0.453685	0.565270
C75	C	1.403248	0.046203	0.065255
C76	C	1.903248	0.546203	0.565255
C77	C	1.352833	0.046200	0.064744
C78	C	1.852833	0.546200	0.564744
C79	C	1.327629	-0.000061	0.064490
C80	C	1.827629	0.499939	0.564490
C81	C	0.788198	0.046166	0.059001
C82	C	1.288198	0.546166	0.559001
C83	C	0.737782	0.046159	0.058492
C84	C	1.237782	0.546159	0.558492
C85	C	0.737790	-0.046358	0.058504
C86	C	1.237790	0.453642	0.558504
C87	C	0.788202	-0.046351	0.059015
C88	C	1.288202	0.453649	0.559015
C89	C	0.813405	-0.000085	0.059262
C90	C	1.313405	0.499915	0.559262
O91	O	0.867958	-0.085657	0.059842
O92	O	1.367958	0.414343	0.559842
O93	O	0.867991	0.085513	0.059794
O94	O	1.367991	0.585513	0.559794
C95	C	1.095718	0.046186	0.062119
C96	C	1.595718	0.546186	0.562119
C97	C	1.120925	-0.000069	0.062379
C98	C	1.620925	0.499931	0.562379
C99	C	1.095720	-0.046327	0.062129
C100	C	1.595720	0.453673	0.562129
C101	C	1.171339	-0.000067	0.062894
C102	C	1.671339	0.499933	0.562894
C103	C	1.196544	0.046191	0.063144
C104	C	1.696544	0.546191	0.563144
C105	C	1.171335	0.092446	0.062879
C106	C	1.671335	0.592446	0.562879
C107	C	1.120923	0.092444	0.062369
C108	C	1.620923	0.592444	0.562369
C109	C	1.120928	-0.092582	0.062394
C110	C	1.620928	0.407418	0.562394
C111	C	1.171341	-0.092576	0.062905
C112	C	1.671341	0.407424	0.562905
C113	C	1.196546	-0.046318	0.063155
C114	C	1.696546	0.453682	0.563155
C115	C	0.603636	-0.473366	0.028772
C116	C	1.103636	0.026634	0.528772
C117	C	0.603647	-0.687024	0.028765
C118	C	1.103647	-0.187024	0.528765
O119	O	0.631802	-0.714655	0.000603
O120	O	1.131802	-0.214655	0.500603
N121	N	0.570528	-0.713735	0.061863
N122	N	1.070528	-0.213735	0.561863
C123	C	0.537402	-0.687028	0.094963
C124	C	1.037402	-0.187028	0.594963
O125	O	0.509229	-0.714650	0.123112
O126	O	1.009229	-0.214650	0.623112
C127	C	0.537390	-0.473370	0.094967
C128	C	1.037390	0.026630	0.594967
C129	C	0.570514	-0.446662	0.061870
C130	C	1.070514	0.053338	0.561870
C131	C	0.636757	-0.446657	-0.004322
C132	C	1.136757	0.053343	0.495678
C133	C	0.636756	-0.393246	-0.004319
C134	C	1.136756	0.106754	0.495681
C135	C	0.603634	-0.366543	0.028780
C136	C	1.103634	0.133457	0.528780
C137	C	0.570513	-0.393251	0.061874
C138	C	1.070513	0.106749	0.561874
C139	C	0.504262	-0.446664	0.128065
C140	C	1.004262	0.053336	0.628065
C141	C	0.504261	-0.393246	0.128062
C142	C	1.004261	0.106754	0.628062
C143	C	0.537385	-0.366538	0.094965
C144	C	1.037385	0.133462	0.594965
C145	C	0.537389	-0.313136	0.094976
C146	C	1.037389	0.186864	0.594976
N147	N	0.570508	-0.286425	0.061878
N148	N	1.070508	0.213575	0.561878
C149	C	0.603630	-0.313128	0.028780
C150	C	1.103630	0.186872	0.528780
C151	C	0.537412	-0.799201	0.094959
C152	C	1.037412	-0.299201	0.594959
C153	C	0.537415	-0.852615	0.094959
C154	C	1.037415	-0.352615	0.594959
C155	C	0.603660	-0.852608	0.028760
C156	C	1.103660	-0.352608	0.528760
C157	C	0.603658	-0.799193	0.028763
C158	C	1.103658	-0.299193	0.528763
C159	C	0.570531	-0.772490	0.061861
C160	C	1.070531	-0.272490	0.561861
C161	C	0.603625	-0.200961	0.028791
C162	C	1.103625	0.299039	0.528791
C163	C	0.603622	-0.147544	0.028799
C164	C	1.103622	0.352456	0.528799
C165	C	0.537377	-0.147557	0.094996
C166	C	1.037377	0.352443	0.594996
C167	C	0.537381	-0.200968	0.094989
C168	C	1.037381	0.299032	0.594989
C169	C	0.570507	-0.227669	0.061883
C170	C	1.070507	0.272331	0.561883
O171	O	0.509245	-0.285472	0.123120
O172	O	1.009245	0.214528	0.623120
O173	O	0.631791	-0.285498	0.000629
O174	O	1.131791	0.214502	0.500629
C175	C	0.603637	-0.526777	0.028768
C176	C	1.103637	-0.026777	0.528768
C177	C	0.570516	-0.553485	0.061863
C178	C	1.070516	-0.053485	0.561863
C179	C	0.537394	-0.526782	0.094961
C180	C	1.037394	-0.026782	0.594961
C181	C	0.570520	-0.606899	0.061863
C182	C	1.070520	-0.106899	0.561863
C183	C	0.603642	-0.633603	0.028764
C184	C	1.103642	-0.133603	0.528764
C185	C	0.636761	-0.606892	-0.004334
C186	C	1.136761	-0.106892	0.495666
C187	C	0.636760	-0.553480	-0.004330
C188	C	1.136760	-0.053480	0.495670
C189	C	0.504275	-0.553493	0.128059
C190	C	1.004275	-0.053493	0.628059
C191	C	0.504279	-0.606904	0.128053
C192	C	1.004279	-0.106904	0.628053
C193	C	0.537402	-0.633608	0.094955
C194	C	1.037402	-0.133608	0.594955
N195	N	0.570538	0.120681	0.061861
N196	N	1.070538	0.620681	0.561861
C197	C	0.570773	0.046183	-0.412904
C198	C	1.070773	0.546183	0.087096
C199	C	0.568712	0.046192	-0.614562
C200	C	1.068712	0.546192	-0.114562
O201	O	0.568431	0.085532	-0.640638
O202	O	1.068431	0.585532	-0.140638
N203	N	0.568448	-0.000063	-0.639773
N204	N	1.068448	0.499937	-0.139773
C205	C	0.568696	-0.046325	-0.614566
C206	C	1.068696	0.453675	-0.114566
O207	O	0.568420	-0.085668	-0.640635
O208	O	1.068420	0.414332	-0.140635
C209	C	0.570754	-0.046333	-0.412908
C210	C	1.070754	0.453667	0.087092
C211	C	0.571023	-0.000075	-0.387700
C212	C	1.071023	0.499925	0.112300
C213	C	0.571041	0.092438	-0.387696
C214	C	1.071041	0.592438	0.112304
C215	C	0.571559	0.092435	-0.337285
C216	C	1.071559	0.592435	0.162715
C217	C	0.571809	0.046177	-0.312082
C218	C	1.071809	0.546177	0.187918
C219	C	0.571541	-0.000077	-0.337289
C220	C	1.071541	0.499923	0.162711
C221	C	0.570999	-0.092594	-0.387701
C222	C	1.070999	0.407406	0.112299
C223	C	0.571512	-0.092592	-0.337283
C224	C	1.071512	0.407408	0.162717
C225	C	0.571781	-0.046333	-0.312076
C226	C	1.071781	0.453667	0.187924
C227	C	0.572308	-0.046338	-0.261674
C228	C	1.072308	0.453662	0.238326
N229	N	0.572572	-0.000082	-0.236464
N230	N	1.072572	0.499918	0.263536
C231	C	0.572322	0.046175	-0.261667
C232	C	1.072322	0.546175	0.238333
C233	C	0.567617	-0.046317	-0.720439
C234	C	1.067617	0.453683	-0.220439
C235	C	0.567104	-0.046315	-0.770853
C236	C	1.067104	0.453685	-0.270853
C237	C	0.567118	0.046203	-0.770846
C238	C	1.067118	0.546203	-0.270846
C239	C	0.567635	0.046200	-0.720431
C240	C	1.067635	0.546200	-0.220431
C241	C	0.567881	-0.000061	-0.695228
C242	C	1.067881	0.499939	-0.195228
C243	C	0.573410	0.046166	-0.155800
C244	C	1.073410	0.546166	0.344200
C245	C	0.573930	0.046159	-0.105385
C246	C	1.073930	0.546159	0.394615
C247	C	0.573913	-0.046358	-0.105396
C248	C	1.073913	0.453642	0.394604
C249	C	0.573396	-0.046351	-0.155807
C250	C	1.073396	0.453649	0.344193
C251	C	0.573143	-0.000085	-0.181008
C252	C	1.073143	0.499915	0.318992
O253	O	0.572584	-0.085657	-0.235567
O254	O	1.072584	0.414343	0.264433
O255	O	0.572588	0.085513	-0.235587
O256	O	1.072588	0.585513	0.264413
C257	C	0.570255	0.046186	-0.463315
C258	C	1.070255	0.546186	0.036685
C259	C	0.569987	-0.000069	-0.488523
C260	C	1.069987	0.499931	0.011477
C261	C	0.570237	-0.046327	-0.463319
C262	C	1.070237	0.453673	0.036681
C263	C	0.569473	-0.000067	-0.538937
C264	C	1.069473	0.499933	-0.038937
C265	C	0.569224	0.046191	-0.564141
C266	C	1.069224	0.546191	-0.064141
C267	C	0.569488	0.092446	-0.538930
C268	C	1.069488	0.592446	-0.038930
C269	C	0.570005	0.092444	-0.488519
C270	C	1.070005	0.592444	0.011481
C271	C	0.569973	-0.092582	-0.488530
C272	C	1.069973	0.407418	0.011470
C273	C	0.569455	-0.092576	-0.538941
C274	C	1.069455	0.407424	-0.038941
C275	C	0.569206	-0.046318	-0.564145
C276	C	1.069206	0.453682	-0.064145
C277	C	0.566311	-0.000065	0.150287
C278	C	1.066311	0.499935	0.650287
C279	C	0.566854	-0.000057	0.203943
C280	C	1.066854	0.499943	0.703943
H281	H	0.808713	0.083840	0.059202
H282	H	1.308713	0.583840	0.559202
H283	H	0.663727	-0.371503	-0.031270
H284	H	1.163727	0.128497	0.468730
O285	O	0.942402	-0.142436	0.060638
O286	O	1.442402	0.357564	0.560638
H287	H	0.956550	-0.164701	0.027803
H288	H	1.456550	0.335299	0.527803
H289	H	0.569240	-0.130248	-0.559461
H290	H	1.069240	0.369752	-0.059461
H291	H	0.570177	-0.130252	-0.468014
H292	H	1.070177	0.369748	0.031986
H293	H	0.949168	0.130104	0.060624
H294	H	1.449168	0.630104	0.560624
H295	H	0.574150	0.083830	-0.084863
H296	H	1.074150	0.583830	0.415137
O297	O	0.672492	-0.475455	-0.040018
O298	O	1.172492	0.024545	0.459982
H299	H	0.695522	-0.447901	-0.063023
H300	H	1.195522	0.052099	0.436977
O301	O	0.815389	-0.096245	0.059299
O302	O	1.315389	0.403755	0.559299
H303	H	0.833802	-0.098455	0.092492
H304	H	1.333802	0.401545	0.592492
O305	O	0.710596	-0.096247	0.058234
O306	O	1.210596	0.403753	0.558234
H307	H	0.736591	-0.128415	0.058505
H308	H	1.236591	0.371585	0.558505
O309	O	0.639343	-0.118737	-0.006908
O310	O	1.139343	0.381263	0.493092
H311	H	0.662684	-0.094401	0.013274
H312	H	1.162684	0.405599	0.513274
O313	O	1.093740	0.142337	0.062070
O314	O	1.593740	0.642337	0.562070
H315	H	1.119745	0.174499	0.062320
H316	H	1.619745	0.674499	0.562320
O317	O	0.639359	-0.229756	-0.006910
O318	O	1.139359	0.270244	0.493090
H319	H	0.662391	-0.202204	-0.029915
H320	H	1.162391	0.297796	0.470085
H321	H	1.332313	0.083868	0.064532
H322	H	1.832313	0.583868	0.564532
O323	O	0.710595	0.096054	0.058196
O324	O	1.210595	0.596054	0.558196
H325	H	0.736596	0.128219	0.058446
H326	H	1.236596	0.628219	0.558446
O327	O	0.501684	-0.770403	0.130664
O328	O	1.001684	-0.270403	0.630664
H329	H	0.478662	-0.797955	0.153680
H330	H	0.978662	-0.297955	0.653680
O331	O	0.672489	-0.635702	-0.040030
O332	O	1.172489	-0.135702	0.459970
H333	H	0.695526	-0.608160	-0.063044
H334	H	1.195526	-0.108160	0.436956
H335	H	1.100412	-0.130252	0.062188
H336	H	1.600412	0.369748	0.562188
O337	O	0.468559	-0.635702	0.163768
O338	O	0.968559	-0.135702	0.663768
H339	H	0.430924	-0.625452	0.157872
H340	H	0.930924	-0.125452	0.657872
O341	O	0.566818	-0.096207	-0.798041
O342	O	1.066818	0.403793	-0.298041
H343	H	0.567073	-0.128371	-0.772040
H344	H	1.067073	0.371629	-0.272040
O345	O	0.573139	0.096066	-0.182977
O346	O	1.073139	0.596066	0.317023
H347	H	0.539942	0.098291	-0.201382
H348	H	1.039942	0.598291	0.298618
O349	O	1.047280	0.142334	0.061621
O350	O	1.547280	0.642334	0.561621
H351	H	1.021274	0.174492	0.061357
H352	H	1.521274	0.674492	0.561357
O353	O	0.571836	0.142328	-0.310098
O354	O	1.071836	0.642328	0.189902
H355	H	0.571568	0.174490	-0.336099
H356	H	1.071568	0.674490	0.163901
O357	O	1.198519	-0.142476	0.063192
O358	O	1.698519	0.357524	0.563192
H359	H	1.226046	-0.144698	0.030468
H360	H	1.726046	0.355302	0.530468
O361	O	0.639375	-0.770383	-0.006940
O362	O	1.139375	-0.270383	0.493060
H363	H	0.677011	-0.780630	-0.001047
H364	H	1.177011	-0.280630	0.498953
H365	H	1.423770	-0.083983	0.065489
H366	H	1.923770	0.416017	0.565489
H367	H	1.423779	0.083867	0.065461
H368	H	1.923779	0.583867	0.565461
H369	H	1.332322	-0.083990	0.064546
H370	H	1.832322	0.416010	0.564546
O371	O	0.639383	-0.881413	-0.006944
O372	O	1.139383	-0.381413	0.493056
H373	H	0.633814	-0.923041	-0.001383
H374	H	1.133814	-0.423041	0.498617
H375	H	0.570224	0.130112	-0.467999
H376	H	1.070224	0.630112	0.032001
O377	O	0.468547	-0.524700	0.163764
O378	O	0.968547	-0.024700	0.663764
H379	H	0.445204	-0.500368	0.143582
H380	H	0.945204	-0.000368	0.643582
H381	H	0.570836	0.130109	-0.408212
H382	H	1.070836	0.630109	0.091788
H383	H	0.566915	0.083867	-0.791376
H384	H	1.066915	0.583867	-0.291376
H385	H	0.510448	-0.874358	0.121915
H386	H	1.010448	-0.374358	0.621915
H387	H	0.574118	-0.084019	-0.084867
H388	H	1.074118	0.415981	0.415133
H389	H	0.477289	-0.468403	0.155015
H390	H	0.977289	0.031597	0.655015
H391	H	1.040616	-0.130263	0.061573
H392	H	1.540616	0.369737	0.561573
H393	H	0.477283	-0.371508	0.155014
H394	H	0.977283	0.128492	0.655014
O395	O	0.501657	-0.229780	0.130686
O396	O	1.001657	0.270220	0.630686
H397	H	0.478623	-0.202235	0.153700
H398	H	0.978623	0.297765	0.653700
H399	H	0.510410	-0.125806	0.121945
H400	H	1.010410	0.374194	0.621945
O401	O	1.198526	0.142341	0.063141
O402	O	1.698526	0.642341	0.563141
H403	H	1.237817	0.134565	0.063534
H404	H	1.737817	0.634565	0.563534
H405	H	0.663733	-0.531738	-0.031281
H406	H	1.163733	-0.031738	0.468719
H407	H	0.567853	0.083868	-0.699911
H408	H	1.067853	0.583868	-0.199911
H409	H	0.567819	-0.083990	-0.699923
H410	H	1.067819	0.416010	-0.199923
O411	O	0.570707	-0.142488	-0.414882
O412	O	1.070707	0.357512	0.085118
H413	H	0.537838	-0.164655	-0.400646
H414	H	1.037838	0.335345	0.099354
O415	O	0.571783	-0.142489	-0.310099
O416	O	1.071783	0.357511	0.189901
H417	H	0.571514	-0.174651	-0.336102
H418	H	1.071514	0.325349	0.163898
O419	O	0.573107	-0.096242	-0.183001
O420	O	1.073107	0.403758	0.316999
H421	H	0.573366	-0.128408	-0.157003
H422	H	1.073366	0.371592	0.342997
H423	H	0.569286	0.130111	-0.559460
H424	H	1.069286	0.630111	-0.059460
