data_functionalizedCrystal
_audit_creation_method	'MofGen! by Chris Wilmer'
_symmetry_space_group_name_H-M	'P1'
_symmetry_Int_Tables_number	1
_symmetry_cell_setting	triclinic
loop_
_symmetry_equiv_pos_as_xyz
  x,y,z
_cell_length_a	27.732048
_cell_length_b	27.732064
_cell_length_c	15.072220
_cell_angle_alpha	90.005274
_cell_angle_beta	89.998491
_cell_angle_gamma	82.646039
loop_
_atom_site_label
_atom_site_type_symbol
_atom_site_fract_x
_atom_site_fract_y
_atom_site_fract_z
O1	O	0.640930	0.057520	0.073661
O2	O	1.140930	0.557520	0.573661
O3	O	0.500137	0.066265	0.073687
O4	O	1.000137	0.566265	0.573687
O5	O	0.574902	-0.008504	0.073676
O6	O	1.074902	0.491496	0.573676
O7	O	0.566165	0.132289	0.073671
O8	O	1.066165	0.632289	0.573671
O9	O	0.574897	-0.008513	-0.073889
O10	O	1.074897	0.491487	0.426111
O11	O	0.500132	0.066256	-0.073879
O12	O	1.000132	0.566256	0.426121
O13	O	0.640925	0.057511	-0.073904
O14	O	1.140925	0.557511	0.426096
Zn15	Zn	0.570528	0.061882	-0.097320
Zn16	Zn	1.070528	0.561882	0.402680
Zn17	Zn	0.570534	0.061894	0.097103
Zn18	Zn	1.070534	0.561894	0.597103
O19	O	0.566160	0.132280	-0.073894
O20	O	1.066160	0.632280	0.426106
C21	C	0.574715	-0.026515	-0.000103
C22	C	1.074715	0.473485	0.499897
C23	C	0.574159	-0.080169	-0.000095
C24	C	1.074159	0.419831	0.499905
C25	C	0.482127	0.066077	-0.000093
C26	C	0.982127	0.566077	0.499907
C27	C	0.428473	0.065524	-0.000082
C28	C	0.928473	0.565524	0.499918
C29	C	0.526192	-0.457242	-0.000083
C30	C	1.026192	0.042758	0.499917
C31	C	0.528238	-0.255582	-0.000082
C32	C	1.028238	0.244418	0.499918
O33	O	0.491017	-0.224329	-0.000040
O34	O	0.991017	0.275671	0.499960
N35	N	0.572572	-0.236454	-0.000090
N36	N	1.072572	0.263546	0.499910
C37	C	0.616398	-0.267745	-0.000092
C38	C	1.116398	0.232255	0.499908
O39	O	0.654154	-0.246849	-0.000090
O40	O	1.154154	0.253151	0.499910
C41	C	0.614351	-0.469405	-0.000087
C42	C	1.114351	0.030595	0.499913
C43	C	0.570014	-0.488529	-0.000088
C44	C	1.070014	0.011471	0.499912
C45	C	0.481858	-0.476367	-0.000083
C46	C	0.981858	0.023633	0.499917
C47	C	0.481347	-0.526779	-0.000088
C48	C	0.981347	-0.026779	0.499912
C49	C	0.525169	-0.558066	-0.000093
C50	C	1.025169	-0.058066	0.499907
C51	C	0.569503	-0.538941	-0.000093
C52	C	1.069503	-0.038941	0.499907
C53	C	0.658177	-0.500695	-0.000083
C54	C	1.158177	-0.000695	0.499917
C55	C	0.657661	-0.551112	-0.000079
C56	C	1.157661	-0.051112	0.499921
C57	C	0.613324	-0.570237	-0.000080
C58	C	1.113324	-0.070237	0.499920
C59	C	0.612814	-0.620640	-0.000103
C60	C	1.112814	-0.120640	0.499897
N61	N	0.568480	-0.639768	-0.000095
N62	N	1.068480	-0.139768	0.499905
C63	C	0.524658	-0.608481	-0.000090
C64	C	1.024658	-0.108481	0.499910
C65	C	0.617469	-0.161871	-0.000097
C66	C	1.117469	0.338129	0.499903
C67	C	0.617981	-0.111456	-0.000100
C68	C	1.117981	0.388544	0.499900
C69	C	0.529821	-0.099296	-0.000088
C70	C	1.029821	0.400704	0.499912
C71	C	0.529310	-0.149712	-0.000091
C72	C	1.029310	0.350288	0.499909
C73	C	0.573135	-0.180998	-0.000089
C74	C	1.073135	0.319002	0.499911
C75	C	0.523588	-0.714350	-0.000101
C76	C	1.023588	-0.214350	0.499899
C77	C	0.523080	-0.764767	-0.000110
C78	C	1.023080	-0.264767	0.499890
C79	C	0.611241	-0.776923	-0.000117
C80	C	1.111241	-0.276923	0.499883
C81	C	0.611748	-0.726511	-0.000113
C82	C	1.111748	-0.226511	0.499887
C83	C	0.567918	-0.695225	-0.000102
C84	C	1.067918	-0.195225	0.499898
O85	O	0.650016	-0.651921	-0.000135
O86	O	1.150016	-0.151921	0.499865
O87	O	0.486907	-0.629387	-0.000072
O88	O	0.986907	-0.129387	0.499928
C89	C	0.526703	-0.406830	-0.000078
C90	C	1.026703	0.093170	0.499922
C91	C	0.571036	-0.387705	-0.000078
C92	C	1.071036	0.112295	0.499922
C93	C	0.614859	-0.418992	-0.000083
C94	C	1.114859	0.081008	0.499917
C95	C	0.571548	-0.337290	-0.000081
C96	C	1.071548	0.162710	0.499919
C97	C	0.527726	-0.306003	-0.000076
C98	C	1.027726	0.193997	0.499924
C99	C	0.483391	-0.325131	-0.000068
C100	C	0.983391	0.174869	0.499932
C101	C	0.482880	-0.375543	-0.000073
C102	C	0.982880	0.124457	0.499927
C103	C	0.659193	-0.399865	-0.000091
C104	C	1.159193	0.100135	0.499909
C105	C	0.659701	-0.349452	-0.000087
C106	C	1.159701	0.150548	0.499913
C107	C	0.615878	-0.318165	-0.000082
C108	C	1.115878	0.181835	0.499918
C109	C	0.089660	0.106228	-0.000122
C110	C	0.589660	0.606228	0.499878
C111	C	-0.112000	0.104177	-0.000130
C112	C	0.388000	0.604177	0.499870
O113	O	-0.143253	0.141397	-0.000170
O114	O	0.356747	0.641397	0.499830
N115	N	-0.131126	0.059842	-0.000127
N116	N	0.368874	0.559842	0.499873
C117	C	-0.099834	0.016017	-0.000128
C118	C	0.400166	0.516017	0.499872
O119	O	-0.120729	-0.021740	-0.000134
O120	O	0.379271	0.478260	0.499866
C121	C	0.101825	0.018068	-0.000126
C122	C	0.601825	0.518068	0.499874
C123	C	0.120948	0.062406	-0.000120
C124	C	0.620948	0.562406	0.499880
C125	C	0.108784	0.150562	-0.000118
C126	C	0.608784	0.650562	0.499882
C127	C	0.159196	0.151074	-0.000111
C128	C	0.659196	0.651074	0.499889
C129	C	0.190484	0.107252	-0.000109
C130	C	0.690484	0.607252	0.499891
C131	C	0.171360	0.062918	-0.000114
C132	C	0.671360	0.562918	0.499886
C133	C	0.133116	-0.025756	-0.000133
C134	C	0.633116	0.474244	0.499867
C135	C	0.183533	-0.025240	-0.000135
C136	C	0.683533	0.474760	0.499865
C137	C	0.202656	0.019098	-0.000129
C138	C	0.702656	0.519098	0.499871
C139	C	0.253060	0.019609	-0.000105
C140	C	0.753060	0.519609	0.499895
N141	N	0.272186	0.063944	-0.000108
N142	N	0.772186	0.563944	0.499892
C143	C	0.240898	0.107765	-0.000110
C144	C	0.740898	0.607765	0.499890
C145	C	-0.205708	0.014943	-0.000127
C146	C	0.294292	0.514943	0.499873
C147	C	-0.256123	0.014430	-0.000125
C148	C	0.243877	0.514430	0.499875
C149	C	-0.268285	0.102590	-0.000130
C150	C	0.231715	0.602590	0.499870
C151	C	-0.217870	0.103103	-0.000125
C152	C	0.282130	0.603103	0.499875
C153	C	-0.186582	0.059278	-0.000130
C154	C	0.313418	0.559278	0.499870
C155	C	0.346768	0.108838	-0.000095
C156	C	0.846768	0.608838	0.499905
C157	C	0.397185	0.109346	-0.000084
C158	C	0.897185	0.609346	0.499916
C159	C	0.409342	0.021186	-0.000085
C160	C	0.909342	0.521186	0.499915
C161	C	0.358930	0.020678	-0.000091
C162	C	0.858930	0.520678	0.499909
C163	C	0.327643	0.064507	-0.000099
C164	C	0.827643	0.564507	0.499901
O165	O	0.284342	-0.017592	-0.000075
O166	O	0.784342	0.482408	0.499925
O167	O	0.261803	0.145516	-0.000123
O168	O	0.761803	0.645516	0.499877
C169	C	0.039248	0.105716	-0.000129
C170	C	0.539248	0.605716	0.499871
C171	C	0.020124	0.061381	-0.000134
C172	C	0.520124	0.561381	0.499866
C173	C	0.051412	0.017560	-0.000132
C174	C	0.551412	0.517560	0.499868
C175	C	-0.030290	0.060868	-0.000133
C176	C	0.469710	0.560868	0.499867
C177	C	-0.061578	0.104690	-0.000135
C178	C	0.438422	0.604690	0.499865
C179	C	-0.042452	0.149025	-0.000138
C180	C	0.457548	0.649025	0.499862
C181	C	0.007960	0.149537	-0.000131
C182	C	0.507960	0.649537	0.499869
C183	C	0.032286	-0.026775	-0.000129
C184	C	0.532286	0.473225	0.499871
C185	C	-0.018127	-0.027284	-0.000134
C186	C	0.481873	0.472716	0.499866
C187	C	-0.049415	0.016538	-0.000136
C188	C	0.450585	0.516538	0.499864
C189	C	0.658934	0.057699	-0.000123
C190	C	1.158934	0.557699	0.499877
C191	C	0.712589	0.058252	-0.000127
C192	C	1.212589	0.558252	0.499873
C193	C	0.566347	0.150291	-0.000112
C194	C	1.066347	0.650291	0.499888
C195	C	0.566903	0.203945	-0.000115
C196	C	1.066903	0.703945	0.499885
N197	N	0.570527	0.061874	-0.230009
N198	N	1.070527	0.561874	0.269991
C199	C	0.570534	0.061890	-0.589211
C200	C	1.070534	0.561890	-0.089211
C201	C	0.610668	0.022015	-0.551582
C202	C	1.110668	0.522015	-0.051582
C203	C	0.610565	0.021869	-0.448756
C204	C	1.110565	0.521869	0.051244
C205	C	0.570531	0.061882	-0.411007
C206	C	1.070531	0.561882	0.088993
C207	C	0.520180	0.051243	-0.448340
C208	C	1.020180	0.551243	0.051660
C209	C	0.520418	0.050962	-0.551198
C210	C	1.020418	0.550962	-0.051198
C211	C	0.580297	0.112525	-0.551292
C212	C	1.080297	0.612525	-0.051292
C213	C	0.581445	0.112176	-0.448428
C214	C	1.081445	0.612176	0.051572
C215	C	0.570526	0.061878	-0.310293
C216	C	1.070526	0.561878	0.189707
C217	C	0.570536	0.061893	-0.689924
C218	C	1.070536	0.561893	-0.189924
N219	N	0.570539	0.061898	0.229792
N220	N	1.070539	0.561898	0.729792
H221	H	0.486974	-0.780335	-0.000115
H222	H	0.986974	-0.280335	0.499885
C223	C	0.661056	0.030415	-0.321770
C224	C	1.161056	0.530415	0.178230
C225	C	0.661069	0.030474	-0.414672
C226	C	1.161069	0.530474	0.085328
H227	H	0.692226	0.035767	-0.300733
H228	H	1.192226	0.535767	0.199267
H229	H	0.653637	-0.000092	-0.300847
H230	H	1.153637	0.499908	0.199153
H231	H	0.637301	0.055537	-0.300726
H232	H	1.137301	0.555537	0.199274
H233	H	0.684822	0.005350	-0.435716
H234	H	1.184822	0.505350	0.064284
H235	H	0.668494	0.060985	-0.435603
H236	H	1.168494	0.560985	0.064397
C237	C	0.501575	-0.028195	-0.510357
C238	C	1.001575	0.471805	-0.010357
C239	C	0.508728	0.001127	-0.583599
C240	C	1.008728	0.501127	-0.083599
H241	H	0.494361	-0.058962	-0.530360
H242	H	0.994361	0.441038	-0.030360
H243	H	0.475263	-0.013031	-0.475787
H244	H	0.975263	0.486969	0.024213
H245	H	0.530256	-0.032484	-0.475261
H246	H	1.030256	0.467516	0.024739
H247	H	0.480046	0.005419	-0.618693
H248	H	0.980046	0.505419	-0.118693
H249	H	0.535042	-0.014040	-0.618184
H250	H	1.035042	0.485960	-0.118184
H251	H	0.174761	0.187179	-0.000106
H252	H	0.674761	0.687179	0.499894
H253	H	0.648234	0.028187	-0.576318
H254	H	1.148234	0.528187	-0.076318
C255	C	0.477588	-0.199342	0.075777
C256	C	0.977588	0.300658	0.575777
C257	C	0.480574	-0.170733	-0.000084
C258	C	0.980574	0.329267	0.499916
H259	H	0.447500	-0.212320	0.075779
H260	H	0.947500	0.287680	0.575779
H261	H	0.479620	-0.179923	0.127223
H262	H	0.979620	0.320077	0.627223
H263	H	0.503614	-0.225193	0.075767
H264	H	1.003614	0.274807	0.575767
H265	H	0.454550	-0.144880	-0.000070
H266	H	0.954550	0.355120	0.499930
H267	H	0.478537	-0.190153	-0.051543
H268	H	0.978537	0.309847	0.448457
H269	H	0.694281	-0.485133	-0.000081
H270	H	1.194281	0.014867	0.499919
C271	C	-0.234967	0.190191	-0.000130
C272	C	0.265033	0.690191	0.499870
C273	C	-0.196852	0.151840	-0.000129
C274	C	0.303148	0.651840	0.499871
H275	H	-0.221992	0.220280	-0.000139
H276	H	0.278008	0.720280	0.499861
H277	H	-0.254375	0.188159	0.051329
H278	H	0.245625	0.688159	0.551329
H279	H	-0.254378	0.188148	-0.051590
H280	H	0.245622	0.688148	0.448410
H281	H	-0.177443	0.153881	0.051335
H282	H	0.322557	0.653881	0.551335
H283	H	-0.177436	0.153873	-0.051592
H284	H	0.322564	0.653873	0.448408
H285	H	0.551027	0.142195	-0.575631
H286	H	1.051027	0.642195	-0.075631
C287	C	0.431274	-0.412617	0.075777
C288	C	0.931274	0.087383	0.575777
C289	C	0.433682	-0.441982	-0.000079
C290	C	0.933682	0.058018	0.499921
H291	H	0.401528	-0.391395	0.075775
H292	H	0.901528	0.108605	0.575775
H293	H	0.457742	-0.394006	0.075768
H294	H	0.957742	0.105994	0.575768
H295	H	0.432911	-0.432539	0.127232
H296	H	0.932911	0.067461	0.627232
H297	H	0.432049	-0.422061	-0.051534
H298	H	0.932049	0.077939	0.448466
H299	H	0.407207	-0.460595	-0.000078
H300	H	0.907207	0.039405	0.499922
H301	H	0.511296	0.014750	-0.422585
H302	H	1.011296	0.514750	0.077415
H303	H	0.646920	-0.802406	-0.000125
H304	H	1.146920	-0.302406	0.499875
C305	C	0.436393	-0.707408	-0.000101
C306	C	0.936393	-0.207408	0.499899
C307	C	0.475409	-0.679966	-0.000096
C308	C	0.975409	-0.179966	0.499904
H309	H	0.406651	-0.686180	-0.000108
H310	H	0.906651	-0.186180	0.499892
H311	H	0.438029	-0.727321	0.051354
H312	H	0.938029	-0.227321	0.551354
H313	H	0.438036	-0.727329	-0.051565
H314	H	0.938036	-0.227329	0.448435
H315	H	0.473768	-0.660048	0.051371
H316	H	0.973768	-0.160048	0.551371
H317	H	0.473772	-0.660045	-0.051557
H318	H	0.973772	-0.160045	0.448443
H319	H	0.117555	-0.061861	-0.000138
H320	H	0.617555	0.438139	0.499862
C321	C	0.595058	-0.058794	-0.514822
C322	C	1.095058	0.441206	-0.014822
C323	C	0.602423	-0.028438	-0.586469
C324	C	1.102423	0.471562	-0.086469
H325	H	0.589969	-0.089941	-0.536362
H326	H	1.089969	0.410059	-0.036362
H327	H	0.567363	-0.045129	-0.482103
H328	H	1.067363	0.454871	0.017897
H329	H	0.622853	-0.061905	-0.477420
H330	H	1.122853	0.438095	0.022580
H331	H	0.574626	-0.025325	-0.623867
H332	H	1.074626	0.474675	-0.123867
H333	H	0.630121	-0.042107	-0.619203
H334	H	1.130121	0.457893	-0.119203
H335	H	0.647851	-0.710939	-0.000125
H336	H	1.147851	-0.210939	0.499875
H337	H	0.209006	-0.060928	-0.000140
H338	H	0.709006	0.439072	0.499860
H339	H	0.445243	-0.542345	-0.000081
H340	H	0.945243	-0.042345	0.499919
C341	C	0.408407	-0.299234	0.075802
C342	C	0.908407	0.200766	0.575802
C343	C	0.435220	-0.290734	-0.000059
C344	C	0.935220	0.209266	0.499941
H345	H	0.378669	-0.277999	0.075807
H346	H	0.878669	0.222001	0.575807
H347	H	0.426606	-0.293470	0.127248
H348	H	0.926606	0.206530	0.627248
H349	H	0.401756	-0.331995	0.075790
H350	H	0.901756	0.168005	0.575790
H351	H	0.441874	-0.257973	-0.000043
H352	H	0.941874	0.242027	0.499957
H353	H	0.417017	-0.296494	-0.051518
H354	H	0.917017	0.203506	0.448482
H355	H	-0.293769	0.138272	-0.000132
H356	H	0.206231	0.638272	0.499868
H357	H	0.494139	-0.073813	-0.000088
H358	H	0.994139	0.426187	0.499912
H359	H	-0.271688	-0.021674	-0.000116
H360	H	0.228312	0.478326	0.499884
H361	H	0.695808	-0.333886	-0.000093
H362	H	1.195808	0.166114	0.499907
H363	H	0.604366	-0.015715	-0.424156
H364	H	1.104366	0.484285	0.075844
C365	C	0.696030	-0.633794	-0.000077
C366	C	1.196030	-0.133794	0.499923
C367	C	0.705836	-0.585503	-0.000077
C368	C	1.205836	-0.085503	0.499923
H369	H	0.725772	-0.655023	-0.000072
H370	H	1.225772	-0.155023	0.499928
H371	H	0.677841	-0.639558	-0.051534
H372	H	1.177841	-0.139558	0.448466
H373	H	0.677834	-0.639551	0.051385
H374	H	1.177834	-0.139551	0.551385
H375	H	0.724030	-0.579744	-0.051543
H376	H	1.224030	-0.079744	0.448457
H377	H	0.724034	-0.579736	0.051385
H378	H	1.224034	-0.079736	0.551385
C379	C	0.746384	-0.406810	-0.000115
C380	C	1.246384	0.093190	0.499885
C381	C	0.707367	-0.434251	-0.000106
C382	C	1.207367	0.065749	0.499894
H383	H	0.776126	-0.428038	-0.000134
H384	H	1.276126	0.071962	0.499866
H385	H	0.744750	-0.386896	0.051345
H386	H	1.244750	0.113104	0.551345
H387	H	0.744738	-0.386890	-0.051573
H388	H	1.244738	0.113110	0.448427
H389	H	0.709010	-0.454168	0.051356
H390	H	1.209010	0.045832	0.551356
H391	H	0.709001	-0.454174	-0.051572
H392	H	1.209001	0.045826	0.448428
C393	C	0.555520	0.198169	-0.448618
C394	C	1.055520	0.698169	0.051382
C395	C	0.544504	0.154075	-0.413741
C396	C	1.044504	0.654075	0.086259
H397	H	0.532713	0.224034	-0.427198
H398	H	1.032713	0.724034	0.072802
H399	H	0.553979	0.197151	-0.511534
H400	H	1.053979	0.697151	-0.011534
H401	H	0.587338	0.203228	-0.430762
H402	H	1.087338	0.703228	0.069238
H403	H	0.512687	0.149014	-0.431603
H404	H	1.012687	0.649014	0.068397
H405	H	0.546040	0.155093	-0.350812
H406	H	1.046040	0.655093	0.149188
C407	C	0.453935	0.111449	-0.512287
C408	C	0.953935	0.611449	-0.012287
C409	C	0.478908	0.088691	-0.584809
C410	C	0.978908	0.588691	-0.084809
H411	H	0.428304	0.134735	-0.533037
H412	H	0.928304	0.634735	-0.033037
H413	H	0.475727	0.127261	-0.477379
H414	H	0.975727	0.627261	0.022621
H415	H	0.440831	0.087785	-0.477271
H416	H	0.940831	0.587785	0.022729
H417	H	0.492016	0.112355	-0.619822
H418	H	0.992016	0.612355	-0.119822
H419	H	0.457112	0.072879	-0.619732
H420	H	0.957112	0.572879	-0.119732
H421	H	0.654085	-0.095890	-0.000113
H422	H	1.154085	0.404110	0.499887
H423	H	0.653160	-0.187341	-0.000097
H424	H	1.153160	0.312659	0.499903
C425	C	0.380091	0.196440	-0.000094
C426	C	0.880091	0.696440	0.499906
C427	C	0.418204	0.158086	-0.000084
C428	C	0.918204	0.658086	0.499916
H429	H	0.393067	0.226527	-0.000101
H430	H	0.893067	0.726527	0.499899
H431	H	0.360679	0.194409	0.051360
H432	H	0.860679	0.694409	0.551360
H433	H	0.360683	0.194397	-0.051559
H434	H	0.860683	0.694397	0.448441
H435	H	0.437610	0.160126	0.051384
H436	H	0.937610	0.660126	0.551384
H437	H	0.437624	0.160117	-0.051544
H438	H	0.937624	0.660117	0.448456
C439	C	0.283019	0.159417	0.075758
C440	C	0.783019	0.659417	0.575758
C441	C	0.312381	0.157015	-0.000096
C442	C	0.812381	0.657015	0.499904
H443	H	0.261788	0.189157	0.075758
H444	H	0.761788	0.689157	0.575758
H445	H	0.302937	0.157784	0.127208
H446	H	0.802937	0.657784	0.627208
H447	H	0.264411	0.132940	0.075744
H448	H	0.764411	0.632940	0.575744
H449	H	0.330991	0.183489	-0.000078
H450	H	0.830991	0.683489	0.499922
H451	H	0.292460	0.158652	-0.051560
H452	H	0.792460	0.658652	0.448440
H453	H	0.489611	0.079529	-0.423888
H454	H	0.989611	0.579529	0.076112
H455	H	0.618483	0.120258	-0.424028
H456	H	1.118483	0.620258	0.075972
C457	C	0.101840	0.237752	-0.000106
C458	C	0.601840	0.737752	0.499894
C459	C	0.074397	0.198737	-0.000112
C460	C	0.574397	0.698737	0.499888
H461	H	0.080612	0.267495	-0.000091
H462	H	0.580612	0.767495	0.499909
H463	H	0.121754	0.236115	-0.051565
H464	H	0.621754	0.736115	0.448435
H465	H	0.121760	0.236110	0.051354
H466	H	0.621760	0.736110	0.551354
H467	H	0.054480	0.200377	-0.051575
H468	H	0.554480	0.700377	0.448425
H469	H	0.054475	0.200375	0.051353
H470	H	0.554475	0.700375	0.551353
C471	C	0.376018	-0.066413	-0.000080
C472	C	0.876018	0.433587	0.499920
C473	C	0.337906	-0.028058	-0.000087
C474	C	0.837906	0.471942	0.499913
H475	H	0.363041	-0.096501	-0.000088
H476	H	0.863041	0.403499	0.499912
H477	H	0.395422	-0.064376	0.051381
H478	H	0.895422	0.435624	0.551381
H479	H	0.395434	-0.064379	-0.051537
H480	H	0.895434	0.435621	0.448463
H481	H	0.318492	-0.030091	0.051374
H482	H	0.818492	0.469909	0.551374
H483	H	0.318494	-0.030097	-0.051554
H484	H	0.818494	0.469903	0.448446
C485	C	-0.198761	-0.072251	-0.000113
C486	C	0.301239	0.427749	0.499887
C487	C	-0.171320	-0.033234	-0.000122
C488	C	0.328680	0.466766	0.499878
H489	H	-0.177532	-0.101993	-0.000102
H490	H	0.322468	0.398007	0.499898
H491	H	-0.218675	-0.070619	-0.051570
H492	H	0.281325	0.429381	0.448430
H493	H	-0.218681	-0.070605	0.051349
H494	H	0.281319	0.429395	0.551349
H495	H	-0.151403	-0.034878	-0.051588
H496	H	0.348597	0.465122	0.448412
H497	H	-0.151398	-0.034867	0.051340
H498	H	0.348602	0.465133	0.551340
H499	H	0.023525	0.185642	-0.000128
H500	H	0.523525	0.685642	0.499872
C501	C	0.473101	-0.029371	0.075768
C502	C	0.973101	0.470629	0.575768
C503	C	0.443743	-0.026980	-0.000087
C504	C	0.943743	0.473020	0.499913
H505	H	0.494341	-0.059106	0.075758
H506	H	0.994341	0.440894	0.575758
H507	H	0.453181	-0.027746	0.127218
H508	H	0.953181	0.472254	0.627218
H509	H	0.491699	-0.002887	0.075764
H510	H	0.991699	0.497113	0.575764
H511	H	0.425142	-0.053462	-0.000079
H512	H	0.925142	0.446538	0.499921
H513	H	0.463666	-0.028610	-0.051550
H514	H	0.963666	0.471390	0.448450
H515	H	-0.067936	0.184706	-0.000136
H516	H	0.432064	0.684706	0.499864
C517	C	-0.001028	-0.114377	-0.000146
C518	C	0.498972	0.385623	0.499854
C519	C	-0.039143	-0.076025	-0.000143
C520	C	0.460857	0.423975	0.499857
H521	H	-0.014003	-0.144466	-0.000163
H522	H	0.485997	0.355534	0.499837
H523	H	0.018376	-0.112342	0.051316
H524	H	0.518376	0.387658	0.551316
H525	H	0.018387	-0.112336	-0.051603
H526	H	0.518387	0.387664	0.448397
H527	H	-0.058556	-0.078063	0.051317
H528	H	0.441444	0.421937	0.551317
H529	H	-0.058555	-0.078061	-0.051610
H530	H	0.441445	0.421939	0.448390
C531	C	0.096039	-0.077360	-0.075971
C532	C	0.596039	0.422640	0.424029
C533	C	0.066674	-0.074948	-0.000120
C534	C	0.566674	0.425052	0.499880
H535	H	0.117265	-0.107103	-0.075962
H536	H	0.617265	0.392897	0.424038
H537	H	0.114647	-0.050889	-0.075966
H538	H	0.614647	0.449111	0.424034
H539	H	0.076118	-0.075730	-0.127429
H540	H	0.576118	0.424270	0.372571
H541	H	0.086594	-0.076574	0.051338
H542	H	0.586594	0.423426	0.551338
H543	H	0.048064	-0.101426	-0.000118
H544	H	0.548064	0.398574	0.499882
C545	C	0.650524	0.089702	-0.642429
C546	C	1.150524	0.589702	-0.142429
C547	C	0.628780	0.126453	-0.586295
C548	C	1.128780	0.626453	-0.086295
H549	H	0.680459	0.098296	-0.664032
H550	H	1.180459	0.598296	-0.164032
H551	H	0.629484	0.085853	-0.690929
H552	H	1.129484	0.585853	-0.190929
H553	H	0.656384	0.060034	-0.610387
H554	H	1.156384	0.560034	-0.110387
H555	H	0.622916	0.156120	-0.618339
H556	H	1.122916	0.656120	-0.118339
H557	H	0.649824	0.130308	-0.537788
H558	H	1.149824	0.630308	-0.037788
H559	H	0.446776	-0.391109	-0.000074
H560	H	0.946776	0.108891	0.499926
