data_functionalizedCrystal
_audit_creation_method	'MofGen! by Chris Wilmer'
_symmetry_space_group_name_H-M	'P1'
_symmetry_Int_Tables_number	1
_symmetry_cell_setting	triclinic
loop_
_symmetry_equiv_pos_as_xyz
  x,y,z
_cell_length_a	16.625546
_cell_length_b	16.625547
_cell_length_c	10.686551
_cell_angle_alpha	85.596409
_cell_angle_beta	94.409858
_cell_angle_gamma	89.978346
loop_
_atom_site_label
_atom_site_type_symbol
_atom_site_fract_x
_atom_site_fract_y
_atom_site_fract_z
Zn1	Zn	-0.285972	-1.267702	0.713705
Zn2	Zn	0.047361	-0.934369	1.047038
Zn3	Zn	0.380694	-0.601036	1.380371
Zn4	Zn	-0.431177	-1.257250	0.502682
Zn5	Zn	-0.097844	-0.923917	0.836015
Zn6	Zn	0.235489	-0.590584	1.169348
Zn7	Zn	-0.296360	-1.122509	0.502686
Zn8	Zn	0.036973	-0.789176	0.836020
Zn9	Zn	0.370306	-0.455843	1.169353
Zn10	Zn	-0.420770	-1.132830	0.713606
Zn11	Zn	-0.087436	-0.799496	1.046939
Zn12	Zn	0.245897	-0.466163	1.380273
O13	O	-0.358570	-1.195073	0.608170
O14	O	-0.025237	-0.861740	0.941503
O15	O	0.308097	-0.528406	1.274836
O16	O	-0.305242	-1.379150	0.685752
O17	O	0.028091	-1.045817	1.019085
O18	O	0.361424	-0.712483	1.352418
O19	O	-0.421997	-1.230684	0.326098
O20	O	-0.088663	-0.897350	0.659431
O21	O	0.244670	-0.564017	0.992765
O22	O	-0.182148	-1.141824	0.530722
O23	O	0.151185	-0.808491	0.864055
O24	O	0.484519	-0.475158	1.197388
O25	O	-0.411924	-1.371471	0.530714
O26	O	-0.078591	-1.038138	0.864047
O27	O	0.254743	-0.704805	1.197381
O28	O	-0.174516	-1.248497	0.685756
O29	O	0.158817	-0.915164	1.019089
O30	O	0.492151	-0.581830	1.352423
O31	O	-0.322947	-1.131690	0.326101
O32	O	0.010386	-0.798357	0.659435
O33	O	0.343719	-0.465023	0.992768
O34	O	-0.312855	-1.011044	0.530626
O35	O	0.020478	-0.677711	0.863959
O36	O	0.353811	-0.344377	1.197293
O37	O	-0.394185	-1.159414	0.890203
O38	O	-0.060852	-0.826081	1.223537
O39	O	0.272481	-0.492747	1.556870
O40	O	-0.404258	-1.018626	0.685588
O41	O	-0.070925	-0.685293	1.018921
O42	O	0.262408	-0.351960	1.352254
O43	O	-0.295150	-1.258504	0.890276
O44	O	0.038183	-0.925171	1.223609
O45	O	0.371516	-0.591838	1.556943
O46	O	-0.542631	-1.240691	0.530618
O47	O	-0.209298	-0.907357	0.863951
O48	O	0.124035	-0.574024	1.197285
O49	O	-0.534985	-1.149279	0.685583
O50	O	-0.201652	-0.815946	1.018916
O51	O	0.131682	-0.482613	1.352250
C52	C	-0.358555	-0.985579	0.608097
C53	C	-0.025222	-0.652245	0.941431
C54	C	0.308112	-0.318912	1.274764
C55	C	-0.358567	-0.895957	0.608096
C56	C	-0.025233	-0.562624	0.941430
C57	C	0.308100	-0.229291	1.274763
C58	C	-0.358567	-0.823175	0.608107
C59	C	-0.025233	-0.489842	0.941441
C60	C	0.308100	-0.156509	1.274774
C61	C	-0.358569	-0.731868	0.608133
C62	C	-0.025235	-0.398535	0.941467
C63	C	0.308098	-0.065202	1.274800
C64	C	-0.358574	-0.659093	0.608161
C65	C	-0.025240	-0.325760	0.941494
C66	C	0.308093	0.007573	1.274828
C67	C	-0.358577	-0.567780	0.608186
C68	C	-0.025244	-0.234447	0.941519
C69	C	0.308090	0.098887	1.274852
C70	C	-0.568063	-1.194994	0.608117
C71	C	-0.234730	-0.861661	0.941450
C72	C	0.098603	-0.528327	1.274784
C73	C	-0.657684	-1.195036	0.608137
C74	C	-0.324350	-0.861703	0.941470
C75	C	0.008983	-0.528369	1.274803
C76	C	-0.985853	-1.195183	0.608268
C77	C	-0.652519	-0.861850	0.941601
C78	C	-0.319186	-0.528517	1.274935
C79	C	-0.894546	-1.195140	0.608235
C80	C	-0.561213	-0.861807	0.941568
C81	C	-0.227879	-0.528473	1.274902
C82	C	-0.821771	-1.195109	0.608202
C83	C	-0.488438	-0.861776	0.941535
C84	C	-0.155104	-0.528442	1.274868
C85	C	-0.730458	-1.195067	0.608170
C86	C	-0.397125	-0.861734	0.941503
C87	C	-0.063792	-0.528400	1.274836
C88	C	-0.148257	-1.195175	0.608250
C89	C	0.185076	-0.861842	0.941584
C90	C	0.518410	-0.528509	1.274917
C91	C	-0.058634	-1.195219	0.608285
C92	C	0.274699	-0.861886	0.941618
C93	C	0.608032	-0.528552	1.274951
C94	C	-0.342348	-1.211276	0.937306
C95	C	-0.009015	-0.877943	1.270640
C96	C	0.324318	-0.544610	1.603973
C97	C	-0.335436	-1.218181	1.077565
C98	C	-0.002102	-0.884848	1.410898
C99	C	0.331231	-0.551514	1.744231
C100	C	-0.358583	-0.405385	0.608228
C101	C	-0.025250	-0.072051	0.941561
C102	C	0.308084	0.261282	1.274895
C103	C	-0.358582	-0.495005	0.608213
C104	C	-0.025249	-0.161672	0.941547
C105	C	0.308085	0.171662	1.274880
C106	C	-0.374670	-1.178979	0.280314
C107	C	-0.041337	-0.845646	0.613647
C108	C	0.291996	-0.512312	0.946980
C109	C	-0.381356	-1.172230	0.140056
C110	C	-0.048023	-0.838897	0.473389
C111	C	0.285311	-0.505564	0.806723
H112	H	-0.425961	-1.127610	1.086256
H113	H	-0.092628	-0.794277	1.419589
H114	H	0.240705	-0.460943	1.752922
H115	H	-0.290833	-1.262810	1.131372
H116	H	0.042500	-0.929477	1.464705
H117	H	0.375834	-0.596143	1.798038
