data_functionalizedCrystal
_audit_creation_method	'MofGen! by Chris Wilmer'
_symmetry_space_group_name_H-M	'P1'
_symmetry_Int_Tables_number	1
_symmetry_cell_setting	triclinic
loop_
_symmetry_equiv_pos_as_xyz
  x,y,z
_cell_length_a	14.044220
_cell_length_b	14.044220
_cell_length_c	9.130313
_cell_angle_alpha	89.997493
_cell_angle_beta	90.004466
_cell_angle_gamma	93.188878
loop_
_atom_site_label
_atom_site_type_symbol
_atom_site_fract_x
_atom_site_fract_y
_atom_site_fract_z
O1	O	1.277162	0.230163	-0.121649
O2	O	1.777162	0.730163	0.378351
O3	O	1.000491	0.221857	-0.121686
O4	O	1.500491	0.721857	0.378314
O5	O	1.134674	0.087674	-0.121654
O6	O	1.634674	0.587674	0.378346
O7	O	1.142979	0.364346	-0.121682
O8	O	1.642979	0.864346	0.378318
O9	O	1.134672	0.087678	0.121945
O10	O	1.634672	0.587678	0.621945
O11	O	1.000489	0.221861	0.121913
O12	O	1.500489	0.721861	0.621913
O13	O	1.277161	0.230167	0.121949
O14	O	1.777161	0.730167	0.621949
Cu15	Cu	1.138825	0.226014	0.144174
Cu16	Cu	1.638825	0.726014	0.644174
Cu17	Cu	1.138827	0.226010	-0.143910
Cu18	Cu	1.638827	0.726010	0.356090
O19	O	1.142978	0.364349	0.121917
O20	O	1.642978	0.864349	0.621917
C21	C	0.964868	0.218223	0.000109
C22	C	1.464868	0.718223	0.500109
C23	C	0.858725	0.207379	0.000095
C24	C	1.358725	0.707379	0.500095
C25	C	0.664388	0.187553	0.000126
C26	C	1.164388	0.687553	0.500126
C27	C	0.613258	0.264467	0.000124
C28	C	1.113258	0.764467	0.500124
C29	C	0.505122	0.253435	0.000142
C30	C	1.005122	0.753435	0.500142
C31	C	0.772534	0.198583	0.000109
C32	C	1.272534	0.698583	0.500109
C33	C	1.131037	0.052054	0.000146
C34	C	1.631037	0.552054	0.500146
C35	C	1.120193	-0.054088	0.000146
C36	C	1.620193	0.445912	0.500146
C37	C	1.100366	-0.248426	0.000122
C38	C	1.600366	0.251574	0.500122
C39	C	1.177281	-0.299556	0.000128
C40	C	1.677281	0.200444	0.500128
C41	C	1.166249	-0.407692	0.000115
C42	C	1.666249	0.092308	0.500115
C43	C	1.111397	-0.140280	0.000135
C44	C	1.611397	0.359720	0.500135
C45	C	1.312783	0.233800	0.000151
C46	C	1.812783	0.733800	0.500151
C47	C	1.418926	0.244645	0.000155
C48	C	1.918926	0.744645	0.500155
C49	C	1.146614	0.399969	0.000114
C50	C	1.646614	0.899969	0.500114
C51	C	1.157459	0.506112	0.000104
C52	C	1.657459	1.006112	0.500104
N53	N	1.138831	0.226017	0.346796
N54	N	1.638831	0.726017	0.846796
N55	N	1.138828	0.226000	-0.346533
N56	N	1.638828	0.726000	0.153467
C57	C	1.198265	0.166624	0.423462
C58	C	1.698265	0.666624	0.923462
C59	C	1.198262	0.166613	0.576799
C60	C	1.698262	0.666613	1.076799
C61	C	1.079387	0.285395	0.576790
C62	C	1.579387	0.785395	1.076790
C63	C	1.079386	0.285401	0.423456
C64	C	1.579386	0.785401	0.923456
C65	C	1.266900	0.098049	0.423469
C66	C	1.766900	0.598049	0.923469
C67	C	1.266896	0.098038	0.576806
C68	C	1.766896	0.598038	1.076806
H69	H	0.626951	0.113425	0.000141
H70	H	1.126951	0.613425	0.500141
H71	H	1.251414	-0.262117	0.000040
H72	H	1.751414	0.237883	0.500040
C73	C	1.237368	-0.002686	0.367242
C74	C	1.737368	0.497314	0.867242
N75	N	1.215122	-0.078557	0.324891
N76	N	1.715122	0.421443	0.824891
C77	C	1.000222	-0.299003	0.000128
C78	C	1.500222	0.200997	0.500128
N79	N	0.924793	-0.337108	0.000145
N80	N	1.424793	0.162892	0.500145
H81	H	1.030981	0.333754	0.361036
H82	H	1.530981	0.833754	0.861036
H83	H	1.030988	0.333743	0.639223
H84	H	1.530988	0.833743	1.139223
H85	H	1.337932	0.126544	0.375917
H86	H	1.837932	0.626544	0.875917
H87	H	1.341453	0.119949	0.618430
H88	H	1.841453	0.619949	1.118430
C89	C	1.228465	0.002048	0.641052
C90	C	1.728465	0.502048	1.141052
N91	N	1.199513	-0.070248	0.689444
N92	N	1.699513	0.429752	1.189444
H93	H	0.650697	0.338600	0.000110
H94	H	1.150697	0.838600	0.500110
