data_functionalizedCrystal
_audit_creation_method	'MofGen! by Chris Wilmer'
_symmetry_space_group_name_H-M	'P1'
_symmetry_Int_Tables_number	1
_symmetry_cell_setting	triclinic
loop_
_symmetry_equiv_pos_as_xyz
  x,y,z
_cell_length_a	27.440280
_cell_length_b	12.970454
_cell_length_c	12.970454
_cell_angle_alpha	60.000046
_cell_angle_beta	59.998366
_cell_angle_gamma	90.003575
loop_
_atom_site_label
_atom_site_type_symbol
_atom_site_fract_x
_atom_site_fract_y
_atom_site_fract_z
Zr1	Zr	0.469503	-0.135166	1.128396
O2	O	0.391685	-0.299809	1.343505
O3	O	0.493359	-0.084695	0.913300
O4	O	0.493359	-0.299784	1.128391
O5	O	0.391684	0.084947	1.128414
O6	O	0.573562	-0.299763	1.128371
O7	O	0.391684	-0.084720	1.128415
O8	O	0.573561	0.084992	0.743614
O9	O	0.391685	-0.299808	1.513171
O10	O	0.563387	-0.063153	1.001752
O11	O	0.503533	0.063452	1.001766
O12	O	0.503534	-0.189787	1.255007
O13	O	0.443679	-0.063182	1.255021
Zr14	Zr	0.597417	0.135468	1.128363
Zr15	Zr	0.597418	-0.135132	1.128364
Zr16	Zr	0.469503	0.135434	1.128394
Zr17	Zr	0.469504	-0.135164	1.398993
Zr18	Zr	0.597417	0.135466	0.857765
O19	O	0.573562	0.084997	1.343458
O20	O	0.573562	-0.299761	1.343460
O21	O	0.391685	0.084949	1.343503
O22	O	0.675236	0.300111	0.913253
O23	O	0.675236	-0.084647	0.913255
O24	O	0.493358	0.300063	0.913298
O25	O	0.675237	-0.084645	1.128344
O26	O	0.573562	0.300086	1.128368
O27	O	0.493359	0.300065	1.128387
O28	O	0.675236	0.085022	1.128343
O29	O	0.493360	-0.299781	1.513146
O30	O	0.573561	0.300083	0.743613
O31	O	0.675236	0.300110	0.743587
O32	O	0.675236	0.085019	0.743589
O33	O	0.391685	-0.084717	1.513170
O34	O	0.493360	-0.084690	1.513144
O35	O	0.563387	0.190089	1.001751
O36	O	0.623242	0.063484	1.001737
O37	O	0.563388	-0.063150	1.254992
O38	O	0.503533	0.063455	1.255006
C39	C	0.373459	0.000109	1.128419
C40	C	0.319156	0.000094	1.128432
C41	C	0.533460	0.000148	0.789903
C42	C	0.533460	0.000147	0.675027
C43	C	0.533460	0.338630	1.128377
C44	C	0.533460	0.453507	1.128377
C45	C	0.013702	0.066288	0.996158
C46	C	-0.037317	0.066299	0.996150
O47	O	-0.037134	0.122555	0.883722
N48	N	-0.094077	0.000196	1.128346
C49	C	-0.099817	-0.065913	1.260557
O50	O	-0.152781	-0.122136	1.372999
C51	C	-0.048799	-0.065916	1.260564
C52	C	0.007960	0.000182	1.128360
C53	C	0.070458	0.132381	0.863966
C54	C	0.121473	0.132367	0.863974
C55	C	0.115731	0.066261	0.996176
C56	C	0.058975	0.000168	1.128369
C57	C	-0.054541	-0.132016	1.392774
C58	C	-0.003517	-0.132012	1.392769
C59	C	0.053243	-0.065915	1.260565
C60	C	0.104248	-0.065951	1.260579
N61	N	0.161007	0.000152	1.128384
C62	C	0.166749	0.066258	0.996182
C63	C	-0.206956	-0.065899	1.260533
C64	C	-0.257973	-0.065904	1.260529
C65	C	-0.195469	0.066309	0.996121
C66	C	-0.144451	0.066306	0.996128
C67	C	-0.150196	0.000204	1.128338
C68	C	0.273882	0.066224	0.996210
C69	C	0.324898	0.066200	0.996231
C70	C	0.262390	-0.066007	1.260637
C71	C	0.211378	-0.065990	1.260618
C72	C	0.217128	0.000135	1.128392
O73	O	0.104110	-0.122174	1.372950
O74	O	0.219714	0.122486	0.883760
C75	C	0.693462	0.000193	1.128339
C76	C	0.747764	0.000208	1.128326
C77	C	0.533461	-0.338328	1.128381
C78	C	0.533461	-0.453205	1.128381
C79	C	0.533461	0.000154	1.466855
C80	C	0.533461	0.000155	1.581731
C81	C	0.693461	0.000191	0.789863
C82	C	0.747764	0.000204	0.674974
C83	C	0.533460	0.338627	0.789901
C84	C	0.533459	0.453503	0.675025
C85	C	0.693461	0.338670	0.789861
C86	C	0.747763	0.453560	0.674971
C87	C	0.373460	-0.338368	1.466897
C88	C	0.319157	-0.453258	1.581787
C89	C	0.373460	0.000111	1.466895
C90	C	0.319157	0.000098	1.581784
C91	C	0.533461	-0.338325	1.466857
C92	C	0.533462	-0.453201	1.581734
C93	C	0.742021	-0.065904	0.621029
C94	C	0.793040	-0.065917	0.513093
C95	C	0.849800	0.000187	0.459097
C96	C	0.855541	0.066297	0.513053
C97	C	0.804523	0.066301	0.620994
C98	C	0.804513	0.441427	0.621011
C99	C	0.855541	0.549368	0.513074
C100	C	0.849818	0.669441	0.459094
C101	C	0.793062	0.681572	0.513065
C102	C	0.742035	0.573632	0.621007
C103	C	0.262408	-0.441125	1.635761
C104	C	0.211380	-0.549066	1.743730
C105	C	0.217103	-0.669139	1.797717
C106	C	0.273859	-0.681270	1.743738
C107	C	0.324885	-0.573330	1.635778
C108	C	0.324899	0.066195	1.635741
C109	C	0.273881	0.066178	1.743706
C110	C	0.217121	0.000070	1.797706
C111	C	0.211380	-0.066035	1.743745
C112	C	0.262398	-0.066024	1.635789
H113	H	0.278572	0.120070	0.888540
H114	H	0.788354	-0.119751	0.469175
C115	C	0.917980	0.139025	0.453630
C116	C	0.974092	0.139027	0.334881
C117	C	1.036532	0.211767	0.275443
C118	C	1.042860	0.284505	0.334754
C119	C	0.986746	0.284505	0.453510
C120	C	0.924306	0.211766	0.512948
H121	H	0.969409	0.085180	0.290970
H122	H	1.078071	0.211766	0.187532
H123	H	1.089082	0.338351	0.290755
H124	H	0.991428	0.338353	0.497422
H125	H	0.882766	0.211767	0.600859
C126	C	0.148941	-0.138732	1.803137
C127	C	0.092829	-0.138714	1.921866
C128	C	0.030389	-0.211399	1.981249
C129	C	0.024061	-0.284101	1.921902
C130	C	0.080175	-0.284121	1.803166
C131	C	0.142615	-0.211437	1.743783
H132	H	0.097512	-0.084893	1.965804
H133	H	-0.011150	-0.211383	2.069145
H134	H	-0.022161	-0.337906	1.965861
H135	H	0.075493	-0.337942	1.759228
H136	H	0.184155	-0.211452	1.655887
C137	C	0.917967	0.536003	0.453714
C138	C	0.936718	0.466638	0.379505
C139	C	0.999141	0.453269	0.320149
C140	C	1.042814	0.509264	0.335001
C141	C	1.024064	0.578634	0.409213
C142	C	0.961640	0.592003	0.468569
H143	H	0.904388	0.425183	0.368508
H144	H	1.013021	0.401916	0.265213
H145	H	1.089023	0.499367	0.291062
H146	H	1.056393	0.620089	0.420210
H147	H	0.947761	0.643356	0.523506
C148	C	0.679611	0.586990	0.680340
C149	C	0.673323	0.719073	0.620941
C150	C	0.610900	0.732443	0.680266
C151	C	0.554764	0.613730	0.798990
C152	C	0.561050	0.481638	0.858395
C153	C	0.623474	0.468268	0.799070
H154	H	0.714879	0.806960	0.533049
H155	H	0.606247	0.830227	0.636290
H156	H	0.508555	0.623627	0.842906
H157	H	0.519494	0.393751	0.946288
H158	H	0.628127	0.370484	0.843047
H159	H	0.371092	-0.583223	1.591833
H160	H	0.278512	-0.779046	1.787708
H161	H	0.371114	0.120029	0.888570
C162	C	0.148954	-0.535702	1.803078
C163	C	0.130204	-0.466296	1.877237
C164	C	0.067780	-0.452928	1.936578
C165	C	0.024106	-0.508967	1.921760
C166	C	0.042855	-0.578378	1.847598
C167	C	0.105279	-0.591746	1.788257
H168	H	0.162535	-0.424809	1.888209
H169	H	0.053901	-0.401545	1.991477
H170	H	-0.022104	-0.499071	1.965687
H171	H	0.010524	-0.619865	1.836626
H172	H	0.119158	-0.643129	1.733357
C173	C	0.387331	0.138912	1.576364
C174	C	0.393635	0.211597	1.635749
C175	C	0.456065	0.284311	1.576389
C176	C	0.512191	0.284338	1.457644
C177	C	0.505889	0.211649	1.398253
C178	C	0.443459	0.138936	1.457613
H179	H	0.352085	0.211580	1.723657
H180	H	0.460729	0.338120	1.620355
H181	H	0.558405	0.338164	1.413702
H182	H	0.547439	0.211667	1.310345
H183	H	0.438795	0.085127	1.413647
H184	H	0.278567	0.120013	1.787623
H185	H	0.809207	0.120142	0.664902
H186	H	0.167685	0.186185	0.756320
H187	H	0.075144	0.186219	0.756305
H188	H	0.175584	0.000072	1.885611
H189	H	0.788411	0.779349	0.469098
H190	H	-0.098238	0.120140	0.888476
H191	H	-0.211642	-0.119734	1.368202
H192	H	0.175549	-0.757021	1.885625
H193	H	-0.190801	0.120133	0.888475
H194	H	-0.304185	-0.119744	1.368182
H195	H	0.891337	0.000174	0.371203
H196	H	0.257714	-0.119845	1.591861
H197	H	0.257736	-0.343365	1.591811
H198	H	-0.100749	-0.185838	1.500429
H199	H	-0.008201	-0.185825	1.500434
H200	H	0.165161	-0.119828	1.368269
H201	H	0.257725	-0.119834	1.368272
H202	H	0.695809	-0.119749	0.664991
H203	H	0.809185	0.343667	0.664946
H204	H	0.891372	0.757323	0.371200
