data_functionalizedCrystal
_audit_creation_method	'MofGen! by Chris Wilmer'
_symmetry_space_group_name_H-M	'P1'
_symmetry_Int_Tables_number	1
_symmetry_cell_setting	triclinic
loop_
_symmetry_equiv_pos_as_xyz
  x,y,z
_cell_length_a	10.489741
_cell_length_b	15.944493
_cell_length_c	8.965430
_cell_angle_alpha	90.006294
_cell_angle_beta	89.998843
_cell_angle_gamma	84.007109
loop_
_atom_site_label
_atom_site_type_symbol
_atom_site_fract_x
_atom_site_fract_y
_atom_site_fract_z
O1	O	1.692373	0.118503	-0.123926
O2	O	1.321020	0.129627	-0.123947
O3	O	1.516876	0.001848	-0.123948
O4	O	1.496517	0.246282	-0.123924
O5	O	1.516859	0.001857	0.124131
O6	O	1.321003	0.129636	0.124132
O7	O	1.692357	0.118512	0.124153
Cu8	Cu	1.506678	0.124075	0.146794
Cu9	Cu	1.506698	0.124065	-0.146588
O10	O	1.496501	0.246291	0.124154
C11	C	1.273492	0.128791	0.000090
C12	C	1.131898	0.126278	0.000080
C13	C	1.516035	-0.029447	0.000085
C14	C	1.513541	-0.122711	0.000066
C15	C	1.064911	0.044976	0.000087
C16	C	0.972247	0.083378	-0.122222
C17	C	0.972265	0.083406	0.122364
C18	C	1.041099	0.164713	-0.122330
C19	C	1.041127	0.164730	0.122367
C20	C	0.948490	0.203191	0.000028
C21	C	1.628826	-0.357778	0.000101
C22	C	1.566665	-0.408724	-0.122218
C23	C	1.508918	-0.293460	0.000084
C24	C	1.566621	-0.408691	0.122368
C25	C	1.504462	-0.458396	0.000108
C26	C	1.446790	-0.343177	-0.122336
C27	C	1.446763	-0.343142	0.122360
C28	C	1.384514	-0.394055	0.000012
C29	C	1.511489	-0.198444	0.000069
C30	C	1.501882	-0.553409	0.000112
C31	C	1.739885	0.119348	0.000114
C32	C	1.881478	0.121861	0.000113
C33	C	1.497341	0.277586	0.000118
C34	C	1.499836	0.370850	0.000127
N35	N	1.506674	0.124081	0.353143
N36	N	1.506712	0.124051	-0.352937
C37	C	1.416069	0.183155	0.450450
C38	C	1.531325	0.200151	0.549872
C39	C	1.391467	0.107092	0.549848
C40	C	1.621988	0.141116	0.450377
C41	C	1.482054	0.048023	0.450344
C42	C	1.597393	0.064988	0.549722
H43	H	0.941728	0.048974	-0.225634
H44	H	1.552175	0.264459	0.593589
N45	N	1.379777	-0.305428	-0.259482
H46	H	1.287786	-0.318852	-0.259906
H47	H	1.382029	-0.242259	-0.258597
H48	H	1.461167	-0.016265	0.406593
N49	N	1.247619	-0.415409	-0.000109
H50	H	1.202509	-0.391357	-0.092554
H51	H	1.246816	-0.478692	0.000814
H52	H	1.294023	0.092736	0.593546
N53	N	1.765636	-0.336252	-0.000035
H54	H	1.810787	-0.360234	-0.092515
H55	H	1.766283	-0.272958	0.000967
N56	N	1.633708	-0.446606	0.259344
H57	H	1.725937	-0.433678	0.259232
H58	H	1.589268	-0.421802	0.351652
N59	N	1.131925	-0.043570	-0.000059
H60	H	1.107063	-0.074174	-0.092542
H61	H	1.227756	-0.041187	0.000942
H62	H	1.071447	0.199084	-0.225849
N63	N	1.751098	0.160230	0.392762
H64	H	1.750276	0.160148	0.280111
H65	H	1.769844	0.217464	0.429953
H66	H	1.396161	-0.314481	0.225771
N67	N	0.931883	0.037833	0.259347
H68	H	0.871054	0.077234	0.320650
H69	H	0.887620	-0.012639	0.228029
H70	H	1.617311	-0.437368	-0.225625
N71	N	1.314668	0.249389	0.392718
H72	H	1.356252	0.291205	0.329182
H73	H	1.250617	0.221488	0.330784
N74	N	0.881753	0.291811	-0.000041
H75	H	0.906758	0.322396	-0.092469
H76	H	0.785893	0.289559	0.000897
N77	N	1.081558	0.210288	0.259346
H78	H	1.056794	0.179536	0.351696
H79	H	1.177494	0.212139	0.257699
H80	H	1.674114	0.015016	0.593036
