data_functionalizedCrystal
_audit_creation_method	'MofGen! by Chris Wilmer'
_symmetry_space_group_name_H-M	'P1'
_symmetry_Int_Tables_number	1
_symmetry_cell_setting	triclinic
loop_
_symmetry_equiv_pos_as_xyz
  x,y,z
_cell_length_a	16.625546
_cell_length_b	12.594517
_cell_length_c	16.625539
_cell_angle_alpha	90.025391
_cell_angle_beta	89.969603
_cell_angle_gamma	89.982595
loop_
_atom_site_label
_atom_site_type_symbol
_atom_site_fract_x
_atom_site_fract_y
_atom_site_fract_z
Zn1	Zn	-0.321109	-1.627215	-0.456001
Zn2	Zn	-0.071109	-1.377215	-0.206001
Zn3	Zn	0.178891	-1.127215	0.043999
Zn4	Zn	0.428891	-0.877215	0.293999
Zn5	Zn	-0.455952	-1.627087	-0.321164
Zn6	Zn	-0.205952	-1.377087	-0.071164
Zn7	Zn	0.044048	-1.127087	0.178836
Zn8	Zn	0.294048	-0.877087	0.428836
Zn9	Zn	-0.321125	-1.449220	-0.321171
Zn10	Zn	-0.071125	-1.199220	-0.071171
Zn11	Zn	0.178875	-0.949220	0.178829
Zn12	Zn	0.428875	-0.699220	0.428829
Zn13	Zn	-0.455891	-1.449181	-0.455942
Zn14	Zn	-0.205891	-1.199181	-0.205942
Zn15	Zn	0.044109	-0.949181	0.044058
Zn16	Zn	0.294109	-0.699181	0.294058
O17	O	-0.388519	-1.538176	-0.388569
O18	O	-0.138519	-1.288176	-0.138569
O19	O	0.111481	-1.038176	0.111431
O20	O	0.361481	-0.788176	0.361431
O21	O	-0.339015	-1.776144	-0.438137
O22	O	-0.089015	-1.526144	-0.188137
O23	O	0.160985	-1.276144	0.061863
O24	O	0.410985	-1.026144	0.311863
O25	O	-0.438099	-1.603456	-0.208332
O26	O	-0.188099	-1.353456	0.041668
O27	O	0.061901	-1.103456	0.291668
O28	O	0.311901	-0.853456	0.541668
O29	O	-0.208291	-1.472901	-0.339084
O30	O	0.041709	-1.222901	-0.089084
O31	O	0.291709	-0.972901	0.160916
O32	O	0.541709	-0.722901	0.410916
O33	O	-0.438084	-1.776050	-0.339072
O34	O	-0.188084	-1.526050	-0.089072
O35	O	0.061916	-1.276050	0.160928
O36	O	0.311916	-1.026050	0.410928
O37	O	-0.208279	-1.603673	-0.438143
O38	O	0.041721	-1.353673	-0.188143
O39	O	0.291721	-1.103673	0.061857
O40	O	0.541721	-0.853673	0.311857
O41	O	-0.339043	-1.472778	-0.208337
O42	O	-0.089043	-1.222778	0.041663
O43	O	0.160957	-0.972778	0.291663
O44	O	0.410957	-0.722778	0.541663
O45	O	-0.338984	-1.300269	-0.339026
O46	O	-0.088984	-1.050269	-0.089026
O47	O	0.161016	-0.800269	0.160974
O48	O	0.411016	-0.550269	0.410974
O49	O	-0.437980	-1.472835	-0.568782
O50	O	-0.187980	-1.222835	-0.318782
O51	O	0.062020	-0.972835	-0.068782
O52	O	0.312020	-0.722835	0.181218
O53	O	-0.437996	-1.300241	-0.438043
O54	O	-0.187996	-1.050241	-0.188043
O55	O	0.062004	-0.800241	0.061957
O56	O	0.312004	-0.550241	0.311957
O57	O	-0.338956	-1.603636	-0.568826
O58	O	-0.088956	-1.353636	-0.318826
O59	O	0.161044	-1.103636	-0.068826
O60	O	0.411044	-0.853636	0.181174
O61	O	-0.568777	-1.603418	-0.339015
O62	O	-0.318777	-1.353418	-0.089015
O63	O	-0.068777	-1.103418	0.160985
O64	O	0.181223	-0.853418	0.410985
O65	O	-0.568732	-1.472711	-0.438036
O66	O	-0.318732	-1.222711	-0.188036
O67	O	-0.068732	-0.972711	0.061964
O68	O	0.181268	-0.722711	0.311964
C69	C	-0.598010	-1.538075	-0.388536
C70	C	-0.348010	-1.288075	-0.138536
C71	C	-0.098010	-1.038075	0.111464
C72	C	0.151990	-0.788075	0.361464
C73	C	-0.687631	-1.538129	-0.388548
C74	C	-0.437631	-1.288129	-0.138548
C75	C	-0.187631	-1.038129	0.111452
C76	C	0.062369	-0.788129	0.361452
C77	C	-0.388486	-1.261635	-0.388529
C78	C	-0.138486	-1.011635	-0.138529
C79	C	0.111514	-0.761635	0.111471
C80	C	0.361514	-0.511635	0.361471
C81	C	-0.388490	-1.143330	-0.388531
C82	C	-0.138490	-0.893330	-0.138531
C83	C	0.111510	-0.643330	0.111469
C84	C	0.361510	-0.393330	0.361469
C85	C	-1.015807	-1.538315	-0.388632
C86	C	-0.765807	-1.288315	-0.138632
C87	C	-0.515807	-1.038315	0.111368
C88	C	-0.265807	-0.788315	0.361368
C89	C	-0.924499	-1.538260	-0.388611
C90	C	-0.674499	-1.288260	-0.138611
C91	C	-0.424499	-1.038260	0.111389
C92	C	-0.174499	-0.788260	0.361389
C93	C	-0.851722	-1.538221	-0.388590
C94	C	-0.601722	-1.288221	-0.138590
C95	C	-0.351722	-1.038221	0.111410
C96	C	-0.101722	-0.788221	0.361410
C97	C	-0.760408	-1.538168	-0.388569
C98	C	-0.510408	-1.288168	-0.138569
C99	C	-0.260408	-1.038168	0.111431
C100	C	-0.010408	-0.788168	0.361431
C101	C	-0.334560	-1.074061	-0.334775
C102	C	-0.084560	-0.824061	-0.084775
C103	C	0.165440	-0.574061	0.165225
C104	C	0.415440	-0.324061	0.415225
C105	C	-0.408103	-1.003239	-0.314932
C106	C	-0.158103	-0.753239	-0.064932
C107	C	0.091897	-0.503239	0.185068
C108	C	0.341897	-0.253239	0.435068
C109	C	-0.314970	-1.003352	-0.408375
C110	C	-0.064970	-0.753352	-0.158375
C111	C	0.185030	-0.503352	0.091625
C112	C	0.435030	-0.253352	0.341625
C113	C	-0.462072	-1.074066	-0.368650
C114	C	-0.212072	-0.824066	-0.118650
C115	C	0.037928	-0.574066	0.131350
C116	C	0.287928	-0.324066	0.381350
C117	C	-0.368890	-1.074185	-0.462128
C118	C	-0.118890	-0.824185	-0.212128
C119	C	0.131110	-0.574185	0.037872
C120	C	0.381110	-0.324185	0.287872
C121	C	-0.442484	-1.003395	-0.442312
C122	C	-0.192484	-0.753395	-0.192312
C123	C	0.057516	-0.503395	0.057688
C124	C	0.307516	-0.253395	0.307688
C125	C	-0.178211	-1.538306	-0.388621
C126	C	0.071789	-1.288306	-0.138621
C127	C	0.321789	-1.038306	0.111379
C128	C	0.571789	-0.788306	0.361379
C129	C	-0.088589	-1.538362	-0.388643
C130	C	0.161411	-1.288362	-0.138643
C131	C	0.411411	-1.038362	0.111357
C132	C	0.661411	-0.788362	0.361357
C133	C	-0.388459	-1.538245	-0.598878
C134	C	-0.138459	-1.288245	-0.348878
C135	C	0.111541	-1.038245	-0.098878
C136	C	0.361541	-0.788245	0.151122
C137	C	-0.388434	-1.538275	-0.688500
C138	C	-0.138434	-1.288275	-0.438500
C139	C	0.111566	-1.038275	-0.188500
C140	C	0.361566	-0.788275	0.061500
C141	C	-0.388538	-0.815797	-0.388595
C142	C	-0.138538	-0.565797	-0.138595
C143	C	0.111462	-0.315797	0.111405
C144	C	0.361462	-0.065797	0.361405
C145	C	-0.388505	-0.934102	-0.388568
C146	C	-0.138505	-0.684102	-0.138568
C147	C	0.111495	-0.434102	0.111432
C148	C	0.361495	-0.184102	0.361432
C149	C	-0.388344	-1.538324	-1.016675
C150	C	-0.138344	-1.288324	-0.766675
C151	C	0.111656	-1.038324	-0.516675
C152	C	0.361656	-0.788324	-0.266675
C153	C	-0.388371	-1.538307	-0.925367
C154	C	-0.138371	-1.288307	-0.675367
C155	C	0.111629	-1.038307	-0.425367
C156	C	0.361629	-0.788307	-0.175367
C157	C	-0.388389	-1.538300	-0.852590
C158	C	-0.138389	-1.288300	-0.602590
C159	C	0.111611	-1.038300	-0.352590
C160	C	0.361611	-0.788300	-0.102590
C161	C	-0.388416	-1.538282	-0.761276
C162	C	-0.138416	-1.288282	-0.511276
C163	C	0.111584	-1.038282	-0.261276
C164	C	0.361584	-0.788282	-0.011276
C165	C	-0.388521	-1.538168	-0.179079
C166	C	-0.138521	-1.288168	0.070921
C167	C	0.111479	-1.038168	0.320921
C168	C	0.361479	-0.788168	0.570921
C169	C	-0.388320	-1.538345	-0.089458
C170	C	-0.138320	-1.288345	0.160542
C171	C	0.111680	-1.038345	0.410542
C172	C	0.361680	-0.788345	0.660542
H173	H	-0.289003	-1.105089	-0.289264
H174	H	-0.039003	-0.855089	-0.039264
H175	H	0.210997	-0.605089	0.210736
H176	H	0.460997	-0.355089	0.460736
Br177	Br	-0.341205	-1.126162	-0.565810
Br178	Br	-0.091205	-0.876162	-0.315810
Br179	Br	0.158795	-0.626162	-0.065810
Br180	Br	0.408795	-0.376162	0.184190
Br181	Br	-0.435757	-0.951301	-0.211224
Br182	Br	-0.185757	-0.701301	0.038776
Br183	Br	0.064243	-0.451301	0.288776
Br184	Br	0.314243	-0.201301	0.538776
Br185	Br	-0.211334	-0.951567	-0.436322
Br186	Br	0.038666	-0.701567	-0.186322
Br187	Br	0.288666	-0.451567	0.063678
Br188	Br	0.538666	-0.201567	0.313678
H189	H	-0.524272	-1.104999	-0.351812
H190	H	-0.274272	-0.854999	-0.101812
H191	H	-0.024272	-0.604999	0.148188
H192	H	0.225728	-0.354999	0.398188
Br193	Br	-0.518592	-0.952001	-0.518111
Br194	Br	-0.268592	-0.702001	-0.268111
Br195	Br	-0.018592	-0.452001	-0.018111
Br196	Br	0.231408	-0.202001	0.231889
