data_functionalizedCrystal
_audit_creation_method	'MofGen! by Chris Wilmer'
_symmetry_space_group_name_H-M	'P1'
_symmetry_Int_Tables_number	1
_symmetry_cell_setting	triclinic
loop_
_symmetry_equiv_pos_as_xyz
  x,y,z
_cell_length_a	30.711274
_cell_length_b	30.706045
_cell_length_c	30.700862
_cell_angle_alpha	60.003901
_cell_angle_beta	89.999237
_cell_angle_gamma	59.983280
loop_
_atom_site_label
_atom_site_type_symbol
_atom_site_fract_x
_atom_site_fract_y
_atom_site_fract_z
O1	O	-0.371025	-0.311753	0.012944
O2	O	-0.307735	-0.222560	-0.012907
O3	O	-0.307703	-0.311753	0.076286
O4	O	-0.371057	-0.222560	-0.076249
O5	O	-0.235258	-0.384199	0.076286
O6	O	-0.235290	-0.295005	-0.012907
O7	O	-0.298580	-0.384198	0.012944
Cu8	Cu	-0.260320	-0.346217	0.000018
Cu9	Cu	-0.345995	-0.260542	0.000019
O10	O	-0.298612	-0.295005	-0.076249
C11	C	-0.234671	-0.137142	-0.018777
C12	C	-0.261558	-0.083387	-0.015076
C13	C	-0.182258	-0.163230	-0.019143
C14	C	-0.234647	-0.216014	-0.018783
C15	C	-0.261507	-0.246588	-0.015089
C16	C	-0.182234	-0.241982	-0.019150
C17	C	-0.155795	-0.216018	-0.018777
C18	C	-0.098348	-0.246598	-0.015075
C19	C	-0.260990	-0.163225	-0.019150
C20	C	-0.496050	-0.614226	0.039265
C21	C	-0.469733	-0.588139	0.039632
C22	C	-0.574925	-0.535351	0.039265
C23	C	-0.548489	-0.509383	0.039632
C24	C	-0.496077	-0.535349	0.039262
C25	C	-0.548462	-0.588141	0.039634
C26	C	-0.447840	-0.790157	0.024988
C27	C	-0.423005	-0.839985	0.020951
C28	C	-0.371068	-0.864979	0.018923
C29	C	-0.344141	-0.918999	0.014536
C30	C	-0.343966	-0.840144	0.020937
C31	C	-0.368799	-0.790325	0.024981
C32	C	-0.420738	-0.765332	0.027006
C33	C	-0.368380	-0.472899	0.024976
C34	C	-0.343398	-0.444034	0.020937
C35	C	-0.370357	-0.390060	0.018907
C36	C	-0.343278	-0.358753	0.014520
C37	C	-0.422301	-0.364956	0.020924
C38	C	-0.447279	-0.393825	0.024972
C39	C	-0.420313	-0.447799	0.026995
C40	C	-0.765089	-0.472909	0.024989
C41	C	-0.818948	-0.444041	0.020946
C42	C	-0.845979	-0.390067	0.018918
C43	C	-0.904377	-0.358763	0.014531
C44	C	-0.819151	-0.364961	0.020929
C45	C	-0.765294	-0.393829	0.024971
C46	C	-0.738266	-0.447807	0.027005
C47	C	-0.447663	-0.711307	0.031386
C48	C	-0.469125	-0.668246	0.034880
C49	C	-0.633321	-0.504051	0.034880
C50	C	-0.679868	-0.479103	0.031387
C51	C	-0.468994	-0.504046	0.034875
C52	C	-0.447404	-0.479097	0.031380
C53	C	-0.496240	-0.071078	-0.503890
C54	C	-0.548662	-0.018287	-0.530226
C55	C	-0.496241	-0.071077	-0.425015
C56	C	-0.548663	-0.018287	-0.451471
C57	C	-0.575117	0.007799	-0.503892
C58	C	-0.469906	-0.097044	-0.451469
C59	C	-0.368470	-0.213124	-0.552051
C60	C	-0.343467	-0.242163	-0.576877
C61	C	-0.370418	-0.217238	-0.628824
C62	C	-0.343314	-0.248728	-0.655741
C63	C	-0.422373	-0.163269	-0.655946
C64	C	-0.447369	-0.134229	-0.631122
C65	C	-0.420415	-0.159159	-0.579173
C66	C	-0.765321	0.183729	-0.631660
C67	C	-0.819185	0.233558	-0.656662
C68	C	-0.846209	0.258553	-0.629713
C69	C	-0.904612	0.312573	-0.656813
C70	C	-0.819361	0.233719	-0.577759
C71	C	-0.765497	0.183900	-0.552761
C72	C	-0.738480	0.158905	-0.579717
C73	C	-0.368472	-0.213122	-0.234803
C74	C	-0.343472	-0.242165	-0.180935
C75	C	-0.370424	-0.217240	-0.153914
C76	C	-0.343320	-0.248729	-0.095506
C77	C	-0.422376	-0.163275	-0.180762
C78	C	-0.447374	-0.134236	-0.234628
C79	C	-0.420415	-0.159161	-0.261646
C80	C	-0.447526	-0.127669	-0.552259
C81	C	-0.469134	-0.102568	-0.530805
C82	C	-0.469135	-0.102567	-0.366609
C83	C	-0.447528	-0.127667	-0.320054
C84	C	-0.633521	0.061819	-0.530998
C85	C	-0.680074	0.104881	-0.552605
O86	O	0.076380	-0.384211	0.012960
O87	O	-0.076132	-0.295015	-0.012893
O88	O	0.013055	-0.384213	0.076301
O89	O	-0.012807	-0.295013	-0.076234
O90	O	0.013033	-0.311772	0.076306
O91	O	-0.076154	-0.222574	-0.012888
O92	O	0.076358	-0.311770	0.012966
Cu93	Cu	0.000100	-0.260557	0.000040
Cu94	Cu	0.000126	-0.346228	0.000033
O95	O	-0.012829	-0.222572	-0.076228
O96	O	-0.298726	0.063315	0.012964
O97	O	-0.235362	-0.063365	-0.012888
O98	O	-0.235364	-0.063373	0.076305
O99	O	-0.298723	0.063323	-0.076229
O100	O	-0.307787	-0.063369	0.076299
O101	O	-0.307784	-0.063361	-0.012895
O102	O	-0.371148	0.063319	0.012958
Cu103	Cu	-0.346079	-0.000021	0.000031
Cu104	Cu	-0.260431	-0.000025	0.000038
O105	O	-0.371146	0.063327	-0.076236
O106	O	-1.076397	0.456944	-0.692421
O107	O	-0.923872	0.330258	-0.629074
O108	O	-1.013031	0.330256	-0.629073
O109	O	-0.987238	0.456946	-0.692422
O110	O	-1.013029	0.330255	-0.701518
O111	O	-0.923871	0.330256	-0.701519
O112	O	-1.076395	0.456943	-0.764866
Cu113	Cu	-1.000133	0.393599	-0.739807
Cu114	Cu	-1.000134	0.393601	-0.654133
O115	O	-0.987236	0.456944	-0.764867
O116	O	-0.307703	-0.311753	-0.764507
O117	O	-0.371054	-0.222563	-0.701165
O118	O	-0.371023	-0.311755	-0.701162
O119	O	-0.307733	-0.222562	-0.764510
O120	O	-0.298577	-0.384201	-0.628716
O121	O	-0.298608	-0.295010	-0.628719
O122	O	-0.235257	-0.384200	-0.692061
Cu123	Cu	-0.260317	-0.346220	-0.653775
Cu124	Cu	-0.345993	-0.260544	-0.739451
O125	O	-0.235288	-0.295008	-0.692064
C126	C	-0.155711	-0.469626	0.234827
C127	C	-0.098256	-0.523384	0.261707
C128	C	-0.182165	-0.443540	0.261162
C129	C	-0.234587	-0.390750	0.155950
C130	C	-0.261467	-0.360172	0.098494
C131	C	-0.260922	-0.364783	0.182405
C132	C	-0.234587	-0.390750	0.234826
C133	C	-0.261467	-0.360172	0.261704
C134	C	-0.182166	-0.443540	0.182406
C135	C	0.018934	-0.390775	0.234846
C136	C	0.015226	-0.360201	0.261728
C137	C	0.019318	-0.443564	0.261179
C138	C	0.018936	-0.390769	0.155968
C139	C	0.015230	-0.360189	0.098511
C140	C	0.019320	-0.443558	0.182420
C141	C	0.018958	-0.469647	0.234841
C142	C	0.015276	-0.523403	0.261717
C143	C	0.019296	-0.364806	0.182425
C144	C	-0.234647	-0.216048	0.234834
C145	C	-0.261508	-0.246627	0.261708
C146	C	-0.182234	-0.242021	0.261172
C147	C	-0.234673	-0.137164	0.155964
C148	C	-0.261560	-0.083399	0.098509
C149	C	-0.182259	-0.163256	0.182421
C150	C	-0.155796	-0.216053	0.234841
C151	C	-0.098348	-0.246636	0.261721
C152	C	-0.260991	-0.163252	0.182415
C153	C	-0.039188	0.007464	-0.503869
C154	C	-0.039548	-0.018620	-0.530207
C155	C	-0.039166	-0.071413	-0.424995
C156	C	-0.039526	-0.097377	-0.451452
C157	C	-0.039164	-0.071409	-0.503874
C158	C	-0.039550	-0.018624	-0.451448
C159	C	-0.024965	0.183387	-0.552025
C160	C	-0.020944	0.233214	-0.576849
C161	C	-0.018924	0.258211	-0.628796
C162	C	-0.014553	0.312229	-0.655711
C163	C	-0.020930	0.233380	-0.655919
C164	C	-0.024959	0.183562	-0.631097
C165	C	-0.026976	0.158566	-0.579148
C166	C	-0.024866	-0.133844	-0.631644
C167	C	-0.020821	-0.162705	-0.656647
C168	C	-0.018776	-0.216678	-0.629699
C169	C	-0.014382	-0.247981	-0.656801
C170	C	-0.020785	-0.241785	-0.577746
C171	C	-0.024840	-0.212919	-0.552747
C172	C	-0.026877	-0.158946	-0.579702
C173	C	-0.024876	-0.133868	-0.234783
C174	C	-0.020825	-0.162739	-0.180915
C175	C	-0.018783	-0.216712	-0.153896
C176	C	-0.014389	-0.248020	-0.095488
C177	C	-0.020787	-0.241814	-0.180744
C178	C	-0.024836	-0.212943	-0.234610
C179	C	-0.026885	-0.158966	-0.261627
C180	C	-0.031340	0.104543	-0.552235
C181	C	-0.034820	0.061483	-0.530782
C182	C	-0.034774	-0.102717	-0.366590
C183	C	-0.031275	-0.127667	-0.320035
C184	C	-0.034770	-0.102707	-0.530980
C185	C	-0.031269	-0.127653	-0.552588
O186	O	-0.012837	-0.295036	0.371303
O187	O	0.013047	-0.384228	0.307961
O188	O	-0.076149	-0.295034	0.307950
O189	O	0.076360	-0.384230	0.371315
O190	O	-0.076165	-0.222590	0.235508
O191	O	0.013032	-0.311784	0.235520
O192	O	-0.012852	-0.222592	0.298862
Cu193	Cu	0.000088	-0.260573	0.260576
Cu194	Cu	0.000107	-0.346247	0.346247
O195	O	0.076344	-0.311786	0.298873
C196	C	-0.574923	0.464719	-0.503864
C197	C	-0.548485	0.490687	-0.530195
C198	C	-0.496046	0.385830	-0.424987
C199	C	-0.469728	0.411918	-0.451438
C200	C	-0.496072	0.464715	-0.503857
C201	C	-0.548459	0.411922	-0.451445
C202	C	-0.765091	0.527177	-0.552039
C203	C	-0.818949	0.556046	-0.576868
C204	C	-0.845979	0.610026	-0.628812
C205	C	-0.904378	0.641337	-0.655732
C206	C	-0.819147	0.635133	-0.655929
C207	C	-0.765292	0.606260	-0.631103
C208	C	-0.738264	0.552279	-0.579156
C209	C	-0.447968	0.606769	-0.631605
C210	C	-0.423158	0.635809	-0.656601
C211	C	-0.371222	0.610883	-0.629648
C212	C	-0.344321	0.642369	-0.656743
C213	C	-0.344093	0.556907	-0.577697
C214	C	-0.368898	0.527862	-0.552705
C215	C	-0.420841	0.552803	-0.579664
C216	C	-0.447839	0.209876	-0.234786
C217	C	-0.423006	0.160045	-0.180920
C218	C	-0.371068	0.135045	-0.153895
C219	C	-0.344141	0.081016	-0.095489
C220	C	-0.343966	0.159880	-0.180738
C221	C	-0.368801	0.209711	-0.234602
C222	C	-0.420738	0.234702	-0.261624
C223	C	-0.679868	0.520978	-0.552238
C224	C	-0.633319	0.496025	-0.530782
C225	C	-0.469122	0.331802	-0.366584
C226	C	-0.447660	0.288735	-0.320030
C227	C	-0.469175	0.496206	-0.530956
C228	C	-0.447735	0.521307	-0.552559
H229	H	-0.160990	-0.284460	-0.019743
H230	H	-0.569739	-0.466901	0.040220
H231	H	-0.489570	-0.373384	0.026615
C232	C	-0.153535	-0.299409	0.319360
N233	N	-0.131919	-0.342631	0.363186
C234	C	-0.319108	-0.307395	0.153710
N235	N	-0.362933	-0.264172	0.132098
C236	C	-0.286266	-0.471645	0.018711
N237	N	-0.243235	-0.492441	0.017032
C238	C	-0.153581	-0.133743	-0.019933
N239	N	-0.131981	-0.111537	-0.020525
H240	H	-0.301674	0.139522	-0.158731
H241	H	-0.161034	-0.141424	0.161182
C242	C	-0.319170	-0.133750	0.153720
N243	N	-0.362990	-0.111529	0.132107
C244	C	-0.027046	-0.240539	-0.495601
N245	N	-0.028706	-0.261345	-0.452557
H246	H	0.019874	-0.322327	0.161189
H247	H	-0.040106	-0.139855	-0.430213
H248	H	-0.304055	-0.141388	-0.019747
C249	C	-0.411554	-0.617636	0.040437
N250	N	-0.367735	-0.639852	0.041044
H251	H	-0.160924	-0.465376	0.304234
C252	C	-0.338818	-0.240548	-0.264520
N253	N	-0.316486	-0.261205	-0.286903
H254	H	-0.040148	0.003217	-0.573279
H255	H	-0.301801	0.536605	-0.555754
H256	H	-0.160919	-0.465364	0.161163
C257	C	-0.339055	0.468493	-0.495561
N258	N	-0.316578	0.423778	-0.452519
C259	C	-0.577134	-0.617637	0.040437
N260	N	-0.598729	-0.639852	0.041043
C261	C	-0.040364	0.010870	-0.422754
N262	N	-0.040980	0.033084	-0.401143
C263	C	0.020129	-0.473048	0.153723
N264	N	0.020740	-0.495260	0.132111
C265	C	-0.018621	-0.135123	-0.151386
N266	N	-0.016965	-0.114319	-0.129145
C267	C	0.020123	-0.473059	0.319365
N268	N	0.020728	-0.495273	0.363189
H269	H	-0.569896	0.003550	-0.573302
C270	C	-0.027123	-0.074496	-0.264499
N271	N	-0.028814	-0.029779	-0.286881
H272	H	-0.490130	-0.769813	0.026639
C273	C	-0.848455	-0.471662	0.018734
N274	N	-0.870678	-0.492469	0.017071
C275	C	-0.735782	0.633879	-0.660931
N276	N	-0.713556	0.654685	-0.683397
C277	C	-0.018604	-0.135090	-0.713790
N278	N	-0.016933	-0.114291	-0.756830
H279	H	-0.490260	0.627079	-0.653559
H280	H	-0.026609	0.163040	-0.509727
H281	H	-0.445076	-0.860199	0.019309
H282	H	-0.569692	0.390100	-0.430207
C283	C	-0.735786	-0.366212	0.027188
N284	N	-0.713560	-0.345410	0.028859
H285	H	-0.019308	0.253425	-0.554762
H286	H	-0.346419	-0.516847	0.026627
C287	C	-0.018708	0.260878	-0.713058
N288	N	-0.017032	0.281588	-0.756096
H289	H	-0.026592	0.163350	-0.653183
C290	C	-0.027114	-0.074471	-0.661297
N291	N	-0.028807	-0.029753	-0.683631
H292	H	-0.743086	-0.516859	0.026642
H293	H	-0.019128	-0.285727	-0.555806
H294	H	-0.301679	-0.860498	0.019286
H295	H	-0.743327	0.163384	-0.653612
H296	H	-0.346729	-0.770110	0.026621
C297	C	-0.027046	-0.240555	-0.264141
N298	N	-0.028711	-0.261354	-0.286384
H299	H	-0.444251	-0.321012	0.019277
H300	H	-0.019124	-0.285763	-0.158742
H301	H	-0.346730	0.229927	-0.256454
H302	H	-0.426664	0.390081	-0.430194
C303	C	-0.577189	0.548083	-0.588380
N304	N	-0.598807	0.591313	-0.632203
C305	C	-0.452821	0.132729	-0.151397
N306	N	-0.475277	0.112153	-0.129162
H307	H	-0.841163	-0.321010	0.019276
H308	H	-0.569901	0.003543	-0.430230
H309	H	-0.490129	0.230223	-0.256785
C310	C	-0.411719	-0.154431	-0.422775
N311	N	-0.367894	-0.197653	-0.401162
C312	C	-0.735362	0.467790	-0.494904
N313	N	-0.712967	0.423058	-0.451871
H314	H	-0.840791	0.535601	-0.554786
H315	H	-0.841362	0.254077	-0.555818
C316	C	-0.848882	0.694509	-0.713066
N317	N	-0.871279	0.739234	-0.756104
H318	H	-0.444311	-0.142977	-0.698242
H319	H	-0.301172	-0.286106	-0.159078
H320	H	-0.489668	-0.090286	-0.653209
C321	C	-0.286323	-0.301530	-0.547039
N322	N	-0.243282	-0.346246	-0.524564
C323	C	-0.338814	-0.240547	-0.494910
N324	N	-0.316479	-0.261200	-0.451872
C325	C	-0.848714	0.260864	-0.713805
N326	N	-0.870955	0.281428	-0.756845
H327	H	-0.445251	0.679756	-0.698898
H328	H	-0.743641	0.163687	-0.510462
H329	H	-0.489674	-0.090295	-0.256484
H330	H	-0.444322	-0.142980	-0.158758
