data_functionalizedCrystal
_audit_creation_method	'MofGen! by Chris Wilmer'
_symmetry_space_group_name_H-M	'P1'
_symmetry_Int_Tables_number	1
_symmetry_cell_setting	triclinic
loop_
_symmetry_equiv_pos_as_xyz
  x,y,z
_cell_length_a	16.625546
_cell_length_b	12.759401
_cell_length_c	12.759393
_cell_angle_alpha	89.980678
_cell_angle_beta	90.036194
_cell_angle_gamma	89.979618
loop_
_atom_site_label
_atom_site_type_symbol
_atom_site_fract_x
_atom_site_fract_y
_atom_site_fract_z
Zn1	Zn	-0.320999	-1.606199	0.593971
Zn2	Zn	0.179001	-1.106199	1.093971
Zn3	Zn	-0.455856	-1.606069	0.418277
Zn4	Zn	0.044144	-1.106069	0.918277
Zn5	Zn	-0.321036	-1.430501	0.418308
Zn6	Zn	0.178964	-0.930501	0.918308
Zn7	Zn	-0.455788	-1.430465	0.593916
Zn8	Zn	0.044212	-0.930465	1.093916
O9	O	-0.388420	-1.518308	0.506118
O10	O	0.111580	-1.018308	1.006118
O11	O	-0.338901	-1.753202	0.570675
O12	O	0.161099	-1.253202	1.070675
O13	O	-0.438015	-1.582740	0.271260
O14	O	0.061985	-1.082740	0.771260
O15	O	-0.208199	-1.453876	0.441646
O16	O	0.291801	-0.953876	0.941646
O17	O	-0.437979	-1.753107	0.441593
O18	O	0.062021	-1.253107	0.941593
O19	O	-0.208171	-1.582961	0.570705
O20	O	0.291829	-1.082961	1.070705
O21	O	-0.338964	-1.453751	0.271282
O22	O	0.161036	-0.953751	0.771282
O23	O	-0.338898	-1.283475	0.441592
O24	O	0.161102	-0.783475	0.941592
O25	O	-0.437865	-1.453816	0.740944
O26	O	0.062135	-0.953816	1.240944
O27	O	-0.437900	-1.283449	0.570611
O28	O	0.062100	-0.783449	1.070611
O29	O	-0.338835	-1.582927	0.740984
O30	O	0.161165	-1.082927	1.240984
O31	O	-0.568679	-1.582706	0.441539
O32	O	-0.068679	-1.082706	0.941539
O33	O	-0.568630	-1.453691	0.570581
O34	O	-0.068630	-0.953691	1.070581
C35	C	-0.388397	-1.245341	0.506099
C36	C	0.111603	-0.745341	1.006099
C37	C	-0.388406	-1.128564	0.506117
C38	C	0.111594	-0.628564	1.006117
C39	C	-0.440037	-1.073716	0.573184
C40	C	0.059963	-0.573716	1.073184
C41	C	-0.440044	-0.963992	0.573194
C42	C	0.059956	-0.463992	1.073194
C43	C	-0.336787	-0.963974	0.439059
C44	C	0.163213	-0.463974	0.939059
C45	C	-0.336776	-1.073696	0.439055
C46	C	0.163224	-0.573696	0.939055
C47	C	-0.491668	-1.128585	0.640246
C48	C	0.008332	-0.628585	1.140246
C49	C	-0.543304	-1.073737	0.707318
C50	C	-0.043304	-0.573737	1.207318
C51	C	-0.543311	-0.964013	0.707328
C52	C	-0.043311	-0.464013	1.207328
C53	C	-0.491681	-0.909137	0.640265
C54	C	0.008319	-0.409137	1.140265
C55	C	-0.597911	-1.518209	0.506074
C56	C	-0.097911	-1.018209	1.006074
C57	C	-0.687532	-1.518263	0.506090
C58	C	-0.187532	-1.018263	1.006090
C59	C	-1.015707	-1.518446	0.506199
C60	C	-0.515707	-1.018446	1.006199
C61	C	-0.924399	-1.518392	0.506172
C62	C	-0.424399	-1.018392	1.006172
C63	C	-0.851622	-1.518353	0.506144
C64	C	-0.351622	-1.018353	1.006144
C65	C	-0.760308	-1.518301	0.506118
C66	C	-0.260308	-1.018301	1.006118
C67	C	-0.178111	-1.518437	0.506185
C68	C	0.321889	-1.018437	1.006185
C69	C	-0.088490	-1.518492	0.506213
C70	C	0.411510	-1.018492	1.006213
C71	C	-0.388338	-1.518382	0.780151
C72	C	0.111662	-1.018382	1.280151
C73	C	-0.388304	-1.518413	0.896928
C74	C	0.111696	-1.018413	1.396928
C75	C	-0.388436	-0.792342	0.506133
C76	C	0.111564	-0.292342	1.006133
C77	C	-0.388423	-0.909118	0.506130
C78	C	0.111577	-0.409118	1.006130
C79	C	-0.388443	-1.518296	0.233150
C80	C	0.111557	-1.018296	0.733150
C81	C	-0.388250	-1.518468	0.116374
C82	C	0.111750	-1.018468	0.616374
C83	C	-0.336734	-1.585650	0.951813
C84	C	0.163266	-1.085650	1.451813
C85	C	-0.336705	-1.585675	1.061537
C86	C	0.163295	-1.085675	1.561537
C87	C	-0.439822	-1.451223	1.061482
C88	C	0.060178	-0.951223	1.561482
C89	C	-0.439846	-1.451194	0.951759
C90	C	0.060154	-0.951194	1.451759
C91	C	-0.285192	-1.652870	0.896981
C92	C	0.214808	-1.152870	1.396981
C93	C	-0.233619	-1.720113	0.951866
C94	C	0.266381	-1.220113	1.451866
C95	C	-0.233590	-1.720138	1.061590
C96	C	0.266410	-1.220138	1.561590
C97	C	-0.285133	-1.652920	1.116429
C98	C	0.214867	-1.152920	1.616429
H99	H	-0.491669	-1.217928	0.640243
H100	H	0.008331	-0.717928	1.140243
H101	H	-0.585333	-1.118424	0.761925
H102	H	-0.085333	-0.618424	1.261925
H103	H	-0.491684	-0.819792	0.640288
H104	H	0.008316	-0.319792	1.140288
Br105	Br	-0.163601	-1.811396	1.136075
Br106	Br	0.336399	-1.311396	1.636075
Br107	Br	-0.613378	-0.889578	0.798364
Br108	Br	-0.113378	-0.389578	1.298364
Br109	Br	-0.285233	-1.652846	0.748070
Br110	Br	0.214767	-1.152846	1.248070
H111	H	-0.294753	-0.919285	0.384459
H112	H	0.205247	-0.419285	0.884459
H113	H	-0.294727	-1.118354	0.384451
H114	H	0.205273	-0.618354	0.884451
H115	H	-0.191649	-1.774833	0.907209
H116	H	0.308351	-1.274833	1.407209
Br117	Br	-0.285079	-1.652937	1.265342
Br118	Br	0.214921	-1.152937	1.765342
H119	H	-0.481786	-1.396497	1.106140
H120	H	0.018214	-0.896497	1.606140
H121	H	-0.481826	-1.396427	0.907071
H122	H	0.018174	-0.896427	1.407071
