data_functionalizedCrystal
_audit_creation_method	'MofGen! by Chris Wilmer'
_symmetry_space_group_name_H-M	'P1'
_symmetry_Int_Tables_number	1
_symmetry_cell_setting	triclinic
loop_
_symmetry_equiv_pos_as_xyz
  x,y,z
_cell_length_a	19.805407
_cell_length_b	17.639999
_cell_length_c	19.805399
_cell_angle_alpha	101.224068
_cell_angle_beta	89.982197
_cell_angle_gamma	101.196798
loop_
_atom_site_label
_atom_site_type_symbol
_atom_site_fract_x
_atom_site_fract_y
_atom_site_fract_z
Zn1	Zn	1.089264	0.314739	-0.328270
Zn2	Zn	1.422598	0.648072	0.005064
Zn3	Zn	1.755931	0.981406	0.338397
Zn4	Zn	1.112078	0.446914	-0.192228
Zn5	Zn	1.445412	0.780248	0.141105
Zn6	Zn	1.778745	1.113581	0.474438
Zn7	Zn	0.976082	0.314755	-0.215095
Zn8	Zn	1.309415	0.648088	0.118238
Zn9	Zn	1.642748	0.981421	0.451572
Zn10	Zn	0.998933	0.446866	-0.305387
Zn11	Zn	1.332267	0.780199	0.027946
Zn12	Zn	1.665600	1.113533	0.361280
O13	O	1.044089	0.380819	-0.260245
O14	O	1.377423	0.714152	0.073088
O15	O	1.710756	1.047485	0.406422
O16	O	1.187009	0.332286	-0.310230
O17	O	1.520343	0.665619	0.023103
O18	O	1.853676	0.998953	0.356437
O19	O	1.094022	0.429410	-0.100540
O20	O	1.427356	0.762743	0.232793
O21	O	1.760689	1.096076	0.566126
O22	O	0.971984	0.204148	-0.249254
O23	O	1.305317	0.537481	0.084079
O24	O	1.638651	0.870815	0.417413
O25	O	1.203771	0.429395	-0.210281
O26	O	1.537104	0.762728	0.123052
O27	O	1.870438	1.096061	0.456385
O28	O	1.055139	0.204136	-0.332403
O29	O	1.388472	0.537470	0.000930
O30	O	1.721806	0.870803	0.334264
O31	O	0.994106	0.332313	-0.117340
O32	O	1.327439	0.665646	0.215993
O33	O	1.660773	0.998979	0.549326
O34	O	0.884394	0.332266	-0.227066
O35	O	1.217727	0.665599	0.106268
O36	O	1.551061	0.998933	0.439601
O37	O	1.010932	0.429312	-0.403144
O38	O	1.344265	0.762646	-0.069810
O39	O	1.677598	1.095979	0.263523
O40	O	0.901183	0.429328	-0.293403
O41	O	1.234516	0.762661	0.039930
O42	O	1.567850	1.095994	0.373264
O43	O	1.077297	0.332239	-0.419955
O44	O	1.410631	0.665573	-0.086622
O45	O	1.743964	0.998906	0.246711
O46	O	1.116181	0.557513	-0.188093
O47	O	1.449514	0.890846	0.145240
O48	O	1.782847	1.224179	0.478574
O49	O	1.033054	0.557477	-0.271230
O50	O	1.366387	0.890811	0.062103
O51	O	1.699720	1.224144	0.395437
C52	C	0.868229	0.380794	-0.260233
C53	C	1.201562	0.714127	0.073100
C54	C	1.534896	1.047460	0.406434
C55	C	0.792999	0.380802	-0.260240
C56	C	1.126332	0.714136	0.073093
C57	C	1.459665	1.047469	0.406426
C58	C	0.748943	0.330327	-0.312334
C59	C	1.082276	0.663661	0.020999
C60	C	1.415609	0.996994	0.354333
C61	C	0.678255	0.330331	-0.312336
C62	C	1.011588	0.663665	0.020997
C63	C	1.344922	0.996998	0.354331
C64	C	0.651625	0.380815	-0.260246
C65	C	0.984959	0.714148	0.073087
C66	C	1.318292	1.047482	0.406420
C67	C	0.695686	0.431292	-0.208147
C68	C	1.029020	0.764626	0.125186
C69	C	1.362353	1.097959	0.458519
C70	C	0.766372	0.431284	-0.208143
C71	C	1.099705	0.764617	0.125190
C72	C	1.433039	1.097950	0.458523
C73	C	0.410619	0.431328	-0.208162
C74	C	0.743952	0.764661	0.125171
C75	C	1.077286	1.097995	0.458505
C76	C	0.339928	0.431334	-0.208171
C77	C	0.673261	0.764668	0.125162
C78	C	1.006595	1.098001	0.458495
C79	C	0.322502	0.330376	-0.312355
C80	C	0.655836	0.663709	0.020979
C81	C	0.989169	0.997042	0.354312
C82	C	0.393188	0.330367	-0.312351
C83	C	0.726521	0.663700	0.020983
C84	C	1.059855	0.997034	0.354316
C85	C	0.437242	0.380841	-0.260250
C86	C	0.770576	0.714174	0.073083
C87	C	1.103909	1.047507	0.406417
C88	C	0.513890	0.380835	-0.260248
C89	C	0.847223	0.714168	0.073085
C90	C	1.180556	1.047501	0.406419
C91	C	0.574980	0.380826	-0.260251
C92	C	0.908313	0.714159	0.073083
C93	C	1.241647	1.047493	0.406416
C94	C	1.079591	0.586174	-0.224712
C95	C	1.412924	0.919507	0.108621
C96	C	1.746258	1.252840	0.441955
C97	C	1.094841	0.674025	-0.209533
C98	C	1.428174	1.007359	0.123800
C99	C	1.761507	1.340692	0.457133
C100	C	0.928411	0.963004	-0.375786
C101	C	1.261745	1.296337	-0.042453
C102	C	1.595078	1.629671	0.290880
C103	C	0.942742	1.045554	-0.361502
C104	C	1.276075	1.378887	-0.028169
C105	C	1.609409	1.712221	0.305165
C106	C	1.029356	1.045525	-0.275019
C107	C	1.362689	1.378859	0.058314
C108	C	1.696023	1.712192	0.391648
C109	C	1.015035	0.962974	-0.289298
C110	C	1.348368	1.296307	0.044035
C111	C	1.681702	1.629640	0.377368
C112	C	0.964561	0.921719	-0.339682
C113	C	1.297895	1.255053	-0.006349
C114	C	1.631228	1.588386	0.326985
C115	C	1.051185	0.921689	-0.253194
C116	C	1.384518	1.255022	0.080139
C117	C	1.717852	1.588356	0.413473
C118	C	1.036862	0.839145	-0.267470
C119	C	1.370196	1.172478	0.065864
C120	C	1.703529	1.505811	0.399197
C121	C	0.986390	0.797885	-0.317850
C122	C	1.319723	1.131218	0.015484
C123	C	1.653056	1.464551	0.348817
C124	C	0.950239	0.839175	-0.353958
C125	C	1.283572	1.172508	-0.020624
C126	C	1.616905	1.505841	0.312709
C127	C	1.101655	0.962945	-0.202807
C128	C	1.434988	1.296278	0.130526
C129	C	1.768322	1.629612	0.463860
C130	C	1.137805	0.921660	-0.166703
C131	C	1.471138	1.254994	0.166631
C132	C	1.804472	1.588327	0.499964
C133	C	1.123486	0.839114	-0.180982
C134	C	1.456819	1.172448	0.152352
C135	C	1.790153	1.505781	0.485685
C136	C	1.073013	0.797854	-0.231362
C137	C	1.406347	1.131188	0.101972
C138	C	1.739680	1.464521	0.435305
C139	C	1.159637	0.797824	-0.144874
C140	C	1.492970	1.131157	0.188460
C141	C	1.826304	1.464491	0.521793
C142	C	1.145314	0.715280	-0.159149
C143	C	1.478648	1.048613	0.174184
C144	C	1.811981	1.381946	0.507517
C145	C	1.058691	0.715310	-0.245638
C146	C	1.392024	1.048643	0.087696
C147	C	1.725357	1.381976	0.421029
C148	C	1.220636	0.380844	-0.260258
C149	C	1.553970	0.714177	0.073076
C150	C	1.887303	1.047511	0.406409
C151	C	1.295870	0.380855	-0.260263
C152	C	1.629204	0.714188	0.073071
C153	C	1.962537	1.047521	0.406404
C154	C	1.044119	0.380769	-0.436796
C155	C	1.377452	0.714102	-0.103463
C156	C	1.710785	1.047435	0.229870
C157	C	1.044131	0.380748	-0.512032
C158	C	1.377465	0.714081	-0.178699
C159	C	1.710798	1.047414	0.154635
C160	C	1.008446	1.174662	-0.295929
C161	C	1.341780	1.507995	0.037405
C162	C	1.675113	1.841328	0.370738
C163	C	0.993203	1.086810	-0.311127
C164	C	1.326536	1.420143	0.022206
C165	C	1.659870	1.753477	0.355539
C166	C	1.078688	0.330199	-0.556132
C167	C	1.412022	0.663532	-0.222798
C168	C	1.745355	0.996866	0.110535
C169	C	1.078691	0.330176	-0.626824
C170	C	1.412025	0.663509	-0.293491
C171	C	1.745358	0.996843	0.039843
C172	C	1.044141	0.380706	-0.653415
C173	C	1.377474	0.714040	-0.320082
C174	C	1.710808	1.047373	0.013252
C175	C	1.009579	0.431257	-0.609310
C176	C	1.342913	0.764590	-0.275977
C177	C	1.676246	1.097924	0.057357
C178	C	1.009573	0.431275	-0.538620
C179	C	1.342906	0.764609	-0.205286
C180	C	1.676239	1.097942	0.128047
C181	C	1.009605	0.431183	-0.894396
C182	C	1.342938	0.764517	-0.561063
C183	C	1.676271	1.097850	-0.227730
C184	C	1.009616	0.431163	-0.965092
C185	C	1.342949	0.764496	-0.631759
C186	C	1.676283	1.097829	-0.298425
C187	C	1.078723	0.330084	-0.982601
C188	C	1.412057	0.663417	-0.649267
C189	C	1.745390	0.996751	-0.315934
C190	C	1.078717	0.330102	-0.911910
C191	C	1.412050	0.663436	-0.578577
C192	C	1.745383	0.996769	-0.245244
C193	C	1.044152	0.380650	-0.867812
C194	C	1.377486	0.713983	-0.534479
C195	C	1.710819	1.047317	-0.201145
C196	C	1.044149	0.380673	-0.791160
C197	C	1.377482	0.714006	-0.457826
C198	C	1.710815	1.047340	-0.124493
C199	C	1.044148	0.380688	-0.730065
C200	C	1.377482	0.714021	-0.396732
C201	C	1.710815	1.047354	-0.063399
C202	C	1.044089	0.380811	-0.084390
C203	C	1.377423	0.714144	0.248943
C204	C	1.710756	1.047478	0.582276
C205	C	1.044169	0.380610	-0.009194
C206	C	1.377503	0.713943	0.324140
C207	C	1.710836	1.047276	0.657473
H208	H	0.446480	0.472428	-0.165739
H209	H	0.779814	0.805761	0.167594
H210	H	1.113147	1.139094	0.500928
H211	H	0.887316	0.929413	-0.416819
H212	H	1.220649	1.262746	-0.083486
H213	H	1.553982	1.596080	0.249848
H214	H	0.318249	0.472446	-0.165751
H215	H	0.651583	0.805780	0.167583
H216	H	0.984916	1.139113	0.500916
H217	H	0.802242	0.472385	-0.165723
H218	H	1.135575	0.805718	0.167610
H219	H	1.468909	1.139052	0.500944
C220	C	0.902978	1.090965	-0.401225
C221	C	1.236312	1.424298	-0.067892
C222	C	1.569645	1.757631	0.265441
H223	H	0.870872	1.054570	-0.433279
H224	H	1.204206	1.387903	-0.099946
H225	H	1.537539	1.721237	0.233388
H226	H	0.879097	1.123206	-0.369734
H227	H	1.212431	1.456539	-0.036400
H228	H	1.545764	1.789873	0.296933
H229	H	0.934439	1.123125	-0.425181
H230	H	1.267772	1.456458	-0.091848
H231	H	1.601105	1.789792	0.241485
C232	C	0.971603	0.486743	-0.994341
C233	C	1.304936	0.820076	-0.661008
C234	C	1.638269	1.153409	-0.327675
H235	H	0.951010	0.516844	-0.957955
H236	H	1.284344	0.850177	-0.624622
H237	H	1.617677	1.183511	-0.291288
H238	H	1.003446	0.521180	-1.015959
H239	H	1.336779	0.854513	-0.682626
H240	H	1.670113	1.187846	-0.349293
H241	H	0.936890	0.456485	-1.027149
H242	H	1.270223	0.789818	-0.693816
H243	H	1.603557	1.123152	-0.360483
H244	H	0.981472	0.472354	-0.858497
H245	H	1.314806	0.805687	-0.525164
H246	H	1.648139	1.139020	-0.191831
C247	C	1.215152	0.843210	-0.089454
C248	C	1.548485	1.176543	0.243879
C249	C	1.881819	1.509876	0.577213
H250	H	1.218506	0.898283	-0.086125
H251	H	1.551839	1.231616	0.247209
H252	H	1.885172	1.564950	0.580542
H253	H	1.202935	0.829710	-0.046303
H254	H	1.536268	1.163044	0.287031
H255	H	1.869601	1.496377	0.620364
H256	H	1.258272	0.829643	-0.101754
H257	H	1.591606	1.162976	0.231579
H258	H	1.924939	1.496310	0.564913
H259	H	0.673998	0.472393	-0.165732
H260	H	1.007331	0.805727	0.167601
H261	H	1.340665	1.139060	0.500934
C262	C	0.971575	0.486840	-0.638558
C263	C	1.304909	0.820173	-0.305225
C264	C	1.638242	1.153506	0.028109
H265	H	0.976534	0.479596	-0.686974
H266	H	1.309868	0.812929	-0.353640
H267	H	1.643201	1.146263	-0.020307
H268	H	0.924097	0.475271	-0.628970
H269	H	1.257431	0.808604	-0.295637
H270	H	1.590764	1.141937	0.037696
H271	H	0.990662	0.539952	-0.617778
H272	H	1.323995	0.873286	-0.284445
H273	H	1.657329	1.206619	0.048888
C274	C	1.185080	0.669863	-0.119439
C275	C	1.518413	1.003197	0.213894
C276	C	1.851747	1.336530	0.547228
H277	H	1.217196	0.706255	-0.087393
H278	H	1.550529	1.039588	0.245940
H279	H	1.883863	1.372921	0.579274
H280	H	1.153626	0.637698	-0.095487
H281	H	1.486959	0.971032	0.237846
H282	H	1.820293	1.304365	0.571179
H283	H	1.208962	0.637626	-0.150940
H284	H	1.542296	0.970960	0.182393
H285	H	1.875629	1.304293	0.515727
H286	H	0.770619	0.289220	-0.354753
H287	H	1.103952	0.622553	-0.021420
H288	H	1.437286	0.955886	0.311913
H289	H	1.017595	0.681719	-0.286670
H290	H	1.350928	1.015052	0.046663
H291	H	1.684261	1.348386	0.379996
H292	H	0.974724	0.730671	-0.329467
H293	H	1.308058	1.064005	0.003866
H294	H	1.641391	1.397338	0.337199
C295	C	0.894727	0.793790	-0.409388
C296	C	1.228061	1.127123	-0.076055
C297	C	1.561394	1.460457	0.257278
H298	H	0.875247	0.830198	-0.428849
H299	H	1.208581	1.163531	-0.095516
H300	H	1.541914	1.496865	0.237817
H301	H	0.915016	0.761554	-0.444472
H302	H	1.248349	1.094888	-0.111139
H303	H	1.581682	1.428221	0.222194
H304	H	0.859666	0.761625	-0.389033
H305	H	1.192999	1.094959	-0.055700
H306	H	1.526332	1.428292	0.277633
H307	H	0.981424	0.472429	-0.502715
H308	H	1.314758	0.805762	-0.169382
H309	H	1.648091	1.139096	0.163952
C310	C	1.084877	1.090909	-0.219604
C311	C	1.418210	1.424242	0.113729
C312	C	1.751544	1.757576	0.447062
H313	H	1.088234	1.145983	-0.216276
H314	H	1.421567	1.479316	0.117057
H315	H	1.754900	1.812650	0.450391
H316	H	1.072664	1.077413	-0.176451
H317	H	1.405998	1.410746	0.156882
H318	H	1.739331	1.744079	0.490216
H319	H	1.127994	1.077337	-0.231910
H320	H	1.461327	1.410671	0.101423
H321	H	1.794661	1.744004	0.434756
H322	H	0.286624	0.289275	-0.354776
H323	H	0.619957	0.622608	-0.021442
H324	H	0.953291	0.955941	0.311891
C325	C	1.193326	0.967044	-0.111288
C326	C	1.526659	1.300377	0.222045
C327	C	1.859992	1.633711	0.555378
H328	H	1.196683	1.022118	-0.107960
H329	H	1.530016	1.355451	0.225374
H330	H	1.863349	1.688785	0.558707
H331	H	1.181113	0.953548	-0.068135
H332	H	1.514447	1.286881	0.265199
H333	H	1.847780	1.620214	0.598532
H334	H	1.236443	0.953472	-0.123594
H335	H	1.569776	1.286806	0.209739
H336	H	1.903110	1.620139	0.543073
H337	H	1.113316	1.030158	-0.191187
H338	H	1.446650	1.363491	0.142146
H339	H	1.779983	1.696825	0.475479
H340	H	1.106826	0.289054	-0.534487
H341	H	1.440159	0.622387	-0.201154
H342	H	1.773493	0.955721	0.132180
H343	H	1.106833	0.289016	-0.662727
H344	H	1.440167	0.622350	-0.329394
H345	H	1.773500	0.955683	0.003939
H346	H	0.642387	0.289231	-0.354757
H347	H	0.975721	0.622565	-0.021424
H348	H	1.309054	0.955898	0.311910
C349	C	1.116720	0.274520	-0.882661
C350	C	1.450053	0.607853	-0.549327
C351	C	1.783386	0.941187	-0.215994
H352	H	1.111770	0.281775	-0.834243
H353	H	1.445104	0.615108	-0.500910
H354	H	1.778437	0.948442	-0.167577
H355	H	1.097639	0.221410	-0.903438
H356	H	1.430972	0.554743	-0.570105
H357	H	1.764305	0.888077	-0.236771
H358	H	1.164202	0.286094	-0.892248
H359	H	1.497535	0.619428	-0.558914
H360	H	1.830868	0.952761	-0.225581
C361	C	0.422477	0.274833	-0.369647
C362	C	0.755810	0.608166	-0.036314
C363	C	1.089144	0.941499	0.297019
H364	H	0.386113	0.244766	-0.400670
H365	H	0.719447	0.578099	-0.067337
H366	H	1.052780	0.911433	0.265997
H367	H	0.455303	0.305106	-0.393856
H368	H	0.788636	0.638439	-0.060522
H369	H	1.121969	0.971773	0.272811
H370	H	0.444074	0.240350	-0.349761
H371	H	0.777408	0.573683	-0.016427
H372	H	1.110741	0.907017	0.316906
C373	C	1.116739	0.274477	-1.031111
C374	C	1.450072	0.607810	-0.697778
C375	C	1.783405	0.941143	-0.364445
H376	H	1.111790	0.281694	-1.077022
H377	H	1.445124	0.615027	-0.743689
H378	H	1.778457	0.948361	-0.410355
H379	H	1.164214	0.286057	-1.017529
H380	H	1.497547	0.619390	-0.684196
H381	H	1.830881	0.952723	-0.350863
H382	H	1.097653	0.221370	-1.028717
H383	H	1.430986	0.554703	-0.695383
H384	H	1.764320	0.888036	-0.362050
