data_functionalizedCrystal
_audit_creation_method	'MofGen! by Chris Wilmer'
_symmetry_space_group_name_H-M	'P1'
_symmetry_Int_Tables_number	1
_symmetry_cell_setting	triclinic
loop_
_symmetry_equiv_pos_as_xyz
  x,y,z
_cell_length_a	8.559649
_cell_length_b	8.559649
_cell_length_c	7.681481
_cell_angle_alpha	94.930900
_cell_angle_beta	85.086760
_cell_angle_gamma	69.778664
loop_
_atom_site_label
_atom_site_type_symbol
_atom_site_fract_x
_atom_site_fract_y
_atom_site_fract_z
O1	O	-2.109661	0.037797	-0.146402
O2	O	-1.634175	-0.045985	-0.146408
O3	O	-1.913809	0.233649	-0.146402
O4	O	-1.830027	-0.241837	-0.146407
O5	O	-1.948236	0.268136	0.146456
O6	O	-1.668602	-0.011497	0.146450
O7	O	-2.144088	0.072285	0.146457
Zn8	Zn	-1.911811	0.035869	0.192951
Zn9	Zn	-1.866452	-0.009570	-0.192902
O10	O	-1.864454	-0.207349	0.146451
C11	C	-1.591080	-0.035090	0.000020
C12	C	-1.411380	-0.053990	0.000017
C13	C	-1.937371	0.311201	0.000024
C14	C	-1.956269	0.490899	0.000014
C15	C	-2.187183	0.061390	0.000025
C16	C	-2.366881	0.080288	0.000016
C17	C	-1.840891	-0.284902	0.000021
C18	C	-1.821992	-0.464601	0.000019
N19	N	-1.942779	0.066883	0.456286
N20	N	-1.835499	-0.040569	-0.456237
H21	H	-1.311991	-0.183419	0.000006
H22	H	-1.466259	0.209706	0.000009
H23	H	-1.692573	0.436021	0.000023
C24	C	-1.687544	-0.188733	0.442184
C25	C	-1.562925	-0.312875	0.543360
C26	C	-1.414968	-0.461043	0.441769
C27	C	-1.391629	-0.485068	0.239002
C28	C	-1.516252	-0.360922	0.137815
C29	C	-1.664209	-0.212755	0.239406
H30	H	-1.580198	-0.295094	0.693470
H31	H	-1.322714	-0.552944	0.516675
H32	H	-1.282102	-0.594751	0.163798
H33	H	-1.498979	-0.378704	-0.012295
H34	H	-1.756463	-0.120854	0.164500
C35	C	-2.090742	0.215055	0.557872
C36	C	-2.057201	0.346065	0.684674
C37	C	-2.205160	0.494235	0.786259
C38	C	-2.386660	0.511394	0.761043
C39	C	-2.420209	0.380380	0.634235
C40	C	-2.272250	0.232210	0.532649
H41	H	-1.922836	0.333367	0.703346
H42	H	-2.180324	0.591220	0.880131
H43	H	-2.496189	0.621078	0.836242
H44	H	-2.554573	0.393078	0.615562
H45	H	-2.297086	0.135225	0.438777
H46	H	-2.085699	0.590289	0.000030
