data_functionalizedCrystal
_audit_creation_method	'MofGen! by Chris Wilmer'
_symmetry_space_group_name_H-M	'P1'
_symmetry_Int_Tables_number	1
_symmetry_cell_setting	triclinic
loop_
_symmetry_equiv_pos_as_xyz
  x,y,z
_cell_length_a	19.188930
_cell_length_b	19.188930
_cell_length_c	9.016244
_cell_angle_alpha	89.992636
_cell_angle_beta	89.978791
_cell_angle_gamma	83.144779
loop_
_atom_site_label
_atom_site_type_symbol
_atom_site_fract_x
_atom_site_fract_y
_atom_site_fract_z
O1	O	0.926148	0.087165	-0.123834
O2	O	1.426148	0.587165	0.376166
O3	O	0.722837	0.098899	-0.123734
O4	O	1.222837	0.598899	0.376266
O5	O	0.830360	-0.008624	-0.123758
O6	O	1.330360	0.491376	0.376242
O7	O	0.818625	0.194687	-0.123810
O8	O	1.318625	0.694687	0.376190
O9	O	0.830344	-0.008621	0.122923
O10	O	1.330344	0.491379	0.622923
O11	O	0.722821	0.098901	0.122947
O12	O	1.222821	0.598901	0.622947
O13	O	0.926132	0.087167	0.122847
O14	O	1.426132	0.587167	0.622847
Cu15	Cu	0.824475	0.093035	0.145421
Cu16	Cu	1.324475	0.593035	0.645421
Cu17	Cu	0.824494	0.093032	-0.146308
Cu18	Cu	1.324494	0.593032	0.353692
O19	O	0.818610	0.194690	0.122871
O20	O	1.318610	0.694690	0.622871
C21	C	0.696818	0.098520	-0.000381
C22	C	1.196818	0.598520	0.499619
C23	C	0.619313	0.097380	-0.000341
C24	C	1.119313	0.597380	0.499659
C25	C	0.574389	0.160470	-0.000381
C26	C	1.074389	0.660470	0.499619
C27	C	0.501566	0.159399	-0.000397
C28	C	1.001566	0.659399	0.499603
C29	C	0.473669	0.095233	-0.000403
C30	C	0.973669	0.595233	0.499597
C31	C	0.518603	0.032133	-0.000355
C32	C	1.018603	0.532133	0.499645
C33	C	0.591425	0.033207	-0.000325
C34	C	1.091425	0.533207	0.499675
N35	N	0.365694	0.046185	-0.084407
N36	N	0.865694	0.546185	0.415593
N37	N	0.296516	0.045169	-0.084439
N38	N	0.796516	0.545169	0.415561
C39	C	0.254260	0.091994	-0.000493
C40	C	0.754260	0.591994	0.499507
N41	N	0.283796	0.139884	0.083468
N42	N	0.783796	0.639884	0.583468
N43	N	0.352981	0.140902	0.083494
N44	N	0.852981	0.640902	0.583494
C45	C	0.394707	0.094062	-0.000436
C46	C	0.894707	0.594062	0.499564
C47	C	0.130372	0.153928	-0.000548
C48	C	0.630372	0.653928	0.499452
C49	C	0.057547	0.152853	-0.000555
C50	C	0.557547	0.652853	0.499445
C51	C	0.074586	0.025586	-0.000528
C52	C	0.574586	0.525586	0.499472
C53	C	0.147409	0.026662	-0.000506
C54	C	0.647409	0.526662	0.499494
C55	C	0.175298	0.090835	-0.000523
C56	C	0.675298	0.590835	0.499477
C57	C	0.829972	-0.034634	-0.000413
C58	C	1.329972	0.465366	0.499587
C59	C	0.828831	-0.112138	-0.000400
C60	C	1.328831	0.387862	0.499600
C61	C	0.891922	-0.157062	-0.000423
C62	C	1.391922	0.342938	0.499577
C63	C	0.890850	-0.229886	-0.000447
C64	C	1.390850	0.270114	0.499553
C65	C	0.826684	-0.257782	-0.000416
C66	C	1.326684	0.242218	0.499584
C67	C	0.763585	-0.212849	-0.000401
C68	C	1.263585	0.287151	0.499599
C69	C	0.764658	-0.140026	-0.000393
C70	C	1.264658	0.359974	0.499607
N71	N	0.777631	-0.365787	0.083558
N72	N	1.277631	0.134213	0.583558
N73	N	0.776616	-0.434965	0.083553
N74	N	1.276616	0.065035	0.583553
C75	C	0.823446	-0.477191	-0.000445
C76	C	1.323446	0.022809	0.499555
N77	N	0.871340	-0.447626	-0.084419
N78	N	1.371340	0.052374	0.415581
N79	N	0.872358	-0.378442	-0.084408
N80	N	1.372358	0.121558	0.415592
C81	C	0.825513	-0.336745	-0.000426
C82	C	1.325513	0.163255	0.499574
C83	C	0.885379	-0.601079	-0.000496
C84	C	1.385379	-0.101079	0.499504
C85	C	0.884305	-0.673904	-0.000528
C86	C	1.384305	-0.173904	0.499472
C87	C	0.757038	-0.656865	-0.000468
C88	C	1.257038	-0.156865	0.499532
C89	C	0.758114	-0.584042	-0.000450
C90	C	1.258114	-0.084042	0.499550
C91	C	0.822286	-0.556154	-0.000457
C92	C	1.322286	-0.056154	0.499543
C93	C	0.952151	0.087546	-0.000510
C94	C	1.452151	0.587546	0.499490
C95	C	1.029656	0.088687	-0.000559
C96	C	1.529656	0.588687	0.499441
C97	C	0.818997	0.220700	-0.000477
C98	C	1.318997	0.720700	0.499523
C99	C	0.820138	0.298204	-0.000500
C100	C	1.320138	0.798204	0.499500
N101	N	0.824467	0.093036	0.350607
N102	N	1.324467	0.593036	0.850607
N103	N	0.824507	0.093024	-0.351494
N104	N	1.324507	0.593024	0.148506
C105	C	0.766778	0.150365	0.585652
C106	C	1.266778	0.650365	1.085652
C107	C	0.766901	0.150576	0.413761
C108	C	1.266901	0.650576	0.913761
C109	C	0.897272	0.108727	0.412904
C110	C	1.397272	0.608727	0.912904
C111	C	0.896956	0.109132	0.584849
C112	C	1.396956	0.609132	1.084849
C113	C	0.810080	0.019822	0.585179
C114	C	1.310080	0.519822	1.085179
C115	C	0.808399	0.020318	0.413225
C116	C	1.308399	0.520318	0.913225
H117	H	0.183988	-0.024713	-0.000482
H118	H	0.683988	0.475287	0.499518
Cl119	Cl	0.965191	0.047018	0.649040
Cl120	Cl	1.465191	0.547018	1.149040
H121	H	0.758160	0.004679	0.628657
H122	H	1.258160	0.504679	1.128657
H123	H	0.942228	-0.266470	-0.000472
H124	H	1.442228	0.233530	0.499528
Cl125	Cl	0.682919	-0.247918	-0.000375
Cl126	Cl	1.182919	0.252082	0.499625
H127	H	0.754844	0.008406	0.372514
H128	H	1.254844	0.508406	0.872514
Cl129	Cl	0.781056	0.234462	0.350192
Cl130	Cl	1.281056	0.734462	0.850192
H131	H	0.909703	0.162511	0.624916
H132	H	1.409703	0.662511	1.124916
H133	H	0.597091	0.212725	-0.000398
H134	H	1.097091	0.712725	0.499602
H135	H	0.713281	-0.103449	-0.000373
H136	H	1.213281	0.396551	0.499627
Cl137	Cl	0.647904	-0.046114	-0.000276
Cl138	Cl	1.147904	0.453886	0.499724
Cl139	Cl	0.965163	0.045949	0.349744
Cl140	Cl	1.465163	0.545949	0.849744
Cl141	Cl	0.001070	0.232175	-0.000597
Cl142	Cl	0.501070	0.732175	0.499403
Cl143	Cl	0.917429	0.190200	0.346368
Cl144	Cl	1.417429	0.690200	0.846368
Cl145	Cl	0.678795	-0.527563	-0.000413
Cl146	Cl	1.178795	-0.027563	0.499587
H147	H	0.944176	-0.134360	-0.000434
H148	H	1.444176	0.365640	0.499566
H149	H	0.937632	-0.578372	-0.000508
H150	H	1.437632	-0.078372	0.499492
H151	H	0.935683	-0.710481	-0.000556
H152	H	1.435683	-0.210481	0.499444
H153	H	0.847728	-0.024333	0.370242
H154	H	1.347728	0.475667	0.870242
H155	H	0.704792	-0.679578	-0.000450
H156	H	1.204792	-0.179578	0.499550
H157	H	0.712777	0.141260	0.371647
H158	H	1.212777	0.641260	0.871647
Cl159	Cl	0.039523	-0.055081	-0.000519
Cl160	Cl	0.539523	0.444919	0.499481
Cl161	Cl	0.445079	0.238719	-0.000443
Cl162	Cl	0.945079	0.738719	0.499557
Cl163	Cl	0.682943	0.136214	0.649571
Cl164	Cl	1.182943	0.636214	1.149571
Cl165	Cl	0.483534	-0.048533	-0.000355
Cl166	Cl	0.983534	0.451467	0.499645
H167	H	0.775839	0.204386	0.628825
H168	H	1.275839	0.704386	1.128825
Cl169	Cl	0.165435	0.234600	-0.000554
Cl170	Cl	0.665435	0.734600	0.499446
H171	H	0.852182	-0.022846	0.625822
H172	H	1.352182	0.477154	1.125822
