data_functionalizedCrystal
_audit_creation_method	'MofGen! by Chris Wilmer'
_symmetry_space_group_name_H-M	'P1'
_symmetry_Int_Tables_number	1
_symmetry_cell_setting	triclinic
loop_
_symmetry_equiv_pos_as_xyz
  x,y,z
_cell_length_a	27.732048
_cell_length_b	15.944551
_cell_length_c	15.021413
_cell_angle_alpha	89.996935
_cell_angle_beta	90.001749
_cell_angle_gamma	83.070697
loop_
_atom_site_label
_atom_site_type_symbol
_atom_site_fract_x
_atom_site_fract_y
_atom_site_fract_z
O1	O	-0.641363	-0.099933	-0.073919
O2	O	-0.141363	0.400067	0.426081
O3	O	-0.500635	-0.115130	-0.073947
O4	O	-0.000635	0.384870	0.426053
O5	O	-0.574842	0.014793	-0.073924
O6	O	-0.074842	0.514793	0.426076
O7	O	-0.567156	-0.229857	-0.073942
O8	O	-0.067156	0.270143	0.426058
O9	O	-0.574830	0.014775	0.074140
O10	O	-0.074830	0.514775	0.574140
O11	O	-0.500623	-0.115149	0.074118
O12	O	-0.000623	0.384851	0.574118
O13	O	-0.641351	-0.099952	0.074145
O14	O	-0.141351	0.400048	0.574145
Zn15	Zn	-0.570985	-0.107553	0.097640
Zn16	Zn	-0.070985	0.392447	0.597640
Zn17	Zn	-0.571001	-0.107529	-0.097441
Zn18	Zn	-0.071001	0.392471	0.402559
O19	O	-0.567144	-0.229875	0.074122
O20	O	-0.067144	0.270125	0.574122
C21	C	-0.574517	0.046074	0.000108
C22	C	-0.074517	0.546074	0.500108
C23	C	-0.573560	0.139307	0.000108
C24	C	-0.073560	0.639307	0.500108
C25	C	-0.482621	-0.114820	0.000082
C26	C	0.017379	0.385180	0.500082
C27	C	-0.428962	-0.113860	0.000072
C28	C	0.071038	0.386140	0.500072
C29	C	-0.659365	-0.100262	0.000114
C30	C	-0.159365	0.399738	0.500114
C31	C	-0.713024	-0.101222	0.000118
C32	C	-0.213024	0.398778	0.500118
C33	C	-0.090453	-0.184589	0.000106
C34	C	0.409547	0.315411	0.500106
C35	C	0.111222	-0.181025	0.000114
C36	C	0.611222	0.318975	0.500114
O37	O	0.142198	-0.245701	0.000148
O38	O	0.642198	0.254299	0.500148
N39	N	0.130679	-0.103986	0.000118
N40	N	0.630679	0.396014	0.500118
C41	C	0.099715	-0.027832	0.000125
C42	C	0.599715	0.472168	0.500125
O43	O	0.120892	0.037776	0.000138
O44	O	0.620892	0.537776	0.500138
C45	C	-0.101959	-0.031397	0.000124
C46	C	0.398041	0.468603	0.500124
C47	C	-0.121414	-0.108441	0.000111
C48	C	0.378586	0.391559	0.500111
C49	C	-0.109908	-0.261627	0.000094
C50	C	0.390092	0.238373	0.500094
C51	C	-0.160324	-0.262517	0.000087
C52	C	0.339676	0.237483	0.500087
C53	C	-0.191285	-0.186369	0.000092
C54	C	0.308715	0.313631	0.500092
C55	C	-0.171830	-0.109331	0.000104
C56	C	0.328170	0.390669	0.500104
C57	C	-0.132923	0.044756	0.000138
C58	C	0.367077	0.544756	0.500138
C59	C	-0.183345	0.043858	0.000139
C60	C	0.316655	0.543858	0.500139
C61	C	-0.202799	-0.033186	0.000126
C62	C	0.297201	0.466814	0.500126
C63	C	-0.253206	-0.034073	0.000102
C64	C	0.246794	0.465927	0.500102
N65	N	-0.272664	-0.111113	0.000098
N66	N	0.227336	0.388887	0.500098
C67	C	-0.241703	-0.187260	0.000093
C68	C	0.258297	0.312740	0.500093
C69	C	0.205597	-0.025966	0.000125
C70	C	0.705597	0.474034	0.500125
C71	C	0.256015	-0.025074	0.000123
C72	C	0.756015	0.474926	0.500123
C73	C	0.267519	-0.178268	0.000113
C74	C	0.767519	0.321732	0.500113
C75	C	0.217100	-0.179158	0.000108
C76	C	0.717100	0.320842	0.500108
C77	C	0.186139	-0.103005	0.000121
C78	C	0.686139	0.396995	0.500121
C79	C	-0.347580	-0.189124	0.000078
C80	C	0.152420	0.310876	0.500078
C81	C	-0.398001	-0.190007	0.000067
C82	C	0.101999	0.309993	0.500067
C83	C	-0.409500	-0.036815	0.000082
C84	C	0.090500	0.463185	0.500082
C85	C	-0.359084	-0.035931	0.000088
C86	C	0.140916	0.464069	0.500088
C87	C	-0.328125	-0.112092	0.000089
C88	C	0.171875	0.387908	0.500089
O89	O	-0.284210	0.030569	0.000078
O90	O	0.215790	0.530569	0.500078
O91	O	-0.262890	-0.252859	0.000100
O92	O	0.237110	0.247141	0.500100
C93	C	-0.040037	-0.183699	0.000112
C94	C	0.459963	0.316301	0.500112
C95	C	-0.020582	-0.106661	0.000124
C96	C	0.479418	0.393339	0.500124
C97	C	-0.051543	-0.030513	0.000129
C98	C	0.448457	0.469487	0.500129
C99	C	0.029836	-0.105769	0.000123
C100	C	0.529836	0.394231	0.500123
C101	C	0.060797	-0.181917	0.000118
C102	C	0.560797	0.318083	0.500118
C103	C	0.041339	-0.258956	0.000114
C104	C	0.541339	0.241044	0.500114
C105	C	-0.009076	-0.259846	0.000107
C106	C	0.490924	0.240154	0.500107
C107	C	-0.032086	0.046526	0.000133
C108	C	0.467914	0.546526	0.500133
C109	C	0.018331	0.047410	0.000139
C110	C	0.518331	0.547410	0.500139
C111	C	0.049291	-0.028738	0.000134
C112	C	0.549291	0.471262	0.500134
C113	C	-0.567469	-0.261156	0.000088
C114	C	-0.067469	0.238844	0.500088
C115	C	-0.568426	-0.354389	0.000082
C116	C	-0.068426	0.145611	0.500082
N117	N	-0.570978	-0.107569	0.230777
N118	N	-0.070978	0.392431	0.730777
C119	C	-0.525277	0.353533	0.000087
C120	C	-0.025277	0.853533	0.500087
C121	C	-0.547692	0.414834	0.073096
C122	C	-0.047692	0.914834	0.573096
C123	C	-0.571830	0.310011	0.000101
C124	C	-0.071830	0.810011	0.500101
C125	C	-0.547715	0.414836	-0.072884
C126	C	-0.047715	0.914836	0.427116
C127	C	-0.570155	0.474902	0.000090
C128	C	-0.070155	0.974902	0.500090
C129	C	-0.594258	0.370084	0.073170
C130	C	-0.094258	0.870084	0.573170
C131	C	-0.594274	0.370079	-0.072875
C132	C	-0.094274	0.870079	0.427125
C133	C	-0.616723	0.431364	0.000152
C134	C	-0.116723	0.931364	0.500152
C135	C	-0.572793	0.215021	0.000108
C136	C	-0.072793	0.715021	0.500108
C137	C	-0.569195	0.569890	0.000090
C138	C	-0.069195	1.069890	0.500090
N139	N	-0.571012	-0.107506	-0.230579
N140	N	-0.071012	0.392494	0.269421
C141	C	-0.536660	-0.167618	0.470450
C142	C	-0.036660	0.332382	0.970450
C143	C	-0.580337	-0.183354	0.529792
C144	C	-0.080337	0.316646	1.029792
C145	C	-0.570990	-0.107548	0.412384
C146	C	-0.070990	0.392452	0.912384
C147	C	-0.527325	-0.091831	0.529784
C148	C	-0.027325	0.408169	1.029784
C149	C	-0.570998	-0.107530	0.587808
C150	C	-0.070998	0.392470	1.087808
C151	C	-0.614690	-0.123321	0.470419
C152	C	-0.114690	0.376679	0.970419
C153	C	-0.561649	-0.031766	0.470407
C154	C	-0.061649	0.468234	0.970407
C155	C	-0.605358	-0.047469	0.529721
C156	C	-0.105358	0.452531	1.029721
C157	C	-0.570985	-0.107561	0.311327
C158	C	-0.070985	0.392439	0.811327
C159	C	-0.571009	-0.107516	0.688863
C160	C	-0.071009	0.392484	1.188863
H161	H	-0.413838	-0.252749	0.000056
H162	H	0.086162	0.247251	0.500056
H163	H	-0.507656	-0.218457	0.444426
H164	H	-0.007656	0.281543	0.944426
Cl165	Cl	-0.517310	0.445469	-0.168173
Cl166	Cl	-0.017310	0.945469	0.331827
H167	H	-0.024911	-0.322584	0.000098
H168	H	0.475089	0.177416	0.500098
H169	H	-0.588245	-0.247433	0.555876
H170	H	-0.088245	0.252567	1.055876
H171	H	-0.486636	0.319720	0.000152
H172	H	0.013364	0.819720	0.500152
Cl173	Cl	-0.517286	0.445472	0.168381
Cl174	Cl	-0.017286	0.945472	0.668381
Cl175	Cl	-0.071001	0.142265	0.000140
Cl176	Cl	0.428999	0.642265	0.500140
Cl177	Cl	-0.671721	-0.143950	0.430334
Cl178	Cl	-0.171721	0.356050	0.930334
H179	H	-0.553727	0.032292	0.444301
H180	H	-0.053727	0.532292	0.944301
Cl181	Cl	-0.650234	0.030977	0.569657
Cl182	Cl	-0.150234	0.530977	1.069657
H183	H	-0.208551	0.105873	0.000150
H184	H	0.291449	0.605873	0.500150
H185	H	-0.655398	0.465028	0.000201
H186	H	-0.155398	0.965028	0.500201
H187	H	-0.490394	-0.078546	0.555863
H188	H	0.009606	0.421454	1.055863
H189	H	-0.176158	-0.325254	0.000076
H190	H	0.323842	0.174746	0.500076
Cl191	Cl	-0.308667	-0.284871	0.000078
Cl192	Cl	0.191333	0.215129	0.500078
H193	H	-0.434718	0.025183	0.000082
H194	H	0.065282	0.525183	0.500082
Cl195	Cl	-0.070994	-0.357369	0.000085
Cl196	Cl	0.429006	0.142631	0.500085
H197	H	0.201264	-0.241894	0.000103
H198	H	0.701264	0.258106	0.500103
Cl199	Cl	0.280465	0.071785	0.000118
Cl200	Cl	0.780465	0.571785	0.500118
Cl201	Cl	0.306450	-0.273996	0.000110
Cl202	Cl	0.806450	0.226004	0.500110
Cl203	Cl	-0.624656	0.339405	-0.168165
Cl204	Cl	-0.124656	0.839405	0.331835
H205	H	-0.343244	0.026805	0.000085
H206	H	0.156756	0.526805	0.500085
H207	H	0.066557	-0.320958	0.000107
H208	H	0.566557	0.179042	0.500107
Cl209	Cl	-0.108479	0.141618	0.000139
Cl210	Cl	0.391521	0.641618	0.500139
Cl211	Cl	0.042780	0.144276	0.000144
Cl212	Cl	0.542780	0.644276	0.500144
Cl213	Cl	0.166681	0.069780	0.000138
Cl214	Cl	0.666681	0.569780	0.500138
H215	H	-0.613926	0.350343	0.134961
H216	H	-0.113926	0.850343	0.634961
