data_functionalizedCrystal
_audit_creation_method	'MofGen! by Chris Wilmer'
_symmetry_space_group_name_H-M	'P1'
_symmetry_Int_Tables_number	1
_symmetry_cell_setting	triclinic
loop_
_symmetry_equiv_pos_as_xyz
  x,y,z
_cell_length_a	13.897449
_cell_length_b	13.897447
_cell_length_c	12.759393
_cell_angle_alpha	90.029275
_cell_angle_beta	89.979470
_cell_angle_gamma	89.977525
loop_
_atom_site_label
_atom_site_type_symbol
_atom_site_fract_x
_atom_site_fract_y
_atom_site_fract_z
Zn1	Zn	1.474677	0.383925	-0.594055
Zn2	Zn	1.808011	0.717258	-0.260722
Zn3	Zn	2.141344	1.050592	0.072612
Zn4	Zn	1.474562	0.545254	-0.418382
Zn5	Zn	1.807895	0.878588	-0.085049
Zn6	Zn	2.141229	1.211921	0.248284
Zn7	Zn	1.313367	0.383979	-0.418388
Zn8	Zn	1.646700	0.717312	-0.085055
Zn9	Zn	1.980034	1.050645	0.248278
Zn10	Zn	1.313338	0.545183	-0.594017
Zn11	Zn	1.646672	0.878517	-0.260684
Zn12	Zn	1.980005	1.211850	0.072649
O13	O	1.393986	0.464585	-0.506211
O14	O	1.727319	0.797919	-0.172877
O15	O	2.060653	1.131252	0.160456
O16	O	1.609644	0.405333	-0.570765
O17	O	1.942977	0.738666	-0.237432
O18	O	2.276310	1.072000	0.095902
O19	O	1.453143	0.523913	-0.271362
O20	O	1.786476	0.857246	0.061971
O21	O	2.119809	1.190580	0.395305
O22	O	1.334825	0.248990	-0.441709
O23	O	1.668159	0.582323	-0.108376
O24	O	2.001492	0.915657	0.224958
O25	O	1.609559	0.523861	-0.441699
O26	O	1.942892	0.857194	-0.108366
O27	O	2.276225	1.190528	0.224968
O28	O	1.453339	0.248951	-0.570771
O29	O	1.786673	0.582284	-0.237437
O30	O	2.120006	0.915617	0.095896
O31	O	1.334714	0.405424	-0.271366
O32	O	1.668047	0.738758	0.061967
O33	O	2.001380	1.072091	0.395300
O34	O	1.178382	0.405356	-0.441673
O35	O	1.511715	0.738689	-0.108339
O36	O	1.845048	1.072022	0.224994
O37	O	1.334776	0.523740	-0.741044
O38	O	1.668110	0.857073	-0.407710
O39	O	2.001443	1.190407	-0.074377
O40	O	1.178360	0.523792	-0.570707
O41	O	1.511694	0.857125	-0.237373
O42	O	1.845027	1.190459	0.095960
O43	O	1.453311	0.405264	-0.741071
O44	O	1.786645	0.738597	-0.407738
O45	O	2.119978	1.071931	-0.074405
O46	O	1.453115	0.680227	-0.441662
O47	O	1.786448	1.013560	-0.108329
O48	O	2.119782	1.346893	0.225004
O49	O	1.334665	0.680174	-0.570701
O50	O	1.667998	1.013508	-0.237367
O51	O	2.001331	1.346841	0.095966
C52	C	1.143372	0.464573	-0.506187
C53	C	1.476705	0.797906	-0.172853
C54	C	1.810038	1.131239	0.160480
C55	C	1.036158	0.464590	-0.506201
C56	C	1.369491	0.797924	-0.172868
C57	C	1.702824	1.131257	0.160465
C58	C	1.393900	0.715200	-0.506200
C59	C	1.727234	1.048533	-0.172866
C60	C	2.060567	1.381866	0.160467
C61	C	1.393952	0.822414	-0.506230
C62	C	1.727285	1.155747	-0.172897
C63	C	2.060619	1.489080	0.160437
C64	C	1.394054	0.464488	-0.780244
C65	C	1.727387	0.797821	-0.446911
C66	C	2.060720	1.131155	-0.113578
C67	C	1.394082	0.464447	-0.897021
C68	C	1.727416	0.797780	-0.563688
C69	C	2.060749	1.131113	-0.230354
C70	C	0.839863	0.464594	-0.506229
C71	C	1.173196	0.797927	-0.172896
C72	C	1.506529	1.131260	0.160438
C73	C	0.949095	0.464589	-0.506211
C74	C	1.282429	0.797922	-0.172877
C75	C	1.615762	1.131255	0.160456
C76	C	1.645579	0.464599	-0.506235
C77	C	1.978912	0.797932	-0.172902
C78	C	2.312246	1.131266	0.160431
C79	C	1.752793	0.464605	-0.506246
C80	C	2.086126	0.797938	-0.172913
C81	C	2.419460	1.131271	0.160421
C82	C	1.393996	0.909483	-0.506259
C83	C	1.727329	1.242817	-0.172925
C84	C	2.060663	1.576150	0.160408
C85	C	1.394061	1.018716	-0.506292
C86	C	1.727394	1.352049	-0.172958
C87	C	2.060727	1.685383	0.160375
C88	C	1.394091	1.212992	-0.506258
C89	C	1.727424	1.546326	-0.172925
C90	C	2.060758	1.879659	0.160408
C91	C	1.394117	1.105778	-0.506313
C92	C	1.727451	1.439112	-0.172979
C93	C	2.060784	1.772445	0.160354
C94	C	1.455812	0.402750	-0.951899
C95	C	1.789145	0.736084	-0.618566
C96	C	2.122479	1.069417	-0.285232
C97	C	1.455835	0.402716	-1.061623
C98	C	1.789168	0.736049	-0.728290
C99	C	2.122502	1.069382	-0.394957
C100	C	1.332396	0.526081	-1.061581
C101	C	1.665729	0.859415	-0.728248
C102	C	1.999063	1.192748	-0.394915
C103	C	1.332369	0.526111	-0.951859
C104	C	1.665702	0.859444	-0.618526
C105	C	1.999035	1.192777	-0.285193
C106	C	1.517526	0.341086	-0.897061
C107	C	1.850859	0.674420	-0.563727
C108	C	2.184192	1.007753	-0.230394
C109	C	1.579261	0.279386	-0.951939
C110	C	1.912595	0.612719	-0.618606
C111	C	2.245928	0.946052	-0.285272
C112	C	1.579284	0.279351	-1.061663
C113	C	1.912618	0.612684	-0.728330
C114	C	2.245951	0.946018	-0.394996
C115	C	1.517572	0.341017	-1.116509
C116	C	1.850905	0.674350	-0.783176
C117	C	2.184238	1.007683	-0.449842
C118	C	1.393974	0.464613	-0.233243
C119	C	1.727308	0.797946	0.100090
C120	C	2.060641	1.131279	0.433423
C121	C	1.394132	0.464382	-0.116467
C122	C	1.727466	0.797716	0.216866
C123	C	2.060799	1.131049	0.550199
H124	H	1.517516	0.341110	-0.807718
H125	H	1.850849	0.674443	-0.474385
H126	H	2.184183	1.007776	-0.141051
H127	H	1.282152	0.576286	-1.106246
H128	H	1.615485	0.909620	-0.772912
H129	H	1.948819	1.242953	-0.439579
O130	O	1.265786	0.592654	-0.892666
O131	O	1.599120	0.925987	-0.559332
O132	O	1.932453	1.259321	-0.225999
H133	H	1.276128	0.582304	-0.807157
H134	H	1.609462	0.915637	-0.473823
H135	H	1.942795	1.248971	-0.140490
H136	H	1.629499	0.229174	-0.907276
H137	H	1.962833	0.562507	-0.573943
H138	H	2.296166	0.895841	-0.240610
H139	H	1.629545	0.229105	-1.106342
H140	H	1.962878	0.562438	-0.773009
H141	H	2.296212	0.895771	-0.439675
H142	H	1.517584	0.340972	-1.205854
H143	H	1.850917	0.674305	-0.872521
H144	H	2.184251	1.007639	-0.539187
