data_functionalizedCrystal
_audit_creation_method	'MofGen! by Chris Wilmer'
_symmetry_space_group_name_H-M	'P1'
_symmetry_Int_Tables_number	1
_symmetry_cell_setting	triclinic
loop_
_symmetry_equiv_pos_as_xyz
  x,y,z
_cell_length_a	11.792241
_cell_length_b	15.995350
_cell_length_c	10.868271
_cell_angle_alpha	89.997096
_cell_angle_beta	89.999893
_cell_angle_gamma	83.842895
loop_
_atom_site_label
_atom_site_type_symbol
_atom_site_fract_x
_atom_site_fract_y
_atom_site_fract_z
O1	O	1.505951	0.114763	-0.102196
O2	O	1.175511	0.126591	-0.102224
O3	O	1.349764	-0.001170	-0.102208
O4	O	1.331698	0.242524	-0.102212
O5	O	1.349750	-0.001175	0.102436
O6	O	1.175497	0.126586	0.102420
O7	O	1.505937	0.114758	0.102448
Zn8	Zn	1.340715	0.120671	0.134926
Zn9	Zn	1.340734	0.120678	-0.134702
O10	O	1.331684	0.242519	0.102432
C11	C	1.133220	0.125845	0.000094
C12	C	1.007224	0.123621	0.000084
C13	C	1.349010	-0.032370	0.000112
C14	C	1.346771	-0.125331	0.000104
C15	C	0.776546	0.119532	0.000119
C16	C	0.904913	0.121804	0.000099
C17	C	1.338730	-0.463115	0.000108
C18	C	1.214630	-0.416244	-0.000362
C19	C	1.216870	-0.319544	0.000100
C20	C	1.342718	-0.295536	0.000105
C21	C	1.403921	-0.336339	0.116971
C22	C	1.400803	-0.432989	0.117068
C23	C	1.403383	-0.433329	-0.115651
C24	C	1.403354	-0.336384	-0.117195
C25	C	1.344979	-0.200829	0.000108
C26	C	1.336473	-0.557823	0.000113
C27	C	1.548229	0.115504	0.000127
C28	C	1.674224	0.117727	0.000130
C29	C	1.332438	0.273719	0.000110
C30	C	1.334677	0.366680	0.000109
N31	N	1.340710	0.120666	0.318940
N32	N	1.340747	0.120676	-0.318716
C33	C	1.340728	0.120676	0.569946
C34	C	1.340714	0.120673	0.430269
H35	H	1.168760	-0.291338	-0.083674
H36	H	1.491915	-0.464823	0.122375
C37	C	1.340486	-0.457996	0.235068
C38	C	1.325165	-0.550940	0.259582
C39	C	1.264844	-0.575941	0.377584
C40	C	1.219845	-0.507999	0.471071
C41	C	1.235165	-0.415049	0.446560
C42	C	1.295486	-0.390048	0.328559
H43	H	1.358477	-0.601240	0.190375
H44	H	1.253503	-0.644750	0.395728
H45	H	1.175192	-0.526507	0.558423
H46	H	1.201852	-0.364749	0.515768
H47	H	1.306826	-0.321240	0.310414
H48	H	1.358607	-0.309336	-0.203649
H49	H	1.362815	-0.454051	-0.204227
H50	H	1.494881	-0.464675	-0.116432
C51	C	1.527336	-0.315069	-0.126735
C52	C	1.575910	-0.259955	-0.027733
C53	C	1.699896	-0.238639	-0.037264
C54	C	1.775309	-0.272436	-0.145797
C55	C	1.726737	-0.327553	-0.244806
C56	C	1.602750	-0.348870	-0.235275
H57	H	1.520083	-0.234933	0.052616
H58	H	1.735852	-0.197837	0.036030
H59	H	1.867092	-0.256656	-0.152852
H60	H	1.782563	-0.352575	-0.325156
H61	H	1.566794	-0.389671	-0.308569
H62	H	1.165243	-0.436064	0.082970
H63	H	1.165035	-0.434999	-0.084168
C64	C	1.151590	-0.282290	0.113615
C65	C	1.213246	-0.233052	0.210098
C66	C	1.148040	-0.195845	0.323695
C67	C	1.021177	-0.207876	0.340810
C68	C	0.959513	-0.257116	0.244324
C69	C	1.024720	-0.294323	0.130726
H70	H	1.307164	-0.224144	0.197432
H71	H	1.193688	-0.159394	0.395120
H72	H	0.972907	-0.180333	0.424901
H73	H	0.865596	-0.266024	0.256990
H74	H	0.979072	-0.330774	0.059301
C75	C	1.528814	-0.316667	0.122864
C76	C	1.570673	-0.268395	0.233649
C77	C	1.695561	-0.248711	0.239540
C78	C	1.778591	-0.277298	0.134647
C79	C	1.736734	-0.325572	0.023853
C80	C	1.611846	-0.345257	0.017962
H81	H	1.509207	-0.247230	0.311305
H82	H	1.726546	-0.212974	0.321557
H83	H	1.871041	-0.262726	0.139008
H84	H	1.798200	-0.346737	-0.053802
H85	H	1.580861	-0.380993	-0.064055
H86	H	1.361401	-0.308152	0.203934
