data_functionalizedCrystal
_audit_creation_method	'MofGen! by Chris Wilmer'
_symmetry_space_group_name_H-M	'P1'
_symmetry_Int_Tables_number	1
_symmetry_cell_setting	triclinic
loop_
_symmetry_equiv_pos_as_xyz
  x,y,z
_cell_length_a	9.065215
_cell_length_b	26.210047
_cell_length_c	9.065218
_cell_angle_alpha	89.997417
_cell_angle_beta	94.984709
_cell_angle_gamma	90.015909
loop_
_atom_site_label
_atom_site_type_symbol
_atom_site_fract_x
_atom_site_fract_y
_atom_site_fract_z
O1	O	1.960430	0.042421	-0.216334
O2	O	1.531144	0.042423	-0.234084
O3	O	1.754660	0.042421	-0.010566
O4	O	1.736914	0.042423	-0.439851
O5	O	1.754589	-0.042437	-0.010565
O6	O	1.531073	-0.042435	-0.234083
O7	O	1.960358	-0.042437	-0.216332
Cu8	Cu	1.745709	-0.050184	-0.225207
Cu9	Cu	1.745794	0.050170	-0.225209
O10	O	1.736843	-0.042435	-0.439850
C11	C	1.476122	-0.000006	-0.232379
C12	C	1.312279	-0.000005	-0.227281
N13	N	1.745661	-0.120768	-0.225205
C14	C	1.836462	-0.473282	-0.315933
C15	C	1.836506	-0.686941	-0.315933
O16	O	1.913675	-0.714563	-0.393056
N17	N	1.745828	-0.713662	-0.225195
C18	C	1.655141	-0.686966	-0.134443
O19	O	1.578026	-0.714596	-0.057254
C20	C	1.655106	-0.473308	-0.134437
C21	C	1.745778	-0.446589	-0.225192
C22	C	1.927129	-0.446564	-0.406679
C23	C	1.927111	-0.393153	-0.406685
C24	C	1.836427	-0.366460	-0.315943
C25	C	1.745760	-0.393178	-0.225197
C26	C	1.564427	-0.446612	-0.043679
C27	C	1.564429	-0.393194	-0.043682
C28	C	1.655101	-0.366476	-0.134437
C29	C	1.655059	-0.313074	-0.134461
N30	N	1.745736	-0.286352	-0.225199
C31	C	1.836420	-0.313045	-0.315940
C32	C	1.655163	-0.799139	-0.134455
C33	C	1.655170	-0.852553	-0.134458
C34	C	1.836538	-0.852525	-0.315946
C35	C	1.836522	-0.799110	-0.315950
C36	C	1.745841	-0.772418	-0.225193
C37	C	1.836375	-0.200877	-0.315945
C38	C	1.836345	-0.147461	-0.315947
C39	C	1.654983	-0.147494	-0.134454
C40	C	1.655007	-0.200906	-0.134457
C41	C	1.745715	-0.227596	-0.225207
O42	O	1.577943	-0.285419	-0.057366
O43	O	1.913548	-0.285406	-0.393094
C44	C	1.836480	-0.526694	-0.315928
C45	C	1.745814	-0.553412	-0.225182
C46	C	1.655130	-0.526719	-0.134440
C47	C	1.745820	-0.606827	-0.225185
C48	C	1.836504	-0.633520	-0.315926
C49	C	1.927182	-0.606798	-0.406664
C50	C	1.927164	-0.553387	-0.406669
C51	C	1.564452	-0.553441	-0.043702
C52	C	1.564476	-0.606852	-0.043706
C53	C	1.655160	-0.633545	-0.134447
C54	C	2.015381	-0.000007	-0.218038
C55	C	2.179224	-0.000005	-0.223136
C56	C	1.752919	-0.000007	0.044421
C57	C	1.747819	-0.000005	0.208264
N58	N	1.745854	0.120754	-0.225200
C59	C	1.738584	-0.000006	-0.494837
C60	C	1.743683	-0.000005	-0.658680
H61	H	1.910181	-0.125710	-0.389857
H62	H	2.000952	-0.371403	-0.480580
C63	C	1.464664	-0.363836	0.056155
N64	N	1.389517	-0.341725	0.131347
C65	C	2.026869	-0.475918	-0.506540
N66	N	2.101981	-0.498024	-0.581779
H67	H	1.910355	-0.777359	-0.389851
C68	C	1.936300	-0.881897	-0.415754
N69	N	2.011446	-0.904023	-0.490915
H70	H	2.000999	-0.531637	-0.480571
H71	H	2.001013	-0.628541	-0.480556
C72	C	1.555471	-0.118122	-0.034409
N73	N	1.480610	-0.095997	0.041039
C74	C	1.464717	-0.636236	0.056134
N75	N	1.389589	-0.658367	0.131341
C76	C	1.555406	-0.881937	-0.034638
N77	N	1.480266	-0.904068	0.040557
C78	C	1.464678	-0.475991	0.056161
N79	N	1.389541	-0.498117	0.131367
C80	C	1.936144	-0.230229	-0.415789
N81	N	2.011279	-0.252336	-0.491002
C82	C	1.555388	-0.769784	-0.034621
N83	N	1.480229	-0.747677	0.040569
C84	C	1.555260	-0.230297	-0.034626
N85	N	1.480142	-0.252431	0.040582
H86	H	1.490607	-0.531713	0.030194
