data_functionalizedCrystal
_audit_creation_method	'MofGen! by Chris Wilmer'
_symmetry_space_group_name_H-M	'P1'
_symmetry_Int_Tables_number	1
_symmetry_cell_setting	triclinic
loop_
_symmetry_equiv_pos_as_xyz
  x,y,z
_cell_length_a	16.793024
_cell_length_b	16.793047
_cell_length_c	33.586455
_cell_angle_alpha	113.253857
_cell_angle_beta	66.219990
_cell_angle_gamma	112.758327
loop_
_atom_site_label
_atom_site_type_symbol
_atom_site_fract_x
_atom_site_fract_y
_atom_site_fract_z
O1	O	0.005016	-0.570216	-0.583573
O2	O	-0.034529	-0.474528	-0.453458
O3	O	0.114723	-0.474535	-0.528082
O4	O	-0.144235	-0.570209	-0.508949
O5	O	0.108729	-0.346329	-0.530229
O6	O	-0.040523	-0.346322	-0.455605
O7	O	-0.000977	-0.442010	-0.585721
Cu8	Cu	-0.021297	-0.382459	-0.520859
Cu9	Cu	-0.014209	-0.534079	-0.518320
O10	O	-0.150229	-0.442003	-0.511097
C11	C	0.005100	-0.790970	-0.238461
C12	C	0.009223	-0.693065	-0.217557
C13	C	0.003804	-0.645758	-0.241627
C14	C	-0.075059	-0.538459	-0.266316
C15	C	0.049838	-0.422849	-0.250165
C16	C	-0.040584	-0.395375	-0.435637
C17	C	-0.044693	-0.353446	-0.386631
C18	C	-0.039275	-0.401741	-0.363054
C19	C	-0.040566	-0.125547	-0.300731
C20	C	-0.044689	-0.223451	-0.321635
C21	C	-0.039266	-0.270752	-0.297563
C22	C	0.039597	-0.378051	-0.272874
C23	C	-0.085304	-0.493667	-0.289026
C24	C	0.005118	-0.521142	-0.103554
C25	C	0.009231	-0.563064	-0.152559
C26	C	0.003809	-0.514775	-0.176138
C27	C	0.010758	-0.652581	-0.172822
C28	C	0.001010	-0.556371	-0.220792
C29	C	-0.008251	-0.506059	-0.245823
C30	C	-0.046224	-0.263935	-0.366370
C31	C	-0.036476	-0.360146	-0.318399
C32	C	-0.027211	-0.410451	-0.293367
C33	C	0.815184	-0.521162	-0.508596
C34	C	0.717729	-0.563083	-0.506815
C35	C	0.669923	-0.514793	-0.509201
C36	C	0.564072	-0.463272	-0.548285
C37	C	0.445555	-0.498966	-0.486078
C38	C	0.415541	-0.125553	-0.528781
C39	C	0.375032	-0.223457	-0.531493
C40	C	0.423813	-0.270761	-0.529101
C41	C	0.149318	-0.395376	-0.530584
C42	C	0.246774	-0.353455	-0.532364
C43	C	0.294574	-0.401748	-0.529976
C44	C	0.400424	-0.453269	-0.490892
C45	C	0.518948	-0.417572	-0.553101
C46	C	0.548961	-0.790984	-0.510398
C47	C	0.589464	-0.693083	-0.507684
C48	C	0.540690	-0.645776	-0.510078
C49	C	0.678399	-0.652598	-0.506649
C50	C	0.581167	-0.556389	-0.510877
C51	C	0.530434	-0.506073	-0.515170
C52	C	0.286104	-0.263940	-0.532530
C53	C	0.383336	-0.360149	-0.528302
C54	C	0.434062	-0.410467	-0.524008
C55	C	-0.040530	-0.395407	-0.935652
C56	C	-0.044651	-0.353482	-0.886645
C57	C	-0.039242	-0.401770	-0.863061
C58	C	0.039602	-0.453292	-0.810474
C59	C	-0.085288	-0.417587	-0.750981
C60	C	0.005063	-0.791004	-0.738448
C61	C	0.009186	-0.693099	-0.717543
C62	C	0.003779	-0.645796	-0.741620
C63	C	0.005077	-0.521171	-0.603544
C64	C	0.009198	-0.563096	-0.652550
C65	C	0.003786	-0.514804	-0.676131
C66	C	-0.075058	-0.463283	-0.728717
C67	C	0.049835	-0.498991	-0.788214
C68	C	-0.040516	-0.125574	-0.800747
C69	C	-0.044642	-0.223476	-0.821649
C70	C	-0.039232	-0.270782	-0.797575
C71	C	-0.046172	-0.263965	-0.866386
C72	C	-0.036447	-0.360171	-0.818406
C73	C	-0.027197	-0.410486	-0.793373
C74	C	0.010719	-0.652613	-0.672809
C75	C	0.000994	-0.556406	-0.720789
C76	C	-0.008259	-0.506089	-0.745819
O77	O	-0.000965	0.173549	-0.277957
O78	O	-0.040516	-0.085616	-0.325254
O79	O	0.108737	0.059592	-0.327284
O80	O	-0.150219	0.028341	-0.275927
O81	O	0.114753	0.055151	-0.263265
O82	O	-0.034500	-0.090057	-0.261234
O83	O	0.005051	0.169108	-0.213937
Cu84	Cu	-0.014175	0.039120	-0.231740
Cu85	Cu	-0.021290	0.044372	-0.307451
O86	O	-0.144202	0.023900	-0.211907
O87	O	-0.034458	-0.474571	0.046517
O88	O	0.005076	-0.570190	-0.083599
O89	O	-0.144170	-0.570237	-0.008972
O90	O	0.114787	-0.474523	-0.028110
O91	O	-0.150200	-0.442024	-0.011093
O92	O	-0.000954	-0.441976	-0.085720
O93	O	-0.040488	-0.346357	0.044396
Cu94	Cu	-0.021272	-0.382460	-0.020856
Cu95	Cu	-0.014141	-0.534087	-0.018347
O96	O	0.108757	-0.346309	-0.030231
C97	C	-0.850734	0.086244	-0.289716
C98	C	-0.753280	0.087165	-0.312001
C99	C	-0.705462	0.081107	-0.288506
C100	C	-0.599592	0.000085	-0.264184
C101	C	-0.481080	0.121287	-0.283645
C102	C	-0.450996	0.035117	-0.097351
C103	C	-0.410501	0.028587	-0.146852
C104	C	-0.459292	0.034683	-0.169840
C105	C	-0.184802	0.024283	-0.235878
C106	C	-0.282257	0.023363	-0.213592
C107	C	-0.330068	0.029423	-0.237088
C108	C	-0.435938	0.110445	-0.261411
C109	C	-0.554456	-0.010759	-0.241948
C110	C	-0.584541	0.075410	-0.428242
C111	C	-0.625029	0.081943	-0.378743
C112	C	-0.576244	0.075844	-0.355753
C113	C	-0.713963	0.086424	-0.357292
C114	C	-0.616708	0.075351	-0.310510
C115	C	-0.565963	0.065400	-0.286043
C116	C	-0.321573	0.024104	-0.168302
C117	C	-0.418828	0.035176	-0.215083
C118	C	-0.469568	0.045131	-0.239552
O119	O	0.585213	0.169090	-0.504004
O120	O	0.494056	-0.090076	-0.525516
O121	O	0.488081	0.055124	-0.449918
O122	O	0.591189	0.023889	-0.579602
O123	O	0.359978	0.059584	-0.452885
O124	O	0.365953	-0.085616	-0.528483
O125	O	0.457110	0.173550	-0.506971
Cu126	Cu	0.399835	0.044374	-0.517998
Cu127	Cu	0.551332	0.039099	-0.514489
O128	O	0.463086	0.028349	-0.582569
C129	C	0.815354	-0.521094	-0.008709
C130	C	0.717898	-0.563028	-0.006927
C131	C	0.670072	-0.514739	-0.009298
C132	C	0.564182	-0.463204	-0.048354
C133	C	0.445681	-0.498945	0.013847
C134	C	0.415547	-0.125494	-0.028771
C135	C	0.375059	-0.223405	-0.031498
C136	C	0.423859	-0.270708	-0.029121
C137	C	0.149365	-0.395355	-0.030599
C138	C	0.246820	-0.353421	-0.032381
C139	C	0.294640	-0.401713	-0.030008
C140	C	0.400530	-0.453248	0.009048
C141	C	0.519038	-0.417504	-0.053155
C142	C	0.549171	-0.790955	-0.010537
C143	C	0.589653	-0.693047	-0.007809
C144	C	0.540859	-0.645741	-0.010187
C145	C	0.678588	-0.652551	-0.006775
C146	C	0.581317	-0.556344	-0.010973
C147	C	0.530562	-0.506029	-0.015250
C148	C	0.286131	-0.263897	-0.032533
C149	C	0.383402	-0.360104	-0.028335
C150	C	0.434150	-0.410423	-0.024057
O151	O	-0.620614	0.089309	0.052274
O152	O	-0.529507	0.043784	-0.078544
O153	O	-0.523494	0.194833	-0.006033
O154	O	-0.626628	-0.061740	-0.020236
O155	O	-0.395386	0.185419	-0.005549
O156	O	-0.401400	0.034370	-0.078059
O157	O	-0.492507	0.079895	0.052758
Cu158	Cu	-0.435256	0.056273	-0.012607
Cu159	Cu	-0.586758	0.067406	-0.013179
O160	O	-0.498521	-0.071154	-0.019752
C161	C	-0.437537	0.048335	0.402491
C162	C	-0.397043	0.041789	0.352989
C163	C	-0.445822	0.047883	0.329994
C164	C	-0.496646	0.126653	0.277022
C165	C	-0.465894	-0.000633	0.218811
C166	C	-0.837226	0.099430	0.210091
C167	C	-0.739773	0.100339	0.187806
C168	C	-0.691967	0.094287	0.211308
C169	C	-0.571027	0.088563	0.071568
C170	C	-0.611521	0.095108	0.121070
C171	C	-0.562739	0.089011	0.144061
C172	C	-0.511915	0.010241	0.197033
C173	C	-0.542670	0.137531	0.255247
C174	C	-0.171338	0.037467	0.263967
C175	C	-0.268788	0.036555	0.286249
C176	C	-0.316597	0.042611	0.262750
C177	C	-0.308112	0.037305	0.331542
C178	C	-0.405351	0.048369	0.284750
C179	C	-0.456092	0.058317	0.260279
C180	C	-0.700452	0.099593	0.142516
C181	C	-0.603213	0.088528	0.189308
C182	C	-0.552469	0.078578	0.213776
O183	O	-0.040608	-1.085661	-0.825229
O184	O	-0.001018	-0.826491	-0.777938
O185	O	-0.150287	-0.971682	-0.775894
O186	O	0.108661	-0.940470	-0.827272
O187	O	-0.144253	-0.976123	-0.711878
O188	O	0.005016	-0.830932	-0.713922
O189	O	-0.034575	-1.090102	-0.761213
Cu190	Cu	-0.014228	-0.960923	-0.731722
Cu191	Cu	-0.021364	-0.955670	-0.807428
O192	O	0.114695	-0.944911	-0.763256
O193	O	-0.036816	-0.230509	-0.253950
C194	C	-0.111405	-0.277868	-0.225319
H195	H	-0.136412	-0.349914	-0.245937
H196	H	-0.090117	-0.278715	-0.197297
H197	H	-0.167999	-0.243272	-0.209571
H198	H	0.496441	-0.236915	-0.527803
O199	O	-0.277309	0.043081	0.218612
C200	C	-0.275790	0.123803	0.214224
H201	H	-0.279816	0.177578	0.248317
H202	H	-0.210366	0.147399	0.187964
H203	H	-0.335956	0.111707	0.202840
H204	H	-0.142686	-0.383972	-0.734830
H205	H	-0.123559	-0.467696	-0.693740
H206	H	-0.574318	0.196197	0.271049
H207	H	0.013347	-0.692513	-0.652885
O208	O	0.647550	-0.468591	-0.577309
C209	C	0.641959	-0.510887	-0.622016
H210	H	0.579508	-0.503403	-0.624396
H211	H	0.704978	-0.478058	-0.646372
H212	H	0.636873	-0.585401	-0.631433
O213	O	0.454046	-0.686020	-0.511644
C214	C	0.419424	-0.624204	-0.513940
H215	H	0.477729	-0.569747	-0.528210
H216	H	0.373869	-0.660944	-0.536974
H217	H	0.378678	-0.591935	-0.478494
O218	O	0.237984	-0.216205	-0.533715
C219	C	0.232040	-0.141518	-0.494812
H220	H	0.290123	-0.123985	-0.480772
H221	H	0.236261	-0.081471	-0.504215
H222	H	0.164929	-0.158702	-0.467993
O223	O	0.001098	-0.686117	-0.785195
C224	C	-0.079805	-0.685597	-0.788458
H225	H	-0.106635	-0.629158	-0.759386
H226	H	-0.066120	-0.674230	-0.822189
H227	H	-0.132077	-0.752980	-0.786438
H228	H	-0.267732	0.034117	0.350946
O229	O	0.726642	-0.700197	-0.005461
C230	C	0.682961	-0.730081	0.033818
H231	H	0.608313	-0.732687	0.045859
H232	H	0.689879	-0.800157	0.025705
H233	H	0.715367	-0.681567	0.061652
O234	O	0.013784	-0.700318	-0.149087
C235	C	-0.063016	-0.775013	-0.146611
H236	H	-0.090882	-0.792545	-0.175763
H237	H	-0.043392	-0.835057	-0.149133
H238	H	-0.116876	-0.757841	-0.112937
H239	H	0.107227	-0.532615	-0.804368
H240	H	-0.724884	0.094041	0.248327
H241	H	-0.489994	0.175891	0.311254
O242	O	-0.532484	0.053308	0.351284
C243	C	-0.567103	0.058871	0.320853
H244	H	-0.527588	0.029250	0.284528
H245	H	-0.641443	0.019468	0.327113
H246	H	-0.560272	0.132390	0.326312
O247	O	0.118427	-0.386126	-0.231117
C248	C	0.201870	-0.372679	-0.265140
H249	H	0.191097	-0.368029	-0.295479
H250	H	0.250731	-0.307535	-0.251220
H251	H	0.231257	-0.431596	-0.276232
H252	H	-0.740818	0.102779	0.123104
O253	O	0.097326	-0.296086	-0.276240
C254	C	0.048264	-0.231196	-0.256263
H255	H	-0.018067	-0.255765	-0.230738
H256	H	0.089779	-0.165004	-0.238171
H257	H	0.033407	-0.220348	-0.283727
O258	O	-0.132982	-0.620284	-0.262808
C259	C	-0.177533	-0.616252	-0.216659
H260	H	-0.176647	-0.543506	-0.195961
H261	H	-0.250480	-0.659309	-0.212548
H262	H	-0.141500	-0.642682	-0.204150
O263	O	-0.442983	0.188101	-0.304278
C264	C	-0.360844	0.175736	-0.337489
H265	H	-0.361654	0.101997	-0.348524
H266	H	-0.352205	0.195641	-0.368050
H267	H	-0.302252	0.219570	-0.322751
O268	O	-0.290821	0.029578	-0.281271
C269	C	-0.265315	-0.050930	-0.307266
H270	H	-0.307875	-0.105068	-0.288962
H271	H	-0.276655	-0.074108	-0.341830
H272	H	-0.190794	-0.038714	-0.312025
H273	H	0.413699	-0.532573	-0.457601
H274	H	-0.503619	0.071273	-0.373665
O275	O	0.001421	-0.427474	-0.155928
C276	C	0.080557	-0.376168	-0.142837
H277	H	0.136327	-0.411615	-0.164359
H278	H	0.103101	-0.306728	-0.148039
H279	H	0.066236	-0.368673	-0.105528
H280	H	-0.037089	-0.236932	-0.761035
O281	O	0.001369	-0.686192	-0.285236
C282	C	0.080518	-0.714488	-0.311964
H283	H	0.110377	-0.723022	-0.289320
H284	H	0.063322	-0.781478	-0.338282
H285	H	0.131857	-0.661849	-0.329902
H286	H	0.496488	-0.236853	-0.027824
O287	O	-0.683138	-0.055627	-0.265625
C288	C	-0.707868	-0.118506	-0.241797
H289	H	-0.668062	-0.090304	-0.216322
H290	H	-0.783297	-0.132033	-0.223053
H291	H	-0.692243	-0.184027	-0.266746
O292	O	0.454261	-0.686124	-0.011812
C293	C	0.447713	-0.685536	-0.052242
H294	H	0.517138	-0.679158	-0.078575
H295	H	0.398547	-0.750925	-0.065709
H296	H	0.422158	-0.626053	-0.045133
H297	H	0.718758	-0.692512	-0.505593
H298	H	-0.754334	0.089615	-0.376700
O299	O	0.647709	-0.468580	-0.077291
C300	C	0.680453	-0.519192	-0.065447
H301	H	0.621147	-0.564993	-0.045732
H302	H	0.720091	-0.561869	-0.097556
H303	H	0.726597	-0.471643	-0.043478
O304	O	-0.153851	-0.530463	-0.308106
C305	C	-0.204445	-0.614575	-0.299752
H306	H	-0.194742	-0.616959	-0.268586
H307	H	-0.279096	-0.624244	-0.293530
H308	H	-0.180410	-0.670536	-0.330385
H309	H	-0.365918	0.157102	-0.260160
H310	H	-0.586315	-0.066836	-0.224702
H311	H	0.550810	-0.383955	-0.581575
O312	O	-0.744826	0.080623	-0.244372
C313	C	-0.821987	0.006453	-0.240933
H314	H	-0.815525	-0.047521	-0.275000
H315	H	-0.828002	-0.022307	-0.213939
H316	H	-0.884827	0.029211	-0.231080
O317	O	0.316939	-0.447843	-0.461922
C318	C	0.318540	-0.356760	-0.439009
H319	H	0.376745	-0.312270	-0.459846
H320	H	0.251947	-0.345849	-0.434194
H321	H	0.328223	-0.338508	-0.404459
H322	H	-0.037138	-0.474881	-0.380005
H323	H	0.702991	-0.441593	-0.009870
H324	H	-0.531920	0.039247	-0.151930
H325	H	-0.048864	-0.224020	-0.386283
H326	H	0.261638	-0.474883	-0.529387
O327	O	-0.273451	0.020427	-0.145088
C328	C	-0.267497	0.098071	-0.107826
H329	H	-0.325574	0.127734	-0.098272
H330	H	-0.271722	0.079376	-0.077746
H331	H	-0.200382	0.149887	-0.117327
H332	H	0.261721	-0.474856	-0.029430
O333	O	-0.476144	0.083441	0.122634
C334	C	-0.474447	0.006033	0.085052
H335	H	-0.536977	-0.014575	0.073829
H336	H	-0.411157	0.021318	0.055961
H337	H	-0.473832	-0.051238	0.094975
H338	H	0.702857	-0.441654	-0.509785
H339	H	-0.048809	-0.224052	-0.886301
H340	H	0.001639	-0.441666	-0.659178
H341	H	0.330510	-0.448858	0.033327
O342	O	0.407550	-0.539055	0.047818
C343	C	0.321877	-0.523702	0.073241
H344	H	0.294950	-0.508609	0.051551
H345	H	0.273336	-0.586155	0.084145
H346	H	0.328066	-0.463930	0.104584
O347	O	-0.036811	-0.489055	-0.883311
C348	C	-0.115958	-0.540367	-0.896390
H349	H	-0.145815	-0.494268	-0.900252
H350	H	-0.098759	-0.593467	-0.930118
H351	H	-0.167300	-0.574859	-0.869378
O352	O	0.238083	-0.216167	-0.033781
C353	C	0.292489	-0.127750	-0.033655
H354	H	0.366804	-0.126963	-0.046930
H355	H	0.277157	-0.103461	-0.056363
H356	H	0.277501	-0.081331	0.002431
O357	O	0.097510	-0.448137	-0.852211
C358	C	0.161689	-0.495122	-0.864890
H359	H	0.133103	-0.547157	-0.845339
H360	H	0.177737	-0.530558	-0.902842
H361	H	0.226123	-0.445644	-0.856744
O362	O	0.557149	-0.377437	-0.087142
C363	C	0.642848	-0.392740	-0.112544
H364	H	0.645819	-0.455358	-0.108138
H365	H	0.654689	-0.403108	-0.149934
H366	H	0.697333	-0.332131	-0.100104
H367	H	-0.518563	-0.039000	0.162804
H368	H	-0.434254	-0.059305	0.203012
