data_functionalizedCrystal
_audit_creation_method	'MofGen! by Chris Wilmer'
_symmetry_space_group_name_H-M	'P1'
_symmetry_Int_Tables_number	1
_symmetry_cell_setting	triclinic
loop_
_symmetry_equiv_pos_as_xyz
  x,y,z
_cell_length_a	19.851628
_cell_length_b	14.560438
_cell_length_c	19.851628
_cell_angle_alpha	120.005212
_cell_angle_beta	90.002183
_cell_angle_gamma	60.003774
loop_
_atom_site_label
_atom_site_type_symbol
_atom_site_fract_x
_atom_site_fract_y
_atom_site_fract_z
Zr1	Zr	0.648900	1.005396	0.088429
O2	O	0.541342	1.197001	0.195989
O3	O	0.681871	0.813794	0.055458
O4	O	0.681867	1.005422	0.195999
O5	O	0.541350	1.005351	-0.055415
O6	O	0.792716	1.005440	0.196005
O7	O	0.541346	1.005372	0.055448
O8	O	0.792723	0.662652	-0.055397
O9	O	0.541343	1.348138	0.195987
O10	O	0.778659	0.892615	0.041399
O11	O	0.695936	0.892586	-0.041342
O12	O	0.695932	1.118203	0.124127
O13	O	0.613209	1.118174	0.041387
Zr14	Zr	0.825696	1.005390	-0.088375
Zr15	Zr	0.825691	1.005424	0.088439
Zr16	Zr	0.648905	1.005361	-0.088385
Zr17	Zr	0.648900	1.246444	0.088426
Zr18	Zr	0.825696	0.764342	-0.088372
O19	O	0.792724	1.196992	-0.055404
O20	O	0.792716	1.197041	0.196003
O21	O	0.541350	1.196951	-0.055418
O22	O	0.933253	0.813785	-0.195935
O23	O	0.933245	0.813834	0.055472
O24	O	0.681879	0.813745	-0.195948
O25	O	0.933246	1.005435	0.055470
O26	O	0.792728	1.005363	-0.195945
O27	O	0.681879	1.005346	-0.195951
O28	O	0.933249	1.005413	-0.055394
O29	O	0.681868	1.348161	0.195995
O30	O	0.792728	0.662625	-0.195940
O31	O	0.933253	0.662647	-0.195932
O32	O	0.933249	0.662675	-0.055389
O33	O	0.541347	1.348111	0.055443
O34	O	0.681872	1.348133	0.055451
O35	O	0.778664	0.892583	-0.124073
O36	O	0.861387	0.892612	-0.041332
O37	O	0.778659	1.118200	0.041396
O38	O	0.695937	1.118171	-0.041345
C39	C	0.737297	0.703879	0.000031
C40	C	0.737297	0.601548	0.000033
C41	C	0.780476	0.553487	0.043223
C42	C	0.780479	0.457328	0.043215
C43	C	0.694118	0.457302	-0.043174
C44	C	0.694120	0.553453	-0.043170
C45	C	0.871605	0.272421	0.055849
C46	C	0.914775	0.224373	0.099053
C47	C	0.913640	0.309117	0.176448
C48	C	0.869322	0.441929	0.210658
C49	C	0.826145	0.489980	0.167459
C50	C	0.827297	0.405217	0.090050
C51	C	0.602992	0.738369	-0.055796
C52	C	0.559810	0.786429	-0.098990
C53	C	0.560937	0.701693	-0.176385
C54	C	0.605241	0.568892	-0.210589
C55	C	0.648422	0.520832	-0.167395
C56	C	0.647297	0.605573	-0.090001
C57	C	0.516159	1.005357	0.000015
C58	C	0.441107	1.005345	0.000011
C59	C	0.304847	0.882374	-0.045086
C60	C	0.237400	0.943847	-0.077786
C61	C	0.303675	1.005379	0.000021
C62	C	0.237388	0.943898	0.032693
C63	C	0.170926	1.005402	0.000031
C64	C	0.237216	1.066853	-0.032724
C65	C	0.237215	1.066886	0.077798
C66	C	0.169755	1.128449	0.045118
C67	C	0.380150	1.005362	0.000014
C68	C	0.094450	1.005429	0.000037
C69	C	0.958436	1.005428	0.000039
C70	C	1.033489	1.005440	0.000044
C71	C	0.737291	1.005436	0.221195
C72	C	0.737289	1.005451	0.296257
C73	C	0.737298	1.306907	0.000023
C74	C	0.737298	1.409238	0.000022
C75	C	0.692177	1.128439	0.567610
C76	C	0.659479	1.066964	0.500147
C77	C	0.737286	1.005419	0.566409
C78	C	0.769946	1.066948	0.500155
C79	C	0.737286	1.005441	0.433677
C80	C	0.704543	0.943943	0.499934
C81	C	0.815052	0.943945	0.499952
C82	C	0.782374	0.882380	0.432476
C83	C	0.737284	1.005410	0.642874
C84	C	0.737287	1.005441	0.357210
C85	C	0.737299	1.005367	0.778866
C86	C	0.737285	1.005405	0.703823
C87	C	0.958436	0.703914	0.000044
C88	C	1.033488	0.601595	0.000049
C89	C	0.737304	0.703836	-0.221136
C90	C	0.737306	0.601490	-0.296197
C91	C	0.958443	0.703871	-0.221124
C92	C	1.033497	0.601537	-0.296180
C93	C	0.516153	1.306915	0.221178
C94	C	0.441098	1.409248	0.296235
C95	C	0.516160	1.306871	0.000011
C96	C	0.441107	1.409190	0.000005
C97	C	0.737291	1.306950	0.221190
C98	C	0.737289	1.409296	0.296251
C99	C	1.025551	0.553547	0.043244
C100	C	1.096063	0.457421	0.043266
C101	C	1.174513	0.409338	0.000087
C102	C	1.182449	0.457396	-0.043109
C103	C	1.111937	0.553527	-0.043125
C104	C	0.780490	0.553426	-0.374639
C105	C	0.780489	0.457275	-0.445173
C106	C	0.737308	0.409183	-0.437264
C107	C	0.694119	0.457256	-0.358814
C108	C	0.694116	0.553412	-0.288281
C109	C	1.111931	0.553496	-0.288238
C110	C	1.182460	0.457356	-0.358755
C111	C	1.174552	0.409253	-0.437213
C112	C	1.096110	0.457304	-0.445154
C113	C	1.025583	0.553449	-0.374638
C114	C	0.362664	1.457302	0.288292
C115	C	0.292136	1.553471	0.358809
C116	C	0.300043	1.601580	0.437268
C117	C	0.378486	1.553522	0.445209
C118	C	0.449012	1.457361	0.374692
C119	C	0.449045	1.457249	-0.043182
C120	C	0.378532	1.553402	-0.043185
C121	C	0.300083	1.601488	-0.000004
C122	C	0.292146	1.553425	0.043189
C123	C	0.362659	1.457280	0.043196
C124	C	0.780479	1.457357	0.288316
C125	C	0.780493	1.553509	0.358836
C126	C	0.737312	1.601604	0.437292
C127	C	0.694122	1.553533	0.445226
C128	C	0.694113	1.457377	0.374706
H129	H	0.868393	0.510926	0.273685
H130	H	1.089586	0.418303	0.078441
H131	H	0.658953	0.592534	-0.224413
H132	H	1.118386	0.592647	-0.224360
H133	H	0.961679	0.592695	0.078415
H134	H	0.737318	0.330887	-0.494703
H135	H	0.684494	0.412694	-0.195250
H136	H	0.797567	1.118972	0.499513
H137	H	0.658965	1.592708	0.509114
H138	H	0.356210	1.418137	0.224414
H139	H	0.593713	1.118952	0.499481
H140	H	0.658940	1.418256	0.381179
H141	H	1.231922	0.331061	0.000107
H142	H	0.658962	0.418086	-0.352386
H143	H	0.112013	1.232540	0.083258
H144	H	0.606154	0.499895	-0.273609
H145	H	1.118412	0.592636	-0.078305
H146	H	0.961721	0.592552	-0.381116
H147	H	0.815634	0.592642	0.078400
H148	H	0.658964	0.418133	-0.078347
H149	H	0.815662	1.592638	0.352360
H150	H	1.231987	0.330965	-0.494626
H151	H	0.385010	1.592518	-0.078361
H152	H	0.815653	0.592572	-0.381094
H153	H	0.512875	1.418237	0.381169
H154	H	0.237916	1.118837	0.143556
H155	H	1.246325	0.418242	-0.352275
H156	H	0.815662	0.418144	-0.509043
H157	H	0.236727	0.891897	0.060322
H158	H	0.242609	1.679880	0.494680
H159	H	0.653985	1.232437	0.625464
H160	H	0.362681	0.778368	-0.083281
H161	H	0.512916	1.418105	-0.078351
H162	H	1.246332	0.418233	-0.078263
H163	H	0.737326	1.679902	0.494707
H164	H	0.384914	1.592705	0.509098
H165	H	1.089684	0.418124	-0.509044
H166	H	0.236730	0.891852	-0.143558
H167	H	0.242674	1.679775	-0.000016
H168	H	0.790059	0.598114	0.195314
H169	H	0.523729	0.894569	-0.071130
H170	H	0.228271	1.592583	0.352328
H171	H	0.228263	1.592591	0.078346
H172	H	0.950860	0.116231	0.071192
H173	H	0.948789	0.269988	0.211625
H174	H	0.237817	1.118793	-0.060428
H175	H	0.525765	0.740840	-0.211548
H176	H	0.820512	0.778295	0.374718
H177	H	0.872544	0.203404	-0.007178
H178	H	0.815641	1.418213	0.224439
H179	H	0.602070	0.807378	0.007227
H180	H	0.356184	1.418154	0.078362
H181	H	0.880805	0.892002	0.500649
H182	H	0.676836	0.891994	0.500519
