data_functionalizedCrystal
_audit_creation_method	'MofGen! by Chris Wilmer'
_symmetry_space_group_name_H-M	'P1'
_symmetry_Int_Tables_number	1
_symmetry_cell_setting	triclinic
loop_
_symmetry_equiv_pos_as_xyz
  x,y,z
_cell_length_a	26.210047
_cell_length_b	10.489741
_cell_length_c	27.731994
_cell_angle_alpha	96.420007
_cell_angle_beta	89.997114
_cell_angle_gamma	89.989483
loop_
_atom_site_label
_atom_site_type_symbol
_atom_site_fract_x
_atom_site_fract_y
_atom_site_fract_z
O1	O	-0.042387	-1.690998	0.068198
O2	O	0.457613	-1.190998	0.568198
O3	O	-0.042394	-1.319517	0.074599
O4	O	0.457606	-0.819517	0.574599
O5	O	-0.042398	-1.516830	0.001073
O6	O	0.457602	-1.016830	0.501073
O7	O	-0.042383	-1.493685	0.141724
O8	O	0.457617	-0.993685	0.641724
O9	O	0.042460	-1.516862	0.001059
O10	O	0.542460	-1.016862	0.501059
O11	O	0.042464	-1.319549	0.074585
O12	O	0.542464	-0.819549	0.574585
O13	O	0.042471	-1.691030	0.068184
O14	O	0.542471	-1.191030	0.568184
Cu15	Cu	0.050216	-1.505292	0.071383
Cu16	Cu	0.550216	-1.005292	0.571383
Cu17	Cu	-0.050138	-1.505255	0.071400
Cu18	Cu	0.449862	-1.005255	0.571400
O19	O	0.042475	-1.493717	0.141710
O20	O	0.542475	-0.993717	0.641710
C21	C	0.000034	-1.272023	0.074109
C22	C	0.500034	-0.772023	0.574109
C23	C	0.000031	-1.130458	0.072662
C24	C	0.500031	-0.630458	0.572662
N25	N	-0.120722	-1.505229	0.071408
N26	N	0.379278	-1.005229	0.571408
C27	C	0.000028	-1.516371	-0.016944
C28	C	0.500028	-1.016371	0.483056
C29	C	0.000019	-1.514940	-0.070610
C30	C	0.500019	-1.014940	0.429390
C31	C	-0.473238	-1.592836	0.038904
C32	C	0.026762	-1.092836	0.538904
C33	C	-0.686897	-1.592854	0.038894
C34	C	-0.186897	-1.092854	0.538894
O35	O	-0.714520	-1.667334	0.011276
O36	O	-0.214520	-1.167334	0.511276
N37	N	-0.713616	-1.505321	0.071381
N38	N	-0.213616	-1.005321	0.571381
C39	C	-0.686918	-1.417782	0.103876
C40	C	-0.186918	-0.917782	0.603876
O41	O	-0.714547	-1.343338	0.131511
O42	O	-0.214547	-0.843338	0.631511
C43	C	-0.473260	-1.417770	0.103888
C44	C	0.026740	-0.917770	0.603888
C45	C	-0.446544	-1.505301	0.071395
C46	C	0.053456	-1.005301	0.571395
C47	C	-0.446521	-1.680360	0.006414
C48	C	0.053479	-1.180360	0.506414
C49	C	-0.393110	-1.680350	0.006415
C50	C	0.106890	-1.180350	0.506415
C51	C	-0.366415	-1.592815	0.038906
C52	C	0.133585	-1.092815	0.538906
C53	C	-0.393132	-1.505290	0.071396
C54	C	0.106868	-1.005290	0.571396
C55	C	-0.446563	-1.330238	0.136384
C56	C	0.053437	-0.830238	0.636384
C57	C	-0.393145	-1.330245	0.136385
C58	C	0.106855	-0.830245	0.636385
C59	C	-0.366428	-1.417775	0.103892
C60	C	0.133572	-0.917775	0.603892
C61	C	-0.313026	-1.417745	0.103888
C62	C	0.186974	-0.917745	0.603888
N63	N	-0.286306	-1.505279	0.071401
N64	N	0.213694	-1.005279	0.571401
C65	C	-0.313001	-1.592814	0.038910
C66	C	0.186999	-1.092814	0.538910
C67	C	-0.799091	-1.417792	0.103866
C68	C	-0.299091	-0.917792	0.603866
C69	C	-0.852505	-1.417794	0.103863
C70	C	-0.352505	-0.917794	0.603863
C71	C	-0.852481	-1.592868	0.038881
C72	C	-0.352481	-1.092868	0.538881
C73	C	-0.799065	-1.592860	0.038883
C74	C	-0.299065	-1.092860	0.538883
C75	C	-0.772372	-1.505326	0.071379
C76	C	-0.272372	-1.005326	0.571379
C77	C	-0.200833	-1.592785	0.038914
C78	C	0.299167	-1.092785	0.538914
C79	C	-0.147417	-1.592764	0.038917
C80	C	0.352583	-1.092764	0.538917
C81	C	-0.147446	-1.417694	0.103900
C82	C	0.352554	-0.917694	0.603900
C83	C	-0.200858	-1.417710	0.103895
C84	C	0.299142	-0.917710	0.603895
C85	C	-0.227550	-1.505267	0.071401
C86	C	0.272450	-1.005267	0.571401
O87	O	-0.285370	-1.343314	0.131495
O88	O	0.214630	-0.843314	0.631495
O89	O	-0.285363	-1.667265	0.011285
O90	O	0.214637	-1.167265	0.511285
C91	C	-0.526650	-1.592846	0.038903
C92	C	-0.026650	-1.092846	0.538903
C93	C	-0.553366	-1.505321	0.071393
C94	C	-0.053366	-1.005321	0.571393
C95	C	-0.526672	-1.417786	0.103884
C96	C	-0.026672	-0.917786	0.603884
C97	C	-0.606781	-1.505322	0.071389
C98	C	-0.106781	-1.005322	0.571389
C99	C	-0.633475	-1.592857	0.038898
C100	C	-0.133475	-1.092857	0.538898
C101	C	-0.606756	-1.680391	0.006411
C102	C	-0.106756	-1.180391	0.506411
C103	C	-0.553344	-1.680381	0.006412
C104	C	-0.053344	-1.180381	0.506412
C105	C	-0.553391	-1.330252	0.136371
C106	C	-0.053391	-0.830252	0.636371
C107	C	-0.606803	-1.330269	0.136367
C108	C	-0.106803	-0.830269	0.636367
C109	C	-0.633497	-1.417804	0.103876
C110	C	-0.133497	-0.917804	0.603876
N111	N	0.120800	-1.505328	0.071372
N112	N	0.620800	-1.005328	0.571372
C113	C	0.000042	-1.738524	0.068675
C114	C	0.500042	-1.238524	0.568675
C115	C	0.000042	-1.880089	0.070121
C116	C	0.500042	-1.380089	0.570121
C117	C	0.000031	-1.064398	0.025880
C118	C	0.500031	-0.564398	0.525880
C119	C	-0.041805	-0.971273	0.047986
C120	C	0.458195	-0.471273	0.547986
C121	C	0.041858	-0.971338	0.047984
C122	C	0.541858	-0.471338	0.547984
C123	C	-0.041840	-1.039197	0.094788
C124	C	0.458160	-0.539197	0.594788
C125	C	0.041861	-1.039272	0.094779
C126	C	0.541861	-0.539272	0.594779
C127	C	0.000015	-0.946173	0.116919
C128	C	0.500015	-0.446173	0.616919
C129	C	0.000048	-1.494176	0.159728
C130	C	0.500048	-0.994176	0.659728
C131	C	0.000054	-1.495607	0.213393
C132	C	0.500054	-0.995607	0.713393
C133	C	-0.046224	-1.504601	0.546176
C134	C	0.453776	-1.004601	1.046176
C135	C	-0.046232	-1.510040	0.747868
C136	C	0.453768	-1.010040	1.247868
O137	O	-0.085571	-1.510783	0.773952
O138	O	0.414429	-1.010783	1.273952
N139	N	0.000024	-1.510733	0.773080
N140	N	0.500024	-1.010733	1.273080
C141	C	0.046285	-1.510074	0.747865
C142	C	0.546285	-1.010074	1.247865
O143	O	0.085628	-1.510802	0.773936
O144	O	0.585628	-1.010802	1.273936
C145	C	0.046292	-1.504645	0.546173
C146	C	0.546292	-1.004645	1.046173
C147	C	0.000033	-1.503939	0.520964
C148	C	0.500033	-1.003939	1.020964
C149	C	-0.092480	-1.503897	0.520967
C150	C	0.407520	-1.003897	1.020967
C151	C	-0.092477	-1.502530	0.470547
C152	C	0.407523	-1.002530	0.970547
C153	C	-0.046220	-1.501868	0.445336
C154	C	0.453780	-1.001868	0.945336
C155	C	0.000035	-1.502572	0.470545
C156	C	0.500035	-1.002572	0.970545
C157	C	0.092552	-1.503995	0.520958
C158	C	0.592552	-1.003995	1.020958
C159	C	0.092550	-1.502641	0.470532
C160	C	0.592550	-1.002641	0.970532
C161	C	0.046291	-1.501935	0.445324
C162	C	0.546291	-1.001935	0.945324
C163	C	0.046295	-1.500543	0.394914
C164	C	0.546295	-1.000543	0.894914
N165	N	0.000039	-1.499850	0.369702
N166	N	0.500039	-0.999850	0.869702
C167	C	-0.046218	-1.500513	0.394913
C168	C	0.453782	-1.000513	0.894913
C169	C	0.046278	-1.512923	0.853756
C170	C	0.546278	-1.012923	1.353756
C171	C	0.046277	-1.514278	0.904179
C172	C	0.546277	-1.014278	1.404179
C173	C	-0.046241	-1.514246	0.904179
C174	C	0.453759	-1.014246	1.404179
C175	C	-0.046238	-1.512881	0.853755
C176	C	0.453762	-1.012881	1.353755
C177	C	0.000022	-1.512230	0.828545
C178	C	0.500022	-1.012230	1.328545
C179	C	-0.046210	-1.497641	0.289028
C180	C	0.453790	-0.997641	0.789028
C181	C	-0.046203	-1.496269	0.238604
C182	C	0.453797	-0.996269	0.738604
C183	C	0.046313	-1.496308	0.238608
C184	C	0.546313	-0.996308	0.738608
C185	C	0.046307	-1.497674	0.289028
C186	C	0.546307	-0.997674	0.789028
C187	C	0.000041	-1.498344	0.314237
C188	C	0.500041	-0.998344	0.814237
O189	O	0.085614	-1.499814	0.368798
O190	O	0.585614	-0.999814	0.868798
O191	O	-0.085556	-1.499813	0.368832
O192	O	0.414444	-0.999813	0.868832
C193	C	-0.046227	-1.505968	0.596595
C194	C	0.453773	-1.005968	1.096595
C195	C	0.000028	-1.506672	0.621804
C196	C	0.500028	-1.006672	1.121804
C197	C	0.046286	-1.506010	0.596593
C198	C	0.546286	-1.006010	1.096593
C199	C	0.000027	-1.508027	0.672227
C200	C	0.500027	-1.008027	1.172227
C201	C	-0.046231	-1.508689	0.697438
C202	C	0.453769	-1.008689	1.197438
C203	C	-0.092487	-1.507996	0.672226
C204	C	0.407513	-1.007996	1.172226
C205	C	-0.092484	-1.506630	0.621807
C206	C	0.407516	-1.006630	1.121807
C207	C	0.092542	-1.506703	0.621804
C208	C	0.592542	-1.006703	1.121804
C209	C	0.092536	-1.508068	0.672224
C210	C	0.592536	-1.008068	1.172224
C211	C	0.046278	-1.508730	0.697436
C212	C	0.546278	-1.008730	1.197436
H213	H	-0.125666	-1.664042	0.012455
H214	H	0.374334	-1.164042	0.512455
F215	F	-0.880900	-1.685836	0.004227
F216	F	-0.380900	-1.185836	0.504227
H217	H	-0.130146	-1.501964	0.450027
H218	H	0.369854	-1.001964	0.950027
H219	H	0.077227	-0.941254	0.028175
H220	H	0.577227	-0.441254	0.528175
F221	F	-0.635232	-1.237094	0.170950
F222	F	-0.135232	-0.737094	0.670950
H223	H	-0.130150	-1.504440	0.541489
H224	H	0.369850	-1.004440	1.041489
H225	H	-0.371360	-1.751629	-0.020042
H226	H	0.128640	-1.251629	0.479958
H227	H	0.083975	-1.495764	0.218073
H228	H	0.583975	-0.995764	0.718073
H229	H	-0.077248	-1.069133	0.114573
H230	H	0.422752	-0.569133	0.614573
H231	H	-0.777316	-1.664136	0.012425
H232	H	-0.277316	-1.164136	0.512425
H233	H	0.083975	-1.498198	0.309556
H234	H	0.583975	-0.998198	0.809556
F235	F	-0.095441	-1.495515	0.211778
F236	F	0.404559	-0.995515	0.711778
H237	H	0.077237	-1.069452	0.114552
H238	H	0.577237	-0.569452	0.614552
H239	H	0.083945	-1.514828	0.924701
H240	H	0.583945	-1.014828	1.424701
H241	H	-0.000026	-1.115797	-0.012578
H242	H	0.499974	-0.615797	0.487422
H243	H	-0.000003	-0.895038	0.155418
H244	H	0.499997	-0.395038	0.655418
H245	H	-0.083907	-1.512304	0.833234
H246	H	0.416093	-1.012304	1.333234
H247	H	-0.077179	-0.941125	0.028197
H248	H	0.422821	-0.441125	0.528197
F249	F	-0.524987	-1.237082	0.170954
F250	F	-0.024987	-0.737082	0.670954
H251	H	-0.083905	-1.514776	0.924715
H252	H	0.416095	-1.014776	1.424715
F253	F	-0.095451	-1.498355	0.315850
F254	F	0.404549	-0.998355	0.815850
F255	F	-0.770687	-1.324619	0.138454
F256	F	-0.270687	-0.824619	0.638454
F257	F	0.095518	-1.512224	0.826931
F258	F	0.595518	-1.012224	1.326931
H259	H	-0.371414	-1.258965	0.162849
H260	H	0.128586	-0.758965	0.662849
F261	F	0.141788	-1.504734	0.547777
F262	F	0.641788	-1.004734	1.047777
F263	F	0.141788	-1.501953	0.443704
F264	F	0.641788	-1.001953	0.943704
F265	F	-0.141720	-1.505881	0.594984
F266	F	0.358280	-1.005881	1.094984
F267	F	0.141778	-1.505997	0.594979
F268	F	0.641778	-1.005997	1.094979
F269	F	-0.141717	-1.508700	0.699067
F270	F	0.358283	-1.008700	1.199067
F271	F	0.141774	-1.508805	0.699048
F272	F	0.641774	-1.008805	1.199048
H273	H	-0.222560	-1.664083	0.012454
H274	H	0.277440	-1.164083	0.512454
F275	F	-0.474987	-1.237077	0.170968
F276	F	0.025013	-0.737077	0.670968
F277	F	-0.474925	-1.773536	-0.028170
F278	F	0.025075	-1.273536	0.471830
F279	F	-0.880934	-1.324616	0.138440
F280	F	-0.380934	-0.824616	0.638440
H281	H	-0.125703	-1.346420	0.130352
H282	H	0.374297	-0.846420	0.630352
F283	F	-0.229291	-1.324536	0.138473
F284	F	0.270709	-0.824536	0.638473
H285	H	-0.628499	-1.751661	-0.020047
H286	H	-0.128499	-1.251661	0.479953
F287	F	-0.524916	-1.773544	-0.028171
F288	F	-0.024916	-1.273544	0.471829
