data_functionalizedCrystal
_audit_creation_method	'MofGen! by Chris Wilmer'
_symmetry_space_group_name_H-M	'P1'
_symmetry_Int_Tables_number	1
_symmetry_cell_setting	triclinic
loop_
_symmetry_equiv_pos_as_xyz
  x,y,z
_cell_length_a	25.639239
_cell_length_b	12.759401
_cell_length_c	12.759393
_cell_angle_alpha	89.981433
_cell_angle_beta	89.962948
_cell_angle_gamma	90.037730
loop_
_atom_site_label
_atom_site_type_symbol
_atom_site_fract_x
_atom_site_fract_y
_atom_site_fract_z
Zn1	Zn	-0.208133	1.606080	-0.593943
Zn2	Zn	-0.295580	1.605901	-0.418246
Zn3	Zn	-0.208159	1.430382	-0.418282
Zn4	Zn	-0.295538	1.430297	-0.593888
O5	O	-0.251853	1.518165	-0.506090
O6	O	-0.219740	1.753078	-0.570645
O7	O	-0.284012	1.582579	-0.271230
O8	O	-0.134990	1.453799	-0.441622
O9	O	-0.283987	1.752946	-0.441561
O10	O	-0.134971	1.582884	-0.570680
O11	O	-0.219784	1.453626	-0.271256
O12	O	-0.219743	1.283350	-0.441569
O13	O	-0.283915	1.453655	-0.740916
O14	O	-0.283940	1.283288	-0.570585
O15	O	-0.219699	1.582802	-0.740957
O16	O	-0.368740	1.582496	-0.441507
O17	O	-0.368709	1.453481	-0.570550
C18	C	-0.251840	1.245198	-0.506075
C19	C	-0.251848	1.128421	-0.506094
C20	C	-0.218458	1.073621	-0.573412
C21	C	-0.218468	0.963897	-0.573419
C22	C	-0.285262	0.963783	-0.438786
C23	C	-0.285249	1.073505	-0.438775
C24	C	-0.179896	1.073685	-0.651144
C25	C	-0.179906	0.963961	-0.651151
C26	C	-0.387695	1.517989	-0.506042
C27	C	-0.445809	1.518009	-0.506056
C28	C	-0.806176	1.585519	-0.439012
C29	C	-0.860780	1.585559	-0.439026
O30	O	-0.889020	1.642775	-0.381969
N31	N	-0.888092	1.518350	-0.506160
C32	C	-0.860796	1.451103	-0.573291
O33	O	-0.889041	1.393940	-0.630396
C34	C	-0.806193	1.451068	-0.573282
C35	C	-0.778884	1.518275	-0.506136
C36	C	-0.778867	1.652721	-0.371873
C37	C	-0.724266	1.652678	-0.371857
C38	C	-0.696975	1.585434	-0.438981
C39	C	-0.724283	1.518232	-0.506121
C40	C	-0.778898	1.383827	-0.640418
C41	C	-0.724291	1.383799	-0.640403
C42	C	-0.696982	1.451005	-0.573257
C43	C	-0.642391	1.450946	-0.573230
N44	N	-0.615080	1.518155	-0.506096
C45	C	-0.642371	1.585399	-0.438972
C46	C	-0.975467	1.451182	-0.573307
C47	C	-1.030069	1.451210	-0.573312
C48	C	-1.030049	1.585669	-0.439048
C49	C	-0.975446	1.585634	-0.439039
C50	C	-0.948155	1.518391	-0.506174
C51	C	-0.527706	1.585305	-0.438945
C52	C	-0.473101	1.585253	-0.438932
C53	C	-0.473126	1.450799	-0.573200
C54	C	-0.527726	1.450846	-0.573209
C55	C	-0.555015	1.518108	-0.506078
O56	O	-0.614117	1.393762	-0.630260
O57	O	-0.614120	1.642562	-0.381887
C58	C	-0.115480	1.518371	-0.506161
C59	C	-0.057365	1.518459	-0.506192
C60	C	-0.251800	1.518239	-0.780123
C61	C	-0.251777	1.518270	-0.896900
C62	C	-0.251865	1.792198	-0.506105
C63	C	-0.251871	1.908975	-0.506112
C64	C	-0.218337	1.585526	-0.951785
C65	C	-0.218318	1.585551	-1.061509
C66	C	-0.285185	1.451061	-1.061454
C67	C	-0.285200	1.451032	-0.951732
C68	C	-0.179734	1.663176	-0.951818
C69	C	-0.179715	1.663201	-1.061542
C70	C	-0.251867	1.518152	-0.233123
C71	C	-0.251743	1.518325	-0.116346
H72	H	-0.312457	0.919057	-0.383978
H73	H	-0.190561	1.744563	-1.091319
H74	H	-0.141423	0.929952	-0.622159
N75	N	-0.129083	1.111098	-0.623977
N76	N	-0.120473	1.207423	-0.619371
H77	H	-0.084588	1.233848	-0.600183
H78	H	-0.953214	1.640360	-0.384364
N79	N	-0.947591	1.382466	-0.641864
N80	N	-0.917171	1.315512	-0.604837
H81	H	-0.897486	1.266982	-0.653255
H82	H	-0.312429	1.396262	-0.907048
H83	H	-0.549962	1.396125	-0.627887
N84	N	-0.131481	1.626648	-1.104341
N85	N	-0.105007	1.685091	-1.162321
H86	H	-0.070956	1.659235	-1.192575
H87	H	-0.549919	1.640078	-0.384282
H88	H	-0.190802	0.934207	-0.732485
N89	N	-0.319353	1.129467	-0.369991
N90	N	-0.349171	1.080419	-0.309893
H91	H	-0.373258	1.119941	-0.261309
N92	N	-1.057934	1.654382	-0.370504
N93	N	-1.051788	1.751320	-0.377567
H94	H	-1.071483	1.799847	-0.329162
N95	N	-0.197935	1.760110	-0.909129
N96	N	-0.174509	1.843565	-0.929723
H97	H	-0.187364	1.912027	-0.899577
H98	H	-0.194443	1.107738	-0.728379
H99	H	-0.450868	1.639981	-0.384251
N100	N	-1.057969	1.382565	-0.641891
N101	N	-1.106721	1.382602	-0.641906
H102	H	-1.126425	1.334123	-0.690346
H103	H	-0.702035	1.707407	-0.317185
N104	N	-0.806776	1.315168	-0.709013
N105	N	-0.782392	1.255147	-0.768940
H106	H	-0.802079	1.206653	-0.817391
H107	H	-0.702074	1.329043	-0.695076
N108	N	-0.806731	1.721427	-0.303299
N109	N	-0.782331	1.781420	-0.243368
H110	H	-0.802006	1.829945	-0.194928
H111	H	-0.450896	1.396046	-0.627849
N112	N	-0.319318	1.382385	-1.117481
N113	N	-0.319297	1.382413	-1.215446
H114	H	-0.343405	1.333909	-1.255016
H115	H	-0.139242	1.641442	-0.922070
