data_functionalizedCrystal
_audit_creation_method	'MofGen! by Chris Wilmer'
_symmetry_space_group_name_H-M	'P1'
_symmetry_Int_Tables_number	1
_symmetry_cell_setting	triclinic
loop_
_symmetry_equiv_pos_as_xyz
  x,y,z
_cell_length_a	14.853567
_cell_length_b	10.540539
_cell_length_c	13.330367
_cell_angle_alpha	89.997527
_cell_angle_beta	89.995418
_cell_angle_gamma	84.080211
loop_
_atom_site_label
_atom_site_type_symbol
_atom_site_fract_x
_atom_site_fract_y
_atom_site_fract_z
O1	O	1.197288	0.165727	-0.083349
O2	O	0.934938	0.185470	-0.083366
O3	O	1.072099	-0.009174	-0.083356
O4	O	1.060128	0.360371	-0.083359
O5	O	1.072079	-0.009178	0.083491
O6	O	0.934918	0.185465	0.083481
O7	O	1.197268	0.165723	0.083498
Cu8	Cu	1.066092	0.175594	0.098724
Cu9	Cu	1.066115	0.175599	-0.098592
O10	O	1.060108	0.360367	0.083488
C11	C	0.901335	0.184573	0.000055
C12	C	0.801236	0.181892	0.000049
C13	C	1.071191	-0.056469	0.000066
C14	C	1.068505	-0.197388	0.000060
C15	C	0.387998	0.054938	0.000072
C16	C	0.368000	0.286179	0.000069
C17	C	0.462048	0.288700	0.000066
C18	C	0.519075	0.174338	0.000065
C19	C	0.482055	0.057455	0.000066
C20	C	0.499075	0.405580	0.000054
C21	C	0.593129	0.408105	0.000050
C22	C	0.650158	0.293742	0.000056
C23	C	0.613132	0.176855	0.000058
C24	C	0.670159	0.062493	0.000057
C25	C	0.633135	-0.054396	0.000067
C26	C	0.539084	-0.056908	0.000072
C27	C	0.744209	0.296254	0.000050
C28	C	0.764216	0.065010	0.000050
C29	C	0.965588	-0.379682	-0.000321
C30	C	0.968311	-0.233094	0.000055
C31	C	1.116712	-0.259578	0.095341
C32	C	1.113292	-0.406085	0.095421
C33	C	1.115353	-0.406621	-0.094315
C34	C	1.116276	-0.259649	-0.095575
C35	C	1.230872	0.166620	0.000074
C36	C	1.330971	0.169300	0.000074
C37	C	1.061016	0.407662	0.000064
C38	C	1.063702	0.548580	0.000063
N39	N	1.066081	0.175589	0.237505
N40	N	1.066133	0.175593	-0.237374
C41	C	1.005378	0.261753	0.710124
C42	C	1.126877	0.089435	0.710101
C43	C	1.126867	0.089431	0.605082
C44	C	1.066112	0.175591	0.552580
C45	C	1.005368	0.261754	0.605096
C46	C	1.187616	0.003277	0.552559
C47	C	1.187609	0.003271	0.447534
C48	C	1.126849	0.089426	0.395029
C49	C	1.066102	0.175592	0.447552
C50	C	1.005347	0.261752	0.395049
C51	C	0.944594	0.347913	0.447570
C52	C	0.944608	0.347909	0.552591
C53	C	1.126836	0.089430	0.290008
C54	C	1.005337	0.261753	0.290021
H55	H	0.810642	-0.028119	0.000053
H56	H	0.955911	0.331901	0.752889
H57	H	0.774350	0.391423	0.000044
O58	O	1.072342	-0.202667	0.189262
H59	H	0.999994	-0.220504	0.190201
O60	O	0.694653	-0.177736	0.000070
H61	H	0.681407	-0.233665	-0.067933
H62	H	1.237076	-0.066887	0.404778
H63	H	0.895131	0.418071	0.404810
H64	H	0.508930	-0.152072	0.000104
H65	H	0.357849	-0.040229	0.000084
H66	H	0.321563	0.379287	0.000062
H67	H	0.895146	0.418060	0.595360
O68	O	1.253144	-0.089646	0.609180
H69	H	1.242936	-0.075180	0.691032
O70	O	1.213044	-0.228647	-0.103198
H71	H	1.228673	-0.168115	-0.038650
H72	H	1.176346	0.019292	0.752851
O73	O	0.437573	0.528923	0.000069
H74	H	0.365954	0.507533	0.000093
O75	O	1.072412	-0.447923	-0.189981
H76	H	1.013770	-0.500849	-0.171324
H77	H	0.623265	0.503283	0.000042
H78	H	0.926162	-0.409458	0.067619
O79	O	1.211214	-0.470234	-0.095175
H80	H	1.222062	-0.533459	-0.028749
H81	H	1.176304	0.019284	0.247250
O82	O	0.918049	-0.176086	-0.090402
H83	H	0.891572	-0.253211	-0.134809
O84	O	0.913162	-0.417011	-0.090817
H85	H	0.948698	-0.391906	-0.160167
O86	O	0.917712	-0.177214	0.090682
H87	H	0.891207	-0.254909	0.134417
O88	O	1.066070	-0.442937	0.189750
H89	H	1.045882	-0.356155	0.234878
H90	H	1.185351	-0.454847	0.099748
O91	O	1.214174	-0.231029	0.100051
H92	H	1.259214	-0.321845	0.099011
O93	O	1.069628	-0.204911	-0.188953
H94	H	1.012660	-0.133653	-0.167353
H95	H	0.955860	0.331911	0.247280
