data_functionalizedCrystal
_audit_creation_method	'MofGen! by Chris Wilmer'
_symmetry_space_group_name_H-M	'P1'
_symmetry_Int_Tables_number	1
_symmetry_cell_setting	triclinic
loop_
_symmetry_equiv_pos_as_xyz
  x,y,z
_cell_length_a	16.992694
_cell_length_b	15.944551
_cell_length_c	16.053802
_cell_angle_alpha	92.564789
_cell_angle_beta	87.249047
_cell_angle_gamma	87.083481
loop_
_atom_site_label
_atom_site_type_symbol
_atom_site_fract_x
_atom_site_fract_y
_atom_site_fract_z
O1	O	1.043704	0.174798	-0.069327
O2	O	1.543704	0.674798	0.430673
O3	O	0.815419	0.172843	-0.069352
O4	O	1.315419	0.672843	0.430648
O5	O	0.935795	0.051964	-0.069332
O6	O	1.435795	0.551964	0.430668
O7	O	0.923328	0.295677	-0.069348
O8	O	1.423328	0.795677	0.430652
O9	O	0.929169	0.058588	0.069526
O10	O	1.429169	0.558588	0.569526
O11	O	0.808793	0.179467	0.069506
O12	O	1.308793	0.679467	0.569506
O13	O	1.037078	0.181422	0.069530
O14	O	1.537078	0.681422	0.569530
Zn15	Zn	0.921884	0.181497	0.091565
Zn16	Zn	1.421884	0.681497	0.591565
Zn17	Zn	0.930613	0.172769	-0.091386
Zn18	Zn	1.430613	0.672769	0.408614
O19	O	0.916702	0.302301	0.069510
O20	O	1.416702	0.802301	0.569510
C21	C	0.782894	0.173641	0.000074
C22	C	1.282894	0.673641	0.500074
C23	C	0.695850	0.166141	0.000065
C24	C	1.195850	0.666141	0.500065
C25	C	0.645613	0.238506	0.000061
C26	C	1.145613	0.738506	0.500061
C27	C	0.563826	0.231454	0.000073
C28	C	1.063826	0.731454	0.500073
C29	C	0.532276	0.152037	0.000083
C30	C	1.032276	0.652037	0.500083
C31	C	0.582519	0.079667	0.000089
C32	C	1.082519	0.579667	0.500089
C33	C	0.664305	0.086719	0.000083
C34	C	1.164305	0.586719	0.500083
C35	C	0.288676	0.122807	0.000107
C36	C	0.788676	0.622807	0.500107
C37	C	0.206884	0.115759	0.000111
C38	C	0.706884	0.615759	0.500111
C39	C	0.188196	0.267548	0.000095
C40	C	0.688196	0.767548	0.500095
C41	C	0.269984	0.274593	0.000084
C42	C	0.769984	0.774593	0.500084
C43	C	0.320220	0.202223	0.000095
C44	C	0.820220	0.702223	0.500095
N45	N	0.448677	0.144827	0.000092
N46	N	0.948677	0.644827	0.500092
N47	N	0.403818	0.209434	0.000092
N48	N	0.903818	0.709434	0.500092
C49	C	0.931964	0.023948	0.000097
C50	C	1.431964	0.523948	0.500097
C51	C	0.930413	-0.069402	0.000098
C52	C	1.430413	0.430598	0.500098
C53	C	0.852090	-0.289513	0.000078
C54	C	1.352090	0.210487	0.500078
C55	C	0.885194	-0.344825	0.068547
C56	C	1.385194	0.155175	0.568547
C57	C	0.927606	-0.240317	0.000091
C58	C	1.427606	0.259683	0.500091
C59	C	0.891744	-0.351338	-0.068356
C60	C	1.391744	0.148662	0.431644
C61	C	0.924889	-0.405412	0.000081
C62	C	1.424889	0.094588	0.500081
C63	C	0.960728	-0.294396	0.068617
C64	C	1.460728	0.205604	0.568617
C65	C	0.967271	-0.300907	-0.068348
C66	C	1.467271	0.199093	0.431652
C67	C	1.000429	-0.356196	0.000138
C68	C	1.500429	0.143804	0.500138
C69	C	0.929169	-0.145209	0.000098
C70	C	1.429169	0.354791	0.500098
C71	C	0.923332	-0.500518	0.000080
C72	C	1.423332	-0.000518	0.500080
C73	C	1.069603	0.180624	0.000103
C74	C	1.569603	0.680624	0.500103
C75	C	1.156648	0.188124	0.000106
C76	C	1.656648	0.688124	0.500106
C77	C	0.920533	0.330318	0.000079
C78	C	1.420533	0.830318	0.500079
C79	C	0.922085	0.423667	0.000073
C80	C	1.422085	0.923667	0.500073
N81	N	0.915931	0.187453	0.216424
N82	N	1.415931	0.687453	0.716424
N83	N	0.936572	0.166806	-0.216246
N84	N	1.436572	0.666806	0.283754
C85	C	0.967170	0.136040	0.260127
C86	C	1.467170	0.636040	0.760127
C87	C	0.963014	0.140215	0.347533
C88	C	1.463014	0.640215	0.847533
C89	C	0.907622	0.195808	0.391235
C90	C	1.407622	0.695808	0.891235
C91	C	0.856378	0.247223	0.347526
C92	C	1.356378	0.747223	0.847526
C93	C	0.860531	0.243043	0.260121
C94	C	1.360531	0.743043	0.760121
C95	C	0.889481	0.214042	0.652641
C96	C	1.389481	0.714042	1.152641
C97	C	0.885333	0.218220	0.740052
C98	C	1.385333	0.718220	1.240052
C99	C	0.991968	0.111209	0.740053
C100	C	1.491968	0.611209	1.240053
C101	C	0.996120	0.107038	0.652646
C102	C	1.496120	0.607038	1.152646
C103	C	0.944873	0.158450	0.608945
C104	C	1.444873	0.658450	1.108945
N105	N	0.903374	0.200078	0.480578
N106	N	1.403374	0.700078	0.980578
N107	N	0.949118	0.154175	0.519604
N108	N	1.449118	0.654175	1.019604
H109	H	0.556825	0.015004	0.000110
H110	H	1.056825	0.515004	0.500110
H111	H	0.989876	-0.269501	0.126566
H112	H	1.489876	0.230499	0.626566
H113	H	1.063164	-0.385145	0.000184
H114	H	1.563164	0.114855	0.500184
O115	O	0.857033	-0.381262	-0.137437
O116	O	1.357033	0.118738	0.362563
C117	C	0.911273	-0.435932	-0.185202
C118	C	1.411273	0.064068	0.314798
H119	H	0.958264	-0.461620	-0.143353
H120	H	1.458264	0.038380	0.356647
H121	H	0.878923	-0.490266	-0.213731
H122	H	1.378923	0.009734	0.286269
H123	H	0.940492	-0.400118	-0.237146
H124	H	1.440492	0.099882	0.262854
H125	H	1.012279	0.090773	0.224550
H126	H	1.512279	0.590773	0.724550
O127	O	0.514985	0.301729	0.000208
O128	O	1.014985	0.801729	0.500208
C129	C	0.463682	0.305621	0.072115
C130	C	0.963682	0.805621	0.572115
H131	H	0.491242	0.267088	0.122388
H132	H	0.991242	0.767088	0.622388
H133	H	0.453336	0.373819	0.096239
H134	H	0.953336	0.873819	0.596239
H135	H	0.404984	0.279106	0.055865
H136	H	0.904984	0.779106	0.555865
O137	O	0.810872	0.293026	0.217574
O138	O	1.310872	0.793026	0.717574
C139	C	0.855262	0.345288	0.167014
C140	C	1.355262	0.845288	0.667014
H141	H	0.917238	0.315366	0.153918
H142	H	1.417238	0.815366	0.653918
H143	H	0.825455	0.353418	0.105553
H144	H	1.325455	0.853418	0.605553
H145	H	0.858987	0.409341	0.200685
H146	H	1.358987	0.909341	0.700685
O147	O	0.712997	0.016337	0.000046
O148	O	1.212997	0.516337	0.500046
C149	C	0.667615	-0.055271	0.000075
C150	C	1.167615	0.444729	0.500075
H151	H	0.607826	-0.039304	-0.026211
H152	H	1.107826	0.460696	0.473789
H153	H	0.699701	-0.108235	-0.040237
H154	H	1.199701	0.391765	0.459763
H155	H	0.658622	-0.076178	0.066694
H156	H	1.158622	0.423822	0.566694
H157	H	1.033690	0.069351	0.775642
H158	H	1.533690	0.569351	1.275642
H159	H	0.811273	0.292485	0.383113
H160	H	1.311273	0.792485	0.883113
H161	H	0.789404	-0.260406	0.000139
H162	H	1.289404	0.239594	0.500139
O163	O	1.012878	0.090249	0.389856
O164	O	1.512878	0.590249	0.889856
C165	C	1.062652	0.040279	0.332541
C166	C	1.562652	0.540279	0.832541
H167	H	1.066488	0.071797	0.270228
H168	H	1.566488	0.571797	0.770228
H169	H	1.124071	0.032931	0.357785
H170	H	1.624071	0.532931	0.857785
H171	H	1.037649	-0.024297	0.323264
H172	H	1.537649	0.475703	0.823264
O173	O	1.049949	0.052958	0.610327
O174	O	1.549949	0.552958	1.110327
C175	C	1.094297	0.008488	0.667643
C176	C	1.594297	0.508488	1.167643
H177	H	1.059191	0.008339	0.729954
H178	H	1.559191	0.508339	1.229954
H179	H	1.107458	-0.058989	0.642399
H180	H	1.607458	0.441011	1.142399
H181	H	1.152100	0.040154	0.676926
H182	H	1.652100	0.540154	1.176926
O183	O	0.843675	-0.368036	0.137534
O184	O	1.343675	0.131964	0.637534
C185	C	0.765512	-0.333870	0.137295
C186	C	1.265512	0.166130	0.637295
H187	H	0.750494	-0.320022	0.070668
H188	H	1.250494	0.179978	0.570668
H189	H	0.723370	-0.380829	0.163153
H190	H	1.223370	0.119171	0.663153
H191	H	0.759468	-0.273133	0.177870
H192	H	1.259468	0.226867	0.677870
H193	H	0.147286	0.326467	0.000088
H194	H	0.647286	0.826467	0.500088
O195	O	1.008528	-0.277659	-0.137482
O196	O	1.508528	0.222341	0.362518
C197	C	0.971957	-0.306634	-0.209532
C198	C	1.471957	0.193366	0.290468
H199	H	0.907248	-0.316904	-0.193136
H200	H	1.407248	0.183096	0.306864
H201	H	0.976243	-0.257949	-0.259214
H202	H	1.476243	0.242051	0.240786
H203	H	1.002806	-0.368476	-0.234509
H204	H	1.502806	0.131524	0.265491
O205	O	0.831444	0.272237	0.782376
O206	O	1.331444	0.772237	1.282376
C207	C	0.787112	0.316730	0.725063
C208	C	1.287112	0.816730	1.225063
H209	H	0.789191	0.279257	0.662762
H210	H	1.289191	0.779257	1.162762
H211	H	0.723296	0.326493	0.750326
H212	H	1.223296	0.826493	1.250326
H213	H	0.812998	0.380417	0.715756
H214	H	1.312998	0.880417	1.215756
H215	H	0.295666	0.339262	0.000066
H216	H	0.795666	0.839262	0.500066
O217	O	0.676125	0.315719	0.000087
O218	O	1.176125	0.815719	0.500087
C219	C	0.614243	0.378075	0.000066
C220	C	1.114243	0.878075	0.500066
H221	H	0.557434	0.352052	0.026361
H222	H	1.057434	0.852052	0.526361
H223	H	0.629418	0.435116	0.040374
H224	H	1.129418	0.935116	0.540374
H225	H	0.605838	0.397482	-0.066552
H226	H	1.105838	0.897482	0.433448
O227	O	0.176365	0.038546	0.000157
O228	O	0.676365	0.538546	0.500157
C229	C	0.238242	-0.023819	0.000143
C230	C	0.738242	0.476181	0.500143
H231	H	0.292551	0.004706	0.026432
H232	H	0.792551	0.504706	0.526432
H233	H	0.219223	-0.077010	0.040461
H234	H	0.719223	0.422990	0.540461
H235	H	0.252986	-0.049584	-0.066472
H236	H	0.752986	0.450416	0.433528
H237	H	0.847755	0.255905	0.617067
H238	H	1.347755	0.755905	1.117067
H239	H	0.329568	0.063878	0.000117
H240	H	0.829568	0.563878	0.500117
