data_functionalizedCrystal
_audit_creation_method	'MofGen! by Chris Wilmer'
_symmetry_space_group_name_H-M	'P1'
_symmetry_Int_Tables_number	1
_symmetry_cell_setting	triclinic
loop_
_symmetry_equiv_pos_as_xyz
  x,y,z
_cell_length_a	25.639242
_cell_length_b	29.839131
_cell_length_c	25.639234
_cell_angle_alpha	89.974578
_cell_angle_beta	89.973005
_cell_angle_gamma	90.036947
loop_
_atom_site_label
_atom_site_type_symbol
_atom_site_fract_x
_atom_site_fract_y
_atom_site_fract_z
Zn1	Zn	0.799240	-0.178936	-0.295739
Zn2	Zn	0.799152	-0.254058	-0.208302
Zn3	Zn	0.711809	-0.178937	-0.208303
Zn4	Zn	0.711757	-0.254034	-0.295692
O5	O	0.755490	-0.216491	-0.252009
O6	O	0.872394	-0.188911	-0.284160
O7	O	0.787551	-0.244104	-0.135137
O8	O	0.723465	-0.116070	-0.219922
O9	O	0.872329	-0.244102	-0.219920
O10	O	0.787701	-0.116069	-0.284161
O11	O	0.723380	-0.188912	-0.135138
O12	O	0.638637	-0.188889	-0.219876
O13	O	0.723377	-0.244061	-0.368864
O14	O	0.638599	-0.244062	-0.284081
O15	O	0.787651	-0.188887	-0.368898
O16	O	0.787500	-0.316922	-0.219875
O17	O	0.723292	-0.316904	-0.284080
C18	C	0.619647	-0.216473	-0.251974
C19	C	0.561533	-0.216477	-0.251971
C20	C	0.201159	-0.245268	-0.285409
C21	C	0.146555	-0.245270	-0.285417
O22	O	0.118309	-0.269728	-0.313817
N23	N	0.119251	-0.216503	-0.252043
C24	C	0.146553	-0.187728	-0.218663
O25	O	0.118315	-0.163260	-0.190277
C26	C	0.201157	-0.187724	-0.218658
C27	C	0.228458	-0.216496	-0.252030
C28	C	0.228460	-0.274037	-0.318778
C29	C	0.283061	-0.274035	-0.318769
C30	C	0.310360	-0.245263	-0.285391
C31	C	0.283059	-0.216494	-0.252021
C32	C	0.228459	-0.158947	-0.185281
C33	C	0.283066	-0.158944	-0.185279
C34	C	0.310367	-0.187717	-0.218651
C35	C	0.364958	-0.187720	-0.218633
N36	N	0.392263	-0.216487	-0.252006
C37	C	0.364963	-0.245258	-0.285385
C38	C	0.031883	-0.187740	-0.218677
C39	C	-0.022720	-0.187746	-0.218679
C40	C	-0.022714	-0.245288	-0.285434
C41	C	0.031889	-0.245283	-0.285429
C42	C	0.059187	-0.216507	-0.252051
C43	C	0.479629	-0.245252	-0.285363
C44	C	0.534234	-0.245248	-0.285350
C45	C	0.534224	-0.187705	-0.218597
C46	C	0.479623	-0.187710	-0.218609
C47	C	0.452327	-0.216485	-0.251996
O48	O	0.393239	-0.163273	-0.190249
O49	O	0.393208	-0.269719	-0.313771
C50	C	0.755395	-0.333214	-0.251983
C51	C	0.755403	-0.383148	-0.251990
C52	C	0.788984	-0.692788	-0.218627
C53	C	0.789048	-0.880461	-0.218647
O54	O	0.817525	-0.904723	-0.190260
N55	N	0.755598	-0.903933	-0.252049
C56	C	0.722132	-0.880484	-0.285450
O57	O	0.693685	-0.904754	-0.313865
C58	C	0.722070	-0.692812	-0.285432
C59	C	0.755519	-0.669342	-0.252024
C60	C	0.822430	-0.669318	-0.185222
C61	C	0.822412	-0.622403	-0.185215
C62	C	0.788947	-0.598957	-0.218613
C63	C	0.755500	-0.622427	-0.252018
C64	C	0.688607	-0.669363	-0.318836
C65	C	0.688595	-0.622442	-0.318829
C66	C	0.722044	-0.598973	-0.285422
C67	C	0.722017	-0.552065	-0.285409
N68	N	0.755467	-0.528593	-0.252007
C69	C	0.788932	-0.552039	-0.218609
C70	C	0.722166	-0.979014	-0.285457
C71	C	0.722180	-1.025932	-0.285461
C72	C	0.789098	-1.025906	-0.218658
C73	C	0.789080	-0.978988	-0.218652
C74	C	0.755616	-0.955542	-0.252055
C75	C	0.788890	-0.453513	-0.218597
C76	C	0.788868	-0.406594	-0.218592
C77	C	0.721952	-0.406624	-0.285396
C78	C	0.721973	-0.453539	-0.285400
C79	C	0.755446	-0.476983	-0.251999
O80	O	0.693559	-0.527774	-0.313785
O81	O	0.817382	-0.527761	-0.190207
C82	C	0.789002	-0.739703	-0.218633
C83	C	0.755556	-0.763173	-0.252038
C84	C	0.722091	-0.739727	-0.285436
C85	C	0.755570	-0.810091	-0.252042
C86	C	0.789035	-0.833537	-0.218644
C87	C	0.822486	-0.810065	-0.185242
C88	C	0.822467	-0.763149	-0.185235
C89	C	0.688641	-0.763199	-0.318838
C90	C	0.688661	-0.810115	-0.318841
C91	C	0.722126	-0.833560	-0.285443
C92	C	0.891863	-0.216509	-0.252045
C93	C	0.949977	-0.216517	-0.252060
C94	C	0.755518	-0.216471	-0.388382
C95	C	0.755530	-0.216463	-0.446496
C96	C	0.755599	-0.099313	-0.252047
C97	C	0.755645	-0.049378	-0.252063
C98	C	0.788957	-0.245164	-0.697682
C99	C	0.788952	-0.245173	-0.643078
O100	O	0.817349	-0.269626	-0.614834
N101	N	0.755541	-0.216441	-0.615770
C102	C	0.722130	-0.187701	-0.643070
O103	O	0.693711	-0.163263	-0.614829
C104	C	0.722134	-0.187694	-0.697674
C105	C	0.755550	-0.216425	-0.724978
C106	C	0.822371	-0.273893	-0.724986
C107	C	0.822377	-0.273883	-0.779587
C108	C	0.788969	-0.245144	-0.806883
C109	C	0.755556	-0.216415	-0.779579
C110	C	0.688721	-0.158956	-0.724972
C111	C	0.688726	-0.158952	-0.779579
C112	C	0.722143	-0.187683	-0.806884
C113	C	0.722155	-0.187666	-0.861475
N114	N	0.755566	-0.216398	-0.888782
C115	C	0.788973	-0.245137	-0.861486
C116	C	0.722126	-0.187718	-0.528399
C117	C	0.722125	-0.187722	-0.473797
C118	C	0.788945	-0.245195	-0.473808
C119	C	0.788949	-0.245188	-0.528412
C120	C	0.755536	-0.216450	-0.555707
C121	C	0.788983	-0.245113	-0.976152
C122	C	0.788988	-0.245099	-1.030757
C123	C	0.722165	-0.187628	-1.030741
C124	C	0.722162	-0.187640	-0.976140
C125	C	0.755573	-0.216386	-0.948847
O126	O	0.693771	-0.163227	-0.889753
O127	O	0.817382	-0.269575	-0.889734
C128	C	0.755491	-0.216478	-0.116167
C129	C	0.755581	-0.216360	-0.058053
H130	H	-0.044951	-0.268714	-0.312615
H131	H	0.694938	-1.045037	-0.312660
H132	H	0.849586	-0.297280	-0.801813
H133	H	0.661367	-0.688464	-0.346038
H134	H	0.849732	-0.829163	-0.158047
H135	H	0.457394	-0.164282	-0.191433
F136	F	0.686562	-0.157127	-0.557444
H137	H	0.305285	-0.297463	-0.345945
F138	F	0.312115	-0.128315	-0.149753
H139	H	0.849575	-0.297298	-0.702768
H140	H	0.661508	-0.135561	-0.702750
F141	F	0.563287	-0.275874	-0.320869
F142	F	0.858019	-0.597431	-0.149664
H143	H	0.816193	-0.268518	-0.953936
F144	F	0.858052	-0.694264	-0.149673
F145	F	0.653165	-0.128362	-0.808626
H146	H	-0.044944	-0.164322	-0.191499
F147	F	0.686565	-0.157136	-0.444744
H148	H	0.816105	-0.387486	-0.191385
H149	H	0.694959	-0.164239	-0.953908
F150	F	0.199415	-0.304662	-0.354308
F151	F	0.824681	-0.954014	-0.183095
H152	H	0.556461	-0.164281	-0.191419
F153	F	0.060940	-0.275906	-0.320948
H154	H	0.661345	-0.603356	-0.346032
H155	H	0.816159	-0.268584	-0.550639
H156	H	0.816149	-0.472596	-0.191400
F157	F	0.824712	-1.050867	-0.183112
F158	F	0.686364	-0.478518	-0.320946
H159	H	0.694967	-0.164228	-1.052975
F160	F	0.686545	-0.954068	-0.321011
F161	F	0.060931	-0.157113	-0.183146
H162	H	0.206239	-0.135519	-0.158104
H163	H	0.694704	-0.387527	-0.312587
F164	F	0.858070	-0.738177	-0.149680
H165	H	0.661419	-0.829220	-0.346045
F166	F	0.824499	-0.275784	-0.444748
F167	F	0.653021	-0.738252	-0.354387
H168	H	0.816202	-0.268496	-1.052986
H169	H	0.457410	-0.268682	-0.312552
