data_functionalizedCrystal
_audit_creation_method	'MofGen! by Chris Wilmer'
_symmetry_space_group_name_H-M	'P1'
_symmetry_Int_Tables_number	1
_symmetry_cell_setting	triclinic
loop_
_symmetry_equiv_pos_as_xyz
  x,y,z
_cell_length_a	10.686220
_cell_length_b	29.839131
_cell_length_c	10.686551
_cell_angle_alpha	85.589901
_cell_angle_beta	90.308082
_cell_angle_gamma	94.423467
loop_
_atom_site_label
_atom_site_type_symbol
_atom_site_fract_x
_atom_site_fract_y
_atom_site_fract_z
Zn1	Zn	1.972144	-0.109531	-0.562362
Zn2	Zn	1.955808	-0.190848	-0.352586
Zn3	Zn	1.746247	-0.121024	-0.368677
Zn4	Zn	1.762239	-0.189937	-0.578364
O5	O	1.859109	-0.152835	-0.465497
O6	O	2.145524	-0.115889	-0.521104
O7	O	1.914480	-0.186776	-0.179174
O8	O	1.776357	-0.056627	-0.394408
O9	O	2.133522	-0.175632	-0.366982
O10	O	1.942322	-0.048183	-0.536707
O11	O	1.760516	-0.135477	-0.190996
O12	O	1.572821	-0.134594	-0.409924
O13	O	1.803613	-0.174081	-0.751788
O14	O	1.584570	-0.185225	-0.563980
O15	O	1.957829	-0.115006	-0.740032
O16	O	1.929986	-0.253599	-0.382499
O17	O	1.787772	-0.252930	-0.548377
C18	C	1.533178	-0.161058	-0.490435
C19	C	1.393745	-0.164586	-0.501133
C20	C	1.858878	-0.269565	-0.465453
C21	C	1.858897	-0.319499	-0.465467
C22	C	1.933315	-0.629464	-0.379231
C23	C	1.933474	-0.817132	-0.379268
O24	O	1.996563	-0.841676	-0.305913
N25	N	1.859377	-0.840268	-0.465572
C26	C	1.785241	-0.816484	-0.551879
O27	O	1.722231	-0.840468	-0.625295
C28	C	1.785090	-0.628816	-0.551847
C29	C	1.859182	-0.605683	-0.465528
C30	C	2.007402	-0.606331	-0.292920
C31	C	2.007357	-0.559417	-0.292908
C32	C	1.933224	-0.535636	-0.379205
C33	C	1.859137	-0.558769	-0.465516
C34	C	1.710962	-0.605033	-0.638159
C35	C	1.710934	-0.558113	-0.638145
C36	C	1.785026	-0.534980	-0.551827
C37	C	1.784958	-0.488075	-0.551801
N38	N	1.859055	-0.464939	-0.465496
C39	C	1.933188	-0.488720	-0.379198
C40	C	1.785324	-0.915012	-0.551888
C41	C	1.785360	-0.961928	-0.551895
C42	C	1.933594	-0.962573	-0.379285
C43	C	1.933551	-0.915656	-0.379273
C44	C	1.859421	-0.891876	-0.465583
C45	C	1.933086	-0.390197	-0.379177
C46	C	1.933030	-0.343279	-0.379169
C47	C	1.784801	-0.342638	-0.551783
C48	C	1.784851	-0.389552	-0.551787
C49	C	1.859004	-0.413330	-0.465480
O50	O	1.721913	-0.463501	-0.625126
O51	O	1.996210	-0.464726	-0.305811
C52	C	1.933361	-0.676378	-0.379244
C53	C	1.859273	-0.699511	-0.465554
C54	C	1.785141	-0.675730	-0.551852
C55	C	1.859309	-0.746428	-0.465561
C56	C	1.933442	-0.770208	-0.379263
C57	C	2.007539	-0.747072	-0.292959
C58	C	2.007493	-0.700158	-0.292946
C59	C	1.711044	-0.698867	-0.638156
C60	C	1.711094	-0.745781	-0.638161
C61	C	1.785227	-0.769561	-0.551863
C62	C	2.186314	-0.144580	-0.440463
C63	C	2.325749	-0.141063	-0.429795
C64	C	1.884327	-0.143160	-0.792700
C65	C	1.895073	-0.139037	-0.932134
C66	C	1.859378	-0.035647	-0.465567
C67	C	1.859492	0.014291	-0.465597
C68	C	1.834062	-0.162438	-0.139563
C69	C	1.823559	-0.166429	-0.000111
H70	H	1.374204	-0.118225	-0.360535
O71	O	1.712611	-0.319563	-0.635500
C72	C	1.585488	-0.335050	-0.617599
H73	H	1.571495	-0.351084	-0.517861
H74	H	1.524319	-0.305461	-0.633107
H75	H	1.557855	-0.361127	-0.687353
H76	H	1.345283	-0.187428	-0.570390
O77	O	2.005124	-0.320876	-0.295268
C78	C	2.070541	-0.351931	-0.219087
H79	H	2.078831	-0.383736	-0.270159
H80	H	2.168355	-0.336238	-0.198217
H81	H	2.017339	-0.360929	-0.127286
O82	O	2.079632	-0.629356	-0.209128
C83	C	2.206731	-0.613855	-0.227142
H84	H	2.212915	-0.578302	-0.275220
H85	H	2.256095	-0.613465	-0.132353
H86	H	2.253958	-0.637265	-0.288415
H87	H	1.724955	-0.895653	-0.622174
H88	H	1.754116	-0.193035	-0.951637
H89	H	1.993471	-0.409551	-0.308900
H90	H	1.964530	-0.112431	-0.980613
O91	O	2.079588	-0.677757	-0.209052
C92	C	2.144997	-0.708816	-0.132877
H93	H	2.153275	-0.740622	-0.183952
H94	H	2.242815	-0.693128	-0.112006
H95	H	2.091794	-0.717814	-0.041075
H96	H	2.067693	-0.540584	-0.222623
H97	H	1.993883	-0.896824	-0.308986
H98	H	1.993956	-0.981943	-0.309018
O99	O	1.638844	-0.534972	-0.721821
C100	C	1.552312	-0.512042	-0.656535
H101	H	1.589295	-0.506697	-0.558110
H102	H	1.539362	-0.477966	-0.708909
H103	H	1.458310	-0.532919	-0.649794
H104	H	1.725014	-0.980760	-0.622173
O105	O	1.638962	-0.627425	-0.722135
C106	C	1.573517	-0.596367	-0.798275
H107	H	1.625215	-0.561479	-0.798698
H108	H	1.567691	-0.607324	-0.898143
H109	H	1.474725	-0.595182	-0.759554
H110	H	2.067897	-0.766443	-0.222689
O111	O	1.713023	-0.411999	-0.635798
C112	C	1.749946	-0.396108	-0.758752
H113	H	1.850637	-0.380448	-0.757489
H114	H	1.743906	-0.425397	-0.821564
H115	H	1.685154	-0.369628	-0.796627
O116	O	1.639083	-0.768177	-0.722138
C117	C	1.573626	-0.737123	-0.798278
H118	H	1.625314	-0.702233	-0.798705
H119	H	1.567803	-0.748081	-0.898145
H120	H	1.474834	-0.735942	-0.759556
H121	H	1.650678	-0.679508	-0.708432
