data_functionalizedCrystal
_audit_creation_method	'MofGen! by Chris Wilmer'
_symmetry_space_group_name_H-M	'P1'
_symmetry_Int_Tables_number	1
_symmetry_cell_setting	triclinic
loop_
_symmetry_equiv_pos_as_xyz
  x,y,z
_cell_length_a	15.944551
_cell_length_b	15.944493
_cell_length_c	12.996460
_cell_angle_alpha	89.999729
_cell_angle_beta	89.998907
_cell_angle_gamma	83.486891
loop_
_atom_site_label
_atom_site_type_symbol
_atom_site_fract_x
_atom_site_fract_y
_atom_site_fract_z
O1	O	1.114503	0.108337	-0.085446
O2	O	1.447836	0.441670	0.247887
O3	O	1.781169	0.775003	0.581221
O4	O	0.869950	0.121693	-0.085470
O5	O	1.203284	0.455026	0.247863
O6	O	1.536617	0.788360	0.581197
O7	O	0.998930	-0.007263	-0.085466
O8	O	1.332263	0.326070	0.247868
O9	O	1.665597	0.659403	0.581201
O10	O	0.985523	0.237293	-0.085450
O11	O	1.318856	0.570626	0.247883
O12	O	1.652190	0.903960	0.581217
O13	O	0.998917	-0.007270	0.085668
O14	O	1.332250	0.326063	0.419001
O15	O	1.665583	0.659396	0.752335
O16	O	0.869937	0.121686	0.085664
O17	O	1.203270	0.455019	0.418997
O18	O	1.536604	0.788353	0.752331
O19	O	1.114489	0.108329	0.085688
O20	O	1.447823	0.441663	0.419021
O21	O	1.781156	0.774996	0.752355
Cu22	Cu	0.992212	0.115007	0.101302
Cu23	Cu	1.325545	0.448340	0.434635
Cu24	Cu	1.658879	0.781674	0.767968
Cu25	Cu	0.992228	0.115016	-0.101084
Cu26	Cu	1.325561	0.448349	0.232250
Cu27	Cu	1.658894	0.781682	0.565583
O28	O	0.985510	0.237286	0.085684
O29	O	1.318843	0.570619	0.419017
O30	O	1.652176	0.903953	0.752350
C31	C	0.838650	0.121135	0.000094
C32	C	1.171983	0.454468	0.333427
C33	C	1.505316	0.787802	0.666760
C34	C	0.745404	0.119473	0.000084
C35	C	1.078737	0.452806	0.333417
C36	C	1.412071	0.786139	0.666751
C37	C	0.530565	0.035566	0.000098
C38	C	0.863898	0.368899	0.333432
C39	C	1.197231	0.702233	0.666765
C40	C	0.469543	0.074533	-0.084277
C41	C	0.802877	0.407866	0.249056
C42	C	1.136210	0.741200	0.582390
C43	C	0.574679	0.116465	0.000096
C44	C	0.908012	0.449799	0.333429
C45	C	1.241346	0.783132	0.666763
C46	C	0.469552	0.074545	0.084447
C47	C	0.802886	0.407879	0.417781
C48	C	1.136219	0.741212	0.751114
C49	C	0.409767	0.113555	0.000112
C50	C	0.743100	0.446888	0.333445
C51	C	1.076433	0.780221	0.666779
C52	C	0.514885	0.155455	-0.084349
C53	C	0.848219	0.488788	0.248984
C54	C	1.181552	0.822121	0.582317
C55	C	0.514901	0.155455	0.084451
C56	C	0.848234	0.488789	0.417784
C57	C	1.181567	0.822122	0.751118
C58	C	0.453897	0.194481	0.000055
C59	C	0.787230	0.527814	0.333388
C60	C	1.120563	0.861148	0.666722
C61	C	0.669681	0.118140	0.000086
C62	C	1.003014	0.451473	0.333419
C63	C	1.336347	0.784807	0.666752
C64	C	0.314766	0.111886	0.000115
C65	C	0.648099	0.445220	0.333448
C66	C	0.981433	0.778553	0.666781
C67	C	0.998375	-0.038562	0.000097
C68	C	1.331709	0.294772	0.333430
C69	C	1.665042	0.628105	0.666763
C70	C	0.996733	-0.131810	0.000083
C71	C	1.330066	0.201523	0.333417
C72	C	1.663399	0.534856	0.666750
C73	C	1.072653	-0.367570	0.000110
C74	C	1.405986	-0.034237	0.333444
C75	C	1.739320	0.299097	0.666777
C76	C	1.031719	-0.418135	-0.084271
C77	C	1.365052	-0.084801	0.249062
C78	C	1.698385	0.248532	0.582396
C79	C	0.993688	-0.302531	0.000096
C80	C	1.327022	0.030802	0.333429
C81	C	1.660355	0.364135	0.666762
C82	C	1.031687	-0.418118	0.084454
C83	C	1.365020	-0.084784	0.417787
C84	C	1.698354	0.248549	0.751120
C85	C	0.990754	-0.467441	0.000112
C86	C	1.324087	-0.134108	0.333445
C87	C	1.657421	0.199226	0.666779
C88	C	0.952775	-0.351868	-0.084355
C89	C	1.286109	-0.018534	0.248978
C90	C	1.619442	0.314799	0.582311
C91	C	0.952755	-0.351847	0.084445
C92	C	1.286089	-0.018514	0.417778
C93	C	1.619422	0.314819	0.751112
C94	C	0.911763	-0.402379	0.000043
C95	C	1.245096	-0.069046	0.333376
C96	C	1.578430	0.264288	0.666710
C97	C	0.995381	-0.207531	0.000085
C98	C	1.328715	0.125802	0.333419
C99	C	1.662048	0.459135	0.666752
C100	C	0.989055	-0.562438	0.000115
C101	C	1.322388	-0.229105	0.333448
C102	C	1.655722	0.104229	0.666782
C103	C	1.145790	0.108887	0.000122
C104	C	1.479123	0.442221	0.333455
C105	C	1.812457	0.775554	0.666789
C106	C	1.239036	0.110550	0.000125
C107	C	1.572369	0.443883	0.333458
C108	C	1.905702	0.777216	0.666792
C109	C	0.986064	0.268584	0.000119
C110	C	1.319398	0.601918	0.333452
C111	C	1.652731	0.935251	0.666786
C112	C	0.987707	0.361833	0.000126
C113	C	1.321040	0.695166	0.333459
C114	C	1.654374	1.028499	0.666792
N115	N	0.992207	0.115001	0.243649
N116	N	1.325540	0.448334	0.576982
N117	N	1.658874	0.781667	0.910316
N118	N	0.992239	0.115015	-0.243431
N119	N	1.325573	0.448349	0.089902
N120	N	1.658906	0.781682	0.423236
C121	C	0.992227	0.115016	0.663463
C122	C	1.325560	0.448350	0.996797
C123	C	1.658893	0.781683	1.330130
C124	C	0.992219	0.115015	0.546658
C125	C	1.325552	0.448348	0.879991
C126	C	1.658885	0.781681	1.213325
C127	C	0.992217	0.115009	0.453560
C128	C	1.325550	0.448342	0.786893
C129	C	1.658884	0.781676	1.120226
C130	C	0.992208	0.115006	0.336747
C131	C	1.325542	0.448340	0.670081
C132	C	1.658875	0.781673	1.003414
H133	H	0.449468	0.040310	0.155778
H134	H	0.782801	0.373643	0.489111
H135	H	1.116134	0.706977	0.822444
H136	H	1.065072	-0.447077	-0.155604
H137	H	1.398405	-0.113744	0.177730
H138	H	1.731739	0.219589	0.511063
H139	H	0.534872	0.189649	-0.155760
H140	H	0.868205	0.522982	0.177574
H141	H	1.201538	0.856316	0.510907
H142	H	0.535019	0.189641	0.155792
H143	H	0.868353	0.522975	0.489126
H144	H	1.201686	0.856308	0.822459
H145	H	1.140671	-0.351942	0.000032
H146	H	1.474004	-0.018608	0.333365
H147	H	1.807338	0.314725	0.666699
C148	C	0.907731	-0.312731	0.180818
C149	C	1.241065	0.020602	0.514152
C150	C	1.574398	0.353935	0.847485
N151	N	0.873823	-0.283271	0.253415
N152	N	1.207157	0.050062	0.586748
N153	N	1.540490	0.383395	0.920082
C154	C	0.442385	0.028310	-0.180647
C155	C	0.775719	0.361643	0.152687
C156	C	1.109052	0.694977	0.486020
N157	N	0.421932	-0.006511	-0.253228
N158	N	0.755265	0.326823	0.080105
N159	N	1.088599	0.660156	0.413438
H160	H	0.843692	-0.417845	-0.000010
H161	H	1.177025	-0.084512	0.333324
H162	H	1.510359	0.248822	0.666657
H163	H	0.563912	-0.031574	-0.000010
H164	H	0.897245	0.301760	0.333323
H165	H	1.230578	0.635093	0.666656
C166	C	0.907767	-0.312934	-0.180841
C167	C	1.241101	0.020400	0.152492
C168	C	1.574434	0.353733	0.485826
N169	N	0.873872	-0.283607	-0.253515
N170	N	1.207205	0.049726	0.079818
N171	N	1.540538	0.383060	0.413152
H172	H	1.065046	-0.447052	0.155787
H173	H	1.398379	-0.113718	0.489120
H174	H	1.731712	0.219615	0.822453
C175	C	0.409074	0.285274	-0.000004
C176	C	0.742408	0.618608	0.333329
C177	C	1.075741	0.951941	0.666663
N178	N	0.375311	0.353659	-0.000054
N179	N	0.708644	0.686992	0.333279
N180	N	1.041978	1.020325	0.666613
