data_functionalizedCrystal
_audit_creation_method	'MofGen! by Chris Wilmer'
_symmetry_space_group_name_H-M	'P1'
_symmetry_Int_Tables_number	1
_symmetry_cell_setting	triclinic
loop_
_symmetry_equiv_pos_as_xyz
  x,y,z
_cell_length_a	11.792254
_cell_length_b	8.965430
_cell_length_c	10.489741
_cell_angle_alpha	90.000457
_cell_angle_beta	84.368886
_cell_angle_gamma	89.997053
loop_
_atom_site_label
_atom_site_type_symbol
_atom_site_fract_x
_atom_site_fract_y
_atom_site_fract_z
O1	O	1.507360	0.124037	0.174903
O2	O	1.177070	0.124040	0.192904
O3	O	1.349731	0.124030	-0.001720
O4	O	1.334700	0.124048	0.369526
O5	O	1.349739	-0.124049	-0.001714
O6	O	1.177078	-0.124038	0.192910
O7	O	1.507369	-0.124042	0.174909
Cu8	Cu	1.342224	-0.146692	0.183910
Cu9	Cu	1.342214	0.146690	0.183903
O10	O	1.334708	-0.124031	0.369532
C11	C	1.134780	0.000001	0.191773
C12	C	1.008758	0.000002	0.188379
N13	N	1.342239	-0.353041	0.183914
C14	C	0.906414	0.000009	0.185621
C15	C	0.778018	0.000009	0.182173
C16	C	1.422115	-0.450312	0.093913
C17	C	1.319347	-0.549717	0.068424
C18	C	1.444967	-0.549763	0.209321
C19	C	1.239419	-0.450257	0.158367
C20	C	1.365107	-0.450295	0.299315
C21	C	1.262265	-0.549655	0.273874
C22	C	1.549658	0.000001	0.176040
C23	C	1.675680	0.000009	0.179434
C24	C	1.348600	-0.000009	-0.049245
C25	C	1.345203	-0.000006	-0.190863
N26	N	1.342208	0.353039	0.183888
C27	C	1.235344	0.000006	-0.258634
C28	C	1.287244	-0.122310	-0.350928
C29	C	1.287262	0.122276	-0.350908
C30	C	1.397149	-0.122423	-0.281291
C31	C	1.397151	0.122273	-0.281262
C32	C	1.449132	-0.000073	-0.373529
C33	C	1.335839	0.000011	0.417057
C34	C	1.339235	0.000018	0.558675
H35	H	1.489598	-0.406690	0.017763
H36	H	1.299984	-0.593389	-0.029179
N37	N	1.124296	-0.392621	0.129736
H38	H	1.125028	-0.279971	0.129885
H39	H	1.106896	-0.429774	0.042871
H40	H	1.145019	-0.000116	-0.208680
N41	N	1.225669	0.259258	-0.391735
H42	H	1.278905	0.320553	-0.452185
H43	H	1.157474	0.227936	-0.436485
N44	N	1.172684	-0.607081	0.374686
H45	H	1.095152	-0.570686	0.355317
H46	H	1.173705	-0.719724	0.374583
H47	H	1.443595	-0.225948	-0.250612
N48	N	1.225669	-0.259278	-0.391797
H49	H	1.224473	-0.258754	-0.487939
H50	H	1.266398	-0.351590	-0.365157
N51	N	1.390790	-0.392389	0.428560
H52	H	1.468461	-0.428518	0.447683
H53	H	1.389803	-0.279751	0.427754
N54	N	1.458661	0.259258	-0.240340
H55	H	1.461143	0.257711	-0.144379
H56	H	1.538926	0.260164	-0.283920
H57	H	1.539538	-0.000142	-0.423256
H58	H	1.531855	-0.593472	0.230822
