data_functionalizedCrystal
_audit_creation_method	'MofGen! by Chris Wilmer'
_symmetry_space_group_name_H-M	'P1'
_symmetry_Int_Tables_number	1
_symmetry_cell_setting	triclinic
loop_
_symmetry_equiv_pos_as_xyz
  x,y,z
_cell_length_a	6.817900
_cell_length_b	8.749629
_cell_length_c	9.514088
_cell_angle_alpha	89.907276
_cell_angle_beta	118.843545
_cell_angle_gamma	105.181975
loop_
_atom_site_label
_atom_site_type_symbol
_atom_site_fract_x
_atom_site_fract_y
_atom_site_fract_z
V1	V	-4.224450	-0.221597	-0.498632
O2	O	-4.201118	0.007764	-0.491285
O3	O	-4.181427	-0.436614	-0.493159
O4	O	-4.259161	-0.219454	-0.717044
O5	O	-4.122846	-0.210900	-0.265850
V6	V	-4.696612	-0.194013	-0.471040
O7	O	-4.510630	-0.282104	-0.559157
O8	O	-4.860630	-0.133506	-0.410515
O9	O	-4.516429	0.021005	-0.476513
O10	O	-4.837342	-0.423373	-0.478387
O11	O	-4.915613	-0.204709	-0.703822
O12	O	-4.438695	-0.196156	-0.252628
C13	C	-4.025047	-0.488991	-0.484761
C14	C	-4.071711	-0.664779	-0.481742
C15	C	-4.124202	-0.211980	-0.770346
C16	C	-4.233900	-0.211650	-0.948885
C17	C	-4.336150	0.073374	-0.484907
C18	C	-4.268728	0.249160	-0.487936
C19	C	-4.236993	-0.203635	-0.199318
C20	C	-4.106532	-0.203956	-0.020777
H21	H	-3.938738	-0.725582	-0.474132
H22	H	-4.401719	-0.690033	-0.495563
C23	C	-3.784162	-0.197481	-0.756308
C24	C	-3.846048	-0.195461	-0.919498
H25	H	-3.623346	-0.192242	-0.693780
H26	H	-3.877838	-0.293505	-0.746047
H27	H	-3.809296	-0.108047	-0.718419
H28	H	-3.820930	-0.284902	-0.957391
H29	H	-3.752343	-0.099426	-0.929767
H30	H	-4.426884	-0.217989	-1.023932
