data_functionalizedCrystal
_audit_creation_method	'MofGen! by Chris Wilmer'
_symmetry_space_group_name_H-M	'P1'
_symmetry_Int_Tables_number	1
_symmetry_cell_setting	triclinic
loop_
_symmetry_equiv_pos_as_xyz
  x,y,z
_cell_length_a	12.827893
_cell_length_b	29.839131
_cell_length_c	12.827885
_cell_angle_alpha	89.963180
_cell_angle_beta	89.980538
_cell_angle_gamma	90.041391
loop_
_atom_site_label
_atom_site_type_symbol
_atom_site_fract_x
_atom_site_fract_y
_atom_site_fract_z
Zn1	Zn	1.597483	-0.178832	-0.590798
Zn2	Zn	2.097483	0.321168	-0.090798
Zn3	Zn	1.597297	-0.253969	-0.416036
Zn4	Zn	2.097297	0.246031	0.083964
Zn5	Zn	1.422723	-0.178854	-0.416071
Zn6	Zn	1.922723	0.321146	0.083929
Zn7	Zn	1.422630	-0.253936	-0.590736
Zn8	Zn	1.922630	0.246064	-0.090736
O9	O	1.510033	-0.216398	-0.503410
O10	O	2.010033	0.283602	-0.003410
O11	O	1.743694	-0.188804	-0.567626
O12	O	2.243694	0.311196	-0.067626
O13	O	1.574100	-0.244028	-0.269805
O14	O	2.074100	0.255972	0.230195
O15	O	1.446022	-0.115984	-0.439289
O16	O	1.946022	0.384016	0.060711
O17	O	1.743557	-0.244007	-0.439230
O18	O	2.243557	0.255993	0.060770
O19	O	1.574417	-0.115968	-0.567660
O20	O	2.074417	0.384032	-0.067660
O21	O	1.445842	-0.188841	-0.269830
O22	O	1.945842	0.311159	0.230170
O23	O	1.276475	-0.188809	-0.439230
O24	O	1.776475	0.311191	0.060770
O25	O	1.445863	-0.243950	-0.736981
O26	O	1.945863	0.256050	-0.236981
O27	O	1.276406	-0.243971	-0.567556
O28	O	1.776406	0.256029	-0.067556
O29	O	1.574327	-0.188771	-0.737026
O30	O	2.074327	0.311229	-0.237026
O31	O	1.574010	-0.316832	-0.439170
O32	O	2.074010	0.183168	0.060830
O33	O	1.445683	-0.316807	-0.567522
O34	O	1.945683	0.183193	-0.067522
C35	C	1.238523	-0.216389	-0.503390
C36	C	1.738523	0.283611	-0.003390
C37	C	1.122370	-0.216396	-0.503407
C38	C	1.622370	0.283604	-0.003407
C39	C	1.070579	-0.243735	-0.566808
C40	C	1.570579	0.256265	-0.066808
C41	C	0.950529	-0.243743	-0.566827
C42	C	1.450529	0.256257	-0.066827
C43	C	1.509844	-0.333120	-0.503359
C44	C	2.009844	0.166880	-0.003359
C45	C	1.509859	-0.383055	-0.503371
C46	C	2.009859	0.116945	-0.003371
C47	C	1.576974	-0.692698	-0.436675
C48	C	2.076974	-0.192698	0.063325
C49	C	1.577103	-0.880371	-0.436716
C50	C	2.077103	-0.380371	0.063284
O51	O	1.634017	-0.904636	-0.379969
O52	O	2.134017	-0.404636	0.120031
N53	N	1.510250	-0.903840	-0.503489
N54	N	2.010250	-0.403840	-0.003489
C55	C	1.443364	-0.880387	-0.570262
C56	C	1.943364	-0.380387	-0.070262
O57	O	1.386511	-0.904655	-0.627065
O58	O	1.886511	-0.404655	-0.127065
C59	C	1.443241	-0.692715	-0.570226
C60	C	1.943241	-0.192715	-0.070226
C61	C	1.510092	-0.669249	-0.503441
C62	C	2.010092	-0.169249	-0.003441
C63	C	1.643820	-0.669232	-0.369897
C64	C	2.143820	-0.169232	0.130103
C65	C	1.643783	-0.622317	-0.369883
C66	C	2.143783	-0.122317	0.130117
C67	C	1.576901	-0.598867	-0.436648
C68	C	2.076901	-0.098867	0.063352
C69	C	1.510055	-0.622333	-0.503427
C70	C	2.010055	-0.122333	-0.003427
C71	C	1.376361	-0.669263	-0.637003
C72	C	1.876361	-0.169263	-0.137003
C73	C	1.376338	-0.622342	-0.636990
C74	C	1.876338	-0.122342	-0.136990
C75	C	1.443189	-0.598876	-0.570205
C76	C	1.943189	-0.098876	-0.070205
C77	C	1.443135	-0.551969	-0.570179
C78	C	1.943135	-0.051969	-0.070179
N79	N	1.509988	-0.528500	-0.503406
N80	N	2.009988	-0.028500	-0.003406
C81	C	1.576871	-0.551949	-0.436641
C82	C	2.076871	-0.051949	0.063359
C83	C	1.443432	-0.978918	-0.570274
C84	C	1.943432	-0.478918	-0.070274
C85	C	1.443461	-1.025835	-0.570282
C86	C	1.943461	-0.525835	-0.070282
C87	C	1.577202	-1.025816	-0.436738
C88	C	2.077202	-0.525816	0.063262
C89	C	1.577167	-0.978898	-0.436725
C90	C	2.077167	-0.478898	0.063275
C91	C	1.510285	-0.955449	-0.503501
C92	C	2.010285	-0.455449	-0.003501
C93	C	1.576788	-0.453424	-0.436617
C94	C	2.076788	0.046576	0.063383
C95	C	1.576742	-0.406504	-0.436606
C96	C	2.076742	0.093496	0.063394
C97	C	1.443005	-0.406527	-0.570154
C98	C	1.943005	0.093473	-0.070154
C99	C	1.443047	-0.453443	-0.570161
C100	C	1.943047	0.046557	-0.070161
C101	C	1.509947	-0.476890	-0.503389
C102	C	2.009947	0.023110	-0.003389
O103	O	1.386259	-0.527675	-0.626905
O104	O	1.886259	-0.027675	-0.126905
O105	O	1.633732	-0.527674	-0.379862
O106	O	2.133732	-0.027674	0.120138
C107	C	1.577011	-0.739614	-0.436689
C108	C	2.077011	-0.239614	0.063311
C109	C	1.510165	-0.763080	-0.503468
C110	C	2.010165	-0.263080	-0.003468
C111	C	1.443283	-0.739630	-0.570233
C112	C	1.943283	-0.239630	-0.070233
C113	C	1.510195	-0.809997	-0.503476
C114	C	2.010195	-0.309997	-0.003476
C115	C	1.577078	-0.833447	-0.436710
C116	C	2.077078	-0.333447	0.063290
C117	C	1.643931	-0.809978	-0.369937
C118	C	2.143931	-0.309978	0.130063
C119	C	1.643894	-0.763063	-0.369924
C120	C	2.143894	-0.263063	0.130076
C121	C	1.376429	-0.763099	-0.637006
C122	C	1.876429	-0.263099	-0.137006
C123	C	1.376471	-0.810014	-0.637013
C124	C	1.876471	-0.310014	-0.137013
C125	C	1.443353	-0.833464	-0.570248
C126	C	1.943353	-0.333464	-0.070248
C127	C	1.782603	-0.216407	-0.503431
C128	C	2.282603	0.283593	-0.003431
C129	C	1.898756	-0.216410	-0.503440
C130	C	2.398756	0.283590	-0.003440
C131	C	1.510105	-0.216354	-0.775981
C132	C	2.010105	0.283646	-0.275981
C133	C	1.510136	-0.216336	-0.892134
C134	C	2.010136	0.283664	-0.392134
C135	C	1.510251	-0.099219	-0.503485
C136	C	2.010251	0.400781	-0.003485
C137	C	1.510344	-0.049285	-0.503517
C138	C	2.010344	0.450715	-0.003517
C139	C	1.573639	-0.243614	-1.063950
C140	C	2.073639	0.256386	-0.563950
C141	C	1.573609	-0.243633	-0.943900
C142	C	2.073609	0.256367	-0.443900
C143	C	1.510022	-0.216408	-0.231900
C144	C	2.010022	0.283592	0.268100
C145	C	1.510193	-0.216300	-0.115748
C146	C	2.010193	0.283700	0.384252
H147	H	0.943289	-0.193005	-0.449153
H148	H	1.443289	0.306995	0.050847
H149	H	1.077834	-0.192995	-0.449144
H150	H	1.577834	0.307005	0.050856
H151	H	1.389015	-1.044938	-0.624656
H152	H	1.889015	-0.544938	-0.124656
H153	H	1.698387	-0.829079	-0.315572
H154	H	2.198387	-0.329079	0.184428
H155	H	1.388966	-0.959829	-0.624653
H156	H	1.888966	-0.459829	-0.124653
F157	F	1.644615	-0.274197	-0.885681
F158	F	2.144615	0.225803	-0.385681
H159	H	1.631180	-0.387399	-0.382218
H160	H	2.131180	0.112601	0.117782
H161	H	1.627975	-0.266985	-1.108482
H162	H	2.127975	0.233015	-0.608482
F163	F	1.439138	-0.185767	-0.950346
F164	F	1.939138	0.314233	-0.450346
H165	H	1.631267	-0.472509	-0.382247
H166	H	2.131267	0.027491	0.117753
F167	F	1.715050	-0.738094	-0.298844
F168	F	2.215050	-0.238094	0.201156
H169	H	1.698222	-0.603213	-0.315504
H170	H	2.198222	-0.103213	0.184496
F171	F	1.439158	-0.185755	-1.057548
F172	F	1.939158	0.314245	-0.557548
H173	H	1.115115	-0.267133	-0.621079
H174	H	1.615115	0.232867	-0.121079
H175	H	0.905989	-0.267150	-0.621104
H176	H	1.405989	0.232850	-0.121104
H177	H	1.322024	-0.829116	-0.691397
H178	H	1.822024	-0.329116	-0.191397
H179	H	1.698290	-0.688320	-0.315528
H180	H	2.198290	-0.188320	0.184472
H181	H	1.321919	-0.688361	-0.691381
H182	H	1.821919	-0.188361	-0.191381
F183	F	1.305240	-0.738148	-0.708072
F184	F	1.805240	-0.238148	-0.208072
F185	F	1.305154	-0.597389	-0.708066
F186	F	1.805154	-0.097389	-0.208066
H187	H	1.388615	-0.472550	-0.624546
H188	H	1.888615	0.027450	-0.124546
F189	F	1.648318	-0.953928	-0.365645
F190	F	2.148318	-0.453928	0.134355
H191	H	1.388547	-0.387427	-0.624511
H192	H	1.888547	0.112573	-0.124511
H193	H	1.631661	-1.044917	-0.382375
H194	H	2.131661	-0.544917	0.117625
