data_functionalizedCrystal
_audit_creation_method	'MofGen! by Chris Wilmer'
_symmetry_space_group_name_H-M	'P1'
_symmetry_Int_Tables_number	1
_symmetry_cell_setting	triclinic
loop_
_symmetry_equiv_pos_as_xyz
  x,y,z
_cell_length_a	8.497374
_cell_length_b	17.077404
_cell_length_c	17.077402
_cell_angle_alpha	89.979147
_cell_angle_beta	89.987778
_cell_angle_gamma	90.002323
loop_
_atom_site_label
_atom_site_type_symbol
_atom_site_fract_x
_atom_site_fract_y
_atom_site_fract_z
Zn1	Zn	0.891940	1.199930	0.312687
Zn2	Zn	0.628125	1.199874	0.443921
Zn3	Zn	0.628165	1.068699	0.312669
Zn4	Zn	0.891854	1.068630	0.443910
O5	O	0.760021	1.134283	0.378297
O6	O	0.856964	1.309770	0.330108
O7	O	0.407368	1.182479	0.426508
O8	O	0.663207	1.086159	0.202824
O9	O	0.663140	1.309729	0.426525
O10	O	0.857002	1.182574	0.202837
O11	O	0.407397	1.086105	0.330077
O12	O	0.663124	0.958843	0.330066
O13	O	1.112628	1.086042	0.426505
O14	O	0.856855	0.958792	0.426488
O15	O	1.112691	1.182508	0.330096
O16	O	0.663057	1.182412	0.553767
O17	O	0.856817	1.085988	0.553758
C18	C	0.759986	0.930336	0.378274
C19	C	0.760008	0.843086	0.378284
C20	C	0.861086	0.802118	0.328169
C21	C	0.861093	0.720137	0.328174
C22	C	0.760029	0.679126	0.378298
C23	C	0.658940	0.720100	0.428416
C24	C	0.658926	0.802079	0.428406
C25	C	0.658979	0.549230	0.428434
C26	C	0.658995	0.467245	0.428445
C27	C	0.861146	0.467288	0.328201
C28	C	0.861132	0.549267	0.328191
C29	C	0.760045	0.590235	0.378310
C30	C	0.759958	1.134208	0.582245
C31	C	0.759984	1.134247	0.669494
C32	C	1.171501	1.134278	0.378298
C33	C	1.350145	1.134279	0.378306
C34	C	0.760057	1.339028	0.378320
C35	C	0.760073	1.426277	0.378329
C36	C	0.760119	1.134381	0.173552
C37	C	0.760160	1.134422	0.086303
C38	C	0.659201	1.184506	0.710463
C39	C	0.659241	1.184545	0.792443
C40	C	0.760057	1.134319	0.833454
C41	C	0.860851	1.084058	0.792480
C42	C	0.860818	1.084024	0.710501
C43	C	0.860911	1.084130	0.963350
C44	C	0.860943	1.084163	1.045334
C45	C	0.659335	1.184651	1.045292
C46	C	0.659301	1.184618	0.963313
C47	C	0.760093	1.134355	0.922345
H48	H	0.943436	0.582656	0.287380
Cl49	Cl	0.988223	0.415786	0.265193
H50	H	0.576659	0.582584	0.469244
H51	H	0.943388	0.835503	0.287353
H52	H	0.576701	0.433856	0.469261
Cl53	Cl	0.531879	0.668543	0.491426
Cl54	Cl	0.531852	0.853582	0.491412
Cl55	Cl	0.987527	1.020840	0.658997
Cl56	Cl	0.532443	1.247646	0.658915
H57	H	0.942944	1.043166	0.825877
H58	H	0.943404	0.686785	0.287366
H59	H	0.577173	1.225471	0.825796
H60	H	0.577202	1.225511	0.929923
H61	H	0.577271	1.225580	1.078653
Cl62	Cl	0.987668	1.021012	1.096889
Cl63	Cl	0.987626	1.020943	0.911847
