data_functionalizedCrystal
_audit_creation_method	'MofGen! by Chris Wilmer'
_symmetry_space_group_name_H-M	'P1'
_symmetry_Int_Tables_number	1
_symmetry_cell_setting	triclinic
loop_
_symmetry_equiv_pos_as_xyz
  x,y,z
_cell_length_a	12.759401
_cell_length_b	19.805405
_cell_length_c	12.759393
_cell_angle_alpha	89.966133
_cell_angle_beta	89.980324
_cell_angle_gamma	90.027152
loop_
_atom_site_label
_atom_site_type_symbol
_atom_site_fract_x
_atom_site_fract_y
_atom_site_fract_z
Zn1	Zn	1.606179	-0.269423	-0.593960
Zn2	Zn	1.606033	-0.382625	-0.418270
Zn3	Zn	1.430477	-0.269457	-0.418299
Zn4	Zn	1.430432	-0.382576	-0.593911
O5	O	1.518280	-0.326020	-0.506110
O6	O	1.753180	-0.284446	-0.570663
O7	O	1.582703	-0.367648	-0.271253
O8	O	1.453864	-0.174735	-0.441634
O9	O	1.753073	-0.367615	-0.441584
O10	O	1.582951	-0.174711	-0.570691
O11	O	1.453723	-0.284504	-0.271274
O12	O	1.283450	-0.284456	-0.441586
O13	O	1.453788	-0.367531	-0.740939
O14	O	1.283417	-0.367564	-0.570607
O15	O	1.582908	-0.284398	-0.740975
O16	O	1.582659	-0.477335	-0.441536
O17	O	1.453646	-0.477299	-0.570579
C18	C	1.245313	-0.326009	-0.506095
C19	C	1.128536	-0.326020	-0.506114
C20	C	1.073731	-0.282792	-0.573429
C21	C	0.964007	-0.282799	-0.573436
C22	C	0.963903	-0.369268	-0.438810
C23	C	1.073625	-0.369257	-0.438798
C24	C	1.518161	-0.501876	-0.506072
C25	C	1.518205	-0.577108	-0.506091
C26	C	1.585381	-0.612381	-0.573344
C27	C	1.585419	-0.683070	-0.573363
C28	C	1.518286	-0.718484	-0.506124
C29	C	1.451103	-0.683206	-0.438868
C30	C	1.451060	-0.612519	-0.438855
C31	C	1.451271	-0.968279	-0.438922
C32	C	1.451321	-1.038971	-0.438938
C33	C	1.585630	-1.038830	-0.573431
C34	C	1.585588	-0.968143	-0.573417
C35	C	1.518401	-0.932871	-0.506166
C36	C	1.518360	-0.856223	-0.506147
C37	C	1.518332	-0.795131	-0.506137
C38	C	1.792313	-0.326032	-0.506126
C39	C	1.909090	-0.326038	-0.506132
C40	C	1.518359	-0.325955	-0.780143
C41	C	1.518392	-0.325928	-0.896920
C42	C	1.518429	-0.149477	-0.506171
C43	C	1.518492	-0.074245	-0.506197
C44	C	1.585630	-0.282633	-0.951803
C45	C	1.585648	-0.282604	-1.061527
C46	C	1.451187	-0.369169	-1.061476
C47	C	1.451165	-0.369195	-0.951754
C48	C	1.518262	-0.326036	-0.233143
C49	C	1.518432	-0.325873	-0.116367
H50	H	1.640054	-0.583552	-0.628093
H51	H	1.118436	-0.247583	-0.628238
O52	O	1.386043	-0.411272	-1.114792
C53	C	1.445832	-0.454967	-1.178271
H54	H	1.528568	-0.459160	-1.145213
H55	H	1.449489	-0.434020	-1.261435
C56	C	1.292825	-0.520175	-1.220527
C57	C	1.394440	-0.525331	-1.179920
H58	H	1.261123	-0.563578	-1.221549
H59	H	1.252542	-0.490736	-1.177764
H60	H	1.295886	-0.502717	-1.289827
H61	H	1.391377	-0.542780	-1.110617
H62	H	1.434722	-0.554774	-1.222671
O63	O	1.385902	-0.933995	-0.373738
C64	C	1.317996	-0.893105	-0.433476
H65	H	1.311476	-0.914368	-0.516224
H66	H	1.350436	-0.839511	-0.437106
C67	C	1.216813	-0.866000	-0.280415
C68	C	1.208798	-0.892119	-0.382046
H69	H	1.149456	-0.865389	-0.248690
H70	H	1.262565	-0.893546	-0.240167
H71	H	1.243850	-0.821340	-0.283454
H72	H	1.181775	-0.936781	-0.379005
H73	H	1.163039	-0.864581	-0.422292
O74	O	1.650959	-0.240537	-0.898698
C75	C	1.710325	-0.202330	-0.970674
H76	H	1.667308	-0.199967	-1.048882
H77	H	1.790099	-0.227116	-0.982346
C78	C	1.778352	-0.133204	-0.831826
C79	C	1.725514	-0.130298	-0.927880
H80	H	1.787727	-0.088772	-0.805428
H81	H	1.738360	-0.158946	-0.783334
H82	H	1.844825	-0.153862	-0.841566
H83	H	1.659037	-0.109648	-0.918136
H84	H	1.765496	-0.104550	-0.976369
O85	O	0.910675	-0.411365	-0.373483
C86	C	0.937446	-0.478839	-0.396273
H87	H	1.017131	-0.480264	-0.436645
H88	H	0.875709	-0.501684	-0.450236
C89	C	0.844576	-0.518012	-0.244153
C90	C	0.942450	-0.519762	-0.293730
H91	H	0.847658	-0.543256	-0.180901
H92	H	0.826536	-0.472553	-0.228800
H93	H	0.793139	-0.537048	-0.289132
H94	H	0.993883	-0.500718	-0.248757
H95	H	0.960499	-0.565218	-0.309073
H96	H	1.118249	-0.404459	-0.383977
H97	H	0.919389	-0.247597	-0.628249
O98	O	1.650790	-0.717229	-0.638709
C99	C	1.710029	-0.670814	-0.698058
H100	H	1.713637	-0.620441	-0.655022
H101	H	1.671534	-0.663286	-0.777829
C102	C	1.817432	-0.760194	-0.766121
C103	C	1.821871	-0.698327	-0.713259
H104	H	1.886421	-0.777166	-0.775503
H105	H	1.777520	-0.791466	-0.726140
H106	H	1.785348	-0.753913	-0.832592
H107	H	1.853942	-0.704611	-0.646785
H108	H	1.861792	-0.667058	-0.753230
H109	H	1.396404	-0.404450	-0.907068
H110	H	1.640398	-0.247348	-1.106207
H111	H	1.640258	-0.939311	-0.628166
H112	H	1.640334	-1.067557	-0.628193
H113	H	1.396648	-1.067803	-0.384182
H114	H	1.396437	-0.712046	-0.384125
H115	H	1.396357	-0.583800	-0.384092
