data_functionalizedCrystal
_audit_creation_method	'MofGen! by Chris Wilmer'
_symmetry_space_group_name_H-M	'P1'
_symmetry_Int_Tables_number	1
_symmetry_cell_setting	triclinic
loop_
_symmetry_equiv_pos_as_xyz
  x,y,z
_cell_length_a	14.446369
_cell_length_b	21.606444
_cell_length_c	14.446369
_cell_angle_alpha	60.001371
_cell_angle_beta	90.002259
_cell_angle_gamma	60.000451
loop_
_atom_site_label
_atom_site_type_symbol
_atom_site_fract_x
_atom_site_fract_y
_atom_site_fract_z
Zr1	Zr	0.891808	0.677408	-0.121447
O2	O	0.744004	0.806528	-0.269256
O3	O	0.937112	0.548290	-0.076135
O4	O	0.937117	0.677403	-0.269248
O5	O	0.744000	0.677419	0.076187
O6	O	1.089455	0.677397	-0.269242
O7	O	0.743999	0.677415	-0.076143
O8	O	1.089445	0.446438	0.076202
O9	O	0.744010	0.908378	-0.269257
O10	O	1.070128	0.601394	-0.056807
O11	O	0.956442	0.601401	0.056871
O12	O	0.956448	0.753414	-0.170494
O13	O	0.842761	0.753421	-0.056816
Zr14	Zr	1.134770	0.677406	0.121511
Zr15	Zr	1.134768	0.677399	-0.121438
Zr16	Zr	0.891810	0.677414	0.121502
Zr17	Zr	0.891817	0.839848	-0.121448
Zr18	Zr	1.134761	0.514966	0.121512
O19	O	1.089466	0.806524	0.076199
O20	O	1.089462	0.806515	-0.269243
O21	O	0.744008	0.806536	0.076186
O22	O	1.282574	0.548286	0.269320
O23	O	1.282570	0.548277	-0.076122
O24	O	0.937116	0.548299	0.269307
O25	O	1.282578	0.677395	-0.076123
O26	O	1.089460	0.677411	0.269312
O27	O	0.937123	0.677417	0.269306
O28	O	1.282579	0.677399	0.076207
O29	O	0.937130	0.908371	-0.269250
O30	O	1.089447	0.446443	0.269313
O31	O	1.282568	0.446436	0.269321
O32	O	1.282566	0.446431	0.076209
O33	O	0.744012	0.908383	-0.076145
O34	O	0.937133	0.908376	-0.076138
O35	O	1.070130	0.601399	0.170558
O36	O	1.183817	0.601392	0.056880
O37	O	1.070136	0.753413	-0.056808
O38	O	0.956450	0.753420	0.056870
C39	C	1.013278	0.474220	0.000033
C40	C	1.013274	0.405260	0.000034
C41	C	1.072649	-0.018052	-0.059307
C42	C	1.072640	0.046748	-0.059311
C43	C	1.013294	0.079149	0.000028
C44	C	0.953942	0.046752	0.059366
C45	C	0.953944	-0.018043	0.059363
C46	C	0.953930	0.308063	0.059377
C47	C	0.953935	0.372860	0.059378
C48	C	1.072626	0.372854	-0.059298
C49	C	1.072629	0.308059	-0.059301
C50	C	1.013272	0.275671	0.000032
C51	C	1.013280	0.205408	0.000035
C52	C	1.013292	0.149406	0.000033
C53	C	0.709383	0.677418	0.000021
C54	C	0.606240	0.677422	0.000017
C55	C	0.387876	0.773291	-0.071325
C56	C	0.495108	0.773356	-0.071726
C57	C	0.602913	0.629796	-0.052282
C58	C	0.495144	0.630404	-0.052805
C59	C	0.496510	0.628434	0.123748
C60	C	0.602479	0.630241	0.123553
C61	C	1.317195	0.677396	0.000043
C62	C	1.420338	0.677392	0.000047
C63	C	1.013286	0.677399	-0.303860
C64	C	1.013284	0.677396	-0.406998
C65	C	1.013300	0.880594	0.000030
C66	C	1.013304	0.949554	0.000030
C67	C	1.084995	0.581507	-0.374575
C68	C	1.085383	0.581473	-0.481829
C69	C	1.065217	0.725312	-0.589789
C70	C	1.065754	0.724674	-0.481998
C71	C	0.889612	0.726088	-0.482963
C72	C	0.889804	0.724307	-0.588952
C73	C	1.013292	0.677415	0.303924
C74	C	1.013293	0.677417	0.407062
C75	C	1.317184	0.474209	0.000045
C76	C	1.420323	0.405245	0.000049
C77	C	1.013281	0.474228	0.303925
C78	C	1.013278	0.405271	0.407064
C79	C	1.317187	0.474217	0.303937
C80	C	1.420327	0.405256	0.407079
C81	C	0.709391	0.880597	-0.303873
C82	C	0.606251	0.949558	-0.407015
C83	C	0.709394	0.880605	0.000019
C84	C	0.606255	0.949569	0.000015
C85	C	1.013297	0.880586	-0.303862
C86	C	1.013300	0.949543	-0.407000
C87	C	1.409413	0.372860	-0.059302
C88	C	1.506314	0.308070	-0.059321
C89	C	1.614123	0.275663	0.000019
C90	C	1.625030	0.308054	0.059372
C91	C	1.528130	0.372847	0.059383
C92	C	1.072621	0.372887	0.514852
C93	C	1.072614	0.308103	0.611771
C94	C	1.013270	0.275700	0.600900
C95	C	0.953920	0.308090	0.493100
C96	C	0.953921	0.372877	0.396183
C97	C	1.528116	0.372867	0.396177
C98	C	1.625037	0.308080	0.493081
C99	C	1.614166	0.275678	0.600886
C100	C	1.506365	0.308073	0.611786
C101	C	1.409447	0.372863	0.514883
C102	C	0.498462	0.981954	-0.396113
C103	C	0.401541	1.046762	-0.493017
C104	C	0.412412	1.079167	-0.600822
C105	C	0.520213	1.046768	-0.611722
C106	C	0.617131	0.981966	-0.514819
C107	C	0.617164	0.981961	0.059356
C108	C	0.520264	1.046768	0.059348
C109	C	0.412455	1.079178	0.000004
C110	C	0.401548	1.046783	-0.059344
C111	C	0.498448	0.981981	-0.059342
C112	C	1.072655	0.981926	-0.396092
C113	C	1.072680	1.046710	-0.492993
C114	C	1.013342	1.079114	-0.600800
C115	C	0.953985	1.046725	-0.611706
C116	C	0.953967	0.981938	-0.514807
H117	H	0.905601	0.399242	0.107698
N118	N	0.532042	1.081699	0.123363
H119	H	0.615044	1.051324	0.160964
H120	H	0.494415	1.070431	0.183019
N121	N	1.039165	0.531364	-0.302903
H122	H	1.086385	0.470015	-0.283036
H123	H	0.957961	0.561930	-0.346699
N124	N	0.430244	0.669083	0.181613
H125	H	0.402338	0.732502	0.137090
H126	H	0.480768	0.636617	0.260845
N127	N	1.136641	0.081692	-0.123316
H128	H	1.174242	0.051331	-0.160902
H129	H	1.196297	0.070421	-0.068827
H130	H	1.015473	0.795867	-0.668042
H131	H	1.120959	0.281677	-0.107615
H132	H	0.333562	1.131944	0.000012
H133	H	1.121014	1.073074	-0.484091
N134	N	1.184593	0.681793	-0.592841
H135	H	1.205232	0.631063	-0.596261
H136	H	1.238880	0.659675	-0.522303
N137	N	0.486709	0.947015	-0.279851
H138	H	0.443909	0.996454	-0.270776
H139	H	0.564490	0.901032	-0.220172
N140	N	1.718706	0.205780	0.705395
H141	H	1.695473	0.190160	0.775350
H142	H	1.765315	0.228376	0.705335
H143	H	1.013365	1.131869	-0.679693
N144	N	0.486661	0.947050	-0.123349
H145	H	0.443839	0.920181	-0.092214
H146	H	0.564433	0.901113	-0.114335
N147	N	1.718634	0.205771	0.000016
H148	H	1.765285	0.228313	-0.033758
H149	H	1.695265	0.190200	-0.046569
H150	H	0.333922	0.810930	-0.036422
H151	H	0.313757	1.073181	-0.107660
H152	H	0.523945	0.557790	0.177177
N153	N	0.889987	1.081680	-0.727987
H154	H	0.899007	1.127638	-0.787708
H155	H	0.806994	1.108527	-0.736975
N156	N	1.136659	0.946984	-0.279822
H157	H	1.174263	0.977334	-0.287633
H158	H	1.196312	0.881939	-0.237028
N159	N	0.889938	0.273119	0.123393
H160	H	0.852355	0.303471	0.160994
H161	H	0.944442	0.208076	0.183049
N162	N	1.494531	0.273132	-0.123323
H163	H	1.572269	0.227170	-0.114337
H164	H	1.451660	0.322621	-0.206309
N165	N	0.889925	0.407822	0.279909
H166	H	0.830218	0.472865	0.237061
H167	H	0.852391	0.377416	0.287792
N168	N	1.494649	0.273121	0.728064
H169	H	1.572408	0.227159	0.787788
H170	H	1.451805	0.246278	0.737046
N171	N	0.285281	1.081696	-0.481247
H172	H	0.293110	1.051324	-0.398247
H173	H	0.242477	1.070428	-0.518875
H174	H	1.712821	0.281659	0.107684
H175	H	1.712803	0.281711	0.484186
N176	N	0.889942	0.947016	-0.526580
H177	H	0.852357	0.977381	-0.609582
H178	H	0.830273	0.958303	-0.488972
N179	N	0.889926	0.273132	0.481379
H180	H	0.830212	0.284405	0.518944
H181	H	0.944447	0.208099	0.518942
N182	N	0.733431	0.947025	0.123359
H183	H	0.776282	0.958297	0.068930
H184	H	0.776199	0.881995	0.183087
N185	N	1.539905	0.407771	0.123406
H186	H	1.622907	0.377403	0.160994
H187	H	1.502293	0.396489	0.183072
N188	N	1.539858	0.407799	0.279910
H189	H	1.622855	0.377443	0.287725
H190	H	1.502232	0.472844	0.237107
N191	N	0.889927	0.081697	0.123365
H192	H	0.898933	0.127658	0.114369
H193	H	0.921087	0.032209	0.206352
H194	H	0.333486	1.131932	-0.679718
N195	N	1.136652	0.273165	0.728029
H196	H	1.127651	0.227207	0.787784
H197	H	1.105508	0.322655	0.736995
H198	H	0.846197	0.695180	-0.432796
N199	N	1.293190	0.407790	0.526650
H200	H	1.301021	0.377425	0.609650
H201	H	1.250399	0.396504	0.489038
H202	H	0.521795	0.560044	-0.004182
H203	H	1.120953	0.399234	-0.107614
N204	N	1.136666	-0.053001	-0.123302
H205	H	1.174257	-0.022643	-0.160893
H206	H	1.082179	-0.041726	-0.182963
H207	H	0.905617	-0.044416	0.107679
H208	H	0.529051	1.073161	-0.699508
H209	H	0.831913	0.794287	-0.668076
N210	N	0.492965	0.822866	-0.025285
H211	H	0.562773	0.823007	-0.025465
H212	H	0.491640	0.793615	0.054832
N213	N	0.838412	0.678047	-0.588090
H214	H	0.758996	0.708499	-0.585520
H215	H	0.886222	0.615288	-0.519216
N216	N	0.733388	0.947024	-0.526586
H217	H	0.725557	0.977388	-0.609586
H218	H	0.776173	0.881982	-0.488975
H219	H	0.492662	0.810948	-0.162976
N220	N	0.428450	0.675232	-0.173375
H221	H	0.469194	0.694413	-0.225686
H222	H	0.350560	0.728058	-0.195766
N223	N	0.315083	0.822899	-0.191481
H224	H	0.303039	0.783523	-0.199882
H225	H	0.354171	0.842774	-0.245520
H226	H	0.681178	0.559258	-0.002801
N227	N	1.013278	0.205818	0.705432
H228	H	0.979511	0.228374	0.752072
H229	H	1.093679	0.152081	0.751983
N230	N	0.605732	0.673603	-0.171717
H231	H	0.677603	0.670898	-0.170700
H232	H	0.537873	0.736760	-0.219765
N233	N	1.136635	0.407826	0.526595
H234	H	1.174219	0.377475	0.609591
H235	H	1.082148	0.472871	0.488964
H236	H	0.681634	0.560251	0.181204
N237	N	0.601801	0.676230	0.175318
H238	H	0.603923	0.727412	0.118993
H239	H	0.670391	0.633947	0.245941
N240	N	1.205127	0.532147	-0.301957
H241	H	1.213300	0.571630	-0.289970
H242	H	1.259157	0.512400	-0.341131
N243	N	1.039316	0.531705	-0.479516
H244	H	0.969671	0.571723	-0.548420
H245	H	1.018640	0.509603	-0.408611
H246	H	1.176614	0.544082	-0.479541
N247	N	0.818508	0.819656	-0.519285
H248	H	0.866112	0.830490	-0.486722
H249	H	0.752011	0.830474	-0.490700
H250	H	1.016867	0.795040	-0.508629
N251	N	1.186262	0.680165	-0.415522
H252	H	1.209020	0.627243	-0.337574
H253	H	1.191842	0.722384	-0.408189
N254	N	1.293142	0.407804	-0.123307
H255	H	1.300952	0.377451	-0.160907
H256	H	1.250350	0.472848	-0.182962
