data_functionalizedCrystal
_audit_creation_method	'MofGen! by Chris Wilmer'
_symmetry_space_group_name_H-M	'P1'
_symmetry_Int_Tables_number	1
_symmetry_cell_setting	triclinic
loop_
_symmetry_equiv_pos_as_xyz
  x,y,z
_cell_length_a	14.853567
_cell_length_b	14.044220
_cell_length_c	13.330367
_cell_angle_alpha	89.994700
_cell_angle_beta	89.995418
_cell_angle_gamma	88.411904
loop_
_atom_site_label
_atom_site_type_symbol
_atom_site_fract_x
_atom_site_fract_y
_atom_site_fract_z
O1	O	1.206175	0.123767	-0.083357
O2	O	0.944883	0.138510	-0.083374
O3	O	1.071607	-0.006851	-0.083356
O4	O	1.079451	0.269128	-0.083375
O5	O	1.071587	-0.006854	0.083491
O6	O	0.944863	0.138507	0.083473
O7	O	1.206154	0.123764	0.083490
Cu8	Cu	1.075507	0.131135	0.098716
Cu9	Cu	1.075531	0.131139	-0.098600
O10	O	1.079431	0.269125	0.083472
C11	C	0.911231	0.137841	0.000047
C12	C	0.810989	0.135839	0.000041
C13	C	0.390944	0.041029	0.000070
C14	C	0.383345	0.213721	0.000057
C15	C	0.477528	0.215604	0.000054
C16	C	0.528423	0.130197	0.000057
C17	C	0.485135	0.042908	0.000064
C18	C	0.520822	0.302891	0.000037
C19	C	0.615011	0.304777	0.000032
C20	C	0.665908	0.219369	0.000043
C21	C	0.622615	0.132077	0.000051
C22	C	0.673510	0.046670	0.000054
C23	C	0.630218	-0.040623	0.000069
C24	C	0.536032	-0.042499	0.000074
C25	C	0.760094	0.221246	0.000038
C26	C	0.767702	0.048550	0.000048
C27	C	1.068163	-0.042172	0.000068
C28	C	1.057921	-0.147411	0.000069
C29	C	1.039197	-0.340097	0.000053
C30	C	1.111836	-0.397635	0.000055
C31	C	1.101418	-0.504852	0.000046
C32	C	1.049614	-0.232870	0.000062
C33	C	1.239806	0.124433	0.000067
C34	C	1.340048	0.126435	0.000067
C35	C	1.082874	0.304446	0.000046
C36	C	1.093116	0.409685	0.000039
N37	N	1.075496	0.131132	0.237498
N38	N	1.075548	0.131135	-0.237381
C39	C	1.019413	0.195480	0.710112
C40	C	1.131672	0.066791	0.710097
C41	C	1.131662	0.066788	0.605078
C42	C	1.075527	0.131133	0.552572
C43	C	1.019403	0.195481	0.605084
C44	C	1.187792	0.002448	0.552558
C45	C	1.187785	0.002443	0.447534
C46	C	1.131644	0.066784	0.395025
C47	C	1.075517	0.131134	0.447544
C48	C	1.019382	0.195479	0.395038
C49	C	0.963249	0.259825	0.447555
C50	C	0.963262	0.259822	0.552576
C51	C	1.131631	0.066787	0.290004
C52	C	1.019372	0.195480	0.290010
H53	H	0.650251	0.375856	0.000020
H54	H	0.355691	-0.030044	0.000086
C55	C	0.852282	0.387019	0.542043
C56	C	0.901564	0.330545	0.610303
H57	H	0.814189	0.430675	0.577686
H58	H	0.892545	0.421196	0.501071
H59	H	0.816678	0.347484	0.501089
H60	H	0.937174	0.370080	0.651252
H61	H	0.861296	0.296366	0.651292
H62	H	0.973708	0.247867	0.752874
H63	H	0.969191	-0.371358	0.000046
C64	C	1.253276	-0.386022	-0.085689
C65	C	1.206353	-0.355439	0.000074
H66	H	1.311622	-0.359963	-0.085675
H67	H	1.258579	-0.453575	-0.085688
H68	H	1.221453	-0.365252	-0.143870
H69	H	1.238172	-0.376214	0.058256
H70	H	1.201054	-0.287871	0.000082
C71	C	0.908407	0.322688	0.300575
C72	C	0.957667	0.266214	0.232299
H73	H	0.870319	0.366359	0.264945
H74	H	0.872808	0.283161	0.341542
H75	H	0.948690	0.356856	0.341533
H76	H	0.917384	0.232040	0.191346
H77	H	0.993270	0.305746	0.191315
C78	C	1.171412	-0.097219	0.742443
C79	C	1.193365	-0.003940	0.767813
H80	H	1.209501	-0.140888	0.778075
H81	H	1.110416	-0.107612	0.759667
H82	H	1.179446	-0.106420	0.672379
H83	H	1.185325	0.005264	0.837876
H84	H	1.254375	0.006457	0.750595
H85	H	0.917548	0.312219	0.404792
H86	H	1.233500	-0.049936	0.595312
C87	C	0.777979	-0.114408	0.000060
C88	C	0.686169	-0.134501	0.000073
H89	H	0.812521	-0.172363	0.000069
H90	H	0.791841	-0.078628	-0.058126
H91	H	0.791842	-0.078617	0.058241
H92	H	0.672305	-0.170285	-0.058112
H93	H	0.672302	-0.170296	0.058266
H94	H	1.233490	-0.049952	0.404781
C95	C	0.861602	0.323544	0.085787
C96	C	0.807682	0.317187	0.000021
H97	H	0.890983	0.382776	0.085773
H98	H	0.825012	0.319229	0.143960
H99	H	0.905389	0.272944	0.085783
H100	H	0.763890	0.367783	0.000029
H101	H	0.844274	0.321512	-0.058167
C102	C	1.242601	-0.060410	0.300543
C103	C	1.193325	-0.003936	0.232278
H104	H	1.280685	-0.104077	0.264903
H105	H	1.278206	-0.020883	0.341488
H106	H	1.202327	-0.094582	0.341522
H107	H	1.233599	0.030242	0.191303
H108	H	1.157717	-0.043468	0.191315
H109	H	0.500776	-0.113569	0.000110
C110	C	0.273014	0.311786	-0.085714
C111	C	0.327399	0.307594	0.000053
H112	H	0.238470	0.369739	-0.085710
H113	H	0.309919	0.308941	-0.143887
H114	H	0.233759	0.259525	-0.085700
H115	H	0.366659	0.359852	0.000036
H116	H	0.290491	0.310448	0.058241
C117	C	0.410479	0.400945	-0.085725
C118	C	0.464873	0.396762	0.000034
H119	H	0.375930	0.458897	-0.085719
H120	H	0.447378	0.398101	-0.143903
H121	H	0.371227	0.348682	-0.085704
H122	H	0.504130	0.449022	0.000009
H123	H	0.427971	0.399616	0.058227
H124	H	0.809134	-0.021000	0.000054
