data_functionalizedCrystal
_audit_creation_method	'MofGen! by Chris Wilmer'
_symmetry_space_group_name_H-M	'P1'
_symmetry_Int_Tables_number	1
_symmetry_cell_setting	triclinic
loop_
_symmetry_equiv_pos_as_xyz
  x,y,z
_cell_length_a	19.077260
_cell_length_b	12.759401
_cell_length_c	12.759393
_cell_angle_alpha	90.020938
_cell_angle_beta	92.275656
_cell_angle_gamma	87.697816
loop_
_atom_site_label
_atom_site_type_symbol
_atom_site_fract_x
_atom_site_fract_y
_atom_site_fract_z
Zn1	Zn	0.280132	1.589566	0.610868
Zn2	Zn	0.397844	1.582440	0.442267
Zn3	Zn	0.280170	1.413863	0.435205
Zn4	Zn	0.397795	1.406842	0.617901
O5	O	0.338985	1.498178	0.526560
O6	O	0.295752	1.735642	0.588514
O7	O	0.382270	1.560033	0.294311
O8	O	0.181676	1.443091	0.452608
O9	O	0.382234	1.730406	0.464644
O10	O	0.181649	1.572179	0.581667
O11	O	0.295816	1.436180	0.289123
O12	O	0.295768	1.265911	0.459428
O13	O	0.382150	1.431125	0.763987
O14	O	0.382187	1.260753	0.593654
O15	O	0.295704	1.565372	0.758820
O16	O	0.496326	1.553226	0.471464
O17	O	0.496290	1.424215	0.600502
C18	C	0.338977	1.225211	0.526539
C19	C	0.338990	1.108433	0.526556
C20	C	0.384056	1.050909	0.596346
C21	C	0.384059	0.941185	0.596367
C22	C	0.293927	0.946519	0.456799
C23	C	0.293921	1.056241	0.456784
C24	C	0.155411	1.509213	0.515565
C25	C	0.077183	1.513915	0.510879
C26	C	0.040414	1.448954	0.575857
C27	C	-0.033090	1.453376	0.571456
C28	C	-0.069823	1.522754	0.502072
C29	C	-0.033050	1.587722	0.437091
C30	C	0.040453	1.583305	0.441498
C31	C	-0.289650	1.543171	0.481693
C32	C	-0.363158	1.547581	0.477288
C33	C	-0.363193	1.413235	0.611655
C34	C	-0.289689	1.408820	0.616052
C35	C	-0.252922	1.473792	0.551075
N36	N	-0.144956	1.527273	0.497569
N37	N	-0.177790	1.469278	0.555584
C38	C	0.521845	1.487214	0.537536
C39	C	0.600073	1.482620	0.542266
C40	C	0.338918	1.498260	0.800590
C41	C	0.338889	1.498296	0.917365
C42	C	0.338994	1.772210	0.526582
C43	C	0.338998	1.888987	0.526592
C44	C	0.339002	1.498159	0.253594
C45	C	0.338832	1.498339	0.136808
C46	C	0.293869	1.568203	0.969537
C47	C	0.293839	1.568223	1.079259
C48	C	0.383854	1.428424	1.084628
C49	C	0.383880	1.428400	0.974907
H50	H	0.070318	1.392460	0.632359
H51	H	0.257233	1.625114	0.922689
H52	H	0.420756	0.894353	0.653198
C53	C	-0.073451	1.664040	0.360769
H54	H	-0.041024	1.702103	0.322708
H55	H	-0.102113	1.625561	0.313270
H56	H	-0.102134	1.711555	0.399249
C57	C	0.244321	1.645126	1.136645
H58	H	0.217535	1.686752	1.086657
H59	H	0.213640	1.606795	1.177604
H60	H	0.271242	1.689294	1.181066
C61	C	0.244363	0.889104	0.380045
H62	H	0.250826	0.815518	0.390039
H63	H	0.197085	0.909923	0.392691
H64	H	0.254613	0.906440	0.310040
H65	H	-0.063026	1.400480	0.624367
C66	C	0.080899	1.654758	0.370018
H67	H	0.048495	1.696703	0.328057
H68	H	0.109563	1.698824	0.411929
H69	H	0.109582	1.612825	0.325954
H70	H	0.257218	1.103079	0.399952
H71	H	0.420486	1.371520	1.131492
H72	H	-0.259785	1.352313	0.672540
C73	C	-0.403638	1.341783	0.683133
H74	H	-0.452675	1.354353	0.670580
H75	H	-0.391590	1.270463	0.668480
H76	H	-0.391609	1.356468	0.754448
H77	H	-0.393063	1.604080	0.420783
H78	H	0.420540	1.371466	0.932427
C79	C	-0.249212	1.614603	0.410191
H80	H	-0.200175	1.602041	0.422748
H81	H	-0.261249	1.599906	0.338887
H82	H	-0.261255	1.685933	0.424833
C83	C	0.433623	1.108318	0.673101
H84	H	0.460458	1.058340	0.714674
H85	H	0.464256	1.149267	0.634674
H86	H	0.406729	1.152752	0.717327
