data_functionalizedCrystal
_audit_creation_method	'MofGen! by Chris Wilmer'
_symmetry_space_group_name_H-M	'P1'
_symmetry_Int_Tables_number	1
_symmetry_cell_setting	triclinic
loop_
_symmetry_equiv_pos_as_xyz
  x,y,z
_cell_length_a	19.288867
_cell_length_b	11.026607
_cell_length_c	18.366186
_cell_angle_alpha	89.996969
_cell_angle_beta	89.992441
_cell_angle_gamma	95.861543
loop_
_atom_site_label
_atom_site_type_symbol
_atom_site_fract_x
_atom_site_fract_y
_atom_site_fract_z
O1	O	0.940540	0.151291	-0.060522
O2	O	0.740867	0.171696	-0.060528
O3	O	0.824155	-0.015069	-0.060523
O4	O	0.857252	0.338056	-0.060527
O5	O	0.824135	-0.015079	0.060576
O6	O	0.740848	0.171687	0.060571
O7	O	0.940520	0.151282	0.060578
Zn8	Zn	0.840681	0.161483	0.079801
Zn9	Zn	0.840706	0.161495	-0.079752
O10	O	0.857233	0.338047	0.060572
C11	C	0.714898	0.171034	0.000020
C12	C	0.637544	0.169062	0.000018
C13	C	0.080188	0.154862	-0.065985
C14	C	0.152869	0.156708	-0.065988
C15	C	0.189205	0.157631	0.000023
C16	C	0.152852	0.156678	0.066042
C17	C	0.080171	0.154820	0.066043
C18	C	0.307906	0.231597	0.050596
C19	C	0.380586	0.233462	0.050592
C20	C	0.413377	0.163356	0.000024
C21	C	0.373480	0.091400	-0.050554
C22	C	0.300799	0.089543	-0.050553
C23	C	0.268015	0.159645	0.000030
C24	C	0.528531	0.166302	-0.065994
C25	C	0.601213	0.168141	-0.065994
C26	C	0.601195	0.168123	0.066038
C27	C	0.528513	0.166273	0.066036
C28	C	0.492186	0.165368	0.000018
C29	C	0.818039	-0.060252	0.000026
C30	C	0.799837	-0.194866	0.000022
C31	C	0.850096	-0.268946	0.000023
C32	C	0.831284	-0.408078	0.000020
C33	C	0.966490	0.151943	0.000027
C34	C	1.043843	0.153916	0.000025
C35	C	0.863348	0.383229	0.000022
C36	C	0.881550	0.517844	0.000020
N37	N	0.840669	0.161474	0.188693
N38	N	0.840723	0.161494	-0.188643
C39	C	0.877569	0.078815	0.226795
C40	C	0.877573	0.078809	0.303023
C41	C	0.840685	0.161484	0.341145
C42	C	0.803777	0.244149	0.303033
C43	C	0.803769	0.244144	0.226807
C44	C	0.845401	0.271978	0.461904
C45	C	0.845414	0.271984	0.538129
C46	C	0.840707	0.161499	0.576253
C47	C	0.836001	0.051002	0.538142
C48	C	0.835992	0.050997	0.461916
C49	C	0.840690	0.161498	0.423800
C50	C	0.877613	0.078827	0.697011
C51	C	0.877612	0.078820	0.773240
C52	C	0.803821	0.244171	0.773248
C53	C	0.803817	0.244167	0.697021
C54	C	0.840717	0.161497	0.658906
H55	H	0.050614	0.154121	-0.119742
O56	O	0.913472	-0.001323	0.340123
C57	C	0.964430	0.063445	0.384184
H58	H	0.948641	0.158459	0.395604
H59	H	1.016759	0.071464	0.354792
C60	C	0.990125	-0.121686	0.442568
C61	C	0.970730	-0.004991	0.456598
H62	H	0.994015	-0.163902	0.487235
H63	H	0.955796	-0.165323	0.412881
H64	H	1.033732	-0.114987	0.418072
H65	H	0.927121	-0.011691	0.481085
H66	H	1.005053	0.038643	0.486291
H67	H	0.281213	0.288680	0.091783
O68	O	0.763322	-0.455221	-0.000114
C69	C	0.730105	-0.415354	-0.062823
H70	H	0.770741	-0.389144	-0.106657
H71	H	0.701664	-0.332787	-0.048642
C72	C	0.627439	-0.550935	-0.037430
C73	C	0.677349	-0.518754	-0.091270
H74	H	0.594894	-0.614714	-0.054976
H75	H	0.649817	-0.577792	0.004820
H76	H	0.603745	-0.482121	-0.025617
H77	H	0.701047	-0.587563	-0.103075
H78	H	0.654974	-0.491911	-0.133523
O79	O	0.731879	-0.242015	-0.000111
C80	C	0.698662	-0.202148	-0.062820
H81	H	0.739298	-0.175938	-0.106654
H82	H	0.670220	-0.119581	-0.048639
C83	C	0.595996	-0.337730	-0.037427
C84	C	0.645905	-0.305548	-0.091267
H85	H	0.563451	-0.401508	-0.054973
H86	H	0.618373	-0.364586	0.004823
H87	H	0.572302	-0.268915	-0.025614
H88	H	0.669604	-0.374358	-0.103073
H89	H	0.623530	-0.278705	-0.133520
O90	O	0.850102	0.379285	0.575182
C91	C	0.910243	0.388816	0.619275
H92	H	0.949421	0.328169	0.596294
H93	H	0.895452	0.358464	0.677049
C94	C	0.894878	0.596635	0.648662
C95	C	0.942999	0.522156	0.620434
H96	H	0.915082	0.678886	0.649381
H97	H	0.854358	0.590214	0.618959
H98	H	0.882555	0.571328	0.696805
H99	H	0.955314	0.547454	0.572290
H100	H	0.983522	0.528585	0.650130
O101	O	0.850018	0.379422	0.424987
C102	C	0.854168	0.476945	0.474967
H103	H	0.874668	0.445614	0.529303
H104	H	0.800166	0.508241	0.483080
C105	C	0.878778	0.622001	0.378468
C106	C	0.903963	0.583523	0.445202
H107	H	0.909491	0.687746	0.360107
H108	H	0.875980	0.556299	0.344795
H109	H	0.833776	0.648073	0.385238
H110	H	0.948959	0.557438	0.438430
H111	H	0.906770	0.649223	0.478874
H112	H	0.498951	0.165562	-0.119750
O113	O	0.405214	0.023254	-0.099747
C114	C	0.354414	-0.040678	-0.144370
H115	H	0.305125	0.008237	-0.144285
H116	H	0.341848	-0.137230	-0.122573
C117	C	0.443020	-0.106242	-0.222776
C118	C	0.382483	-0.046157	-0.222677
H119	H	0.460334	-0.109628	-0.271079
H120	H	0.477245	-0.063174	-0.192712
H121	H	0.432539	-0.186696	-0.204609
H122	H	0.392966	0.034299	-0.240835
H123	H	0.348261	-0.089212	-0.252746
H124	H	0.832167	-0.038965	0.569181
O125	O	0.949527	-0.435099	0.000121
C126	C	0.982735	-0.474913	0.062850
H127	H	0.952910	-0.562598	0.083758
H128	H	0.983783	-0.401688	0.106769
C129	C	1.094517	-0.391173	0.018123
C130	C	1.057887	-0.498875	0.043799
H131	H	1.140875	-0.405949	0.006373
H132	H	1.072144	-0.364345	-0.024138
H133	H	1.095383	-0.330162	0.054726
H134	H	1.057014	-0.559878	0.007193
H135	H	1.080262	-0.525714	0.086053
H136	H	0.832158	-0.038973	0.430889
H137	H	0.773719	0.311456	0.195783
O138	O	0.419297	0.303212	0.099818
C139	C	0.399650	0.265531	0.170893
H140	H	0.374775	0.167230	0.169473
H141	H	0.360586	0.326921	0.193315
C142	C	0.495113	0.394964	0.221906
C143	C	0.464566	0.274226	0.220163
H144	H	0.535155	0.400332	0.252299
H145	H	0.508348	0.420355	0.174022
H146	H	0.462553	0.446108	0.240589
H147	H	0.497123	0.223086	0.201471
H148	H	0.451337	0.248826	0.268045
O149	O	0.913418	-0.001614	0.189885
C150	C	0.946002	-0.074554	0.239868
H151	H	0.917377	-0.075790	0.294213
H152	H	1.002492	-0.035403	0.247957
C153	C	0.979110	-0.203927	0.143383
C154	C	0.943949	-0.205454	0.210128
H155	H	0.977848	-0.284672	0.125037
H156	H	0.957161	-0.154785	0.109708
H157	H	1.026182	-0.171296	0.150133
H158	H	0.896877	-0.238070	0.203376
H159	H	0.965892	-0.254606	0.243802
O160	O	0.913461	-0.001601	0.660094
C161	C	0.946040	-0.074551	0.710075
H162	H	0.917412	-0.075793	0.764418
H163	H	1.002530	-0.035405	0.718169
C164	C	0.979151	-0.203912	0.613584
C165	C	0.943986	-0.205446	0.680328
H166	H	0.977887	-0.284654	0.595234
H167	H	0.957204	-0.154762	0.579910
H168	H	1.026223	-0.171285	0.620338
H169	H	0.896914	-0.238058	0.673571
H170	H	0.965925	-0.254605	0.714000
O171	O	0.636542	0.168845	-0.130101
C172	C	0.673334	0.064930	-0.134051
H173	H	0.647746	-0.009032	-0.096597
H174	H	0.729604	0.090068	-0.116313
C175	C	0.703504	0.108217	-0.258925
C176	C	0.672073	0.017370	-0.212927
H177	H	0.702729	0.078881	-0.307579
H178	H	0.678719	0.178229	-0.256263
H179	H	0.750393	0.129156	-0.244134
H180	H	0.625182	-0.003556	-0.227713
H181	H	0.696850	-0.052647	-0.215594
O182	O	0.913348	-0.001601	0.810287
C183	C	0.866831	-0.076242	0.854405
H184	H	0.811829	-0.078057	0.831446
H185	H	0.867940	-0.038274	0.912175
C186	C	0.956375	-0.204382	0.883771
C187	C	0.888821	-0.206620	0.855569
H188	H	0.969940	-0.284804	0.884492
H189	H	0.987716	-0.154093	0.854050
H190	H	0.957291	-0.172737	0.931910
H191	H	0.887909	-0.238251	0.807428
H192	H	0.857481	-0.256918	0.885282
H193	H	0.773783	0.311481	0.804287
H194	H	0.630779	0.168870	0.119785
O195	O	0.767893	0.324310	0.659969
C196	C	0.716957	0.259558	0.615875
H197	H	0.703825	0.163928	0.638854
H198	H	0.737885	0.253099	0.558101
C199	C	0.666912	0.444188	0.586488
C200	C	0.650780	0.326737	0.614715
H201	H	0.626092	0.485629	0.585769
H202	H	0.701231	0.487814	0.616193
H203	H	0.684354	0.438789	0.538346
H204	H	0.633347	0.332138	0.662859
H205	H	0.616457	0.283113	0.585018
O206	O	0.188080	0.157694	-0.130178
C207	C	0.140429	0.156468	-0.188445
H208	H	0.090536	0.193508	-0.169090
H209	H	0.127836	0.059013	-0.208758
C210	C	0.234067	0.191248	-0.274572
C211	C	0.172789	0.236751	-0.250801
H212	H	0.254028	0.240765	-0.313038
H213	H	0.266171	0.192070	-0.235317
H214	H	0.223564	0.110036	-0.291494
H215	H	0.183294	0.317955	-0.233871
H216	H	0.140688	0.235945	-0.290055
O217	O	0.261962	0.019566	-0.099577
C218	C	0.215686	-0.066218	-0.062285
H219	H	0.206544	-0.031639	-0.004937
H220	H	0.239116	-0.156887	-0.059013
C221	C	0.157067	-0.126623	-0.173871
C222	C	0.145833	-0.084149	-0.103437
H223	H	0.113979	-0.137690	-0.199256
H224	H	0.188245	-0.068833	-0.198996
H225	H	0.176593	-0.202177	-0.171135
H226	H	0.126315	-0.008590	-0.106174
H227	H	0.114649	-0.141927	-0.078313
H228	H	0.773741	0.311462	0.334076
H229	H	0.498922	0.165506	0.119788
H230	H	0.050580	0.154054	0.119798
O231	O	0.188214	0.157417	0.130119
C232	C	0.224982	0.053474	0.134074
H233	H	0.234124	0.018757	0.076757
H234	H	0.193286	-0.020777	0.166649
C235	C	0.284387	0.129773	0.242211
C236	C	0.295620	0.087139	0.171814
H237	H	0.327959	0.150536	0.265494
H238	H	0.259614	0.199799	0.239549
H239	H	0.257971	0.067890	0.269348
H240	H	0.322028	0.149027	0.144676
H241	H	0.320400	0.017123	0.174472
O242	O	0.918008	-0.221537	0.000059
C243	C	0.921672	-0.093175	0.000041
H244	H	0.871184	-0.063303	0.022966
H245	H	0.929421	-0.057963	-0.058056
C246	C	1.045414	-0.077566	0.019379
C247	C	0.983407	-0.040877	0.047541
H248	H	1.083497	-0.045304	0.048676
H249	H	1.042947	-0.164046	0.019388
H250	H	1.051863	-0.048220	-0.029034
H251	H	0.976955	-0.070236	0.095950
H252	H	0.985874	0.045600	0.047541
