data_functionalizedCrystal
_audit_creation_method	'MofGen! by Chris Wilmer'
_symmetry_space_group_name_H-M	'P1'
_symmetry_Int_Tables_number	1
_symmetry_cell_setting	triclinic
loop_
_symmetry_equiv_pos_as_xyz
  x,y,z
_cell_length_a	12.827892
_cell_length_b	12.594517
_cell_length_c	12.827885
_cell_angle_alpha	89.972568
_cell_angle_beta	90.029786
_cell_angle_gamma	89.989553
loop_
_atom_site_label
_atom_site_type_symbol
_atom_site_fract_x
_atom_site_fract_y
_atom_site_fract_z
Zn1	Zn	-0.416120	-1.627274	0.591076
Zn2	Zn	-0.590898	-1.627167	0.416336
Zn3	Zn	-0.416156	-1.449278	0.416325
Zn4	Zn	-0.590805	-1.449263	0.591012
O5	O	-0.503495	-1.538245	0.503687
O6	O	-0.439329	-1.776206	0.567928
O7	O	-0.567772	-1.603530	0.270099
O8	O	-0.269915	-1.472941	0.439528
O9	O	-0.567737	-1.776127	0.439548
O10	O	-0.269889	-1.603714	0.567917
O11	O	-0.439390	-1.472836	0.270090
O12	O	-0.439300	-1.300330	0.439466
O13	O	-0.567579	-1.472915	0.737256
O14	O	-0.567614	-1.300319	0.567807
O15	O	-0.439239	-1.603700	0.737304
O16	O	-0.737121	-1.603516	0.439485
O17	O	-0.737053	-1.472811	0.567818
C18	C	-0.503451	-1.261704	0.503629
C19	C	-0.503458	-1.143399	0.503628
C20	C	-0.433581	-1.003357	0.433971
C21	C	-0.408122	-1.074216	0.529336
C22	C	-0.528870	-1.074112	0.408274
C23	C	-0.477975	-1.003472	0.599102
C24	C	-0.598767	-1.003362	0.477976
C25	C	-0.573344	-1.074188	0.573407
C26	C	-0.775005	-1.538179	0.503669
C27	C	-0.891158	-1.538248	0.503696
C28	C	-0.942942	-1.603002	0.440263
C29	C	-1.062992	-1.603074	0.440290
C30	C	-0.230925	-1.538341	0.503729
C31	C	-0.114771	-1.538382	0.503746
C32	C	-0.503394	-1.538318	0.776258
C33	C	-0.503352	-1.538349	0.892411
C34	C	-0.503520	-0.815866	0.503725
C35	C	-0.503483	-0.934172	0.503687
C36	C	-0.503519	-1.538234	0.232177
C37	C	-0.503268	-1.538410	0.116025
C38	C	-0.439832	-1.603072	0.944219
C39	C	-0.439787	-1.603105	1.064269
H40	H	-0.679335	-0.972216	0.456219
C41	C	-0.653199	-1.115929	0.653108
N42	N	-0.713344	-1.147364	0.713141
C43	C	-0.882771	-1.677825	0.366866
N44	N	-0.837453	-1.734183	0.311580
H45	H	-0.385409	-1.658521	1.108823
C46	C	-0.353676	-0.961333	0.354462
N47	N	-0.293489	-0.929678	0.294582
H48	H	-0.557692	-1.482954	0.936933
C49	C	-1.123151	-1.677969	0.366918
N50	N	-1.168465	-1.734383	0.311652
C51	C	-0.299248	-1.116266	0.558689
N52	N	-0.217243	-1.147935	0.580791
H53	H	-0.456397	-0.972571	0.679790
C54	C	-1.054619	-1.463482	0.577119
N55	N	-1.009305	-1.407068	0.632385
C56	C	-0.366406	-1.677898	0.884077
N57	N	-0.311099	-1.734259	0.838779
H58	H	-0.550353	-1.105145	0.327609
H59	H	-0.935700	-1.482868	0.558027
C60	C	-0.576739	-1.463544	1.055845
N61	N	-0.632076	-1.407153	1.010509
