data_functionalizedCrystal
_audit_creation_method	'MofGen! by Chris Wilmer'
_symmetry_space_group_name_H-M	'P1'
_symmetry_Int_Tables_number	1
_symmetry_cell_setting	triclinic
loop_
_symmetry_equiv_pos_as_xyz
  x,y,z
_cell_length_a	10.908891
_cell_length_b	10.268362
_cell_length_c	11.026607
_cell_angle_alpha	90.003050
_cell_angle_beta	95.664947
_cell_angle_gamma	89.994991
loop_
_atom_site_label
_atom_site_type_symbol
_atom_site_fract_x
_atom_site_fract_y
_atom_site_fract_z
O1	O	-1.662458	0.108290	-0.179085
O2	O	-1.162458	0.608290	0.320915
O3	O	-1.309524	0.108294	-0.088542
O4	O	-0.809524	0.608294	0.411458
O5	O	-1.456740	0.108288	-0.304563
O6	O	-0.956740	0.608288	0.195437
O7	O	-1.515242	0.108296	0.036936
O8	O	-1.015242	0.608296	0.536936
O9	O	-1.456722	-0.108313	-0.304567
O10	O	-0.956722	0.391687	0.195433
O11	O	-1.309506	-0.108307	-0.088546
O12	O	-0.809506	0.391693	0.411454
O13	O	-1.662440	-0.108310	-0.179089
O14	O	-1.162440	0.391690	0.320911
Cu15	Cu	-1.485971	-0.128086	-0.133818
Cu16	Cu	-0.985971	0.371914	0.366182
Cu17	Cu	-1.485993	0.128069	-0.133813
Cu18	Cu	-0.985993	0.628069	0.366187
O19	O	-1.515224	-0.108304	0.036932
O20	O	-1.015224	0.391696	0.536932
C21	C	-1.263629	-0.000006	-0.080083
C22	C	-0.763629	0.499994	0.419917
C23	C	-1.126902	-0.000005	-0.054883
C24	C	-0.626902	0.499995	0.445117
N25	N	-1.485965	-0.308252	-0.133824
N26	N	-0.985965	0.191748	0.366176
C27	C	-1.056639	-0.000007	-0.146827
C28	C	-0.556639	0.499993	0.353173
C29	C	-0.915324	-0.000005	-0.120785
C30	C	-0.415324	0.499995	0.379215
C31	C	-1.485986	-0.573922	-0.133814
C32	C	-0.985986	-0.073922	0.366186
C33	C	-1.485971	-0.426085	-0.133815
C34	C	-0.985971	0.073915	0.366185
C35	C	-0.708335	-0.000009	-0.187547
C36	C	-0.208335	0.499991	0.312453
C37	C	-0.845063	-0.000007	-0.212742
C38	C	-0.345063	0.499993	0.287258
C39	C	-1.445939	-0.000011	-0.347598
C40	C	-0.945939	0.499989	0.152402
C41	C	-1.413766	-0.000006	-0.475819
C42	C	-0.913766	0.499994	0.024181
N43	N	-1.486006	0.308235	-0.133819
N44	N	-0.986006	0.808235	0.366181
C45	C	-1.502601	-0.000005	-0.567553
C46	C	-1.002601	0.499995	-0.067553
C47	C	-1.469350	-0.000000	-0.700077
C48	C	-0.969350	0.500000	-0.200077
C49	C	-1.526025	-0.000003	0.079967
C50	C	-1.026025	0.499997	0.579967
C51	C	-1.558198	0.000001	0.208188
C52	C	-1.058198	0.500001	0.708188
H53	H	-1.101104	-0.000003	-0.244824
H54	H	-0.601104	0.499997	0.255176
H55	H	-1.658876	0.000098	-0.772246
H56	H	-1.158876	0.500098	-0.272246
F57	F	-1.282179	0.000007	-0.501398
F58	F	-0.782179	0.500007	-0.001398
H59	H	-0.870863	0.000003	-0.022782
H60	H	-0.370863	0.500003	0.477218
F61	F	-0.903168	0.000003	-0.340841
F62	F	-0.403168	0.500003	0.159159
H63	H	-1.082436	0.000003	0.043113
H64	H	-0.582436	0.500003	0.543113
F65	F	-1.634187	0.000001	-0.541975
F66	F	-1.134187	0.500001	-0.041975
H67	H	-1.368673	0.000010	-0.719645
H68	H	-0.868673	0.500010	-0.219645
