data_functionalizedCrystal
_audit_creation_method	'MofGen! by Chris Wilmer'
_symmetry_space_group_name_H-M	'P1'
_symmetry_Int_Tables_number	1
_symmetry_cell_setting	triclinic
loop_
_symmetry_equiv_pos_as_xyz
  x,y,z
_cell_length_a	16.120490
_cell_length_b	16.120444
_cell_length_c	10.686551
_cell_angle_alpha	91.291368
_cell_angle_beta	97.502252
_cell_angle_gamma	90.165174
loop_
_atom_site_label
_atom_site_type_symbol
_atom_site_fract_x
_atom_site_fract_y
_atom_site_fract_z
Zn1	Zn	1.299161	-0.355281	0.840282
Zn2	Zn	1.549161	-0.105281	1.090282
Zn3	Zn	1.799161	0.144719	1.340282
Zn4	Zn	2.049161	0.394719	1.590282
Zn5	Zn	1.281312	-0.504003	0.639306
Zn6	Zn	1.531312	-0.254003	0.889306
Zn7	Zn	1.781312	-0.004003	1.139306
Zn8	Zn	2.031312	0.245997	1.389306
Zn9	Zn	1.148278	-0.358926	0.618009
Zn10	Zn	1.398278	-0.108926	0.868009
Zn11	Zn	1.648278	0.141074	1.118009
Zn12	Zn	1.898278	0.391074	1.368009
Zn13	Zn	1.152949	-0.487282	0.839134
Zn14	Zn	1.402949	-0.237282	1.089134
Zn15	Zn	1.652949	0.012718	1.339134
Zn16	Zn	1.902949	0.262718	1.589134
O17	O	1.220425	-0.426373	0.734183
O18	O	1.470425	-0.176373	0.984183
O19	O	1.720425	0.073627	1.234183
O20	O	1.970425	0.323627	1.484183
O21	O	1.413658	-0.380482	0.823015
O22	O	1.663658	-0.130482	1.073015
O23	O	1.913658	0.119518	1.323015
O24	O	2.163658	0.369518	1.573015
O25	O	1.254240	-0.493281	0.459830
O26	O	1.504240	-0.243281	0.709830
O27	O	1.754240	0.006719	0.959830
O28	O	2.004240	0.256719	1.209830
O29	O	1.173808	-0.242485	0.639061
O30	O	1.423808	0.007515	0.889061
O31	O	1.673808	0.257515	1.139061
O32	O	1.923808	0.507515	1.389061
O33	O	1.400545	-0.489747	0.675359
O34	O	1.650545	-0.239747	0.925359
O35	O	1.900545	0.010253	1.175359
O36	O	2.150545	0.260253	1.425359
O37	O	1.284661	-0.239807	0.802364
O38	O	1.534661	0.010193	1.052364
O39	O	1.784661	0.260193	1.302364
O40	O	2.034661	0.510193	1.552364
O41	O	1.156501	-0.386694	0.444183
O42	O	1.406501	-0.136694	0.694183
O43	O	1.656501	0.113306	0.944183
O44	O	1.906501	0.363306	1.194183
O45	O	1.032033	-0.370481	0.637948
O46	O	1.282033	-0.120481	0.887948
O47	O	1.532033	0.129519	1.137948
O48	O	1.782033	0.379519	1.387948
O49	O	1.181769	-0.461249	1.015937
O50	O	1.431769	-0.211249	1.265937
O51	O	1.681769	0.038751	1.515937
O52	O	1.931769	0.288751	1.765937
O53	O	1.035465	-0.464783	0.800408
O54	O	1.285465	-0.214783	1.050408
O55	O	1.535465	0.035217	1.300408
O56	O	1.785465	0.285217	1.550408
O57	O	1.289190	-0.364268	1.016780
O58	O	1.539190	-0.114268	1.266780
O59	O	1.789190	0.135732	1.516780
O60	O	2.039190	0.385732	1.766780
O61	O	1.258770	-0.617743	0.674246
O62	O	1.508770	-0.367743	0.924246
O63	O	1.758770	-0.117743	1.174246
O64	O	2.008770	0.132257	1.424246
O65	O	1.164462	-0.605458	0.821059
O66	O	1.414462	-0.355458	1.071059
O67	O	1.664462	-0.105458	1.321059
O68	O	1.914462	0.144542	1.571059
C69	C	1.003447	-0.416213	0.716743
C70	C	1.253447	-0.166213	0.966743
C71	C	1.503447	0.083787	1.216743
C72	C	1.753447	0.333787	1.466743
C73	C	0.910623	-0.411886	0.709314
C74	C	1.160623	-0.161886	0.959314
C75	C	1.410623	0.088114	1.209314
C76	C	1.660623	0.338114	1.459314
C77	C	0.701025	-0.448816	0.772721
C78	C	0.951025	-0.198816	1.022721
C79	C	1.201025	0.051184	1.272721
C80	C	1.451025	0.301184	1.522721
C81	C	0.740678	-0.403992	0.695749
C82	C	0.990678	-0.153992	0.945749
C83	C	1.240678	0.096008	1.195749
C84	C	1.490678	0.346008	1.445749
C85	C	0.835245	-0.408385	0.703299
C86	C	1.085245	-0.158385	0.953299
C87	C	1.335245	0.091615	1.203299
C88	C	1.585245	0.341615	1.453299
C89	C	0.606451	-0.444423	0.765172
C90	C	0.856451	-0.194423	1.015172
C91	C	1.106451	0.055577	1.265172
C92	C	1.356451	0.305577	1.515172
C93	C	1.210210	-0.641667	0.749868
C94	C	1.460210	-0.391667	0.999868
C95	C	1.710210	-0.141667	1.249868
C96	C	1.960210	0.108333	1.499868
C97	C	1.205919	-0.733772	0.756627
C98	C	1.455919	-0.483772	1.006627
C99	C	1.705919	-0.233772	1.256627
C100	C	1.955919	0.016228	1.506627
C101	C	1.242906	-0.949498	0.699409
C102	C	1.492906	-0.699498	0.949409
C103	C	1.742906	-0.449498	1.199409
C104	C	1.992906	-0.199498	1.449409
C105	C	1.198100	-0.902404	0.768981
C106	C	1.448100	-0.652404	1.018981
C107	C	1.698100	-0.402404	1.268981
C108	C	1.948100	-0.152404	1.518981
C109	C	1.202452	-0.808568	0.762105
C110	C	1.452452	-0.558568	1.012105
C111	C	1.702452	-0.308568	1.262105
C112	C	1.952452	-0.058568	1.512105
C113	C	1.238555	-1.043342	0.706284
C114	C	1.488555	-0.793342	0.956284
C115	C	1.738555	-0.543342	1.206284
C116	C	1.988555	-0.293342	1.456284
C117	C	1.438251	-0.436573	0.751691
C118	C	1.688251	-0.186573	1.001691
C119	C	1.938251	0.063427	1.251691
C120	C	2.188251	0.313427	1.501691
C121	C	1.531075	-0.440920	0.759152
C122	C	1.781075	-0.190920	1.009152
C123	C	2.031075	0.059080	1.259152
C124	C	2.281075	0.309080	1.509152
C125	C	1.237992	-0.410487	1.063443
C126	C	1.487992	-0.160487	1.313443
C127	C	1.737992	0.089513	1.563443
C128	C	1.987992	0.339513	1.813443
C129	C	1.245478	-0.403717	1.203754
C130	C	1.495478	-0.153717	1.453754
C131	C	1.745478	0.096283	1.703754
C132	C	1.995478	0.346283	1.953754
C133	C	1.230704	-0.210239	0.718465
C134	C	1.480704	0.039761	0.968465
C135	C	1.730704	0.289761	1.218465
C136	C	1.980704	0.539761	1.468465
C137	C	1.235085	-0.118135	0.711767
C138	C	1.485085	0.131865	0.961767
C139	C	1.735085	0.381865	1.211767
C140	C	1.985085	0.631865	1.461767
C141	C	1.202977	-0.442140	0.406202
C142	C	1.452977	-0.192140	0.656202
C143	C	1.702977	0.057860	0.906202
C144	C	1.952977	0.307860	1.156202
C145	C	1.195664	-0.448684	0.265888
C146	C	1.445664	-0.198684	0.515888
C147	C	1.695664	0.051316	0.765888
C148	C	1.945664	0.301316	1.015888
H149	H	0.703605	-0.362317	0.624182
H150	H	0.953605	-0.112317	0.874182
H151	H	1.203605	0.137683	1.124182
H152	H	1.453605	0.387683	1.374182
C153	C	1.299130	-0.908768	0.611964
C154	C	1.549130	-0.658768	0.861964
C155	C	1.799130	-0.408768	1.111964
C156	C	2.049130	-0.158768	1.361964
H157	H	1.294705	-0.850129	0.618750
H158	H	1.544705	-0.600129	0.868750
H159	H	1.794705	-0.350129	1.118750
H160	H	2.044705	-0.100129	1.368750
H161	H	1.355584	-0.924569	0.636013
H162	H	1.605584	-0.674569	0.886013
H163	H	1.855584	-0.424569	1.136013
H164	H	2.105584	-0.174569	1.386013
H165	H	1.281771	-0.926462	0.527168
H166	H	1.531771	-0.676462	0.777168
H167	H	1.781771	-0.426462	1.027168
H168	H	2.031771	-0.176462	1.277168
C169	C	1.141857	-0.943130	0.856415
C170	C	1.391857	-0.693130	1.106415
C171	C	1.641857	-0.443130	1.356415
C172	C	1.891857	-0.193130	1.606415
H173	H	1.114319	-0.901240	0.899166
H174	H	1.364319	-0.651240	1.149166
H175	H	1.614319	-0.401240	1.399166
H176	H	1.864319	-0.151240	1.649166
H177	H	1.101383	-0.977579	0.807583
H178	H	1.351383	-0.727579	1.057583
H179	H	1.601383	-0.477579	1.307583
H180	H	1.851383	-0.227579	1.557583
H181	H	1.175179	-0.975689	0.916454
H182	H	1.425179	-0.725689	1.166454
H183	H	1.675179	-0.475689	1.416454
H184	H	1.925179	-0.225689	1.666454
H185	H	0.738096	-0.490488	0.844281
H186	H	0.988096	-0.240488	1.094281
H187	H	1.238096	0.009512	1.344281
H188	H	1.488096	0.259512	1.594281
H189	H	1.147292	-0.492365	1.211741
H190	H	1.397292	-0.242365	1.461741
H191	H	1.647292	0.007635	1.711741
H192	H	1.897292	0.257635	1.961741
C193	C	1.310837	-0.344712	1.276901
C194	C	1.560837	-0.094712	1.526901
C195	C	1.810837	0.155288	1.776901
C196	C	2.060837	0.405288	2.026901
H197	H	1.307464	-0.347745	1.364774
H198	H	1.557464	-0.097745	1.614774
H199	H	1.807464	0.152255	1.864774
H200	H	2.057464	0.402255	2.114774
H201	H	1.365233	-0.360495	1.260740
H202	H	1.615233	-0.110495	1.510740
H203	H	1.865233	0.139505	1.760740
H204	H	2.115233	0.389505	2.010740
H205	H	1.300122	-0.289487	1.250326
H206	H	1.550122	-0.039487	1.500326
H207	H	1.800122	0.210513	1.750326
H208	H	2.050122	0.460513	2.000326
