data_functionalizedCrystal
_audit_creation_method	'MofGen! by Chris Wilmer'
_symmetry_space_group_name_H-M	'P1'
_symmetry_Int_Tables_number	1
_symmetry_cell_setting	triclinic
loop_
_symmetry_equiv_pos_as_xyz
  x,y,z
_cell_length_a	17.699083
_cell_length_b	17.699083
_cell_length_c	9.730223
_cell_angle_alpha	89.997786
_cell_angle_beta	90.005831
_cell_angle_gamma	83.283015
loop_
_atom_site_label
_atom_site_type_symbol
_atom_site_fract_x
_atom_site_fract_y
_atom_site_fract_z
O1	O	1.004071	0.095708	-0.114100
O2	O	0.783693	0.108160	-0.114145
O3	O	0.900109	-0.008255	-0.114109
O4	O	0.887656	0.212123	-0.114136
O5	O	0.900107	-0.008252	0.114471
O6	O	0.783692	0.108163	0.114435
O7	O	1.004070	0.095711	0.114480
Zn8	Zn	0.893881	0.101938	0.150749
Zn9	Zn	0.893882	0.101934	-0.150415
O10	O	0.887655	0.212126	0.114444
C11	C	0.755495	0.107716	0.000139
C12	C	0.671477	0.106377	0.000122
C13	C	0.899662	-0.036451	0.000181
C14	C	0.898323	-0.120469	0.000181
C15	C	0.966656	-0.169090	0.000197
C16	C	0.965394	-0.248033	0.000185
C17	C	0.895798	-0.278354	0.000166
C18	C	0.827459	-0.229727	0.000146
C19	C	0.828722	-0.150785	0.000149
C20	C	0.822364	-0.548090	0.000134
C21	C	0.821106	-0.627038	0.000135
C22	C	0.959036	-0.645338	0.000170
C23	C	0.960299	-0.566396	0.000173
C24	C	0.891961	-0.517776	0.000145
C25	C	0.893330	-0.432177	0.000156
C26	C	0.894427	-0.363951	0.000165
C27	C	0.622856	0.174710	0.000114
C28	C	0.543913	0.173448	0.000132
C29	C	0.513592	0.103852	0.000148
C30	C	0.562219	0.035513	0.000160
C31	C	0.641161	0.036776	0.000152
C32	C	0.243856	0.030418	0.000195
C33	C	0.164908	0.029160	0.000199
C34	C	0.146608	0.167090	0.000175
C35	C	0.225550	0.168353	0.000167
C36	C	0.274170	0.100015	0.000186
C37	C	0.359769	0.101384	0.000169
C38	C	0.427995	0.102481	0.000155
C39	C	1.032268	0.096156	0.000193
C40	C	1.116286	0.097494	0.000201
C41	C	0.888102	0.240322	0.000151
C42	C	0.889440	0.324340	0.000142
N43	N	0.893885	0.101940	0.356286
N44	N	0.893884	0.101926	-0.355951
C45	C	0.945447	0.050408	0.428228
C46	C	0.945445	0.050399	0.572111
C47	C	0.842317	0.153459	0.572097
C48	C	0.842316	0.153464	0.428217
C49	C	1.004989	-0.009091	0.428237
C50	C	1.004987	-0.009100	0.572120
H51	H	1.023330	-0.144409	0.000221
H52	H	1.059751	0.008765	0.383620
H53	H	0.987177	-0.063885	0.616738
O54	O	1.074242	0.005505	0.618804
C55	C	1.185174	-0.039455	0.752191
C56	C	1.106769	-0.056099	0.699386
H57	H	1.211488	-0.089244	0.817376
H58	H	1.223916	-0.031246	0.661137
H59	H	1.178134	0.014482	0.817235
H60	H	1.113737	-0.110042	0.634365
H61	H	1.068055	-0.064261	0.790501
H62	H	0.140225	-0.027517	0.000214
H63	H	0.504328	0.229092	0.000124
H64	H	0.680748	-0.018868	0.000158
H65	H	1.021038	-0.287618	0.000201
H66	H	0.800324	0.195419	0.369643
H67	H	0.537526	-0.021154	0.000193
O68	O	1.027971	-0.537069	0.000129
C69	C	1.164651	-0.563555	0.000233
C70	C	1.088065	-0.596867	0.000258
H71	H	1.213257	-0.611885	0.000367
H72	H	1.168740	-0.527079	-0.095449
H73	H	1.168649	-0.527030	0.095872
H74	H	1.084015	-0.633426	-0.095316
H75	H	1.084008	-0.633299	0.096003
H76	H	0.250232	0.225025	0.000147
O77	O	0.291153	-0.035915	0.000013
C78	C	0.390852	-0.114573	-0.118457
C79	C	0.337342	-0.039410	-0.118401
H80	H	0.428198	-0.117430	-0.214199
H81	H	0.428329	-0.117448	-0.022865
H82	H	0.355598	-0.164514	-0.118386
H83	H	0.372535	0.010573	-0.118520
H84	H	0.299862	-0.036601	-0.213984
O85	O	0.990162	-0.078302	0.381712
C86	C	0.901725	-0.171959	0.377407
C87	C	0.918415	-0.093561	0.430157
H88	H	0.843725	-0.184328	0.416576
H89	H	0.901667	-0.171990	0.260242
H90	H	0.947463	-0.217626	0.416430
H91	H	0.872695	-0.047850	0.391234
H92	H	0.918500	-0.093595	0.547320
O93	O	0.753430	-0.656366	0.000045
C94	C	0.616749	-0.629888	0.000067
C95	C	0.693333	-0.596572	0.000136
H96	H	0.568141	-0.581561	0.000170
H97	H	0.612668	-0.666362	-0.095617
H98	H	0.612747	-0.666417	0.095704
H99	H	0.697387	-0.560009	-0.095436
H100	H	0.697381	-0.560142	0.095883
H101	H	1.014680	-0.684934	0.000185
H102	H	0.770792	-0.254420	0.000122
O103	O	0.756001	-0.500839	-0.000127
C104	C	0.677384	-0.401065	-0.118529
C105	C	0.752564	-0.454548	-0.118420
H106	H	0.674587	-0.363614	-0.214143
H107	H	0.627401	-0.436265	-0.118625
H108	H	0.674530	-0.363684	-0.022827
H109	H	0.755492	-0.491940	-0.214105
H110	H	0.802512	-0.419302	-0.118252
H111	H	0.773078	-0.111198	0.000135
H112	H	0.647537	0.231384	0.000100
O113	O	0.792153	0.203537	0.641760
C114	C	0.689892	0.305788	0.626559
C115	C	0.746651	0.249103	0.547499
H116	H	0.653100	0.342653	0.550383
H117	H	0.652095	0.273189	0.693867
H118	H	0.722505	0.343522	0.693972
H119	H	0.714100	0.211354	0.480011
H120	H	0.784448	0.281749	0.480278
H121	H	0.107012	0.222734	0.000166
