data_functionalizedCrystal
_audit_creation_method	'MofGen! by Chris Wilmer'
_symmetry_space_group_name_H-M	'P1'
_symmetry_Int_Tables_number	1
_symmetry_cell_setting	triclinic
loop_
_symmetry_equiv_pos_as_xyz
  x,y,z
_cell_length_a	14.908792
_cell_length_b	14.908326
_cell_length_c	14.908858
_cell_angle_alpha	83.191103
_cell_angle_beta	90.165374
_cell_angle_gamma	96.408582
loop_
_atom_site_label
_atom_site_type_symbol
_atom_site_fract_x
_atom_site_fract_y
_atom_site_fract_z
Zn1	Zn	-1.331795	0.249410	0.572688
Zn2	Zn	-0.831795	0.749410	1.072688
Zn3	Zn	-1.331674	0.409548	0.412570
Zn4	Zn	-0.831674	0.909548	0.912570
Zn5	Zn	-1.189152	0.266903	0.412586
Zn6	Zn	-0.689152	0.766903	0.912586
Zn7	Zn	-1.172656	0.410476	0.554134
Zn8	Zn	-0.672656	0.910476	1.054134
O9	O	-1.256319	0.334084	0.487995
O10	O	-0.756319	0.834084	0.987995
O11	O	-1.458025	0.262943	0.559206
O12	O	-0.958025	0.762943	1.059206
O13	O	-1.319622	0.397558	0.286323
O14	O	-0.819622	0.897558	0.786323
O15	O	-1.215028	0.137479	0.441596
O16	O	-0.715028	0.637479	0.941596
O17	O	-1.457937	0.380596	0.441568
O18	O	-0.957937	0.880596	0.941568
O19	O	-1.319827	0.124627	0.559222
O20	O	-0.819827	0.624627	1.059222
O21	O	-1.214911	0.292757	0.286335
O22	O	-0.714911	0.792757	0.786335
O23	O	-1.060717	0.293658	0.423605
O24	O	-0.560717	0.793658	0.923605
O25	O	-1.186913	0.382178	0.682844
O26	O	-0.686913	0.882178	1.182844
O27	O	-1.048598	0.399140	0.527600
O28	O	-0.548598	0.899140	1.027600
O29	O	-1.303831	0.263844	0.696476
O30	O	-0.803831	0.763844	1.196476
O31	O	-1.303626	0.536775	0.423577
O32	O	-0.803626	1.036775	0.923577
O33	O	-1.186796	0.537457	0.527584
O34	O	-0.686796	1.037457	1.027584
C35	C	-1.021923	0.348398	0.473591
C36	C	-0.521923	0.848398	0.973591
C37	C	-0.921645	0.354543	0.467449
C38	C	-0.421645	0.854543	0.967449
C39	C	-0.780274	0.424366	0.397462
C40	C	-0.280274	0.924366	0.897462
C41	C	-0.874494	0.418597	0.403232
C42	C	-0.374494	0.918597	0.903232
C43	C	-0.874571	0.296252	0.525899
C44	C	-0.374571	0.796252	1.025899
C45	C	-0.780351	0.302022	0.520129
C46	C	-0.280351	0.802022	1.020129
C47	C	-0.733206	0.366082	0.455909
C48	C	-0.233206	0.866082	0.955909
C49	C	-0.638983	0.371855	0.450144
C50	C	-0.138983	0.871855	0.950144
C51	C	-0.639063	0.249506	0.572806
C52	C	-0.139063	0.749506	1.072806
C53	C	-0.733283	0.243737	0.578576
C54	C	-0.233283	0.743737	1.078576
C55	C	-1.243432	0.570070	0.473587
C56	C	-0.743432	1.070070	0.973587
C57	C	-1.237999	0.671019	0.467458
C58	C	-0.737999	1.171019	0.967458
C59	C	-0.491631	0.319708	0.502449
C60	C	0.008369	0.819708	1.002449
C61	C	-0.591909	0.313564	0.508593
C62	C	-0.091909	0.813564	1.008593
C63	C	-1.336824	0.847179	0.578544
C64	C	-0.836824	1.347179	1.078544
C65	C	-1.331723	0.942029	0.572789
C66	C	-0.831723	1.442029	1.072789
C67	C	-1.222691	0.955571	0.450198
C68	C	-0.722691	1.455571	0.950198
C69	C	-1.227792	0.860721	0.455953
C70	C	-0.727792	1.360721	0.955953
C71	C	-1.284862	0.806528	0.520127
C72	C	-0.784862	1.306528	1.020127
C73	C	-1.289967	0.711676	0.525878
C74	C	-0.789967	1.211676	1.025878
C75	C	-1.180931	0.725220	0.403291
C76	C	-0.680931	1.225220	0.903291
C77	C	-1.175830	0.820070	0.397536
C78	C	-0.675830	1.320070	0.897536
C79	C	-1.243545	0.321163	0.723310
C80	C	-0.743545	0.821163	1.223310
C81	C	-1.238102	0.315657	0.823587
C82	C	-0.738102	0.815657	1.323587
C83	C	-1.269244	1.097177	0.502471
C84	C	-0.769244	1.597177	1.002471
C85	C	-1.274659	0.996228	0.508617
C86	C	-0.774659	1.496228	1.008617
C87	C	-1.269099	0.346886	0.253602
C88	C	-0.769099	0.846886	0.753602
C89	C	-1.274731	0.352126	0.153351
C90	C	-0.774731	0.852126	0.653351
C91	C	-1.175919	0.253334	0.964929
C92	C	-0.675919	0.753334	1.464929
C93	C	-1.181030	0.258506	0.870710
C94	C	-0.681030	0.758506	1.370710
C95	C	-1.290069	0.367637	0.870691
C96	C	-0.790069	0.867637	1.370691
C97	C	-1.284957	0.362465	0.964911
C98	C	-0.784957	0.862465	1.464911
C99	C	-1.227880	0.305312	1.012027
C100	C	-0.727880	0.805312	1.512027
C101	C	-1.222764	0.300146	1.106247
C102	C	-0.722764	0.800146	1.606247
C103	C	-1.331807	0.409271	1.106228
C104	C	-0.831807	0.909271	1.606228
C105	C	-1.336918	0.414444	1.012008
C106	C	-0.836918	0.914444	1.512008
H107	H	-0.600730	0.202048	0.620399
H108	H	-0.100730	0.702048	1.120399
C109	C	-1.113129	0.190471	1.016758
C110	C	-0.613129	0.690471	1.516758
N111	N	-1.065835	0.143121	1.055794
N112	N	-0.565835	0.643121	1.555794
H113	H	-0.741887	0.476533	0.345178
H114	H	-0.241887	0.976533	0.845178
C115	C	-1.123866	0.201328	0.818906
C116	C	-0.623866	0.701328	1.318906
N117	N	-1.080808	0.158259	0.779887
N118	N	-0.580808	0.658259	1.279887
H119	H	-1.138623	0.692112	0.355721
H120	H	-0.638623	1.192112	0.855721
C121	C	-1.159981	0.237274	1.158074
C122	C	-0.659981	0.737274	1.658074
N123	N	-1.112695	0.189914	1.197107
N124	N	-0.612695	0.689914	1.697107
H125	H	-1.176224	0.999711	0.397954
H126	H	-0.676224	1.499711	0.897954
C127	C	-1.388891	0.986741	0.637048
C128	C	-0.888891	1.486741	1.137048
N129	N	-1.431953	1.020418	0.685450
N130	N	-0.931953	1.520418	1.185450
C131	C	-1.389069	0.466349	1.158054
C132	C	-0.889069	0.966349	1.658054
N133	N	-1.432233	0.509303	1.197094
N134	N	-0.932233	1.009303	1.697094
H135	H	-1.383392	0.460973	0.973634
H136	H	-0.883392	0.960973	1.473634
H137	H	-0.771681	0.191579	0.630860
H138	H	-0.271681	0.691579	1.130860
H139	H	-1.336545	0.414162	0.832314
H140	H	-0.836545	0.914162	1.332314
C141	C	-0.926265	0.482716	0.338937
C142	C	-0.426265	0.982716	0.838937
N143	N	-0.965259	0.531014	0.290508
N144	N	-0.465259	1.031014	0.790508
C145	C	-0.587125	0.442318	0.379498
C146	C	-0.087125	0.942318	0.879498
N147	N	-0.548069	0.495391	0.326282
N148	N	-0.048069	0.995391	0.826282
H149	H	-1.336439	0.667552	0.578130
H150	H	-0.836439	1.167552	1.078130
H151	H	-1.129364	0.864207	0.345289
H152	H	-0.629364	1.364207	0.845289
H153	H	-1.383299	0.803054	0.630792
H154	H	-0.883299	1.303054	1.130792
C155	C	-0.926448	0.225782	0.596525
C156	C	-0.426448	0.725782	1.096525
N157	N	-0.965523	0.172701	0.649720
N158	N	-0.465523	0.672701	1.149720
