data_functionalizedCrystal
_audit_creation_method	'MofGen! by Chris Wilmer'
_symmetry_space_group_name_H-M	'P1'
_symmetry_Int_Tables_number	1
_symmetry_cell_setting	triclinic
loop_
_symmetry_equiv_pos_as_xyz
  x,y,z
_cell_length_a	16.625539
_cell_length_b	16.625548
_cell_length_c	16.625546
_cell_angle_alpha	90.023536
_cell_angle_beta	90.030397
_cell_angle_gamma	90.020568
loop_
_atom_site_label
_atom_site_type_symbol
_atom_site_fract_x
_atom_site_fract_y
_atom_site_fract_z
Zn1	Zn	-0.455898	-1.232680	0.320977
Zn2	Zn	-0.122564	-0.899347	0.654311
Zn3	Zn	0.210769	-0.566014	0.987644
Zn4	Zn	-0.321060	-1.232584	0.455820
Zn5	Zn	0.012273	-0.899250	0.789154
Zn6	Zn	0.345607	-0.565917	1.122487
Zn7	Zn	-0.321078	-1.097842	0.321008
Zn8	Zn	0.012255	-0.764509	0.654341
Zn9	Zn	0.345589	-0.431176	0.987675
Zn10	Zn	-0.455850	-1.097813	0.455774
Zn11	Zn	-0.122516	-0.764479	0.789107
Zn12	Zn	0.210817	-0.431146	1.122441
O13	O	-0.388471	-1.165230	0.388395
O14	O	-0.055138	-0.831896	0.721728
O15	O	0.278195	-0.498563	1.055062
O16	O	-0.438024	-1.345500	0.338871
O17	O	-0.104690	-1.012167	0.672204
O18	O	0.228643	-0.678833	1.005538
O19	O	-0.208230	-1.214682	0.437969
O20	O	0.125103	-0.881348	0.771303
O21	O	0.458437	-0.548015	1.104636
O22	O	-0.338990	-1.115782	0.208171
O23	O	-0.005657	-0.782448	0.541505
O24	O	0.327677	-0.449115	0.874838
O25	O	-0.338959	-1.345429	0.437940
O26	O	-0.005625	-1.012096	0.771273
O27	O	0.327708	-0.678762	1.104606
O28	O	-0.438041	-1.214847	0.208149
O29	O	-0.104708	-0.881513	0.541482
O30	O	0.228625	-0.548180	0.874816
O31	O	-0.208243	-1.115688	0.338923
O32	O	0.125090	-0.782355	0.672257
O33	O	0.458423	-0.449021	1.005590
O34	O	-0.338944	-0.985006	0.338878
O35	O	-0.005610	-0.651673	0.672212
O36	O	0.327723	-0.318339	1.005545
O37	O	-0.568689	-1.115731	0.437861
O38	O	-0.235355	-0.782398	0.771194
O39	O	0.097978	-0.449065	1.104527
O40	O	-0.437960	-0.984984	0.437890
O41	O	-0.104626	-0.651651	0.771224
O42	O	0.228707	-0.318318	1.104557
O43	O	-0.568724	-1.214818	0.338826
O44	O	-0.235390	-0.881485	0.672159
O45	O	0.097943	-0.548151	1.005493
O46	O	-0.338912	-1.214653	0.568647
O47	O	-0.005579	-0.881320	0.901980
O48	O	0.327754	-0.547986	1.235313
O49	O	-0.437942	-1.115637	0.568613
O50	O	-0.104609	-0.782304	0.901946
O51	O	0.228725	-0.448971	1.235279
C52	C	-0.388449	-0.955739	0.388383
C53	C	-0.055116	-0.622406	0.721717
C54	C	0.278218	-0.289072	1.055050
C55	C	-0.388458	-0.866118	0.388398
C56	C	-0.055125	-0.532784	0.721731
C57	C	0.278208	-0.199451	1.055064
C58	C	-0.388438	-1.165153	0.597886
C59	C	-0.055104	-0.831820	0.931219
C60	C	0.278229	-0.498487	1.264552
C61	C	-0.388450	-1.165195	0.687507
C62	C	-0.055117	-0.831861	1.020840
C63	C	0.278217	-0.498528	1.354174
C64	C	-0.598780	-1.165282	0.388335
C65	C	-0.265447	-0.831949	0.721668
C66	C	0.067886	-0.498616	1.055001
C67	C	-0.688402	-1.165305	0.388309
C68	C	-0.355068	-0.831971	0.721643
C69	C	-0.021735	-0.498638	1.054976
C70	C	-1.016577	-1.165342	0.388219
C71	C	-0.683244	-0.832008	0.721552
C72	C	-0.349911	-0.498675	1.054886
C73	C	-0.925269	-1.165329	0.388247
C74	C	-0.591936	-0.831996	0.721580
C75	C	-0.258602	-0.498662	1.054913
C76	C	-0.852492	-1.165324	0.388265
C77	C	-0.519159	-0.831990	0.721598
C78	C	-0.185826	-0.498657	1.054931
C79	C	-0.761178	-1.165310	0.388291
C80	C	-0.427845	-0.831977	0.721624
C81	C	-0.094511	-0.498643	1.054958
C82	C	-0.178981	-1.165224	0.388397
C83	C	0.154353	-0.831891	0.721730
C84	C	0.487686	-0.498557	1.055063
C85	C	-0.089360	-1.165358	0.388195
C86	C	0.243973	-0.832025	0.721528
C87	C	0.577307	-0.498691	1.054862
C88	C	-0.388494	-1.375539	0.388407
C89	C	-0.055161	-1.042205	0.721740
C90	C	0.278172	-0.708872	1.055074
C91	C	-0.388504	-1.465160	0.388412
C92	C	-0.055171	-1.131826	0.721746
C93	C	0.278162	-0.798493	1.055079
C94	C	-0.388493	-0.537942	0.388403
C95	C	-0.055159	-0.204609	0.721736
C96	C	0.278174	0.128724	1.055070
C97	C	-0.388481	-0.629251	0.388399
C98	C	-0.055147	-0.295917	0.721733
C99	C	0.278186	0.037416	1.055066
C100	C	-0.388475	-0.702027	0.388401
C101	C	-0.055142	-0.368694	0.721734
C102	C	0.278192	-0.035360	1.055068
C103	C	-0.388464	-0.793341	0.388396
C104	C	-0.055131	-0.460008	0.721730
C105	C	0.278203	-0.126675	1.055063
C106	C	-0.388523	-1.165328	0.178086
C107	C	-0.055190	-0.831995	0.511419
C108	C	0.278144	-0.498662	0.844753
C109	C	-0.388545	-1.165370	0.088465
C110	C	-0.055212	-0.832037	0.421798
C111	C	0.278122	-0.498704	0.755131
C112	C	-0.388534	-1.165335	1.015682
C113	C	-0.055201	-0.832002	1.349016
C114	C	0.278133	-0.498669	1.682349
C115	C	-0.388513	-1.165294	0.924374
C116	C	-0.055180	-0.831960	1.257707
C117	C	0.278154	-0.498627	1.591041
C118	C	-0.388492	-1.165264	0.851598
C119	C	-0.055158	-0.831931	1.184931
C120	C	0.278175	-0.498598	1.518264
C121	C	-0.388471	-1.165224	0.760283
C122	C	-0.055138	-0.831891	1.093617
C123	C	0.278195	-0.498557	1.426950
