data_functionalizedCrystal
_audit_creation_method	'MofGen! by Chris Wilmer'
_symmetry_space_group_name_H-M	'P1'
_symmetry_Int_Tables_number	1
_symmetry_cell_setting	triclinic
loop_
_symmetry_equiv_pos_as_xyz
  x,y,z
_cell_length_a	13.897449
_cell_length_b	13.897447
_cell_length_c	13.897441
_cell_angle_alpha	89.970673
_cell_angle_beta	89.979267
_cell_angle_gamma	90.020810
loop_
_atom_site_label
_atom_site_type_symbol
_atom_site_fract_x
_atom_site_fract_y
_atom_site_fract_z
Zn1	Zn	1.474690	-0.383951	-0.545390
Zn2	Zn	1.724690	-0.133951	-0.295390
Zn3	Zn	1.974690	0.116049	-0.045390
Zn4	Zn	2.224690	0.366049	0.204610
Zn5	Zn	1.474579	-0.545273	-0.384095
Zn6	Zn	1.724579	-0.295273	-0.134095
Zn7	Zn	1.974579	-0.045273	0.115905
Zn8	Zn	2.224579	0.204727	0.365905
Zn9	Zn	1.313379	-0.383997	-0.384108
Zn10	Zn	1.563379	-0.133997	-0.134108
Zn11	Zn	1.813379	0.116003	0.115892
Zn12	Zn	2.063379	0.366003	0.365892
Zn13	Zn	1.313356	-0.545210	-0.545347
Zn14	Zn	1.563356	-0.295210	-0.295347
Zn15	Zn	1.813356	-0.045210	-0.045347
Zn16	Zn	2.063356	0.204790	0.204653
O17	O	1.394001	-0.464608	-0.464735
O18	O	1.644001	-0.214608	-0.214735
O19	O	1.894001	0.035392	0.035265
O20	O	2.144001	0.285392	0.285265
O21	O	1.609657	-0.405358	-0.524006
O22	O	1.859657	-0.155358	-0.274006
O23	O	2.109657	0.094642	-0.024006
O24	O	2.359657	0.344642	0.225994
O25	O	1.453159	-0.523925	-0.249115
O26	O	1.703159	-0.273925	0.000885
O27	O	1.953159	-0.023925	0.250885
O28	O	2.203159	0.226075	0.500885
O29	O	1.334834	-0.249009	-0.405526
O30	O	1.584834	0.000991	-0.155526
O31	O	1.834834	0.250991	0.094474
O32	O	2.084834	0.500991	0.344474
O33	O	1.609575	-0.523881	-0.405503
O34	O	1.859575	-0.273881	-0.155503
O35	O	2.109575	-0.023881	0.094497
O36	O	2.359575	0.226119	0.344497
O37	O	1.453348	-0.248976	-0.524019
O38	O	1.703348	0.001024	-0.274019
O39	O	1.953348	0.251024	-0.024019
O40	O	2.203348	0.501024	0.225981
O41	O	1.334726	-0.405436	-0.249125
O42	O	1.584726	-0.155436	0.000875
O43	O	1.834726	0.094564	0.250875
O44	O	2.084726	0.344564	0.500875
O45	O	1.178395	-0.405375	-0.405485
O46	O	1.428395	-0.155375	-0.155485
O47	O	1.678395	0.094625	0.094515
O48	O	1.928395	0.344625	0.344515
O49	O	1.334794	-0.523773	-0.680335
O50	O	1.584794	-0.273773	-0.430335
O51	O	1.834794	-0.023773	-0.180335
O52	O	2.084794	0.226227	0.069665
O53	O	1.178377	-0.523817	-0.523946
O54	O	1.428377	-0.273817	-0.273946
O55	O	1.678377	-0.023817	-0.023946
O56	O	1.928377	0.226183	0.226054
O57	O	1.453326	-0.405297	-0.680366
O58	O	1.703326	-0.155297	-0.430366
O59	O	1.953326	0.094703	-0.180366
O60	O	2.203326	0.344703	0.069634
O61	O	1.453136	-0.680246	-0.405462
O62	O	1.703136	-0.430246	-0.155462
O63	O	1.953136	-0.180246	0.094538
O64	O	2.203136	0.069754	0.344538
O65	O	1.334686	-0.680200	-0.523933
O66	O	1.584686	-0.430200	-0.273933
O67	O	1.834686	-0.180200	-0.023933
O68	O	2.084686	0.069800	0.226067
C69	C	1.143387	-0.464595	-0.464713
C70	C	1.393387	-0.214595	-0.214713
C71	C	1.643387	0.035405	0.035287
C72	C	1.893387	0.285405	0.285287
C73	C	1.036173	-0.464613	-0.464726
C74	C	1.286173	-0.214613	-0.214726
C75	C	1.536173	0.035387	0.035274
C76	C	1.786173	0.285387	0.285274
C77	C	1.393923	-0.715222	-0.464713
C78	C	1.643923	-0.465222	-0.214713
C79	C	1.893923	-0.215222	0.035287
C80	C	2.143923	0.034778	0.285287
C81	C	1.393977	-0.822436	-0.464735
C82	C	1.643977	-0.572436	-0.214735
C83	C	1.893977	-0.322436	0.035265
C84	C	2.143977	-0.072436	0.285265
C85	C	0.839878	-0.464616	-0.464752
C86	C	1.089878	-0.214616	-0.214752
C87	C	1.339878	0.035384	0.035248
C88	C	1.589878	0.285384	0.285248
C89	C	0.949110	-0.464611	-0.464735
C90	C	1.199110	-0.214611	-0.214735
C91	C	1.449110	0.035389	0.035265
C92	C	1.699110	0.285389	0.285265
C93	C	1.394024	-0.909506	-0.464757
C94	C	1.644024	-0.659506	-0.214757
C95	C	1.894024	-0.409506	0.035243
C96	C	2.144024	-0.159506	0.285243
C97	C	1.394092	-1.018738	-0.464782
C98	C	1.644092	-0.768738	-0.214782
C99	C	1.894092	-0.518738	0.035218
C100	C	2.144092	-0.268738	0.285218
C101	C	1.645594	-0.464621	-0.464758
C102	C	1.895594	-0.214621	-0.214758
C103	C	2.145594	0.035379	0.035242
C104	C	2.395594	0.285379	0.285242
C105	C	1.752808	-0.464627	-0.464767
C106	C	2.002808	-0.214627	-0.214767
C107	C	2.252808	0.035373	0.035233
C108	C	2.502808	0.285373	0.285233
C109	C	1.394070	-0.464522	-0.716328
C110	C	1.644070	-0.214522	-0.466328
C111	C	1.894070	0.035478	-0.216328
C112	C	2.144070	0.285478	0.033672
C113	C	1.394099	-0.464486	-0.823542
C114	C	1.644099	-0.214486	-0.573542
C115	C	1.894099	0.035514	-0.323542
C116	C	2.144099	0.285514	-0.073542
C117	C	1.394106	-0.213015	-0.464778
C118	C	1.644106	0.036985	-0.214778
C119	C	1.894106	0.286985	0.035222
C120	C	2.144106	0.536985	0.285222
C121	C	1.394151	-0.105801	-0.464797
C122	C	1.644151	0.144199	-0.214797
C123	C	1.894151	0.394199	0.035203
C124	C	2.144151	0.644199	0.285203
C125	C	1.394125	-0.464421	-1.019837
C126	C	1.644125	-0.214421	-0.769837
C127	C	1.894125	0.035579	-0.519837
C128	C	2.144125	0.285579	-0.269837
C129	C	1.394107	-0.464460	-0.910605
C130	C	1.644107	-0.214460	-0.660605
C131	C	1.894107	0.035540	-0.410605
C132	C	2.144107	0.285540	-0.160605
C133	C	1.393989	-0.464623	-0.214121
C134	C	1.643989	-0.214623	0.035879
C135	C	1.893989	0.035377	0.285879
C136	C	2.143989	0.285377	0.535879
C137	C	1.394146	-0.464388	-0.106907
C138	C	1.644146	-0.214388	0.143093
C139	C	1.894146	0.035612	0.393093
C140	C	2.144146	0.285612	0.643093
