data_functionalizedCrystal
_audit_creation_method	'MofGen! by Chris Wilmer'
_symmetry_space_group_name_H-M	'P1'
_symmetry_Int_Tables_number	1
_symmetry_cell_setting	triclinic
loop_
_symmetry_equiv_pos_as_xyz
  x,y,z
_cell_length_a	12.811453
_cell_length_b	17.699083
_cell_length_c	11.295483
_cell_angle_alpha	94.085816
_cell_angle_beta	80.460400
_cell_angle_gamma	83.665954
loop_
_atom_site_label
_atom_site_type_symbol
_atom_site_fract_x
_atom_site_fract_y
_atom_site_fract_z
O1	O	-1.410391	-0.089087	0.251334
O2	O	-1.102400	-0.101870	0.218077
O3	O	-1.265096	0.014720	0.235635
O4	O	-1.247695	-0.205677	0.233777
O5	O	-1.250806	0.004495	0.036042
O6	O	-1.088110	-0.112095	0.018484
O7	O	-1.396101	-0.099311	0.051741
Cu8	Cu	-1.240801	-0.106637	0.016888
Cu9	Cu	-1.257700	-0.094545	0.252930
O10	O	-1.233405	-0.215901	0.034184
C11	C	-1.055848	-0.106579	0.114025
C12	C	-0.938428	-0.105367	0.101346
N13	N	-1.228922	-0.115141	-0.149130
C14	C	-0.733359	-0.091955	0.295138
C15	C	-0.623033	-0.090816	0.283230
C16	C	-0.607446	-0.101955	0.065622
C17	C	-0.717773	-0.103094	0.077531
C18	C	-0.780726	-0.098093	0.192292
C19	C	-0.891055	-0.099226	0.204200
C20	C	-0.875466	-0.110371	-0.013407
C21	C	-0.765139	-0.109232	-0.025315
C22	C	-1.257328	0.037804	0.135771
C23	C	-1.255457	0.121820	0.135568
C24	C	-0.442653	-0.094603	0.155794
C25	C	-0.560073	-0.095815	0.168476
C26	C	-1.241173	-0.238985	0.134050
C27	C	-1.243045	-0.323001	0.134261
C28	C	-1.350956	0.170543	0.145879
C29	C	-1.349193	0.249485	0.145699
C30	C	-1.251928	0.279701	0.135200
C31	C	-1.156422	0.230972	0.124892
C32	C	-1.158187	0.152032	0.125081
C33	C	-1.149302	0.549328	0.124133
C34	C	-1.147544	0.628274	0.123942
C35	C	-1.340308	0.646781	0.144751
C36	C	-1.342073	0.567841	0.144940
C37	C	-1.246567	0.519119	0.134638
C38	C	-1.248481	0.433521	0.134836
C39	C	-1.250013	0.365297	0.134994
C40	C	-1.355095	-0.024774	-0.384803
C41	C	-1.346126	-0.031206	-0.510435
C42	C	-1.202010	-0.134433	-0.526027
C43	C	-1.210980	-0.128001	-0.400396
C44	C	-1.287525	-0.073171	-0.329788
C45	C	-1.296499	-0.066743	-0.204153
C46	C	-1.152379	-0.169965	-0.219749
C47	C	-1.143410	-0.176397	-0.345380
N48	N	-1.269587	-0.086035	0.418949
H49	H	-0.942310	-0.095153	0.297645
H50	H	-1.417429	0.019866	-0.327312
H51	H	-0.584471	-0.085820	0.366978
N52	N	-1.046295	0.496785	0.113015
H53	H	-1.048025	0.467412	0.186624
H54	H	-0.984473	0.527961	0.106294
H55	H	-1.068334	0.652872	0.115389
H56	H	-1.418074	0.686461	0.153145
N57	N	-1.455864	0.137955	0.157191
H58	H	-1.516094	0.180803	0.163697
H59	H	-1.466094	0.109391	0.231713
N60	N	-1.060861	-0.235533	-0.421549
H61	H	-1.074471	-0.288106	-0.398380
H62	H	-0.987408	-0.225786	-0.407781
H63	H	-1.401147	0.008204	-0.555225
H64	H	-1.426958	0.289153	0.154092
N65	N	-1.079501	-0.222174	-0.160412
H66	H	-1.096798	-0.209784	-0.070110
H67	H	-1.002917	-0.214710	-0.190486
H68	H	-0.784617	-0.087879	0.388582
N69	N	-1.446978	0.535250	0.156254
H70	H	-1.507211	0.578096	0.162760
H71	H	-1.457205	0.506687	0.230776
N72	N	-0.539541	-0.107361	-0.058149
H73	H	-0.462278	-0.106765	-0.050114
H74	H	-0.563157	-0.062516	-0.102034
N75	N	-0.697238	-0.114630	-0.149089
H76	H	-0.619977	-0.114015	-0.141056
H77	H	-0.720876	-0.069792	-0.192973
H78	H	-1.080421	0.112361	0.116685
N79	N	-0.926553	-0.116983	-0.124344
H80	H	-1.005998	-0.116943	-0.099390
H81	H	-0.895176	-0.166126	-0.174882
N82	N	-1.119444	-0.193558	-0.602194
H83	H	-1.124014	-0.190283	-0.690128
H84	H	-1.133085	-0.246106	-0.578936
N85	N	-1.051513	0.263558	0.113576
H86	H	-1.064884	0.320960	0.115016
H87	H	-1.004434	0.241929	0.035074
H88	H	-1.358829	-0.022099	-0.146665
