data_functionalizedCrystal
_audit_creation_method	'MofGen! by Chris Wilmer'
_symmetry_space_group_name_H-M	'P1'
_symmetry_Int_Tables_number	1
_symmetry_cell_setting	triclinic
loop_
_symmetry_equiv_pos_as_xyz
  x,y,z
_cell_length_a	16.793024
_cell_length_b	16.793047
_cell_length_c	33.586455
_cell_angle_alpha	113.253857
_cell_angle_beta	66.219990
_cell_angle_gamma	112.758327
loop_
_atom_site_label
_atom_site_type_symbol
_atom_site_fract_x
_atom_site_fract_y
_atom_site_fract_z
O1	O	0.005016	-0.570216	-0.583573
O2	O	-0.034529	-0.474528	-0.453458
O3	O	0.114723	-0.474535	-0.528082
O4	O	-0.144235	-0.570209	-0.508949
O5	O	0.108729	-0.346329	-0.530229
O6	O	-0.040523	-0.346322	-0.455605
O7	O	-0.000977	-0.442010	-0.585721
Cu8	Cu	-0.021297	-0.382459	-0.520859
Cu9	Cu	-0.014209	-0.534079	-0.518320
O10	O	-0.150229	-0.442003	-0.511097
C11	C	0.005100	-0.790970	-0.238461
C12	C	0.009223	-0.693065	-0.217557
C13	C	0.003804	-0.645758	-0.241627
C14	C	-0.075059	-0.538459	-0.266316
C15	C	0.049838	-0.422849	-0.250165
C16	C	-0.040584	-0.395375	-0.435637
C17	C	-0.044693	-0.353446	-0.386631
C18	C	-0.039275	-0.401741	-0.363054
C19	C	-0.040566	-0.125547	-0.300731
C20	C	-0.044689	-0.223451	-0.321635
C21	C	-0.039266	-0.270752	-0.297563
C22	C	0.039597	-0.378051	-0.272874
C23	C	-0.085304	-0.493667	-0.289026
C24	C	0.005118	-0.521142	-0.103554
C25	C	0.009231	-0.563064	-0.152559
C26	C	0.003809	-0.514775	-0.176138
C27	C	0.010758	-0.652581	-0.172822
C28	C	0.001010	-0.556371	-0.220792
C29	C	-0.008251	-0.506059	-0.245823
C30	C	-0.046224	-0.263935	-0.366370
C31	C	-0.036476	-0.360146	-0.318399
C32	C	-0.027211	-0.410451	-0.293367
C33	C	0.815184	-0.521162	-0.508596
C34	C	0.415541	-0.125553	-0.528781
C35	C	0.375032	-0.223457	-0.531493
C36	C	0.423813	-0.270761	-0.529101
C37	C	0.149318	-0.395376	-0.530584
C38	C	0.246774	-0.353455	-0.532364
C39	C	0.294574	-0.401748	-0.529976
C40	C	0.548961	-0.790984	-0.510398
C41	C	0.286104	-0.263940	-0.532530
C42	C	0.383336	-0.360149	-0.528302
C43	C	0.432207	-0.407971	-0.525810
C44	C	0.392316	-0.497392	-0.524993
C45	C	0.303554	-0.538991	-0.526667
C46	C	0.254683	-0.491169	-0.529159
C47	C	0.263666	-0.628421	-0.525851
C48	C	0.312537	-0.676243	-0.523359
C49	C	0.401299	-0.634644	-0.521685
C50	C	0.441190	-0.545223	-0.522502
C51	C	0.529952	-0.503624	-0.520828
C52	C	0.578823	-0.551446	-0.518336
C53	C	0.538939	-0.640864	-0.517520
C54	C	0.450177	-0.682463	-0.519194
C55	C	0.587810	-0.688687	-0.515028
C56	C	0.676572	-0.647088	-0.513354
C57	C	0.716463	-0.557666	-0.514172
C58	C	0.667586	-0.509847	-0.516662
C59	C	0.569840	-0.414195	-0.521644
C60	C	0.658602	-0.372596	-0.519970
C61	C	0.707476	-0.420426	-0.517480
C62	C	0.698493	-0.283174	-0.520788
C63	C	0.649622	-0.235352	-0.523280
C64	C	0.560860	-0.276951	-0.524954
C65	C	0.520969	-0.366372	-0.524136
C66	C	0.511989	-0.229129	-0.527446
C67	C	-0.040530	-0.395407	-0.935652
C68	C	0.005063	-0.791004	-0.738448
C69	C	0.009186	-0.693099	-0.717543
C70	C	0.003779	-0.645796	-0.741620
C71	C	0.005077	-0.521171	-0.603544
C72	C	0.009198	-0.563096	-0.652550
C73	C	0.003786	-0.514804	-0.676131
C74	C	-0.040516	-0.125574	-0.800747
C75	C	0.010719	-0.652613	-0.672809
C76	C	0.000994	-0.556406	-0.720789
C77	C	-0.004621	-0.508585	-0.744908
C78	C	-0.007444	-0.419162	-0.724369
C79	C	-0.004651	-0.377560	-0.679711
C80	C	0.000964	-0.425381	-0.655592
C81	C	-0.007471	-0.288129	-0.659174
C82	C	-0.013086	-0.240308	-0.683293
C83	C	-0.015878	-0.281910	-0.727951
C84	C	-0.013056	-0.371333	-0.748490
C85	C	-0.015848	-0.412935	-0.793148
C86	C	-0.021463	-0.365114	-0.817267
C87	C	-0.024282	-0.275694	-0.796731
C88	C	-0.021490	-0.234092	-0.752073
C89	C	-0.029897	-0.227873	-0.820850
C90	C	-0.032690	-0.269476	-0.865508
C91	C	-0.029867	-0.358899	-0.886047
C92	C	-0.024255	-0.406717	-0.861925
C93	C	-0.013028	-0.502367	-0.813685
C94	C	-0.015821	-0.543969	-0.858343
C95	C	-0.021433	-0.496140	-0.882464
C96	C	-0.012998	-0.633392	-0.878882
C97	C	-0.007383	-0.681213	-0.854763
C98	C	-0.004591	-0.639611	-0.810105
C99	C	-0.007414	-0.550188	-0.789566
C100	C	0.001024	-0.687432	-0.785986
O101	O	-0.000965	0.173549	-0.277957
O102	O	-0.040516	-0.085616	-0.325254
O103	O	0.108737	0.059592	-0.327284
O104	O	-0.150219	0.028341	-0.275927
O105	O	0.114753	0.055151	-0.263265
O106	O	-0.034500	-0.090057	-0.261234
O107	O	0.005051	0.169108	-0.213937
Cu108	Cu	-0.014175	0.039120	-0.231740
Cu109	Cu	-0.021290	0.044372	-0.307451
O110	O	-0.144202	0.023900	-0.211907
O111	O	-0.034458	-0.474571	0.046517
O112	O	0.005076	-0.570190	-0.083599
O113	O	-0.144170	-0.570237	-0.008972
O114	O	0.114787	-0.474523	-0.028110
O115	O	-0.150200	-0.442024	-0.011093
O116	O	-0.000954	-0.441976	-0.085720
O117	O	-0.040488	-0.346357	0.044396
Cu118	Cu	-0.021272	-0.382460	-0.020856
Cu119	Cu	-0.014141	-0.534087	-0.018347
O120	O	0.108757	-0.346309	-0.030231
C121	C	-0.850734	0.086244	-0.289716
C122	C	-0.753280	0.087165	-0.312001
C123	C	-0.705462	0.081107	-0.288506
C124	C	-0.599592	0.000085	-0.264184
C125	C	-0.481080	0.121287	-0.283645
C126	C	-0.450996	0.035117	-0.097351
C127	C	-0.410501	0.028587	-0.146852
C128	C	-0.459292	0.034683	-0.169840
C129	C	-0.184802	0.024283	-0.235878
C130	C	-0.282257	0.023363	-0.213592
C131	C	-0.330068	0.029423	-0.237088
C132	C	-0.435938	0.110445	-0.261411
C133	C	-0.554456	-0.010759	-0.241948
C134	C	-0.584541	0.075410	-0.428242
C135	C	-0.625029	0.081943	-0.378743
C136	C	-0.576244	0.075844	-0.355753
C137	C	-0.713963	0.086424	-0.357292
C138	C	-0.616708	0.075351	-0.310510
C139	C	-0.565963	0.065400	-0.286043
C140	C	-0.321573	0.024104	-0.168302
C141	C	-0.418828	0.035176	-0.215083
C142	C	-0.469568	0.045131	-0.239552
O143	O	0.585213	0.169090	-0.504004
O144	O	0.494056	-0.090076	-0.525516
O145	O	0.488081	0.055124	-0.449918
O146	O	0.591189	0.023889	-0.579602
O147	O	0.359978	0.059584	-0.452885
O148	O	0.365953	-0.085616	-0.528483
O149	O	0.457110	0.173550	-0.506971
Cu150	Cu	0.399835	0.044374	-0.517998
Cu151	Cu	0.551332	0.039099	-0.514489
O152	O	0.463086	0.028349	-0.582569
C153	C	0.815354	-0.521094	-0.008709
C154	C	0.717898	-0.563028	-0.006927
C155	C	0.670072	-0.514739	-0.009298
C156	C	0.564182	-0.463204	-0.048354
C157	C	0.445681	-0.498945	0.013847
C158	C	0.415547	-0.125494	-0.028771
C159	C	0.375059	-0.223405	-0.031498
C160	C	0.423859	-0.270708	-0.029121
C161	C	0.149365	-0.395355	-0.030599
C162	C	0.246820	-0.353421	-0.032381
C163	C	0.294640	-0.401713	-0.030008
C164	C	0.400530	-0.453248	0.009048
C165	C	0.519038	-0.417504	-0.053155
C166	C	0.549171	-0.790955	-0.010537
C167	C	0.589653	-0.693047	-0.007809
C168	C	0.540859	-0.645741	-0.010187
C169	C	0.678588	-0.652551	-0.006775
C170	C	0.581317	-0.556344	-0.010973
C171	C	0.530562	-0.506029	-0.015250
C172	C	0.286131	-0.263897	-0.032533
C173	C	0.383402	-0.360104	-0.028335
C174	C	0.434150	-0.410423	-0.024057
O175	O	-0.620614	0.089309	0.052274
O176	O	-0.529507	0.043784	-0.078544
O177	O	-0.523494	0.194833	-0.006033
O178	O	-0.626628	-0.061740	-0.020236
O179	O	-0.395386	0.185419	-0.005549
O180	O	-0.401400	0.034370	-0.078059
O181	O	-0.492507	0.079895	0.052758
Cu182	Cu	-0.435256	0.056273	-0.012607
Cu183	Cu	-0.586758	0.067406	-0.013179
O184	O	-0.498521	-0.071154	-0.019752
C185	C	-0.437537	0.048335	0.402491
C186	C	-0.397043	0.041789	0.352989
C187	C	-0.445822	0.047883	0.329994
C188	C	-0.496646	0.126653	0.277022
C189	C	-0.465894	-0.000633	0.218811
C190	C	-0.837226	0.099430	0.210091
C191	C	-0.739773	0.100339	0.187806
C192	C	-0.691967	0.094287	0.211308
C193	C	-0.571027	0.088563	0.071568
C194	C	-0.611521	0.095108	0.121070
C195	C	-0.562739	0.089011	0.144061
C196	C	-0.511915	0.010241	0.197033
C197	C	-0.542670	0.137531	0.255247
C198	C	-0.171338	0.037467	0.263967
C199	C	-0.268788	0.036555	0.286249
C200	C	-0.316597	0.042611	0.262750
C201	C	-0.308112	0.037305	0.331542
C202	C	-0.405351	0.048369	0.284750
C203	C	-0.456092	0.058317	0.260279
C204	C	-0.700452	0.099593	0.142516
C205	C	-0.603213	0.088528	0.189308
C206	C	-0.552469	0.078578	0.213776
O207	O	-0.040608	-1.085661	-0.825229
O208	O	-0.001018	-0.826491	-0.777938
O209	O	-0.150287	-0.971682	-0.775894
O210	O	0.108661	-0.940470	-0.827272
O211	O	-0.144253	-0.976123	-0.711878
O212	O	0.005016	-0.830932	-0.713922
O213	O	-0.034575	-1.090102	-0.761213
Cu214	Cu	-0.014228	-0.960923	-0.731722
Cu215	Cu	-0.021364	-0.955670	-0.807428
O216	O	0.114695	-0.944911	-0.763256
C217	C	-0.114910	-0.196886	-0.221632
C218	C	-0.036365	-0.225064	-0.248236
H219	H	-0.113123	-0.168686	-0.191179
H220	H	-0.118569	-0.155324	-0.233064
H221	H	-0.166305	-0.247543	-0.222605
H222	H	0.015031	-0.174406	-0.247266
H223	H	-0.032697	-0.266629	-0.236801
H224	H	-0.489994	0.175891	0.311254
C225	C	-0.826541	0.007099	-0.235051
C226	C	-0.749901	0.080733	-0.238538
H227	H	-0.853971	0.006869	-0.204202
H228	H	-0.868310	0.011594	-0.245963
H229	H	-0.809313	-0.047105	-0.252618
H230	H	-0.767130	0.134938	-0.220974
H231	H	-0.708124	0.076246	-0.227620
H232	H	0.468233	-0.679598	-0.011487
C233	C	0.556444	-0.286309	-0.025112
C234	C	0.521915	-0.225023	-0.027384
H235	H	0.616984	-0.258107	-0.024047
H236	H	0.520620	-0.305427	0.001400
H237	H	0.555157	-0.336952	-0.051153
H238	H	0.523195	-0.174383	-0.001341
H239	H	0.557748	-0.205892	-0.053898
C240	C	-0.020783	-0.630997	-0.944754
C241	C	-0.024477	-0.542048	-0.931762
H242	H	-0.022656	-0.659331	-0.975189
H243	H	0.033738	-0.631221	-0.942522
H244	H	-0.070937	-0.662765	-0.925366
H245	H	0.025680	-0.510277	-0.951149
H246	H	-0.079005	-0.541818	-0.933998
H247	H	0.001650	-0.679613	-0.278166
C248	C	-0.460207	-0.134135	0.226755
C249	C	-0.423175	-0.079833	0.197486
H250	H	-0.433837	-0.183031	0.213588
H251	H	-0.448225	-0.099525	0.254922
H252	H	-0.523675	-0.156687	0.231596
H253	H	-0.359708	-0.057275	0.192647
H254	H	-0.435150	-0.114449	0.169311
H255	H	0.001660	-0.441639	-0.159184
H256	H	-0.503619	0.071273	-0.373665
H257	H	0.279916	-0.749353	-0.522691
H258	H	-0.015274	-0.667410	-0.915397
C259	C	0.673686	-0.713460	-0.461064
C260	C	0.722755	-0.697503	-0.503436
H261	H	0.702200	-0.744569	-0.454933
H262	H	0.671672	-0.657696	-0.438253
H263	H	0.613911	-0.748951	-0.461274
H264	H	0.782529	-0.662007	-0.503225
H265	H	0.724780	-0.753276	-0.526254
C266	C	0.140908	-0.763284	-0.526448
C267	C	0.165698	-0.674332	-0.527697
H268	H	0.080423	-0.791628	-0.527585
H269	H	0.180123	-0.795037	-0.551726
H270	H	0.145350	-0.763509	-0.499180
H271	H	0.161262	-0.674107	-0.554967
H272	H	0.126471	-0.642571	-0.502416
C273	C	0.718922	-0.085200	-0.484557
C274	C	0.693615	-0.136638	-0.524161
H275	H	0.746078	-0.024257	-0.485098
H276	H	0.666943	-0.088638	-0.458883
H277	H	0.760921	-0.107814	-0.482837
H278	H	0.651611	-0.114028	-0.525880
H279	H	0.745601	-0.133195	-0.549843
H280	H	0.417564	-0.755580	-0.518528
C281	C	-0.061805	-0.709209	-0.107733
C282	C	0.014312	-0.706460	-0.145933
H283	H	-0.059613	-0.742477	-0.091136
H284	H	-0.062460	-0.649632	-0.089043
H285	H	-0.114963	-0.737397	-0.117116
H286	H	0.067470	-0.678266	-0.136551
H287	H	0.014976	-0.766047	-0.164627
C288	C	-0.356508	0.184814	-0.339935
C289	C	-0.438090	0.196988	-0.306925
H290	H	-0.329974	0.231545	-0.354309
H291	H	-0.316468	0.186405	-0.325995
H292	H	-0.367760	0.128241	-0.361891
H293	H	-0.426837	0.253559	-0.284967
H294	H	-0.478139	0.195405	-0.320866
C295	C	-0.725182	0.167546	-0.398947
C296	C	-0.768474	0.090746	-0.383482
H297	H	-0.758834	0.170215	-0.415116
H298	H	-0.721229	0.219735	-0.373783
H299	H	-0.666125	0.164763	-0.418437
H300	H	-0.827529	0.093533	-0.363989
H301	H	-0.772437	0.038544	-0.408649
H302	H	-0.267732	0.034117	0.350946
C303	C	-0.030963	-0.534305	-0.355369
C304	C	-0.036377	-0.500475	-0.385934
H305	H	-0.029179	-0.595260	-0.369495
H306	H	0.022317	-0.499640	-0.346536
H307	H	-0.082366	-0.530971	-0.329349
H308	H	0.015030	-0.503803	-0.411953
H309	H	-0.089663	-0.535150	-0.394774
H310	H	-0.281187	0.020914	-0.148901
H311	H	-0.005085	-0.754331	-0.871556
C312	C	0.084418	-0.379835	-0.603031
C313	C	0.004034	-0.379473	-0.606300
H314	H	0.086307	-0.351492	-0.572599
H315	H	0.086907	-0.440179	-0.611848
H316	H	0.134556	-0.348065	-0.622425
H317	H	-0.046104	-0.411249	-0.586909
H318	H	0.001537	-0.319119	-0.597477
H319	H	-0.297145	0.029698	-0.274103
H320	H	-0.518563	-0.039000	0.162804
C321	C	0.830246	-0.285556	-0.516878
C322	C	0.805449	-0.374509	-0.515630
H323	H	0.890726	-0.257213	-0.515733
H324	H	0.825815	-0.285325	-0.544143
H325	H	0.791021	-0.253801	-0.491598
H326	H	0.844670	-0.406267	-0.540912
H327	H	0.809888	-0.374746	-0.488361
C328	C	-0.116422	-0.663720	-0.237635
C329	C	-0.140523	-0.631129	-0.262439
H330	H	-0.156841	-0.720929	-0.235241
H331	H	-0.056530	-0.669380	-0.252685
H332	H	-0.119567	-0.622960	-0.208153
H333	H	-0.137372	-0.671886	-0.291922
H334	H	-0.200431	-0.625475	-0.247389
H335	H	0.088092	-0.309407	-0.275738
C336	C	-0.213141	-0.618717	-0.302395
C337	C	-0.162791	-0.535179	-0.310665
H338	H	-0.260979	-0.644340	-0.315753
H339	H	-0.175082	-0.657721	-0.315213
H340	H	-0.237522	-0.610740	-0.270607
H341	H	-0.138404	-0.543157	-0.342453
H342	H	-0.200856	-0.496167	-0.297848
C343	C	0.739847	-0.364940	0.029556
C344	C	0.714486	-0.415988	-0.010062
H345	H	0.767265	-0.303974	0.029087
H346	H	0.687851	-0.368313	0.055226
H347	H	0.781638	-0.387906	0.031218
H348	H	0.672689	-0.393026	-0.011723
H349	H	0.766490	-0.412610	-0.035739
H350	H	-0.518447	0.052455	0.347905
H351	H	0.634201	-0.467612	-0.072637
H352	H	0.771070	-0.249160	-0.519423
H353	H	-0.283673	0.042875	0.225734
C354	C	0.177676	-0.297800	-0.236794
C355	C	0.127324	-0.381340	-0.228526
H356	H	0.225507	-0.272175	-0.223431
H357	H	0.202059	-0.305771	-0.268577
H358	H	0.139609	-0.258794	-0.223974
H359	H	0.165390	-0.420349	-0.241349
H360	H	0.102942	-0.373374	-0.196737
H361	H	-0.023809	-0.160979	-0.735279
H362	H	-0.574318	0.196197	0.271049
H363	H	-0.047834	-0.232081	-0.882358
H364	H	0.413839	-0.532573	0.042316
C365	C	-0.824943	0.100323	0.275498
C366	C	-0.736406	0.093925	0.261278
H367	H	-0.852380	0.100092	0.306346
H368	H	-0.823857	0.154682	0.272494
H369	H	-0.858642	0.050522	0.257300
H370	H	-0.702705	0.143730	0.279474
H371	H	-0.737487	0.039560	0.264286
C372	C	-0.061865	-0.709227	-0.607717
C373	C	0.014258	-0.706488	-0.645915
H374	H	-0.059684	-0.742492	-0.591115
H375	H	-0.062518	-0.649648	-0.589030
H376	H	-0.115019	-0.737413	-0.617102
H377	H	0.067413	-0.678295	-0.636529
H378	H	0.014919	-0.766078	-0.664605
C379	C	0.000484	-0.812666	-0.853125
C380	C	0.004135	-0.786136	-0.808652
H381	H	0.002410	-0.873599	-0.867118
H382	H	-0.054047	-0.806960	-0.852621
H383	H	0.050626	-0.775437	-0.869800
H384	H	-0.046011	-0.823361	-0.791976
H385	H	0.058673	-0.791850	-0.809154
H386	H	-0.740818	0.102779	0.123104
C387	C	-0.008070	-0.153261	-0.596899
C388	C	-0.004392	-0.242213	-0.609884
H389	H	-0.006174	-0.124914	-0.566468
H390	H	0.042066	-0.121511	-0.616295
H391	H	-0.062608	-0.153032	-0.599120
H392	H	0.050149	-0.242441	-0.607666
H393	H	-0.054533	-0.273970	-0.590482
H394	H	-0.048864	-0.224020	-0.386283
H395	H	-0.365918	0.157102	-0.260160
C396	C	-0.718822	-0.125386	-0.242222
C397	C	-0.694122	-0.062895	-0.265881
H398	H	-0.777185	-0.164261	-0.243266
H399	H	-0.676268	-0.159842	-0.255809
H400	H	-0.719780	-0.094432	-0.211542
H401	H	-0.693159	-0.093848	-0.296562
H402	H	-0.736688	-0.028434	-0.252296
H403	H	0.245727	-0.224039	-0.533582
C404	C	0.689822	-0.736168	0.033628
C405	C	0.733110	-0.706402	-0.005356
H406	H	0.723481	-0.769410	0.034506
H407	H	0.685861	-0.685736	0.059777
H408	H	0.630768	-0.773558	0.033033
H409	H	0.792162	-0.669006	-0.004760
H410	H	0.737081	-0.756841	-0.031511
C411	C	0.155170	-0.207315	0.004152
C412	C	0.231600	-0.210027	-0.033929
H413	H	0.121507	-0.174053	0.003293
H414	H	0.118604	-0.266900	0.004075
H415	H	0.173569	-0.179136	0.030916
H416	H	0.213201	-0.238211	-0.060693
H417	H	0.268173	-0.150430	-0.033856
C418	C	0.098918	-0.490252	-0.493749
C419	C	0.156718	-0.537081	-0.531012
H420	H	0.038438	-0.518593	-0.494896
H421	H	0.103348	-0.490502	-0.466487
H422	H	0.115760	-0.429904	-0.494598
H423	H	0.139879	-0.597427	-0.530161
H424	H	0.152283	-0.536840	-0.558281
C425	C	0.057712	-0.086750	-0.685216
C426	C	-0.016196	-0.141607	-0.660625
H427	H	0.055785	-0.025817	-0.671223
H428	H	0.112237	-0.092457	-0.685714
H429	H	0.055226	-0.104766	-0.715387
H430	H	-0.013707	-0.123595	-0.630455
H431	H	-0.070735	-0.135895	-0.660122
C432	C	-0.541905	-0.144527	-0.237565
C433	C	-0.597433	-0.086464	-0.218671
H434	H	-0.568431	-0.191259	-0.223192
H435	H	-0.535462	-0.169935	-0.269103
H436	H	-0.484165	-0.111766	-0.233208
H437	H	-0.655171	-0.119223	-0.223031
H438	H	-0.603887	-0.061055	-0.187126
C439	C	-0.559111	0.117749	-0.108333
C440	C	-0.557320	0.040903	-0.145671
H441	H	-0.619625	0.121606	-0.093416
H442	H	-0.535722	0.113984	-0.087865
H443	H	-0.523212	0.169776	-0.118398
H444	H	-0.593214	-0.011124	-0.135606
H445	H	-0.580721	0.044661	-0.166143
H446	H	0.261721	-0.474856	-0.029430
C447	C	0.281315	-0.494000	0.073386
C448	C	0.305999	-0.447326	0.041819
H449	H	0.222954	-0.490343	0.093618
H450	H	0.280368	-0.555322	0.057916
H451	H	0.323879	-0.467978	0.090039
H452	H	0.263439	-0.473353	0.025164
H453	H	0.306940	-0.385993	0.057291
C454	C	0.647151	-0.387212	-0.116853
C455	C	0.562035	-0.372069	-0.091573
H456	H	0.673695	-0.359157	-0.140568
H457	H	0.684787	-0.362629	-0.097656
H458	H	0.640693	-0.450122	-0.129485
H459	H	0.568494	-0.309158	-0.078937
H460	H	0.524391	-0.396648	-0.110773
C461	C	-0.462861	0.006011	0.082541
C462	C	-0.464697	0.082840	0.119888
H463	H	-0.402331	0.002209	0.067617
H464	H	-0.498706	-0.046027	0.092596
H465	H	-0.486288	0.009756	0.062078
H466	H	-0.441276	0.079092	0.140353
H467	H	-0.428839	0.134891	0.109834
H468	H	0.544602	-0.156012	-0.528109
