data_functionalizedCrystal
_audit_creation_method	'MofGen! by Chris Wilmer'
_symmetry_space_group_name_H-M	'P1'
_symmetry_Int_Tables_number	1
_symmetry_cell_setting	triclinic
loop_
_symmetry_equiv_pos_as_xyz
  x,y,z
_cell_length_a	17.077404
_cell_length_b	12.759394
_cell_length_c	17.077396
_cell_angle_alpha	90.024622
_cell_angle_beta	90.018362
_cell_angle_gamma	90.011826
loop_
_atom_site_label
_atom_site_type_symbol
_atom_site_fract_x
_atom_site_fract_y
_atom_site_fract_z
Zn1	Zn	1.200104	-0.418323	0.443840
Zn2	Zn	1.200032	-0.594024	0.312583
Zn3	Zn	1.068836	-0.418353	0.312590
Zn4	Zn	1.068824	-0.593955	0.443809
O5	O	1.134449	-0.506164	0.378206
O6	O	1.309941	-0.441647	0.426438
O7	O	1.182603	-0.570762	0.202737
O8	O	1.086284	-0.271328	0.330017
O9	O	1.309888	-0.570733	0.330004
O10	O	1.182726	-0.271306	0.426446
O11	O	1.086214	-0.441698	0.202742
O12	O	0.958987	-0.441631	0.329987
O13	O	1.086264	-0.570615	0.553660
O14	O	0.958979	-0.570644	0.426393
O15	O	1.182715	-0.441580	0.553683
O16	O	1.182592	-0.741036	0.329974
O17	O	1.086194	-0.740985	0.426385
C18	C	0.930501	-0.506134	0.378188
C19	C	0.843251	-0.506147	0.378199
C20	C	0.802289	-0.439051	0.428489
C21	C	0.720309	-0.439058	0.428493
C22	C	0.679292	-0.506166	0.378210
C23	C	0.720259	-0.573265	0.327914
C24	C	0.802238	-0.573252	0.327907
C25	C	0.549389	-0.573289	0.327934
C26	C	0.467405	-0.573303	0.327942
C27	C	0.467460	-0.439094	0.428519
C28	C	0.549439	-0.439081	0.428512
C29	C	0.590401	-0.506182	0.378217
C30	C	1.134405	-0.779131	0.378193
C31	C	1.134458	-0.895908	0.378213
C32	C	1.234808	-0.895727	0.478699
C33	C	1.285008	-0.950497	0.528948
C34	C	1.285055	-1.060219	0.528965
C35	C	1.234895	-1.115173	0.478730
C36	C	1.184695	-1.060402	0.428481
C37	C	1.184655	-0.950678	0.428467
C38	C	1.084342	-1.060584	0.328000
C39	C	1.084298	-0.950862	0.327977
C40	C	1.034182	-1.115537	0.277764
C41	C	0.983985	-1.060767	0.227510
C42	C	0.983941	-0.951039	0.227494
C43	C	1.034098	-0.896092	0.277728
C44	C	1.339193	-0.506195	0.378224
C45	C	1.426443	-0.506208	0.378231
C46	C	1.134496	-0.506086	0.582950
C47	C	1.134517	-0.506053	0.670200
C48	C	1.134514	-0.232130	0.378236
C49	C	1.134542	-0.115354	0.378249
C50	C	1.134447	-0.506165	0.174258
C51	C	1.134579	-0.505902	0.087008
C52	C	1.184740	-0.438859	0.711203
C53	C	1.184750	-0.438824	0.793183
C54	C	1.134539	-0.505990	0.834159
C55	C	1.084310	-0.573187	0.793150
C56	C	1.084297	-0.573216	0.711171
C57	C	1.084341	-0.573124	0.964020
C58	C	1.084355	-0.573097	1.046005
C59	C	1.184794	-0.438732	1.046033
C60	C	1.184781	-0.438761	0.964054
C61	C	1.134553	-0.505960	0.923050
H62	H	0.686962	-0.384423	0.469445
O63	O	1.035646	-0.638561	0.924217
C64	C	1.052784	-0.743261	0.944257
H65	H	1.115492	-0.748545	0.966816
H66	H	1.010694	-0.770716	0.991823
C67	C	0.966631	-0.806915	0.843713
C68	C	1.043653	-0.813407	0.871414
H69	H	0.960995	-0.850186	0.798781
H70	H	0.955082	-0.736377	0.830213
H71	H	0.931565	-0.829793	0.883358
H72	H	1.078716	-0.790517	0.831773
H73	H	1.055207	-0.883943	0.884905
H74	H	0.582738	-0.627927	0.286976
O75	O	0.842065	-0.638283	0.278974
C76	C	0.889482	-0.578374	0.228359
H77	H	0.864781	-0.495623	0.223618
H78	H	0.951623	-0.574787	0.252627
C79	C	0.921042	-0.731198	0.152512
C80	C	0.890699	-0.629564	0.146685
H81	H	0.921797	-0.762776	0.102133
H82	H	0.889099	-0.771561	0.186614
H83	H	0.972824	-0.728195	0.172739
H84	H	0.838916	-0.632570	0.126468
H85	H	0.922634	-0.589203	0.112577
H86	H	1.225691	-0.384014	1.079421
H87	H	1.225630	-0.384168	0.677846
H88	H	0.943145	-1.105519	0.186615
O89	O	1.233569	-0.373694	0.833106
C90	C	1.284271	-0.433493	0.880522
H91	H	1.256572	-0.513108	0.892785
H92	H	1.342441	-0.445050	0.848946
C93	C	1.332512	-0.277874	0.943342
C94	C	1.298489	-0.375654	0.958410
H95	H	1.341286	-0.242195	0.991385
H96	H	1.298355	-0.237585	0.911395
H97	H	1.380983	-0.287518	0.917027
H98	H	1.250014	-0.366008	0.984715
H99	H	1.332638	-0.415941	0.990363
O100	O	1.333856	-1.113538	0.577670
C101	C	1.384618	-1.176973	0.533031
H102	H	1.356972	-1.193487	0.473522
H103	H	1.442778	-1.134636	0.524450
C104	C	1.432806	-1.260864	0.649338
C105	C	1.398847	-1.281155	0.576250
H106	H	1.441586	-1.325127	0.675998
H107	H	1.398609	-1.218125	0.679413
H108	H	1.481268	-1.225581	0.642177
H109	H	1.350381	-1.316426	0.583412
H110	H	1.433036	-1.323903	0.546177
H111	H	0.943059	-0.906451	0.186578
O112	O	0.680503	-0.638602	0.279108
C113	C	0.700523	-0.743340	0.296142
H114	H	0.760058	-0.745557	0.326307
H115	H	0.654400	-0.778802	0.336462
C116	C	0.631150	-0.804128	0.182488
C117	C	0.704276	-0.806852	0.219531
H118	H	0.633462	-0.843307	0.135231
H119	H	0.617659	-0.733564	0.171013
H120	H	0.592722	-0.833678	0.216095
H121	H	0.742700	-0.777290	0.185928
H122	H	0.717773	-0.877412	0.230999
H123	H	1.043424	-0.627871	0.826519
O124	O	1.233472	-0.373359	0.924291
C125	C	1.216351	-0.268644	0.944357
H126	H	1.153645	-0.263331	0.966881
H127	H	1.258447	-0.241173	0.991956
C128	C	1.302506	-0.205066	0.843883
C129	C	1.225487	-0.198540	0.871542
H130	H	1.308145	-0.161821	0.798969
H131	H	1.314043	-0.275615	0.830366
H132	H	1.337577	-0.182176	0.883556
H133	H	1.190418	-0.221443	0.831873
H134	H	1.213944	-0.127994	0.885051
O135	O	1.035495	-0.638601	0.671459
C136	C	0.991171	-0.697866	0.725202
H137	H	1.023328	-0.701476	0.783647
H138	H	0.931559	-0.659394	0.733910
C139	C	0.940346	-0.805265	0.621413
C140	C	0.979845	-0.809706	0.693195
H141	H	0.933356	-0.874252	0.601669
H142	H	0.970206	-0.765335	0.585205
H143	H	0.890674	-0.773200	0.628680
H144	H	1.029520	-0.841759	0.685926
H145	H	0.949994	-0.849644	0.729401
H146	H	0.835680	-0.384406	0.469437
H147	H	1.043467	-0.627786	1.079365
H148	H	0.434105	-0.384457	0.469469
H149	H	0.582833	-0.384442	0.469461
H150	H	0.434011	-0.627950	0.286997
H151	H	1.234783	-0.806386	0.478683
H152	H	1.325847	-0.905744	0.569852
H153	H	1.234930	-1.204514	0.478755
H154	H	1.034071	-0.806751	0.277717
H155	H	1.034220	-1.204878	0.277784
