data_functionalizedCrystal
_audit_creation_method	'MofGen! by Chris Wilmer'
_symmetry_space_group_name_H-M	'P1'
_symmetry_Int_Tables_number	1
_symmetry_cell_setting	triclinic
loop_
_symmetry_equiv_pos_as_xyz
  x,y,z
_cell_length_a	12.645331
_cell_length_b	17.638891
_cell_length_c	17.640968
_cell_angle_alpha	87.809938
_cell_angle_beta	101.229710
_cell_angle_gamma	101.215862
loop_
_atom_site_label
_atom_site_type_symbol
_atom_site_fract_x
_atom_site_fract_y
_atom_site_fract_z
Zn1	Zn	-1.812340	-0.215599	-0.490659
Zn2	Zn	-1.826238	-0.368260	-0.389358
Zn3	Zn	-1.607605	-0.241284	-0.363674
Zn4	Zn	-1.676477	-0.342539	-0.516289
O5	O	-1.730665	-0.291920	-0.439995
O6	O	-1.962541	-0.235864	-0.477244
O7	O	-1.774229	-0.372930	-0.279686
O8	O	-1.600125	-0.131612	-0.359044
O9	O	-1.972752	-0.348024	-0.402819
O10	O	-1.750542	-0.112741	-0.452339
O11	O	-1.613601	-0.279641	-0.260816
O12	O	-1.468384	-0.254701	-0.383896
O13	O	-1.717506	-0.304186	-0.619155
O14	O	-1.518983	-0.329092	-0.496022
O15	O	-1.817324	-0.210924	-0.600324
O16	O	-1.841011	-0.471113	-0.427671
O17	O	-1.730982	-0.452216	-0.520927
C18	C	-1.455217	-0.291893	-0.439953
C19	C	-1.337388	-0.291896	-0.439957
C20	C	-1.795011	-0.489215	-0.479884
C21	C	-1.822641	-0.573613	-0.496974
C22	C	-1.773547	-0.251821	-0.638063
C23	C	-1.791820	-0.234733	-0.722468
C24	C	-1.137934	-0.244753	-0.369678
C25	C	-1.260491	-0.244963	-0.369459
C26	C	-1.314262	-0.376306	-0.434272
C27	C	-1.191469	-0.376058	-0.433802
C28	C	-1.180995	-0.255327	-0.516279
C29	C	-1.302924	-0.253636	-0.515478
C30	C	-1.007182	-0.291936	-0.440023
C31	C	-1.124998	-0.291910	-0.439997
C32	C	-1.666100	-0.093852	-0.399968
C33	C	-1.638587	-0.009448	-0.382910
C34	C	-1.939716	0.317261	-0.569616
C35	C	-1.913858	0.396567	-0.553561
C36	C	-1.757242	0.376908	-0.456421
C37	C	-1.783083	0.297599	-0.472469
C38	C	-1.874322	0.267782	-0.529067
C39	C	-1.717690	0.248120	-0.431921
C40	C	-1.743533	0.168818	-0.447966
C41	C	-1.834770	0.138995	-0.504560
C42	C	-1.900165	0.188480	-0.545112
C43	C	-1.626456	0.277938	-0.375320
C44	C	-1.561062	0.228459	-0.334771
C45	C	-1.586900	0.149157	-0.350820
C46	C	-1.678137	0.119333	-0.407413
C47	C	-1.521505	0.099671	-0.310267
C48	C	-1.547348	0.020369	-0.326312
C49	C	-1.703980	0.040031	-0.423459
C50	C	-1.592114	-0.421323	-1.049086
C51	C	-1.609304	-0.405257	-1.128395
C52	C	-1.713235	-0.308151	-1.108778
C53	C	-1.696049	-0.324206	-1.029465
C54	C	-1.635489	-0.380794	-0.999626
C55	C	-1.739425	-0.283677	-0.980005
C56	C	-1.722245	-0.299735	-0.900700
C57	C	-1.661690	-0.356321	-0.870854
C58	C	-1.618309	-0.396852	-0.920320
C59	C	-1.799991	-0.227094	-1.009847
C60	C	-1.843366	-0.186564	-0.960387
C61	C	-1.826180	-0.202618	-0.881079
C62	C	-1.765625	-0.259204	-0.851234
C63	C	-1.869561	-0.162088	-0.831613
C64	C	-1.852381	-0.178145	-0.752308
C65	C	-1.748445	-0.275262	-0.771928
C66	C	-1.687993	-0.331809	-0.242687
C67	C	-1.669855	-0.348683	-0.158239
H68	H	-1.274185	-0.182877	-0.371166
H69	H	-1.682957	0.401193	-0.410336
H70	H	-1.892678	-0.140493	-0.984694
H71	H	-1.778259	0.015756	-0.469561
H72	H	-1.091971	-0.182515	-0.371199
H73	H	-1.316370	-0.191440	-0.520059
H74	H	-1.568963	-0.442913	-0.896020
H75	H	-1.647708	-0.369397	-0.806279
H76	H	-1.813980	-0.214023	-1.074424
H77	H	-1.918878	-0.116019	-0.855922
H78	H	-2.013994	0.292986	-0.615718
H79	H	-1.542768	-0.467384	-1.024785
H80	H	-1.605421	0.342511	-0.362255
H81	H	-1.135680	-0.193994	-0.524567
H82	H	-1.175446	-0.289477	-0.568474
H83	H	-1.855812	0.074421	-0.517620
H84	H	-1.762547	-0.262079	-1.133085
H85	H	-1.486777	0.252745	-0.288687
H86	H	-1.967118	0.436850	-0.586585
H87	H	-1.338077	-0.405601	-0.379682
H88	H	-1.573978	-0.438265	-1.168664
H89	H	-1.098622	-0.270014	-0.313142
H90	H	-1.281280	-0.270447	-0.312606
H91	H	-1.974444	0.164205	-0.591215
H92	H	-1.887699	-0.145141	-0.712035
H93	H	-1.155748	-0.405181	-0.378517
H94	H	-1.356493	-0.284186	-0.569369
H95	H	-1.699100	-0.321323	-0.747628
H96	H	-1.185450	-0.413254	-0.483665
H97	H	-1.447224	0.123958	-0.264180
H98	H	-1.494097	-0.019918	-0.293294
H99	H	-1.367069	-0.413086	-0.484595
