data_functionalizedCrystal
_audit_creation_method	'MofGen! by Chris Wilmer'
_symmetry_space_group_name_H-M	'P1'
_symmetry_Int_Tables_number	1
_symmetry_cell_setting	triclinic
loop_
_symmetry_equiv_pos_as_xyz
  x,y,z
_cell_length_a	6.817900
_cell_length_b	11.102188
_cell_length_c	14.858572
_cell_angle_alpha	93.467807
_cell_angle_beta	104.524003
_cell_angle_gamma	108.603875
loop_
_atom_site_label
_atom_site_type_symbol
_atom_site_fract_x
_atom_site_fract_y
_atom_site_fract_z
V1	V	-4.064538	-0.176639	-0.289960
O2	O	-4.024475	0.007665	-0.284441
O3	O	-4.041627	-0.349453	-0.287977
O4	O	-4.020828	-0.174283	-0.416422
O5	O	-4.045417	-0.168718	-0.155107
V6	V	-4.544255	-0.154551	-0.273831
O7	O	-4.334144	-0.225089	-0.325342
O8	O	-4.724846	-0.106100	-0.238449
O9	O	-4.343960	0.018263	-0.275814
O10	O	-4.701715	-0.338855	-0.279350
O11	O	-4.680772	-0.162472	-0.408684
O12	O	-4.364758	-0.156907	-0.147369
C13	C	-3.892677	-0.391570	-0.283403
C14	C	-3.955262	-0.532851	-0.282625
C15	C	-3.938296	-0.580841	-0.197095
C16	C	-3.997125	-0.713590	-0.196367
C17	C	-4.089878	-0.750350	-0.366706
C18	C	-4.031063	-0.617603	-0.367434
C19	C	-3.866145	-0.168121	-0.447246
C20	C	-3.911859	-0.167339	-0.550629
C21	C	-4.079177	-0.164478	-0.929197
C22	C	-4.032615	-0.165274	-0.823868
C23	C	-3.995520	-0.165909	-0.739916
C24	C	-3.948955	-0.166703	-0.634580
C25	C	-4.156253	0.060374	-0.280385
C26	C	-4.072906	0.201653	-0.281170
C27	C	-4.182784	-0.163072	-0.116540
C28	C	-4.116307	-0.163849	-0.013156
H29	H	-3.983307	-0.752656	-0.126720
O30	O	-4.047183	-0.570814	-0.450456
C31	C	-3.860433	-0.436157	-0.545745
C32	C	-3.841870	-0.489029	-0.451681
H33	H	-3.694454	-0.370045	-0.546775
H34	H	-3.975789	-0.379819	-0.553908
H35	H	-3.924800	-0.519553	-0.606223
H36	H	-3.777444	-0.405711	-0.391147
H37	H	-3.726580	-0.545405	-0.443600
H38	H	-3.876576	-0.511838	-0.128038
H39	H	-4.151597	-0.819370	-0.435755
