data_functionalizedCrystal
_audit_creation_method	'MofGen! by Chris Wilmer'
_symmetry_space_group_name_H-M	'P1'
_symmetry_Int_Tables_number	1
_symmetry_cell_setting	triclinic
loop_
_symmetry_equiv_pos_as_xyz
  x,y,z
_cell_length_a	15.538191
_cell_length_b	27.732048
_cell_length_c	14.750779
_cell_angle_alpha	77.459753
_cell_angle_beta	97.572172
_cell_angle_gamma	64.957374
loop_
_atom_site_label
_atom_site_type_symbol
_atom_site_fract_x
_atom_site_fract_y
_atom_site_fract_z
O1	O	1.231553	-0.143284	-0.079812
O2	O	0.956477	-0.087327	-0.079821
O3	O	1.102563	-0.187172	-0.079798
O4	O	1.085467	-0.043439	-0.079835
O5	O	1.143860	-0.215394	0.079859
O6	O	0.997774	-0.115550	0.079836
O7	O	1.272849	-0.171506	0.079845
Zn8	Zn	1.141868	-0.148009	0.105189
Zn9	Zn	1.087458	-0.110825	-0.105165
O10	O	1.126764	-0.071662	0.079822
C11	C	0.941944	-0.095584	0.000007
C12	C	0.837116	-0.078145	0.000004
C13	C	0.551855	-0.251395	0.000034
C14	C	0.453349	-0.234996	0.000029
C15	C	0.429558	-0.142756	0.000005
C16	C	0.528065	-0.159148	0.000015
C17	C	0.589206	-0.213468	0.000028
C18	C	0.565415	-0.121222	0.000009
C19	C	0.663912	-0.137612	0.000014
C20	C	0.725059	-0.191928	0.000024
C21	C	0.687703	-0.229858	0.000032
C22	C	0.504271	-0.066901	-0.000011
C23	C	0.541621	-0.028974	-0.000017
C24	C	0.640122	-0.045365	-0.000005
C25	C	0.701268	-0.099682	0.000005
C26	C	0.677478	-0.007436	-0.000014
C27	C	0.775975	-0.023826	-0.000009
C28	C	0.799765	-0.116072	0.000010
C29	C	1.122853	-0.219229	0.000033
C30	C	1.121775	-0.272700	0.000041
C31	C	1.201288	-0.625155	-0.000006
C32	C	1.197277	-0.826125	-0.000019
O33	O	1.269986	-0.869854	-0.000059
N34	N	1.110657	-0.830382	-0.000021
C35	C	1.025032	-0.784391	-0.000026
O36	O	0.951262	-0.792622	-0.000038
C37	C	1.029042	-0.583422	-0.000019
C38	C	1.115670	-0.579170	-0.000008
C39	C	1.287908	-0.620901	0.000005
C40	C	1.288911	-0.570663	0.000014
C41	C	1.203294	-0.524678	0.000012
C42	C	1.116673	-0.528931	0.000001
C43	C	0.943416	-0.537431	-0.000031
C44	C	0.944426	-0.487187	-0.000032
C45	C	1.031054	-0.482935	-0.000020
C46	C	1.032059	-0.432708	0.000008
N47	N	1.118679	-0.428450	0.000010
C48	C	1.204296	-0.474435	0.000012
C49	C	1.022934	-0.889905	-0.000028
C50	C	1.021931	-0.940147	-0.000028
C51	C	1.194176	-0.981877	-0.000022
C52	C	1.195179	-0.931635	-0.000016
C53	C	1.109554	-0.885648	-0.000026
C54	C	1.206396	-0.368929	0.000031
C55	C	1.207393	-0.318685	0.000043
C56	C	1.035147	-0.276959	0.000033
C57	C	1.034152	-0.327199	0.000025
C58	C	1.119783	-0.373185	0.000021
O59	O	0.959386	-0.388955	0.000036
O60	O	1.278050	-0.466189	0.000002
C61	C	1.200285	-0.675394	-0.000014
C62	C	1.113664	-0.679647	-0.000025
C63	C	1.028046	-0.633662	-0.000027
C64	C	1.112662	-0.729890	-0.000025
C65	C	1.198279	-0.775875	-0.000023
C66	C	1.284899	-0.771617	-0.000021
C67	C	1.285902	-0.721379	-0.000012
C68	C	0.941427	-0.637920	-0.000029
C69	C	0.940431	-0.688160	-0.000036
C70	C	1.026048	-0.734145	-0.000034
C71	C	1.287382	-0.163249	0.000015
C72	C	1.392208	-0.180687	0.000012
C73	C	1.106473	-0.039604	-0.000011
C74	C	1.107549	0.013868	-0.000025
N75	N	1.179009	-0.173388	0.248751
N76	N	1.050325	-0.085451	-0.248727
C77	C	0.946598	-0.014593	0.600532
C78	C	0.972630	-0.032375	0.701036
C79	C	1.102015	-0.120767	0.701019
C80	C	1.075991	-0.102994	0.600514
C81	C	0.998282	-0.049906	0.550278
C82	C	1.127675	-0.138307	0.550259
C83	C	1.101655	-0.120534	0.449763
C84	C	1.023951	-0.067447	0.399521
C85	C	0.972262	-0.032133	0.449782
C86	C	1.205388	-0.191393	0.600497
C87	C	1.257072	-0.226706	0.550242
C88	C	1.231048	-0.208935	0.449744
C89	C	1.153344	-0.155848	0.399502
C90	C	1.282737	-0.244249	0.399483
C91	C	1.256717	-0.226476	0.298986
C92	C	1.127325	-0.138075	0.299005
H93	H	0.379763	-0.098528	-0.000010
H94	H	0.872873	-0.540881	-0.000046
H95	H	0.491826	0.015254	-0.000031
C96	C	1.380989	-0.670772	0.000061
C97	C	1.457056	-0.656284	0.000094
C98	C	1.542828	-0.702212	0.000167
H99	H	1.369932	-0.681436	-0.055597
H100	H	1.398641	-0.701089	0.055762
H101	H	1.439408	-0.625976	-0.055601
H102	H	1.468144	-0.645626	0.055748
H103	H	1.560479	-0.732529	0.055869
H104	H	1.531761	-0.712872	-0.055491
H105	H	1.594452	-0.692390	0.000199
C106	C	0.397309	-0.049151	-0.000168
C107	C	0.349963	-0.054356	-0.082288
C108	C	0.251434	-0.038016	-0.082459
H109	H	0.366118	-0.011368	-0.000232
H110	H	0.393781	-0.072329	0.055485
H111	H	0.353486	-0.031178	-0.137925
H112	H	0.381125	-0.092134	-0.082240
H113	H	0.247906	-0.061194	-0.026806
H114	H	0.220252	-0.000234	-0.082521
H115	H	0.219300	-0.041551	-0.138171
C116	C	0.851348	-0.437276	-0.000190
C117	C	0.777898	-0.422392	-0.082325
C118	C	0.692140	-0.376424	-0.082495
H119	H	0.864198	-0.406694	-0.000235
H120	H	0.830136	-0.446777	0.055452
H121	H	0.799106	-0.412889	-0.137953
H122	H	0.765018	-0.452961	-0.082298
H123	H	0.670929	-0.385924	-0.026853
H124	H	0.705000	-0.345846	-0.082537
H125	H	0.642292	-0.366323	-0.138217
H126	H	0.627680	0.036793	-0.000034
H127	H	1.276125	-0.406366	0.000023
H128	H	0.963619	-0.330665	0.000043
H129	H	0.965441	-0.239510	0.000035
H130	H	0.849552	-0.160306	0.000026
C131	C	0.816364	0.017423	0.000035
C132	C	0.741746	0.068496	0.000050
C133	C	0.778918	0.106506	0.000100
H134	H	0.839882	0.022857	-0.055625
H135	H	0.868673	0.003129	0.055734
H136	H	0.689454	0.082786	-0.055643
H137	H	0.718221	0.063080	0.055706
H138	H	0.831227	0.092213	0.055799
H139	H	0.802435	0.111935	-0.055561
H140	H	0.728298	0.141162	0.000119
C141	C	1.301535	-0.314172	0.000002
C142	C	1.376289	-0.365195	-0.000027
C143	C	1.463019	-0.361058	-0.000080
H144	H	1.320043	-0.305317	0.055666
H145	H	1.291152	-0.285612	-0.055693
H146	H	1.386673	-0.393746	0.055663
H147	H	1.357813	-0.374060	-0.055686
H148	H	1.452635	-0.332498	-0.055776
H149	H	1.481517	-0.352201	0.055584
H150	H	1.513747	-0.395674	-0.000109
H151	H	1.359452	-0.567207	0.000019
C152	C	1.367240	-0.301849	0.453975
C153	C	1.453594	-0.305915	0.429522
C154	C	1.531459	-0.358966	0.479707
H155	H	1.353328	-0.329533	0.437555
H156	H	1.375405	-0.307389	0.521035
H157	H	1.445429	-0.300381	0.362477
H158	H	1.467537	-0.278243	0.445945
H159	H	1.539624	-0.364506	0.546767
H160	H	1.517538	-0.386646	0.463282
H161	H	1.590061	-0.361730	0.463129
H162	H	1.064040	-0.094847	0.258102
C163	C	1.289122	-0.926914	-0.000162
C164	C	1.273480	-0.884757	-0.082292
C165	C	1.359996	-0.880390	-0.082457
H166	H	1.340034	-0.961455	-0.000209
H167	H	1.307499	-0.917996	0.055483
H168	H	1.255115	-0.893678	-0.137923
H169	H	1.222584	-0.850208	-0.082263
H170	H	1.378374	-0.871472	-0.026811
H171	H	1.410902	-0.914933	-0.082500
H172	H	1.349392	-0.851783	-0.138176
H173	H	1.263889	-1.019327	-0.000020
H174	H	0.601642	-0.295628	0.000050
C175	C	1.341353	-0.284393	0.604670
C176	C	1.320404	-0.325005	0.580217
C177	C	1.398021	-0.378153	0.630326
H178	H	1.349516	-0.290002	0.671734
H179	H	1.400055	-0.287291	0.588169
H180	H	1.261718	-0.322108	0.596724
H181	H	1.312250	-0.319414	0.513162
H182	H	1.456723	-0.381052	0.613826
H183	H	1.406178	-0.383756	0.697387
H184	H	1.383822	-0.405715	0.613735
C185	C	1.377969	-0.821496	0.000026
C186	C	1.454060	-0.807028	0.000055
C187	C	1.539806	-0.852964	0.000104
H188	H	1.366885	-0.832149	-0.055638
H189	H	1.395614	-0.851816	0.055721
H190	H	1.436419	-0.776718	-0.055634
H191	H	1.465175	-0.796381	0.055715
H192	H	1.557451	-0.883284	0.055799
H193	H	1.528712	-0.863614	-0.055561
H194	H	1.591446	-0.843156	0.000132
H195	H	0.951395	-0.943606	-0.000020
H196	H	0.953203	-0.852463	-0.000035
C197	C	0.754001	-0.288807	-0.000149
C198	C	0.715993	-0.298124	-0.082294
C199	C	0.777047	-0.352415	-0.082503
H200	H	0.757194	-0.314972	0.055466
H201	H	0.818010	-0.293145	-0.000202
H202	H	0.652001	-0.293792	-0.082233
H203	H	0.712803	-0.271973	-0.137923
H204	H	0.841056	-0.356753	-0.082556
H205	H	0.780235	-0.378576	-0.026884
H206	H	0.751272	-0.358742	-0.138242
C207	C	0.831943	-0.209625	-0.000121
C208	C	0.836810	-0.175389	-0.082253
C209	C	0.935254	-0.191670	-0.082412
H210	H	0.863106	-0.247389	-0.000162
H211	H	0.864255	-0.206119	0.055523
H212	H	0.804511	-0.178900	-0.137883
H213	H	0.805667	-0.137623	-0.082229
H214	H	0.967566	-0.188164	-0.026768
H215	H	0.966409	-0.229435	-0.082451
H216	H	0.938569	-0.168441	-0.138133
H217	H	1.356444	-0.717924	-0.000003
C218	C	0.862100	0.042995	0.545933
C219	C	0.789731	0.037500	0.488274
C220	C	0.711876	0.090535	0.437974
H221	H	0.885487	0.064202	0.506639
H222	H	0.834977	0.061489	0.590226
H223	H	0.816850	0.019015	0.443986
H224	H	0.766317	0.016303	0.527544
H225	H	0.684753	0.109029	0.482267
H226	H	0.735272	0.111737	0.398686
H227	H	0.662761	0.086813	0.398854
C228	C	1.312722	-0.264857	0.244425
C229	C	1.304440	-0.314125	0.268808
C230	C	1.356007	-0.349479	0.218537
H231	H	1.379961	-0.273602	0.260824
H232	H	1.286064	-0.246674	0.177378
H233	H	1.331102	-0.332304	0.335840
H234	H	1.237214	-0.305397	0.252406
H235	H	1.329349	-0.331296	0.151489
H236	H	1.423242	-0.358219	0.234939
H237	H	1.350387	-0.382909	0.235066
H238	H	0.869885	-0.691615	-0.000038
C239	C	0.848377	-0.588069	0.000025
C240	C	0.772321	-0.602563	0.000047
C241	C	0.686589	-0.556659	0.000116
H242	H	0.830645	-0.557719	-0.055630
H243	H	0.859544	-0.577454	0.055729
H244	H	0.761154	-0.613170	-0.055652
H245	H	0.790021	-0.632905	0.055697
H246	H	0.697755	-0.546044	0.055820
H247	H	0.668866	-0.526312	-0.055540
H248	H	0.634977	-0.566488	0.000139
H249	H	1.002770	-0.052976	0.317690
C250	C	0.888004	0.025524	0.395105
C251	C	0.922926	0.056581	0.337374
C252	C	0.845338	0.109690	0.286981
H253	H	0.860884	0.044084	0.439313
H254	H	0.838807	0.021922	0.355857
H255	H	0.972105	0.060185	0.376618
H256	H	0.950038	0.038038	0.293148
H257	H	0.796141	0.106088	0.247733
H258	H	0.818222	0.128244	0.331196
H259	H	0.869019	0.130767	0.247798
H260	H	0.930537	-0.003613	0.741948
H261	H	0.422944	-0.265884	0.000032
H262	H	1.165289	-0.163991	0.741932
C263	C	1.233469	-0.210708	0.709609
C264	C	1.153190	-0.210799	0.742881
C265	C	1.179025	-0.228597	0.843388
H266	H	1.251793	-0.186043	0.732460
H267	H	1.287121	-0.247393	0.732366
H268	H	1.099554	-0.174120	0.720133
H269	H	1.134854	-0.235466	0.720056
H270	H	1.232677	-0.265282	0.866146
H271	H	1.197350	-0.203929	0.866230
H272	H	1.124563	-0.228665	0.865977
