data_functionalizedCrystal
_audit_creation_method	'MofGen! by Chris Wilmer'
_symmetry_space_group_name_H-M	'P1'
_symmetry_Int_Tables_number	1
_symmetry_cell_setting	triclinic
loop_
_symmetry_equiv_pos_as_xyz
  x,y,z
_cell_length_a	8.597366
_cell_length_b	17.019294
_cell_length_c	7.681481
_cell_angle_alpha	80.410874
_cell_angle_beta	103.474720
_cell_angle_gamma	84.889302
loop_
_atom_site_label
_atom_site_type_symbol
_atom_site_fract_x
_atom_site_fract_y
_atom_site_fract_z
O1	O	2.097875	0.109934	0.155185
O2	O	1.633589	0.122602	0.082822
O3	O	1.880487	0.000539	0.138798
O4	O	1.850977	0.231997	0.099209
O5	O	1.910877	-0.014519	0.438551
O6	O	1.663979	0.107544	0.382574
O7	O	2.128265	0.094876	0.454938
Zn8	Zn	1.900947	0.098819	0.466349
Zn9	Zn	1.860907	0.118659	0.071411
O10	O	1.881366	0.216939	0.398961
C11	C	1.589410	0.114552	0.223769
C12	C	1.412494	0.112989	0.197164
C13	C	1.895163	-0.036608	0.293085
C14	C	1.893596	-0.124860	0.306224
C15	C	1.876298	-0.158109	0.149004
C16	C	1.874816	-0.241032	0.161353
C17	C	1.890643	-0.290704	0.330927
C18	C	1.907937	-0.257450	0.488159
C19	C	1.909408	-0.174528	0.475806
C20	C	1.887021	-0.541485	0.376398
C21	C	1.885554	-0.624412	0.388740
C22	C	1.852430	-0.607987	0.061933
C23	C	1.853911	-0.525065	0.049596
C24	C	1.871197	-0.491818	0.206826
C25	C	1.889134	-0.375465	0.343555
C26	C	1.872695	-0.407058	0.194195
C27	C	2.172444	0.102926	0.313987
C28	C	2.349358	0.104490	0.340580
C29	C	1.866691	0.254086	0.244671
C30	C	1.868257	0.342339	0.231520
N31	N	1.928284	0.085279	0.735885
N32	N	1.833582	0.132193	-0.198122
H33	H	1.863418	-0.117671	0.010920
H34	H	1.430661	0.098408	0.483740
H35	H	1.898436	-0.664854	0.526833
H36	H	1.331202	0.119065	0.054015
Cl37	Cl	1.908728	-0.499697	0.574058
Cl38	Cl	1.684323	0.206126	0.651921
H39	H	1.860737	-0.268099	0.033328
Cl40	Cl	1.834017	-0.462625	-0.163591
Cl41	Cl	2.077567	0.011351	0.885851
H42	H	1.838353	-0.635067	-0.066075
Cl43	Cl	1.927816	-0.319895	0.701336
H44	H	1.923471	-0.147458	0.603828
Cl45	Cl	1.852807	-0.344612	-0.018975
H46	H	1.902026	-0.415918	0.481624
