data_functionalizedCrystal
_audit_creation_method	'MofGen! by Chris Wilmer'
_symmetry_space_group_name_H-M	'P1'
_symmetry_Int_Tables_number	1
_symmetry_cell_setting	triclinic
loop_
_symmetry_equiv_pos_as_xyz
  x,y,z
_cell_length_a	18.215407
_cell_length_b	18.215399
_cell_length_c	11.169416
_cell_angle_alpha	90.024035
_cell_angle_beta	89.992201
_cell_angle_gamma	89.986109
loop_
_atom_site_label
_atom_site_type_symbol
_atom_site_fract_x
_atom_site_fract_y
_atom_site_fract_z
Zn1	Zn	1.125124	-0.416091	0.477872
Zn2	Zn	1.125071	-0.293038	0.678589
Zn3	Zn	1.002063	-0.293044	0.477910
Zn4	Zn	1.002054	-0.416069	0.678503
O5	O	1.063578	-0.354560	0.578218
O6	O	1.228102	-0.399774	0.504518
O7	O	1.108735	-0.190054	0.652020
O8	O	1.018414	-0.309378	0.309955
O9	O	1.228062	-0.309367	0.651984
O10	O	1.108827	-0.399780	0.309928
O11	O	1.018362	-0.190059	0.504582
O12	O	0.899078	-0.309357	0.504498
O13	O	1.018398	-0.519056	0.651838
O14	O	0.899071	-0.399743	0.651874
O15	O	1.108818	-0.519072	0.504435
O16	O	1.108726	-0.309347	0.846527
O17	O	1.018346	-0.399737	0.846464
C18	C	0.872372	-0.354549	0.578182
C19	C	0.790573	-0.354562	0.578195
C20	C	0.525531	-0.401560	0.655083
C21	C	0.602390	-0.401556	0.655073
C22	C	0.602366	-0.307574	0.501381
C23	C	0.525509	-0.307574	0.501398
C24	C	0.487093	-0.354572	0.578247
C25	C	0.640810	-0.354568	0.578220
C26	C	0.724143	-0.354563	0.578208
C27	C	0.403754	-0.354575	0.578261
C28	C	1.063613	-0.546513	0.578123
C29	C	1.063628	-0.628312	0.578082
C30	C	1.016610	-0.816510	0.501259
C31	C	1.016623	-0.893369	0.501235
C32	C	1.110733	-0.893353	0.654762
C33	C	1.110716	-0.816496	0.654791
C34	C	1.063656	-0.778076	0.578033
C35	C	1.063686	-0.931792	0.577979
C36	C	1.063700	-1.015126	0.577954
C37	C	1.063640	-0.694737	0.578060
C38	C	1.255531	-0.354572	0.578256
C39	C	1.337330	-0.354577	0.578272
C40	C	1.063549	-0.354555	0.890043
C41	C	1.063604	-0.354577	1.023443
C42	C	1.063586	-0.163354	0.578227
C43	C	1.063714	-0.081556	0.577930
C44	C	1.063628	-0.354582	0.265176
C45	C	1.063649	-0.354591	0.131776
H46	H	0.633654	-0.269312	0.438812
H47	H	1.149048	-0.924644	0.717254
H48	H	0.494255	-0.439828	0.717659
H49	H	1.149028	-0.785202	0.717314
H50	H	0.494212	-0.269307	0.438828
H51	H	0.633682	-0.439818	0.717641
H52	H	0.978313	-0.924658	0.438719
H53	H	0.978291	-0.785231	0.438758
