data_functionalizedCrystal
_audit_creation_method	'MofGen! by Chris Wilmer'
_symmetry_space_group_name_H-M	'P1'
_symmetry_Int_Tables_number	1
_symmetry_cell_setting	triclinic
loop_
_symmetry_equiv_pos_as_xyz
  x,y,z
_cell_length_a	19.805407
_cell_length_b	10.686285
_cell_length_c	19.805399
_cell_angle_alpha	85.610534
_cell_angle_beta	89.982197
_cell_angle_gamma	85.628966
loop_
_atom_site_label
_atom_site_type_symbol
_atom_site_fract_x
_atom_site_fract_y
_atom_site_fract_z
Zn1	Zn	1.055504	-0.502467	-0.362074
Zn2	Zn	1.064140	-0.713478	-0.240229
Zn3	Zn	0.942319	-0.502491	-0.248901
Zn4	Zn	0.951000	-0.713401	-0.353382
O5	O	1.003241	-0.607959	-0.301147
O6	O	1.151367	-0.530479	-0.345919
O7	O	1.047962	-0.685533	-0.146661
O8	O	0.950086	-0.325913	-0.271180
O9	O	1.157712	-0.685509	-0.256400
O10	O	1.033242	-0.325894	-0.354328
O11	O	0.958461	-0.530522	-0.153032
O12	O	0.848753	-0.530447	-0.262753
O13	O	0.964881	-0.685378	-0.449254
O14	O	0.855131	-0.685402	-0.339515
O15	O	1.041660	-0.530405	-0.455639
O16	O	1.056379	-0.890043	-0.247972
O17	O	0.973256	-0.889987	-0.331106
C18	C	0.827383	-0.607920	-0.301132
C19	C	0.752152	-0.607933	-0.301140
C20	C	0.713510	-0.527352	-0.347813
C21	C	0.642822	-0.527359	-0.347815
C22	C	0.610777	-0.607954	-0.301148
C23	C	0.649424	-0.688538	-0.254470
C24	C	0.720110	-0.688524	-0.254465
C25	C	0.364353	-0.688595	-0.254489
C26	C	0.293661	-0.688605	-0.254498
C27	C	0.287065	-0.527430	-0.347839
C28	C	0.357751	-0.527416	-0.347834
C29	C	0.396391	-0.607995	-0.301154
C30	C	0.473039	-0.607985	-0.301151
C31	C	0.534131	-0.607971	-0.301153
C32	C	1.016715	-0.935799	-0.287670
C33	C	1.022541	-1.076050	-0.281927
C34	C	1.179785	-0.608000	-0.301162
C35	C	1.255018	-0.608017	-0.301168
C36	C	1.003276	-0.607880	-0.477693
C37	C	1.003290	-0.607846	-0.552926
C38	C	0.989732	-0.278839	-0.314691
C39	C	0.983976	-0.138588	-0.320463
C40	C	1.043270	-0.527148	-0.591597
C41	C	1.043275	-0.527111	-0.662287
C42	C	1.003304	-0.607780	-0.694304
C43	C	0.963321	-0.688482	-0.655629
C44	C	0.963312	-0.688511	-0.584941
C45	C	0.963354	-0.688364	-0.940707
C46	C	0.963367	-0.688331	-1.011401
C47	C	1.043317	-0.526964	-1.018053
C48	C	1.043308	-0.526993	-0.947365
C49	C	1.003322	-0.607690	-0.908696
C50	C	1.003316	-0.607727	-0.832046
C51	C	1.003314	-0.607750	-0.770953
C52	C	1.003242	-0.607947	-0.125291
C53	C	1.003343	-0.607626	-0.050073
H54	H	0.255595	-0.461813	-0.385845
H55	H	0.946502	-1.084834	-0.357850
O56	O	0.618272	-0.766963	-0.209228
C57	C	0.580746	-0.848543	-0.244342
H58	H	0.602397	-0.856464	-0.297316
H59	H	0.583929	-0.945590	-0.215787
H60	H	0.525569	-0.809547	-0.248317
H61	H	1.060013	-1.129812	-0.244533
H62	H	1.075873	-0.461253	-1.049546
H63	H	1.075821	-0.461461	-0.565533
O64	O	0.924438	-0.766568	-0.903121
C65	C	0.877781	-0.694725	-0.865172
H66	H	0.869525	-0.595338	-0.890571
H67	H	0.827564	-0.740347	-0.862479
H68	H	0.898525	-0.690395	-0.811783
H69	H	1.075832	-0.461401	-0.693769
O70	O	1.082152	-0.448512	-0.916373
C71	C	1.117453	-0.377296	-0.965663
H72	H	1.089558	-0.372900	-1.016228
H73	H	1.120588	-0.277888	-0.949332
H74	H	1.170757	-0.423509	-0.971286
O75	O	0.924472	-0.766732	-1.042398
C76	C	0.889188	-0.837985	-0.993110
H77	H	0.884715	-0.786324	-0.944847
H78	H	0.836414	-0.851413	-1.012977
H79	H	0.917901	-0.933831	-0.981650
O80	O	0.924594	-0.766977	-0.686755
C81	C	0.966478	-0.848448	-0.724308
H82	H	1.020104	-0.856266	-0.702691
H83	H	0.945982	-0.945548	-0.721109
H84	H	0.967217	-0.809413	-0.779487
H85	H	0.383839	-0.461791	-0.385837
O86	O	0.924469	-0.767037	-0.547473
C87	C	0.889183	-0.838218	-0.590889
H88	H	0.917088	-0.842558	-0.641106
H89	H	0.886051	-0.937647	-0.566374
H90	H	0.835877	-0.792011	-0.600295
H91	H	0.739596	-0.461726	-0.385817
H92	H	0.611363	-0.461744	-0.385822
H93	H	0.267572	-0.754239	-0.216493
O94	O	0.401782	-0.766989	-0.209121
C95	C	0.358337	-0.838102	-0.167925
H96	H	0.308145	-0.842551	-0.195471
H97	H	0.382848	-0.937498	-0.156525
H98	H	0.348887	-0.791766	-0.118467
H99	H	0.751572	-0.754141	-0.216459
