data_functionalizedCrystal
_audit_creation_method	'MofGen! by Chris Wilmer'
_symmetry_space_group_name_H-M	'P1'
_symmetry_Int_Tables_number	1
_symmetry_cell_setting	triclinic
loop_
_symmetry_equiv_pos_as_xyz
  x,y,z
_cell_length_a	15.538191
_cell_length_b	19.188924
_cell_length_c	14.750779
_cell_angle_alpha	77.399495
_cell_angle_beta	97.572172
_cell_angle_gamma	65.207029
loop_
_atom_site_label
_atom_site_type_symbol
_atom_site_fract_x
_atom_site_fract_y
_atom_site_fract_z
O1	O	1.230322	-0.206653	-0.079826
O2	O	0.955727	-0.125949	-0.079830
O3	O	1.100955	-0.269951	-0.079816
O4	O	1.085094	-0.062651	-0.079839
O5	O	1.142009	-0.310655	0.079838
O6	O	0.996781	-0.166653	0.079824
O7	O	1.271376	-0.247357	0.079828
Zn8	Zn	1.140597	-0.213468	0.105175
Zn9	Zn	1.086506	-0.159838	-0.105176
O10	O	1.126148	-0.103355	0.079815
C11	C	0.941123	-0.137857	-0.000003
C12	C	0.836445	-0.112706	-0.000004
C13	C	0.549695	-0.362577	0.000009
C14	C	0.451330	-0.338926	0.000005
C15	C	0.428331	-0.205892	-0.000009
C16	C	0.526697	-0.229534	-0.000001
C17	C	0.587372	-0.307877	0.000007
C18	C	0.564374	-0.174833	-0.000003
C19	C	0.662730	-0.198472	-0.000000
C20	C	0.723410	-0.276811	0.000005
C21	C	0.685728	-0.331516	0.000010
C22	C	0.503696	-0.096489	-0.000018
C23	C	0.541372	-0.041789	-0.000020
C24	C	0.639732	-0.065429	-0.000010
C25	C	0.700412	-0.143768	-0.000005
C26	C	0.677414	-0.010724	-0.000015
C27	C	0.775770	-0.034363	-0.000012
C28	C	0.798768	-0.167406	-0.000002
C29	C	1.120970	-0.316186	0.000011
C30	C	1.119432	-0.393305	0.000014
C31	C	1.096336	-0.407336	-0.087014
C32	C	1.094875	-0.479790	-0.087021
C33	C	1.116532	-0.538219	0.000004
C34	C	1.139626	-0.524181	0.087043
C35	C	1.141076	-0.451724	0.087048
N36	N	1.184575	-0.687303	0.064776
N37	N	1.183198	-0.756133	0.064765
C38	C	1.112161	-0.756529	-0.000005
N39	N	1.042562	-0.685494	-0.064779
N40	N	1.043943	-0.616658	-0.064771
C41	C	1.114961	-0.616789	0.000009
C42	C	1.087478	-0.849121	-0.087047
C43	C	1.086013	-0.921576	-0.087050
C44	C	1.130774	-0.965969	0.087017
C45	C	1.132229	-0.893512	0.087018
C46	C	1.110585	-0.835093	-0.000016
C47	C	1.285979	-0.235448	-0.000001
C48	C	1.390656	-0.260598	-0.000006
C49	C	1.106132	-0.057120	-0.000015
C50	C	1.107668	0.020001	-0.000024
N51	N	1.177519	-0.250071	0.248734
N52	N	1.049591	-0.123243	-0.248735
C53	C	0.946472	-0.021047	0.600531
C54	C	0.972352	-0.046693	0.701032
C55	C	1.100978	-0.174178	0.701007
C56	C	1.075106	-0.148544	0.600503
C57	C	0.997853	-0.071977	0.550273
C58	C	1.126486	-0.199475	0.550246
C59	C	1.100620	-0.173841	0.449751
C60	C	1.023372	-0.097277	0.399514
C61	C	0.971986	-0.046344	0.449778
C62	C	1.203743	-0.276039	0.600477
C63	C	1.255124	-0.326970	0.550220
C64	C	1.229253	-0.301339	0.449723
C65	C	1.152005	-0.224774	0.399486
C66	C	1.280639	-0.352272	0.399459
C67	C	1.254772	-0.326638	0.298964
C68	C	1.126138	-0.199140	0.298991
H69	H	0.423608	-0.077244	-0.000023
H70	H	0.806449	0.010177	-0.000005
C71	C	0.616445	-0.448760	0.000022
N72	N	0.666719	-0.513670	0.000029
H73	H	0.909073	0.016002	0.408879
H74	H	1.343545	-0.414610	0.440369
H75	H	0.420659	-0.383475	0.000005
H76	H	1.296612	-0.368111	0.258044
C77	C	0.474621	0.044386	-0.000023
N78	N	0.424347	0.109292	-0.000021
H79	H	0.883559	0.041299	0.559632
C80	C	1.063656	-0.784853	-0.182785
N81	N	1.045709	-0.736446	-0.254896
H82	H	1.078709	-0.359773	-0.157884
C83	C	1.163446	-0.588454	0.182772
N84	N	1.181384	-0.636863	0.254877
H85	H	1.159881	-0.440302	0.157919
C86	C	0.361580	-0.119718	-0.000013
N87	N	0.311305	-0.054811	-0.000011
H88	H	0.627996	0.053065	-0.000031
H89	H	0.930506	-0.005211	0.741947
C90	C	1.041118	-0.114931	0.243733
N91	N	0.977072	-0.051513	0.202112
H92	H	1.076061	-0.491214	-0.157892
H93	H	1.002315	-0.076405	0.317684
H94	H	1.163880	-0.236519	0.741916
C95	C	1.157648	-0.878082	0.182757
N96	N	1.176792	-0.866461	0.254872
C97	C	1.060651	-0.937023	-0.182793
N98	N	1.041568	-0.948664	-0.254908
H99	H	1.224804	-0.296906	0.682307
H100	H	0.735135	-0.395312	0.000022
C101	C	1.154596	-1.030237	0.182746
N102	N	1.172538	-1.078647	0.254852
H103	H	0.848175	-0.231203	0.000010
C104	C	0.831606	-0.302815	0.000009
N105	N	0.913100	-0.322401	0.000015
C106	C	1.340097	-0.411194	0.605484
N107	N	1.404097	-0.474633	0.647108
