data_functionalizedCrystal
_audit_creation_method	'MofGen! by Chris Wilmer'
_symmetry_space_group_name_H-M	'P1'
_symmetry_Int_Tables_number	1
_symmetry_cell_setting	triclinic
loop_
_symmetry_equiv_pos_as_xyz
  x,y,z
_cell_length_a	16.120484
_cell_length_b	13.032831
_cell_length_c	13.032268
_cell_angle_alpha	90.886977
_cell_angle_beta	80.357249
_cell_angle_gamma	93.921479
loop_
_atom_site_label
_atom_site_type_symbol
_atom_site_fract_x
_atom_site_fract_y
_atom_site_fract_z
Zn1	Zn	-0.562103	-1.458766	0.811459
Zn2	Zn	-0.686112	-1.471747	0.646236
Zn3	Zn	-0.527333	-1.311081	0.615806
Zn4	Zn	-0.681612	-1.278313	0.796116
O5	O	-0.614290	-1.379976	0.717404
O6	O	-0.594988	-1.603247	0.808698
O7	O	-0.652382	-1.469580	0.497592
O8	O	-0.415480	-1.338953	0.635446
O9	O	-0.686097	-1.612784	0.687309
O10	O	-0.441026	-1.447456	0.779192
O11	O	-0.535727	-1.351539	0.475236
O12	O	-0.531364	-1.163974	0.620568
O13	O	-0.678427	-1.283104	0.942758
O14	O	-0.644712	-1.139900	0.753041
O15	O	-0.590624	-1.415682	0.954031
O16	O	-0.801980	-1.437806	0.672431
O17	O	-0.798674	-1.295691	0.782547
C18	C	-0.583777	-1.114921	0.681838
C19	C	-0.570746	-1.001525	0.666648
C20	C	-0.830530	-1.364626	0.729153
C21	C	-0.923053	-1.358148	0.734226
C22	C	-0.637902	-1.344290	0.986938
C23	C	-0.647964	-1.329082	1.101797
C24	C	-1.092455	-1.346324	0.743510
C25	C	-1.135307	-1.413810	0.691340
C26	C	-1.229569	-1.407231	0.696506
C27	C	-0.998185	-1.352901	0.738345
C28	C	-0.397210	-1.395412	0.705636
C29	C	-0.304704	-1.401989	0.700622
C30	C	-0.644923	-1.646067	0.753110
C31	C	-0.657977	-1.759458	0.768325
C32	C	-0.621091	-0.939092	0.725332
C33	C	-0.607624	-0.821890	0.709634
C34	C	-0.590717	-1.415587	0.448924
C35	C	-0.580443	-1.431009	0.334079
C36	C	-0.609007	-1.387900	1.158582
C37	C	-0.619405	-1.372183	1.277296
H38	H	-1.101202	-1.476527	0.642796
C39	C	-1.137777	-1.262651	0.808328
C40	C	-1.079721	-1.201687	0.855466
C41	C	-1.121453	-1.124607	0.915191
H42	H	-1.163169	-1.221049	0.764723
H43	H	-1.180069	-1.293327	0.860488
H44	H	-1.037444	-1.171013	0.803313
H45	H	-1.054326	-1.243261	0.899089
H46	H	-1.163745	-1.155283	0.967352
H47	H	-1.146844	-1.083012	0.871579
H48	H	-1.082070	-1.083240	0.947190
C49	C	-0.702834	-1.246579	1.154229
C50	C	-0.768229	-1.292411	1.226821
C51	C	-0.818801	-1.216443	1.275127
H52	H	-0.669648	-1.198817	1.188735
H53	H	-0.725982	-1.211729	1.103245
H54	H	-0.745082	-1.327245	1.277798
H55	H	-0.801436	-1.340166	1.192342
H56	H	-0.841948	-1.181592	1.224143
H57	H	-0.785607	-1.168685	1.309627
H58	H	-0.863181	-1.247530	1.324379
H59	H	-0.660453	-1.310182	1.316561
C60	C	-0.691880	-0.983302	0.807914
C61	C	-0.735705	-0.902989	0.859029
C62	C	-0.800914	-0.943672	0.935122
H63	H	-0.729452	-1.027533	0.775929
H64	H	-0.668810	-1.021136	0.856860
H65	H	-0.758775	-0.865171	0.810092
H66	H	-0.698157	-0.858751	0.891037
H67	H	-0.777844	-0.981506	0.984068
H68	H	-0.838479	-0.987903	0.903128
H69	H	-0.830652	-0.889185	0.969819
H70	H	-0.539383	-1.492999	1.294813
H71	H	-0.554544	-0.788578	0.647771
C72	C	-0.500058	-0.956918	0.584166
C73	C	-0.500778	-0.849542	0.584962
C74	C	-0.435682	-0.808421	0.508977
H75	H	-0.447418	-0.976164	0.598581
H76	H	-0.508064	-0.982606	0.517656
H77	H	-0.492765	-0.823864	0.651457
H78	H	-0.553403	-0.830268	0.570535
H79	H	-0.443689	-0.834108	0.442468
H80	H	-0.383047	-0.827673	0.523400
H81	H	-0.436167	-0.735563	0.509501
H82	H	-0.711049	-0.792768	0.830198
C83	C	-0.554192	-1.470419	1.106072
C84	C	-0.488821	-1.424599	1.033440
C85	C	-0.438317	-1.500588	0.985041
H86	H	-0.531012	-1.505330	1.156971
H87	H	-0.587459	-1.518129	1.071592
H88	H	-0.455560	-1.376907	1.067920
H89	H	-0.511977	-1.389694	0.982521
H90	H	-0.471583	-1.548298	0.950560
H91	H	-0.415143	-1.535494	1.035947
H92	H	-0.393962	-1.469511	0.935748
