data_functionalizedCrystal
_audit_creation_method	'MofGen! by Chris Wilmer'
_symmetry_space_group_name_H-M	'P1'
_symmetry_Int_Tables_number	1
_symmetry_cell_setting	triclinic
loop_
_symmetry_equiv_pos_as_xyz
  x,y,z
_cell_length_a	16.992694
_cell_length_b	23.532407
_cell_length_c	16.053802
_cell_angle_alpha	92.544672
_cell_angle_beta	87.249047
_cell_angle_gamma	86.758451
loop_
_atom_site_label
_atom_site_type_symbol
_atom_site_fract_x
_atom_site_fract_y
_atom_site_fract_z
O1	O	1.042772	0.118472	-0.069339
O2	O	1.542772	0.618472	0.430661
O3	O	0.814498	0.117146	-0.069363
O4	O	1.314498	0.617146	0.430637
O5	O	0.935518	0.035219	-0.069335
O6	O	1.435518	0.535219	0.430665
O7	O	0.921752	0.200399	-0.069367
O8	O	1.421752	0.700399	0.430633
O9	O	0.928857	0.039709	0.069523
O10	O	1.428857	0.539709	0.569523
O11	O	0.807837	0.121636	0.069494
O12	O	1.307837	0.621636	0.569494
O13	O	1.036111	0.122961	0.069519
O14	O	1.536111	0.622961	0.569519
Zn15	Zn	0.920917	0.123011	0.091553
Zn16	Zn	1.420917	0.623011	0.591553
Zn17	Zn	0.929693	0.117096	-0.091397
Zn18	Zn	1.429693	0.617096	0.408603
O19	O	0.915091	0.204888	0.069490
O20	O	1.415091	0.704888	0.569490
C21	C	0.781969	0.117687	0.000063
C22	C	1.281969	0.617687	0.500063
C23	C	0.694964	0.112604	0.000054
C24	C	1.194964	0.612604	0.500054
C25	C	0.644342	0.161650	0.000045
C26	C	1.144342	0.661650	0.500045
C27	C	0.562592	0.156871	0.000058
C28	C	1.062592	0.656871	0.500058
C29	C	0.531466	0.103045	0.000073
C30	C	1.031466	0.603045	0.500073
C31	C	0.582095	0.053995	0.000084
C32	C	1.082095	0.553995	0.500084
C33	C	0.663843	0.058775	0.000078
C34	C	1.163843	0.558775	0.500078
C35	C	0.288022	0.083234	0.000099
C36	C	0.788022	0.583234	0.500099
C37	C	0.206267	0.078457	0.000103
C38	C	0.706267	0.578457	0.500103
C39	C	0.186770	0.181334	0.000078
C40	C	0.686770	0.681334	0.500078
C41	C	0.268521	0.186109	0.000066
C42	C	0.768521	0.686109	0.500066
C43	C	0.319142	0.137059	0.000082
C44	C	0.819142	0.637059	0.500082
N45	N	0.447905	0.098158	0.000083
N46	N	0.947905	0.598158	0.500083
N47	N	0.402702	0.141946	0.000078
N48	N	0.902702	0.641946	0.500078
C49	C	0.931837	0.016231	0.000096
C50	C	1.431837	0.516231	0.500096
C51	C	0.930783	-0.047038	0.000102
C52	C	1.430783	0.452962	0.500102
C53	C	0.995791	-0.442917	0.000063
C54	C	1.495791	0.057083	0.500063
C55	C	0.994812	-0.502366	0.000057
C56	C	1.494812	-0.002366	0.500057
O57	O	1.055075	-0.536121	0.000033
O58	O	1.555075	-0.036121	0.500033
N59	N	0.922865	-0.528562	0.000050
N60	N	1.422865	-0.028562	0.500050
C61	C	0.851893	-0.495307	0.000041
C62	C	1.351893	0.004693	0.500041
O63	O	0.790607	-0.523048	0.000033
O64	O	1.290607	-0.023048	0.500033
C65	C	0.852873	-0.435859	0.000041
C66	C	1.352873	0.064141	0.500041
C67	C	0.924824	-0.409666	0.000057
C68	C	1.424824	0.090334	0.500057
C69	C	1.067736	-0.416723	0.000078
C70	C	1.567736	0.083277	0.500078
C71	C	1.068715	-0.357278	0.000086
C72	C	1.568715	0.142722	0.500086
C73	C	0.997748	-0.324027	0.000079
C74	C	1.497748	0.175973	0.500079
C75	C	0.925803	-0.350221	0.000065
C76	C	1.425803	0.149779	0.500065
C77	C	0.781902	-0.402605	0.000026
C78	C	1.281902	0.097395	0.500026
C79	C	0.782889	-0.343154	0.000026
C80	C	1.282889	0.156846	0.500026
C81	C	0.854840	-0.316960	0.000042
C82	C	1.354840	0.183040	0.500042
C83	C	0.855814	-0.257525	0.000066
C84	C	1.355814	0.242475	0.500066
N85	N	0.927761	-0.231328	0.000073
N86	N	1.427761	0.268672	0.500073
C87	C	0.998728	-0.264579	0.000080
C88	C	1.498728	0.235421	0.500080
C89	C	0.849841	-0.620151	0.000038
C90	C	1.349841	-0.120151	0.500038
C91	C	0.848860	-0.679598	0.000044
C92	C	1.348860	-0.179598	0.500044
C93	C	0.991779	-0.686653	0.000058
C94	C	1.491779	-0.186653	0.500058
C95	C	0.992759	-0.627205	0.000059
C96	C	1.492759	-0.127205	0.500059
C97	C	0.921788	-0.593955	0.000045
C98	C	1.421788	-0.093955	0.500045
C99	C	1.000777	-0.139740	0.000097
C100	C	1.500777	0.360260	0.500097
C101	C	1.001749	-0.080289	0.000109
C102	C	1.501749	0.419711	0.500109
C103	C	0.858831	-0.073240	0.000090
C104	C	1.358831	0.426760	0.500090
C105	C	0.857858	-0.132685	0.000083
C106	C	1.357858	0.367315	0.500083
C107	C	0.928838	-0.165934	0.000084
C108	C	1.428838	0.334066	0.500084
O109	O	0.795583	-0.223734	0.000087
O110	O	1.295583	0.276266	0.500087
O111	O	1.060004	-0.236831	0.000076
O112	O	1.560004	0.263169	0.500076
C113	C	1.068641	0.122420	0.000091
C114	C	1.568641	0.622420	0.500091
C115	C	1.155645	0.127503	0.000094
C116	C	1.655645	0.627503	0.500094
C117	C	0.918773	0.223877	0.000058
C118	C	1.418773	0.723877	0.500058
C119	C	0.919827	0.287146	0.000046
C120	C	1.419827	0.787146	0.500046
N121	N	0.914933	0.127048	0.216412
N122	N	1.414933	0.627048	0.716412
N123	N	0.935683	0.113055	-0.216256
N124	N	1.435683	0.613055	0.283744
C125	C	0.966445	0.092202	0.260118
C126	C	1.466445	0.592202	0.760118
C127	C	0.962267	0.095032	0.347524
C128	C	1.462267	0.595032	0.847524
C129	C	0.906579	0.132711	0.391222
C130	C	1.406579	0.632711	0.891222
C131	C	0.855061	0.167558	0.347510
C132	C	1.355061	0.667558	0.847510
C133	C	0.859236	0.164725	0.260106
C134	C	1.359236	0.664725	0.760106
C135	C	0.888340	0.145069	0.652627
C136	C	1.388340	0.645069	1.152627
C137	C	0.884170	0.147901	0.740038
C138	C	1.384170	0.647901	1.240038
C139	C	0.991376	0.075374	0.740045
C140	C	1.491376	0.575374	1.240045
C141	C	0.995550	0.072546	0.652640
C142	C	1.495550	0.572546	1.152640
C143	C	0.944029	0.107392	0.608935
C144	C	1.444029	0.607392	1.108935
N145	N	0.902308	0.135606	0.480565
N146	N	1.402308	0.635606	0.980565
N147	N	0.948296	0.104494	0.519594
N148	N	1.448296	0.604494	1.019594
H149	H	0.669678	0.205481	0.000032
H150	H	1.169678	0.705481	0.500032
N151	N	0.302080	0.244168	0.000040
N152	N	0.802080	0.744168	0.500040
H153	H	0.281130	0.267492	0.051508
H154	H	0.781130	0.767492	0.551508
H155	H	0.361545	0.239710	0.000001
H156	H	0.861545	0.739710	0.500001
N157	N	1.046937	0.037787	0.787181
N158	N	1.546937	0.537787	1.287181
H159	H	1.103239	0.046407	0.771959
H160	H	1.603239	0.546407	1.271959
H161	H	1.035776	0.045315	0.849167
H162	H	1.535776	0.545315	1.349167
N163	N	1.144283	-0.452584	0.000091
N164	N	1.644283	0.047416	0.500091
H165	H	1.178167	-0.445438	-0.051376
H166	H	1.678167	0.054562	0.448624
H167	H	1.173151	-0.442097	0.051607
H168	H	1.673151	0.057903	0.551607
H169	H	0.799269	-0.154012	0.000093
H170	H	1.299269	0.345988	0.500093
N171	N	1.070362	-0.598955	0.000076
N172	N	1.570362	-0.098955	0.500076
H173	H	1.115166	-0.629046	0.000083
H174	H	1.615166	-0.129046	0.500083
H175	H	1.076356	-0.576105	-0.051400
H176	H	1.576356	-0.076105	0.448600
H177	H	0.809714	0.198235	0.383094
H178	H	1.309714	0.698235	0.883094
H179	H	0.705059	0.018836	0.000085
H180	H	1.205059	0.518836	0.500085
N181	N	1.079356	-0.052038	0.000130
N182	N	1.579356	0.447962	0.500130
H183	H	1.124162	-0.082127	0.000131
H184	H	1.624162	0.417873	0.500131
H185	H	1.085348	-0.029183	-0.051341
H186	H	1.585348	0.470817	0.448659
N187	N	0.803673	0.202306	0.212961
N188	N	1.303673	0.702306	0.712961
H189	H	0.767761	0.226606	0.253905
H190	H	1.267761	0.726606	0.753905
H191	H	0.835210	0.227677	0.176680
H192	H	1.335210	0.727677	0.676680
H193	H	0.145546	0.221267	0.000067
H194	H	0.645546	0.721267	0.500067
N195	N	1.077332	-0.175596	0.000099
N196	N	1.577332	0.324404	0.500099
H197	H	1.123051	-0.149974	0.000111
H198	H	1.623051	0.350026	0.500111
H199	H	1.077571	-0.198757	0.051573
H200	H	1.577571	0.301243	0.551573
N201	N	0.706344	-0.307285	0.000016
N202	N	1.206344	0.192715	0.500016
H203	H	0.677403	-0.317744	-0.051464
H204	H	1.177403	0.182256	0.448536
H205	H	0.672524	-0.314444	0.051519
H206	H	1.172524	0.185556	0.551519
H207	H	0.180928	0.034624	0.000115
H208	H	0.680928	0.534624	0.500115
N209	N	0.508028	0.209790	0.000064
N210	N	1.008028	0.709790	0.500064
H211	H	0.476124	0.208458	-0.051400
H212	H	0.976124	0.708458	0.448600
H213	H	0.471275	0.211746	0.051583
H214	H	0.971275	0.711746	0.551583
N215	N	1.055614	0.031908	0.605509
N216	N	1.555614	0.531908	1.105509
H217	H	1.087613	0.010261	0.646461
H218	H	1.587613	0.510261	1.146461
H219	H	1.027538	0.004186	0.569258
H220	H	1.527538	0.504186	1.069258
N221	N	0.342613	0.030333	0.000122
N222	N	0.842613	0.530333	0.500122
H223	H	0.310488	-0.004489	0.000131
H224	H	0.810488	0.495511	0.500131
H225	H	0.379423	0.028406	-0.051353
H226	H	0.879423	0.528406	0.448647
N227	N	1.146319	-0.329031	0.000100
N228	N	1.646319	0.170969	0.500100
H229	H	1.191121	-0.359123	0.000101
H230	H	1.691121	0.140877	0.500101
H231	H	1.152311	-0.306179	-0.051375
H232	H	1.652311	0.193821	0.448625
N233	N	1.026506	0.051553	0.213003
N234	N	1.526506	0.551553	0.713003
H235	H	0.998479	0.023795	0.176757
H236	H	1.498479	0.523795	0.676757
H237	H	1.062764	0.073759	0.176770
H238	H	1.562764	0.573759	0.676770
N239	N	0.548527	-0.004061	0.000114
N240	N	1.048527	0.495939	0.500114
H241	H	0.489059	0.000352	0.000117
H242	H	0.989059	0.500352	0.500117
H243	H	0.569536	-0.027356	-0.051355
H244	H	1.069536	0.472644	0.448645
N245	N	1.068325	-0.722522	0.000066
N246	N	1.568325	-0.222522	0.500066
H247	H	1.056780	-0.764156	0.000060
H248	H	1.556780	-0.264156	0.500060
H249	H	1.102170	-0.715333	-0.051407
H250	H	1.602170	-0.215333	0.448593
H251	H	0.790270	-0.700919	0.000046
H252	H	1.290270	-0.200919	0.500046
H253	H	0.838820	0.178586	0.775613
H254	H	1.338820	0.678586	1.275613
H255	H	0.792043	-0.593082	0.000034
H256	H	1.292043	-0.093082	0.500034
H257	H	0.723313	-0.423922	0.000008
H258	H	1.223313	0.076078	0.500008
H259	H	0.846391	0.173443	0.617050
H260	H	1.346391	0.673443	1.117050
H261	H	0.801051	-0.046156	0.000087
H262	H	1.301051	0.453844	0.500087
N263	N	1.017853	0.057469	0.394665
N264	N	1.517853	0.557469	0.894665
H265	H	1.053777	0.033180	0.353719
H266	H	1.553777	0.533180	0.853719
H267	H	1.050585	0.082054	0.430900
H268	H	1.550585	0.582054	0.930900
