data_functionalizedCrystal
_audit_creation_method	'MofGen! by Chris Wilmer'
_symmetry_space_group_name_H-M	'P1'
_symmetry_Int_Tables_number	1
_symmetry_cell_setting	triclinic
loop_
_symmetry_equiv_pos_as_xyz
  x,y,z
_cell_length_a	21.395362
_cell_length_b	19.805405
_cell_length_c	21.395355
_cell_angle_alpha	90.017223
_cell_angle_beta	90.043940
_cell_angle_gamma	90.042604
loop_
_atom_site_label
_atom_site_type_symbol
_atom_site_fract_x
_atom_site_fract_y
_atom_site_fract_z
Zn1	Zn	0.957877	-0.269255	0.354591
Zn2	Zn	0.957787	-0.382425	0.249816
Zn3	Zn	0.853092	-0.269286	0.249793
Zn4	Zn	0.853068	-0.382438	0.354521
O5	O	0.905456	-0.325851	0.302180
O6	O	1.045543	-0.284248	0.340732
O7	O	0.943871	-0.367424	0.162135
O8	O	0.867039	-0.174565	0.263714
O9	O	1.045476	-0.367393	0.263754
O10	O	0.944024	-0.174542	0.340709
O11	O	0.866952	-0.284302	0.162118
O12	O	0.765411	-0.284315	0.263646
O13	O	0.866999	-0.367417	0.442208
O14	O	0.765393	-0.367448	0.340589
O15	O	0.944002	-0.284261	0.442260
O16	O	0.943848	-0.477143	0.263686
O17	O	0.866912	-0.477153	0.340612
C18	C	0.742668	-0.325887	0.302107
C19	C	0.673027	-0.325918	0.302091
C20	C	0.905384	-0.501707	0.302157
C21	C	0.905411	-0.576939	0.302169
C22	C	0.640321	-0.369263	0.342096
C23	C	0.574886	-0.369246	0.342124
C24	C	0.542159	-0.325892	0.302136
C25	C	0.574872	-0.282539	0.262129
C26	C	0.640306	-0.282553	0.262106
C27	C	0.438434	-0.320440	0.245731
C28	C	0.373001	-0.320431	0.245752
C29	C	0.340338	-0.325848	0.302205
C30	C	0.373116	-0.331287	0.358639
C31	C	0.438550	-0.331301	0.358616
C32	C	0.471206	-0.325873	0.302156
C33	C	0.236680	-0.369177	0.342243
C34	C	0.171243	-0.369156	0.342272
C35	C	0.171231	-0.282452	0.262272
C36	C	0.236666	-0.282470	0.262248
C37	C	0.269387	-0.325836	0.302233
C38	C	0.945474	-0.612213	0.342292
C39	C	0.945496	-0.682901	0.342303
C40	C	0.905459	-0.718315	0.302188
C41	C	0.865392	-0.683036	0.262064
C42	C	0.865367	-0.612349	0.262056
C43	C	0.865493	-0.968109	0.262096
C44	C	0.865523	-1.038801	0.262106
C45	C	0.945622	-1.038662	0.342343
C46	C	0.945597	-0.967975	0.342335
C47	C	0.905528	-0.932702	0.302213
C48	C	0.905503	-0.856053	0.302202
C49	C	0.905487	-0.794962	0.302196
C50	C	1.068879	-0.325816	0.302253
C51	C	1.138520	-0.325800	0.302285
C52	C	0.905508	-0.325837	0.465604
C53	C	0.905530	-0.325831	0.535245
C54	C	0.905545	-0.149308	0.302217
C55	C	0.905582	-0.074076	0.302232
C56	C	0.905440	-0.325816	0.139393
C57	C	0.905539	-0.325631	0.069752
C58	C	0.945623	-0.282530	0.567986
C59	C	0.945623	-0.282501	0.633421
C60	C	0.905535	-0.325785	0.666113
C61	C	0.865434	-0.369089	0.633364
C62	C	0.865431	-0.369112	0.567930
C63	C	0.900563	-0.386731	0.769778
C64	C	0.900570	-0.386709	0.835211
C65	C	0.905539	-0.325714	0.867934
C66	C	0.910514	-0.264738	0.835216
C67	C	0.910512	-0.264762	0.769782
C68	C	0.905533	-0.325765	0.737066
C69	C	0.945633	-0.282378	0.971628
C70	C	0.945628	-0.282347	1.037064
C71	C	0.865443	-0.368941	1.037006
C72	C	0.865445	-0.368966	0.971571
C73	C	0.905543	-0.325685	0.938885
H74	H	0.548252	-0.404542	0.374702
H75	H	0.978079	-0.583384	0.374955
O76	O	0.826480	-0.411096	0.939859
C77	C	0.791084	-0.449281	0.982743
H78	H	0.816748	-0.451605	1.029405
H79	H	0.743513	-0.424500	0.989667
C80	C	0.750492	-0.518474	0.899887
C81	C	0.782015	-0.521333	0.957197
H82	H	0.744895	-0.562918	0.884129
H83	H	0.774337	-0.492746	0.870995
H84	H	0.710852	-0.497820	0.905666
H85	H	0.821657	-0.541978	0.951417
H86	H	0.758177	-0.547066	0.986088
O87	O	0.826664	-0.933774	0.223089
C88	C	0.862342	-0.892872	0.182653
H89	H	0.909809	-0.882213	0.204811
H90	H	0.869261	-0.920126	0.136233
C91	C	0.769551	-0.838865	0.144042
C92	C	0.827848	-0.825769	0.171260
H93	H	0.748272	-0.797474	0.137011
H94	H	0.745513	-0.866423	0.171283
H95	H	0.775324	-0.861579	0.105362
H96	H	0.822073	-0.803064	0.209943
H97	H	0.851884	-0.798206	0.144025
H98	H	0.832791	-0.711875	0.229404
H99	H	0.666958	-0.404574	0.374656
H100	H	0.978274	-0.247287	0.541378
H101	H	0.832779	-0.404372	0.541273
O102	O	0.268442	-0.411221	0.381178
C103	C	0.252526	-0.396532	0.443653
H104	H	0.234589	-0.342461	0.446909
H105	H	0.214532	-0.432837	0.459988
C106	C	0.332726	-0.470895	0.481433
C107	C	0.310700	-0.404482	0.485434
H108	H	0.368609	-0.475802	0.507207
H109	H	0.343447	-0.480794	0.439343
H110	H	0.301058	-0.501142	0.495045
H111	H	0.342364	-0.374237	0.471815
H112	H	0.299985	-0.394579	0.527523
O113	O	0.895698	-0.446044	0.738092
C114	C	0.891265	-0.499850	0.780998
H115	H	0.912383	-0.483838	0.827642
H116	H	0.840045	-0.513842	0.787958
C117	C	0.901147	-0.581021	0.698168
C118	C	0.927090	-0.561356	0.755456
H119	H	0.923243	-0.618963	0.682412
H120	H	0.904131	-0.544771	0.669260
H121	H	0.858465	-0.592677	0.703976
H122	H	0.969768	-0.549693	0.749646
H123	H	0.924113	-0.597606	0.784362
H124	H	0.896522	-0.436359	0.861846
O125	O	0.470295	-0.336553	0.413490
C126	C	0.427441	-0.341349	0.463324
H127	H	0.380798	-0.318575	0.448547
H128	H	0.420452	-0.396680	0.476249
C129	C	0.510366	-0.330582	0.538414
C130	C	0.453080	-0.302605	0.520265
H131	H	0.526181	-0.306686	0.573539
H132	H	0.539238	-0.327353	0.504840
H133	H	0.504534	-0.376690	0.549180
H134	H	0.458914	-0.256501	0.509492
H135	H	0.424209	-0.305826	0.553839
O136	O	0.826524	-0.411231	0.665049
C137	C	0.840192	-0.478694	0.649080
H138	H	0.864274	-0.480107	0.601588
H139	H	0.872395	-0.501473	0.685930
C140	C	0.749512	-0.517971	0.704344
C141	C	0.779085	-0.519707	0.646011
H142	H	0.711819	-0.543272	0.702454
H143	H	0.740305	-0.472521	0.715105
H144	H	0.776354	-0.536953	0.735046
H145	H	0.752246	-0.500718	0.615312
H146	H	0.788287	-0.565155	0.635245
O147	O	0.984629	-1.072894	0.381262
C148	C	1.047076	-1.055539	0.367658
H149	H	1.050260	-1.036135	0.317603
H150	H	1.063419	-1.014467	0.401261
C151	C	1.084999	-1.142108	0.436500
C152	C	1.088911	-1.118281	0.375020
H153	H	1.110807	-1.180809	0.441043
H154	H	1.042928	-1.153799	0.445667
H155	H	1.098618	-1.107876	0.464495
H156	H	1.075286	-1.152511	0.347027
H157	H	1.130982	-1.106598	0.365848
H158	H	0.914561	-0.215070	0.861857
H159	H	0.346524	-0.335697	0.404609
O160	O	0.826429	-0.578186	0.223022
C161	C	0.791084	-0.624598	0.187629
H162	H	0.816769	-0.674955	0.185493
H163	H	0.743493	-0.632167	0.210519
C164	C	0.750523	-0.535200	0.123557
C165	C	0.782072	-0.597047	0.120929
H166	H	0.744961	-0.518205	0.082414
H167	H	0.774334	-0.503930	0.147403
H168	H	0.710867	-0.541516	0.142634
H169	H	0.821730	-0.590729	0.101859
H170	H	0.758268	-0.628316	0.097077
H171	H	0.465022	-0.316026	0.199756
H172	H	0.978124	-0.711618	0.374970
H173	H	0.144615	-0.404451	0.374852
O174	O	0.984632	-0.240418	0.665138
C175	C	1.020010	-0.202209	0.622258
H176	H	1.022162	-0.229945	0.575614
H177	H	0.997098	-0.150807	0.615284
C178	C	1.084058	-0.158375	0.705134
C179	C	1.086705	-0.192443	0.647847
H180	H	1.125197	-0.152348	0.720920
H181	H	1.060222	-0.184115	0.734024
H182	H	1.064961	-0.115544	0.699315
H183	H	1.105794	-0.235277	0.653669
H184	H	1.110546	-0.166711	0.618959
O185	O	0.139351	-0.240418	0.223432
C186	C	0.074583	-0.249694	0.232033
H187	H	0.065628	-0.301951	0.252492
H188	H	0.056074	-0.209583	0.265451
C189	C	0.051932	-0.179239	0.143525
C190	C	0.040933	-0.243424	0.168647
H191	H	0.031174	-0.175369	0.104426
H192	H	0.095567	-0.172987	0.137731
H193	H	0.036508	-0.145820	0.171378
H194	H	0.056364	-0.276842	0.140797
H195	H	-0.002701	-0.249682	0.174435
H196	H	0.263295	-0.247178	0.229669
H197	H	0.978281	-0.247132	0.945014
O198	O	0.341260	-0.315113	0.190882
C199	C	0.384118	-0.310341	0.141050
H200	H	0.430798	-0.290765	0.159333
H201	H	0.391009	-0.362334	0.119251
C202	C	0.301233	-0.285380	0.068907
C203	C	0.358565	-0.261331	0.091363
H204	H	0.285470	-0.255152	0.038256
H205	H	0.272358	-0.288598	0.102479
H206	H	0.306984	-0.328708	0.050746
H207	H	0.352812	-0.218008	0.109531
H208	H	0.387438	-0.258105	0.057792
O209	O	0.543154	-0.240460	0.223195
C210	C	0.559054	-0.255167	0.160719
H211	H	0.606540	-0.281193	0.159365
H212	H	0.522175	-0.289925	0.139569
C213	C	0.503771	-0.157157	0.124538
C214	C	0.562097	-0.189118	0.122874
H215	H	0.505646	-0.116415	0.101192
H216	H	0.493057	-0.147249	0.166628
H217	H	0.473045	-0.186129	0.106914
H218	H	0.592820	-0.160149	0.140504
H219	H	0.572817	-0.199019	0.080785
H220	H	0.978201	-0.939143	0.374998
O221	O	0.672149	-0.240543	0.223210
C222	C	0.709905	-0.279026	0.182655
H223	H	0.719685	-0.330358	0.204665
H224	H	0.684628	-0.286382	0.136220
C225	C	0.760071	-0.178738	0.144315
C226	C	0.772087	-0.241783	0.171351
H227	H	0.798426	-0.155764	0.137340
H228	H	0.734632	-0.152811	0.171636
H229	H	0.739005	-0.184877	0.105623
H230	H	0.793145	-0.235643	0.210046
H231	H	0.797531	-0.267708	0.144036
O232	O	0.915315	-0.205472	0.738096
C233	C	0.919719	-0.151628	0.781002
H234	H	0.898661	-0.167638	0.827633
H235	H	0.970927	-0.137557	0.787995
C236	C	0.909663	-0.070531	0.698161
C237	C	0.883795	-0.090193	0.755432
H238	H	0.887507	-0.032633	0.682388
H239	H	0.906699	-0.106806	0.669253
H240	H	0.952336	-0.058810	0.703996
H241	H	0.841126	-0.101922	0.749595
H242	H	0.886752	-0.053918	0.784338
H243	H	0.978276	-0.247083	1.063721
H244	H	0.832917	-1.067633	0.229439
H245	H	0.832796	-0.404177	1.063623
