data_functionalizedCrystal
_audit_creation_method	'MofGen! by Chris Wilmer'
_symmetry_space_group_name_H-M	'P1'
_symmetry_Int_Tables_number	1
_symmetry_cell_setting	triclinic
loop_
_symmetry_equiv_pos_as_xyz
  x,y,z
_cell_length_a	21.395364
_cell_length_b	10.686203
_cell_length_c	21.395355
_cell_angle_alpha	94.377563
_cell_angle_beta	89.975448
_cell_angle_gamma	94.350754
loop_
_atom_site_label
_atom_site_type_symbol
_atom_site_fract_x
_atom_site_fract_y
_atom_site_fract_z
Zn1	Zn	0.977070	0.501971	-0.335213
Zn2	Zn	1.477070	1.001971	0.164787
Zn3	Zn	0.985046	0.712941	-0.222430
Zn4	Zn	1.485046	1.212941	0.277570
Zn5	Zn	0.872287	0.502027	-0.230448
Zn6	Zn	1.372287	1.002027	0.269552
Zn7	Zn	0.880328	0.712963	-0.327170
Zn8	Zn	1.380328	1.212963	0.172830
O9	O	0.928683	0.607476	-0.278815
O10	O	1.428683	1.107476	0.221185
O11	O	1.065804	0.529924	-0.320263
O12	O	1.565804	1.029924	0.179737
O13	O	0.970061	0.684976	-0.135816
O14	O	1.470061	1.184976	0.364184
O15	O	0.879483	0.325450	-0.251067
O16	O	1.379483	0.825450	0.248933
O17	O	1.071664	0.684923	-0.237402
O18	O	1.571664	1.184923	0.262598
O19	O	0.956466	0.325410	-0.328038
O20	O	1.456466	0.825410	0.171962
O21	O	0.887217	0.530019	-0.141706
O22	O	1.387217	1.030019	0.358294
O23	O	0.785677	0.530041	-0.243267
O24	O	1.285677	1.030041	0.256733
O25	O	0.893189	0.684961	-0.415915
O26	O	1.393189	1.184961	0.084085
O27	O	0.791585	0.685015	-0.314328
O28	O	1.291585	1.185015	0.185672
O29	O	0.964264	0.529946	-0.421825
O30	O	1.464264	1.029946	0.078175
O31	O	0.977858	0.889513	-0.229603
O32	O	1.477858	1.389513	0.270397
O33	O	0.900923	0.889529	-0.306554
O34	O	1.400923	1.389529	0.193446
C35	C	0.765897	0.607537	-0.278795
C36	C	1.265897	1.107537	0.221205
C37	C	0.696258	0.607594	-0.278801
C38	C	1.196258	1.107594	0.221199
C39	C	0.660521	0.527018	-0.322003
C40	C	1.160521	1.027018	0.177997
C41	C	0.595084	0.526985	-0.322007
C42	C	1.095084	1.026985	0.177993
C43	C	0.565388	0.607549	-0.278814
C44	C	1.065388	1.107549	0.221186
C45	C	0.601133	0.688130	-0.235603
C46	C	1.101133	1.188130	0.264397
C47	C	0.666568	0.688152	-0.235596
C48	C	1.166568	1.188152	0.264404
C49	C	0.466012	0.721179	-0.269464
C50	C	0.966012	1.221179	0.230536
C51	C	0.400579	0.721159	-0.269475
C52	C	0.900579	1.221159	0.230525
C53	C	0.363565	0.607480	-0.278830
C54	C	0.863565	1.107480	0.221170
C55	C	0.391993	0.493817	-0.288188
C56	C	0.891993	0.993817	0.211812
C57	C	0.457428	0.493839	-0.288181
C58	C	0.957428	0.993839	0.211819
C59	C	0.494435	0.607533	-0.278816
C60	C	0.994435	1.107533	0.221184
C61	C	0.256874	0.526861	-0.322039
C62	C	0.756874	1.026861	0.177961
C63	C	0.191436	0.526825	-0.322039
C64	C	0.691436	1.026825	0.177961
C65	C	0.197486	0.687982	-0.235638
C66	C	0.697486	1.187982	0.264362
C67	C	0.262922	0.688006	-0.235635
C68	C	0.762922	1.188006	0.264365
C69	C	0.292612	0.607448	-0.278840
C70	C	0.792612	1.107448	0.221160
C71	C	0.941146	0.935304	-0.266349
C72	C	1.441146	1.435304	0.233651
C73	C	0.946535	1.075550	-0.261037
C74	C	1.446535	1.575550	0.238963
C75	C	1.092104	0.607415	-0.278836
C76	C	1.592104	1.107415	0.221164
C77	C	1.161744	0.607389	-0.278844
C78	C	1.661744	1.107389	0.221156
C79	C	0.928734	0.607450	-0.442240
C80	C	1.428734	1.107450	0.057760
C81	C	0.928755	0.607439	-0.511881
C82	C	1.428755	1.107439	-0.011881
C83	C	0.916182	1.278368	-0.291351
C84	C	1.416182	1.778368	0.208649
C85	C	0.910839	1.138121	-0.296709
C86	C	1.410839	1.638121	0.203291
C87	C	0.965762	0.526720	-0.547673
C88	C	1.465762	1.026720	-0.047673
C89	C	0.965760	0.526665	-0.613110
C90	C	1.465760	1.026665	-0.113110
C91	C	0.928757	0.607353	-0.642753
C92	C	1.428757	1.107353	-0.142753
C93	C	0.891742	0.688078	-0.606954
C94	C	1.391742	1.188078	-0.106954
C95	C	0.891741	0.688121	-0.541518
C96	C	1.391741	1.188121	-0.041518
C97	C	0.928129	0.720967	-0.742107
C98	C	1.428129	1.220967	-0.242107
C99	C	0.928134	0.720926	-0.807542
C100	C	1.428134	1.220926	-0.307542
C101	C	0.928756	0.607220	-0.844579
C102	C	1.428756	1.107220	-0.344579
C103	C	0.929385	0.493551	-0.816174
C104	C	1.429385	0.993551	-0.316174
C105	C	0.929384	0.493594	-0.750738
C106	C	1.429384	0.993594	-0.250738
C107	C	0.928753	0.607315	-0.713707
C108	C	1.428753	1.107315	-0.213707
C109	C	0.965762	0.526435	-0.951325
C110	C	1.465762	1.026435	-0.451325
C111	C	0.965754	0.526378	-1.016764
C112	C	1.465754	1.026378	-0.516764
C113	C	0.891741	0.687803	-1.010606
C114	C	1.391741	1.187803	-0.510606
C115	C	0.891744	0.687848	-0.945169
C116	C	1.391744	1.187848	-0.445169
C117	C	0.928758	0.607165	-0.915532
C118	C	1.428758	1.107165	-0.415532
C119	C	0.928664	0.607410	-0.116030
C120	C	1.428664	1.107410	0.383970
C121	C	0.928750	0.607065	-0.046403
C122	C	1.428750	1.107065	0.453597
H123	H	0.565982	0.461364	-0.357187
H124	H	1.065982	0.961364	0.142813
F125	F	0.852359	0.773948	-0.638502
F126	F	1.352359	1.273948	-0.138502
F127	F	0.865505	1.067905	-0.341942
F128	F	1.365505	1.567905	0.158058
F129	F	0.991865	1.145771	-0.215795
F130	F	1.491865	1.645771	0.284205
F131	F	1.005153	0.440845	-0.516136
F132	F	1.505153	0.940845	-0.016136
H133	H	0.162339	0.461204	-0.357219
H134	H	0.662339	0.961204	0.142781
F135	F	0.505400	0.842179	-0.259500
F136	F	1.005400	1.342179	0.240500
H137	H	0.995888	0.460639	-1.045905
H138	H	1.495888	0.960639	-0.545905
F139	F	0.930049	0.372527	-0.855586
F140	F	1.430049	0.872527	-0.355586
H141	H	0.292020	0.753625	-0.200457
H142	H	0.792020	1.253625	0.299543
H143	H	0.995894	0.460927	-0.642258
H144	H	1.495894	0.960927	-0.142258
H145	H	0.929895	0.401041	-0.727613
H146	H	1.429895	0.901041	-0.227613
H147	H	0.861603	0.753851	-0.512376
H148	H	1.361603	1.253851	-0.012376
F149	F	1.005152	0.440562	-0.919782
F150	F	1.505152	0.940562	-0.419782
H151	H	0.684690	0.461420	-0.357183
H152	H	1.184690	0.961420	0.142817
H153	H	0.861606	0.753487	-1.034741
H154	H	1.361606	1.253487	-0.534741
F155	F	0.852358	0.773766	-0.907075
F156	F	1.352358	1.273766	-0.407075
F157	F	0.927470	0.841902	-0.837767
F158	F	1.427470	1.341902	-0.337767
H159	H	0.927454	0.813537	-0.711958
H160	H	1.427454	1.313537	-0.211958
H161	H	0.480571	0.401291	-0.295799
H162	H	0.980571	0.901291	0.204201
F163	F	0.288474	0.441117	-0.368017
F164	F	0.788474	0.941117	0.131983
F165	F	0.352605	0.372821	-0.298145
F166	F	0.852605	0.872821	0.201855
F167	F	0.704604	0.773913	-0.189611
F168	F	1.204604	1.273913	0.310389
H169	H	0.377438	0.813710	-0.261859
H170	H	0.877438	1.313710	0.238141
F171	F	0.165885	0.773718	-0.189664
F172	F	0.665885	1.273718	0.310336
H173	H	0.576950	0.753725	-0.200434
H174	H	1.076950	1.253725	0.299566
