data_functionalizedCrystal
_audit_creation_method	'MofGen! by Chris Wilmer'
_symmetry_space_group_name_H-M	'P1'
_symmetry_Int_Tables_number	1
_symmetry_cell_setting	triclinic
loop_
_symmetry_equiv_pos_as_xyz
  x,y,z
_cell_length_a	16.959455
_cell_length_b	16.959454
_cell_length_c	16.959447
_cell_angle_alpha	89.974219
_cell_angle_beta	90.014322
_cell_angle_gamma	89.980118
loop_
_atom_site_label
_atom_site_type_symbol
_atom_site_fract_x
_atom_site_fract_y
_atom_site_fract_z
Zn1	Zn	1.208368	0.314730	0.446934
Zn2	Zn	1.208284	0.446923	0.314766
Zn3	Zn	1.076197	0.314755	0.314771
Zn4	Zn	1.076155	0.446864	0.446904
O5	O	1.142251	0.380818	0.380844
O6	O	1.318968	0.332280	0.429411
O7	O	1.190745	0.429426	0.204155
O8	O	1.093782	0.204141	0.332317
O9	O	1.318906	0.429402	0.332308
O10	O	1.190888	0.204123	0.429417
O11	O	1.093701	0.332323	0.204159
O12	O	0.965580	0.332265	0.332289
O13	O	1.093711	0.429301	0.557519
O14	O	0.965549	0.429325	0.429366
O15	O	1.190847	0.332223	0.557541
O16	O	1.190704	0.557526	0.332279
O17	O	1.093629	0.557482	0.429361
C18	C	0.936885	0.380792	0.380825
C19	C	0.849028	0.380800	0.380836
C20	C	0.477544	0.330238	0.330401
C21	C	0.477561	0.431463	0.431332
C22	C	0.560107	0.431452	0.431327
C23	C	0.601375	0.380834	0.380857
C24	C	0.560097	0.330226	0.330393
C25	C	0.601390	0.482064	0.481785
C26	C	0.683941	0.482055	0.481781
C27	C	0.725211	0.431432	0.431315
C28	C	0.683929	0.380822	0.380849
C29	C	0.725197	0.330204	0.330380
C30	C	0.683916	0.279589	0.279917
C31	C	0.601367	0.279603	0.279927
C32	C	0.807760	0.431418	0.431306
C33	C	0.807750	0.330193	0.330372
C34	C	1.142174	0.586184	0.380834
C35	C	1.142214	0.674041	0.380856
C36	C	1.091744	1.045524	0.431400
C37	C	1.192911	1.045509	0.330390
C38	C	1.192888	0.962963	0.330382
C39	C	1.142291	0.921694	0.380882
C40	C	1.091717	0.962970	0.431391
C41	C	1.243455	0.921680	0.279868
C42	C	1.243433	0.839130	0.279856
C43	C	1.192839	0.797859	0.330361
C44	C	1.142264	0.839140	0.380873
C45	C	1.091667	0.797871	0.431373
C46	C	1.041096	0.839151	0.481890
C47	C	1.041124	0.921699	0.481896
C48	C	1.192811	0.715310	0.330355
C49	C	1.091640	0.715317	0.431365
C50	C	1.348419	0.380845	0.380862
C51	C	1.436276	0.380856	0.380870
C52	C	1.142284	0.380753	0.587012
C53	C	1.142298	0.380725	0.674869
C54	C	1.142337	1.174650	0.380875
C55	C	1.142341	1.086793	0.380899
C56	C	1.142263	0.380826	0.175477
C57	C	1.142403	0.380631	0.087621
C58	C	1.091817	0.431185	1.046336
C59	C	1.192967	0.330097	1.046353
C60	C	1.192946	0.330114	0.963807
C61	C	1.142361	0.380668	0.922522
C62	C	1.091797	0.431205	0.963782
C63	C	1.243515	0.279584	0.922541
C64	C	1.243496	0.279599	0.839990
C65	C	1.192906	0.330149	0.798703
C66	C	1.142340	0.380688	0.839968
C67	C	1.091755	0.431242	0.798682
C68	C	1.041183	0.481777	0.839946
C69	C	1.041207	0.481756	0.922495
C70	C	1.192883	0.330171	0.716154
C71	C	1.091734	0.431262	0.716129
H72	H	0.841367	0.472630	0.472389
H73	H	1.050572	1.079138	0.472531
C74	C	1.248567	1.090903	0.274849
H75	H	1.241344	1.145978	0.282092
H76	H	1.237039	1.077413	0.221726
H77	H	1.301665	1.077333	0.286476
C78	C	0.985493	0.967108	0.537448
H79	H	0.992749	1.022181	0.530212
H80	H	0.997015	0.953549	0.590569
H81	H	0.932387	0.953618	0.525821
H82	H	1.284642	0.955288	0.238747
H83	H	1.050533	0.472422	0.682520
H84	H	1.284611	0.805524	0.238725
H85	H	1.284703	0.238430	0.956162
C86	C	1.036196	0.486772	1.091720
H87	H	1.043453	0.479526	1.146797
H88	H	0.983090	0.475203	1.078191
H89	H	1.047743	0.539888	1.078181
C90	C	1.248432	0.669906	0.274795
H91	H	1.278571	0.706307	0.244722
H92	H	1.218208	0.637739	0.240328
H93	H	1.282848	0.637667	0.305064
H94	H	1.000000	0.522942	0.806321
H95	H	0.717545	0.523268	0.522871
C96	C	0.985590	0.537345	0.967882
H97	H	0.955454	0.567452	0.931473
H98	H	1.015822	0.571780	1.000075
H99	H	0.951170	0.507093	1.000093
H100	H	1.234155	0.288943	1.079973
C101	C	0.556000	0.537652	0.537385
H102	H	0.592406	0.567771	0.567458
H103	H	0.523864	0.507377	0.571849
H104	H	0.523731	0.572089	0.507172
C105	C	0.985443	0.793749	0.537437
H106	H	0.992675	0.738675	0.530195
H107	H	0.932345	0.807319	0.525829
H108	H	0.996989	0.807234	0.590562
H109	H	1.050441	0.681721	0.472491
C110	C	1.299114	0.224007	0.794607
H111	H	1.329239	0.193893	0.831019
H112	H	1.333532	0.254250	0.762393
H113	H	1.268877	0.189567	0.762417
C114	C	0.555961	0.223937	0.224419
H115	H	0.592360	0.193782	0.194365
H116	H	0.523742	0.254137	0.189932
H117	H	0.523776	0.189537	0.254722
C118	C	0.853140	0.274510	0.274856
H119	H	0.816730	0.244374	0.244803
H120	H	0.885363	0.240106	0.305146
H121	H	0.885320	0.304704	0.240355
C122	C	0.432140	0.274568	0.274894
H123	H	0.377066	0.281825	0.282121
H124	H	0.445687	0.221473	0.286548
H125	H	0.445648	0.286077	0.221762
C126	C	0.729313	0.223909	0.224405
H127	H	0.692909	0.193769	0.194350
H128	H	0.761537	0.189509	0.254700
H129	H	0.761493	0.254106	0.189907
C130	C	0.432168	0.487139	0.486843
H131	H	0.377093	0.479894	0.479623
H132	H	0.445682	0.540232	0.475190
H133	H	0.445715	0.475625	0.539973
C134	C	1.248499	0.274586	0.670767
H135	H	1.278626	0.244473	0.707178
H136	H	1.282915	0.304830	0.638553
H137	H	1.218263	0.240144	0.638578
