data_functionalizedCrystal
_audit_creation_method	'MofGen! by Chris Wilmer'
_symmetry_space_group_name_H-M	'P1'
_symmetry_Int_Tables_number	1
_symmetry_cell_setting	triclinic
loop_
_symmetry_equiv_pos_as_xyz
  x,y,z
_cell_length_a	14.971494
_cell_length_b	14.971486
_cell_length_c	14.750488
_cell_angle_alpha	77.333571
_cell_angle_beta	102.657683
_cell_angle_gamma	83.615843
loop_
_atom_site_label
_atom_site_type_symbol
_atom_site_fract_x
_atom_site_fract_y
_atom_site_fract_z
O1	O	0.135923	1.167574	0.079717
O2	O	0.635923	1.667574	0.579717
O3	O	0.149888	0.907168	0.079742
O4	O	0.649888	1.407168	0.579742
O5	O	0.012705	1.044347	0.079727
O6	O	0.512705	1.544347	0.579727
O7	O	0.273105	1.030395	0.079732
O8	O	0.773105	1.530395	0.579732
O9	O	-0.026076	1.083139	-0.079935
O10	O	0.473924	1.583139	0.420065
O11	O	0.111107	0.945960	-0.079919
O12	O	0.611107	1.445960	0.420081
O13	O	0.097142	1.206366	-0.079945
O14	O	0.597142	1.706366	0.420055
Zn15	Zn	0.097967	1.082322	-0.105282
Zn16	Zn	0.597967	1.582322	0.394718
Zn17	Zn	0.149062	1.031212	0.105079
Zn18	Zn	0.649062	1.531212	0.605079
O19	O	0.234325	1.069187	-0.079929
O20	O	0.734325	1.569187	0.420071
C21	C	0.129874	0.893239	-0.000085
C22	C	0.629874	1.393239	0.499915
C23	C	0.128006	0.793939	-0.000075
C24	C	0.628006	1.293939	0.499925
C25	C	0.208595	0.736716	-0.000075
C26	C	0.708595	1.236716	0.499925
C27	C	0.206828	0.643420	-0.000089
C28	C	0.706828	1.143420	0.499911
C29	C	0.124473	0.607347	-0.000097
C30	C	0.624473	1.107347	0.499903
C31	C	0.043877	0.664578	-0.000100
C32	C	0.543877	1.164578	0.499900
C33	C	0.045643	0.757874	-0.000093
C34	C	0.545643	1.257874	0.499907
C35	C	0.040203	0.470119	-0.000114
C36	C	0.540203	0.970119	0.499886
C37	C	0.038437	0.376816	-0.000119
C38	C	0.538437	0.876816	0.499881
C39	C	0.201388	0.355665	-0.000110
C40	C	0.701388	0.855665	0.499890
C41	C	0.203154	0.448961	-0.000103
C42	C	0.703154	0.948961	0.499897
C43	C	0.122558	0.506185	-0.000104
C44	C	0.622558	1.006185	0.499896
C45	C	-0.040010	1.063118	-0.000103
C46	C	0.459990	1.563118	0.499897
C47	C	-0.139305	1.061243	-0.000098
C48	C	0.360695	1.561243	0.499902
C49	C	-0.164810	1.039219	0.086935
C50	C	0.335190	1.539219	0.586935
C51	C	-0.258109	1.037452	0.086936
C52	C	0.241891	1.537452	0.586936
C53	C	-0.325902	1.057716	-0.000096
C54	C	0.174098	1.557716	0.499904
C55	C	-0.300392	1.079739	-0.087136
C56	C	0.199608	1.579739	0.412864
C57	C	-0.207094	1.081499	-0.087136
C58	C	0.292906	1.581499	0.412864
C59	C	-0.494853	1.076071	-0.087129
C60	C	0.005147	1.576071	0.412871
C61	C	-0.588158	1.074313	-0.087129
C62	C	-0.088158	1.574313	0.412871
C63	C	-0.545869	1.032025	0.086943
C64	C	-0.045869	1.532025	0.586943
C65	C	-0.452570	1.033785	0.086943
C66	C	0.047430	1.533785	0.586943
C67	C	-0.427067	1.055809	-0.000097
C68	C	0.072933	1.555809	0.499903
C69	C	0.287040	1.050416	-0.000098
C70	C	0.787040	1.550416	0.499902
C71	C	0.386337	1.052289	-0.000096
C72	C	0.886337	1.552289	0.499904
C73	C	0.117156	1.220295	-0.000115
C74	C	0.617156	1.720295	0.499885
C75	C	0.119026	1.319593	-0.000119
C76	C	0.619026	1.819593	0.499881
N77	N	0.063096	1.117209	-0.248848
N78	N	0.563096	1.617209	0.251152
C79	C	-0.034240	1.214612	-0.399601
C80	C	0.465760	1.714612	0.100399
C81	C	-0.009819	1.190168	-0.299095
C82	C	0.490181	1.690168	0.200905
C83	C	0.111615	1.068663	-0.299096
C84	C	0.611615	1.568663	0.200904
C85	C	0.087201	1.093094	-0.399605
C86	C	0.587201	1.593094	0.100395
C87	C	0.014273	1.166070	-0.449849
C88	C	0.514273	1.666070	0.050151
C89	C	0.135714	1.044552	-0.449852
C90	C	0.635714	1.544552	0.050148
C91	C	0.111305	1.068985	-0.550352
C92	C	0.611305	1.568985	-0.050352
C93	C	0.038382	1.141960	-0.600604
C94	C	0.538382	1.641960	-0.100604
C95	C	-0.010136	1.190503	-0.550349
C96	C	0.489864	1.690503	-0.050349
C97	C	0.208645	0.971580	-0.399606
C98	C	0.708645	1.471580	0.100394
C99	C	0.257158	0.923038	-0.449854
C100	C	0.757158	1.423038	0.050146
C101	C	0.232745	0.947466	-0.550355
C102	C	0.732745	1.447466	-0.050355
C103	C	0.159823	1.020441	-0.600607
C104	C	0.659823	1.520441	-0.100607
C105	C	0.281263	0.898923	-0.600610
C106	C	0.781263	1.398923	-0.100610
C107	C	0.256854	0.923356	-0.701110
C108	C	0.756854	1.423356	-0.201110
C109	C	0.135414	1.044874	-0.701107
C110	C	0.635414	1.544874	-0.201107
N111	N	0.183927	0.996332	0.248645
N112	N	0.683927	1.496332	0.748645
H113	H	-0.019981	0.804465	-0.000093
H114	H	0.480019	1.304465	0.499907
F115	F	-0.111867	1.292275	-0.453078
F116	F	0.388133	1.792275	0.046922
F117	F	0.189230	0.991001	-0.245614
F118	F	0.689230	1.491001	0.254386
H119	H	-0.643353	1.090806	-0.157999
H120	H	-0.143353	1.590806	0.342001
F121	F	0.292603	0.582521	-0.000085
F122	F	0.792603	1.082521	0.499915
F123	F	-0.285248	1.014012	0.179569
F124	F	0.214752	1.514012	0.679569
F125	F	0.334773	0.845376	-0.396371
F126	F	0.834773	1.345376	0.103629
F127	F	0.290807	0.487348	-0.000084
F128	F	0.790807	0.987348	0.499916
F129	F	0.358884	0.821267	-0.547125
F130	F	0.858884	1.321267	-0.047125
F131	F	-0.573011	1.008579	0.179578
F132	F	-0.073011	1.508579	0.679578
F133	F	-0.372543	1.101295	-0.179763
F134	F	0.127457	1.601295	0.320237
H135	H	-0.028624	0.347449	-0.000127
H136	H	0.471376	0.847449	0.499873
F137	F	-0.179951	1.104939	-0.179769
F138	F	0.320049	1.604939	0.320231
F139	F	0.057787	1.122536	-0.754583
F140	F	0.557787	1.622536	-0.254583
F141	F	0.287164	0.294762	-0.000110
F142	F	0.787164	0.794762	0.499890
F143	F	-0.061460	1.241844	-0.245624
F144	F	0.438540	1.741844	0.254376
F145	F	0.012408	1.167966	-0.707566
F146	F	0.512408	1.667966	-0.207566
H147	H	-0.069527	1.249921	-0.591260
H148	H	0.430473	1.749921	-0.091260
H149	H	0.228519	0.951693	-0.317773
H150	H	0.728519	1.451693	0.182227
H151	H	0.275658	0.766078	-0.000068
H152	H	0.775658	1.266078	0.499932
F153	F	-0.045578	0.531020	-0.000118
F154	F	0.454422	1.031020	0.499882
F155	F	-0.043773	0.626186	-0.000115
F156	F	0.456227	1.126186	0.499885
F157	F	-0.092667	1.017657	0.179569
F158	F	0.407333	1.517657	0.679569
H159	H	0.296360	0.883828	-0.742022
H160	H	0.796360	1.383828	-0.242022
H161	H	-0.397375	1.017291	0.157813
H162	H	0.102625	1.517291	0.657813
F163	F	-0.467714	1.099514	-0.179767
F164	F	0.032286	1.599514	0.320233
