data_functionalizedCrystal
_audit_creation_method	'MofGen! by Chris Wilmer'
_symmetry_space_group_name_H-M	'P1'
_symmetry_Int_Tables_number	1
_symmetry_cell_setting	triclinic
loop_
_symmetry_equiv_pos_as_xyz
  x,y,z
_cell_length_a	11.792241
_cell_length_b	11.792241
_cell_length_c	10.868271
_cell_angle_alpha	89.994263
_cell_angle_beta	89.996464
_cell_angle_gamma	95.806584
loop_
_atom_site_label
_atom_site_type_symbol
_atom_site_fract_x
_atom_site_fract_y
_atom_site_fract_z
O1	O	1.506902	-0.155570	0.102203
O2	O	2.006902	0.344430	0.602203
O3	O	1.176561	-0.171603	0.102232
O4	O	1.676561	0.328397	0.602232
O5	O	1.349748	0.001584	0.102208
O6	O	1.849748	0.501584	0.602208
O7	O	1.333715	-0.328757	0.102227
O8	O	1.833715	0.171243	0.602227
O9	O	1.349746	0.001594	-0.102436
O10	O	1.849746	0.501594	0.397564
O11	O	1.176559	-0.171593	-0.102413
O12	O	1.676559	0.328407	0.397587
O13	O	1.506900	-0.155560	-0.102441
O14	O	2.006900	0.344440	0.397559
Zn15	Zn	1.341729	-0.163575	-0.134919
Zn16	Zn	1.841729	0.336425	0.365081
Zn17	Zn	1.341732	-0.163588	0.134709
Zn18	Zn	1.841732	0.336412	0.634709
O19	O	1.333713	-0.328747	-0.102418
O20	O	1.833713	0.171253	0.397582
C21	C	1.134269	-0.170591	-0.000087
C22	C	1.634269	0.329409	0.499913
C23	C	1.008255	-0.167576	-0.000076
C24	C	1.508255	0.332424	0.499924
C25	C	1.348740	0.043880	-0.000114
C26	C	1.848740	0.543880	0.499886
C27	C	1.345726	0.169894	-0.000112
C28	C	1.845726	0.669894	0.499888
C29	C	0.777543	-0.162034	-0.000112
C30	C	1.277543	0.337966	0.499888
C31	C	0.905928	-0.165113	-0.000092
C32	C	1.405928	0.334887	0.499908
C33	C	1.549192	-0.156572	-0.000120
C34	C	2.049192	0.343428	0.499880
C35	C	1.675206	-0.159587	-0.000123
C36	C	2.175206	0.340413	0.499877
N37	N	1.341735	-0.163588	0.318723
N38	N	1.841735	0.336412	0.818723
C39	C	1.334721	-0.371043	-0.000093
C40	C	1.834721	0.128957	0.499907
C41	C	1.337736	-0.497057	-0.000087
C42	C	1.837736	0.002943	0.499913
C43	C	1.340183	0.400606	-0.000091
C44	C	1.840183	0.900606	0.499909
C45	C	1.343262	0.272221	-0.000102
C46	C	1.843262	0.772221	0.499898
N47	N	1.341736	-0.163566	-0.318933
N48	N	1.841736	0.336434	0.181067
C49	C	1.341731	-0.163581	0.569729
C50	C	1.841731	0.336419	1.069729
C51	C	1.341730	-0.163589	0.430052
C52	C	1.841730	0.336411	0.930052
