data_functionalizedCrystal
_audit_creation_method	'MofGen! by Chris Wilmer'
_symmetry_space_group_name_H-M	'P1'
_symmetry_Int_Tables_number	1
_symmetry_cell_setting	triclinic
loop_
_symmetry_equiv_pos_as_xyz
  x,y,z
_cell_length_a	13.897448
_cell_length_b	13.897449
_cell_length_c	12.759393
_cell_angle_alpha	89.980586
_cell_angle_beta	89.966449
_cell_angle_gamma	90.018972
loop_
_atom_site_label
_atom_site_type_symbol
_atom_site_fract_x
_atom_site_fract_y
_atom_site_fract_z
Zn1	Zn	-0.383923	1.474690	-0.594025
Zn2	Zn	-0.133923	1.724690	-0.344025
Zn3	Zn	0.116077	1.974690	-0.094025
Zn4	Zn	0.366077	2.224690	0.155975
Zn5	Zn	-0.545253	1.474588	-0.418340
Zn6	Zn	-0.295253	1.724588	-0.168340
Zn7	Zn	-0.045253	1.974588	0.081660
Zn8	Zn	0.204747	2.224588	0.331660
Zn9	Zn	-0.383977	1.313383	-0.418359
Zn10	Zn	-0.133977	1.563383	-0.168359
Zn11	Zn	0.116023	1.813383	0.081641
Zn12	Zn	0.366023	2.063383	0.331641
Zn13	Zn	-0.545181	1.313361	-0.593975
Zn14	Zn	-0.295181	1.563361	-0.343975
Zn15	Zn	-0.045181	1.813361	-0.093975
Zn16	Zn	0.204819	2.063361	0.156025
O17	O	-0.464584	1.394005	-0.506175
O18	O	-0.214584	1.644005	-0.256175
O19	O	0.035416	1.894005	-0.006175
O20	O	0.285416	2.144005	0.243825
O21	O	-0.405331	1.609658	-0.570734
O22	O	-0.155331	1.859658	-0.320734
O23	O	0.094669	2.109658	-0.070734
O24	O	0.344669	2.359658	0.179266
O25	O	-0.523912	1.453170	-0.271321
O26	O	-0.273912	1.703170	-0.021321
O27	O	-0.023912	1.953170	0.228679
O28	O	0.226088	2.203170	0.478679
O29	O	-0.248989	1.334833	-0.441690
O30	O	0.001011	1.584833	-0.191690
O31	O	0.251011	1.834833	0.058310
O32	O	0.501011	2.084833	0.308310
O33	O	-0.523860	1.609583	-0.441658
O34	O	-0.273860	1.859583	-0.191658
O35	O	-0.023860	2.109583	0.058342
O36	O	0.226140	2.359583	0.308342
O37	O	-0.248949	1.453344	-0.570752
O38	O	0.001051	1.703344	-0.320752
O39	O	0.251051	1.953344	-0.070752
O40	O	0.501051	2.203344	0.179248
O41	O	-0.405424	1.334733	-0.271335
O42	O	-0.155424	1.584733	-0.021335
O43	O	0.094576	1.834733	0.228665
O44	O	0.344576	2.084733	0.478665
O45	O	-0.405354	1.178398	-0.441641
O46	O	-0.155354	1.428398	-0.191641
O47	O	0.094646	1.678398	0.058359
O48	O	0.344646	1.928398	0.308359
O49	O	-0.523737	1.334795	-0.741003
O50	O	-0.273737	1.584795	-0.491003
O51	O	-0.023737	1.834795	-0.241003
O52	O	0.226263	2.084795	0.008997
O53	O	-0.523790	1.178382	-0.570666
O54	O	-0.273790	1.428382	-0.320666
O55	O	-0.023790	1.678382	-0.070666
O56	O	0.226210	1.928382	0.179334
O57	O	-0.405262	1.453323	-0.741040
O58	O	-0.155262	1.703323	-0.491040
O59	O	0.094738	1.953323	-0.241040
O60	O	0.344738	2.203323	0.008960
O61	O	-0.680225	1.453149	-0.441610
O62	O	-0.430225	1.703149	-0.191610
O63	O	-0.180225	1.953149	0.058390
O64	O	0.069775	2.203149	0.308390
O65	O	-0.680173	1.334696	-0.570648
O66	O	-0.430173	1.584696	-0.320648
O67	O	-0.180173	1.834696	-0.070648
O68	O	0.069827	2.084696	0.179352
C69	C	-0.464571	1.143391	-0.506151
C70	C	-0.214571	1.393391	-0.256151
C71	C	0.035429	1.643391	-0.006151
C72	C	0.285429	1.893391	0.243849
C73	C	-0.464589	1.036177	-0.506166
C74	C	-0.214589	1.286177	-0.256166
C75	C	0.035411	1.536177	-0.006166
C76	C	0.285411	1.786177	0.243834
C77	C	-0.464592	0.839882	-0.506193
C78	C	-0.214592	1.089882	-0.256193
C79	C	0.035408	1.339882	-0.006193
C80	C	0.285408	1.589882	0.243807
C81	C	-0.464587	0.949115	-0.506175
C82	C	-0.214587	1.199115	-0.256175
C83	C	0.035413	1.449115	-0.006175
C84	C	0.285413	1.699115	0.243825
C85	C	-0.715198	1.393935	-0.506144
C86	C	-0.465198	1.643935	-0.256144
C87	C	-0.215198	1.893935	-0.006144
C88	C	0.034802	2.143935	0.243856
C89	C	-0.822412	1.393993	-0.506167
C90	C	-0.572412	1.643993	-0.256167
C91	C	-0.322412	1.893993	-0.006167
C92	C	-0.072412	2.143993	0.243833
C93	C	-1.018707	1.394094	-0.506232
C94	C	-0.768707	1.644094	-0.256232
C95	C	-0.518707	1.894094	-0.006232
C96	C	-0.268707	2.144094	0.243768
C97	C	-0.909475	1.394035	-0.506199
C98	C	-0.659475	1.644035	-0.256199
C99	C	-0.409475	1.894035	-0.006199
C100	C	-0.159475	2.144035	0.243801
C101	C	-0.212991	1.394102	-0.506228
C102	C	0.037009	1.644102	-0.256228
C103	C	0.287009	1.894102	-0.006228
C104	C	0.537009	2.144102	0.243772
C105	C	-0.105777	1.394144	-0.506251
C106	C	0.144223	1.644144	-0.256251
C107	C	0.394223	1.894144	-0.006251
C108	C	0.644223	2.144144	0.243749
C109	C	-0.464486	1.394068	-0.780208
C110	C	-0.214486	1.644068	-0.530208
C111	C	0.035514	1.894068	-0.280208
C112	C	0.285514	2.144068	-0.030208
C113	C	-0.464444	1.394095	-0.896985
C114	C	-0.214444	1.644095	-0.646985
C115	C	0.035556	1.894095	-0.396985
C116	C	0.285556	2.144095	-0.146985
C117	C	-0.464597	1.645598	-0.506199
C118	C	-0.214597	1.895598	-0.256199
C119	C	0.035403	2.145598	-0.006199
C120	C	0.285403	2.395598	0.243801
C121	C	-0.464603	1.752812	-0.506210
C122	C	-0.214603	2.002812	-0.256210
C123	C	0.035397	2.252812	-0.006210
C124	C	0.285397	2.502812	0.243790
C125	C	-0.402735	1.332451	-0.951860
C126	C	-0.152735	1.582451	-0.701860
C127	C	0.097265	1.832451	-0.451860
C128	C	0.347265	2.082451	-0.201860
C129	C	-0.402707	1.332480	-1.061584
C130	C	-0.152707	1.582480	-0.811584
C131	C	0.097293	1.832480	-0.561584
C132	C	0.347293	2.082480	-0.311584
C133	C	-0.526097	1.455805	-1.061548
C134	C	-0.276097	1.705805	-0.811548
C135	C	-0.026097	1.955805	-0.561548
C136	C	0.223903	2.205805	-0.311548
C137	C	-0.526130	1.455770	-0.951826
C138	C	-0.276130	1.705770	-0.701826
C139	C	-0.026130	1.955770	-0.451826
C140	C	0.223870	2.205770	-0.201826
C141	C	-0.341049	1.270775	-0.897019
C142	C	-0.091049	1.520775	-0.647019
C143	C	0.158951	1.770775	-0.397019
C144	C	0.408951	2.020775	-0.147019
C145	C	-0.279335	1.209127	-0.951894
C146	C	-0.029335	1.459127	-0.701894
C147	C	0.220665	1.709127	-0.451894
C148	C	0.470665	1.959127	-0.201894
C149	C	-0.279306	1.209156	-1.061618
C150	C	-0.029306	1.459156	-0.811618
C151	C	0.220694	1.709156	-0.561618
C152	C	0.470694	1.959156	-0.311618
C153	C	-0.340991	1.270834	-1.116467
C154	C	-0.090991	1.520834	-0.866467
C155	C	0.159009	1.770834	-0.616467
C156	C	0.409009	2.020834	-0.366467
C157	C	-0.464612	1.393999	-0.233207
C158	C	-0.214612	1.643999	0.016793
C159	C	0.035388	1.893999	0.266793
C160	C	0.285388	2.143999	0.516793
C161	C	-0.464382	1.394159	-0.116431
C162	C	-0.214382	1.644159	0.133569
C163	C	0.035618	1.894159	0.383569
C164	C	0.285618	2.144159	0.633569
H165	H	-0.341063	1.270746	-0.807676
H166	H	-0.091063	1.520746	-0.557676
H167	H	0.158937	1.770746	-0.307676
H168	H	0.408937	2.020746	-0.057676
H169	H	-0.229118	1.158907	-0.907229
H170	H	0.020882	1.408907	-0.657229
H171	H	0.270882	1.658907	-0.407229
H172	H	0.520882	1.908907	-0.157229
H173	H	-0.576366	1.505979	-0.907146
H174	H	-0.326366	1.755979	-0.657146
H175	H	-0.076366	2.005979	-0.407146
H176	H	0.173634	2.255979	-0.157146
O177	O	-0.592619	1.522325	-1.120712
O178	O	-0.342619	1.772325	-0.870712
O179	O	-0.092619	2.022325	-0.620712
O180	O	0.157381	2.272325	-0.370712
H181	H	-0.668329	1.505735	-1.099642
H182	H	-0.418329	1.755735	-0.849642
H183	H	-0.168329	2.005735	-0.599642
H184	H	0.081671	2.255735	-0.349642
H185	H	-0.229062	1.158954	-1.106295
H186	H	0.020938	1.408954	-0.856295
H187	H	0.270938	1.658954	-0.606295
H188	H	0.520938	1.908954	-0.356295
H189	H	-0.340965	1.270850	-1.205812
H190	H	-0.090965	1.520850	-0.955812
H191	H	0.159035	1.770850	-0.705812
H192	H	0.409035	2.020850	-0.455812
