data_functionalizedCrystal
_audit_creation_method	'MofGen! by Chris Wilmer'
_symmetry_space_group_name_H-M	'P1'
_symmetry_Int_Tables_number	1
_symmetry_cell_setting	triclinic
loop_
_symmetry_equiv_pos_as_xyz
  x,y,z
_cell_length_a	15.944551
_cell_length_b	23.532407
_cell_length_c	15.021413
_cell_angle_alpha	89.999348
_cell_angle_beta	89.997174
_cell_angle_gamma	83.173708
loop_
_atom_site_label
_atom_site_type_symbol
_atom_site_fract_x
_atom_site_fract_y
_atom_site_fract_z
O1	O	1.113910	0.073442	-0.073949
O2	O	0.869284	0.082498	-0.073972
O3	O	0.998974	-0.004933	-0.073943
O4	O	0.984220	0.160873	-0.073977
O5	O	0.998953	-0.004921	0.074121
O6	O	0.869263	0.082510	0.074092
O7	O	1.113889	0.073455	0.074116
Zn8	Zn	0.991573	0.077985	0.097612
Zn9	Zn	0.991600	0.077968	-0.097469
O10	O	0.984200	0.160886	0.074087
C11	C	0.837983	0.082128	0.000057
C12	C	0.744746	0.081001	0.000049
C13	C	0.530369	0.024113	0.000078
C14	C	0.469137	0.050524	-0.072931
C15	C	0.574038	0.078962	0.000060
C16	C	0.469138	0.050549	0.073049
C17	C	0.409142	0.076989	0.000075
C18	C	0.514033	0.105388	-0.073009
C19	C	0.514041	0.105405	0.073036
C20	C	0.452826	0.131856	0.000010
C21	C	0.669030	0.080097	0.000051
C22	C	0.314150	0.075858	0.000077
C23	C	0.998588	-0.026144	0.000091
C24	C	0.997458	-0.089366	0.000098
C25	C	1.067121	-0.488199	0.000056
C26	C	1.066072	-0.547603	0.000049
O27	O	1.130650	-0.584098	0.000022
N28	N	0.988971	-0.570528	0.000042
C29	C	0.912915	-0.534045	0.000033
O30	O	0.847239	-0.558999	0.000026
C31	C	0.913965	-0.474642	0.000034
C32	C	0.991071	-0.451721	0.000049
C33	C	1.144220	-0.465277	0.000070
C34	C	1.145269	-0.405877	0.000079
C35	C	1.069219	-0.369399	0.000073
C36	C	0.992120	-0.392320	0.000058
C37	C	0.837910	-0.438160	0.000018
C38	C	0.838967	-0.378754	0.000018
C39	C	0.916072	-0.355832	0.000034
C40	C	0.917118	-0.296442	0.000060
N41	N	0.994219	-0.273517	0.000067
C42	C	1.070269	-0.309995	0.000073
C43	C	0.910716	-0.658796	0.000031
C44	C	0.909664	-0.718198	0.000037
C45	C	1.062821	-0.731752	0.000050
C46	C	1.063872	-0.672349	0.000051
C47	C	0.987816	-0.635871	0.000037
C48	C	1.072466	-0.185250	0.000092
C49	C	1.073508	-0.125844	0.000104
C50	C	0.920352	-0.112295	0.000085
C51	C	0.919309	-0.171696	0.000078
C52	C	0.995373	-0.208173	0.000078
O53	O	0.852574	-0.259913	0.000083
O54	O	1.135935	-0.285033	0.000069
C55	C	1.145190	0.073824	0.000084
C56	C	1.238427	0.074951	0.000087
C57	C	0.984586	0.182097	0.000051
C58	C	0.985715	0.245318	0.000038
N59	N	0.991561	0.077995	0.230750
N60	N	0.991619	0.077953	-0.230606
C61	C	0.931583	0.118404	0.470420
C62	C	1.007390	0.129461	0.529759
C63	C	0.991582	0.077981	0.412357
C64	C	0.915796	0.066938	0.529760
C65	C	0.991596	0.077969	0.587781
C66	C	1.067428	0.089063	0.470389
C67	C	0.975783	0.026518	0.470385
C68	C	1.051645	0.037552	0.529697
C69	C	0.991573	0.077990	0.311300
C70	C	0.991614	0.077960	0.688836
H71	H	1.134405	-0.214943	0.000089
C72	C	0.827048	-0.618672	0.000031
C73	C	0.806694	-0.575972	0.076918
C74	C	0.723027	-0.535852	0.076918
C75	C	0.659714	-0.538432	0.000031
C76	C	0.680066	-0.581134	-0.076862
C77	C	0.763733	-0.621254	-0.076862
H78	H	0.853564	-0.574061	0.133840
H79	H	0.707962	-0.504241	0.133839
H80	H	0.597779	-0.508733	0.000030
H81	H	0.633196	-0.583045	-0.133784
H82	H	0.778798	-0.652865	-0.133783
H83	H	0.858434	-0.082584	0.000084
C84	C	0.540775	0.136693	-0.156491
C85	C	0.473765	0.161170	-0.224519
C86	C	0.500509	0.192473	-0.308000
C87	C	0.594264	0.199299	-0.323454
C88	C	0.661280	0.174821	-0.255424
C89	C	0.634536	0.143518	-0.171942
H90	H	0.404357	0.156118	-0.213081
H91	H	0.450899	0.210593	-0.358360
H92	H	0.614062	0.222471	-0.385252
H93	H	0.730688	0.179873	-0.266862
H94	H	0.684146	0.125399	-0.121582
C95	C	0.755301	-0.338629	0.000007
C96	C	0.734943	-0.295930	0.076894
C97	C	0.651278	-0.255807	0.076886
C98	C	0.587973	-0.258384	-0.000010
C99	C	0.608330	-0.301085	-0.076902
C100	C	0.691994	-0.341207	-0.076894
H101	H	0.781807	-0.294021	0.133822
H102	H	0.636209	-0.224197	0.133807
H103	H	0.526039	-0.228682	-0.000016
H104	H	0.561466	-0.302994	-0.133830
H105	H	0.707064	-0.372818	-0.133815
H106	H	0.856524	-0.190359	0.000090
C107	C	0.407494	0.193408	-0.000060
C108	C	0.421567	0.234204	-0.077360
C109	C	0.376228	0.295753	-0.077437
C110	C	0.316816	0.316508	-0.000215
C111	C	0.302741	0.275712	0.077091
C112	C	0.348079	0.214162	0.077168
H113	H	0.465549	0.218840	-0.134529
H114	H	0.386648	0.325953	-0.134664
H115	H	0.283254	0.362071	-0.000272
H116	H	0.258758	0.291076	0.134260
H117	H	0.337659	0.183963	0.134395
C118	C	1.230089	-0.380671	0.000079
C119	C	1.293119	-0.394440	0.076960
C120	C	1.377944	-0.369240	0.076953
C121	C	1.399740	-0.330271	0.000064
C122	C	1.336709	-0.316500	-0.076823
C123	C	1.251883	-0.341700	-0.076816
H124	H	1.276986	-0.423289	0.133883
H125	H	1.424604	-0.379434	0.133870
H126	H	1.462533	-0.311617	0.000059
H127	H	1.352842	-0.287651	-0.133746
H128	H	1.205224	-0.331506	-0.133733
C129	C	1.120269	-0.008638	0.564647
C130	C	1.191638	0.008415	0.624441
C131	C	1.260263	-0.037772	0.659393
C132	C	1.257520	-0.101012	0.634550
C133	C	1.186149	-0.118069	0.574753
C134	C	1.117523	-0.071882	0.539801
H135	H	1.193671	0.055232	0.642834
H136	H	1.313097	-0.025146	0.703659
H137	H	1.308321	-0.135203	0.660424
H138	H	1.184116	-0.164886	0.556360
H139	H	1.064689	-0.084508	0.495535
C140	C	1.227885	-0.505397	0.000082
C141	C	1.291184	-0.502809	0.076981
C142	C	1.374855	-0.542924	0.077001
C143	C	1.395229	-0.585627	0.000122
C144	C	1.331929	-0.588216	-0.076783
C145	C	1.248257	-0.548101	-0.076803
H146	H	1.276103	-0.471196	0.133897
H147	H	1.421714	-0.541006	0.133932
H148	H	1.457168	-0.615322	0.000137
H149	H	1.347009	-0.619829	-0.133699
H150	H	1.201399	-0.550019	-0.133734
H151	H	1.126658	-0.653691	0.000063
H152	H	1.020766	0.172977	0.555839
C153	C	0.540978	0.136724	0.156409
C154	C	0.523590	0.113706	0.249740
C155	C	0.550533	0.145019	0.333121
C156	C	0.594864	0.199349	0.323172
C157	C	0.612254	0.222370	0.229838
C158	C	0.585312	0.191057	0.146457
H159	H	0.490772	0.073485	0.257108
H160	H	0.537659	0.127977	0.402213
H161	H	0.614808	0.222528	0.384896
H162	H	0.645072	0.262591	0.222470
H163	H	0.598185	0.208099	0.077364
H164	H	1.124746	-0.761464	0.000052
C165	C	0.829206	0.054317	0.564982
C166	C	0.822776	0.001323	0.623601
C167	C	0.736184	-0.011294	0.658816
C168	C	0.656022	0.029083	0.635412
C169	C	0.662449	0.082080	0.576790
C170	C	0.749041	0.094697	0.541575
H171	H	0.882119	-0.028569	0.640929
H172	H	0.731426	-0.050526	0.702212
H173	H	0.591921	0.019743	0.661481
H174	H	0.603106	0.111972	0.559462
H175	H	0.753799	0.133929	0.498179
H176	H	0.846878	-0.736855	0.000039
H177	H	0.449239	0.027346	0.134770
C178	C	0.575891	-0.037388	-0.000003
C179	C	0.561999	-0.078198	-0.077335
C180	C	0.607523	-0.139697	-0.077421
C181	C	0.666938	-0.160386	-0.000174
C182	C	0.680832	-0.119576	0.077165
C183	C	0.635309	-0.058076	0.077250
H184	H	0.518014	-0.062883	-0.134523
H185	H	0.597237	-0.169908	-0.134672
H186	H	0.700637	-0.205912	-0.000237
H187	H	0.724817	-0.134890	0.134353
H188	H	0.645595	-0.027866	0.134502
H189	H	1.136300	-0.107185	0.000119
C190	C	0.863108	0.164619	0.435247
C191	C	0.866763	0.227980	0.458705
C192	C	0.798293	0.274195	0.423531
C193	C	0.726168	0.257049	0.364899
C194	C	0.722511	0.193686	0.341438
C195	C	0.790981	0.147471	0.376612
H196	H	0.920156	0.240674	0.502111
H197	H	0.801001	0.321101	0.440899
H198	H	0.675483	0.291261	0.338861
H199	H	0.669117	0.180991	0.298032
H200	H	0.788272	0.100565	0.359244
C201	C	1.154039	0.101747	0.435316
C202	C	1.170024	0.104123	0.334356
C203	C	1.256631	0.116809	0.299280
C204	C	1.327254	0.127120	0.365165
C205	C	1.311271	0.124745	0.466131
C206	C	1.224663	0.112059	0.501207
H207	H	1.117743	0.096490	0.285579
H208	H	1.268462	0.118567	0.224538
H209	H	1.391366	0.136511	0.339200
H210	H	1.363552	0.132378	0.514908
H211	H	1.212832	0.110301	0.575949
C212	C	0.957683	-0.032250	0.435115
C213	C	0.942118	-0.080117	0.500836
C214	C	0.924006	-0.138884	0.465564
C215	C	0.921458	-0.149784	0.364571
C216	C	0.937023	-0.101917	0.298844
C217	C	0.955135	-0.043149	0.334116
H218	H	0.944004	-0.072048	0.575602
H219	H	0.912484	-0.174319	0.514219
H220	H	0.908051	-0.193287	0.338460
H221	H	0.935137	-0.109985	0.224078
H222	H	0.966657	-0.007714	0.285460
C223	C	0.442242	0.019145	-0.156269
C224	C	0.461034	0.041482	-0.249658
C225	C	0.434147	0.010082	-0.332977
C226	C	0.388469	-0.043656	-0.322908
C227	C	0.369675	-0.065996	-0.229516
C228	C	0.396562	-0.034596	-0.146196
H229	H	0.494849	0.081264	-0.257115
H230	H	0.448060	0.026620	-0.402113
H231	H	0.368566	-0.066900	-0.384586
H232	H	0.335860	-0.105778	-0.222058
H233	H	0.382649	-0.051134	-0.077061
H234	H	0.775123	-0.456812	0.000000
