data_functionalizedCrystal
_audit_creation_method	'MofGen! by Chris Wilmer'
_symmetry_space_group_name_H-M	'P1'
_symmetry_Int_Tables_number	1
_symmetry_cell_setting	triclinic
loop_
_symmetry_equiv_pos_as_xyz
  x,y,z
_cell_length_a	17.640112
_cell_length_b	25.639239
_cell_length_c	17.640618
_cell_angle_alpha	78.768777
_cell_angle_beta	92.134647
_cell_angle_gamma	101.263838
loop_
_atom_site_label
_atom_site_type_symbol
_atom_site_fract_x
_atom_site_fract_y
_atom_site_fract_z
Zn1	Zn	1.247788	-0.015021	-0.195084
Zn2	Zn	1.581121	0.318312	0.138249
Zn3	Zn	1.914454	0.651646	0.471583
Zn4	Zn	1.221962	-0.122899	-0.068100
Zn5	Zn	1.555296	0.210435	0.265233
Zn6	Zn	1.888629	0.543768	0.598567
Zn7	Zn	1.095097	-0.049035	-0.093728
Zn8	Zn	1.428431	0.284299	0.239605
Zn9	Zn	1.761764	0.617632	0.572938
Zn10	Zn	1.120718	-0.116014	-0.220685
Zn11	Zn	1.454052	0.217319	0.112648
Zn12	Zn	1.787385	0.550653	0.445982
O13	O	1.171391	-0.075742	-0.144399
O14	O	1.504725	0.257591	0.188934
O15	O	1.838058	0.590925	0.522267
O16	O	1.350634	-0.017978	-0.156800
O17	O	1.683968	0.315356	0.176534
O18	O	2.017301	0.648689	0.509867
O19	O	1.183603	-0.130216	0.034776
O20	O	1.516936	0.203117	0.368109
O21	O	1.850269	0.536450	0.701442
O22	O	1.115437	0.028656	-0.107185
O23	O	1.448771	0.361989	0.226148
O24	O	1.782104	0.695322	0.559482
O25	O	1.331660	-0.097235	-0.063505
O26	O	1.664994	0.236099	0.269828
O27	O	1.998327	0.569432	0.603162
O28	O	1.227618	0.053645	-0.181651
O29	O	1.560952	0.386979	0.151683
O30	O	1.894285	0.720312	0.485016
O31	O	1.090396	-0.075949	0.015946
O32	O	1.423729	0.257384	0.349280
O33	O	1.757062	0.590718	0.682613
O34	O	0.992224	-0.069273	-0.132009
O35	O	1.325557	0.264060	0.201324
O36	O	1.658890	0.597393	0.534658
O37	O	1.159105	-0.085501	-0.323564
O38	O	1.492438	0.247832	0.009769
O39	O	1.825772	0.581166	0.343103
O40	O	1.011047	-0.118483	-0.225283
O41	O	1.344381	0.214851	0.108050
O42	O	1.677714	0.548184	0.441383
O43	O	1.252462	-0.011302	-0.304755
O44	O	1.585796	0.322031	0.028578
O45	O	1.919129	0.655365	0.361912
O46	O	1.208447	-0.195164	-0.088329
O47	O	1.541780	0.138170	0.245004
O48	O	1.875113	0.471503	0.578338
O49	O	1.134063	-0.190105	-0.200433
O50	O	1.467396	0.143228	0.132901
O51	O	1.800730	0.476561	0.466234
C52	C	0.974080	-0.096822	-0.184206
C53	C	1.307414	0.236511	0.149128
C54	C	1.640747	0.569845	0.482461
C55	C	0.889673	-0.105850	-0.201253
C56	C	1.223007	0.227483	0.132080
C57	C	1.556340	0.560817	0.465414
C58	C	0.563037	-0.007148	-0.014898
C59	C	0.896371	0.326185	0.318435
C60	C	1.229704	0.659518	0.651768
C61	C	0.483726	-0.015640	-0.030927
C62	C	0.817060	0.317693	0.302406
C63	C	1.150393	0.651026	0.635739
C64	C	0.503348	-0.067001	-0.127887
C65	C	0.836681	0.266332	0.205447
C66	C	1.170014	0.599666	0.538780
C67	C	0.582663	-0.058511	-0.111868
C68	C	0.915996	0.274822	0.221465
C69	C	1.249329	0.608155	0.554798
C70	C	0.612501	-0.028585	-0.055373
C71	C	0.945834	0.304748	0.277960
C72	C	1.279167	0.638082	0.611294
C73	C	0.632126	-0.079948	-0.152343
C74	C	0.965459	0.253385	0.180990
C75	C	1.298793	0.586719	0.514324
C76	C	0.711433	-0.071461	-0.136323
C77	C	1.044767	0.261872	0.197010
C78	C	1.378100	0.595206	0.530344
C79	C	0.741277	-0.041537	-0.079829
C80	C	1.074611	0.291796	0.253505
C81	C	1.407944	0.625129	0.586838
C82	C	0.691808	-0.020098	-0.039353
C83	C	1.025141	0.313235	0.293980
C84	C	1.358475	0.646569	0.627314
C85	C	0.602286	-0.109877	-0.208834
C86	C	0.935619	0.223456	0.124499
C87	C	1.268952	0.556789	0.457832
C88	C	0.651749	-0.131314	-0.249309
C89	C	0.985082	0.202020	0.084025
C90	C	1.318416	0.535353	0.417358
C91	C	0.731059	-0.122824	-0.233293
C92	C	1.064392	0.210510	0.100040
C93	C	1.397725	0.543843	0.433374
C94	C	0.760903	-0.092900	-0.176799
C95	C	1.094236	0.240433	0.156535
C96	C	1.427569	0.573766	0.489868
C97	C	0.780528	-0.144263	-0.273769
C98	C	1.113861	0.189070	0.059565
C99	C	1.447195	0.522404	0.392898
C100	C	0.859835	-0.135776	-0.257749
C101	C	1.193169	0.197557	0.075585
C102	C	1.526502	0.530890	0.408918
C103	C	0.840210	-0.084413	-0.160779
C104	C	1.173543	0.248920	0.172555
C105	C	1.506877	0.582253	0.505888
C106	C	1.171257	-0.211604	-0.144390
C107	C	1.504590	0.121729	0.188943
C108	C	1.837923	0.455063	0.522276
C109	C	1.171274	-0.269715	-0.144398
C110	C	1.504607	0.063619	0.188936
C111	C	1.837940	0.396952	0.522269
C112	C	1.210266	-0.632656	-0.086084
C113	C	1.543600	-0.299323	0.247249
C114	C	1.876933	0.034011	0.580582
C115	C	1.210298	-0.687256	-0.086088
C116	C	1.543631	-0.353922	0.247245
C117	C	1.876964	-0.020589	0.580578
O118	O	1.243311	-0.717705	-0.036497
O119	O	1.576644	-0.384371	0.296837
O120	O	1.909977	-0.051038	0.630170
N121	N	1.171535	-0.711959	-0.144423
N122	N	1.504868	-0.378625	0.188911
N123	N	1.838202	-0.045292	0.522244
C124	C	1.132745	-0.682058	-0.202761
C125	C	1.466078	-0.348725	0.130572
C126	C	1.799411	-0.015391	0.463906
O127	O	1.099778	-0.708083	-0.252380
O128	O	1.433111	-0.374750	0.080954
O129	O	1.766444	-0.041417	0.414287
C130	C	1.132718	-0.627458	-0.202759
C131	C	1.466052	-0.294125	0.130574
C132	C	1.799385	0.039208	0.463908
C133	C	1.171477	-0.602760	-0.144417
C134	C	1.504810	-0.269426	0.188917
C135	C	1.838144	0.063907	0.522250
C136	C	1.249023	-0.607957	-0.027747
C137	C	1.582356	-0.274623	0.305586
C138	C	1.915689	0.058710	0.638920
C139	C	1.248990	-0.553361	-0.027742
C140	C	1.582323	-0.220028	0.305591
C141	C	1.915656	0.113305	0.638924
C142	C	1.210201	-0.523465	-0.086075
C143	C	1.543534	-0.190132	0.247259
C144	C	1.876867	0.143202	0.580592
C145	C	1.171444	-0.548164	-0.144412
C146	C	1.504778	-0.214831	0.188921
C147	C	1.838111	0.118502	0.522255
C148	C	1.093933	-0.597558	-0.261100
C149	C	1.427267	-0.264224	0.072234
C150	C	1.760600	0.069109	0.405567
C151	C	1.093911	-0.542955	-0.261093
C152	C	1.427244	-0.209621	0.072240
C153	C	1.760577	0.123712	0.405573
C154	C	1.132669	-0.518256	-0.202751
C155	C	1.466003	-0.184922	0.130583
C156	C	1.799336	0.148411	0.463916
C157	C	1.132622	-0.463672	-0.202740
C158	C	1.465956	-0.130339	0.130594
C159	C	1.799289	0.202994	0.463927
N160	N	1.171385	-0.438969	-0.144405
N161	N	1.504718	-0.105636	0.188928
N162	N	1.838052	0.227698	0.522261
C163	C	1.210174	-0.468865	-0.086073
C164	C	1.543508	-0.135532	0.247261
C165	C	1.876841	0.197801	0.580594
C166	C	1.132804	-0.796721	-0.202761
C167	C	1.466138	-0.463387	0.130572
C168	C	1.799471	-0.130054	0.463906
C169	C	1.132826	-0.851320	-0.202761
C170	C	1.466159	-0.517987	0.130573
C171	C	1.799492	-0.184653	0.463906
C172	C	1.210380	-0.856514	-0.086089
C173	C	1.543713	-0.523180	0.247245
C174	C	1.877047	-0.189847	0.580578
C175	C	1.210354	-0.801914	-0.086087
C176	C	1.543687	-0.468581	0.247247
C177	C	1.877020	-0.135247	0.580580
C178	C	1.171567	-0.772017	-0.144427
C179	C	1.504901	-0.438684	0.188907
C180	C	1.838234	-0.105351	0.522240
C181	C	1.210102	-0.354211	-0.086067
C182	C	1.543435	-0.020878	0.247267
C183	C	1.876768	0.312456	0.580600
C184	C	1.210063	-0.299611	-0.086065
C185	C	1.543396	0.033722	0.247268
C186	C	1.876729	0.367056	0.580601
C187	C	1.132512	-0.294421	-0.202739
C188	C	1.465845	0.038912	0.130594
C189	C	1.799179	0.372245	0.463927
C190	C	1.132547	-0.349017	-0.202739
C191	C	1.465881	-0.015684	0.130595
C192	C	1.799214	0.317649	0.463928
C193	C	1.171348	-0.378911	-0.144399
C194	C	1.504681	-0.045577	0.188935
C195	C	1.838015	0.287756	0.522268
O196	O	1.099629	-0.433189	-0.252308
O197	O	1.432962	-0.099856	0.081026
O198	O	1.766296	0.233478	0.414359
O199	O	1.243144	-0.442831	-0.036468
O200	O	1.576478	-0.109498	0.296865
O201	O	1.909811	0.223836	0.630199
C202	C	1.369473	-0.054580	-0.104438
C203	C	1.702806	0.278753	0.228895
C204	C	2.036140	0.612087	0.562229
C205	C	1.453884	-0.045562	-0.087409
C206	C	1.787217	0.287771	0.245925
C207	C	2.120550	0.621105	0.579258
C208	C	1.211522	-0.043839	-0.342486
C209	C	1.544856	0.289494	-0.009153
C210	C	1.878189	0.622827	0.324181
C211	C	1.228624	-0.030244	-0.426899
C212	C	1.561957	0.303089	-0.093565
C213	C	1.895290	0.636422	0.239768
C214	C	1.171551	0.060655	-0.144421
C215	C	1.504884	0.393989	0.188913
C216	C	1.838217	0.727322	0.522246
C217	C	1.171619	0.118780	-0.144430
C218	C	1.504952	0.452113	0.188903
C219	C	1.838285	0.785446	0.522237
C220	C	1.301328	0.027546	-0.536084
C221	C	1.634662	0.360879	-0.202751
C222	C	1.967995	0.694212	0.130582
C223	C	1.285254	0.014766	-0.456767
C224	C	1.618587	0.348100	-0.123433
C225	C	1.951920	0.681433	0.209900
C226	C	1.188043	-0.062492	-0.476344
C227	C	1.521377	0.270841	-0.143011
C228	C	1.854710	0.604175	0.190323
C229	C	1.204107	-0.049718	-0.555665
C230	C	1.537441	0.283615	-0.222332
C231	C	1.870774	0.616949	0.111001
C232	C	1.260751	-0.004699	-0.585529
C233	C	1.594085	0.328635	-0.252195
C234	C	1.927418	0.661968	0.081138
C235	C	1.163530	-0.081962	-0.605110
C236	C	1.496863	0.251371	-0.271777
C237	C	1.830197	0.584705	0.061557
C238	C	1.179596	-0.069190	-0.684424
C239	C	1.512929	0.264143	-0.351090
C240	C	1.846262	0.597476	-0.017757
C241	C	1.236239	-0.024174	-0.714293
C242	C	1.569572	0.309159	-0.380960
C243	C	1.902905	0.642492	-0.047626
C244	C	1.276817	0.008073	-0.664843
C245	C	1.610150	0.341406	-0.331509
C246	C	1.943484	0.674740	0.001824
C247	C	1.106890	-0.126983	-0.575244
C248	C	1.440223	0.206350	-0.241911
C249	C	1.773557	0.539683	0.091422
C250	C	1.066313	-0.159228	-0.624689
C251	C	1.399646	0.174106	-0.291355
C252	C	1.732980	0.507439	0.041978
C253	C	1.082375	-0.146454	-0.704005
C254	C	1.415708	0.186880	-0.370671
C255	C	1.749041	0.520213	-0.037338
C256	C	1.139018	-0.101438	-0.733874
C257	C	1.472351	0.231896	-0.400541
C258	C	1.805684	0.565229	-0.067207
C259	C	1.041796	-0.178701	-0.753455
C260	C	1.375130	0.154632	-0.420122
C261	C	1.708463	0.487966	-0.086789
C262	C	1.057862	-0.165929	-0.832769
C263	C	1.391195	0.167404	-0.499436
C264	C	1.724529	0.500737	-0.166102
C265	C	1.155083	-0.088666	-0.813188
C266	C	1.488417	0.244667	-0.479855
C267	C	1.821750	0.578001	-0.146521
C268	C	1.131460	-0.107478	0.052926
C269	C	1.464794	0.225855	0.386259
C270	C	1.798127	0.559188	0.719592
C271	C	1.114506	-0.120910	0.137368
C272	C	1.447840	0.212423	0.470701
C273	C	1.781173	0.545757	0.804034
H274	H	0.479042	-0.091369	-0.173883
H275	H	0.812375	0.241964	0.159450
H276	H	1.145709	0.575298	0.492784
H277	H	1.322933	0.044737	-0.689160
H278	H	1.656267	0.378071	-0.355827
H279	H	1.989600	0.711404	-0.022494
F280	F	1.091235	-0.262594	-0.264819
F281	F	1.424568	0.070740	0.068514
F282	F	1.757901	0.404073	0.401847
H283	H	1.141926	-0.099148	-0.452018
H284	H	1.475259	0.234185	-0.118684
H285	H	1.808592	0.567519	0.214649
F286	F	1.290313	-0.639767	0.034343
F287	F	1.623646	-0.306433	0.367676
F288	F	1.956979	0.026900	0.701010
H289	H	0.864508	-0.060035	-0.114786
H290	H	1.197841	0.273298	0.218548
H291	H	1.531174	0.606632	0.551881
F292	F	0.825684	-0.032508	-0.062775
F293	F	1.159017	0.300826	0.270558
F294	F	1.492350	0.634159	0.603892
F295	F	1.006030	-0.207139	-0.592897
F296	F	1.339364	0.126195	-0.259564
F297	F	1.672697	0.459528	0.073770
H298	H	1.347445	0.064210	-0.560402
H299	H	1.680778	0.397543	-0.227069
H300	H	2.014111	0.730877	0.106265
H301	H	1.318299	0.041028	-0.416510
H302	H	1.651633	0.374361	-0.083177
H303	H	1.984966	0.707695	0.250156
H304	H	0.995682	-0.215359	-0.729127
H305	H	1.329016	0.117975	-0.395794
H306	H	1.662349	0.451308	-0.062460
F307	F	0.723569	0.011757	0.020771
F308	F	1.056902	0.345090	0.354105
F309	F	1.390235	0.678424	0.687438
F310	F	0.517877	-0.118916	-0.225875
F311	F	0.851210	0.214417	0.107458
F312	F	1.184543	0.547751	0.440792
F313	F	0.619983	-0.163169	-0.309426
F314	F	0.953316	0.170164	0.023908
F315	F	1.286650	0.503498	0.357241
H316	H	0.587335	0.017230	0.031095
H317	H	0.920668	0.350563	0.364428
H318	H	1.254002	0.683897	0.697761
H319	H	0.756220	-0.168634	-0.319762
H320	H	1.089554	0.164700	0.013572
H321	H	1.422887	0.498033	0.346905
H322	H	1.024820	-0.192186	-0.873028
H323	H	1.358154	0.141147	-0.539695
H324	H	1.691487	0.474481	-0.206362
F325	F	1.089797	-0.140578	-0.490829
F326	F	1.423130	0.192756	-0.157496
F327	F	1.756463	0.526089	0.175837
H328	H	0.900110	-0.153231	-0.290708
H329	H	1.233444	0.180102	0.042625
H330	H	1.566777	0.513435	0.375959
H331	H	0.443455	0.001823	0.002031
H332	H	0.776789	0.335156	0.335364
H333	H	1.110122	0.668489	0.668698
H334	H	1.241624	-0.279504	-0.038553
H335	H	1.574957	0.053830	0.294780
H336	H	1.908291	0.387163	0.628113
H337	H	1.062327	-0.518614	-0.308603
H338	H	1.395661	-0.185281	0.024730
H339	H	1.728994	0.148052	0.358064
H340	H	1.241699	-0.378543	-0.038562
H341	H	1.575032	-0.045210	0.294771
H342	H	1.908365	0.288123	0.628105
H343	H	1.201200	-0.052002	-0.837506
H344	H	1.534533	0.281332	-0.504172
H345	H	1.867866	0.614665	-0.170839
F346	F	1.290253	-0.527080	0.034348
F347	F	1.623586	-0.193746	0.367681
F348	F	1.956920	0.139587	0.701014
H349	H	1.249320	-0.013778	-0.778875
H350	H	1.582654	0.319556	-0.445542
H351	H	1.915987	0.652889	-0.112209
F352	F	1.251606	-0.775633	-0.023992
F353	F	1.584939	-0.442299	0.309342
F354	F	1.918273	-0.108966	0.642675
H355	H	1.241968	-0.880865	-0.038593
H356	H	1.575301	-0.547531	0.294740
H357	H	1.908634	-0.214198	0.628074
H358	H	1.101213	-0.772382	-0.250268
H359	H	1.434546	-0.439049	0.083066
H360	H	1.767880	-0.105715	0.416399
F361	F	1.091563	-0.877603	-0.264850
F362	F	1.424897	-0.544269	0.068484
F363	F	1.758230	-0.210936	0.401817
H364	H	1.062367	-0.617659	-0.308606
H365	H	1.395701	-0.284325	0.024728
H366	H	1.729034	0.049008	0.358061
H367	H	1.100990	-0.369127	-0.250248
H368	H	1.434323	-0.035794	0.083086
H369	H	1.767656	0.297539	0.416419
