data_functionalizedCrystal
_audit_creation_method	'MofGen! by Chris Wilmer'
_symmetry_space_group_name_H-M	'P1'
_symmetry_Int_Tables_number	1
_symmetry_cell_setting	triclinic
loop_
_symmetry_equiv_pos_as_xyz
  x,y,z
_cell_length_a	17.640112
_cell_length_b	13.032721
_cell_length_c	13.032268
_cell_angle_alpha	103.289627
_cell_angle_beta	106.658984
_cell_angle_gamma	106.733580
loop_
_atom_site_label
_atom_site_type_symbol
_atom_site_fract_x
_atom_site_fract_y
_atom_site_fract_z
Zn1	Zn	1.166105	-0.141814	-0.297687
Zn2	Zn	1.166013	-0.296927	-0.142663
Zn3	Zn	1.046101	-0.156075	-0.156796
Zn4	Zn	1.005226	-0.368662	-0.369363
O5	O	1.095861	-0.240870	-0.241627
O6	O	1.283604	-0.126400	-0.241212
O7	O	1.167175	-0.254189	0.009301
O8	O	1.079165	-0.000300	-0.151403
O9	O	1.283537	-0.240361	-0.127316
O10	O	1.167331	0.010177	-0.254916
O11	O	1.079076	-0.150706	-0.001083
O12	O	0.923167	-0.220265	-0.220904
O13	O	1.009498	-0.362623	-0.513693
O14	O	0.893136	-0.376452	-0.377076
O15	O	1.127695	-0.195959	-0.461033
O16	O	1.127539	-0.460326	-0.196817
O17	O	1.009409	-0.513029	-0.363372
C18	C	1.064049	-0.526575	-0.286356
C19	C	1.050512	-0.648783	-0.305504
C20	C	0.877682	-0.307691	-0.308302
C21	C	0.784338	-0.336308	-0.336856
C22	C	1.102965	-0.677150	-0.231669
C23	C	1.088976	-0.803457	-0.251458
C24	C	0.555400	-0.023451	-0.024711
C25	C	0.467685	-0.050365	-0.051560
C26	C	0.436473	-0.213158	-0.213970
C27	C	0.524187	-0.186254	-0.187137
C28	C	0.583644	-0.091399	-0.092506
C29	C	0.552432	-0.254202	-0.254932
C30	C	0.640138	-0.227303	-0.228098
C31	C	0.699600	-0.132456	-0.133469
C32	C	0.671351	-0.064500	-0.065671
C33	C	0.492973	-0.349061	-0.349559
C34	C	0.521217	-0.417010	-0.417354
C35	C	0.608925	-0.390106	-0.390525
C36	C	0.668387	-0.295259	-0.295895
C37	C	0.637175	-0.458062	-0.458322
C38	C	0.724881	-0.431163	-0.431488
C39	C	0.756094	-0.268359	-0.269061
C40	C	1.314892	-0.173788	-0.174692
C41	C	1.408230	-0.145202	-0.146169
C42	C	1.064048	-0.285702	-0.528367
C43	C	1.050490	-0.304807	-0.650558
C44	C	1.127818	0.045954	-0.196741
C45	C	1.141436	0.168182	-0.177613
C46	C	1.102928	-0.230863	-0.678980
C47	C	1.088917	-0.250607	-0.805271
C48	C	1.127608	-0.196117	0.044024
C49	C	1.141362	-0.176652	0.166313
H50	H	1.033711	-0.872678	-0.329330
H51	H	0.472796	-0.494243	-0.494400
C52	C	1.261780	-0.006850	-0.790764
C53	C	1.215976	-0.071445	-0.740333
H54	H	1.307839	0.058102	-0.733130
H55	H	1.283630	-0.051876	-0.833210
H56	H	1.224936	0.017049	-0.840139
H57	H	1.252819	-0.095351	-0.690964
H58	H	1.194127	-0.026411	-0.697868
C59	C	0.968494	-0.420407	-0.848199
C60	C	1.014302	-0.355811	-0.898626
H61	H	0.922428	-0.485349	-0.905836
H62	H	1.005327	-0.444313	-0.798836
H63	H	0.946648	-0.375369	-0.805742
H64	H	1.036153	-0.400846	-0.941077
H65	H	0.977462	-0.331906	-0.948009
H66	H	1.158232	-0.607928	-0.153808
C67	C	1.215463	-0.631343	-0.073224
C68	C	1.216044	-0.738383	-0.072486
H69	H	1.261519	-0.573663	-0.008319
H70	H	1.221584	-0.620344	-0.140422
H71	H	1.162893	-0.627423	-0.071411
H72	H	1.268612	-0.742306	-0.074307
H73	H	1.209930	-0.749385	-0.005270
H74	H	0.588752	-0.535298	-0.535364
C75	C	0.685226	-0.594774	-0.594746
C76	C	0.755934	-0.505844	-0.506014
H77	H	0.704399	-0.640875	-0.640757
H78	H	0.651663	-0.639761	-0.563826
H79	H	0.651670	-0.563993	-0.639844
H80	H	0.789486	-0.536624	-0.460910
H81	H	0.789511	-0.460851	-0.536935
C82	C	0.898431	-0.736405	-0.407930
C83	C	0.975906	-0.742219	-0.410624
H84	H	0.852373	-0.794084	-0.472834
H85	H	0.892319	-0.747414	-0.340731
H86	H	0.898055	-0.663777	-0.408419
H87	H	0.976284	-0.814845	-0.410127
H88	H	0.982019	-0.731219	-0.477841
C89	C	0.375820	-0.287473	-0.399857
C90	C	0.396561	-0.378646	-0.379069
H91	H	0.316298	-0.305747	-0.418083
H92	H	0.407175	-0.221267	-0.333804
H93	H	0.389908	-0.273588	-0.461797
H94	H	0.382478	-0.392527	-0.317123
H95	H	0.365195	-0.444872	-0.445129
C96	C	1.145317	-0.059313	-0.523038
C97	C	1.177540	-0.125669	-0.585617
H98	H	1.191383	0.005625	-0.465397
H99	H	1.108495	-0.035402	-0.572410
H100	H	1.114232	-0.103160	-0.488852
H101	H	1.208620	-0.081825	-0.619810
H102	H	1.214377	-0.149580	-0.536237
H103	H	0.804508	-0.191106	-0.192017
H104	H	0.771015	-0.110558	-0.111620
H105	H	0.388052	-0.290391	-0.291016
H106	H	0.719765	0.012753	0.011373
H107	H	0.995220	-0.382726	-0.719722
C108	C	0.609017	0.067761	0.178043
C109	C	0.620770	0.080810	0.079313
H110	H	0.649379	0.132119	0.242260
H111	H	0.552751	0.061487	0.171768
H112	H	0.616966	0.000835	0.187066
H113	H	0.612815	0.147732	0.070285
H114	H	0.677049	0.087097	0.085589
C115	C	0.387140	-0.041977	0.068518
C116	C	0.436630	0.024340	0.022945
H117	H	0.367970	0.004146	0.114513
H118	H	0.339186	-0.102310	0.008323
H119	H	0.420707	-0.072726	0.113643
H120	H	0.403060	0.055083	-0.022186
H121	H	0.484590	0.084694	0.083149
