data_functionalizedCrystal
_audit_creation_method	'MofGen! by Chris Wilmer'
_symmetry_space_group_name_H-M	'P1'
_symmetry_Int_Tables_number	1
_symmetry_cell_setting	triclinic
loop_
_symmetry_equiv_pos_as_xyz
  x,y,z
_cell_length_a	10.654550
_cell_length_b	10.489741
_cell_length_c	9.730223
_cell_angle_alpha	89.998920
_cell_angle_beta	89.996251
_cell_angle_gamma	84.512038
loop_
_atom_site_label
_atom_site_type_symbol
_atom_site_fract_x
_atom_site_fract_y
_atom_site_fract_z
O1	O	1.667918	0.179156	-0.114402
O2	O	1.302447	0.196226	-0.114380
O3	O	1.493499	0.002089	-0.114383
O4	O	1.476867	0.373293	-0.114399
O5	O	1.493497	0.002094	0.114196
O6	O	1.302445	0.196231	0.114200
O7	O	1.667916	0.179161	0.114178
Zn8	Zn	1.485180	0.187697	0.150481
Zn9	Zn	1.485183	0.187690	-0.150683
O10	O	1.476864	0.373298	0.114181
C11	C	1.255648	0.194975	-0.000087
C12	C	1.116203	0.191225	-0.000079
C13	C	1.036771	0.305530	-0.000103
C14	C	0.905748	0.301999	-0.000127
C15	C	0.933603	0.069849	-0.000107
C16	C	1.064623	0.073381	-0.000073
C17	C	1.088351	0.423374	-0.000109
C18	C	1.008917	0.537688	-0.000135
C19	C	0.877895	0.534157	-0.000159
C20	C	0.826306	0.416312	-0.000156
C21	C	1.492241	-0.045439	-0.000094
C22	C	1.488483	-0.187067	-0.000096
C23	C	1.366923	-0.255148	-0.000099
C24	C	1.424346	-0.347296	0.112599
C25	C	1.424377	-0.347276	-0.112763
C26	C	1.545956	-0.277350	0.112695
C27	C	1.545970	-0.277319	-0.112768
C28	C	1.603481	-0.369440	-0.000043
C29	C	1.714715	0.180412	-0.000118
C30	C	1.854160	0.184162	-0.000136
C31	C	1.478122	0.420826	-0.000111
C32	C	1.481880	0.562454	-0.000118
N33	N	1.485187	0.187700	0.356017
N34	N	1.485186	0.187677	-0.356220
C35	C	1.569807	0.101766	0.427942
C36	C	1.569803	0.101751	0.571825
C37	C	1.400557	0.273615	0.571846
C38	C	1.400555	0.273623	0.427966
C39	C	1.654439	0.015843	0.355993
C40	C	1.739066	-0.070097	0.427918
C41	C	1.739063	-0.070113	0.571801
C42	C	1.654432	0.015812	0.643759
H43	H	0.719617	0.413446	-0.000154
C44	C	1.832157	-0.164601	0.348771
H45	H	1.820051	-0.152276	0.252779
H46	H	1.817766	-0.249870	0.372337
H47	H	1.916096	-0.149937	0.372355
H48	H	1.597362	-0.246302	-0.208058
C49	C	1.832137	-0.164645	0.650921
H50	H	1.820010	-0.152358	0.746917
H51	H	1.916077	-0.149997	0.627340
H52	H	1.817727	-0.249910	0.627332
H53	H	0.891588	-0.026095	-0.000127
H54	H	1.331655	0.343573	0.630444
C55	C	1.354875	-0.389090	-0.241477
H56	H	1.270841	-0.349563	-0.241323
H57	H	1.353647	-0.479519	-0.241008
H58	H	1.397250	-0.363955	-0.321510
H59	H	1.331649	0.343598	0.369404
H60	H	1.129299	-0.019696	-0.000057
H61	H	1.654428	0.015784	0.760919
C62	C	1.232470	0.427256	-0.000097
H63	H	1.272391	0.342301	-0.000094
H64	H	1.256963	0.470934	0.079606
H65	H	1.256971	0.470911	-0.079826
H66	H	1.654452	0.015851	0.238837
C67	C	1.231913	-0.187998	0.000058
H68	H	1.188927	-0.211793	0.080240
H69	H	1.188291	-0.212940	-0.079189
H70	H	1.235235	-0.097821	-0.000748
H71	H	0.813223	0.627237	-0.000166
C72	C	1.354866	-0.389163	0.241315
H73	H	1.270822	-0.349660	0.241186
H74	H	1.397243	-0.364063	0.321345
H75	H	1.353643	-0.479600	0.240803
H76	H	1.050930	0.633633	-0.000126
C77	C	1.615377	-0.235746	0.241555
H78	H	1.641996	-0.308991	0.295300
H79	H	1.560149	-0.178471	0.294242
H80	H	1.686831	-0.194122	0.214613
H81	H	1.703518	-0.418912	0.000014
