data_functionalizedCrystal
_audit_creation_method	'MofGen! by Chris Wilmer'
_symmetry_space_group_name_H-M	'P1'
_symmetry_Int_Tables_number	1
_symmetry_cell_setting	triclinic
loop_
_symmetry_equiv_pos_as_xyz
  x,y,z
_cell_length_a	19.188930
_cell_length_b	13.101039
_cell_length_c	19.188930
_cell_angle_alpha	86.654199
_cell_angle_beta	83.144779
_cell_angle_gamma	93.360061
loop_
_atom_site_label
_atom_site_type_symbol
_atom_site_fract_x
_atom_site_fract_y
_atom_site_fract_z
O1	O	0.930013	0.085556	0.083287
O2	O	1.430013	0.585556	0.583287
O3	O	0.726699	0.085488	0.095024
O4	O	1.226699	0.585488	0.595024
O5	O	0.834222	0.085504	-0.012499
O6	O	1.334222	0.585504	0.487501
O7	O	0.822489	0.085540	0.190810
O8	O	1.322489	0.585540	0.690810
O9	O	0.826507	-0.084927	-0.004772
O10	O	1.326507	0.415073	0.495228
O11	O	0.718984	-0.084943	0.102752
O12	O	1.218984	0.415057	0.602752
O13	O	0.922298	-0.084875	0.091014
O14	O	1.422298	0.415125	0.591014
Zn15	Zn	0.819416	-0.111969	0.098110
Zn16	Zn	1.319416	0.388031	0.598110
Zn17	Zn	0.829581	0.112582	0.087929
Zn18	Zn	1.329581	0.612582	0.587929
O19	O	0.814775	-0.084891	0.198538
O20	O	1.314775	0.415109	0.698538
C21	C	0.696830	0.000263	0.098508
C22	C	1.196830	0.500263	0.598508
C23	C	0.619324	0.000236	0.097369
C24	C	1.119324	0.500236	0.597369
N25	N	0.812484	-0.265218	0.105058
N26	N	1.312484	0.234782	0.605058
C27	C	0.803053	-0.474262	0.114517
C28	C	1.303053	0.025738	0.614517
C29	C	0.845947	-0.525131	0.071518
C30	C	1.345947	-0.025131	0.571518
C31	C	0.840699	-0.641451	0.076781
C32	C	1.340699	-0.141451	0.576781
C33	C	0.808300	-0.357933	0.109255
C34	C	1.308300	0.142067	0.609255
C35	C	0.574401	0.000263	0.160458
C36	C	1.074401	0.500263	0.660458
C37	C	0.501578	0.000274	0.159386
C38	C	1.001578	0.500274	0.659386
C39	C	0.473682	0.000279	0.095220
C40	C	0.973682	0.500279	0.595220
C41	C	0.518614	0.000246	0.032122
C42	C	1.018614	0.500246	0.532122
C43	C	0.591435	0.000224	0.033197
C44	C	1.091435	0.500224	0.533197
N45	N	0.368329	0.058316	0.043542
N46	N	0.868329	0.558316	0.543542
N47	N	0.299151	0.058339	0.042525
N48	N	0.799151	0.558339	0.542525
C49	C	0.254276	0.000341	0.091979
C50	C	0.754276	0.500341	0.591979
N51	N	0.281191	-0.057668	0.142498
N52	N	0.781191	0.442332	0.642498
N53	N	0.350375	-0.057686	0.143516
N54	N	0.850375	0.442314	0.643516
C55	C	0.394720	0.000301	0.094048
C56	C	0.894720	0.500301	0.594048
C57	C	0.130389	0.000379	0.153911
C58	C	0.630389	0.500379	0.653911
C59	C	0.057565	0.000383	0.152836
C60	C	0.557565	0.500383	0.652836
C61	C	0.074603	0.000365	0.025570
C62	C	0.574603	0.500365	0.525570
C63	C	0.147425	0.000350	0.026647
C64	C	0.647425	0.500350	0.526647
C65	C	0.175314	0.000362	0.090819
C66	C	0.675314	0.500362	0.590819
C67	C	0.952167	0.000352	0.087530
C68	C	1.452167	0.500352	0.587530
C69	C	1.029673	0.000386	0.088669
C70	C	1.529673	0.500386	0.588669
C71	C	0.829985	0.000285	-0.034646
C72	C	1.329985	0.500285	0.465354
C73	C	0.828843	0.000276	-0.112151
C74	C	1.328843	0.500276	0.387849
N75	N	0.836518	0.265831	0.080975
N76	N	1.336518	0.765831	0.580975
C77	C	0.891935	0.000293	-0.157075
C78	C	1.391935	0.500293	0.342925
C79	C	0.890864	0.000309	-0.229900
C80	C	1.390864	0.500309	0.270100
C81	C	0.826697	0.000288	-0.257795
C82	C	1.326697	0.500288	0.242205
C83	C	0.763597	0.000277	-0.212861
C84	C	1.263597	0.500277	0.287139
C85	C	0.764671	0.000271	-0.140039
C86	C	1.264671	0.500271	0.359961
N87	N	0.775024	-0.057730	-0.363170
N88	N	1.275024	0.442270	0.136830
N89	N	0.774008	-0.057727	-0.432349
N90	N	1.274008	0.442273	0.067651
C91	C	0.823460	0.000307	-0.477205
C92	C	1.323460	0.500307	0.022795
N93	N	0.873975	0.058325	-0.450270
N94	N	1.373975	0.558325	0.049730
N95	N	0.874992	0.058317	-0.381085
N96	N	1.374992	0.558317	0.118915
C97	C	0.825526	0.000295	-0.336758
C98	C	1.325526	0.500295	0.163242
C99	C	0.885395	0.000343	-0.601095
C100	C	1.385395	0.500343	-0.101095
C101	C	0.884321	0.000365	-0.673921
C102	C	1.384321	0.500365	-0.173921
C103	C	0.757052	0.000323	-0.656880
C104	C	1.257052	0.500323	-0.156880
C105	C	0.758128	0.000311	-0.584056
C106	C	1.258128	0.500311	-0.084056
C107	C	0.822301	0.000316	-0.556168
C108	C	1.322301	0.500316	-0.056168
C109	C	0.819012	0.000330	0.220685
C110	C	1.319012	0.500330	0.720685
C111	C	0.820154	0.000346	0.298189
C112	C	1.320154	0.500346	0.798189
H113	H	0.886611	-0.481323	0.030753
H114	H	1.386611	0.018677	0.530753
H115	H	0.495897	0.000263	-0.020123
H116	H	0.995897	0.500263	0.479877
O117	O	0.457865	0.000444	0.220621
O118	O	0.957865	0.500444	0.720621
C119	C	0.419271	0.088741	0.219801
C120	C	0.919271	0.588741	0.719801
H121	H	0.417104	0.118153	0.163056
H122	H	0.917104	0.618153	0.663056
H123	H	0.363551	0.068917	0.246872
H124	H	0.863551	0.568917	0.746872
H125	H	0.445948	0.150550	0.248810
H126	H	0.945948	0.650550	0.748810
O127	O	0.634980	0.000250	-0.028158
O128	O	1.134980	0.500250	0.471842
C129	C	0.594745	0.000225	-0.085024
C130	C	1.094745	0.500225	0.414976
H131	H	0.541807	0.032504	-0.068601
H132	H	1.041807	0.532504	0.431399
H133	H	0.623996	0.049695	-0.131460
H134	H	1.123996	0.549695	0.368540
H135	H	0.585899	-0.081541	-0.100997
H136	H	1.085899	0.418459	0.399003
H137	H	0.935701	0.000384	-0.710499
H138	H	1.435701	0.500384	-0.210499
H139	H	0.944190	0.000300	-0.134374
H140	H	1.444190	0.500300	0.365626
H141	H	0.762393	-0.518066	0.155280
H142	H	1.262393	-0.018066	0.655280
O143	O	0.601407	0.000406	0.222835
O144	O	1.101407	0.500406	0.722835
C145	C	0.582461	0.088702	0.257264
C146	C	1.082461	0.588702	0.757264
H147	H	0.533356	0.118140	0.237044
H148	H	1.033356	0.618140	0.737044
H149	H	0.571260	0.068866	0.316338
H150	H	1.071260	0.568866	0.816338
H151	H	0.627443	0.150496	0.246251
H152	H	1.127443	0.650496	0.746251
O153	O	0.047399	0.000417	-0.036703
O154	O	0.547399	0.500417	0.463297
C155	C	-0.026510	0.000412	-0.024123
C156	C	0.473490	0.500412	0.475877
H157	H	-0.042307	0.032687	0.028953
H158	H	0.457693	0.532687	0.528953
H159	H	-0.046492	0.049896	-0.067412
H160	H	0.453508	0.549896	0.432588
H161	H	-0.050496	-0.081347	-0.023740
H162	H	0.449504	0.418653	0.476260
O163	O	0.157367	0.000334	0.216307
O164	O	0.657367	0.500334	0.716307
C165	C	0.102097	0.000375	0.271764
C166	C	0.602097	0.500375	0.771764
H167	H	0.051216	-0.031883	0.253806
H168	H	0.551216	0.468117	0.753806
H169	H	0.114929	-0.049104	0.318820
H170	H	0.614929	0.450896	0.818820
H171	H	0.095456	0.082144	0.287509
H172	H	0.595456	0.582144	0.787509
O173	O	0.013861	0.000548	0.214074
O174	O	0.513861	0.500548	0.714074
C175	C	-0.024738	0.088840	0.213259
C176	C	0.475262	0.588840	0.713259
H177	H	-0.026915	0.118251	0.156515
H178	H	0.473085	0.618251	0.656515
H179	H	-0.080455	0.069010	0.240337
H180	H	0.419545	0.569010	0.740337
H181	H	0.001940	0.150653	0.242264
H182	H	0.501940	0.650653	0.742264
H183	H	0.184003	0.000333	-0.024728
H184	H	0.684003	0.500333	0.475272
H185	H	0.706752	0.000292	-0.547477
H186	H	1.206752	0.500292	-0.047477
H187	H	0.942243	0.000326	-0.266485
H188	H	1.442243	0.500326	0.233515
H189	H	0.711352	0.000262	-0.235579
H190	H	1.211352	0.500262	0.264421
H191	H	0.713292	0.000258	-0.103460
H192	H	1.213292	0.500258	0.396540
O193	O	0.947793	0.000411	-0.574118
O194	O	1.447793	0.500411	-0.074118
C195	C	1.003251	0.000418	-0.629390
C196	C	1.503251	0.500418	-0.129390
H197	H	0.985290	0.032680	-0.680261
H198	H	1.485290	0.532680	-0.180261
H199	H	1.050301	0.049919	-0.616544
H200	H	1.550301	0.549919	-0.116544
H201	H	1.019008	-0.081336	-0.636059
H202	H	1.519008	0.418664	-0.136059
H203	H	0.704806	0.000311	-0.679592
H204	H	1.204806	0.500311	-0.179592
