data_functionalizedCrystal
_audit_creation_method	'MofGen! by Chris Wilmer'
_symmetry_space_group_name_H-M	'P1'
_symmetry_Int_Tables_number	1
_symmetry_cell_setting	triclinic
loop_
_symmetry_equiv_pos_as_xyz
  x,y,z
_cell_length_a	13.635800
_cell_length_b	10.992723
_cell_length_c	17.982968
_cell_angle_alpha	85.811984
_cell_angle_beta	77.548040
_cell_angle_gamma	108.770285
loop_
_atom_site_label
_atom_site_type_symbol
_atom_site_fract_x
_atom_site_fract_y
_atom_site_fract_z
V1	V	-2.021121	-0.178966	0.237542
O2	O	-2.000852	0.007362	0.233027
O3	O	-2.010174	-0.353669	0.235911
O4	O	-1.994207	-0.176757	0.341145
O5	O	-2.016930	-0.170775	0.127064
V6	V	-2.261570	-0.156615	0.224329
O7	O	-2.154631	-0.227995	0.266526
O8	O	-2.353158	-0.107586	0.195344
O9	O	-2.160913	0.018088	0.225960
O10	O	-2.340537	-0.342943	0.228843
O11	O	-2.324459	-0.164806	0.334806
O12	O	-2.176880	-0.158824	0.120725
V13	V	-1.521121	-0.178966	0.237542
O14	O	-1.500852	0.007362	0.233027
O15	O	-1.510174	-0.353669	0.235911
O16	O	-1.494207	-0.176757	0.341145
O17	O	-1.516930	-0.170775	0.127064
V18	V	-1.761570	-0.156615	0.224329
O19	O	-1.654631	-0.227995	0.266526
O20	O	-1.853158	-0.107586	0.195344
O21	O	-1.660913	0.018088	0.225960
O22	O	-1.840537	-0.342943	0.228843
O23	O	-1.824459	-0.164806	0.334806
O24	O	-1.676880	-0.158824	0.120725
C25	C	-1.935987	-0.396240	0.232162
C26	C	-1.967661	-0.539065	0.231518
C27	C	-2.123113	-0.750023	0.234906
C28	C	-2.090329	-0.601549	0.235869
C29	C	-1.945498	-0.608635	0.302085
C30	C	-1.979168	-0.757305	0.301503
C31	C	-1.935565	-0.718293	0.155853
C32	C	-1.904420	-0.569571	0.155645
C33	C	-1.915618	-0.170570	0.366397
C34	C	-1.934343	-0.169919	0.451094
C35	C	-2.066773	0.060653	0.229707
C36	C	-2.024717	0.203476	0.230355
C37	C	-2.087140	-0.165015	0.095469
C38	C	-2.058035	-0.165659	0.010772
C39	C	-1.435987	-0.396240	0.232162
C40	C	-1.467661	-0.539065	0.231518
C41	C	-1.415618	-0.170570	0.366397
C42	C	-1.434343	-0.169919	0.451094
C43	C	-2.034588	-0.176052	0.494765
C44	C	-2.052175	-0.175440	0.574346
C45	C	-1.969518	-0.168704	0.610254
C46	C	-1.869264	-0.162567	0.566577
C47	C	-1.851676	-0.163170	0.486997
C48	C	-1.940193	-0.160134	0.887514
C49	C	-1.957791	-0.159536	0.967100
C50	C	-2.140693	-0.172404	0.974863
C51	C	-2.123105	-0.173007	0.895283
C52	C	-2.022851	-0.166863	0.851611
C53	C	-2.003781	-0.167524	0.765321
C54	C	-1.988589	-0.168052	0.696544
C55	C	-1.566773	0.060653	0.229707
C56	C	-1.524717	0.203476	0.230355
C57	C	-1.587140	-0.165015	0.095469
C58	C	-1.558035	-0.165659	0.010772
C59	C	-1.534592	-0.176039	0.494751
C60	C	-1.552195	-0.175411	0.574331
C61	C	-1.469551	-0.168672	0.610253
C62	C	-1.369292	-0.162548	0.566589
C63	C	-1.351688	-0.163167	0.487010
C64	C	-1.458448	-0.172384	-0.025130
C65	C	-1.431081	-0.172973	-0.104713
C66	C	-1.503306	-0.166848	-0.148391
C67	C	-1.602901	-0.160119	-0.112484
C68	C	-1.630263	-0.159520	-0.032903
C69	C	-1.402301	-0.734328	0.226313
C70	C	-1.369191	-0.585684	0.226680
C71	C	-1.513743	-0.577341	0.160469
C72	C	-1.545988	-0.725882	0.159720
C73	C	-1.589659	-0.765202	0.305369
C74	C	-1.554885	-0.616695	0.306908
H75	H	-2.110428	-0.554143	0.185432
H76	H	-1.679023	-0.806339	0.309094
H77	H	-1.906995	-0.788336	0.301308
Br78	Br	-2.021044	-0.575465	0.395668
Br79	Br	-1.688267	-0.183731	0.633572
H80	H	-1.586432	-0.547109	0.161288
Br81	Br	-1.295918	-0.182114	-0.153426
Br82	Br	-1.570806	-0.848197	0.394978
Br83	Br	-1.798221	-0.541243	0.301251
Br84	Br	-2.146778	-0.185207	0.446041
H85	H	-1.352607	-0.754614	0.172230
H86	H	-1.483900	-0.168170	0.675052
H87	H	-1.628570	-0.586527	0.314842
Br88	Br	-1.932498	-0.491483	0.068556
H89	H	-1.302008	-0.157062	0.595849
H90	H	-1.858574	-0.155177	0.851970
Br91	Br	-1.215628	-0.154875	0.427771
H92	H	-2.133802	-0.180426	0.609899
Br93	Br	-1.982131	-0.760261	0.065684
Br94	Br	-2.082859	-0.844160	0.395016
Br95	Br	-1.466156	-0.167665	-0.256393
H96	H	-2.190416	-0.178498	0.866051
Br97	Br	-1.700914	-0.151821	-0.171771
Br98	Br	-1.765432	-0.150412	0.015812
H99	H	-2.222325	-0.177401	1.010429
H100	H	-1.399625	-0.177371	0.010423
Br101	Br	-1.308739	-0.543161	0.311290
H102	H	-2.159582	-0.774933	0.184167
H103	H	-1.381743	-0.781005	0.276767
H104	H	-2.189372	-0.804432	0.288655
H105	H	-2.140697	-0.583179	0.290317
Br106	Br	-1.754148	-0.496123	0.142995
Br107	Br	-1.812605	-0.766914	0.149128
H108	H	-1.303053	-0.532967	0.172551
H109	H	-1.890475	-0.154048	0.996334
H110	H	-1.801963	-0.157076	0.595819
H111	H	-1.499143	-0.743111	0.103309
H112	H	-1.770039	-0.158145	0.451437
H113	H	-1.451906	-0.522820	0.104657
Br114	Br	-1.646772	-0.185187	0.446018
Br115	Br	-1.692869	-0.794032	0.159537
H116	H	-1.522412	-0.593065	0.359473
