data_functionalizedCrystal
_audit_creation_method	'MofGen! by Chris Wilmer'
_symmetry_space_group_name_H-M	'P1'
_symmetry_Int_Tables_number	1
_symmetry_cell_setting	triclinic
loop_
_symmetry_equiv_pos_as_xyz
  x,y,z
_cell_length_a	15.995350
_cell_length_b	10.654550
_cell_length_c	9.130313
_cell_angle_alpha	90.000110
_cell_angle_beta	89.996588
_cell_angle_gamma	83.988639
loop_
_atom_site_label
_atom_site_type_symbol
_atom_site_fract_x
_atom_site_fract_y
_atom_site_fract_z
O1	O	-1.111921	-0.161867	-0.121671
O2	O	-0.868262	-0.181857	-0.121701
O3	O	-0.995693	0.010950	-0.121680
O4	O	-0.984489	-0.354674	-0.121692
O5	O	-0.995692	0.010945	0.121919
O6	O	-0.868260	-0.181862	0.121898
O7	O	-1.111919	-0.161873	0.121927
Cu8	Cu	-0.990089	-0.171868	0.144155
Cu9	Cu	-0.990091	-0.171862	-0.143929
O10	O	-0.984487	-0.354680	0.121906
C11	C	-0.837061	-0.181033	0.000095
C12	C	-0.744096	-0.178555	0.000083
C13	C	-0.994870	0.057735	0.000117
C14	C	-0.992409	0.197146	0.000112
C15	C	-1.143119	-0.162696	0.000129
C16	C	-1.236084	-0.165174	0.000130
C17	C	-0.406297	-0.169658	0.000114
C18	C	-0.452934	-0.032344	0.000662
C19	C	-0.549639	-0.034822	0.000103
C20	C	-0.573883	-0.174071	0.000100
C21	C	-0.533190	-0.241796	-0.139004
C22	C	-0.436535	-0.238347	-0.139110
C23	C	-0.436210	-0.241190	0.137907
C24	C	-0.533156	-0.241157	0.139736
C25	C	-0.668595	-0.176573	0.000086
C26	C	-0.311585	-0.167161	0.000117
C27	C	-0.985311	-0.401464	0.000106
C28	C	-0.987772	-0.540875	0.000101
N29	N	-0.990094	-0.171871	0.346778
C30	C	-1.067438	0.277612	0.000126
C31	C	-1.065121	0.408603	0.000115
C32	C	-0.912737	0.378648	0.000084
C33	C	-0.915055	0.247660	0.000084
C34	C	-1.155416	0.294907	0.000150
C35	C	-1.153098	0.425897	0.000140
N36	N	-0.990093	-0.171848	-0.346551
C37	C	-1.046536	-0.086525	0.423439
C38	C	-1.046533	-0.086510	0.576776
C39	C	-0.933646	-0.257198	0.576777
C40	C	-0.933644	-0.257206	0.423443
C41	C	-1.111713	0.012017	0.423440
C42	C	-1.111711	0.012032	0.576777
H43	H	-0.577758	0.018413	0.099818
C44	C	-0.394194	-0.372686	-0.147773
C45	C	-0.344590	-0.386344	-0.274270
C46	C	-0.305568	-0.510070	-0.282299
H47	H	-0.435816	-0.430000	-0.151251
H48	H	-0.359735	-0.390027	-0.063934
H49	H	-0.379047	-0.369017	-0.358087
H50	H	-0.302955	-0.329058	-0.270820
H51	H	-0.271109	-0.527411	-0.198461
H52	H	-0.347195	-0.567374	-0.285773
H53	H	-0.271902	-0.519350	-0.368119
C54	C	-1.092593	0.140538	0.368218
C55	C	-1.080899	0.219164	0.487733
C56	C	-1.063272	0.337556	0.436919
H57	H	-1.138221	0.176982	0.310453
H58	H	-1.042926	0.131070	0.310456
H59	H	-1.130560	0.228636	0.545470
H60	H	-1.035268	0.182760	0.545510
H61	H	-1.013605	0.328087	0.379158
H62	H	-1.108904	0.373988	0.379154
H63	H	-1.055328	0.390914	0.518001
H64	H	-1.172504	-0.017777	0.375888
C65	C	-0.833502	0.160505	0.000130
C66	C	-0.765267	0.232784	0.000147
C67	C	-0.690124	0.152540	0.000209
H68	H	-0.831125	0.108756	-0.084795
H69	H	-0.831186	0.108801	0.085112
H70	H	-0.767581	0.284466	-0.084827
H71	H	-0.767616	0.284530	0.085066
H72	H	-0.687809	0.100836	0.085191
H73	H	-0.687756	0.100795	-0.084718
H74	H	-0.643818	0.201569	0.000234
H75	H	-1.183431	0.259644	0.105335
H76	H	-1.176054	-0.008646	0.618400
H77	H	-0.434092	0.022541	0.100419
H78	H	-0.887685	-0.326675	0.639214
H79	H	-0.433024	0.022293	-0.098541
C80	C	-0.569031	-0.175120	0.277000
C81	C	-0.503913	-0.129758	0.357209
C82	C	-0.536938	-0.068900	0.483649
H83	H	-0.595732	-0.233127	0.335229
H84	H	-0.608898	-0.106581	0.250124
H85	H	-0.464060	-0.198288	0.384087
H86	H	-0.477206	-0.071735	0.299023
H87	H	-0.576805	-0.000361	0.456773
H88	H	-0.563638	-0.126914	0.541866
H89	H	-0.492762	-0.038104	0.538079
H90	H	-0.417940	-0.188954	-0.243091
C91	C	-1.188385	0.487270	-0.140188
C92	C	-1.126136	0.548923	-0.209504
C93	C	-1.158604	0.605457	-0.338785
H94	H	-1.235055	0.546730	-0.117547
H95	H	-1.205952	0.424325	-0.203524
H96	H	-1.108581	0.611860	-0.146181
H97	H	-1.079461	0.489490	-0.232182
H98	H	-1.176171	0.542513	-0.402121
H99	H	-1.205275	0.664911	-0.316130
H100	H	-1.116372	0.647286	-0.385839
H101	H	-0.577186	0.018777	-0.099783
H102	H	-0.547909	-0.344099	-0.144178
C103	C	-0.828840	0.433740	0.000135
C104	C	-0.842866	0.565677	0.000168
C105	C	-0.765599	0.616466	0.000236
H106	H	-0.797852	0.406255	-0.084795
H107	H	-0.797904	0.406193	0.085113
H108	H	-0.873789	0.593212	-0.084801
H109	H	-0.873841	0.593196	0.085091
H110	H	-0.734663	0.588919	0.085214
H111	H	-0.734617	0.588972	-0.084695
H112	H	-0.775105	0.705989	0.000272
H113	H	-0.561292	-0.194753	-0.242525
H114	H	-1.091368	0.102989	0.624324
H115	H	-0.415414	-0.196301	0.243344
H116	H	-0.549110	-0.342702	0.148136
H117	H	-0.405037	-0.342430	0.138846
H118	H	-1.189828	0.266000	-0.101784
C119	C	-1.197284	0.481918	0.136201
C120	C	-1.226630	0.385231	0.219438
C121	C	-1.267325	0.436787	0.344792
H122	H	-1.243363	0.540493	0.108085
H123	H	-1.158895	0.523888	0.192906
H124	H	-1.265016	0.343282	0.162744
H125	H	-1.180568	0.326650	0.247592
H126	H	-1.228935	0.478757	0.401497
H127	H	-1.313399	0.495361	0.316661
H128	H	-1.287234	0.371192	0.401290
C129	C	-0.872322	-0.350000	0.340474
C130	C	-0.822904	-0.424748	0.440437
C131	C	-0.766408	-0.510256	0.364060
H132	H	-0.837133	-0.304934	0.280647
H133	H	-0.902714	-0.402384	0.280695
H134	H	-0.792513	-0.372370	0.500191
H135	H	-0.858069	-0.469842	0.500266
H136	H	-0.796801	-0.562641	0.304281
H137	H	-0.731226	-0.465180	0.304236
H138	H	-0.732877	-0.560991	0.431873
