data_functionalizedCrystal
_audit_creation_method	'MofGen! by Chris Wilmer'
_symmetry_space_group_name_H-M	'P1'
_symmetry_Int_Tables_number	1
_symmetry_cell_setting	triclinic
loop_
_symmetry_equiv_pos_as_xyz
  x,y,z
_cell_length_a	12.645331
_cell_length_b	25.639239
_cell_length_c	12.645323
_cell_angle_alpha	89.968126
_cell_angle_beta	89.977324
_cell_angle_gamma	90.037665
loop_
_atom_site_label
_atom_site_type_symbol
_atom_site_fract_x
_atom_site_fract_y
_atom_site_fract_z
Zn1	Zn	1.620577	-0.208161	-0.599395
Zn2	Zn	1.620393	-0.295600	-0.422113
Zn3	Zn	1.443291	-0.208179	-0.422139
Zn4	Zn	1.443208	-0.295566	-0.599328
O5	O	1.531867	-0.251876	-0.510744
O6	O	1.768900	-0.219767	-0.575895
O7	O	1.596858	-0.284025	-0.273769
O8	O	1.466920	-0.135011	-0.445691
O9	O	1.768765	-0.284008	-0.445647
O10	O	1.597171	-0.134998	-0.575920
O11	O	1.466742	-0.219797	-0.273788
O12	O	1.294933	-0.219764	-0.445627
O13	O	1.466778	-0.283949	-0.747685
O14	O	1.294872	-0.283967	-0.575807
O15	O	1.597090	-0.219734	-0.747733
O16	O	1.596778	-0.368760	-0.445582
O17	O	1.466600	-0.368735	-0.575782
C18	C	1.256438	-0.251864	-0.510713
C19	C	1.138607	-0.251871	-0.510725
C20	C	0.971047	-0.211295	-0.429281
C21	C	1.093606	-0.211400	-0.428922
C22	C	1.094046	-0.306949	-0.480197
C23	C	0.971448	-0.306727	-0.479641
C24	C	0.971468	-0.237893	-0.623013
C25	C	1.094075	-0.236663	-0.622389
C26	C	1.531689	-0.387719	-0.510695
C27	C	1.531710	-0.445833	-0.510710
C28	C	1.599827	-0.806196	-0.443064
C29	C	1.599869	-0.860801	-0.443079
O30	O	1.657600	-0.889038	-0.385511
N31	N	1.532054	-0.888115	-0.510814
C32	C	1.464201	-0.860823	-0.578547
O33	O	1.406523	-0.889070	-0.636163
C34	C	1.464166	-0.806219	-0.578538
C35	C	1.531978	-0.778908	-0.510790
C36	C	1.667635	-0.778884	-0.375323
C37	C	1.667592	-0.724284	-0.375308
C38	C	1.599742	-0.696995	-0.443034
C39	C	1.531935	-0.724307	-0.510775
C40	C	1.396319	-0.778928	-0.646275
C41	C	1.396290	-0.724321	-0.646260
C42	C	1.464102	-0.697009	-0.578513
C43	C	1.464042	-0.642418	-0.578485
N44	N	1.531857	-0.615103	-0.510750
C45	C	1.599707	-0.642392	-0.443024
C46	C	1.464281	-0.975493	-0.578564
C47	C	1.464309	-1.030096	-0.578569
C48	C	1.599979	-1.030070	-0.443101
C49	C	1.599944	-0.975466	-0.443092
C50	C	1.532096	-0.948179	-0.510828
C51	C	1.599611	-0.527727	-0.442997
C52	C	1.599560	-0.473122	-0.442984
C53	C	1.463894	-0.473152	-0.578455
C54	C	1.463942	-0.527753	-0.578464
C55	C	1.531809	-0.555039	-0.510731
O56	O	1.406343	-0.614146	-0.636027
O57	O	1.657385	-0.614138	-0.385428
C58	C	1.808372	-0.251889	-0.510775
C59	C	1.926203	-0.251895	-0.510788
C60	C	1.531945	-0.251836	-0.787249
C61	C	1.531979	-0.251819	-0.905079
C62	C	1.532075	-0.115503	-0.510816
C63	C	1.532164	-0.057389	-0.510846
C64	C	1.449747	-0.292026	-1.072613
C65	C	1.449962	-0.292225	-0.950053
C66	C	1.643667	-0.266773	-0.949595
C67	C	1.643216	-0.267025	-1.072194
C68	C	1.503578	-0.196432	-1.072291
C69	C	1.501086	-0.196764	-0.949684
C70	C	1.531850	-0.251879	-0.235314
C71	C	1.532023	-0.251749	-0.117485
H72	H	1.122877	-0.220654	-0.345759
H73	H	0.942793	-0.318601	-0.397599
N74	N	1.394578	-0.445281	-0.647635
N75	N	1.296765	-0.451428	-0.640527
H76	H	1.247812	-0.431744	-0.689392
H77	H	1.722813	-0.702050	-0.320146
H78	H	1.409021	-0.953278	-0.633720
H79	H	0.942468	-0.267464	-0.683743
H80	H	1.654878	-0.549937	-0.387844
N81	N	1.473629	-0.343645	-0.913190
N82	N	1.408662	-0.367522	-0.856474
H83	H	1.425410	-0.403832	-0.830420
N84	N	1.668832	-0.445232	-0.373766
N85	N	1.729406	-0.469608	-0.313304
H86	H	1.778330	-0.449913	-0.264419
N87	N	1.736960	-0.806746	-0.306136
N88	N	1.797493	-0.782343	-0.245667
H89	H	1.846456	-0.802016	-0.196794
N90	N	1.669279	-1.057958	-0.373923
N91	N	1.669295	-1.106711	-0.373951
H92	H	1.718234	-1.126409	-0.325096
N93	N	1.345540	-0.280393	-1.109586
N94	N	1.330690	-0.242284	-1.169444
H95	H	1.257092	-0.234067	-1.195566
N96	N	1.395017	-1.057982	-0.647761
N97	N	1.334441	-1.033604	-0.708217
H98	H	1.285503	-1.053297	-0.757090
H99	H	1.341094	-0.801156	-0.701438
H100	H	1.563505	-0.166423	-1.101312
H101	H	1.423555	-0.182801	-1.103198
N102	N	1.130604	-0.185812	-0.651260
N103	N	1.108252	-0.147379	-0.594756
H104	H	1.134055	-0.111465	-0.615140
N105	N	1.131396	-0.160159	-0.452896
N106	N	1.067226	-0.124068	-0.470010
H107	H	1.093909	-0.087874	-0.486928
N108	N	1.326982	-0.696456	-0.715467
N109	N	1.266450	-0.720853	-0.775947
H110	H	1.217500	-0.701175	-0.824825
H111	H	1.655163	-0.953232	-0.387927
H112	H	1.668196	-0.306787	-0.918897
N113	N	1.397986	-0.182621	-0.913148
N114	N	1.380254	-0.178844	-0.816203
H115	H	1.307441	-0.168859	-0.790385
H116	H	0.941780	-0.338001	-0.536418
N117	N	1.394651	-0.555646	-0.647653
N118	N	1.334068	-0.531272	-0.708109
H119	H	1.285133	-0.550968	-0.756980
H120	H	1.367140	-0.282867	-0.919953
N121	N	1.473069	-0.343147	-1.111275
N122	N	1.550021	-0.350045	-1.171733
H123	H	1.566496	-0.386149	-1.199041
H124	H	1.556637	-0.165168	-0.919071
H125	H	1.667331	-0.307463	-1.100794
H126	H	1.124693	-0.319027	-0.399035
H127	H	1.706611	-0.238364	-0.920467
N128	N	0.934109	-0.159907	-0.453030
N129	N	0.874298	-0.152603	-0.530301
H130	H	0.848199	-0.116308	-0.547074
N131	N	0.932316	-0.222764	-0.325572
N132	N	0.835055	-0.222638	-0.307886
H133	H	0.807697	-0.230739	-0.234643
N134	N	1.130611	-0.345907	-0.552339
N135	N	1.190064	-0.333484	-0.627236
H136	H	1.215889	-0.360998	-0.678190
H137	H	1.706594	-0.238962	-1.101879
H138	H	0.940601	-0.198432	-0.650774
H139	H	1.124713	-0.264076	-0.686368
