data_functionalizedCrystal
_audit_creation_method	'MofGen! by Chris Wilmer'
_symmetry_space_group_name_H-M	'P1'
_symmetry_Int_Tables_number	1
_symmetry_cell_setting	triclinic
loop_
_symmetry_equiv_pos_as_xyz
  x,y,z
_cell_length_a	12.759401
_cell_length_b	12.759400
_cell_length_c	11.169409
_cell_angle_alpha	90.033794
_cell_angle_beta	90.021169
_cell_angle_gamma	90.013799
loop_
_atom_site_label
_atom_site_type_symbol
_atom_site_fract_x
_atom_site_fract_y
_atom_site_fract_z
Zn1	Zn	1.606271	-0.418206	0.678574
Zn2	Zn	2.106271	0.081794	1.178574
Zn3	Zn	1.606161	-0.593932	0.477885
Zn4	Zn	2.106161	-0.093932	0.977885
Zn5	Zn	1.430568	-0.418265	0.477903
Zn6	Zn	1.930568	0.081735	0.977903
Zn7	Zn	1.430562	-0.593841	0.678526
Zn8	Zn	1.930562	-0.093841	1.178526
O9	O	1.518390	-0.506061	0.578222
O10	O	2.018390	-0.006061	1.078222
O11	O	1.753277	-0.441530	0.651965
O12	O	2.253277	0.058470	1.151965
O13	O	1.582825	-0.570692	0.309938
O14	O	2.082825	-0.070692	0.809938
O15	O	1.453925	-0.271236	0.504550
O16	O	1.953925	0.228764	1.004550
O17	O	1.753196	-0.570635	0.504520
O18	O	2.253196	-0.070635	1.004520
O19	O	1.583013	-0.271193	0.651982
O20	O	2.083013	0.228807	1.151982
O21	O	1.453818	-0.441630	0.309951
O22	O	1.953818	0.058370	0.809951
O23	O	1.283546	-0.441542	0.504504
O24	O	1.783546	0.058458	1.004504
O25	O	1.453913	-0.570480	0.846482
O26	O	1.953913	-0.070480	1.346482
O27	O	1.283541	-0.570537	0.651900
O28	O	1.783541	-0.070537	1.151900
O29	O	1.583006	-0.441442	0.846517
O30	O	2.083006	0.058558	1.346517
O31	O	1.582818	-0.740941	0.504473
O32	O	2.082818	-0.240941	1.004473
O33	O	1.453806	-0.740874	0.651883
O34	O	1.953806	-0.240874	1.151883
C35	C	1.245423	-0.506036	0.578199
C36	C	1.745423	-0.006036	1.078199
C37	C	1.128646	-0.506051	0.578218
C38	C	1.628646	-0.006051	1.078218
C39	C	1.073756	-0.438795	0.501610
C40	C	1.573756	0.061205	1.001610
C41	C	0.964032	-0.438820	0.501625
C42	C	1.464032	0.061180	1.001625
C43	C	0.964098	-0.573360	0.654867
C44	C	1.464098	-0.073360	1.154867
C45	C	1.073820	-0.573340	0.654845
C46	C	1.573820	-0.073340	1.154845
C47	C	1.128582	-0.371507	0.424983
C48	C	1.628582	0.128493	0.924983
C49	C	1.073692	-0.304244	0.348370
C50	C	1.573692	0.195756	0.848370
C51	C	0.963968	-0.304269	0.348385
C52	C	1.463968	0.195731	0.848385
C53	C	0.909134	-0.371557	0.425014
C54	C	1.409134	0.128443	0.925014
C55	C	1.518328	-0.779028	0.578197
C56	C	2.018328	-0.279028	1.078197
C57	C	1.518397	-0.895805	0.578226
C58	C	2.018397	-0.395805	1.078226
C59	C	1.585649	-0.950667	0.501555
C60	C	2.085649	-0.450667	1.001555
C61	C	1.585713	-1.060391	0.501592
C62	C	2.085713	-0.560391	1.001592
C63	C	1.451266	-1.060381	0.654975
C64	C	1.951266	-0.560381	1.154975
C65	C	1.451208	-0.950659	0.654943
C66	C	1.951208	-0.450659	1.154943
C67	C	1.652838	-0.895812	0.424838
C68	C	2.152838	-0.395812	0.924838
C69	C	1.720094	-0.950674	0.348160
C70	C	2.220094	-0.450674	0.848160
C71	C	1.720158	-1.060398	0.348197
C72	C	2.220158	-0.560398	0.848197
C73	C	1.652967	-1.115260	0.424912
C74	C	2.152967	-0.615260	0.924912
C75	C	1.792424	-0.506086	0.578246
C76	C	2.292424	-0.006086	1.078246
C77	C	1.909200	-0.506097	0.578256
C78	C	2.409200	-0.006097	1.078256
C79	C	1.518471	-0.505944	0.891265
C80	C	2.018471	-0.005944	1.391265
C81	C	1.518505	-0.505894	1.024665
C82	C	2.018505	-0.005894	1.524665
C83	C	1.518482	-0.232028	0.578273
C84	C	2.018482	0.267972	1.078273
C85	C	1.518520	-0.115251	0.578295
C86	C	2.018520	0.384749	1.078295
C87	C	1.518370	-0.506101	0.266397
C88	C	2.018370	-0.006101	0.766397
C89	C	1.518540	-0.505855	0.132998
C90	C	2.018540	-0.005855	0.632998
H91	H	1.118345	-0.249467	0.285975
H92	H	1.618345	0.250533	0.785975
H93	H	0.919444	-0.628141	0.717256
H94	H	1.419444	-0.128141	1.217256
Cl95	Cl	1.804567	-0.881707	0.251735
Cl96	Cl	2.304567	-0.381707	0.751735
H97	H	0.919279	-0.249508	0.285995
H98	H	1.419279	0.250492	0.785995
H99	H	1.774928	-1.105064	0.285770
H100	H	2.274928	-0.605064	0.785770
H101	H	1.652790	-0.806470	0.424796
H102	H	2.152790	-0.306470	0.924796
Cl103	Cl	1.142830	-0.657895	0.751151
Cl104	Cl	1.642830	-0.157895	1.251151
H105	H	1.396562	-1.105059	0.717432
H106	H	1.896562	-0.605059	1.217432
Cl107	Cl	0.771194	-0.371600	0.425013
Cl108	Cl	1.271194	0.128400	0.925013
H109	H	1.396447	-0.905990	0.717377
H110	H	1.896447	-0.405990	1.217377
H111	H	1.217925	-0.371476	0.424965
H112	H	1.717925	0.128524	0.924965
Cl113	Cl	1.652617	-1.253199	0.424460
Cl114	Cl	2.152617	-0.753199	0.924460
