data_functionalizedCrystal
_audit_creation_method	'MofGen! by Chris Wilmer'
_symmetry_space_group_name_H-M	'P1'
_symmetry_Int_Tables_number	1
_symmetry_cell_setting	triclinic
loop_
_symmetry_equiv_pos_as_xyz
  x,y,z
_cell_length_a	18.215407
_cell_length_b	10.686285
_cell_length_c	18.215399
_cell_angle_alpha	94.390852
_cell_angle_beta	90.017368
_cell_angle_gamma	85.629207
loop_
_atom_site_label
_atom_site_type_symbol
_atom_site_fract_x
_atom_site_fract_y
_atom_site_fract_z
Zn1	Zn	1.147644	-0.502447	0.393650
Zn2	Zn	1.480977	-0.169113	0.726983
Zn3	Zn	1.814310	0.164220	1.060317
Zn4	Zn	1.157032	-0.713463	0.261169
Zn5	Zn	1.490365	-0.380130	0.594502
Zn6	Zn	1.823698	-0.046797	0.927835
Zn7	Zn	1.024578	-0.502477	0.270601
Zn8	Zn	1.357911	-0.169144	0.603935
Zn9	Zn	1.691244	0.164190	0.937268
Zn10	Zn	1.034018	-0.713382	0.384203
Zn11	Zn	1.367351	-0.380049	0.717536
Zn12	Zn	1.700685	-0.046715	1.050869
O13	O	1.090818	-0.607942	0.327406
O14	O	1.424151	-0.274609	0.660739
O15	O	1.757484	0.058724	0.994072
O16	O	1.251874	-0.530460	0.376082
O17	O	1.585208	-0.197127	0.709416
O18	O	1.918541	0.136207	1.042749
O19	O	1.139439	-0.685522	0.159434
O20	O	1.472773	-0.352189	0.492767
O21	O	1.806106	-0.018856	0.826100
O22	O	1.033023	-0.325897	0.294825
O23	O	1.366356	0.007436	0.628159
O24	O	1.699689	0.340769	0.961492
O25	O	1.258772	-0.685493	0.278749
O26	O	1.592105	-0.352160	0.612082
O27	O	1.925438	-0.018826	0.945416
O28	O	1.123439	-0.325875	0.385229
O29	O	1.456772	0.007458	0.718562
O30	O	1.790106	0.340792	1.051895
O31	O	1.042126	-0.530511	0.166364
O32	O	1.375459	-0.197178	0.499697
O33	O	1.708793	0.136155	0.833030
O34	O	0.922845	-0.530433	0.285665
O35	O	1.256178	-0.197099	0.618998
O36	O	1.589511	0.136234	0.952331
O37	O	1.049113	-0.685354	0.488442
O38	O	1.382446	-0.352021	0.821776
O39	O	1.715779	-0.018688	1.155109
O40	O	0.929781	-0.685384	0.369127
O41	O	1.263114	-0.352050	0.702460
O42	O	1.596447	-0.018717	1.035794
O43	O	1.132593	-0.530381	0.495383
O44	O	1.465926	-0.197048	0.828716
O45	O	1.799260	0.136286	1.162050
O46	O	1.148594	-0.890028	0.269588
O47	O	1.481927	-0.556695	0.602922
O48	O	1.815260	-0.223362	0.936255
O49	O	1.058216	-0.889969	0.359981
O50	O	1.391549	-0.556635	0.693314
O51	O	1.724883	-0.223302	1.026647
C52	C	0.899610	-0.607904	0.327395
C53	C	1.232943	-0.274570	0.660728
C54	C	1.566276	0.058763	0.994061
C55	C	0.817812	-0.607917	0.327406
C56	C	1.151145	-0.274584	0.660739
C57	C	1.484478	0.058749	0.994073
C58	C	0.626033	-0.527358	0.378154
C59	C	0.959366	-0.194024	0.711488
C60	C	1.292699	0.139309	1.044821
C61	C	0.549174	-0.527369	0.378156
C62	C	0.882508	-0.194035	0.711490
C63	C	1.215841	0.139298	1.044823
C64	C	0.556357	-0.688562	0.276668
C65	C	0.889690	-0.355229	0.610002
C66	C	1.223023	-0.021896	0.943335
C67	C	0.633213	-0.688544	0.276664
C68	C	0.966546	-0.355211	0.609997
C69	C	1.299880	-0.021877	0.943330
C70	C	0.668049	-0.607944	0.327411
C71	C	1.001383	-0.274610	0.660744
C72	C	1.334716	0.058723	0.994077
C73	C	0.514334	-0.607973	0.327417
C74	C	0.847668	-0.274639	0.660751
C75	C	1.181001	0.058694	0.994084
C76	C	0.431001	-0.607985	0.327419
C77	C	0.764335	-0.274652	0.660753
C78	C	1.097668	0.058682	0.994086
C79	C	0.751388	-0.607929	0.327408
C80	C	1.084721	-0.274596	0.660741
C81	C	1.418054	0.058737	0.994075
C82	C	1.105468	-0.935783	0.312752
C83	C	1.438801	-0.602449	0.646085
C84	C	1.772135	-0.269116	0.979418
C85	C	1.111803	-1.076034	0.306507
C86	C	1.445136	-0.742701	0.639841
C87	C	1.778469	-0.409367	0.973174
C88	C	1.282772	-0.607982	0.327417
C89	C	1.616106	-0.274649	0.660751
C90	C	1.949439	0.058685	0.994084
C91	C	1.364572	-0.607999	0.327422
C92	C	1.697905	-0.274666	0.660756
C93	C	2.031239	0.058668	0.994089
C94	C	1.090859	-0.607855	0.519363
C95	C	1.424192	-0.274522	0.852696
C96	C	1.757525	0.058811	1.186029
C97	C	1.090876	-0.607818	0.601163
C98	C	1.424210	-0.274485	0.934496
C99	C	1.757543	0.058848	1.267830
C100	C	1.076131	-0.278822	0.342133
C101	C	1.409464	0.054511	0.675466
C102	C	1.742797	0.387845	1.008800
C103	C	1.069872	-0.138570	0.348409
C104	C	1.403205	0.194763	0.681742
C105	C	1.736538	0.528096	1.015075
C106	C	1.090815	-0.607938	0.136200
C107	C	1.424149	-0.274605	0.469533
C108	C	1.757482	0.058729	0.802866
C109	C	1.090924	-0.607620	0.054415
C110	C	1.424258	-0.274286	0.387749
C111	C	1.757591	0.059047	0.721082
C112	C	1.134358	-0.527048	0.792976
C113	C	1.467691	-0.193715	1.126309
C114	C	1.801025	0.139618	1.459643
C115	C	1.134365	-0.527011	0.869836
C116	C	1.467698	-0.193678	1.203170
C117	C	1.801032	0.139655	1.536503
C118	C	1.047438	-0.688393	0.862597
C119	C	1.380771	-0.355060	1.195930
C120	C	1.714104	-0.021726	1.529264
C121	C	1.047427	-0.688423	0.785738
C122	C	1.380760	-0.355089	1.119072
C123	C	1.714094	-0.021756	1.452405
C124	C	1.090891	-0.607752	0.750930
C125	C	1.424225	-0.274419	1.084263
C126	C	1.757558	0.058915	1.417596
C127	C	1.090909	-0.607686	0.904649
C128	C	1.424243	-0.274352	1.237982
C129	C	1.757576	0.058981	1.571315
C130	C	1.090917	-0.607647	0.987984
C131	C	1.424250	-0.274313	1.321318
C132	C	1.757583	0.059020	1.654651
C133	C	1.090883	-0.607789	0.667589
C134	C	1.424217	-0.274456	1.000922
C135	C	1.757550	0.058877	1.334256
H136	H	0.527984	-0.754185	0.235353
H137	H	0.861317	-0.420852	0.568686
H138	H	1.194650	-0.087519	0.902019
H139	H	1.152545	-1.129797	0.265848
H140	H	1.485878	-0.796464	0.599182
H141	H	1.819211	-0.463130	0.932515
F142	F	1.016615	-1.068309	0.401545
F143	F	1.349948	-0.734976	0.734878
F144	F	1.683281	-0.401643	1.068211
H145	H	1.169758	-0.461292	0.904067
H146	H	1.503092	-0.127959	1.237401
H147	H	1.836425	0.205374	1.570734
F148	F	1.180614	-0.441188	0.755933
F149	F	1.513948	-0.107855	1.089266
F150	F	1.847281	0.225478	1.422599
H151	H	1.012052	-0.754075	0.890948
H152	H	1.345386	-0.420742	1.224281
H153	H	1.678719	-0.087408	1.557614
F154	F	1.001158	-0.774317	0.740987
F155	F	1.334491	-0.440984	1.074320
F156	F	1.667825	-0.107651	1.407654
H157	H	0.654393	-0.461724	0.419474
H158	H	0.987727	-0.128390	0.752807
H159	H	1.321060	0.204943	1.086140
H160	H	0.667424	-0.754168	0.235338
H161	H	1.000758	-0.420835	0.568671
H162	H	1.334091	-0.087501	0.902005
F163	F	0.504460	-0.441596	0.432164
F164	F	0.837793	-0.108263	0.765497
F165	F	1.171127	0.225071	1.098830
