data_functionalizedCrystal
_audit_creation_method	'MofGen! by Chris Wilmer'
_symmetry_space_group_name_H-M	'P1'
_symmetry_Int_Tables_number	1
_symmetry_cell_setting	triclinic
loop_
_symmetry_equiv_pos_as_xyz
  x,y,z
_cell_length_a	14.971482
_cell_length_b	16.974813
_cell_length_c	13.448316
_cell_angle_alpha	86.338833
_cell_angle_beta	89.993798
_cell_angle_gamma	83.503742
loop_
_atom_site_label
_atom_site_type_symbol
_atom_site_fract_x
_atom_site_fract_y
_atom_site_fract_z
O1	O	1.186698	0.103029	-0.090968
O2	O	0.926268	0.115372	-0.091966
O3	O	1.063743	-0.005896	-0.082200
O4	O	1.049223	0.224297	-0.100734
O5	O	1.063726	-0.005904	0.083184
O6	O	0.926251	0.115364	0.073418
O7	O	1.186681	0.103022	0.074416
Cu8	Cu	1.056464	0.109192	0.089018
Cu9	Cu	1.056485	0.109201	-0.106568
O10	O	1.049206	0.224290	0.064650
C11	C	0.892936	0.114817	-0.009230
C12	C	0.793643	0.113164	-0.009099
C13	C	0.746990	0.112382	0.081116
C14	C	0.653696	0.110816	0.081243
C15	C	0.607054	0.110039	-0.008846
C16	C	0.653713	0.110819	-0.099068
C17	C	0.747007	0.112379	-0.099193
C18	C	0.459259	0.107570	-0.098800
C19	C	0.365959	0.106012	-0.098675
C20	C	0.365948	0.106008	0.081637
C21	C	0.459242	0.107567	0.081511
C22	C	0.505894	0.108349	-0.008711
C23	C	1.063182	-0.035359	0.002862
C24	C	1.061525	-0.123138	0.009922
C25	C	1.060758	-0.164368	-0.076911
C26	C	1.059195	-0.246844	-0.070273
C27	C	1.058406	-0.288090	0.023199
C28	C	1.059170	-0.246854	0.110038
C29	C	1.060727	-0.164378	0.103400
C30	C	1.053745	-0.534757	0.052720
C31	C	1.052191	-0.617239	0.059352
C32	C	1.052214	-0.617223	-0.120960
C33	C	1.053776	-0.534746	-0.127590
C34	C	1.054536	-0.493517	-0.040751
N35	N	1.056812	-0.372395	0.029985
N36	N	1.056124	-0.409213	-0.047539
C37	C	1.220013	0.103577	-0.008322
C38	C	1.319307	0.105229	-0.008460
C39	C	1.049767	0.253753	-0.020414
C40	C	1.051424	0.341531	-0.027481
N41	N	1.056457	0.109186	0.226583
N42	N	1.056500	0.109202	-0.244132
C43	C	1.117349	0.055510	0.282946
C44	C	1.117355	0.055510	0.387049
C45	C	1.056471	0.109189	0.434787
C46	C	0.995572	0.162867	0.378417
C47	C	0.995563	0.162863	0.274316
C48	C	0.995597	0.162872	0.595397
C49	C	0.995607	0.162877	0.699505
C50	C	1.117389	0.055519	0.708130
C51	C	1.117380	0.055515	0.604029
C52	C	1.056481	0.109194	0.547666
H53	H	0.497214	0.108205	0.154869
F54	F	1.182163	-0.001619	0.447035
F55	F	1.182156	-0.001620	0.232149
F56	F	1.182183	-0.001611	0.553221
H57	H	1.051544	-0.650818	0.135472
F58	F	1.061542	-0.120499	0.195820
H59	H	0.946028	0.206588	0.738368
H60	H	1.166974	0.011811	0.754027
F61	F	0.604048	0.109995	0.177261
H62	H	0.946004	0.206581	0.549509
F63	F	0.316321	0.105183	-0.194557
H64	H	1.058574	-0.280411	-0.140982
H65	H	0.497241	0.108207	-0.172268
F66	F	0.930770	0.219994	0.429225
H67	H	0.945977	0.206570	0.228426
H68	H	1.058522	-0.280442	0.186145
H69	H	0.784990	0.113017	-0.172656
F70	F	0.796621	0.113214	0.177003
F71	F	0.604075	0.109968	-0.194946
F72	F	1.051405	-0.661108	-0.213374
F73	F	0.316296	0.105176	0.177658
H74	H	1.054420	-0.501169	-0.203705
F75	F	1.061604	-0.120479	-0.176397
F76	F	1.054542	-0.490886	0.145143
