data_functionalizedCrystal
_audit_creation_method	'MofGen! by Chris Wilmer'
_symmetry_space_group_name_H-M	'P1'
_symmetry_Int_Tables_number	1
_symmetry_cell_setting	triclinic
loop_
_symmetry_equiv_pos_as_xyz
  x,y,z
_cell_length_a	10.489711
_cell_length_b	19.288865
_cell_length_c	17.766277
_cell_angle_alpha	90.011603
_cell_angle_beta	89.989120
_cell_angle_gamma	96.168372
loop_
_atom_site_label
_atom_site_type_symbol
_atom_site_fract_x
_atom_site_fract_y
_atom_site_fract_z
O1	O	1.691871	-0.097896	-0.062631
O2	O	1.320462	-0.107115	-0.062628
O3	O	1.516898	-0.001447	-0.062615
O4	O	1.495434	-0.203565	-0.062644
O5	O	1.516864	-0.001441	0.062574
O6	O	1.320427	-0.107110	0.062561
O7	O	1.691836	-0.097890	0.062557
Cu8	Cu	1.506129	-0.102499	0.073990
Cu9	Cu	1.506169	-0.102506	-0.074060
O10	O	1.495400	-0.203559	0.062544
C11	C	1.272928	-0.106421	-0.000033
C12	C	1.131343	-0.104350	-0.000031
C13	C	0.947520	-0.167896	-0.000049
C14	C	1.040400	-0.136157	-0.061767
C15	C	1.040339	-0.136135	0.061659
C16	C	0.971970	-0.068888	-0.061816
C17	C	0.971900	-0.068875	0.061666
C18	C	1.064754	-0.037086	-0.000068
C19	C	1.516190	0.024437	-0.000018
C20	C	1.514117	0.101555	-0.000011
C21	C	1.739370	-0.098585	-0.000039
C22	C	1.880955	-0.100655	-0.000046
C23	C	1.496108	-0.229443	-0.000054
C24	C	1.498181	-0.306560	-0.000065
N25	N	1.506109	-0.102494	0.178120
C26	C	1.629377	0.145485	-0.000009
C27	C	1.627429	0.217945	-0.000021
C28	C	1.510215	0.246471	-0.000020
C29	C	1.394940	0.202532	-0.000027
C30	C	1.396891	0.130073	-0.000023
C31	C	1.418059	0.355373	0.043832
C32	C	1.416113	0.427831	0.043832
C33	C	1.504193	0.469957	-0.000037
C34	C	1.594241	0.439618	-0.043896
C35	C	1.596192	0.367160	-0.043892
C36	C	1.508087	0.325040	-0.000025
C37	C	1.617349	0.592457	-0.000048
C38	C	1.615396	0.664918	-0.000065
C39	C	1.382903	0.649503	-0.000063
C40	C	1.384859	0.577044	-0.000054
C41	C	1.502085	0.548525	-0.000043
N42	N	1.506199	-0.102506	-0.178190
C43	C	1.593119	-0.055728	0.217513
C44	C	1.593127	-0.055724	0.296315
C45	C	1.506136	-0.102500	0.335721
C46	C	1.419110	-0.149270	0.296319
C47	C	1.419096	-0.149268	0.217518
C48	C	1.489061	-0.165674	0.460550
C49	C	1.489083	-0.165678	0.539348
C50	C	1.506170	-0.102509	0.578767
C51	C	1.523262	-0.039333	0.539377
C52	C	1.523249	-0.039330	0.460577
C53	C	1.506140	-0.102508	0.421166
C54	C	1.593193	-0.055734	0.703606
C55	C	1.593192	-0.055730	0.782409
C56	C	1.419181	-0.149282	0.782411
C57	C	1.419176	-0.149281	0.703610
C58	C	1.506189	-0.102507	0.664212
H59	H	1.115463	0.018232	-0.000091
H60	H	1.342785	0.452526	0.079540
C61	C	0.931241	-0.030491	-0.132390
N62	N	0.900560	-0.001573	-0.185547
C63	C	1.754229	0.266277	-0.000013
N64	N	1.849735	0.302678	-0.000005
H65	H	0.941506	-0.040444	0.113855
H66	H	1.346330	0.321079	0.079559
H67	H	0.896579	-0.223164	-0.000118
H68	H	1.348346	-0.187365	0.814495
C69	C	1.470269	-0.235172	0.582670
N70	N	1.456091	-0.287517	0.615298
H71	H	1.070637	-0.164595	0.113838
C72	C	1.323414	-0.200721	0.339667
N73	N	1.251329	-0.239472	0.372317
C74	C	1.688824	-0.004269	0.174180
N75	N	1.760906	0.034493	0.141540
C76	C	1.758330	0.114119	-0.000003
N77	N	1.855458	0.090493	-0.000000
C78	C	1.695233	0.333790	-0.092142
N79	N	1.769828	0.308655	-0.128488
C80	C	1.691133	0.485952	-0.092159
N81	N	1.764109	0.520854	-0.128509
C82	C	1.470263	-0.235170	0.417197
N83	N	1.456105	-0.287513	0.384545
C84	C	1.081433	-0.174601	-0.132263
N85	N	1.112340	-0.203562	-0.185356
H86	H	1.712801	0.569236	-0.000043
C87	C	1.253966	0.680879	-0.000065
N88	N	1.156846	0.704514	-0.000069
H89	H	1.709259	0.700686	-0.000067
C90	C	1.258062	0.528719	-0.000053
N91	N	1.162553	0.492320	-0.000055
H92	H	1.348329	-0.187365	0.671534
H93	H	1.303029	0.094305	-0.000024
C94	C	1.323430	-0.200748	0.174185
N95	N	1.251393	-0.239535	0.141545
H96	H	1.664042	-0.017643	0.814483
H97	H	1.299503	0.225763	-0.000028
H98	H	1.537162	0.012110	0.428509
C99	C	1.688861	-0.004282	0.339655
N100	N	1.760973	0.034461	0.372297
H101	H	1.537175	0.012106	0.571470
H102	H	1.664041	-0.017647	0.671527
