data_functionalizedCrystal
_audit_creation_method	'MofGen! by Chris Wilmer'
_symmetry_space_group_name_H-M	'P1'
_symmetry_Int_Tables_number	1
_symmetry_cell_setting	triclinic
loop_
_symmetry_equiv_pos_as_xyz
  x,y,z
_cell_length_a	16.109301
_cell_length_b	16.109318
_cell_length_c	9.730217
_cell_angle_alpha	89.999658
_cell_angle_beta	90.004322
_cell_angle_gamma	83.465022
loop_
_atom_site_label
_atom_site_type_symbol
_atom_site_fract_x
_atom_site_fract_y
_atom_site_fract_z
O1	O	-0.106934	-1.103122	-0.114180
O2	O	0.393066	-0.603122	0.385820
O3	O	-0.120218	-0.861062	-0.114208
O4	O	0.379782	-0.361062	0.385792
O5	O	0.007455	-0.988741	-0.114179
O6	O	0.507455	-0.488741	0.385821
O7	O	-0.234606	-0.975442	-0.114209
O8	O	0.265394	-0.475442	0.385791
O9	O	0.007455	-0.988733	0.114401
O10	O	0.507455	-0.488733	0.614401
O11	O	-0.120218	-0.861053	0.114372
O12	O	0.379782	-0.361053	0.614372
O13	O	-0.106934	-1.103113	0.114400
O14	O	0.393066	-0.603113	0.614400
Zn15	Zn	-0.113576	-0.982082	0.150678
Zn16	Zn	0.386424	-0.482082	0.650678
Zn17	Zn	-0.113576	-0.982093	-0.150486
Zn18	Zn	0.386424	-0.482093	0.349514
O19	O	-0.234607	-0.975434	0.114371
O20	O	0.265393	-0.475434	0.614371
C21	C	-0.119677	-0.830083	0.000078
C22	C	0.380323	-0.330083	0.500078
C23	C	-0.118057	-0.737788	0.000068
C24	C	0.381943	-0.237788	0.500068
C25	C	0.038430	-0.988198	0.000111
C26	C	0.538430	-0.488198	0.500111
C27	C	0.130725	-0.986583	0.000113
C28	C	0.630725	-0.486583	0.500113
C29	C	-0.107474	-1.134092	0.000111
C30	C	0.392526	-0.634092	0.500111
C31	C	-0.109095	-1.226387	0.000112
C32	C	0.390905	-0.726387	0.500112
C33	C	-0.265581	-0.975976	0.000077
C34	C	0.234419	-0.475976	0.500077
C35	C	-0.357877	-0.977592	0.000067
C36	C	0.142123	-0.477592	0.500067
C37	C	0.352993	-1.058590	0.000100
C38	C	0.852993	-0.558590	0.500100
C39	C	0.439713	-1.057066	0.000088
C40	C	0.939713	-0.557066	0.500088
C41	C	0.419848	-0.905579	0.000076
C42	C	0.919848	-0.405579	0.500076
C43	C	0.333130	-0.907104	0.000077
C44	C	0.833130	-0.407104	0.500077
C45	C	0.299704	-0.983612	0.000096
C46	C	0.799704	-0.483612	0.500096
C47	C	0.473144	-0.980563	0.000083
C48	C	0.973144	-0.480563	0.500083
C49	C	0.567170	-0.978910	0.000071
C50	C	1.067170	-0.478910	0.500071
C51	C	0.205672	-0.985265	0.000106
C52	C	0.705672	-0.485265	0.500106
C53	C	-0.112821	-0.438719	-0.124506
C54	C	0.387179	0.061281	0.375494
C55	C	-0.114339	-0.525440	-0.124515
C56	C	0.385661	-0.025440	0.375485
C57	C	-0.114328	-0.525450	0.124696
C58	C	0.385672	-0.025450	0.624696
C59	C	-0.112804	-0.438731	0.124703
C60	C	0.387196	0.061269	0.624703
C61	C	-0.112056	-0.395367	0.000098
C62	C	0.387944	0.104633	0.500098
C63	C	-0.115096	-0.568807	0.000082
C64	C	0.384904	-0.068807	0.500082
C65	C	-0.116742	-0.662835	0.000074
C66	C	0.383258	-0.162835	0.500074
C67	C	-0.110409	-0.301334	0.000106
C68	C	0.389591	0.198666	0.500106
N69	N	-0.113576	-0.982080	0.356214
N70	N	0.386424	-0.482080	0.856214
N71	N	-0.113569	-0.982101	-0.356023
N72	N	0.386431	-0.482101	0.143977
C73	C	-0.000548	-1.095207	0.643964
C74	C	0.499452	-0.595207	1.143964
C75	C	0.055965	-1.151752	0.572018
C76	C	0.555965	-0.651752	1.072018
C77	C	0.055967	-1.151741	0.428138
C78	C	0.555967	-0.651741	0.928138
C79	C	-0.000552	-1.095181	0.356202
C80	C	0.499448	-0.595181	0.856202
C81	C	-0.057065	-1.038636	0.428148
C82	C	0.442935	-0.538636	0.928148
C83	C	-0.057059	-1.038651	0.572031
C84	C	0.442941	-0.538651	1.072031
C85	C	-0.170089	-0.925535	0.428161
C86	C	0.329911	-0.425535	0.928161
C87	C	-0.170088	-0.925541	0.572040
C88	C	0.329912	-0.425541	1.072040
C89	C	-0.226608	-0.868975	0.356224
C90	C	0.273392	-0.368975	0.856224
C91	C	-0.283118	-0.812425	0.428170
C92	C	0.216882	-0.312425	0.928170
C93	C	-0.283117	-0.812437	0.572059
C94	C	0.216883	-0.312437	1.072059
C95	C	-0.226602	-0.868996	0.643987
C96	C	0.273398	-0.368996	1.143987
H97	H	0.325781	-1.120888	0.000112
H98	H	0.825781	-0.620888	0.500112
F99	F	-0.343268	-0.752240	0.351605
F100	F	0.156732	-0.252240	0.851605
H101	H	-0.112211	-0.403415	-0.225968
H102	H	0.387789	0.096585	0.274032
H103	H	0.101981	-1.197805	0.630602
H104	H	0.601981	-0.697805	1.130602
F105	F	-0.115151	-0.571575	-0.257136
F106	F	0.384849	-0.071575	0.242864
F107	F	0.276412	-0.827297	0.000064
F108	F	0.776412	-0.327297	0.500064
H109	H	0.483098	-1.118121	0.000088
H110	H	0.983098	-0.618121	0.500088
H111	H	-0.000537	-1.095215	0.761119
H112	H	0.499463	-0.595215	1.261119
F113	F	0.455430	-0.824158	0.000055
F114	F	0.955430	-0.324158	0.500055
H115	H	-0.112180	-0.403433	0.226177
H116	H	0.387820	0.096567	0.726177
F117	F	-0.115131	-0.571607	0.257302
F118	F	0.384869	-0.071607	0.757302
F119	F	0.116111	-1.211927	0.351567
F120	F	0.616111	-0.711927	0.851567
H121	H	-0.000553	-1.095183	0.239047
H122	H	0.499447	-0.595183	0.739047
F123	F	-0.226610	-0.868967	0.203094
F124	F	0.273390	-0.368967	0.703094
F125	F	-0.343272	-0.752257	0.648618
F126	F	0.156728	-0.252257	1.148618
F127	F	-0.226592	-0.869011	0.797117
F128	F	0.273408	-0.369011	1.297117
