data_functionalizedCrystal
_audit_creation_method	'MofGen! by Chris Wilmer'
_symmetry_space_group_name_H-M	'P1'
_symmetry_Int_Tables_number	1
_symmetry_cell_setting	triclinic
loop_
_symmetry_equiv_pos_as_xyz
  x,y,z
_cell_length_a	18.101395
_cell_length_b	12.759395
_cell_length_c	12.759387
_cell_angle_alpha	89.979491
_cell_angle_beta	89.967189
_cell_angle_gamma	90.032641
loop_
_atom_site_label
_atom_site_type_symbol
_atom_site_fract_x
_atom_site_fract_y
_atom_site_fract_z
Zn1	Zn	-0.294760	1.606149	-0.593990
Zn2	Zn	-0.418620	1.605989	-0.418305
Zn3	Zn	-0.294801	1.430447	-0.418327
Zn4	Zn	-0.418568	1.430389	-0.593944
O5	O	-0.356687	1.518244	-0.506141
O6	O	-0.311196	1.753149	-0.570695
O7	O	-0.402234	1.582661	-0.271286
O8	O	-0.191162	1.453845	-0.441658
O9	O	-0.402195	1.753032	-0.441620
O10	O	-0.191133	1.582933	-0.570717
O11	O	-0.311264	1.453691	-0.271303
O12	O	-0.311213	1.283418	-0.441613
O13	O	-0.402105	1.453747	-0.740971
O14	O	-0.402145	1.283376	-0.570638
O15	O	-0.311145	1.582877	-0.741005
O16	O	-0.522246	1.582604	-0.441575
O17	O	-0.522208	1.453592	-0.570616
C18	C	-0.356678	1.245276	-0.506123
C19	C	-0.356692	1.128499	-0.506141
C20	C	-0.549098	1.518103	-0.506111
C21	C	-0.631412	1.518139	-0.506133
C22	C	-0.451532	1.128494	-0.640277
C23	C	-0.498958	1.073630	-0.707348
C24	C	-0.498967	0.963908	-0.707361
C25	C	-0.451543	0.909048	-0.640297
C26	C	-0.404118	0.963912	-0.573226
C27	C	-0.404115	1.073636	-0.573219
C28	C	-0.309275	0.963917	-0.439097
C29	C	-0.309269	1.073639	-0.439077
C30	C	-0.261852	0.909057	-0.372034
C31	C	-0.214429	0.963921	-0.304956
C32	C	-0.214422	1.073649	-0.304945
C33	C	-0.261843	1.128503	-0.372006
C34	C	-0.930503	1.518370	-0.506189
C35	C	-0.899184	1.437387	-0.587580
C36	C	-0.813566	1.437002	-0.587325
C37	C	-0.782120	1.518255	-0.506162
C38	C	-0.813280	1.488272	-0.395437
C39	C	-0.898925	1.487750	-0.395924
C40	C	-0.898842	1.629513	-0.534549
C41	C	-0.813191	1.628859	-0.536977
C42	C	-0.698261	1.518192	-0.506140
C43	C	-1.014362	1.518430	-0.506204
C44	C	-0.163525	1.518413	-0.506196
C45	C	-0.081211	1.518486	-0.506219
C46	C	-0.356615	1.518323	-0.780175
C47	C	-0.356584	1.518357	-0.896952
C48	C	-0.356697	1.792277	-0.506160
C49	C	-0.356701	1.909054	-0.506168
C50	C	-0.261872	1.652829	-0.897007
C51	C	-0.214506	1.720080	-0.951896
C52	C	-0.214479	1.720105	-1.061618
C53	C	-0.261822	1.652871	-1.116453
C54	C	-0.309189	1.585620	-1.061565
C55	C	-0.309212	1.585604	-0.951840
C56	C	-0.403895	1.451144	-1.061509
C57	C	-0.403927	1.451122	-0.951788
C58	C	-0.451238	1.383910	-1.116345
C59	C	-0.498610	1.316662	-1.061456
C60	C	-0.498636	1.316641	-0.951728
C61	C	-0.451294	1.383872	-0.896899
C62	C	-0.356706	1.518225	-0.233174
C63	C	-0.356528	1.518395	-0.116398
H64	H	-0.451535	1.217835	-0.640265
Br65	Br	-0.777501	1.734754	-0.445383
Br66	Br	-0.451330	1.383854	-0.747990
Br67	Br	-0.261843	1.277412	-0.371990
Br68	Br	-0.778444	1.468266	-0.724168
H69	H	-0.919726	1.455960	-0.669948
Br70	Br	-0.932613	1.730081	-0.435763
H71	H	-0.537568	1.118309	-0.761951
Br72	Br	-0.150181	1.811353	-1.136114
Br73	Br	-0.933465	1.581783	-0.291397
Br74	Br	-0.261919	1.652818	-0.748098
H75	H	-0.261789	1.652889	-1.205794
H76	H	-0.791898	1.407887	-0.370982
H77	H	-0.792913	1.545401	-0.333141
H78	H	-0.175958	1.774819	-0.907237
H79	H	-0.261859	0.819716	-0.372054
H80	H	-0.537200	1.261865	-0.907044
H81	H	-0.918971	1.406505	-0.371899
Br82	Br	-0.451201	1.383941	-1.265254
Br83	Br	-0.934746	1.675074	-0.666829
H84	H	-0.792822	1.651469	-0.618465
H85	H	-0.537581	0.919238	-0.761981
H86	H	-0.451549	0.819707	-0.640323
Br87	Br	-0.150068	0.889464	-0.213963
H88	H	-0.537149	1.261920	-1.106112
H89	H	-0.920773	1.355506	-0.569031
Br90	Br	-0.779524	1.299691	-0.556024
Br91	Br	-0.150049	1.148098	-0.213923
