data_functionalizedCrystal
_audit_creation_method	'MofGen! by Chris Wilmer'
_symmetry_space_group_name_H-M	'P1'
_symmetry_Int_Tables_number	1
_symmetry_cell_setting	triclinic
loop_
_symmetry_equiv_pos_as_xyz
  x,y,z
_cell_length_a	16.992694
_cell_length_b	23.532407
_cell_length_c	15.455313
_cell_angle_alpha	92.643560
_cell_angle_beta	87.142206
_cell_angle_gamma	86.758451
loop_
_atom_site_label
_atom_site_type_symbol
_atom_site_fract_x
_atom_site_fract_y
_atom_site_fract_z
O1	O	1.042902	0.118384	-0.072037
O2	O	1.542902	0.618384	0.427963
O3	O	0.814628	0.117059	-0.072062
O4	O	1.314628	0.617059	0.427938
O5	O	0.935648	0.035132	-0.072033
O6	O	1.435648	0.535132	0.427967
O7	O	0.921882	0.200311	-0.072066
O8	O	1.421882	0.700311	0.427934
O9	O	0.928727	0.039796	0.072228
O10	O	1.428727	0.539796	0.572228
O11	O	0.807707	0.121723	0.072198
O12	O	1.307707	0.621723	0.572198
O13	O	1.035981	0.123049	0.072224
O14	O	1.535981	0.623049	0.572224
Cu15	Cu	0.921212	0.122812	0.085383
Cu16	Cu	1.421212	0.622812	0.585383
Cu17	Cu	0.929397	0.117296	-0.085222
Cu18	Cu	1.429397	0.617296	0.414778
O19	O	0.914962	0.204976	0.072194
O20	O	1.414962	0.704976	0.572194
C21	C	0.781968	0.117688	0.000065
C22	C	1.281968	0.617688	0.500065
C23	C	0.694964	0.112604	0.000056
C24	C	1.194964	0.612604	0.500056
C25	C	0.644342	0.161650	0.000047
C26	C	1.144342	0.661650	0.500047
C27	C	0.562592	0.156871	0.000060
C28	C	1.062592	0.656871	0.500060
C29	C	0.531466	0.103045	0.000076
C30	C	1.031466	0.603045	0.500076
C31	C	0.582095	0.053995	0.000088
C32	C	1.082095	0.553995	0.500088
C33	C	0.663843	0.058775	0.000081
C34	C	1.163843	0.558775	0.500081
C35	C	0.288022	0.083234	0.000103
C36	C	0.788022	0.583234	0.500103
C37	C	0.206267	0.078457	0.000107
C38	C	0.706267	0.578457	0.500107
C39	C	0.186770	0.181334	0.000081
C40	C	0.686770	0.681334	0.500081
C41	C	0.268521	0.186109	0.000069
C42	C	0.768521	0.686109	0.500069
C43	C	0.319142	0.137059	0.000085
C44	C	0.819142	0.637059	0.500085
N45	N	0.447905	0.098158	0.000086
N46	N	0.947905	0.598158	0.500086
N47	N	0.402701	0.141946	0.000081
N48	N	0.902701	0.641946	0.500081
C49	C	0.931837	0.016231	0.000100
C50	C	1.431837	0.516231	0.500100
C51	C	0.930782	-0.047038	0.000106
C52	C	1.430782	0.452962	0.500106
C53	C	0.995791	-0.442917	0.000066
C54	C	1.495791	0.057083	0.500066
C55	C	0.994812	-0.502366	0.000059
C56	C	1.494812	-0.002366	0.500059
O57	O	1.055075	-0.536121	0.000034
O58	O	1.555075	-0.036121	0.500034
N59	N	0.922865	-0.528562	0.000052
N60	N	1.422865	-0.028562	0.500052
C61	C	0.851893	-0.495307	0.000042
C62	C	1.351893	0.004693	0.500042
O63	O	0.790607	-0.523048	0.000035
O64	O	1.290607	-0.023048	0.500035
C65	C	0.852873	-0.435859	0.000043
C66	C	1.352873	0.064141	0.500043
C67	C	0.924824	-0.409666	0.000059
C68	C	1.424824	0.090334	0.500059
C69	C	1.067736	-0.416723	0.000081
C70	C	1.567736	0.083277	0.500081
C71	C	1.068714	-0.357278	0.000089
C72	C	1.568714	0.142722	0.500089
C73	C	0.997748	-0.324027	0.000083
C74	C	1.497748	0.175973	0.500083
C75	C	0.925803	-0.350221	0.000067
C76	C	1.425803	0.149779	0.500067
C77	C	0.781902	-0.402605	0.000027
C78	C	1.281902	0.097395	0.500027
C79	C	0.782889	-0.343154	0.000027
C80	C	1.282889	0.156846	0.500027
C81	C	0.854839	-0.316960	0.000043
C82	C	1.354839	0.183040	0.500043
C83	C	0.855814	-0.257525	0.000069
C84	C	1.355814	0.242475	0.500069
N85	N	0.927761	-0.231328	0.000076
N86	N	1.427761	0.268672	0.500076
C87	C	0.998728	-0.264579	0.000083
C88	C	1.498728	0.235421	0.500083
C89	C	0.849841	-0.620151	0.000040
C90	C	1.349841	-0.120151	0.500040
C91	C	0.848860	-0.679598	0.000046
C92	C	1.348860	-0.179598	0.500046
C93	C	0.991779	-0.686653	0.000061
C94	C	1.491779	-0.186653	0.500061
C95	C	0.992759	-0.627205	0.000061
C96	C	1.492759	-0.127205	0.500061
C97	C	0.921788	-0.593955	0.000047
C98	C	1.421788	-0.093955	0.500047
C99	C	1.000777	-0.139740	0.000101
C100	C	1.500777	0.360260	0.500101
C101	C	1.001749	-0.080289	0.000113
C102	C	1.501749	0.419711	0.500113
C103	C	0.858831	-0.073240	0.000093
C104	C	1.358831	0.426760	0.500093
C105	C	0.857858	-0.132685	0.000086
C106	C	1.357858	0.367315	0.500086
C107	C	0.928838	-0.165934	0.000087
C108	C	1.428838	0.334066	0.500087
O109	O	0.795583	-0.223733	0.000090
O110	O	1.295583	0.276267	0.500090
O111	O	1.060004	-0.236831	0.000079
O112	O	1.560004	0.263169	0.500079
C113	C	1.068641	0.122420	0.000095
C114	C	1.568641	0.622420	0.500095
C115	C	1.155645	0.127504	0.000098
C116	C	1.655645	0.627504	0.500098
C117	C	0.918772	0.223877	0.000060
C118	C	1.418772	0.723877	0.500060
C119	C	0.919827	0.287146	0.000048
C120	C	1.419827	0.787146	0.500048
N121	N	0.915462	0.126692	0.205377
N122	N	1.415462	0.626692	0.705377
N123	N	0.935153	0.113412	-0.205216
N124	N	1.435153	0.613412	0.294784
C125	C	0.966893	0.091901	0.250784
C126	C	1.466893	0.591901	0.750784
C127	C	0.962551	0.094840	0.341591
C128	C	1.462551	0.594840	0.841591
C129	C	0.906782	0.132574	0.386989
C130	C	1.406782	0.632574	0.886989
C131	C	0.855345	0.167366	0.341576
C132	C	1.355345	0.667366	0.841576
C133	C	0.859684	0.164424	0.250771
C134	C	1.359684	0.664424	0.750771
C135	C	0.888055	0.145261	0.658566
C136	C	1.388055	0.645261	1.158566
C137	C	0.883722	0.148203	0.749378
C138	C	1.383722	0.648203	1.249378
C139	C	0.990928	0.075676	0.749386
C140	C	1.490928	0.575676	1.249386
C141	C	0.995265	0.072738	0.658579
C142	C	1.495265	0.572738	1.158579
C143	C	0.943825	0.107529	0.613174
C144	C	1.443825	0.607529	1.113174
N145	N	0.902344	0.135581	0.479808
N146	N	1.402344	0.635581	0.979808
N147	N	0.948260	0.104518	0.520356
N148	N	1.448260	0.604518	1.020356
H149	H	0.293858	0.229939	0.000046
H150	H	0.793858	0.729939	0.500046
N151	N	0.548525	-0.004060	0.000097
N152	N	1.048525	0.495940	0.500097
H153	H	0.593001	-0.034405	0.000102
H154	H	1.093001	0.465595	0.500102
H155	H	0.512472	-0.006556	0.053577
H156	H	1.012472	0.493444	0.553577
N157	N	1.046405	0.038153	0.798357
N158	N	1.546405	0.538153	1.298357
H159	H	1.035197	0.045741	0.862771
H160	H	1.535197	0.545741	1.362771
H161	H	1.038426	-0.003163	0.782501
H162	H	1.538426	0.496837	1.282501
N163	N	1.027050	0.051205	0.201821
N164	N	1.527050	0.551205	0.701821
H165	H	1.058971	0.029611	0.244369
H166	H	1.558971	0.529611	0.744369
H167	H	0.999042	0.023437	0.164159
H168	H	1.499042	0.523437	0.664159
H169	H	0.846173	0.173590	0.621605
H170	H	1.346173	0.673590	1.121605
N171	N	0.782285	-0.037378	0.000081
N172	N	1.282285	0.462622	0.500081
H173	H	0.748306	-0.044457	0.053552
H174	H	1.248306	0.455543	0.553552
H175	H	0.793886	0.004243	0.000052
H176	H	1.293886	0.504243	0.500052
H177	H	0.838305	0.178933	0.786337
H178	H	1.338305	0.678933	1.286337
H179	H	0.809932	0.198088	0.378545
H180	H	1.309932	0.698088	0.878545
N181	N	1.018030	0.057328	0.390576
N182	N	1.518030	0.557328	0.890576
H183	H	1.050748	0.081910	0.428236
H184	H	1.550748	0.581910	0.928236
H185	H	0.986428	0.031971	0.428218
H186	H	1.486428	0.531971	0.928218
N187	N	1.055417	0.032040	0.609615
N188	N	1.555417	0.532040	1.109615
H189	H	1.087340	0.010445	0.652160
H190	H	1.587340	0.510445	1.152160
H191	H	1.027408	0.004273	0.571952
H192	H	1.527408	0.504273	1.071952
H193	H	0.180928	0.034624	0.000119
H194	H	0.680928	0.534624	0.500119
H195	H	1.125529	-0.443790	0.000084
H196	H	1.625529	0.056210	0.500084
H197	H	0.521379	0.196809	0.000051
H198	H	1.021379	0.696809	0.500051
H199	H	0.329228	0.043294	0.000117
H200	H	0.829228	0.543294	0.500117
H201	H	0.705059	0.018836	0.000088
H202	H	1.205059	0.518836	0.500088
H203	H	0.669678	0.205481	0.000033
H204	H	1.169678	0.705481	0.500033
N205	N	1.079356	-0.052038	0.000135
N206	N	1.579356	0.447962	0.500135
H207	H	1.124162	-0.082126	0.000136
H208	H	1.624162	0.417874	0.500136
H209	H	1.085444	-0.029247	-0.053339
H210	H	1.585444	0.470753	0.446661
H211	H	0.790269	-0.700919	0.000047
H212	H	1.290269	-0.200919	0.500047
N213	N	0.132173	0.234234	0.000065
N214	N	0.632173	0.734234	0.500065
H215	H	0.075663	0.223041	0.000072
H216	H	0.575663	0.723041	0.500072
H217	H	0.139648	0.259261	0.053538
H218	H	0.639648	0.759261	0.553538
N219	N	0.804208	0.201945	0.201792
N220	N	1.304208	0.701945	0.701792
H221	H	0.768220	0.226296	0.244329
H222	H	1.268220	0.726296	0.744329
H223	H	0.835813	0.227271	0.164099
H224	H	1.335813	0.727271	0.664099
H225	H	1.058576	-0.166805	0.000099
H226	H	1.558576	0.333195	0.500099
N227	N	1.146324	-0.329037	0.000100
N228	N	1.646324	0.170963	0.500100
H229	H	1.179951	-0.342655	-0.053377
H230	H	1.679951	0.157345	0.446623
H231	H	1.136126	-0.286336	0.000133
H232	H	1.636126	0.213664	0.500133
N233	N	1.070361	-0.598955	0.000079
N234	N	1.570361	-0.098955	0.500079
H235	H	1.115166	-0.629046	0.000086
H236	H	1.615166	-0.129046	0.500086
H237	H	1.076452	-0.576170	-0.053400
H238	H	1.576452	-0.076170	0.446600
H239	H	0.799269	-0.154012	0.000097
H240	H	1.299269	0.345988	0.500097
H241	H	0.792043	-0.593082	0.000036
H242	H	1.292043	-0.093082	0.500036
N243	N	1.068323	-0.722525	0.000056
N244	N	1.568323	-0.222525	0.500056
H245	H	1.114056	-0.696914	0.000063
H246	H	1.614056	-0.196914	0.500063
H247	H	1.068462	-0.745621	0.053533
H248	H	1.568462	-0.245621	0.553533
N249	N	0.704297	-0.430847	0.000021
N250	N	1.204297	0.069153	0.500021
H251	H	0.659496	-0.400754	0.000015
H252	H	1.159496	0.099246	0.500015
H253	H	0.703335	-0.457082	-0.053459
H254	H	1.203335	0.042918	0.446541
H255	H	0.725094	-0.316084	0.000014
H256	H	1.225094	0.183916	0.500014
