data_functionalizedCrystal
_audit_creation_method	'MofGen! by Chris Wilmer'
_symmetry_space_group_name_H-M	'P1'
_symmetry_Int_Tables_number	1
_symmetry_cell_setting	triclinic
loop_
_symmetry_equiv_pos_as_xyz
  x,y,z
_cell_length_a	23.532407
_cell_length_b	23.532407
_cell_length_c	22.610064
_cell_angle_alpha	89.997161
_cell_angle_beta	90.000603
_cell_angle_gamma	97.151322
loop_
_atom_site_label
_atom_site_type_symbol
_atom_site_fract_x
_atom_site_fract_y
_atom_site_fract_z
O1	O	0.069127	-0.755263	0.049117
O2	O	0.402460	-0.421930	0.382450
O3	O	0.735794	-0.088597	0.715783
O4	O	0.079130	-0.589400	0.049135
O5	O	0.412464	-0.256067	0.382468
O6	O	0.745797	0.077267	0.715802
O7	O	-0.008803	-0.677333	0.049114
O8	O	0.324530	-0.344000	0.382448
O9	O	0.657864	-0.010667	0.715781
O10	O	0.157060	-0.667330	0.049137
O11	O	0.490394	-0.333997	0.382471
O12	O	0.823727	-0.000664	0.715804
O13	O	-0.008790	-0.677318	-0.049255
O14	O	0.324543	-0.343985	0.284079
O15	O	0.657876	-0.010651	0.617412
O16	O	0.079143	-0.589385	-0.049234
O17	O	0.412476	-0.256051	0.284099
O18	O	0.745810	0.077282	0.617432
O19	O	0.069140	-0.755248	-0.049252
O20	O	0.402473	-0.421915	0.284081
O21	O	0.735807	-0.088581	0.617414
Zn22	Zn	0.074144	-0.672314	-0.064862
Zn23	Zn	0.407477	-0.338980	0.268472
Zn24	Zn	0.740810	-0.005647	0.601805
Zn25	Zn	0.074127	-0.672334	0.064744
Zn26	Zn	0.407460	-0.339001	0.398077
Zn27	Zn	0.740793	-0.005668	0.731411
O28	O	0.157073	-0.667315	-0.049232
O29	O	0.490407	-0.333981	0.284101
O30	O	0.823740	-0.000648	0.617435
C31	C	-0.030013	-0.677071	-0.000072
C32	C	0.303321	-0.343738	0.333262
C33	C	0.636654	-0.010404	0.666595
C34	C	-0.093230	-0.676305	-0.000076
C35	C	0.240104	-0.342972	0.333257
C36	C	0.573437	-0.009638	0.666591
C37	C	0.078882	-0.568176	-0.000048
C38	C	0.412215	-0.234843	0.333286
C39	C	0.745549	0.098490	0.666619
C40	C	0.078116	-0.504959	-0.000041
C41	C	0.411449	-0.171626	0.333292
C42	C	0.744783	0.161707	0.666626
C43	C	-0.492333	-0.723539	-0.000049
C44	C	-0.158999	-0.390205	0.333284
C45	C	0.174334	-0.056872	0.666618
C46	C	-0.551733	-0.722827	-0.000044
C47	C	-0.218400	-0.389494	0.333289
C48	C	0.114934	-0.056160	0.666622
O49	O	-0.588478	-0.766613	-0.000027
O50	O	-0.255144	-0.433280	0.333306
O51	O	0.078189	-0.099946	0.666639
N52	N	-0.574359	-0.670551	-0.000039
N53	N	-0.241026	-0.337217	0.333294
N54	N	0.092307	-0.003884	0.666628
C55	C	-0.537582	-0.618983	-0.000032
C56	C	-0.204248	-0.285649	0.333301
C57	C	0.129085	0.047684	0.666634
O58	O	-0.562281	-0.574452	-0.000027
O59	O	-0.228948	-0.241119	0.333307
O60	O	0.104385	0.092215	0.666640
C61	C	-0.478182	-0.619695	-0.000033
C62	C	-0.144849	-0.286361	0.333301
C63	C	0.188484	0.046972	0.666634
C64	C	-0.455560	-0.671974	-0.000044
C65	C	-0.122227	-0.338641	0.333289
C66	C	0.211107	-0.005308	0.666623
C67	C	-0.469710	-0.775814	-0.000060
C68	C	-0.136376	-0.442481	0.333274
C69	C	0.196957	-0.109147	0.666607
C70	C	-0.410313	-0.776525	-0.000065
C71	C	-0.076980	-0.443192	0.333268
C72	C	0.256353	-0.109859	0.666601
C73	C	-0.373540	-0.724961	-0.000060
C74	C	-0.040207	-0.391628	0.333273
C75	C	0.293126	-0.058294	0.666606
C76	C	-0.396164	-0.672685	-0.000050
C77	C	-0.062830	-0.339352	0.333284
C78	C	0.270503	-0.006019	0.666617
C79	C	-0.441406	-0.568127	-0.000022
C80	C	-0.108073	-0.234794	0.333312
C81	C	0.225261	0.098540	0.666645
C82	C	-0.382004	-0.568844	-0.000021
C83	C	-0.048670	-0.235510	0.333312
C84	C	0.284663	0.097823	0.666645
C85	C	-0.359381	-0.621123	-0.000033
C86	C	-0.026048	-0.287790	0.333301
C87	C	0.307286	0.045543	0.666634
C88	C	-0.299995	-0.621832	-0.000050
C89	C	0.033339	-0.288499	0.333283
C90	C	0.366672	0.044834	0.666616
N91	N	-0.277368	-0.674109	-0.000056
N92	N	0.055965	-0.340775	0.333278
N93	N	0.389298	-0.007442	0.666611
C94	C	-0.314141	-0.725673	-0.000061
C95	C	0.019192	-0.392340	0.333273
C96	C	0.352525	-0.059006	0.666606
C97	C	-0.662324	-0.617491	-0.000031
C98	C	-0.328991	-0.284158	0.333303
C99	C	0.004343	0.049176	0.666636
C100	C	-0.721722	-0.616778	-0.000034
C101	C	-0.388389	-0.283445	0.333299
C102	C	-0.055055	0.049888	0.666632
C103	C	-0.735869	-0.720623	-0.000045
C104	C	-0.402536	-0.387290	0.333288
C105	C	-0.069203	-0.053957	0.666621
C106	C	-0.676470	-0.721335	-0.000046
C107	C	-0.343137	-0.388002	0.333288
C108	C	-0.009804	-0.054669	0.666621
C109	C	-0.639698	-0.669767	-0.000036
C110	C	-0.306365	-0.336434	0.333298
C111	C	0.026969	-0.003101	0.666631
C112	C	-0.189405	-0.727163	-0.000073
C113	C	0.143929	-0.393829	0.333260
C114	C	0.477262	-0.060496	0.666594
C115	C	-0.130003	-0.727869	-0.000081
C116	C	0.203331	-0.394536	0.333252
C117	C	0.536664	-0.061203	0.666586
C118	C	-0.115860	-0.624025	-0.000067
C119	C	0.217473	-0.290692	0.333266
C120	C	0.550806	0.042642	0.666600
C121	C	-0.175257	-0.623318	-0.000062
C122	C	0.158076	-0.289985	0.333271
C123	C	0.491409	0.043349	0.666605
C124	C	-0.212029	-0.674891	-0.000063
C125	C	0.121305	-0.341558	0.333270
C126	C	0.454638	-0.008225	0.666604
O127	O	-0.263215	-0.578070	-0.000065
O128	O	0.070118	-0.244736	0.333268
O129	O	0.403451	0.088597	0.666602
O130	O	-0.289433	-0.770196	-0.000058
O131	O	0.043900	-0.436863	0.333275
O132	O	0.377233	-0.103529	0.666608
C133	C	0.069388	-0.776472	-0.000069
C134	C	0.402722	-0.443138	0.333265
C135	C	0.736055	-0.109805	0.666598
C136	C	0.070154	-0.839689	-0.000071
C137	C	0.403487	-0.506355	0.333262
C138	C	0.736821	-0.173022	0.666595
C139	C	0.178283	-0.667577	-0.000045
C140	C	0.511616	-0.334244	0.333289
C141	C	0.844949	-0.000910	0.666622
C142	C	0.241500	-0.668343	-0.000036
C143	C	0.574833	-0.335010	0.333297
C144	C	0.908167	-0.001676	0.666630
N145	N	0.074155	-0.672304	-0.153314
N146	N	0.407488	-0.338971	0.180019
N147	N	0.740821	-0.005637	0.513353
C148	C	0.125350	-0.105856	-0.000061
C149	C	0.458683	0.227477	0.333272
C150	C	0.792016	0.560810	0.666605
C151	C	0.124638	-0.046456	-0.000065
C152	C	0.457971	0.286877	0.333268
C153	C	0.791305	0.620211	0.666602
O154	O	0.168424	-0.009711	-0.000081
O155	O	0.501757	0.323622	0.333253
O156	O	0.835091	0.656955	0.666586
N157	N	0.072362	-0.023830	-0.000071
N158	N	0.405695	0.309504	0.333262
N159	N	0.739028	0.642837	0.666595
C160	C	0.020794	-0.060607	-0.000080
C161	C	0.354127	0.272726	0.333254
C162	C	0.687460	0.606059	0.666587
O163	O	-0.023737	-0.035908	-0.000086
O164	O	0.309596	0.297426	0.333247
O165	O	0.642930	0.630759	0.666581
C166	C	0.021506	-0.120006	-0.000080
C167	C	0.354839	0.213327	0.333253
C168	C	0.688172	0.546660	0.666586
C169	C	0.073785	-0.142629	-0.000068
C170	C	0.407119	0.190704	0.333265
C171	C	0.740452	0.524038	0.666599
C172	C	0.177625	-0.128479	-0.000050
C173	C	0.510958	0.204854	0.333284
C174	C	0.844292	0.538187	0.666617
C175	C	0.178336	-0.187876	-0.000045
C176	C	0.511670	0.145458	0.333288
C177	C	0.845003	0.478791	0.666622
C178	C	0.126772	-0.224649	-0.000052
C179	C	0.460105	0.108685	0.333282
C180	C	0.793439	0.442018	0.666615
C181	C	0.074497	-0.202025	-0.000063
C182	C	0.407830	0.131308	0.333270
C183	C	0.741163	0.464641	0.666603
C184	C	-0.030062	-0.156783	-0.000093
C185	C	0.303271	0.176550	0.333240
C186	C	0.636605	0.509884	0.666574
C187	C	-0.029345	-0.216185	-0.000094
C188	C	0.303988	0.117148	0.333239
C189	C	0.637321	0.450481	0.666573
C190	C	0.022934	-0.238808	-0.000082
C191	C	0.356268	0.094525	0.333252
C192	C	0.689601	0.427859	0.666585
C193	C	0.023643	-0.298194	-0.000065
C194	C	0.356977	0.035139	0.333268
C195	C	0.690310	0.368472	0.666602
N196	N	0.075920	-0.320820	-0.000059
N197	N	0.409253	0.012513	0.333274
N198	N	0.742586	0.345846	0.666608
C199	C	0.127484	-0.284048	-0.000052
C200	C	0.460817	0.049286	0.333281
C201	C	0.794151	0.382619	0.666614
C202	C	0.019302	0.064135	-0.000080
C203	C	0.352635	0.397468	0.333254
C204	C	0.685969	0.730802	0.666587
C205	C	0.018589	0.123533	-0.000075
C206	C	0.351923	0.456866	0.333258
C207	C	0.685256	0.790200	0.666592
C208	C	0.122434	0.137680	-0.000061
C209	C	0.455768	0.471014	0.333272
C210	C	0.789101	0.804347	0.666605
C211	C	0.123146	0.078281	-0.000062
C212	C	0.456480	0.411615	0.333271
C213	C	0.789813	0.744948	0.666605
C214	C	0.071578	0.041509	-0.000074
C215	C	0.404912	0.374842	0.333260
C216	C	0.738245	0.708176	0.666593
C217	C	0.128974	-0.408784	-0.000042
C218	C	0.462307	-0.075451	0.333292
C219	C	0.795640	0.257882	0.666625
C220	C	0.129680	-0.468186	-0.000034
C221	C	0.463014	-0.134853	0.333299
C222	C	0.796347	0.198480	0.666632
C223	C	0.025836	-0.482329	-0.000051
C224	C	0.359169	-0.148995	0.333282
C225	C	0.692503	0.184338	0.666616
C226	C	0.025129	-0.422932	-0.000055
C227	C	0.358462	-0.089598	0.333278
C228	C	0.691796	0.243735	0.666611
C229	C	0.076702	-0.386160	-0.000052
C230	C	0.410036	-0.052827	0.333281
C231	C	0.743369	0.280506	0.666614
O232	O	-0.020119	-0.334974	-0.000052
O233	O	0.313214	-0.001640	0.333281
O234	O	0.646547	0.331693	0.666615
O235	O	0.172007	-0.308755	-0.000054
O236	O	0.505340	0.024578	0.333279
O237	O	0.838674	0.357911	0.666613
C238	C	0.035196	-0.711273	-0.561965
C239	C	0.368529	-0.377940	-0.228631
C240	C	0.701862	-0.044606	0.104702
C241	C	0.035192	-0.711276	-0.623884
C242	C	0.368525	-0.377942	-0.290551
C243	C	0.701858	-0.044609	0.042782
O244	O	0.002076	-0.744384	-0.655911
O245	O	0.335409	-0.411051	-0.322578
O246	O	0.668742	-0.077718	0.010756
N247	N	0.074115	-0.672334	-0.654851
N248	N	0.407448	-0.339001	-0.321518
N249	N	0.740781	-0.005667	0.011815
C250	C	0.113041	-0.633383	-0.623895
C251	C	0.446374	-0.300049	-0.290562
C252	C	0.779708	0.033284	0.042772
O253	O	0.146147	-0.600259	-0.655920
O254	O	0.479481	-0.266926	-0.322587
O255	O	0.812814	0.066407	0.010746
C256	C	0.113042	-0.633377	-0.561976
C257	C	0.446375	-0.300044	-0.228643
C258	C	0.779709	0.033289	0.104691
C259	C	0.074120	-0.672326	-0.531013
C260	C	0.407453	-0.338992	-0.197679
C261	C	0.740787	-0.005659	0.135654
C262	C	-0.003724	-0.750218	-0.531001
C263	C	0.329610	-0.416884	-0.197668
C264	C	0.662943	-0.083551	0.135666
C265	C	-0.003719	-0.750215	-0.469085
C266	C	0.329615	-0.416882	-0.135752
C267	C	0.662948	-0.083549	0.197581
C268	C	0.035206	-0.711268	-0.438133
C269	C	0.368539	-0.377935	-0.104800
C270	C	0.701872	-0.044601	0.228533
C271	C	0.074125	-0.672323	-0.469097
C272	C	0.407458	-0.338990	-0.135764
C273	C	0.740792	-0.005657	0.197570
C274	C	0.151965	-0.594424	-0.531021
C275	C	0.485298	-0.261091	-0.197688
C276	C	0.818631	0.072243	0.135646
C277	C	0.151962	-0.594422	-0.469098
C278	C	0.485295	-0.261089	-0.135765
C279	C	0.818629	0.072245	0.197569
C280	C	0.113040	-0.633370	-0.438134
C281	C	0.446374	-0.300037	-0.104801
C282	C	0.779707	0.033296	0.228532
C283	C	0.113054	-0.633374	-0.376229
C284	C	0.446387	-0.300041	-0.042896
C285	C	0.779721	0.033293	0.290437
N286	N	0.074131	-0.672316	-0.345262
N287	N	0.407464	-0.338983	-0.011929
N288	N	0.740798	-0.005649	0.321404
C289	C	0.035207	-0.711263	-0.376214
C290	C	0.368540	-0.377930	-0.042881
C291	C	0.701873	-0.044596	0.290452
C292	C	0.113035	-0.633396	-0.753928
C293	C	0.446369	-0.300063	-0.420595
C294	C	0.779702	0.033271	-0.087262
C295	C	0.113037	-0.633403	-0.815846
C296	C	0.446371	-0.300070	-0.482513
C297	C	0.779704	0.033263	-0.149179
C298	C	0.035187	-0.711296	-0.815831
C299	C	0.368521	-0.377962	-0.482498
C300	C	0.701854	-0.044629	-0.149165
C301	C	0.035188	-0.711291	-0.753913
C302	C	0.368521	-0.377957	-0.420579
C303	C	0.701855	-0.044624	-0.087246
C304	C	0.074112	-0.672338	-0.722962
C305	C	0.407445	-0.339004	-0.389628
C306	C	0.740779	-0.005671	-0.056295
C307	C	0.035220	-0.711255	-0.246187
C308	C	0.368554	-0.377922	0.087146
C309	C	0.701887	-0.044589	0.420480
C310	C	0.035230	-0.711251	-0.184266
C311	C	0.368564	-0.377918	0.149067
C312	C	0.701897	-0.044584	0.482401
C313	C	0.113078	-0.633357	-0.184286
C314	C	0.446412	-0.300023	0.149047
C315	C	0.779745	0.033310	0.482381
C316	C	0.113071	-0.633363	-0.246202
C317	C	0.446404	-0.300029	0.087131
C318	C	0.779737	0.033304	0.420465
C319	C	0.074137	-0.672314	-0.277151
C320	C	0.407470	-0.338981	0.056182
C321	C	0.740804	-0.005648	0.389516
O322	O	0.146152	-0.600281	-0.344163
O323	O	0.479485	-0.266948	-0.010830
O324	O	0.812818	0.066386	0.322503
O325	O	0.002101	-0.744376	-0.344182
O326	O	0.335434	-0.411042	-0.010848
O327	O	0.668767	-0.077709	0.322485
N328	N	0.074111	-0.672349	0.153196
N329	N	0.407444	-0.339015	0.486530
N330	N	0.740778	-0.005682	0.819863
H331	H	-0.111587	-0.770443	-0.000092
H332	H	0.221746	-0.437110	0.333241
H333	H	0.555080	-0.103777	0.666575
H334	H	0.003492	-0.743008	-0.841044
H335	H	0.336825	-0.409675	-0.507710
H336	H	0.670159	-0.076341	-0.174377
Cl337	Cl	-0.381883	-0.842252	-0.000063
Cl338	Cl	-0.048550	-0.508919	0.333271
Cl339	Cl	0.284784	-0.175585	0.666604
Cl340	Cl	0.200898	-0.545448	-0.430193
Cl341	Cl	0.534231	-0.212115	-0.096859
Cl342	Cl	0.867564	0.121219	0.236474
Cl343	Cl	-0.040595	-0.394491	-0.000073
Cl344	Cl	0.292739	-0.061158	0.333260
Cl345	Cl	0.626072	0.272176	0.666593
H346	H	-0.085909	-0.582043	-0.000065
H347	H	0.247424	-0.248709	0.333268
H348	H	0.580757	0.084624	0.666602
Cl349	Cl	-0.047136	0.151965	-0.000075
Cl350	Cl	0.286197	0.485299	0.333258
Cl351	Cl	0.619530	0.818632	0.666591
Cl352	Cl	0.195408	-0.496622	-0.000017
Cl353	Cl	0.528742	-0.163289	0.333316
Cl354	Cl	0.862075	0.170045	0.666649
Cl355	Cl	0.242458	-0.082260	-0.000040
Cl356	Cl	0.575791	0.251073	0.333294
Cl357	Cl	0.909125	0.584407	0.666627
H358	H	-0.658056	-0.763906	-0.000054
H359	H	-0.324722	-0.430573	0.333279
H360	H	0.008611	-0.097239	0.666612
H361	H	-0.219337	-0.769159	-0.000071
H362	H	0.113996	-0.435826	0.333262
H363	H	0.447329	-0.102492	0.666595
H364	H	0.164421	0.167632	-0.000059
H365	H	0.497754	0.500965	0.333275
H366	H	0.831087	0.834299	0.666608
H367	H	-0.352066	-0.526850	-0.000013
H368	H	-0.018732	-0.193516	0.333321
H369	H	0.314601	0.139817	0.666654
Cl370	Cl	0.188872	0.049848	-0.000049
Cl371	Cl	0.522205	0.383181	0.333285
Cl372	Cl	0.855538	0.716515	0.666618
H373	H	-0.022693	0.034198	-0.000084
H374	H	0.310640	0.367531	0.333249
H375	H	0.643973	0.700864	0.666583
H376	H	0.144737	-0.601694	-0.841052
H377	H	0.478070	-0.268361	-0.507719
H378	H	0.811404	0.064973	-0.174386
Cl379	Cl	0.193810	-0.362567	-0.000037
Cl380	Cl	0.527143	-0.029233	0.333296
Cl381	Cl	0.860477	0.304100	0.666629
H382	H	-0.765821	-0.762610	-0.000047
H383	H	-0.432488	-0.429276	0.333286
H384	H	-0.099154	-0.095943	0.666620
Cl385	Cl	-0.095789	-0.128358	-0.000098
Cl386	Cl	0.237544	0.204975	0.333235
Cl387	Cl	0.570877	0.538308	0.666568
H388	H	-0.499645	-0.817806	-0.000061
H389	H	-0.166312	-0.484473	0.333272
H390	H	0.167022	-0.151140	0.666605
Cl391	Cl	-0.750154	-0.551053	-0.000032
Cl392	Cl	-0.416821	-0.217719	0.333302
Cl393	Cl	-0.083487	0.115614	0.666635
H394	H	-0.071339	-0.246123	-0.000104
H395	H	0.261994	0.087210	0.333229
H396	H	0.595327	0.420543	0.666563
H397	H	0.144736	-0.601677	-0.728731
H398	H	0.478070	-0.268344	-0.395398
H399	H	0.811403	0.064990	-0.062065
Cl400	Cl	-0.203698	-0.557594	-0.000059
Cl401	Cl	0.129635	-0.224261	0.333274
Cl402	Cl	0.462969	0.109072	0.666608
H403	H	-0.035423	-0.781933	-0.556197
H404	H	0.297910	-0.448600	-0.222863
H405	H	0.631244	-0.115266	0.110470
Cl406	Cl	-0.616101	-0.552656	-0.000025
Cl407	Cl	-0.282768	-0.219323	0.333309
Cl408	Cl	0.050566	0.114011	0.666642
H409	H	-0.459814	-0.525555	-0.000009
H410	H	-0.126481	-0.192222	0.333325
H411	H	0.206852	0.141111	0.666658
Cl412	Cl	-0.013725	-0.760225	-0.285084
Cl413	Cl	0.319608	-0.426891	0.048249
Cl414	Cl	0.652942	-0.093558	0.381582
H415	H	0.220908	-0.206289	-0.000035
H416	H	0.554241	0.127044	0.333298
H417	H	0.887574	0.460378	0.666632
Cl418	Cl	-0.038984	-0.528568	-0.000062
Cl419	Cl	0.294349	-0.195235	0.333271
Cl420	Cl	0.627683	0.138099	0.666604
H421	H	0.003494	-0.743005	-0.728706
H422	H	0.336828	-0.409672	-0.395372
H423	H	0.670161	-0.076339	-0.062039
H424	H	0.003535	-0.742969	-0.159057
H425	H	0.336869	-0.409636	0.174276
H426	H	0.670202	-0.076303	0.507609
H427	H	-0.035414	-0.781929	-0.443878
H428	H	0.297920	-0.448595	-0.110545
H429	H	0.631253	-0.115262	0.222788
H430	H	0.144770	-0.601653	-0.271413
H431	H	0.478103	-0.268320	0.061920
H432	H	0.811437	0.065014	0.395254
Cl433	Cl	0.200896	-0.545457	-0.569934
Cl434	Cl	0.534229	-0.212124	-0.236601
Cl435	Cl	0.867563	0.121210	0.096733
Cl436	Cl	0.162010	-0.584397	-0.145365
Cl437	Cl	0.495344	-0.251064	0.187968
Cl438	Cl	0.828677	0.082270	0.521301
