data_functionalizedCrystal
_audit_creation_method	'MofGen! by Chris Wilmer'
_symmetry_space_group_name_H-M	'P1'
_symmetry_Int_Tables_number	1
_symmetry_cell_setting	triclinic
loop_
_symmetry_equiv_pos_as_xyz
  x,y,z
_cell_length_a	25.639239
_cell_length_b	12.594517
_cell_length_c	12.594509
_cell_angle_alpha	90.021327
_cell_angle_beta	89.965872
_cell_angle_gamma	89.961514
loop_
_atom_site_label
_atom_site_type_symbol
_atom_site_fract_x
_atom_site_fract_y
_atom_site_fract_z
Zn1	Zn	-0.208138	-1.627100	-0.601816
Zn2	Zn	0.291862	-1.127100	-0.101816
Zn3	Zn	-0.295580	-1.626920	-0.423819
Zn4	Zn	0.204420	-1.126920	0.076181
Zn5	Zn	-0.208160	-1.449103	-0.423845
Zn6	Zn	0.291840	-0.949103	0.076155
Zn7	Zn	-0.295544	-1.449015	-0.601750
Zn8	Zn	0.204456	-0.949015	-0.101750
O9	O	-0.251855	-1.538035	-0.512808
O10	O	0.248145	-1.038035	-0.012808
O11	O	-0.219743	-1.776022	-0.578222
O12	O	0.280257	-1.276022	-0.078222
O13	O	-0.284008	-1.603294	-0.274877
O14	O	0.215992	-1.103294	0.225123
O15	O	-0.134992	-1.472827	-0.447492
O16	O	0.365008	-0.972827	0.052508
O17	O	-0.283987	-1.775890	-0.447448
O18	O	0.216013	-1.275890	0.052552
O19	O	-0.134976	-1.603600	-0.578247
O20	O	0.365024	-1.103600	-0.078247
O21	O	-0.219781	-1.472653	-0.274896
O22	O	0.280219	-0.972653	0.225104
O23	O	-0.219746	-1.300146	-0.447427
O24	O	0.280254	-0.800146	0.052573
O25	O	-0.283925	-1.472677	-0.750704
O26	O	0.216075	-0.972677	-0.250704
O27	O	-0.283946	-1.300081	-0.578133
O28	O	0.216054	-0.800081	-0.078133
O29	O	-0.219708	-1.603515	-0.750753
O30	O	0.280292	-1.103515	-0.250753
O31	O	-0.368740	-1.603209	-0.447384
O32	O	0.131260	-1.103209	0.052616
O33	O	-0.368714	-1.472503	-0.578108
O34	O	0.131286	-0.972503	-0.078108
C35	C	-0.251845	-1.261494	-0.512776
C36	C	0.248155	-0.761494	-0.012776
C37	C	-0.251853	-1.143188	-0.512788
C38	C	0.248147	-0.643188	-0.012788
C39	C	-0.387698	-1.537856	-0.512759
C40	C	0.112302	-1.037856	-0.012759
C41	C	-0.445812	-1.537876	-0.512774
C42	C	0.054188	-1.037876	-0.012774
C43	C	-0.251810	-1.538106	-0.790429
C44	C	0.248190	-1.038106	-0.290429
C45	C	-0.251790	-1.538136	-0.908734
C46	C	0.248210	-1.038136	-0.408734
C47	C	-0.806176	-1.606271	-0.444855
C48	C	-0.306176	-1.106271	0.055145
C49	C	-0.860781	-1.606312	-0.444870
C50	C	-0.360781	-1.106312	0.055130
O51	O	-0.889019	-1.664278	-0.387070
O52	O	-0.389019	-1.164278	0.112930
N53	N	-0.888094	-1.538222	-0.512878
N54	N	-0.388094	-1.038222	-0.012878
C55	C	-0.860801	-1.470093	-0.580885
C56	C	-0.360801	-0.970093	-0.080885
O57	O	-0.889048	-1.412182	-0.638733
O58	O	-0.389048	-0.912182	-0.138733
C59	C	-0.806198	-1.470058	-0.580875
C60	C	-0.306198	-0.970058	-0.080875
C61	C	-0.778887	-1.538145	-0.512854
C62	C	-0.278887	-1.038145	-0.012854
C63	C	-0.778865	-1.674353	-0.376841
C64	C	-0.278865	-1.174353	0.123159
C65	C	-0.724265	-1.674310	-0.376826
C66	C	-0.224265	-1.174310	0.123174
C67	C	-0.696975	-1.606185	-0.444825
C68	C	-0.196975	-1.106185	0.055175
C69	C	-0.724286	-1.538102	-0.512839
C70	C	-0.224286	-1.038102	-0.012839
C71	C	-0.778905	-1.401936	-0.648886
C72	C	-0.278905	-0.901936	-0.148886
C73	C	-0.724298	-1.401907	-0.648871
C74	C	-0.224298	-0.901907	-0.148871
C75	C	-0.696987	-1.469994	-0.580850
C76	C	-0.196987	-0.969994	-0.080850
C77	C	-0.642396	-1.469934	-0.580822
C78	C	-0.142396	-0.969934	-0.080822
N79	N	-0.615083	-1.538024	-0.512814
N80	N	-0.115083	-1.038024	-0.012814
C81	C	-0.642372	-1.606150	-0.444815
C82	C	-0.142372	-1.106150	0.055185
C83	C	-0.975472	-1.470174	-0.580901
C84	C	-0.475472	-0.970174	-0.080901
C85	C	-1.030074	-1.470202	-0.580906
C86	C	-0.530074	-0.970202	-0.080906
C87	C	-1.030050	-1.606423	-0.444892
C88	C	-0.530050	-1.106423	0.055108
C89	C	-0.975447	-1.606388	-0.444883
C90	C	-0.475447	-1.106388	0.055117
C91	C	-0.948158	-1.538264	-0.512892
C92	C	-0.448158	-1.038264	-0.012892
C93	C	-0.527707	-1.606054	-0.444787
C94	C	-0.027707	-1.106054	0.055213
C95	C	-0.473102	-1.606002	-0.444775
C96	C	0.026898	-1.106002	0.055225
C97	C	-0.473131	-1.469786	-0.580792
C98	C	0.026869	-0.969786	-0.080792
C99	C	-0.527731	-1.469833	-0.580801
C100	C	-0.027731	-0.969833	-0.080801
C101	C	-0.555018	-1.537976	-0.512795
C102	C	-0.055018	-1.037976	-0.012795
O103	O	-0.614124	-1.412001	-0.638596
O104	O	-0.114124	-0.912001	-0.138596
O105	O	-0.614119	-1.664062	-0.386986
O106	O	-0.114119	-1.164062	0.113014
C107	C	-0.115482	-1.538243	-0.512880
C108	C	0.384518	-1.038243	-0.012880
C109	C	-0.057368	-1.538332	-0.512911
C110	C	0.442632	-1.038332	-0.012911
C111	C	-0.251866	-1.815655	-0.512840
C112	C	0.248134	-1.315655	-0.012840
C113	C	-0.251871	-1.933961	-0.512853
C114	C	0.248129	-1.433961	-0.012853
C115	C	-0.216887	-1.073939	-0.441833
C116	C	0.283113	-0.573939	0.058167
C117	C	-0.264579	-1.003090	-0.415643
C118	C	0.235421	-0.503090	0.084357
C119	C	-0.204184	-1.003239	-0.538996
C120	C	0.295816	-0.503239	-0.038996
C121	C	-0.299570	-1.073897	-0.486547
C122	C	0.200430	-0.573897	0.013453
C123	C	-0.239144	-1.074052	-0.609946
C124	C	0.260856	-0.574052	-0.109946
C125	C	-0.286869	-1.003234	-0.583793
C126	C	0.213131	-0.503234	-0.083793
C127	C	-0.286698	-1.466996	-0.977961
C128	C	0.213302	-0.966996	-0.477961
C129	C	-0.299473	-1.564106	-1.048748
C130	C	0.200527	-1.064106	-0.548748
C131	C	-0.238984	-1.441102	-1.048746
C132	C	0.261016	-0.941102	-0.548746
C133	C	-0.264590	-1.635297	-0.977964
C134	C	0.235410	-1.135297	-0.477964
C135	C	-0.204079	-1.512227	-0.977955
C136	C	0.295921	-1.012227	-0.477955
C137	C	-0.216836	-1.609405	-1.048711
C138	C	0.283164	-1.109405	-0.548711
C139	C	-0.251863	-1.538025	-0.236267
C140	C	0.248137	-1.038025	0.263733
C141	C	-0.251736	-1.538201	-0.117962
C142	C	0.248264	-1.038201	0.382038
H143	H	-0.450867	-1.661446	-0.389381
H144	H	0.049133	-1.161446	0.110619
H145	H	-0.549918	-1.661544	-0.389413
H146	H	-0.049918	-1.161544	0.110587
H147	H	-0.339798	-1.586055	-1.079845
H148	H	0.160202	-1.086055	-0.579845
H149	H	-0.316264	-1.406882	-0.946897
H150	H	0.183736	-0.906882	-0.446897
H151	H	-0.275445	-1.717409	-0.947002
H152	H	0.224555	-1.217409	-0.447002
H153	H	-0.702031	-1.729756	-0.321441
H154	H	-0.202031	-1.229756	0.178559
H155	H	-0.339902	-1.104806	-0.464317
H156	H	0.160098	-0.604806	0.035683
H157	H	-0.275340	-0.971923	-0.333507
H158	H	0.224660	-0.471923	0.166493
H159	H	-0.316480	-0.972385	-0.643825
H160	H	0.183520	-0.472385	-0.143825
H161	H	-0.187292	-1.669663	-1.079579
H162	H	0.312708	-1.169663	-0.579579
H163	H	-0.953256	-1.414690	-0.636280
H164	H	-0.453256	-0.914690	-0.136280
H165	H	-0.549969	-1.414395	-0.636192
H166	H	-0.049969	-0.914395	-0.136192
H167	H	-1.052306	-1.414749	-0.636285
H168	H	-0.552306	-0.914749	-0.136285
H169	H	-0.163765	-1.490250	-0.946835
H170	H	0.336235	-0.990250	-0.446835
H171	H	-0.228368	-1.105245	-0.692058
H172	H	0.271632	-0.605245	-0.192058
H173	H	-0.228175	-1.359014	-1.079838
H174	H	0.271825	-0.859014	-0.579838
H175	H	-0.801133	-1.346487	-0.704271
H176	H	-0.301133	-0.846487	-0.204271
H177	H	-0.801079	-1.729835	-0.321468
H178	H	-0.301079	-1.229835	0.178532
H179	H	-0.163870	-0.972144	-0.561099
H180	H	0.336130	-0.472144	-0.061099
H181	H	-0.953213	-1.661831	-0.389495
H182	H	-0.453213	-1.161831	0.110505
H183	H	-0.702083	-1.346434	-0.704256
H184	H	-0.202083	-0.846434	-0.204256
H185	H	-1.052279	-1.661898	-0.389527
H186	H	-0.552279	-1.161898	0.110473
H187	H	-0.450903	-1.414316	-0.636153
H188	H	0.049097	-0.914316	-0.136153
H189	H	-0.187346	-1.104984	-0.381755
H190	H	0.312654	-0.604984	0.118245
