data_functionalizedCrystal
_audit_creation_method	'MofGen! by Chris Wilmer'
_symmetry_space_group_name_H-M	'P1'
_symmetry_Int_Tables_number	1
_symmetry_cell_setting	triclinic
loop_
_symmetry_equiv_pos_as_xyz
  x,y,z
_cell_length_a	6.817900
_cell_length_b	15.301126
_cell_length_c	14.858572
_cell_angle_alpha	94.836512
_cell_angle_beta	104.524003
_cell_angle_gamma	104.177575
loop_
_atom_site_label
_atom_site_type_symbol
_atom_site_fract_x
_atom_site_fract_y
_atom_site_fract_z
V1	V	-4.041820	-0.125327	-0.290244
O2	O	-4.025461	0.005439	-0.284428
O3	O	-3.996683	-0.247940	-0.288539
O4	O	-3.998413	-0.123655	-0.416702
O5	O	-4.023718	-0.119707	-0.155378
V6	V	-4.524378	-0.109655	-0.274079
O7	O	-4.305195	-0.159703	-0.325704
O8	O	-4.711200	-0.075279	-0.238620
O9	O	-4.346309	0.012958	-0.275784
O10	O	-4.658135	-0.240421	-0.279895
O11	O	-4.659877	-0.115275	-0.408945
O12	O	-4.344578	-0.111327	-0.147621
C13	C	-3.842316	-0.277823	-0.284032
C14	C	-3.886732	-0.378063	-0.283481
C15	C	-4.090019	-0.429757	-0.287871
C16	C	-4.131743	-0.523944	-0.287358
C17	C	-3.970173	-0.566433	-0.282449
C18	C	-3.766870	-0.514732	-0.278061
C19	C	-3.725153	-0.420548	-0.278581
C20	C	-3.853835	-0.711041	-0.276977
C21	C	-3.895553	-0.805231	-0.276456
C22	C	-4.260425	-0.814436	-0.285755
C23	C	-4.218707	-0.720253	-0.286274
C24	C	-4.015405	-0.668558	-0.281884
C25	C	-3.844522	-0.119284	-0.447516
C26	C	-3.890338	-0.118728	-0.550898
C27	C	-4.058023	-0.116699	-0.929461
C28	C	-4.011359	-0.117264	-0.824133
C29	C	-3.974182	-0.117714	-0.740183
C30	C	-3.927515	-0.118278	-0.634848
C31	C	-4.164018	0.042836	-0.280288
C32	C	-4.098841	0.143075	-0.280846
C33	C	-4.161811	-0.115701	-0.116802
C34	C	-4.095234	-0.116252	-0.013420
H35	H	-4.297276	-0.566030	-0.290935
N36	N	-4.383707	-0.676829	-0.291289
N37	N	-4.367094	-0.615205	-0.226742
H38	H	-4.483625	-0.584533	-0.230289
N39	N	-4.468080	-0.867249	-0.290235
N40	N	-4.505312	-0.951341	-0.289774
H41	H	-4.651963	-0.988645	-0.292934
N42	N	-4.255096	-0.386378	-0.292896
N43	N	-4.415934	-0.410074	-0.361836
H44	H	-4.532532	-0.379441	-0.365389
H45	H	-3.764001	-0.839826	-0.272486
N46	N	-3.646180	-0.658224	-0.272498
N47	N	-3.616210	-0.614725	-0.337628
H48	H	-3.469555	-0.577422	-0.334461
H49	H	-3.635323	-0.549335	-0.274070
H50	H	-3.559620	-0.378460	-0.275009
