data_functionalizedCrystal
_audit_creation_method	'MofGen! by Chris Wilmer'
_symmetry_space_group_name_H-M	'P1'
_symmetry_Int_Tables_number	1
_symmetry_cell_setting	triclinic
loop_
_symmetry_equiv_pos_as_xyz
  x,y,z
_cell_length_a	17.639617
_cell_length_b	21.395362
_cell_length_c	21.395355
_cell_angle_alpha	90.020549
_cell_angle_beta	101.248275
_cell_angle_gamma	101.213953
loop_
_atom_site_label
_atom_site_type_symbol
_atom_site_fract_x
_atom_site_fract_y
_atom_site_fract_z
Zn1	Zn	1.208574	-0.056162	0.548274
Zn2	Zn	1.458574	0.193838	0.798274
Zn3	Zn	1.708574	0.443838	1.048274
Zn4	Zn	1.958574	0.693838	1.298274
Zn5	Zn	1.208453	-0.160942	0.443474
Zn6	Zn	1.458453	0.089058	0.693474
Zn7	Zn	1.708453	0.339058	0.943474
Zn8	Zn	1.958453	0.589058	1.193474
Zn9	Zn	1.076363	-0.077314	0.422286
Zn10	Zn	1.326363	0.172686	0.672286
Zn11	Zn	1.576363	0.422686	0.922286
Zn12	Zn	1.826363	0.672686	1.172286
Zn13	Zn	1.076326	-0.182063	0.527002
Zn14	Zn	1.326326	0.067937	0.777002
Zn15	Zn	1.576326	0.317937	1.027002
Zn16	Zn	1.826326	0.567937	1.277002
O17	O	1.142429	-0.119120	0.485259
O18	O	1.392429	0.130880	0.735259
O19	O	1.642429	0.380880	0.985259
O20	O	1.892429	0.630880	1.235259
O21	O	1.319185	-0.052370	0.552142
O22	O	1.569185	0.197630	0.802142
O23	O	1.819185	0.447630	1.052142
O24	O	2.069185	0.697630	1.302142
O25	O	1.190896	-0.149861	0.352979
O26	O	1.440896	0.100139	0.602979
O27	O	1.690896	0.350139	0.852979
O28	O	1.940896	0.600139	1.102979
O29	O	1.093967	0.013180	0.439034
O30	O	1.343967	0.263180	0.689034
O31	O	1.593967	0.513180	0.939034
O32	O	1.843967	0.763180	1.189034
O33	O	1.319096	-0.129351	0.475145
O34	O	1.569096	0.120649	0.725145
O35	O	1.819096	0.370649	0.975145
O36	O	2.069096	0.620649	1.225145
O37	O	1.191102	0.028720	0.531597
O38	O	1.441102	0.278720	0.781597
O39	O	1.691102	0.528720	1.031597
O40	O	1.941102	0.778720	1.281597
O41	O	1.093850	-0.088420	0.337413
O42	O	1.343850	0.161580	0.587413
O43	O	1.593850	0.411580	0.837413
O44	O	1.843850	0.661580	1.087413
O45	O	0.965731	-0.108900	0.418407
O46	O	1.215731	0.141100	0.668407
O47	O	1.465731	0.391100	0.918407
O48	O	1.715731	0.641100	1.168407
O49	O	1.093904	-0.165350	0.617508
O50	O	1.343904	0.084650	0.867508
O51	O	1.593904	0.334650	1.117508
O52	O	1.843904	0.584650	1.367508
O53	O	0.965704	-0.185859	0.495342
O54	O	1.215704	0.064141	0.745342
O55	O	1.465704	0.314141	0.995342
O56	O	1.715704	0.564141	1.245342
O57	O	1.191066	-0.072851	0.633136
O58	O	1.441066	0.177149	0.883136
O59	O	1.691066	0.427149	1.133136
O60	O	1.941066	0.677149	1.383136
O61	O	1.190860	-0.251432	0.454519
O62	O	1.440860	-0.001432	0.704519
O63	O	1.690860	0.248568	0.954519
O64	O	1.940860	0.498568	1.204519
O65	O	1.093787	-0.266950	0.515887
O66	O	1.343787	-0.016950	0.765887
O67	O	1.593787	0.233050	1.015887
O68	O	1.843787	0.483050	1.265887
C69	C	0.937033	-0.151968	0.452268
C70	C	1.187033	0.098032	0.702268
C71	C	1.437033	0.348032	0.952268
C72	C	1.687033	0.598032	1.202268
C73	C	0.849164	-0.166035	0.438169
C74	C	1.099164	0.083965	0.688169
C75	C	1.349164	0.333965	0.938169
C76	C	1.599164	0.583965	1.188169
C77	C	1.142328	-0.281924	0.485211
C78	C	1.392328	-0.031924	0.735211
C79	C	1.642328	0.218076	0.985211
C80	C	1.892328	0.468076	1.235211
C81	C	1.142357	-0.351561	0.485223
C82	C	1.392357	-0.101561	0.735223
C83	C	1.642357	0.148439	0.985223
C84	C	1.892357	0.398439	1.235223
C85	C	1.192906	-0.376130	0.533444
C86	C	1.442906	-0.126130	0.783444
C87	C	1.692906	0.123870	1.033444
C88	C	1.942906	0.373870	1.283444
C89	C	1.192934	-0.441561	0.533464
C90	C	1.442934	-0.191561	0.783464
C91	C	1.692934	0.058439	1.033464
C92	C	1.942934	0.308439	1.283464
C93	C	1.142421	-0.482419	0.485252
C94	C	1.392421	-0.232419	0.735252
C95	C	1.642421	0.017581	0.985252
C96	C	1.892421	0.267581	1.235252
C97	C	1.091862	-0.457843	0.437026
C98	C	1.341862	-0.207843	0.687026
C99	C	1.591862	0.042157	0.937026
C100	C	1.841862	0.292157	1.187026
C101	C	1.091830	-0.392414	0.437012
C102	C	1.341830	-0.142414	0.687012
C103	C	1.591830	0.107586	0.937012
C104	C	1.841830	0.357586	1.187012
C105	C	1.136267	-0.587103	0.427826
C106	C	1.386267	-0.337103	0.677826
C107	C	1.636267	-0.087103	0.927826
C108	C	1.886267	0.162897	1.177826
C109	C	1.136305	-0.652530	0.427840
C110	C	1.386305	-0.402530	0.677840
C111	C	1.636305	-0.152530	0.927840
C112	C	1.886305	0.097470	1.177840
C113	C	1.142515	-0.684224	0.485298
C114	C	1.392515	-0.434224	0.735298
C115	C	1.642515	-0.184224	0.985298
C116	C	1.892515	0.065776	1.235298
C117	C	1.148704	-0.650481	0.542745
C118	C	1.398704	-0.400481	0.792745
C119	C	1.648704	-0.150481	1.042745
C120	C	1.898704	0.099519	1.292745
C121	C	1.148672	-0.585052	0.542730
C122	C	1.398672	-0.335052	0.792730
C123	C	1.648672	-0.085052	1.042730
C124	C	1.898672	0.164948	1.292730
C125	C	1.142450	-0.553366	0.485263
C126	C	1.392450	-0.303366	0.735263
C127	C	1.642450	-0.053366	0.985263
C128	C	1.892450	0.196634	1.235263
C129	C	1.193097	-0.779741	0.533544
C130	C	1.443097	-0.529741	0.783544
C131	C	1.693097	-0.279741	1.033544
C132	C	1.943097	-0.029741	1.283544
C133	C	1.193119	-0.845174	0.533564
C134	C	1.443119	-0.595174	0.783564
C135	C	1.693119	-0.345174	1.033564
C136	C	1.943119	-0.095174	1.283564
C137	C	1.092051	-0.861454	0.437122
C138	C	1.342051	-0.611454	0.687122
C139	C	1.592051	-0.361454	0.937122
C140	C	1.842051	-0.111454	1.187122
C141	C	1.092025	-0.796023	0.437107
C142	C	1.342025	-0.546023	0.687107
C143	C	1.592025	-0.296023	0.937107
C144	C	1.842025	-0.046023	1.187107
C145	C	1.142552	-0.755170	0.485318
C146	C	1.392552	-0.505170	0.735318
C147	C	1.642552	-0.255170	0.985318
C148	C	1.892552	-0.005170	1.235318
C149	C	0.560376	-0.012239	0.592523
C150	C	0.810376	0.237761	0.842523
C151	C	1.060376	0.487761	1.092523
C152	C	1.310376	0.737761	1.342523
C153	C	0.477810	-0.025473	0.579262
C154	C	0.727810	0.224527	0.829262
C155	C	0.977810	0.474527	1.079262
C156	C	1.227810	0.724527	1.329262
C157	C	0.477739	-0.105500	0.498970
C158	C	0.727739	0.144500	0.748970
C159	C	0.977739	0.394500	0.998970
C160	C	1.227739	0.644500	1.248970
C161	C	0.560307	-0.092275	0.512226
C162	C	0.810307	0.157725	0.762226
C163	C	1.060307	0.407725	1.012226
C164	C	1.310307	0.657725	1.262226
C165	C	0.601619	-0.045643	0.559003
C166	C	0.851619	0.204357	0.809003
C167	C	1.101619	0.454357	1.059003
C168	C	1.351619	0.704357	1.309003
C169	C	0.601550	-0.125679	0.478706
C170	C	0.851550	0.124321	0.728706
C171	C	1.101550	0.374321	0.978706
C172	C	1.351550	0.624321	1.228706
C173	C	0.684111	-0.112452	0.491959
C174	C	0.934111	0.137548	0.741959
C175	C	1.184111	0.387548	0.991959
C176	C	1.434111	0.637548	1.241959
C177	C	0.725429	-0.065821	0.538732
C178	C	0.975429	0.184179	0.788732
C179	C	1.225429	0.434179	1.038732
C180	C	1.475429	0.684179	1.288732
C181	C	0.684180	-0.032416	0.572256
C182	C	0.934180	0.217584	0.822256
C183	C	1.184180	0.467584	1.072256
C184	C	1.434180	0.717584	1.322256
C185	C	0.560237	-0.172307	0.431927
C186	C	0.810237	0.077693	0.681927
C187	C	1.060237	0.327693	0.931927
C188	C	1.310237	0.577693	1.181927
C189	C	0.601480	-0.205712	0.398407
C190	C	0.851480	0.044288	0.648407
C191	C	1.101480	0.294288	0.898407
C192	C	1.351480	0.544288	1.148407
C193	C	0.684042	-0.192488	0.411663
C194	C	0.934042	0.057512	0.661663
C195	C	1.184042	0.307512	0.911663
C196	C	1.434042	0.557512	1.161663
C197	C	0.725360	-0.145857	0.458436
C198	C	0.975360	0.104143	0.708436
C199	C	1.225360	0.354143	0.958436
C200	C	1.475360	0.604143	1.208436
C201	C	0.725291	-0.225893	0.378139
C202	C	0.975291	0.024107	0.628139
C203	C	1.225291	0.274107	0.878139
C204	C	1.475291	0.524107	1.128139
C205	C	0.807852	-0.212667	0.391392
C206	C	1.057852	0.037333	0.641392
C207	C	1.307852	0.287333	0.891392
C208	C	1.557852	0.537333	1.141392
C209	C	0.807921	-0.132631	0.471689
C210	C	1.057921	0.117369	0.721689
C211	C	1.307921	0.367369	0.971689
C212	C	1.557921	0.617369	1.221689
C213	C	1.348627	-0.086145	0.518380
C214	C	1.598627	0.163855	0.768380
C215	C	1.848627	0.413855	1.018380
C216	C	2.098627	0.663855	1.268380
C217	C	1.436496	-0.072093	0.532494
C218	C	1.686496	0.177907	0.782494
C219	C	1.936496	0.427907	1.032494
C220	C	2.186496	0.677907	1.282494
C221	C	1.142495	-0.119097	0.648693
C222	C	1.392495	0.130903	0.898693
C223	C	1.642495	0.380903	1.148693
C224	C	1.892495	0.630903	1.398693
C225	C	1.142523	-0.119087	0.718339
C226	C	1.392523	0.130913	0.968339
C227	C	1.642523	0.380913	1.218339
C228	C	1.892523	0.630913	1.468339
C229	C	1.142552	0.044323	0.485325
C230	C	1.392552	0.294323	0.735325
C231	C	1.642552	0.544323	0.985325
C232	C	1.892552	0.794323	1.235325
C233	C	1.142605	0.113972	0.485353
C234	C	1.392605	0.363972	0.735353
C235	C	1.642605	0.613972	0.985353
C236	C	1.892605	0.863972	1.235353
C237	C	1.142409	-0.119091	0.322468
C238	C	1.392409	0.130909	0.572468
C239	C	1.642409	0.380909	0.822468
C240	C	1.892409	0.630909	1.072468
C241	C	1.142535	-0.118900	0.252847
C242	C	1.392535	0.131100	0.502847
C243	C	1.642535	0.381100	0.752847
C244	C	1.892535	0.631100	1.002847
C245	C	1.193113	-0.070922	0.759190
C246	C	1.443113	0.179078	1.009190
C247	C	1.693113	0.429078	1.259190
C248	C	1.943113	0.679078	1.509190
C249	C	1.193112	-0.070895	0.824625
C250	C	1.443112	0.179105	1.074625
C251	C	1.693112	0.429105	1.324625
C252	C	1.943112	0.679105	1.574625
C253	C	1.142529	-0.119043	0.849208
C254	C	1.392529	0.130957	1.099208
C255	C	1.642529	0.380957	1.349208
C256	C	1.892529	0.630957	1.599208
C257	C	1.091929	-0.167213	0.808347
C258	C	1.341929	0.082787	1.058347
C259	C	1.591929	0.332787	1.308347
C260	C	1.841929	0.582787	1.558347
C261	C	1.091926	-0.167235	0.742912
C262	C	1.341926	0.082765	0.992912
C263	C	1.591926	0.332765	1.242912
C264	C	1.841926	0.582765	1.492912
C265	C	1.136252	-0.176463	0.951864
C266	C	1.386252	0.073537	1.201864
C267	C	1.636252	0.323537	1.451864
C268	C	1.886252	0.573537	1.701864
C269	C	1.136260	-0.176441	1.017298
C270	C	1.386260	0.073559	1.267298
C271	C	1.636260	0.323559	1.517298
C272	C	1.886260	0.573559	1.767298
C273	C	1.142534	-0.118976	1.051030
C274	C	1.392534	0.131024	1.301030
C275	C	1.642534	0.381024	1.551030
C276	C	1.892534	0.631024	1.801030
C277	C	1.148815	-0.061529	1.019321
C278	C	1.398815	0.188471	1.269321
C279	C	1.648815	0.438471	1.519321
C280	C	1.898815	0.688471	1.769321
C281	C	1.148812	-0.061551	0.953887
C282	C	1.398812	0.188449	1.203887
C283	C	1.648812	0.438449	1.453887
C284	C	1.898812	0.688449	1.703887
C285	C	1.142526	-0.119025	0.920160
C286	C	1.392526	0.130975	1.170160
C287	C	1.642526	0.380975	1.420160
C288	C	1.892526	0.630975	1.670160
C289	C	1.193126	-0.070778	1.162834
C290	C	1.443126	0.179222	1.412834
C291	C	1.693126	0.429222	1.662834
C292	C	1.943126	0.679222	1.912834
C293	C	1.193119	-0.070751	1.228270
C294	C	1.443119	0.179249	1.478270
C295	C	1.693119	0.429249	1.728270
C296	C	1.943119	0.679249	1.978270
C297	C	1.091940	-0.167075	1.211991
C298	C	1.341940	0.082925	1.461991
C299	C	1.591940	0.332925	1.711991
C300	C	1.841940	0.582925	1.961991
C301	C	1.091943	-0.167097	1.146556
C302	C	1.341943	0.082903	1.396556
C303	C	1.591943	0.332903	1.646556
C304	C	1.841943	0.582903	1.896556
C305	C	1.142539	-0.118949	1.121982
C306	C	1.392539	0.131051	1.371982
C307	C	1.642539	0.381051	1.621982
C308	C	1.892539	0.631051	1.871982
H309	H	1.234047	-0.342869	0.572701
H310	H	1.484047	-0.092869	0.822701
H311	H	1.734047	0.157131	1.072701
H312	H	1.984047	0.407131	1.322701
H313	H	1.234320	-0.031570	1.142824
H314	H	1.484320	0.218430	1.392824
H315	H	1.734320	0.468430	1.642824
H316	H	1.984320	0.718430	1.892824
F317	F	0.433764	-0.155125	0.449187
F318	F	0.683764	0.094875	0.699187
F319	F	0.933764	0.344875	0.949187
F320	F	1.183764	0.594875	1.199187
F321	F	1.129724	-0.688436	0.366702
F322	F	1.379724	-0.438436	0.616702
F323	F	1.629724	-0.188436	0.866702
F324	F	1.879724	0.061564	1.116702
F325	F	1.038078	-0.218502	0.699433
F326	F	1.288078	0.031498	0.949433
F327	F	1.538078	0.281498	1.199433
F328	F	1.788078	0.531498	1.449433
F329	F	1.155493	-0.000413	0.920142
F330	F	1.405493	0.249587	1.170142
F331	F	1.655493	0.499587	1.420142
F332	F	1.905493	0.749587	1.670142
H333	H	0.444233	0.001736	0.606558
H334	H	0.694233	0.251736	0.856558
H335	H	0.944233	0.501736	1.106558
H336	H	1.194233	0.751736	1.356558
F337	F	0.472367	-0.186380	0.417819
F338	F	0.722367	0.063620	0.667819
F339	F	0.972367	0.313620	0.917819
F340	F	1.222367	0.563620	1.167819
F341	F	1.038288	-0.904934	0.385812
F342	F	1.288288	-0.654934	0.635812
F343	F	1.538288	-0.404934	0.885812
F344	F	1.788288	-0.154934	1.135812
F345	F	1.038223	-0.769874	0.385782
F346	F	1.288223	-0.519874	0.635782
F347	F	1.538223	-0.269874	0.885782
F348	F	1.788223	-0.019874	1.135782
F349	F	1.129738	-0.553366	0.366675
F350	F	1.379738	-0.303366	0.616675
F351	F	1.629738	-0.053366	0.866675
F352	F	1.879738	0.196634	1.116675
H353	H	0.594015	0.025731	0.630615
H354	H	0.844015	0.275731	0.880615
H355	H	1.094015	0.525731	1.130615
H356	H	1.344015	0.775731	1.380615
F357	F	1.246915	-0.871323	0.584896
F358	F	1.496915	-0.621323	0.834896
F359	F	1.746915	-0.371323	1.084896
F360	F	1.996915	-0.121323	1.334896
H361	H	1.050751	-0.206321	1.113294
H362	H	1.300751	0.043679	1.363294
H363	H	1.550751	0.293679	1.613294
H364	H	1.800751	0.543679	1.863294
F365	F	1.155317	-0.684206	0.603900
F366	F	1.405317	-0.434206	0.853900
F367	F	1.655317	-0.184206	1.103900
F368	F	1.905317	0.065794	1.353900
H369	H	1.234307	-0.031670	0.857893
H370	H	1.484307	0.218330	1.107893
H371	H	1.734307	0.468330	1.357893
H372	H	1.984307	0.718330	1.607893
F373	F	1.155495	-0.000365	1.055216
F374	F	1.405495	0.249635	1.305216
F375	F	1.655495	0.499635	1.555216
F376	F	1.905495	0.749635	1.805216
H377	H	0.567833	-0.243677	0.360319
H378	H	0.817833	0.006323	0.610319
H379	H	1.067833	0.256323	0.860319
H380	H	1.317833	0.506323	1.110319
F381	F	0.681314	-0.275514	0.328352
F382	F	0.931314	-0.025514	0.578352
F383	F	1.181314	0.224486	0.828352
F384	F	1.431314	0.474486	1.078352
F385	F	1.038098	-0.501328	0.385719
F386	F	1.288098	-0.251328	0.635719
F387	F	1.538098	-0.001328	0.885719
F388	F	1.788098	0.248672	1.135719
F389	F	1.246960	-0.019676	0.733040
F390	F	1.496960	0.230324	0.983040
F391	F	1.746960	0.480324	1.233040
F392	F	1.996960	0.730324	1.483040
F393	F	0.728152	0.017210	0.622046
F394	F	0.978152	0.267210	0.872046
F395	F	1.228152	0.517210	1.122046
F396	F	1.478152	0.767210	1.372046
H397	H	1.050741	-0.206415	0.828366
H398	H	1.300741	0.043585	1.078366
H399	H	1.550741	0.293585	1.328366
H400	H	1.800741	0.543585	1.578366
H401	H	1.050666	-0.372410	0.397743
H402	H	1.300666	-0.122410	0.647743
H403	H	1.550666	0.127590	0.897743
H404	H	1.800666	0.377590	1.147743
H405	H	1.234091	-0.461570	0.572738
H406	H	1.484091	-0.211570	0.822738
H407	H	1.734091	0.038430	1.072738
H408	H	1.984091	0.288430	1.322738
H409	H	1.153709	-0.557579	0.589504
H410	H	1.403709	-0.307579	0.839504
H411	H	1.653709	-0.057579	1.089504
H412	H	1.903709	0.192421	1.339504
F413	F	0.851893	-0.083004	0.521479
F414	F	1.101893	0.166996	0.771479
F415	F	1.351893	0.416996	1.021479
F416	F	1.601893	0.666996	1.271479
F417	F	1.246976	-0.019490	1.271749
F418	F	1.496976	0.230510	1.521749
F419	F	1.746976	0.480510	1.771749
F420	F	1.996976	0.730510	2.021749
F421	F	1.246869	-0.736260	0.584855
F422	F	1.496869	-0.486260	0.834855
F423	F	1.746869	-0.236260	1.084855
F424	F	1.996869	0.013740	1.334855
H425	H	1.050746	-0.206273	1.232004
H426	H	1.300746	0.043727	1.482004
H427	H	1.550746	0.293727	1.732004
H428	H	1.800746	0.543727	1.982004
F429	F	0.851749	-0.248224	0.355721
F430	F	1.101749	0.001776	0.605721
F431	F	1.351749	0.251776	0.855721
F432	F	1.601749	0.501776	1.105721
H433	H	1.131150	-0.223218	1.043111
H434	H	1.381150	0.026782	1.293111
H435	H	1.631150	0.276782	1.543111
H436	H	1.881150	0.526782	1.793111
H437	H	0.792656	-0.055051	0.549520
H438	H	1.042656	0.194949	0.799520
H439	H	1.292656	0.444949	1.049520
H440	H	1.542656	0.694949	1.299520
F441	F	1.129592	-0.237628	0.915973
F442	F	1.379592	0.012372	1.165973
F443	F	1.629592	0.262372	1.415973
F444	F	1.879592	0.512372	1.665973
