data_functionalizedCrystal
_audit_creation_method	'MofGen! by Chris Wilmer'
_symmetry_space_group_name_H-M	'P1'
_symmetry_Int_Tables_number	1
_symmetry_cell_setting	triclinic
loop_
_symmetry_equiv_pos_as_xyz
  x,y,z
_cell_length_a	10.654550
_cell_length_b	10.654543
_cell_length_c	10.268362
_cell_angle_alpha	89.998229
_cell_angle_beta	90.001331
_cell_angle_gamma	95.516448
loop_
_atom_site_label
_atom_site_type_symbol
_atom_site_fract_x
_atom_site_fract_y
_atom_site_fract_z
O1	O	1.667837	-0.176401	0.108192
O2	O	2.167837	0.323599	0.608192
O3	O	1.302358	-0.193207	0.108215
O4	O	1.802358	0.306793	0.608215
O5	O	1.493505	-0.002064	0.108206
O6	O	1.993505	0.497936	0.608206
O7	O	1.476690	-0.367543	0.108201
O8	O	1.976690	0.132457	0.608201
O9	O	1.493488	-0.002056	-0.108395
O10	O	1.993488	0.497944	0.391605
O11	O	1.302341	-0.193199	-0.108386
O12	O	1.802341	0.306801	0.391614
O13	O	1.667820	-0.176392	-0.108409
O14	O	2.167820	0.323608	0.391591
Cu15	Cu	1.485079	-0.184795	-0.128175
Cu16	Cu	1.985079	0.315205	0.371825
Cu17	Cu	1.485099	-0.184804	0.127981
Cu18	Cu	1.985099	0.315196	0.627981
O19	O	1.476673	-0.367535	-0.108400
O20	O	1.976673	0.132465	0.391600
C21	C	1.255552	-0.191969	-0.000082
C22	C	1.755552	0.308031	0.499918
C23	C	1.116109	-0.188277	-0.000073
C24	C	1.616109	0.311723	0.499927
C25	C	1.492264	0.044738	-0.000091
C26	C	1.992264	0.544738	0.499909
C27	C	1.488575	0.184182	-0.000080
C28	C	1.988575	0.684182	0.499920
C29	C	1.036620	-0.300819	-0.000078
C30	C	1.536620	0.199181	0.499922
C31	C	0.905600	-0.297342	-0.000101
C32	C	1.405600	0.202658	0.499899
C33	C	0.933568	-0.068772	-0.000108
C34	C	1.433568	0.431228	0.499892
C35	C	1.064586	-0.072250	-0.000095
C36	C	1.564586	0.427750	0.499905
C37	C	1.601119	0.263668	-0.000082
C38	C	2.101119	0.763668	0.499918
C39	C	1.597645	0.394689	-0.000058
C40	C	2.097645	0.894689	0.499942
C41	C	1.369075	0.366726	-0.000036
C42	C	1.869075	0.866726	0.499964
C43	C	1.372550	0.235707	-0.000050
C44	C	1.872550	0.735707	0.499950
C45	C	1.714627	-0.177630	-0.000109
C46	C	2.214627	0.322370	0.499891
C47	C	1.854070	-0.181322	-0.000109
C48	C	2.354070	0.318678	0.499891
N49	N	1.485074	-0.184787	-0.308340
N50	N	1.985074	0.315213	0.191660
C51	C	1.477921	0.585663	-0.000085
C52	C	1.977921	1.085663	0.499915
C53	C	1.481627	0.446222	-0.000041
C54	C	1.981627	0.946222	0.499959
C55	C	1.485093	-0.184802	-0.574011
C56	C	1.985093	0.315198	-0.074011
C57	C	1.485078	-0.184797	-0.426173
C58	C	1.985078	0.315203	0.073827
N59	N	1.485114	-0.184802	0.308147
N60	N	1.985114	0.315198	0.808147
H61	H	1.078565	-0.395295	-0.000071
H62	H	1.578565	0.104705	0.499929
C63	C	1.250214	0.149607	-0.000115
C64	C	1.750214	0.649607	0.499885
C65	C	1.147860	0.222770	-0.000131
C66	C	1.647860	0.722770	0.499869
C67	C	1.035152	0.143499	-0.000202
C68	C	1.535152	0.643499	0.499798
H69	H	1.246652	0.097881	0.075394
H70	H	1.746652	0.597881	0.575394
H71	H	1.246744	0.097942	-0.075683
H72	H	1.746744	0.597942	0.424317
H73	H	1.151329	0.274413	0.075430
H74	H	1.651329	0.774413	0.575430
H75	H	1.151381	0.274493	-0.075634
H76	H	1.651381	0.774493	0.424366
H77	H	1.031682	0.091834	-0.075770
H78	H	1.531682	0.591834	0.424230
H79	H	1.031603	0.091777	0.075308
H80	H	1.531603	0.591777	0.575308
H81	H	0.965692	0.193128	-0.000224
H82	H	1.465692	0.693128	0.499776
H83	H	0.840885	-0.388985	-0.000108
H84	H	1.340885	0.111015	0.499892
H85	H	1.274611	0.408694	-0.000014
H86	H	1.774611	0.908694	0.499986
H87	H	1.689290	0.459402	-0.000057
H88	H	2.189290	0.959402	0.499943
H89	H	0.891602	0.025693	-0.000133
H90	H	1.391602	0.525693	0.499867
H91	H	1.129310	0.019401	-0.000094
H92	H	1.629310	0.519401	0.499906
H93	H	1.695594	0.221721	-0.000104
H94	H	2.195594	0.721721	0.499896
