data_functionalizedCrystal
_audit_creation_method	'MofGen! by Chris Wilmer'
_symmetry_space_group_name_H-M	'P1'
_symmetry_Int_Tables_number	1
_symmetry_cell_setting	triclinic
loop_
_symmetry_equiv_pos_as_xyz
  x,y,z
_cell_length_a	14.853567
_cell_length_b	23.532407
_cell_length_c	13.330367
_cell_angle_alpha	89.990692
_cell_angle_beta	89.995418
_cell_angle_gamma	83.241804
loop_
_atom_site_label
_atom_site_type_symbol
_atom_site_fract_x
_atom_site_fract_y
_atom_site_fract_z
O1	O	1.195556	0.074353	-0.083365
O2	O	1.695556	0.574353	0.416635
O3	O	0.932999	0.083210	-0.083383
O4	O	1.432999	0.583210	0.416617
O5	O	1.072195	-0.004116	-0.083355
O6	O	1.572195	0.495884	0.416645
O7	O	1.056360	0.161678	-0.083393
O8	O	1.556360	0.661678	0.416607
O9	O	1.072175	-0.004118	0.083492
O10	O	1.572175	0.495882	0.583492
O11	O	0.932979	0.083208	0.083464
O12	O	1.432979	0.583208	0.583464
O13	O	1.195536	0.074351	0.083482
O14	O	1.695536	0.574351	0.583482
Cu15	Cu	1.064255	0.078779	0.098707
Cu16	Cu	1.564255	0.578779	0.598707
Cu17	Cu	1.064279	0.078782	-0.098609
Cu18	Cu	1.564279	0.578782	0.401391
O19	O	1.056340	0.161677	0.083454
O20	O	1.556340	0.661677	0.583454
C21	C	0.899405	0.082808	0.000038
C22	C	1.399405	0.582808	0.500038
C23	C	0.799334	0.081605	0.000032
C24	C	1.299334	0.581605	0.500032
C25	C	0.387423	0.024648	0.000067
C26	C	0.887423	0.524648	0.500067
C27	C	0.365008	0.128393	0.000043
C28	C	0.865008	0.628393	0.500043
C29	C	0.459029	0.129524	0.000039
C30	C	0.959029	0.629524	0.500039
C31	C	0.517252	0.078216	0.000048
C32	C	1.017252	0.578216	0.500048
C33	C	0.481454	0.025777	0.000061
C34	C	0.981454	0.525777	0.500061
C35	C	0.494835	0.181961	0.000016
C36	C	0.994835	0.681961	0.500016
C37	C	0.588861	0.183094	0.000012
C38	C	1.088861	0.683094	0.500012
C39	C	0.647086	0.131786	0.000028
C40	C	1.147086	0.631786	0.500028
C41	C	0.611283	0.079345	0.000042
C42	C	1.111283	0.579345	0.500042
C43	C	0.669506	0.028037	0.000051
C44	C	1.169506	0.528037	0.500051
C45	C	0.633704	-0.024404	0.000072
C46	C	1.133704	0.475596	0.500072
C47	C	0.539679	-0.025531	0.000077
C48	C	1.039679	0.474469	0.500077
C49	C	0.741111	0.132913	0.000023
C50	C	1.241111	0.632913	0.500023
C51	C	0.763536	0.029166	0.000044
C52	C	1.263536	0.529166	0.500044
C53	C	1.071782	-0.025335	0.000071
C54	C	1.571782	0.474665	0.500071
C55	C	1.070569	-0.088557	0.000078
C56	C	1.570569	0.411443	0.500078
C57	C	1.145338	-0.487334	0.000029
C58	C	1.645338	0.012666	0.500029
C59	C	1.144212	-0.546739	0.000021
C60	C	1.644212	-0.046739	0.500021
O61	O	1.213524	-0.583181	-0.000011
O62	O	1.713524	-0.083181	0.499989
N63	N	1.061460	-0.569726	0.000016
N64	N	1.561460	-0.069726	0.500016
C65	C	0.979829	-0.533305	0.000008
C66	C	1.479829	-0.033305	0.500008
O67	O	0.909339	-0.558312	0.000002
O68	O	1.409339	-0.058312	0.500002
C69	C	0.980957	-0.473901	0.000009
C70	C	1.480957	0.026099	0.500009
C71	C	1.063714	-0.450917	0.000024
C72	C	1.563714	0.049083	0.500024
C73	C	1.228089	-0.464349	0.000043
C74	C	1.728089	0.035651	0.500043
C75	C	1.229214	-0.404948	0.000052
C76	C	1.729214	0.095052	0.500052
C77	C	1.147590	-0.368531	0.000048
C78	C	1.647590	0.131469	0.500048
C79	C	1.064839	-0.391516	0.000034
C80	C	1.564839	0.108484	0.500034
C81	C	0.899327	-0.437481	-0.000006
C82	C	1.399327	0.062519	0.499994
C83	C	0.900461	-0.378073	-0.000006
C84	C	1.400461	0.121927	0.499994
C85	C	0.983218	-0.355089	0.000009
C86	C	1.483218	0.144911	0.500009
C87	C	0.984341	-0.295698	0.000039
C88	C	1.484341	0.204302	0.500039
N89	N	1.067092	-0.272711	0.000044
N90	N	1.567092	0.227289	0.500044
C91	C	1.148717	-0.309128	0.000048
C92	C	1.648717	0.190872	0.500048
C93	C	0.977469	-0.658058	0.000005
C94	C	1.477469	-0.158058	0.500005
C95	C	0.976340	-0.717461	0.000012
C96	C	1.476340	-0.217461	0.500012
C97	C	1.140723	-0.730890	0.000023
C98	C	1.640723	-0.230890	0.500023
C99	C	1.141851	-0.671486	0.000023
C100	C	1.641851	-0.171486	0.500023
C101	C	1.060220	-0.635070	0.000011
C102	C	1.560220	-0.135070	0.500011
C103	C	1.151075	-0.184380	0.000069
C104	C	1.651075	0.315620	0.500069
C105	C	1.152194	-0.124974	0.000083
C106	C	1.652194	0.375026	0.500083
C107	C	0.987811	-0.111549	0.000067
C108	C	1.487811	0.388451	0.500067
C109	C	0.986692	-0.170951	0.000058
C110	C	1.486692	0.329049	0.500058
C111	C	1.068331	-0.207365	0.000056
C112	C	1.568331	0.292635	0.500056
O113	O	0.915065	-0.259221	0.000067
O114	O	1.415065	0.240779	0.500067
O115	O	1.219196	-0.284112	0.000041
O116	O	1.719196	0.215888	0.500041
C117	C	1.229130	0.074753	0.000058
C118	C	1.729130	0.574753	0.500058
C119	C	1.329200	0.075956	0.000058
C120	C	1.829200	0.575956	0.500058
C121	C	1.056753	0.182895	0.000026
C122	C	1.556753	0.682895	0.500026
C123	C	1.057966	0.246118	0.000011
C124	C	1.557966	0.746118	0.500011
N125	N	1.064245	0.078777	0.237489
N126	N	1.564245	0.578777	0.737489
N127	N	1.064296	0.078779	-0.237390
N128	N	1.564296	0.578779	0.262610
C129	C	1.002641	0.117434	0.710099
C130	C	1.502641	0.617434	1.210099
C131	C	1.125942	0.040124	0.710092
C132	C	1.625942	0.540124	1.210092
C133	C	1.125932	0.040123	0.605074
C134	C	1.625932	0.540123	1.105074
C135	C	1.064276	0.078778	0.552563
C136	C	1.564276	0.578778	1.052563
C137	C	1.002631	0.117435	0.605071
C138	C	1.502631	0.617435	1.105071
C139	C	1.187582	0.001470	0.552558
C140	C	1.687582	0.501470	1.052558
C141	C	1.187575	0.001467	0.447533
C142	C	1.687575	0.501467	0.947533
C143	C	1.125914	0.040120	0.395021
C144	C	1.625914	0.540120	0.895021
C145	C	1.064266	0.078778	0.447535
C146	C	1.564266	0.578778	0.947535
C147	C	1.002610	0.117434	0.395025
C148	C	1.502610	0.617434	0.895025
C149	C	0.940957	0.156089	0.447537
C150	C	1.440957	0.656089	0.947537
C151	C	0.940970	0.156088	0.552559
C152	C	1.440970	0.656088	1.052559
C153	C	1.125901	0.040122	0.289999
C154	C	1.625901	0.540122	0.789999
C155	C	1.002600	0.117434	0.289997
C156	C	1.502600	0.617434	0.789997
H157	H	0.770257	0.175610	0.000007
H158	H	1.270257	0.675610	0.500007
C159	C	1.179753	-0.058404	0.742449
C160	C	1.679753	0.441596	1.242449
C161	C	1.193703	-0.002367	0.767813
C162	C	1.693703	0.497633	1.267813
H163	H	1.221589	-0.084638	0.778085
H164	H	1.721589	0.415362	1.278085
H165	H	1.119649	-0.064648	0.759674
H166	H	1.619649	0.435352	1.259674
H167	H	1.188576	-0.063932	0.672386
H168	H	1.688576	0.436068	1.172386
H169	H	1.184873	0.003162	0.837876
H170	H	1.684873	0.503162	1.337876
H171	H	1.253821	0.003879	0.750595
H172	H	1.753821	0.503879	1.250595
C173	C	0.646436	-0.127070	0.000091
C174	C	1.146436	0.372930	0.500091
C175	C	0.697708	-0.080802	0.000074
C176	C	1.197708	0.419198	0.500074
H177	H	0.685954	-0.161886	0.000084
H178	H	1.185954	0.338114	0.500084
H179	H	0.609305	-0.125358	0.058278
H180	H	1.109305	0.374642	0.558278
H181	H	0.609288	-0.125350	-0.058089
H182	H	1.109288	0.374650	0.441911
H183	H	0.734851	-0.082519	0.058258
H184	H	1.234851	0.417481	0.558258
H185	H	0.734855	-0.082515	-0.058119
H186	H	1.234855	0.417485	0.441881
H187	H	1.237785	-0.029999	0.595316
H188	H	1.737785	0.470001	1.095316
H189	H	0.510520	-0.068226	0.000118
H190	H	1.010520	0.431774	0.500118
H191	H	1.296604	-0.386241	0.000061
H192	H	1.796604	0.113759	0.500061
C193	C	0.557249	0.285531	-0.000002
C194	C	1.057249	0.785531	0.499998
C195	C	0.628210	0.240736	0.000002
C196	C	1.128210	0.740736	0.500002
H197	H	0.581545	0.321115	0.000001
H198	H	1.081545	0.821115	0.500001
H199	H	0.521050	0.282935	-0.058183
H200	H	1.021050	0.782935	0.441817
H201	H	0.521036	0.282925	0.058184
H202	H	1.021036	0.782925	0.558184
H203	H	0.664420	0.243339	-0.058188
H204	H	1.164420	0.743339	0.441812
H205	H	0.664425	0.243333	0.058189
H206	H	1.164425	0.743333	0.558189
C207	C	0.882281	-0.029751	-0.085721
C208	C	1.382281	0.470249	0.414279
C209	C	0.827535	-0.027233	0.000053
C210	C	1.327535	0.472767	0.500053
H211	H	0.921794	-0.064568	-0.085710
H212	H	1.421794	0.435432	0.414290
H213	H	0.845132	-0.028038	-0.143888
H214	H	1.345132	0.471962	0.356112
H215	H	0.917056	0.001642	-0.085724
H216	H	1.417056	0.501642	0.414276
H217	H	0.792754	-0.058625	0.000053
H218	H	1.292754	0.441375	0.500053
H219	H	0.864688	-0.028951	0.058236
H220	H	1.364688	0.471049	0.558236
H221	H	1.219587	-0.106264	0.000098
H222	H	1.719587	0.393736	0.500098
H223	H	0.919305	-0.189665	0.000074
H224	H	1.419305	0.310335	0.500074
C225	C	1.313675	-0.191672	0.000095
C226	C	1.813675	0.308328	0.500095
C227	C	1.240814	-0.224402	0.000076
C228	C	1.740814	0.275598	0.500076
H229	H	1.369074	-0.216381	0.000110
H230	H	1.869074	0.283619	0.500110
H231	H	1.310701	-0.168219	-0.058083
H232	H	1.810701	0.331781	0.441917
H233	H	1.310670	-0.168227	0.058284
H234	H	1.810670	0.331773	0.558284
H235	H	1.243815	-0.247844	-0.058117
H236	H	1.743815	0.252156	0.441883
H237	H	1.243789	-0.247865	0.058260
H238	H	1.743789	0.252135	0.558260
H239	H	0.358269	-0.018049	0.000088
H240	H	0.858269	0.481951	0.500088
C241	C	0.818196	0.168304	0.670703
C242	C	1.318196	0.668304	1.170703
C243	C	0.873213	0.198577	0.610288
C244	C	1.373213	0.698577	1.110288
H245	H	0.776373	0.194536	0.706350
H246	H	1.276373	0.694536	1.206350
H247	H	0.785974	0.144568	0.629749
H248	H	1.285974	0.644568	1.129749
H249	H	0.854931	0.145282	0.716995
H250	H	1.354931	0.645282	1.216995
H251	H	0.836478	0.221595	0.563990
H252	H	1.336478	0.721595	1.063990
H253	H	0.905437	0.222323	0.651245
H254	H	1.405437	0.722323	1.151245
H255	H	1.209239	-0.652777	0.000035
H256	H	1.709239	-0.152777	0.500035
H257	H	1.237775	-0.030008	0.404784
H258	H	1.737775	0.469992	0.904784
H259	H	0.317597	0.170165	0.000027
H260	H	0.817597	0.670165	0.500027
C261	C	0.835894	-0.724282	-0.085770
C262	C	1.335894	-0.224282	0.414230
C263	C	0.885372	-0.742721	0.000004
C264	C	1.385372	-0.242721	0.500004
H265	H	0.779735	-0.739879	-0.085780
H266	H	1.279735	-0.239879	0.414220
H267	H	0.824893	-0.683696	-0.085757
H268	H	1.324893	-0.183696	0.414243
H269	H	0.869496	-0.736776	-0.143944
H270	H	1.369496	-0.236776	0.356056
H271	H	0.851773	-0.730224	0.058179
H272	H	1.351773	-0.230224	0.558179
H273	H	0.896371	-0.783316	-0.000000
H274	H	1.396371	-0.283316	0.500000
C275	C	1.280484	-0.760657	0.085792
C276	C	1.780484	-0.260657	0.585792
C277	C	1.230448	-0.770929	0.000019
C278	C	1.730448	-0.270929	0.500019
H279	H	1.335869	-0.785379	0.085791
H280	H	1.835869	-0.285379	0.585791
H281	H	1.293008	-0.721995	0.085790
H282	H	1.793008	-0.221995	0.585790
H283	H	1.246514	-0.767639	0.143967
H284	H	1.746514	-0.267639	0.643967
H285	H	1.264416	-0.763943	-0.058156
H286	H	1.764416	-0.263943	0.441844
H287	H	1.217927	-0.809600	0.000012
H288	H	1.717927	-0.309600	0.500012
H289	H	0.952441	0.148906	0.752857
H290	H	1.452441	0.648906	1.252857
H291	H	0.890760	0.187565	0.404771
H292	H	1.390760	0.687565	0.904771
C293	C	0.376078	0.240867	-0.085752
C294	C	0.876078	0.740867	0.414248
C295	C	0.430831	0.238354	0.000008
C296	C	0.930831	0.738354	0.500008
H297	H	0.336558	0.275681	-0.085750
H298	H	0.836558	0.775681	0.414250
H299	H	0.413221	0.239158	-0.143930
H300	H	0.913221	0.739158	0.356070
H301	H	0.341310	0.209470	-0.085727
H302	H	0.841310	0.709470	0.414273
H303	H	0.465604	0.269749	-0.000021
H304	H	0.965604	0.769749	0.499979
H305	H	0.393684	0.240068	0.058200
H306	H	0.893684	0.740068	0.558200
H307	H	1.176102	0.008652	0.247249
H308	H	1.676102	0.508652	0.747249
C309	C	0.848070	-0.081794	-0.085725
C310	C	1.348070	0.418206	0.414275
C311	C	0.898092	-0.071512	0.000055
C312	C	1.398092	0.428488	0.500055
H313	H	0.792680	-0.057078	-0.085734
H314	H	1.292680	0.442922	0.414266
H315	H	0.882042	-0.074815	-0.143889
H316	H	1.382042	0.425185	0.356111
H317	H	0.835553	-0.120462	-0.085717
H318	H	1.335553	0.379538	0.414283
H319	H	0.910615	-0.032845	0.000043
H320	H	1.410615	0.467155	0.500043
H321	H	0.864113	-0.078487	0.058233
H322	H	1.364113	0.421513	0.558233
H323	H	0.833986	-0.348425	-0.000018
H324	H	1.333986	0.151575	0.499982
H325	H	1.294561	-0.493994	0.000043
H326	H	1.794561	0.006006	0.500043
H327	H	0.910991	-0.628410	0.000004
H328	H	1.410991	-0.128410	0.500004
C329	C	0.736962	-0.418214	-0.000047
C330	C	1.236962	0.081786	0.499953
C331	C	0.808356	-0.462734	-0.000032
C332	C	1.308356	0.037266	0.499968
H333	H	0.680798	-0.433804	-0.000070
H334	H	1.180798	0.066196	0.499930
H335	H	0.740813	-0.395333	0.058138
H336	H	1.240813	0.104667	0.558138
H337	H	0.740850	-0.395317	-0.058229
H338	H	1.240850	0.104683	0.441771
H339	H	0.804472	-0.485628	0.058155
H340	H	1.304472	0.014372	0.558155
H341	H	0.804503	-0.485624	-0.058222
H342	H	1.304503	0.014376	0.441778
H343	H	0.952389	0.148910	0.247249
H344	H	1.452389	0.648910	0.747249
