data_functionalizedCrystal
_audit_creation_method	'MofGen! by Chris Wilmer'
_symmetry_space_group_name_H-M	'P1'
_symmetry_Int_Tables_number	1
_symmetry_cell_setting	triclinic
loop_
_symmetry_equiv_pos_as_xyz
  x,y,z
_cell_length_a	13.635800
_cell_length_b	11.102244
_cell_length_c	19.551833
_cell_angle_alpha	85.478320
_cell_angle_beta	78.336523
_cell_angle_gamma	108.604870
loop_
_atom_site_label
_atom_site_type_symbol
_atom_site_fract_x
_atom_site_fract_y
_atom_site_fract_z
V1	V	-2.016322	-0.177171	0.217856
O2	O	-1.996592	0.007143	0.213711
O3	O	-2.004977	-0.349981	0.216364
O4	O	-1.987511	-0.175047	0.312872
O5	O	-2.014179	-0.169002	0.116536
V6	V	-2.257067	-0.155054	0.205738
O7	O	-2.149179	-0.225686	0.244439
O8	O	-2.349308	-0.106538	0.179155
O9	O	-2.156809	0.017757	0.207229
O10	O	-2.335496	-0.339367	0.209883
O11	O	-2.317909	-0.163222	0.307058
O12	O	-2.174275	-0.157177	0.110722
C13	C	-1.930754	-0.392090	0.212927
C14	C	-1.962091	-0.533369	0.212341
V15	V	-1.516322	-0.177171	0.217856
O16	O	-1.496592	0.007143	0.213711
O17	O	-1.504977	-0.349981	0.216364
O18	O	-1.487511	-0.175047	0.312872
O19	O	-1.514179	-0.169002	0.116536
V20	V	-1.757067	-0.155054	0.205738
O21	O	-1.649179	-0.225686	0.244439
O22	O	-1.849308	-0.106538	0.179155
O23	O	-1.656809	0.017757	0.207229
O24	O	-1.835496	-0.339367	0.209883
O25	O	-1.817909	-0.163222	0.307058
O26	O	-1.674275	-0.157177	0.110722
C27	C	-1.958312	-0.581210	0.148081
C28	C	-1.987762	-0.713959	0.147538
C29	C	-2.024767	-0.751014	0.275520
C30	C	-1.995324	-0.618268	0.276063
C31	C	-1.936943	-0.559818	0.074191
C32	C	-1.966393	-0.692567	0.073648
C33	C	-1.908474	-0.168942	0.336031
C34	C	-1.925644	-0.168350	0.413706
C35	C	-2.062703	0.059859	0.210665
C36	C	-2.020985	0.201136	0.211256
C37	C	-2.084984	-0.163286	0.087559
C38	C	-2.057432	-0.163873	0.009883
C39	C	-1.430754	-0.392090	0.212927
C40	C	-1.462091	-0.533369	0.212341
C41	C	-1.408474	-0.168942	0.336031
C42	C	-1.425644	-0.168350	0.413706
C43	C	-2.025073	-0.174450	0.453754
C44	C	-2.041207	-0.173893	0.526738
C45	C	-1.957913	-0.167261	0.559675
C46	C	-1.858469	-0.161152	0.519617
C47	C	-1.842335	-0.161696	0.446633
C48	C	-1.931652	-0.236364	0.678986
C49	C	-1.947792	-0.235828	0.751969
C50	C	-2.007671	-0.165577	0.784781
C51	C	-2.051430	-0.095879	0.744603
C52	C	-2.035295	-0.096423	0.671619
C53	C	-1.975397	-0.166670	0.638813
C54	C	-2.124600	-0.171072	0.903967
C55	C	-2.140728	-0.170507	0.976952
C56	C	-1.957991	-0.157779	0.969831
C57	C	-1.941862	-0.158331	0.896846
C58	C	-2.025172	-0.164984	0.863919
C59	C	-1.562703	0.059859	0.210665
C60	C	-1.520985	0.201136	0.211256
C61	C	-1.584984	-0.163286	0.087559
C62	C	-1.557432	-0.163873	0.009883
C63	C	-1.525077	-0.174429	0.453745
C64	C	-1.541221	-0.173856	0.526729
C65	C	-1.457933	-0.167211	0.559673
C66	C	-1.358491	-0.161127	0.519628
C67	C	-1.342347	-0.161692	0.446645
C68	C	-1.458487	-0.170503	-0.023043
C69	C	-1.432581	-0.171039	-0.096029
C70	C	-1.505623	-0.164954	-0.136087
C71	C	-1.604574	-0.158319	-0.103156
C72	C	-1.630477	-0.157774	-0.030172
C73	C	-1.568186	-0.606236	0.215551
C74	C	-1.597626	-0.738984	0.215006
C75	C	-1.414866	-0.725983	0.208038
C76	C	-1.385428	-0.593240	0.208588
C77	C	-1.673701	-0.613742	0.219571
C78	C	-1.703141	-0.746490	0.219026
H79	H	-1.998412	-0.579323	0.328389
H80	H	-1.290684	-0.155718	0.546463
H81	H	-2.092910	-0.179863	0.426949
H82	H	-1.592907	-0.179843	0.426932
H83	H	-2.192434	-0.176485	0.877156
H84	H	-1.622199	-0.178815	0.559323
O85	O	-1.900539	-0.310988	0.795259
H86	H	-1.965468	-0.383899	0.836113
H87	H	-1.484523	-0.165414	-0.195513
H88	H	-1.471093	-0.166753	0.619101
O89	O	-1.235102	-0.155157	0.403464
H90	H	-1.179912	-0.150458	0.438641
H91	H	-1.848803	-0.506860	0.048672
H92	H	-2.041276	-0.732244	0.053311
H93	H	-1.759673	-0.804673	0.270790
O94	O	-2.082478	-0.021246	0.628281
H95	H	-2.017492	0.051600	0.587429
O96	O	-1.683356	-0.151767	-0.146363
H97	H	-1.648715	-0.153277	-0.202642
H98	H	-1.352005	-0.176441	-0.122830
O99	O	-1.685525	-0.542815	0.154307
H100	H	-1.715611	-0.612565	0.119265
H101	H	-1.737436	-0.771167	0.171296
O102	O	-1.737201	-0.150628	0.005340
H103	H	-1.783634	-0.146498	-0.034781
O104	O	-2.115986	-0.020076	0.779990
H105	H	-2.077612	0.083126	0.756780
O106	O	-1.271001	-0.514646	0.205139
H107	H	-1.218988	-0.523133	0.155519
O108	O	-2.060610	-0.842582	0.344248
H109	H	-2.080447	-0.942927	0.333076
O110	O	-1.379728	-0.177159	0.020163
H111	H	-1.306586	-0.181880	-0.015003
H112	H	-1.352454	-0.774747	0.204983
O113	O	-1.873192	-0.722822	0.032346
H114	H	-1.895678	-0.769568	-0.013042
O115	O	-2.008311	-0.507671	0.040327
H116	H	-1.959091	-0.434279	-0.006299
H117	H	-2.122177	-0.178868	0.559352
H118	H	-1.790650	-0.155748	0.546438
O119	O	-2.247971	-0.177063	1.020145
H120	H	-2.309831	-0.267294	1.015311
O121	O	-1.735581	-0.588674	0.286886
H122	H	-1.789215	-0.681677	0.319410
H123	H	-1.890168	-0.152367	0.996646
O124	O	-1.735093	-0.155119	0.403428
H125	H	-1.715517	-0.239034	0.423178
O126	O	-1.834624	-0.151763	0.853643
H127	H	-1.815053	-0.235682	0.873394
O128	O	-1.867072	-0.312147	0.643598
H129	H	-1.839372	-0.360537	0.683797
