data_functionalizedCrystal
_audit_creation_method	'MofGen! by Chris Wilmer'
_symmetry_space_group_name_H-M	'P1'
_symmetry_Int_Tables_number	1
_symmetry_cell_setting	triclinic
loop_
_symmetry_equiv_pos_as_xyz
  x,y,z
_cell_length_a	16.109301
_cell_length_b	8.559649
_cell_length_c	14.586319
_cell_angle_alpha	89.997976
_cell_angle_beta	89.999213
_cell_angle_gamma	76.620073
loop_
_atom_site_label
_atom_site_type_symbol
_atom_site_fract_x
_atom_site_fract_y
_atom_site_fract_z
O1	O	1.090046	0.205389	-0.076179
O2	O	0.846355	0.230950	-0.076193
O3	O	0.989670	-0.014444	-0.076183
O4	O	0.946731	0.450783	-0.076188
O5	O	0.989661	-0.014447	0.076297
O6	O	0.846347	0.230946	0.076288
O7	O	1.090037	0.205386	0.076302
Cu8	Cu	0.968191	0.218165	0.090218
Cu9	Cu	0.968201	0.218170	-0.090108
O10	O	0.946722	0.450779	0.076293
C11	C	0.815442	0.229912	0.000046
C12	C	0.723344	0.226808	0.000040
C13	C	0.492255	0.365202	0.000050
C14	C	0.405721	0.362273	0.000056
C15	C	0.444145	0.071122	0.000054
C16	C	0.530677	0.074053	0.000055
C17	C	0.554729	0.221098	0.000048
C18	C	0.381663	0.215238	0.000053
C19	C	0.287840	0.212061	0.000060
C20	C	0.648558	0.224275	0.000043
C21	C	0.992919	-0.073977	0.000055
C22	C	1.002605	-0.251362	0.000051
C23	C	1.120950	0.206423	0.000062
C24	C	1.213048	0.209527	0.000061
C25	C	0.943473	0.510312	0.000052
C26	C	0.933787	0.687697	0.000051
N27	N	0.968190	0.218161	0.217050
N28	N	0.968210	0.218161	-0.216940
C29	C	1.031666	0.109538	0.452060
C30	C	1.031669	0.109534	0.548041
C31	C	0.904727	0.326790	0.548043
C32	C	0.904722	0.326785	0.452063
C33	C	0.968196	0.218161	0.404074
C34	C	0.968204	0.218162	0.596035
C35	C	0.968206	0.218158	0.700102
C36	C	0.968193	0.218162	0.300001
H37	H	0.354857	0.479618	0.000059
C38	C	0.845362	-0.200856	-0.000149
C39	C	0.835703	-0.104098	-0.078614
C40	C	0.754252	-0.001419	-0.078835
H41	H	0.838561	-0.134892	0.052959
H42	H	0.803459	-0.262814	-0.000199
H43	H	0.877594	-0.042145	-0.078556
H44	H	0.842487	-0.170019	-0.131734
H45	H	0.712349	-0.063377	-0.078885
H46	H	0.747459	0.064535	-0.025724
H47	H	0.747685	0.064233	-0.132076
C48	C	1.100558	-0.008653	0.600023
C49	C	1.097120	-0.165683	0.576661
C50	C	1.160576	-0.274605	0.624518
H51	H	1.091546	0.006674	0.664072
H52	H	1.154954	0.008639	0.584269
H53	H	1.042736	-0.182969	0.592421
H54	H	1.106141	-0.181061	0.512619
H55	H	1.214973	-0.257313	0.608764
H56	H	1.151559	-0.259264	0.688565
H57	H	1.158257	-0.381162	0.608667
C58	C	0.598476	-0.082465	-0.000137
C59	C	0.589036	-0.170981	-0.078598
C60	C	0.651483	-0.315155	-0.078809
H61	H	0.592250	-0.142955	0.052973
H62	H	0.653472	-0.059724	-0.000184
H63	H	0.534053	-0.193725	-0.078543
H64	H	0.595271	-0.110539	-0.131721
H65	H	0.706479	-0.292414	-0.078856
H66	H	0.645252	-0.375630	-0.025695
H67	H	0.645092	-0.375223	-0.132047
C68	C	1.091035	-0.362816	-0.000130
C69	C	1.100706	-0.459591	-0.078585
C70	C	1.182158	-0.562265	-0.078789
H71	H	1.097831	-0.428770	0.052984
H72	H	1.132937	-0.300854	-0.000182
H73	H	1.058816	-0.521547	-0.078525
H74	H	1.093927	-0.393681	-0.131712
H75	H	1.224059	-0.500303	-0.078841
H76	H	1.188946	-0.628207	-0.025672
H77	H	1.188732	-0.627928	-0.132024
C78	C	1.100430	-0.008559	0.399864
C79	C	1.062355	-0.106365	0.344781
C80	C	1.125666	-0.215200	0.296691
H81	H	1.138242	-0.073403	0.442107
H82	H	1.131384	0.048815	0.362347
H83	H	1.031415	-0.163734	0.382295
H84	H	1.024549	-0.041565	0.302521
H85	H	1.156620	-0.157827	0.259173
H86	H	1.163474	-0.280034	0.338940
H87	H	1.099841	-0.281565	0.259305
H88	H	0.853049	0.415232	0.587125
C89	C	0.835886	0.444988	0.400007
C90	C	0.839356	0.602020	0.423325
C91	C	0.775967	0.710941	0.375381
H92	H	0.781462	0.427822	0.415703
H93	H	0.844969	0.429532	0.335964
H94	H	0.830267	0.617470	0.487355
H95	H	0.893766	0.619237	0.407628
H96	H	0.785050	0.695485	0.311338
H97	H	0.721547	0.693761	0.391080
H98	H	0.778318	0.817499	0.391189
C99	C	0.417856	-0.088358	0.000007
C100	C	0.328703	-0.060085	-0.000020
C101	C	0.304458	-0.206962	-0.000079
H102	H	0.439845	-0.147820	0.053165
H103	H	0.439887	-0.147699	-0.053189
H104	H	0.306682	-0.000769	0.053170
H105	H	0.306693	-0.000647	-0.053175
H106	H	0.326489	-0.266303	-0.053275
H107	H	0.326453	-0.266413	0.053080
H108	H	0.243967	-0.187800	-0.000106
H109	H	0.511835	0.484935	0.000051
