data_functionalizedCrystal
_audit_creation_method	'MofGen! by Chris Wilmer'
_symmetry_space_group_name_H-M	'P1'
_symmetry_Int_Tables_number	1
_symmetry_cell_setting	triclinic
loop_
_symmetry_equiv_pos_as_xyz
  x,y,z
_cell_length_a	19.077399
_cell_length_b	18.215405
_cell_length_c	18.215399
_cell_angle_alpha	89.969449
_cell_angle_beta	92.275086
_cell_angle_gamma	92.324501
loop_
_atom_site_label
_atom_site_type_symbol
_atom_site_fract_x
_atom_site_fract_y
_atom_site_fract_z
Zn1	Zn	1.075970	-0.247799	-0.371003
Zn2	Zn	1.075882	-0.370874	-0.247935
Zn3	Zn	0.958274	-0.252766	-0.252883
Zn4	Zn	0.958241	-0.375773	-0.375891
O5	O	1.017092	-0.311803	-0.311928
O6	O	1.174448	-0.259996	-0.350561
O7	O	1.060258	-0.355235	-0.145608
O8	O	0.973936	-0.149120	-0.268578
O9	O	1.174384	-0.350419	-0.260143
O10	O	1.060407	-0.145471	-0.355360
O11	O	0.973852	-0.268461	-0.149244
O12	O	0.859780	-0.273212	-0.273317
O13	O	0.973881	-0.358769	-0.478225
O14	O	0.859756	-0.363585	-0.363690
O15	O	1.060376	-0.264747	-0.474635
O16	O	1.060227	-0.474510	-0.264883
O17	O	0.973796	-0.478110	-0.358891
C18	C	1.017017	-0.503012	-0.311896
C19	C	1.017050	-0.584810	-0.311904
C20	C	0.834230	-0.319469	-0.319571
C21	C	0.756001	-0.322767	-0.322859
C22	C	1.062160	-0.771101	-0.263036
C23	C	1.062191	-0.847958	-0.263052
C24	C	0.972113	-0.851749	-0.360869
C25	C	0.972086	-0.774893	-0.360856
C26	C	1.017108	-0.734571	-0.311935
C27	C	1.017167	-0.888284	-0.311965
C28	C	1.017201	-0.971617	-0.311983
C29	C	1.017076	-0.651233	-0.311917
C30	C	0.719241	-0.277193	-0.277428
C31	C	0.645737	-0.280297	-0.280517
C32	C	0.608994	-0.328973	-0.329040
C33	C	0.645759	-0.374552	-0.374473
C34	C	0.719262	-0.371451	-0.371380
C35	C	0.389164	-0.343305	-0.343325
C36	C	0.315656	-0.346402	-0.346416
C37	C	0.315639	-0.252147	-0.252458
C38	C	0.389143	-0.249047	-0.249373
C39	C	0.425902	-0.294629	-0.294803
N40	N	0.533861	-0.332146	-0.332200
N41	N	0.501034	-0.291459	-0.291638
C42	C	1.200667	-0.304107	-0.304255
C43	C	1.278896	-0.300828	-0.300985
C44	C	1.017134	-0.311750	-0.503879
C45	C	1.017153	-0.311728	-0.585677
C46	C	1.017185	-0.119846	-0.311976
C47	C	1.017225	-0.038045	-0.311996
C48	C	1.062207	-0.262726	-0.772002
C49	C	1.062215	-0.262704	-0.848860
C50	C	0.972148	-0.360614	-0.852588
C51	C	0.972137	-0.360632	-0.775731
C52	C	1.017170	-0.311689	-0.735440
C53	C	1.017190	-0.311649	-0.889155
C54	C	1.017199	-0.311626	-0.972489
C55	C	1.017161	-0.311711	-0.652101
C56	C	1.017089	-0.311800	-0.120722
C57	C	1.017208	-0.311610	-0.038918
H58	H	1.098878	-0.877697	-0.223234
N59	N	0.923552	-0.895240	-0.413629
H60	H	0.930403	-0.949472	-0.406216
H61	H	0.873290	-0.883965	-0.404226
N62	N	0.923494	-0.735487	-0.413601
H63	H	0.894973	-0.772692	-0.444591
H64	H	0.890931	-0.705014	-0.384969
N65	N	0.606090	-0.231121	-0.231537
H66	H	0.553951	-0.240467	-0.240860
H67	H	0.618904	-0.241947	-0.178412
H68	H	0.749152	-0.237550	-0.237921
N69	N	1.110775	-0.209939	-0.728543
H70	H	1.139306	-0.178918	-0.763371
H71	H	1.082137	-0.177091	-0.697859
H72	H	0.935458	-0.400503	-0.745962
N73	N	1.110788	-0.209886	-0.888287
H74	H	1.161069	-0.219208	-0.872813
H75	H	1.103905	-0.217317	-0.943080
N76	N	1.110720	-0.727608	-0.210277
H77	H	1.139266	-0.762415	-0.179304
H78	H	1.143261	-0.694304	-0.238898
H79	H	0.419054	-0.209415	-0.209855
H80	H	0.935486	-0.400463	-0.885403
N81	N	0.275992	-0.203001	-0.203447
H82	H	0.223853	-0.212355	-0.212762
H83	H	0.288821	-0.213862	-0.150332
N84	N	0.276024	-0.398898	-0.398760
H85	H	0.310463	-0.427303	-0.427072
H86	H	0.245498	-0.434201	-0.370029
N87	N	0.428806	-0.392467	-0.392320
H88	H	0.394374	-0.423770	-0.423529
H89	H	0.459329	-0.361271	-0.425149
N90	N	0.606128	-0.427055	-0.426804
H91	H	0.575656	-0.398477	-0.462245
H92	H	0.640613	-0.455447	-0.455063
N93	N	0.758915	-0.420609	-0.420376
H94	H	0.724486	-0.451915	-0.451585
H95	H	0.789437	-0.389412	-0.453204
