data_functionalizedCrystal
_audit_creation_method	'MofGen! by Chris Wilmer'
_symmetry_space_group_name_H-M	'P1'
_symmetry_Int_Tables_number	1
_symmetry_cell_setting	triclinic
loop_
_symmetry_equiv_pos_as_xyz
  x,y,z
_cell_length_a	15.995350
_cell_length_b	14.472311
_cell_length_c	14.044220
_cell_angle_alpha	89.989363
_cell_angle_beta	91.659374
_cell_angle_gamma	90.000483
loop_
_atom_site_label
_atom_site_type_symbol
_atom_site_fract_x
_atom_site_fract_y
_atom_site_fract_z
O1	O	1.120110	0.076765	-0.122187
O2	O	1.620110	0.576765	0.377813
O3	O	0.877462	0.076784	-0.137274
O4	O	1.377462	0.576784	0.362726
O5	O	0.995144	0.076765	0.008254
O6	O	1.495144	0.576765	0.508254
O7	O	1.002428	0.076783	-0.267715
O8	O	1.502428	0.576783	0.232285
O9	O	0.995134	-0.076917	0.008272
O10	O	1.495134	0.423083	0.508272
O11	O	0.877452	-0.076898	-0.137256
O12	O	1.377452	0.423102	0.362744
O13	O	1.120100	-0.076917	-0.122168
O14	O	1.620100	0.423083	0.377832
Cu15	Cu	0.998775	-0.090940	-0.129711
Cu16	Cu	1.498775	0.409060	0.370289
Cu17	Cu	0.998787	0.090807	-0.129732
Cu18	Cu	1.498787	0.590807	0.370268
O19	O	1.002418	-0.076899	-0.267697
O20	O	1.502418	0.423101	0.232303
C21	C	0.846216	-0.000055	-0.136641
C22	C	1.346216	0.499945	0.363359
C23	C	0.753126	-0.000048	-0.134771
C24	C	1.253126	0.499952	0.365229
C25	C	0.414876	-0.000067	-0.128056
C26	C	0.914876	0.499933	0.371944
C27	C	0.454570	-0.000417	-0.024413
C28	C	0.954570	0.499583	0.475587
C29	C	0.551399	-0.000064	-0.026284
C30	C	1.051399	0.499936	0.473716
C31	C	0.582686	-0.000058	-0.131387
C32	C	1.082686	0.499942	0.368613
C33	C	0.545423	0.087702	-0.182517
C34	C	1.045423	0.587702	0.317483
C35	C	0.448592	0.087768	-0.179914
C36	C	0.948592	0.587768	0.320086
C37	C	0.448402	-0.086997	-0.182034
C38	C	0.948402	0.413003	0.317966
C39	C	0.545345	-0.088150	-0.182010
C40	C	1.045345	0.411850	0.317990
C41	C	0.677524	-0.000050	-0.133275
C42	C	1.177524	0.499950	0.366725
C43	C	0.320038	-0.000069	-0.126171
C44	C	0.820038	0.499931	0.373829
N45	N	0.998773	-0.218771	-0.129695
N46	N	1.498773	0.281229	0.370305
C47	C	0.998787	-0.592862	-0.129725
C48	C	1.498787	-0.092862	0.370275
C49	C	1.061999	-0.553677	-0.052116
C50	C	1.561999	-0.053677	0.447884
C51	C	1.061798	-0.446590	-0.051830
C52	C	1.561798	0.053410	0.448170
C53	C	0.998781	-0.407271	-0.129710
C54	C	1.498781	0.092729	0.370290
C55	C	0.909810	-0.446157	-0.108109
C56	C	1.409810	0.053843	0.391891
C57	C	0.910178	-0.553278	-0.107560
C58	C	1.410178	-0.053278	0.392440
C59	C	1.023776	-0.553362	-0.229164
C60	C	1.523776	-0.053362	0.270836
C61	C	1.025709	-0.446234	-0.228498
C62	C	1.525709	0.053766	0.271502
C63	C	0.998772	-0.302383	-0.129703
C64	C	1.498772	0.197617	0.370297
C65	C	0.998791	-0.697750	-0.129730
C66	C	1.498791	-0.197750	0.370270
C67	C	1.151347	-0.000077	-0.122801
C68	C	1.651347	0.499923	0.377199
C69	C	1.244437	-0.000078	-0.124671
C70	C	1.744437	0.499922	0.375329
C71	C	0.991950	-0.000076	0.043578
C72	C	1.491950	0.499924	0.543578
C73	C	0.982439	-0.000076	0.148803
C74	C	1.482439	0.499924	0.648803
N75	N	0.998796	0.218638	-0.129740
N76	N	1.498796	0.718638	0.370260
C77	C	1.005612	-0.000056	-0.303020
C78	C	1.505612	0.499944	0.196980
C79	C	1.015123	-0.000049	-0.408246
C80	C	1.515123	0.499951	0.091754
C81	C	0.965051	-0.000061	0.341465
C82	C	1.465051	0.499939	0.841465
C83	C	1.032507	-0.000064	0.399098
C84	C	1.532507	0.499936	0.899098
C85	C	1.022832	-0.000056	0.506301
C86	C	1.522832	0.499944	1.006301
C87	C	0.974725	-0.000070	0.234251
C88	C	1.474725	0.499930	0.734251
H89	H	0.431900	0.062167	0.016817
H90	H	0.931900	0.562167	0.516817
F91	F	0.572905	-0.095073	-0.282192
F92	F	1.072905	0.404927	0.217808
F93	F	1.040384	-0.588875	0.043794
F94	F	1.540384	-0.088875	0.543794
F95	F	0.882082	-0.411109	-0.014399
F96	F	1.382082	0.088891	0.485601
F97	F	0.421026	0.173509	-0.131197
F98	F	0.921026	0.673509	0.368803
H99	H	0.977767	-0.578707	-0.286919
H100	H	1.477767	-0.078707	0.213081
F101	F	0.426306	-0.082679	0.029747
F102	F	0.926306	0.417321	0.529747
F103	F	0.880075	-0.000050	0.382205
F104	F	1.380075	0.499950	0.882205
H105	H	0.576823	-0.062974	0.013907
H106	H	1.076823	0.437026	0.513907
H107	H	1.097524	-0.000007	0.367927
H108	H	1.597524	0.499993	0.867927
H109	H	0.422027	0.091755	-0.256007
H110	H	0.922027	0.591755	0.243993
F111	F	0.846350	-0.587163	-0.178632
F112	F	1.346350	-0.087163	0.321368
H113	H	0.576240	0.062951	0.014164
H114	H	1.076240	0.562951	0.514164
H115	H	0.569870	-0.153074	-0.144685
H116	H	1.069870	0.346926	0.355315
H117	H	1.087665	-0.580375	-0.249925
H118	H	1.587665	-0.080375	0.250075
F119	F	0.571442	0.091990	-0.283439
F120	F	1.071442	0.591990	0.216561
H121	H	0.571149	0.153010	-0.147019
H122	H	1.071149	0.653010	0.352981
F123	F	1.148400	-0.587339	-0.068658
F124	F	1.648400	-0.087339	0.431342
H125	H	0.422348	-0.087586	-0.258449
H126	H	0.922348	0.412414	0.241551
F127	F	0.418251	-0.173943	-0.137734
F128	F	0.918251	0.326057	0.362266
F129	F	1.111303	-0.413009	-0.249930
F130	F	1.611303	0.086991	0.250070
H131	H	1.127695	-0.420298	-0.064692
H132	H	1.627695	0.079702	0.435308
H133	H	1.045066	-0.420976	0.021965
H134	H	1.545066	0.079024	0.521965
F135	F	0.882868	-0.585955	-0.012772
F136	F	1.382868	-0.085955	0.487228
H137	H	0.861331	-0.420689	-0.163131
H138	H	1.361331	0.079311	0.336869
H139	H	0.983220	-0.419467	-0.288956
H140	H	1.483220	0.080533	0.211044
