data_functionalizedCrystal
_audit_creation_method	'MofGen! by Chris Wilmer'
_symmetry_space_group_name_H-M	'P1'
_symmetry_Int_Tables_number	1
_symmetry_cell_setting	triclinic
loop_
_symmetry_equiv_pos_as_xyz
  x,y,z
_cell_length_a	14.853566
_cell_length_b	27.731996
_cell_length_c	13.330367
_cell_angle_alpha	89.989375
_cell_angle_beta	89.995295
_cell_angle_gamma	83.127901
loop_
_atom_site_label
_atom_site_type_symbol
_atom_site_fract_x
_atom_site_fract_y
_atom_site_fract_z
O1	O	1.195321	0.063105	-0.083371
O2	O	0.932736	0.070624	-0.083389
O3	O	1.072208	-0.003496	-0.083358
O4	O	1.055849	0.137225	-0.083402
O5	O	1.072188	-0.003498	0.083489
O6	O	0.932716	0.070622	0.083458
O7	O	1.195301	0.063104	0.083476
Cu8	Cu	1.064007	0.066863	0.098702
Cu9	Cu	1.064031	0.066865	-0.098614
O10	O	1.055829	0.137223	0.083445
C11	C	0.899143	0.070282	0.000033
C12	C	0.799077	0.069262	0.000027
C13	C	0.375974	0.064946	-0.090903
C14	C	0.375974	0.064945	0.091000
C15	C	0.469992	0.065903	0.090997
C16	C	0.517005	0.066384	0.000042
C17	C	0.470001	0.065906	-0.090909
C18	C	0.517002	0.066386	0.181947
C19	C	0.611026	0.067344	0.181947
C20	C	0.658042	0.067822	0.090991
C21	C	0.611032	0.067343	0.000036
C22	C	0.658045	0.067824	-0.090919
C23	C	0.611038	0.067342	-0.181875
C24	C	0.517017	0.066383	-0.181865
C25	C	0.752063	0.068781	0.090981
C26	C	0.752072	0.068784	-0.090925
C27	C	1.071862	-0.021506	0.000069
C28	C	1.070850	-0.075167	0.000079
C29	C	1.064493	-0.407912	-0.090918
C30	C	1.060649	-0.609588	-0.090936
O31	O	1.060122	-0.635660	-0.168285
N32	N	1.060160	-0.634808	0.000011
C33	C	1.060627	-0.609606	0.090970
O34	O	1.060114	-0.635684	0.168326
C35	C	1.064464	-0.407930	0.090986
C36	C	1.064962	-0.382713	0.000033
C37	C	1.064989	-0.382695	-0.181864
C38	C	1.065955	-0.332279	-0.181859
C39	C	1.066424	-0.307080	-0.090908
C40	C	1.065928	-0.332298	0.000038
C41	C	1.064925	-0.382729	0.181944
C42	C	1.065882	-0.332306	0.181940
C43	C	1.066379	-0.307089	0.090987
C44	C	1.067363	-0.256683	0.090995
N45	N	1.067851	-0.231463	0.000048
C46	C	1.067382	-0.256662	-0.090904
C47	C	1.058614	-0.715489	0.090954
C48	C	1.057657	-0.765908	0.090950
C49	C	1.057677	-0.765886	-0.090956
C50	C	1.058641	-0.715467	-0.090951
C51	C	1.059103	-0.690269	0.000007
C52	C	1.069411	-0.150785	-0.090885
C53	C	1.070381	-0.100365	-0.090872
C54	C	1.070356	-0.100391	0.091034
C55	C	1.069391	-0.150807	0.091021
C56	C	1.068916	-0.176002	0.000053
O57	O	1.067880	-0.230579	0.168303
O58	O	1.067875	-0.230573	-0.168248
C59	C	1.063527	-0.458328	-0.090924
C60	C	1.063030	-0.483545	0.000022
C61	C	1.063500	-0.458346	0.090974
C62	C	1.062073	-0.533964	0.000018
C63	C	1.061603	-0.559162	-0.090933
C64	C	1.062091	-0.533942	-0.181881
C65	C	1.063057	-0.483526	-0.181875
C66	C	1.063011	-0.483566	0.181921
C67	C	1.062046	-0.533982	0.181908
C68	C	1.061577	-0.559181	0.090957
C69	C	1.228894	0.063445	0.000052
C70	C	1.328961	0.064465	0.000052
C71	C	1.056175	0.155233	0.000016
C72	C	1.057187	0.208894	-0.000001
N73	N	1.063997	0.066861	0.237483
N74	N	1.064048	0.066862	-0.237396
C75	C	1.002270	0.099672	0.710092
C76	C	1.125816	0.034054	0.710088
C77	C	1.125805	0.034052	0.605070
C78	C	1.064027	0.066861	0.552558
C79	C	1.002260	0.099672	0.605064
C80	C	1.187578	0.001245	0.552555
C81	C	1.187571	0.001243	0.447530
C82	C	1.125788	0.034050	0.395017
C83	C	1.064017	0.066862	0.447530
C84	C	1.002239	0.099671	0.395018
C85	C	0.940463	0.132481	0.447529
C86	C	0.940477	0.132480	0.552550
C87	C	1.125775	0.034052	0.289995
C88	C	1.002229	0.099672	0.289990
H89	H	0.337697	0.064552	-0.164957
H90	H	0.649292	0.067736	0.256009
H91	H	1.063462	-0.462999	-0.255939
C92	C	0.742613	0.068685	0.270784
C93	C	0.803734	0.069308	0.190950
H94	H	0.774516	0.069006	0.332502
H95	H	0.698671	0.096476	0.266993
H96	H	0.713214	0.040145	0.267006
H97	H	0.833129	0.097850	0.194724
H98	H	0.847693	0.041514	0.194742
C99	C	0.526437	0.066486	0.361750
C100	C	0.465326	0.065858	0.281920
H101	H	0.494529	0.066162	0.423471
H102	H	0.570387	0.038698	0.357978
H103	H	0.555829	0.095029	0.357949
H104	H	0.435939	0.037313	0.285716
H105	H	0.421360	0.093649	0.285694
C106	C	0.818340	0.197346	0.458061
C107	C	0.872560	0.168547	0.389801
H108	H	0.776426	0.219613	0.422418
H109	H	0.786201	0.177194	0.499030
H110	H	0.855622	0.214769	0.499018
H111	H	0.835279	0.151121	0.348849
H112	H	0.904701	0.188702	0.348815
H113	H	0.951918	0.126387	0.247241
H114	H	0.890182	0.159193	0.595311
H115	H	0.337689	0.064557	0.165051
C116	C	1.060616	-0.611224	-0.262640
C117	C	1.061570	-0.561647	-0.281857
H118	H	1.060284	-0.628328	-0.324358
H119	H	1.113044	-0.623140	-0.225275
H120	H	1.007860	-0.615827	-0.225266
H121	H	1.114330	-0.557043	-0.319225
H122	H	1.009137	-0.549727	-0.319237
H123	H	1.058995	-0.694977	0.165027
H124	H	1.070788	-0.079836	-0.164940
C125	C	0.845800	0.127897	0.742441
C126	C	0.934366	0.135733	0.767810
H127	H	0.803880	0.150158	0.778081
H128	H	0.836962	0.132596	0.672388
H129	H	0.836491	0.095624	0.759668
H130	H	0.943677	0.168005	0.750576
H131	H	0.943207	0.131038	0.837879
H132	H	1.176118	0.007343	0.752846
H133	H	1.069019	-0.171293	-0.164960
C134	C	1.065863	-0.337337	-0.361660
C135	C	1.066486	-0.304564	-0.281839
H136	H	1.066182	-0.320227	-0.423386
H137	H	1.118079	-0.360652	-0.357874
H138	H	1.012895	-0.353351	-0.357861
H139	H	1.119458	-0.288552	-0.285634
H140	H	1.014264	-0.281239	-0.285627
C141	C	1.064971	-0.377662	0.361743
C142	C	1.064367	-0.410437	0.281925
H143	H	1.064619	-0.394768	0.423470
H144	H	1.117938	-0.361654	0.357968
H145	H	1.012754	-0.354340	0.357930
H146	H	1.116588	-0.433757	0.285733
H147	H	1.011395	-0.426453	0.285702
C148	C	0.986401	-0.433992	-0.287438
C149	C	1.064476	-0.410387	-0.281851
H150	H	0.986089	-0.451083	-0.349174
H151	H	0.985976	-0.456231	-0.233292
H152	H	0.934187	-0.410667	-0.283655
H153	H	1.116691	-0.433712	-0.285627
H154	H	1.064909	-0.388146	-0.336012
H155	H	1.059044	-0.694938	-0.165013
H156	H	1.237880	-0.025465	0.595314
H157	H	1.237871	-0.025473	0.404783
H158	H	1.061648	-0.554510	0.255979
C159	C	1.247900	-0.030806	0.300545
C160	C	1.193671	-0.002010	0.232275
H161	H	1.289813	-0.053072	0.264910
H162	H	1.280038	-0.010651	0.341487
H163	H	1.210623	-0.048230	0.341528
H164	H	1.230947	0.015417	0.191297
H165	H	1.161530	-0.022167	0.191316
H166	H	1.057295	-0.786411	-0.165012
C167	C	1.057726	-0.760852	0.270754
C168	C	1.057118	-0.793623	0.190929
H169	H	1.057384	-0.777961	0.332478
H170	H	1.110691	-0.744841	0.266975
H171	H	1.005506	-0.737531	0.266953
H172	H	1.109341	-0.816942	0.194726
H173	H	1.004148	-0.809642	0.194710
H174	H	0.790344	0.069174	-0.164992
H175	H	0.649327	0.067737	-0.255930
C176	C	0.989411	-0.270233	0.287468
C177	C	1.066388	-0.304607	0.281924
H178	H	0.989723	-0.253135	0.349196
H179	H	0.989854	-0.248001	0.233311
H180	H	0.936451	-0.286253	0.283675
H181	H	1.119348	-0.288586	0.285710
H182	H	1.065954	-0.326842	0.336096
C183	C	1.069467	-0.145761	0.270827
C184	C	1.068849	-0.178529	0.190997
H185	H	1.069120	-0.162873	0.332548
H186	H	1.122437	-0.129755	0.267052
H187	H	1.017253	-0.122437	0.267030
H188	H	1.121067	-0.201851	0.194790
H189	H	1.015873	-0.194542	0.194774
C190	C	0.993879	-0.038310	0.196519
C191	C	1.070860	-0.072681	0.191000
H192	H	0.994182	-0.021203	0.258236
H193	H	0.994323	-0.016085	0.142349
H194	H	0.940922	-0.054333	0.192730
H195	H	1.123817	-0.056658	0.194781
H196	H	1.070424	-0.094909	0.245185
H197	H	1.063395	-0.463055	0.255986
H198	H	0.478735	0.065990	-0.255916
