data_functionalizedCrystal
_audit_creation_method	'MofGen! by Chris Wilmer'
_symmetry_space_group_name_H-M	'P1'
_symmetry_Int_Tables_number	1
_symmetry_cell_setting	triclinic
loop_
_symmetry_equiv_pos_as_xyz
  x,y,z
_cell_length_a	14.421503
_cell_length_b	14.853567
_cell_length_c	14.853576
_cell_angle_alpha	96.363293
_cell_angle_beta	89.994644
_cell_angle_gamma	89.995329
loop_
_atom_site_label
_atom_site_type_symbol
_atom_site_fract_x
_atom_site_fract_y
_atom_site_fract_z
O1	O	0.077045	-1.196374	0.117691
O2	O	0.077061	-0.933915	0.131713
O3	O	0.077049	-1.072151	-0.006527
O4	O	0.077057	-1.058138	0.255931
O5	O	-0.077174	-1.072128	-0.006507
O6	O	-0.077162	-0.933892	0.131733
O7	O	-0.077178	-1.196351	0.117712
Cu8	Cu	-0.091252	-1.065119	0.124724
Cu9	Cu	0.091135	-1.065146	0.124700
O10	O	-0.077166	-1.058115	0.255952
C11	C	-0.000049	-0.900315	0.131088
C12	C	-0.000043	-0.800231	0.129184
N13	N	-0.219533	-1.065107	0.124741
C14	C	-0.000061	-1.071503	-0.040106
C15	C	-0.000058	-1.069596	-0.140189
C16	C	-0.469181	-1.001175	0.188634
C17	C	-0.530988	-1.082661	0.206234
C18	C	-0.408695	-1.065129	0.124719
C19	C	-0.530982	-0.983664	0.107140
C20	C	-0.591416	-1.065143	0.124701
C21	C	-0.469141	-1.146655	0.142360
C22	C	-0.469129	-1.047606	0.043231
C23	C	-0.530908	-1.129150	0.060796
C24	C	-0.303433	-1.065120	0.124733
C25	C	-0.696675	-1.065161	0.124687
N26	N	0.219416	-1.065166	0.124676
C27	C	-0.000066	-1.229951	0.118337
C28	C	-0.000066	-1.330035	0.120241
C29	C	-0.000066	-0.387694	0.039018
C30	C	-0.000060	-0.366418	0.203251
C31	C	-0.000057	-0.460452	0.205041
C32	C	-0.000057	-0.518111	0.123818
C33	C	-0.000060	-0.481737	0.040806
C34	C	-0.000045	-0.496834	0.288052
C35	C	-0.000041	-0.590873	0.289845
C36	C	-0.000047	-0.648534	0.208622
C37	C	-0.000051	-0.612154	0.125606
C38	C	-0.000052	-0.669814	0.044384
C39	C	-0.000062	-0.633436	-0.038633
C40	C	-0.000067	-0.539398	-0.040417
C41	C	-0.000043	-0.742572	0.210406
C42	C	-0.000046	-0.763856	0.046171
C43	C	0.084013	-1.068711	-0.187215
C44	C	-0.084127	-1.068697	-0.187206
C45	C	-0.084127	-1.066910	-0.281240
C46	C	-0.000056	-1.066025	-0.328266
C47	C	0.084016	-1.066927	-0.281258
C48	C	-0.168197	-1.066017	-0.328256
C49	C	-0.168200	-1.064231	-0.422296
C50	C	-0.084128	-1.063340	-0.469323
C51	C	-0.000053	-1.064241	-0.422309
C52	C	0.084018	-1.063356	-0.469336
C53	C	0.168094	-1.064250	-0.422322
C54	C	0.168088	-1.066036	-0.328285
C55	C	-0.084122	-1.061554	-0.563361
C56	C	0.084021	-1.061572	-0.563379
C57	C	-0.000053	-1.058763	0.289530
C58	C	-0.000051	-1.060670	0.389613
H59	H	-0.442079	-0.947147	0.242729
C60	C	-0.000046	-0.433404	0.377390
N61	N	-0.000050	-0.385624	0.444682
C62	C	-0.567706	-1.102696	0.299320
N63	N	-0.595362	-1.117779	0.369433
H64	H	-0.152575	-1.060829	-0.601635
H65	H	-0.000056	-0.680394	-0.104764
C66	C	0.260563	-1.067036	-0.276566
N67	N	0.330215	-1.067797	-0.237609
H68	H	-0.000098	-0.509770	-0.108005
H69	H	-0.236660	-1.063502	-0.460566
H70	H	-0.442091	-1.215569	0.157303
C71	C	-0.000046	-0.827275	-0.043182
N72	N	-0.000046	-0.875042	-0.110483
C73	C	-0.176600	-1.069666	-0.135474
N74	N	-0.246255	-1.070392	-0.096504
C75	C	-0.567308	-1.202302	-0.012231
N76	N	-0.594731	-1.257403	-0.067228
C77	C	-0.260669	-1.066984	-0.276521
N78	N	-0.330322	-1.067707	-0.237549
H79	H	0.152466	-1.069436	-0.148932
C80	C	-0.000078	-0.347678	-0.052296
N81	N	-0.000085	-0.317537	-0.121074
H82	H	-0.441936	-1.032746	-0.025652
C83	C	0.176508	-1.060616	-0.615102
N84	N	0.246170	-1.059904	-0.654061
C85	C	0.260570	-1.063278	-0.474063
N86	N	0.330221	-1.062545	-0.513039
H87	H	-0.000052	-0.319467	0.269378
C88	C	-0.567675	-0.890585	0.087060
N89	N	-0.595308	-0.820475	0.071941
C90	C	-0.000029	-0.782584	0.301718
N91	N	-0.000022	-0.812719	0.370500
C92	C	-0.000043	-0.630880	0.381164
N93	N	-0.000051	-0.661014	0.449946
