data_functionalizedCrystal
_audit_creation_method	'MofGen! by Chris Wilmer'
_symmetry_space_group_name_H-M	'P1'
_symmetry_Int_Tables_number	1
_symmetry_cell_setting	triclinic
loop_
_symmetry_equiv_pos_as_xyz
  x,y,z
_cell_length_a	12.827893
_cell_length_b	16.120531
_cell_length_c	12.827885
_cell_angle_alpha	92.860433
_cell_angle_beta	90.019082
_cell_angle_gamma	87.067638
loop_
_atom_site_label
_atom_site_type_symbol
_atom_site_fract_x
_atom_site_fract_y
_atom_site_fract_z
Zn1	Zn	1.576455	0.331862	0.611864
Zn2	Zn	1.567435	0.471297	0.445957
Zn3	Zn	1.401694	0.331903	0.437141
Zn4	Zn	1.392772	0.471236	0.620654
O5	O	1.484589	0.401575	0.528904
O6	O	1.721494	0.350367	0.589868
O7	O	1.545408	0.452849	0.298554
O8	O	1.432385	0.215232	0.452951
O9	O	1.714867	0.452810	0.467976
O10	O	1.560781	0.215202	0.581319
O11	O	1.423639	0.350437	0.292077
O12	O	1.254275	0.350377	0.461473
O13	O	1.417179	0.452705	0.765721
O14	O	1.247720	0.452744	0.596299
O15	O	1.552130	0.350307	0.759264
O16	O	1.536757	0.587955	0.476498
O17	O	1.408433	0.587909	0.604847
C18	C	1.213080	0.401559	0.528884
C19	C	1.096926	0.401573	0.528902
C20	C	1.048361	0.350851	0.462294
C21	C	0.928310	0.350864	0.462310
C22	C	1.470677	0.618182	0.542606
C23	C	1.464820	0.710847	0.548503
C24	C	1.454135	0.880508	0.559290
C25	C	1.515082	0.921800	0.498459
C26	C	1.509137	1.016206	0.504461
C27	C	1.460079	0.786095	0.553289
C28	C	1.757158	0.401591	0.528925
C29	C	1.873311	0.401597	0.528934
C30	C	1.484665	0.401495	0.801469
C31	C	1.484698	0.401460	0.917620
C32	C	1.498547	1.184122	0.515152
C33	C	1.504400	1.091456	0.509243
C34	C	1.484577	0.401594	0.257395
C35	C	1.484762	0.401393	0.141230
C36	C	1.551483	0.350781	0.966209
C37	C	1.551518	0.350745	1.086257
H38	H	1.095661	0.307420	0.405253
H39	H	1.571726	0.886251	0.441871
H40	H	1.427585	0.444787	1.099440
O41	O	1.416412	0.453221	0.973851
C42	C	1.277059	0.559031	0.969248
C43	C	1.354321	0.500440	0.905443
H44	H	1.226853	0.597236	0.913969
H45	H	1.224870	0.520740	1.017897
H46	H	1.322315	0.602537	1.023130
H47	H	1.309150	0.456923	0.851504
H48	H	1.406510	0.538783	0.856863
H49	H	0.886534	0.307436	0.405289
H50	H	1.608699	0.307359	1.128055
H51	H	1.397494	0.916056	0.615872
H52	H	0.915081	0.445020	0.585966
H53	H	1.049626	0.445009	0.585936
O54	O	1.619633	0.299130	0.909662
C55	C	1.681668	0.252015	0.738452
C56	C	1.604445	0.310566	0.802361
H57	H	1.669400	0.261228	0.651686
H58	H	1.765037	0.266644	0.760703
H59	H	1.667688	0.184775	0.755664
H60	H	1.618330	0.377826	0.785183
H61	H	1.521102	0.295865	0.780100
