data_functionalizedCrystal
_audit_creation_method	'MofGen! by Chris Wilmer'
_symmetry_space_group_name_H-M	'P1'
_symmetry_Int_Tables_number	1
_symmetry_cell_setting	triclinic
loop_
_symmetry_equiv_pos_as_xyz
  x,y,z
_cell_length_a	9.616153
_cell_length_b	10.540539
_cell_length_c	10.540539
_cell_angle_alpha	95.474508
_cell_angle_beta	89.999906
_cell_angle_gamma	90.003307
loop_
_atom_site_label
_atom_site_type_symbol
_atom_site_fract_x
_atom_site_fract_y
_atom_site_fract_z
O1	O	0.115524	1.685892	-0.178895
O2	O	0.115551	1.316479	-0.195751
O3	O	0.115535	1.509614	-0.002617
O4	O	0.115540	1.492758	-0.372030
O5	O	-0.115756	1.509587	-0.002621
O6	O	-0.115740	1.316452	-0.195755
O7	O	-0.115767	1.685866	-0.178899
Zn8	Zn	-0.152476	1.501155	-0.187328
Zn9	Zn	0.152260	1.501190	-0.187323
O10	O	-0.115752	1.492731	-0.372034
C11	C	-0.000091	1.269163	-0.194489
C12	C	-0.000080	1.128215	-0.190707
N13	N	-0.360451	1.501140	-0.187331
C14	C	-0.000108	1.508336	0.044684
C15	C	-0.000100	1.504554	0.185632
C16	C	-0.580812	1.397510	-0.290298
C17	C	-0.419645	1.397739	-0.290684
C18	C	-0.418910	1.633864	-0.217464
C19	C	-0.580128	1.633299	-0.218193
C20	C	-0.580362	1.473368	-0.053892
C21	C	-0.419135	1.470321	-0.054757
N22	N	0.360235	1.501215	-0.187310
C23	C	-0.000122	1.733182	-0.180161
C24	C	-0.000124	1.874130	-0.183943
C25	C	-0.000609	2.057557	-0.328861
C26	C	-0.000111	1.910939	-0.325027
C27	C	0.131962	1.935777	-0.116045
C28	C	0.132096	2.082321	-0.120860
C29	C	-0.130926	2.082861	-0.117996
C30	C	-0.132695	1.935879	-0.116697
C31	C	-0.000105	1.494008	-0.419335
C32	C	-0.000104	1.497790	-0.560283
C33	C	0.000430	1.359637	0.369059
C34	C	-0.000091	1.363471	0.222441
C35	C	-0.132184	1.572435	0.247288
C36	C	-0.132295	1.567620	0.393832
C37	C	0.130727	1.570519	0.394355
C38	C	0.132473	1.571819	0.247373
H39	H	-0.380123	1.299122	-0.272553
H40	H	0.095150	1.303917	0.397661
H41	H	0.138113	2.130289	-0.019395
H42	H	0.230831	2.110513	-0.171040
H43	H	-0.094791	1.868342	-0.378459
F44	F	-0.123909	2.095593	-0.401996
F45	F	-0.369212	1.421093	-0.420075
F46	F	-0.143136	1.904218	0.017749
F47	F	-0.132095	2.144601	0.015193
F48	F	-0.633723	1.420613	-0.418950
F49	F	-0.368796	1.737197	-0.122095
F50	F	-0.261335	1.502014	0.430692
F51	F	-0.260419	1.882384	-0.181545
F52	F	-0.140151	1.700237	0.456534
H53	H	-0.617717	1.657654	-0.315531
H54	H	-0.094924	1.309662	0.180683
F55	F	-0.138618	1.707858	0.218072
F56	F	-0.631102	1.737182	-0.123860
H57	H	-0.378846	1.540848	0.025564
F58	F	-0.366120	1.666411	-0.343253
H59	H	0.094592	1.310058	0.179839
F60	F	-0.631504	1.268200	-0.266950
H61	H	0.136865	1.913423	-0.012437
F62	F	0.122508	2.097023	-0.401409
F63	F	-0.633559	1.349518	-0.016425
F64	F	0.123847	1.856345	-0.395335
H65	H	-0.230469	1.525259	0.204686
H66	H	0.230246	1.893134	-0.163175
F67	F	-0.369198	1.342700	-0.024900
H68	H	-0.093752	1.304122	0.399265
F69	F	-0.630190	1.572196	0.046302
H70	H	-0.231027	2.114424	-0.163658
H71	H	0.230837	1.524869	0.425910
H72	H	0.230185	1.522152	0.206516
H73	H	0.140441	1.674680	0.223152
F74	F	0.131881	1.703714	0.456083
