data_functionalizedCrystal
_audit_creation_method	'MofGen! by Chris Wilmer'
_symmetry_space_group_name_H-M	'P1'
_symmetry_Int_Tables_number	1
_symmetry_cell_setting	triclinic
loop_
_symmetry_equiv_pos_as_xyz
  x,y,z
_cell_length_a	16.120530
_cell_length_b	16.120256
_cell_length_c	12.827892
_cell_angle_alpha	87.122182
_cell_angle_beta	92.888896
_cell_angle_gamma	90.128265
loop_
_atom_site_label
_atom_site_type_symbol
_atom_site_fract_x
_atom_site_fract_y
_atom_site_fract_z
Zn1	Zn	1.247498	-0.534592	0.529459
Zn2	Zn	1.580832	-0.201259	0.862792
Zn3	Zn	1.914165	0.132074	1.196125
Zn4	Zn	1.254468	-0.395542	0.695814
Zn5	Zn	1.587801	-0.062209	1.029147
Zn6	Zn	1.921134	0.271124	1.362480
Zn7	Zn	1.115487	-0.388509	0.511794
Zn8	Zn	1.448820	-0.055176	0.845127
Zn9	Zn	1.782154	0.278158	1.178461
Zn10	Zn	1.108424	-0.527512	0.694856
Zn11	Zn	1.441757	-0.194179	1.028190
Zn12	Zn	1.775091	0.139155	1.361523
O13	O	1.181469	-0.461539	0.607981
O14	O	1.514803	-0.128206	0.941314
O15	O	1.848136	0.205128	1.274647
O16	O	1.364790	-0.522054	0.559319
O17	O	1.698123	-0.188720	0.892653
O18	O	2.031457	0.144613	1.225986
O19	O	1.241904	-0.278243	0.664411
O20	O	1.575237	0.055090	0.997744
O21	O	1.908571	0.388424	1.331078
O22	O	1.133038	-0.407907	0.367905
O23	O	1.466371	-0.074574	0.701238
O24	O	1.799704	0.258760	1.034572
O25	O	1.369910	-0.419894	0.681540
O26	O	1.703244	-0.086561	1.014873
O27	O	2.036577	0.246773	1.348206
O28	O	1.230026	-0.515234	0.380883
O29	O	1.563359	-0.181900	0.714216
O30	O	1.896693	0.151433	1.047550
O31	O	1.139796	-0.273076	0.529213
O32	O	1.473129	0.060258	0.862546
O33	O	1.806462	0.393591	1.195879
O34	O	0.998183	-0.401041	0.528284
O35	O	1.331516	-0.067708	0.861618
O36	O	1.664850	0.265625	1.194951
O37	O	1.121000	-0.644818	0.679908
O38	O	1.454333	-0.311484	1.013241
O39	O	1.787667	0.021849	1.346575
O40	O	0.992994	-0.503166	0.662779
O41	O	1.326327	-0.169833	0.996113
O42	O	1.659660	0.163500	1.329446
O43	O	1.223177	-0.650019	0.558391
O44	O	1.556511	-0.316686	0.891724
O45	O	1.889844	0.016647	1.225058
O46	O	1.235055	-0.413029	0.841919
O47	O	1.568389	-0.079695	1.175252
O48	O	1.901722	0.253638	1.508586
O49	O	1.127758	-0.509986	0.841216
O50	O	1.461091	-0.176653	1.174549
O51	O	1.794424	0.156680	1.507882
C52	C	0.965416	-0.450573	0.593512
C53	C	1.298749	-0.117240	0.926845
C54	C	1.632082	0.216094	1.260179
C55	C	0.872986	-0.445901	0.587348
C56	C	1.206319	-0.112568	0.920682
C57	C	1.539653	0.220765	1.254015
C58	C	0.703755	-0.437379	0.576072
C59	C	1.037088	-0.104046	0.909405
C60	C	1.370422	0.229287	1.242738
C61	C	0.660021	-0.485759	0.639970
C62	C	0.993354	-0.152426	0.973304
C63	C	1.326688	0.180907	1.306637
C64	C	0.565855	-0.481018	0.633696
C65	C	0.899188	-0.147684	0.967029
C66	C	1.232522	0.185649	1.300362
C67	C	0.797929	-0.442120	0.582345
C68	C	1.131263	-0.108787	0.915678
C69	C	1.464596	0.224547	1.249011
C70	C	1.170523	-0.678435	0.621013
C71	C	1.503857	-0.345101	0.954346
C72	C	1.837190	-0.011768	1.287680
C73	C	1.165859	-0.770863	0.626567
C74	C	1.499192	-0.437529	0.959900
C75	C	1.832526	-0.104196	1.293233
C76	C	1.205792	-0.983844	0.578992
C77	C	1.539126	-0.650511	0.912325
C78	C	1.872459	-0.317178	1.245659
C79	C	1.157315	-0.940083	0.636661
C80	C	1.490648	-0.606750	0.969995
C81	C	1.823982	-0.273417	1.303328
C82	C	1.162070	-0.845920	0.631043
C83	C	1.495404	-0.512587	0.964376
C84	C	1.828737	-0.179253	1.297710
C85	C	1.201038	-1.078016	0.584609
C86	C	1.534372	-0.744683	0.917942
C87	C	1.867705	-0.411349	1.251276
C88	C	1.398367	-0.472548	0.622507
C89	C	1.731700	-0.139215	0.955840
C90	C	2.065033	0.194118	1.289173
C91	C	1.490795	-0.477240	0.628697
C92	C	1.824129	-0.143906	0.962030
C93	C	2.157462	0.189427	1.295363
C94	C	1.181418	-0.461522	0.879486
C95	C	1.514751	-0.128188	1.212820
C96	C	1.848085	0.205145	1.546153
C97	C	1.181471	-0.461546	0.995644
C98	C	1.514804	-0.128213	1.328978
C99	C	1.848137	0.205121	1.662311
C100	C	1.192420	-0.245489	0.594927
C101	C	1.525754	0.087844	0.928260
C102	C	1.859087	0.421177	1.261593
C103	C	1.197246	-0.153070	0.589089
C104	C	1.530579	0.180263	0.922423
C105	C	1.863913	0.513597	1.255756
C106	C	1.181542	-0.461576	0.335417
C107	C	1.514876	-0.128242	0.668751
C108	C	1.848209	0.205091	1.002084
C109	C	1.181574	-0.461591	0.219267
C110	C	1.514907	-0.128258	0.552601
C111	C	1.848240	0.205075	0.885934
C112	C	1.234622	-0.413627	1.047750
C113	C	1.567955	-0.080294	1.381083
C114	C	1.901289	0.253039	1.714416
C115	C	1.234678	-0.413651	1.167805
C116	C	1.568011	-0.080318	1.501138
C117	C	1.901345	0.253015	1.834472
H118	H	0.670478	-0.392402	0.516660
H119	H	1.003812	-0.059068	0.849993
H120	H	1.337145	0.274265	1.183326
H121	H	1.250864	-0.950593	0.525405
H122	H	1.584197	-0.617259	0.858739
H123	H	1.917530	-0.283926	1.192072
H124	H	1.112236	-0.973337	0.690247
H125	H	1.445569	-0.640003	1.023580
H126	H	1.778903	-0.306670	1.356913
H127	H	1.280090	-0.372587	1.003482
H128	H	1.613423	-0.039254	1.336815
H129	H	1.946756	0.294079	1.670148
F130	F	1.294155	-0.360022	1.226369
F131	F	1.627488	-0.026689	1.559702
F132	F	1.960821	0.306644	1.893035
F133	F	1.122048	-0.515198	1.053505
F134	F	1.455381	-0.181865	1.386838
F135	F	1.788715	0.151469	1.720171
F136	F	0.703516	-0.544558	0.717628
F137	F	1.036849	-0.211224	1.050962
F138	F	1.370183	0.122109	1.384295
F139	F	1.122087	-0.515213	1.160710
F140	F	1.455420	-0.181880	1.494043
F141	F	1.788753	0.151453	1.827376
