data_functionalizedCrystal
_audit_creation_method	'MofGen! by Chris Wilmer'
_symmetry_space_group_name_H-M	'P1'
_symmetry_Int_Tables_number	1
_symmetry_cell_setting	triclinic
loop_
_symmetry_equiv_pos_as_xyz
  x,y,z
_cell_length_a	14.971486
_cell_length_b	16.109301
_cell_length_c	14.048226
_cell_angle_alpha	89.992144
_cell_angle_beta	89.998499
_cell_angle_gamma	83.537805
loop_
_atom_site_label
_atom_site_type_symbol
_atom_site_fract_x
_atom_site_fract_y
_atom_site_fract_z
O1	O	1.186791	0.108348	-0.079054
O2	O	0.926372	0.121323	-0.079081
O3	O	1.063735	-0.006187	-0.079057
O4	O	1.049427	0.235857	-0.079078
O5	O	1.063719	-0.006194	0.079264
O6	O	0.926355	0.121315	0.079241
O7	O	1.186774	0.108340	0.079267
Zn8	Zn	1.056562	0.114826	0.104391
Zn9	Zn	1.056584	0.114836	-0.104204
O10	O	1.049411	0.235850	0.079244
C11	C	0.893040	0.120739	0.000077
C12	C	0.793745	0.119000	0.000067
C13	C	1.063147	-0.037166	0.000104
C14	C	1.061410	-0.129464	0.000105
C15	C	0.736412	0.193908	0.000062
C16	C	0.643115	0.192269	0.000076
C17	C	0.607153	0.115721	0.000089
C18	C	0.664494	0.040807	0.000097
C19	C	0.757789	0.042447	0.000089
C20	C	0.470036	0.037395	0.000110
C21	C	0.376734	0.035755	0.000116
C22	C	0.355362	0.187217	0.000097
C23	C	0.448657	0.188857	0.000090
C24	C	0.505991	0.113942	0.000096
C25	C	1.138878	-0.351640	0.000098
C26	C	1.137239	-0.438362	0.000090
C27	C	0.974262	-0.418691	0.000077
C28	C	0.975902	-0.331970	0.000078
C29	C	1.058213	-0.298447	0.000094
C30	C	1.054933	-0.471890	0.000085
C31	C	1.053155	-0.565918	0.000076
C32	C	1.059992	-0.204413	0.000101
C33	C	1.220106	0.108924	0.000108
C34	C	1.319401	0.110663	0.000111
C35	C	1.049999	0.266829	0.000080
C36	C	1.051736	0.359127	0.000073
N37	N	1.056554	0.114819	0.246752
N38	N	1.056599	0.114837	-0.246565
C39	C	1.117397	0.058381	0.296580
C40	C	1.117403	0.058381	0.396238
C41	C	1.056570	0.114823	0.446065
C42	C	0.995719	0.171263	0.396230
C43	C	0.995710	0.171259	0.296574
C44	C	0.995745	0.171269	0.603944
C45	C	0.995756	0.171275	0.703607
C46	C	1.117439	0.058391	0.703608
C47	C	1.117429	0.058387	0.603952
C48	C	1.056580	0.114829	0.554123
H49	H	0.765684	0.256242	0.000051
C50	C	0.883724	-0.455575	0.000079
N51	N	0.815530	-0.483355	0.000088
C52	C	0.928830	0.233359	0.758415
N53	N	0.878419	0.280121	0.799696
C54	C	1.229422	-0.314768	0.000104
N55	N	1.297623	-0.286998	0.000105
C56	C	0.580051	0.274675	0.000088
N57	N	0.532552	0.336746	0.000103
C58	C	0.887160	-0.273454	0.000069
N59	N	0.820322	-0.229380	0.000058
H60	H	0.804470	-0.018551	0.000093
H61	H	0.635206	-0.021520	0.000121
H62	H	1.202924	-0.481669	0.000092
H63	H	0.946164	0.217216	0.256004
H64	H	0.516716	-0.023609	0.000117
C65	C	0.928793	0.233343	0.451043
N66	N	0.878382	0.280102	0.492328
H67	H	1.166939	0.012423	0.256017
H68	H	0.477934	0.251189	0.000070
C69	C	1.184315	-0.003725	0.451044
N70	N	1.234707	-0.050514	0.492324
C71	C	1.184370	-0.003699	0.758421
N72	N	1.234783	-0.050462	0.799711
H73	H	0.308675	0.248215	0.000097
H74	H	0.347458	-0.026577	0.000128
H75	H	1.166969	0.012432	0.563383
H76	H	0.946192	0.217228	0.563377
