data_functionalizedCrystal
_audit_creation_method	'MofGen! by Chris Wilmer'
_symmetry_space_group_name_H-M	'P1'
_symmetry_Int_Tables_number	1
_symmetry_cell_setting	triclinic
loop_
_symmetry_equiv_pos_as_xyz
  x,y,z
_cell_length_a	29.839134
_cell_length_b	29.839131
_cell_length_c	29.839125
_cell_angle_alpha	90.013540
_cell_angle_beta	90.024313
_cell_angle_gamma	90.034448
loop_
_atom_site_label
_atom_site_type_symbol
_atom_site_fract_x
_atom_site_fract_y
_atom_site_fract_z
Zn1	Zn	0.686719	-0.179003	0.254166
Zn2	Zn	1.020052	0.154330	0.587499
Zn3	Zn	1.353385	0.487663	0.920833
Zn4	Zn	0.686651	-0.254115	0.179041
Zn5	Zn	1.019984	0.079218	0.512375
Zn6	Zn	1.353317	0.412551	0.845708
Zn7	Zn	0.611602	-0.178991	0.179033
Zn8	Zn	0.944935	0.154343	0.512366
Zn9	Zn	1.278268	0.487676	0.845699
Zn10	Zn	0.611549	-0.254097	0.254127
Zn11	Zn	0.944882	0.079236	0.587460
Zn12	Zn	1.278216	0.412569	0.920793
O13	O	0.649130	-0.216552	0.216592
O14	O	0.982463	0.116782	0.549925
O15	O	1.315797	0.450115	0.883258
O16	O	0.749577	-0.188980	0.244221
O17	O	1.082910	0.144354	0.577554
O18	O	1.416243	0.477687	0.910887
O19	O	0.676689	-0.244152	0.116173
O20	O	1.010022	0.089181	0.449506
O21	O	1.343355	0.422515	0.782840
O22	O	0.621617	-0.116125	0.189012
O23	O	0.954950	0.217208	0.522345
O24	O	1.288283	0.550542	0.855679
O25	O	0.749527	-0.244164	0.189027
O26	O	1.082860	0.089169	0.522360
O27	O	1.416193	0.422502	0.855694
O28	O	0.676805	-0.116134	0.244212
O29	O	1.010138	0.217199	0.577545
O30	O	1.343471	0.550532	0.910879
O31	O	0.621550	-0.188958	0.116167
O32	O	0.954884	0.144375	0.449500
O33	O	1.288217	0.477708	0.782833
O34	O	0.548727	-0.188941	0.188974
O35	O	0.882061	0.144392	0.522307
O36	O	1.215394	0.477726	0.855640
O37	O	0.621527	-0.244134	0.316999
O38	O	0.954860	0.089199	0.650332
O39	O	1.288194	0.422533	0.983666
O40	O	0.548689	-0.244122	0.244145
O41	O	0.882022	0.089212	0.577479
O42	O	1.215355	0.422545	0.910812
O43	O	0.676754	-0.188962	0.317028
O44	O	1.010087	0.144371	0.650361
O45	O	1.343420	0.477704	0.983695
O46	O	0.676638	-0.316980	0.188989
O47	O	1.009971	0.016353	0.522322
O48	O	1.343304	0.349687	0.855656
O49	O	0.621461	-0.316967	0.244154
O50	O	0.954794	0.016366	0.577487
O51	O	1.288127	0.349700	0.910820
C52	C	0.532407	-0.216528	0.216555
C53	C	0.865741	0.116805	0.549888
C54	C	1.199074	0.450138	0.883221
C55	C	0.482473	-0.216529	0.216549
C56	C	0.815806	0.116804	0.549883
C57	C	1.149140	0.450138	0.883216
C58	C	0.649048	-0.333274	0.216578
C59	C	0.982382	0.000059	0.549911
C60	C	1.315715	0.333392	0.883245
C61	C	0.649054	-0.383209	0.216587
C62	C	0.982388	-0.049875	0.549920
C63	C	1.315721	0.283458	0.883254
C64	C	0.125893	-0.187777	0.187923
C65	C	0.459227	0.145557	0.521256
C66	C	0.792560	0.478890	0.854589
C67	C	0.313566	-0.187764	0.187895
C68	C	0.646900	0.145569	0.521229
C69	C	0.980233	0.478903	0.854562
O70	O	0.337838	-0.163279	0.163514
O71	O	0.671171	0.170054	0.496847
O72	O	1.004504	0.503387	0.830181
N73	N	0.337028	-0.216536	0.216572
N74	N	0.670361	0.116797	0.549905
N75	N	1.003694	0.450130	0.883239
C76	C	0.313568	-0.245312	0.245259
C77	C	0.646901	0.088021	0.578593
C78	C	0.980235	0.421355	0.911926
O79	O	0.337830	-0.269781	0.269653
O80	O	0.671163	0.063552	0.602987
O81	O	1.004496	0.396886	0.936320
C82	C	0.125896	-0.245322	0.245289
C83	C	0.459229	0.088011	0.578622
C84	C	0.792562	0.421345	0.911955
C85	C	0.102437	-0.216551	0.216607
C86	C	0.435770	0.116782	0.549940
C87	C	0.769104	0.450116	0.883274
C88	C	0.102434	-0.159007	0.159244
C89	C	0.435768	0.174326	0.492577
C90	C	0.769101	0.507659	0.825910
C91	C	0.055519	-0.159013	0.159249
C92	C	0.388852	0.174321	0.492582
C93	C	0.722186	0.507654	0.825916
C94	C	0.032062	-0.187787	0.187933
C95	C	0.365396	0.145546	0.521267
C96	C	0.698729	0.478880	0.854600
C97	C	0.055521	-0.216556	0.216612
C98	C	0.388855	0.116777	0.549946
C99	C	0.722188	0.450111	0.883279
C100	C	0.102437	-0.274095	0.273978
C101	C	0.435770	0.059238	0.607311
C102	C	0.769103	0.392572	0.940645
C103	C	0.055516	-0.274094	0.273984
C104	C	0.388849	0.059239	0.607317
C105	C	0.722182	0.392572	0.940650
C106	C	0.032057	-0.245323	0.245302
C107	C	0.365390	0.088010	0.578635
C108	C	0.698724	0.421344	0.911969
C109	C	-0.014851	-0.245336	0.245302
C110	C	0.318483	0.087998	0.578635
C111	C	0.651816	0.421331	0.911969
N112	N	-0.038312	-0.216563	0.216625
N113	N	0.295021	0.116770	0.549959
N114	N	0.628355	0.450104	0.883292
C115	C	-0.014855	-0.187789	0.187941
C116	C	0.318478	0.145544	0.521274
C117	C	0.651811	0.478878	0.854608
C118	C	0.412099	-0.245305	0.245241
C119	C	0.745432	0.088028	0.578575
C120	C	1.078765	0.421361	0.911908
C121	C	0.459016	-0.245303	0.245234
C122	C	0.792350	0.088030	0.578567
C123	C	1.125683	0.421363	0.911900
C124	C	0.459012	-0.187755	0.187870
C125	C	0.792345	0.145579	0.521203
C126	C	1.125678	0.478912	0.854537
C127	C	0.412093	-0.187759	0.187876
C128	C	0.745426	0.145574	0.521209
C129	C	1.078760	0.478908	0.854543
C130	C	0.388637	-0.216533	0.216565
C131	C	0.721971	0.116801	0.549898
C132	C	1.055304	0.450134	0.883232
C133	C	-0.113381	-0.187802	0.187954
C134	C	0.219952	0.145531	0.521288
C135	C	0.553285	0.478864	0.854621
C136	C	-0.160301	-0.187811	0.187961
C137	C	0.173033	0.145522	0.521294
C138	C	0.506366	0.478855	0.854628
C139	C	-0.160292	-0.245358	0.245326
C140	C	0.173041	0.087975	0.578659
C141	C	0.506375	0.421309	0.911993
C142	C	-0.113376	-0.245351	0.245318
C143	C	0.219957	0.087982	0.578651
C144	C	0.553290	0.421316	0.911985
C145	C	-0.089922	-0.216569	0.216631
C146	C	0.243411	0.116764	0.549964
C147	C	0.576744	0.450097	0.883297
O148	O	-0.039151	-0.269804	0.269674
O149	O	0.294183	0.063530	0.603007
O150	O	0.627516	0.396863	0.936341
O151	O	-0.039125	-0.163316	0.163558
O152	O	0.294208	0.170017	0.496891
O153	O	0.627542	0.503350	0.830225
C154	C	0.172809	-0.187771	0.187917
C155	C	0.506142	0.145562	0.521251
C156	C	0.839476	0.478895	0.854584
C157	C	0.196268	-0.216541	0.216596
C158	C	0.529601	0.116793	0.549930
C159	C	0.862934	0.450126	0.883263
C160	C	0.172811	-0.245315	0.245281
C161	C	0.506145	0.088018	0.578614
C162	C	0.839478	0.421352	0.911947
C163	C	0.243186	-0.216539	0.216588
C164	C	0.576519	0.116795	0.549922
C165	C	0.909852	0.450128	0.883255
C166	C	0.266642	-0.187764	0.187904
C167	C	0.599975	0.145569	0.521237
C168	C	0.933309	0.478902	0.854571
C169	C	0.243181	-0.158992	0.159227
C170	C	0.576514	0.174341	0.492561
C171	C	0.909847	0.507675	0.825894
C172	C	0.196265	-0.158997	0.159233
C173	C	0.529599	0.174336	0.492566
C174	C	0.862932	0.507670	0.825900
C175	C	0.196273	-0.274087	0.273957
C176	C	0.529606	0.059246	0.607290
C177	C	0.862939	0.392579	0.940624
C178	C	0.243188	-0.274080	0.273949
C179	C	0.576521	0.059253	0.607282
C180	C	0.909855	0.392587	0.940616
C181	C	0.266645	-0.245306	0.245265
C182	C	0.599978	0.088027	0.578598
C183	C	0.933311	0.421361	0.911931
C184	C	0.620418	-0.739805	0.245314
C185	C	0.953751	-0.406471	0.578647
C186	C	1.287084	-0.073138	0.911981
C187	C	0.620358	-0.552132	0.245300
C188	C	0.953692	-0.218798	0.578633
C189	C	1.287025	0.114535	0.911967
O190	O	0.595913	-0.527875	0.269716
O191	O	0.929246	-0.194541	0.603050
O192	O	1.262579	0.138792	0.936383
N193	N	0.649102	-0.528654	0.216600
N194	N	0.982435	-0.195320	0.549934
N195	N	1.315768	0.138013	0.883267
C196	C	0.677864	-0.552097	0.187904
C197	C	1.011198	-0.218764	0.521238
C198	C	1.344531	0.114570	0.854571
O199	O	0.702314	-0.527822	0.163497
O200	O	1.035647	-0.194488	0.496830
O201	O	1.368981	0.138845	0.830163
C202	C	0.677926	-0.739769	0.187921
C203	C	1.011259	-0.406436	0.521254
C204	C	1.344592	-0.073103	0.854588
C205	C	0.649177	-0.763245	0.216619
C206	C	0.982510	-0.429911	0.549953
C207	C	1.315844	-0.096578	0.883286
C208	C	0.591672	-0.763280	0.274010
C209	C	0.925005	-0.429947	0.607344
C210	C	1.258339	-0.096613	0.940677
C211	C	0.591685	-0.810195	0.274012
C212	C	0.925019	-0.476862	0.607345
C213	C	1.258352	-0.143529	0.940679
C214	C	0.620445	-0.833636	0.245317
C215	C	0.953778	-0.500302	0.578650
C216	C	1.287111	-0.166969	0.911984
C217	C	0.649190	-0.810160	0.216621
C218	C	0.982524	-0.476827	0.549954
C219	C	1.315857	-0.143493	0.883287
C220	C	0.706690	-0.763212	0.159228
C221	C	1.040023	-0.429878	0.492561
C222	C	1.373356	-0.096545	0.825894
C223	C	0.706703	-0.810133	0.159235
C224	C	1.040037	-0.476799	0.492568
C225	C	1.373370	-0.143466	0.825902
C226	C	0.677955	-0.833608	0.187933
C227	C	1.011288	-0.500275	0.521267
C228	C	1.344622	-0.166941	0.854600
C229	C	0.677963	-0.880516	0.187928
C230	C	1.011296	-0.547182	0.521261
C231	C	1.344630	-0.213849	0.854594
N232	N	0.649220	-0.903993	0.216627
N233	N	0.982553	-0.570660	0.549960
N234	N	1.315886	-0.237327	0.883294
C235	C	0.620460	-0.880553	0.245322
C236	C	0.953794	-0.547220	0.578655
C237	C	1.287127	-0.213887	0.911989
C238	C	0.677829	-0.453567	0.187897
C239	C	1.011163	-0.120233	0.521230
C240	C	1.344496	0.213100	0.854564
C241	C	0.677814	-0.406649	0.187892
C242	C	1.011147	-0.073315	0.521226
C243	C	1.344480	0.260018	0.854559
C244	C	0.620308	-0.406686	0.245289
C245	C	0.953642	-0.073353	0.578622
C246	C	1.286975	0.259980	0.911955
C247	C	0.620322	-0.453605	0.245291
C248	C	0.953655	-0.120272	0.578624
C249	C	1.286989	0.213062	0.911957
C250	C	0.649086	-0.477044	0.216597
C251	C	0.982419	-0.143711	0.549930
C252	C	1.315753	0.189622	0.883263
C253	C	0.620490	-0.979079	0.245323
C254	C	0.953824	-0.645746	0.578656
C255	C	1.287157	-0.312413	0.911989
C256	C	0.620505	-1.025999	0.245320
C257	C	0.953838	-0.692665	0.578654
C258	C	1.287172	-0.359332	0.911987
C259	C	0.678012	-1.025957	0.187926
C260	C	1.011345	-0.692624	0.521259
C261	C	1.344679	-0.359290	0.854592
C262	C	0.677996	-0.979041	0.187926
C263	C	1.011329	-0.645708	0.521260
C264	C	1.344662	-0.312375	0.854593
C265	C	0.649234	-0.955604	0.216628
C266	C	0.982567	-0.622270	0.549962
C267	C	1.315900	-0.288937	0.883295
O268	O	0.702399	-0.904802	0.163528
O269	O	1.035733	-0.571468	0.496861
O270	O	1.369066	-0.238135	0.830194
O271	O	0.596021	-0.904837	0.269733
O272	O	0.929355	-0.571504	0.603066
O273	O	1.262688	-0.238170	0.936400
C274	C	0.620404	-0.692889	0.245313
C275	C	0.953738	-0.359556	0.578646
C276	C	1.287071	-0.026222	0.911979
C277	C	0.649150	-0.669414	0.216616
C278	C	0.982484	-0.336080	0.549950
C279	C	1.315817	-0.002747	0.883283
C280	C	0.677909	-0.692854	0.187922
C281	C	1.011243	-0.359520	0.521255
C282	C	1.344576	-0.026187	0.854588
C283	C	0.649134	-0.622496	0.216612
C284	C	0.982468	-0.289163	0.549945
C285	C	1.315801	0.044171	0.883278
C286	C	0.620375	-0.599056	0.245306
C287	C	0.953709	-0.265723	0.578640
C288	C	1.287042	0.067611	0.911973
C289	C	0.591632	-0.622534	0.274006
C290	C	0.924965	-0.289200	0.607339
C291	C	1.258298	0.044133	0.940673
C292	C	0.591645	-0.669449	0.274007
C293	C	0.924979	-0.336116	0.607341
C294	C	1.258312	-0.002782	0.940674
C295	C	0.706653	-0.669376	0.159222
C296	C	1.039986	-0.336043	0.492555
C297	C	1.373319	-0.002709	0.825889
C298	C	0.706637	-0.622461	0.159222
C299	C	1.039970	-0.289127	0.492556
C300	C	1.373303	0.044206	0.825889
C301	C	0.677877	-0.599020	0.187917
C302	C	1.011211	-0.265687	0.521251
C303	C	1.344544	0.067646	0.854584
C304	C	0.766308	-0.216575	0.216629
C305	C	1.099642	0.116758	0.549963
C306	C	1.432975	0.450091	0.883296
C307	C	0.816243	-0.216586	0.216645
C308	C	1.149576	0.116748	0.549979
C309	C	1.482909	0.450081	0.883312
C310	C	0.649142	-0.216548	0.333770
C311	C	0.982475	0.116786	0.667103
C312	C	1.315809	0.450119	1.000437
C313	C	0.649147	-0.216546	0.383704
C314	C	0.982481	0.116787	0.717038
C315	C	1.315814	0.450121	1.050371
C316	C	0.649224	-0.099373	0.216615
C317	C	0.982557	0.233960	0.549949
C318	C	1.315891	0.567293	0.883282
C319	C	0.649264	-0.049439	0.216625
C320	C	0.982598	0.283895	0.549959
C321	C	1.315931	0.617228	0.883292
C322	C	0.649144	-0.216523	0.099869
C323	C	0.982477	0.116810	0.433203
C324	C	1.315810	0.450143	0.766536
C325	C	0.649226	-0.216398	0.049935
C326	C	0.982559	0.116935	0.383268
C327	C	1.315892	0.450268	0.716602
C328	C	0.677934	-0.187743	0.693366
C329	C	1.011267	0.145590	1.026699
C330	C	1.344601	0.478924	1.360033
C331	C	0.677956	-0.187705	0.881039
C332	C	1.011290	0.145629	1.214373
C333	C	1.344623	0.478962	1.547706
O334	O	0.702399	-0.163258	0.905319
O335	O	1.035732	0.170076	1.238653
O336	O	1.369065	0.503409	1.571986
N337	N	0.649207	-0.216426	0.904490
N338	N	0.982540	0.116908	1.237823
N339	N	1.315873	0.450241	1.571156
C340	C	0.620447	-0.245156	0.881019
C341	C	0.953781	0.088177	1.214353
C342	C	1.287114	0.421511	1.547686
O343	O	0.595991	-0.269581	0.905272
O344	O	0.929325	0.063752	1.238605
O345	O	1.262658	0.397086	1.571938
C346	C	0.620423	-0.245192	0.693347
C347	C	0.953757	0.088142	1.026680
C348	C	1.287090	0.421475	1.360014
C349	C	0.649178	-0.216472	0.669899
C350	C	0.982511	0.116861	1.003232
C351	C	1.315845	0.450195	1.336565
C352	C	0.706686	-0.159025	0.669918
C353	C	1.040020	0.174308	1.003251
C354	C	1.373353	0.507641	1.336584
C355	C	0.706682	-0.159037	0.623002
C356	C	1.040015	0.174296	0.956336
C357	C	1.373349	0.507630	1.289669
C358	C	0.677926	-0.187766	0.599535
C359	C	1.011259	0.145567	0.932868
C360	C	1.344593	0.478901	1.266202
C361	C	0.649174	-0.216484	0.622983
C362	C	0.982507	0.116850	0.956317
C363	C	1.315841	0.450183	1.289650
C364	C	0.591662	-0.273920	0.669877
C365	C	0.924995	0.059414	1.003211
C366	C	1.258329	0.392747	1.336544
C367	C	0.591658	-0.273925	0.622956
C368	C	0.924991	0.059408	0.956290
C369	C	1.258324	0.392741	1.289623
C370	C	0.620412	-0.245206	0.599508
C371	C	0.953746	0.088128	0.932841
C372	C	1.287079	0.421461	1.266175
C373	C	0.620414	-0.245225	0.552601
C374	C	0.953747	0.088109	0.885934
C375	C	1.287080	0.421442	1.219267
N376	N	0.649163	-0.216504	0.529150
N377	N	0.982497	0.116830	0.862483
N378	N	1.315830	0.450163	1.195817
C379	C	0.677919	-0.187774	0.552617
C380	C	1.011253	0.145559	0.885951
C381	C	1.344586	0.478892	1.219284
C382	C	0.620463	-0.245136	0.979550
C383	C	0.953796	0.088197	1.312883
C384	C	1.287130	0.421531	1.646217
C385	C	0.620469	-0.245128	1.026468
C386	C	0.953803	0.088206	1.359801
C387	C	1.287136	0.421539	1.693134
C388	C	0.677978	-0.187675	1.026484
C389	C	1.011311	0.145658	1.359818
C390	C	1.344645	0.478991	1.693151
C391	C	0.677973	-0.187686	0.979566
C392	C	1.011307	0.145647	1.312899
C393	C	1.344640	0.478980	1.646232
C394	C	0.649212	-0.216415	0.956099
C395	C	0.982546	0.116918	1.289433
C396	C	1.315879	0.450252	1.622766
C397	C	0.677909	-0.187801	0.454091
C398	C	1.011242	0.145532	0.787425
C399	C	1.344575	0.478865	1.120758
C400	C	0.677903	-0.187817	0.407172
C401	C	1.011237	0.145517	0.740505
C402	C	1.344570	0.478850	1.073838
C403	C	0.620393	-0.245267	0.407159
C404	C	0.953727	0.088066	0.740492
C405	C	1.287060	0.421400	1.073826
C406	C	0.620400	-0.245253	0.454075
C407	C	0.953734	0.088080	0.787408
C408	C	1.287067	0.421413	1.120741
C409	C	0.649159	-0.216517	0.477540
C410	C	0.982493	0.116817	0.810873
C411	C	1.315826	0.450150	1.144206
O412	O	0.595981	-0.269655	0.528292
O413	O	0.929314	0.063678	0.861625
O414	O	1.262647	0.397012	1.194958
O415	O	0.702365	-0.163346	0.528357
O416	O	1.035698	0.169987	0.861690
O417	O	1.369031	0.503320	1.195023
C418	C	0.677938	-0.187731	0.740282
C419	C	1.011272	0.145602	1.073615
C420	C	1.344605	0.478935	1.406948
C421	C	0.649186	-0.216449	0.763730
C422	C	0.982520	0.116884	1.097063
C423	C	1.315853	0.450218	1.430396
C424	C	0.620430	-0.245178	0.740263
C425	C	0.953763	0.088155	1.073596
C426	C	1.287097	0.421488	1.406929
C427	C	0.649193	-0.216441	0.810648
C428	C	0.982526	0.116893	1.143981
C429	C	1.315859	0.450226	1.477314
C430	C	0.677949	-0.187711	0.834115
C431	C	1.011282	0.145622	1.167448
C432	C	1.344616	0.478955	1.500782
C433	C	0.706699	-0.158990	0.810664
C434	C	1.040032	0.174343	1.143998
C435	C	1.373365	0.507676	1.477331
C436	C	0.706694	-0.159002	0.763749
C437	C	1.040028	0.174331	1.097082
C438	C	1.373361	0.507665	1.430415
C439	C	0.591680	-0.273899	0.763713
C440	C	0.925014	0.059434	1.097046
C441	C	1.258347	0.392768	1.430380
C442	C	0.591687	-0.273886	0.810629
C443	C	0.925021	0.059448	1.143962
C444	C	1.258354	0.392781	1.477295
C445	C	0.620443	-0.245156	0.834096
C446	C	0.953777	0.088177	1.167429
C447	C	1.287110	0.421510	1.500763
H448	H	-0.179399	-0.164382	0.164604
H449	H	0.153934	0.168952	0.497937
H450	H	0.487268	0.502285	0.831270
Br451	Br	0.716932	-0.148839	0.375352
Br452	Br	1.050265	0.184494	0.708685
Br453	Br	1.383599	0.517827	1.042019
H454	H	0.392996	-0.164329	0.164522
H455	H	0.726329	0.169004	0.497856
H456	H	1.059662	0.502337	0.831189
Br457	Br	0.581379	-0.284233	0.485898
Br458	Br	0.914713	0.049100	0.819232
Br459	Br	1.248046	0.382433	1.152565
Br460	Br	0.552628	-0.701301	0.312958
Br461	Br	0.885962	-0.367968	0.646292
Br462	Br	1.219295	-0.034635	0.979625
Br463	Br	0.275024	-0.119943	0.120297
Br464	Br	0.608357	0.213390	0.453630
Br465	Br	0.941691	0.546723	0.786964
Br466	Br	0.716936	-0.148798	0.485929
Br467	Br	1.050270	0.184535	0.819263
Br468	Br	1.383603	0.517868	1.152596
H469	H	0.177179	-0.297519	0.297316
H470	H	0.510512	0.035814	0.630650
H471	H	0.843846	0.369148	0.963983
Br472	Br	0.745727	-0.120003	0.842522
Br473	Br	1.079060	0.213330	1.175855
Br474	Br	1.412393	0.546663	1.509189
Br475	Br	0.581276	-0.374866	0.284230
Br476	Br	0.914610	-0.041533	0.617563
Br477	Br	1.247943	0.291801	0.950896
Br478	Br	0.552621	-0.312915	0.591112
Br479	Br	0.885955	0.020419	0.924445
Br480	Br	1.219288	0.353752	1.257778
H481	H	0.596982	-0.268659	0.388044
H482	H	0.930316	0.064674	0.721377
H483	H	1.263649	0.398008	1.054710
Br484	Br	0.581486	-1.057855	0.284270
Br485	Br	0.914819	-0.724522	0.617603
Br486	Br	1.248152	-0.391189	0.950936
H487	H	0.262284	-0.297513	0.297304
H488	H	0.595618	0.035820	0.630638
H489	H	0.928951	0.369153	0.963971
H490	H	-0.094290	-0.164363	0.164596
H491	H	0.239043	0.168970	0.497930
H492	H	0.572376	0.502303	0.831263
H493	H	0.478118	-0.164326	0.164514
H494	H	0.811451	0.169007	0.497847
H495	H	1.144785	0.502341	0.831180
H496	H	0.597070	-0.960001	0.268695
H497	H	0.930404	-0.626668	0.602028
H498	H	1.263737	-0.293335	0.935362
H499	H	0.036423	-0.135584	0.135893
H500	H	0.369756	0.197749	0.469227
H501	H	0.703090	0.531083	0.802560
H502	H	0.568213	-0.603441	0.297369
H503	H	0.901546	-0.270108	0.630702
H504	H	1.234880	0.063226	0.964036
H505	H	0.568275	-0.829305	0.297380
H506	H	0.901608	-0.495972	0.630714
H507	H	1.234941	-0.162638	0.964047
H508	H	0.597059	-0.268519	1.045555
H509	H	0.930393	0.064814	1.378889
H510	H	1.263726	0.398148	1.712222
H511	H	0.121528	-0.135573	0.135885
H512	H	0.454861	0.197760	0.469219
H513	H	0.788194	0.531093	0.802552
Br514	Br	0.745723	-0.120036	0.701757
Br515	Br	1.079057	0.213298	1.035091
Br516	Br	1.412390	0.546631	1.368424
Br517	Br	0.745706	-0.120055	0.591187
Br518	Br	1.079039	0.213278	0.924520
Br519	Br	1.412373	0.546611	1.257854
Br520	Br	-0.081538	-0.284403	0.284237
Br521	Br	0.251795	0.048930	0.617571
Br522	Br	0.585128	0.382263	0.950904
Br523	Br	0.581305	-0.485460	0.284239
Br524	Br	0.914638	-0.152126	0.617573
Br525	Br	1.247971	0.181207	0.950906
H526	H	0.568253	-0.744199	0.297379
H527	H	0.901586	-0.410866	0.630713
H528	H	1.234920	-0.077533	0.964046
Br529	Br	0.164436	-0.119948	0.120306
Br530	Br	0.497769	0.213385	0.453639
Br531	Br	0.831102	0.546719	0.786973
Br532	Br	0.716999	-0.148708	0.947748
Br533	Br	1.050332	0.184625	1.281081
Br534	Br	1.383665	0.517958	1.614415
H535	H	0.701253	-0.472646	0.164529
H536	H	1.034587	-0.139313	0.497862
H537	H	1.367920	0.194020	0.831196
Br538	Br	0.716824	-0.374795	0.148936
Br539	Br	1.050158	-0.041462	0.482270
Br540	Br	1.383491	0.291872	0.815603
Br541	Br	0.717004	-0.148686	1.058342
Br542	Br	1.050337	0.184647	1.391675
Br543	Br	1.383671	0.517981	1.725008
H544	H	0.730100	-0.744105	0.135859
H545	H	1.063433	-0.410771	0.469193
H546	H	1.396766	-0.077438	0.802526
H547	H	-0.179399	-0.268787	0.268678
H548	H	0.153935	0.064546	0.602012
H549	H	0.487268	0.397880	0.935345
H550	H	0.730128	-0.829215	0.135870
H551	H	1.063462	-0.495881	0.469203
H552	H	1.396795	-0.162548	0.802536
H553	H	0.701401	-0.959927	0.164553
H554	H	1.034734	-0.626594	0.497886
H555	H	1.368067	-0.293261	0.831220
Br556	Br	0.581426	-0.284129	0.947709
Br557	Br	0.914760	0.049205	1.281043
Br558	Br	1.248093	0.382538	1.614376
Br559	Br	0.552638	-0.312902	0.701688
Br560	Br	0.885971	0.020432	1.035021
Br561	Br	1.219305	0.353765	1.368355
H562	H	0.730109	-0.135615	0.744661
H563	H	1.063443	0.197718	1.077995
H564	H	1.396776	0.531051	1.411328
H565	H	0.568272	-0.297277	0.829716
H566	H	0.901606	0.036056	1.163050
H567	H	1.234939	0.369390	1.496383
H568	H	0.036421	-0.297524	0.297348
H569	H	0.369754	0.035809	0.630681
H570	H	0.703087	0.369142	0.964014
H571	H	0.701425	-1.045050	0.164562
H572	H	1.034759	-0.711717	0.497895
H573	H	1.368092	-0.378384	0.831228
Br574	Br	0.490848	-0.284359	0.284152
Br575	Br	0.824181	0.048974	0.617486
Br576	Br	1.157514	0.382307	0.950819
Br577	Br	0.380273	-0.284360	0.284179
Br578	Br	0.713606	0.048973	0.617513
Br579	Br	1.046939	0.382306	0.950846
Br580	Br	0.745688	-0.701180	0.120276
Br581	Br	1.079021	-0.367847	0.453609
Br582	Br	1.412355	-0.034513	0.786942
H583	H	0.730046	-0.603350	0.135849
H584	H	1.063379	-0.270017	0.469182
H585	H	1.396713	0.063317	0.802516
H586	H	0.121529	-0.297524	0.297334
H587	H	0.454862	0.035809	0.630667
H588	H	0.788196	0.369143	0.964000
H589	H	0.568264	-0.297295	0.744611
H590	H	0.901597	0.036038	1.077944
H591	H	1.234930	0.369372	1.411278
