data_functionalizedCrystal
_audit_creation_method	'MofGen! by Chris Wilmer'
_symmetry_space_group_name_H-M	'P1'
_symmetry_Int_Tables_number	1
_symmetry_cell_setting	triclinic
loop_
_symmetry_equiv_pos_as_xyz
  x,y,z
_cell_length_a	12.759401
_cell_length_b	12.594516
_cell_length_c	12.594509
_cell_angle_alpha	90.026199
_cell_angle_beta	90.019209
_cell_angle_gamma	90.017577
loop_
_atom_site_label
_atom_site_type_symbol
_atom_site_fract_x
_atom_site_fract_y
_atom_site_fract_z
Zn1	Zn	1.606239	-0.423667	0.601815
Zn2	Zn	1.606131	-0.601677	0.423843
Zn3	Zn	1.430543	-0.423718	0.423850
Zn4	Zn	1.430525	-0.601608	0.601779
O5	O	1.518359	-0.512667	0.512822
O6	O	1.753245	-0.447288	0.578218
O7	O	1.582801	-0.578120	0.274898
O8	O	1.453901	-0.274765	0.447476
O9	O	1.753166	-0.578071	0.447463
O10	O	1.582985	-0.274728	0.578226
O11	O	1.453797	-0.447374	0.274903
O12	O	1.283519	-0.447308	0.447441
O13	O	1.453872	-0.577954	0.750730
O14	O	1.283506	-0.578003	0.578165
O15	O	1.582968	-0.447221	0.750756
O16	O	1.582784	-0.750614	0.447428
O17	O	1.453767	-0.750563	0.578158
C18	C	1.245392	-0.512654	0.512801
C19	C	1.128615	-0.512674	0.512817
C20	C	1.518290	-0.789208	0.512811
C21	C	1.518357	-0.907514	0.512843
C22	C	1.073774	-0.580831	0.580778
C23	C	0.964050	-0.580835	0.580799
C24	C	0.964018	-0.444523	0.444889
C25	C	1.073740	-0.444514	0.444874
C26	C	1.448178	-0.976778	0.583896
C27	C	1.422580	-1.047644	0.486774
C28	C	1.544051	-1.047447	0.609981
C29	C	1.492708	-0.976822	0.415669
C30	C	1.614224	-0.976618	0.538942
C31	C	1.588662	-1.047452	0.441753
C32	C	1.792392	-0.512681	0.512844
C33	C	1.909169	-0.512687	0.512853
C34	C	1.518430	-0.512574	0.790443
C35	C	1.518460	-0.512534	0.908748
C36	C	1.518457	-0.235047	0.512856
C37	C	1.518499	-0.116741	0.512870
C38	C	1.518350	-0.512683	0.236281
C39	C	1.518523	-0.512423	0.117976
C40	C	1.448266	-0.583600	0.977987
C41	C	1.544132	-0.609603	1.048775
C42	C	1.422669	-0.486467	1.048760
C43	C	1.614375	-0.538589	0.977978
C44	C	1.492848	-0.415407	0.977956
C45	C	1.588779	-0.441374	1.048712
H46	H	0.919403	-0.636334	0.636141
N47	N	1.132896	-0.371005	0.371561
H48	H	1.210731	-0.381341	0.381866
H49	H	1.113744	-0.295010	0.388258
N50	N	1.369704	-0.663320	0.936831
H51	H	1.297496	-0.644427	0.963683
H52	H	1.389309	-0.736598	0.962601
H53	H	1.648071	-1.078288	0.381607
N54	N	1.315334	-0.457299	1.089938
H55	H	1.316315	-0.456793	1.170124
H56	H	1.262406	-0.511090	1.064136
N57	N	1.572866	-0.718334	1.090000
H58	H	1.638786	-0.713227	1.134128
H59	H	1.585164	-0.767876	1.028170
N60	N	0.904831	-0.371038	0.371583
H61	H	0.827000	-0.381395	0.381893
H62	H	0.923988	-0.387536	0.295546
H63	H	1.695434	-0.560684	0.947017
H64	H	1.388724	-0.945745	0.643897
H65	H	1.470940	-0.945927	0.333508
N66	N	1.132963	-0.654342	0.654055
H67	H	1.081568	-0.697518	0.697112
H68	H	1.178522	-0.611075	0.703379
N69	N	1.721504	-0.935261	0.568205
H70	H	1.740798	-0.960903	0.641624
H71	H	1.720740	-0.855081	0.567227
H72	H	1.341573	-1.078866	0.464721
H73	H	1.565726	-1.078470	0.692120
N74	N	1.667529	-0.361716	1.089616
H75	H	1.739847	-0.381505	1.063736
H76	H	1.666591	-0.361721	1.169801
N77	N	1.464073	-0.306705	0.936703
H78	H	1.391636	-0.287121	0.962399
H79	H	1.465003	-0.307482	0.856521
