data_functionalizedCrystal
_audit_creation_method	'MofGen! by Chris Wilmer'
_symmetry_space_group_name_H-M	'P1'
_symmetry_Int_Tables_number	1
_symmetry_cell_setting	triclinic
loop_
_symmetry_equiv_pos_as_xyz
  x,y,z
_cell_length_a	29.999520
_cell_length_b	29.998686
_cell_length_c	29.995014
_cell_angle_alpha	60.005185
_cell_angle_beta	60.010401
_cell_angle_gamma	59.993433
loop_
_atom_site_label
_atom_site_type_symbol
_atom_site_fract_x
_atom_site_fract_y
_atom_site_fract_z
O1	O	0.061772	-0.651300	0.544623
O2	O	0.561772	-0.151300	1.044623
O3	O	0.023267	-0.507084	0.438819
O4	O	0.523267	-0.007084	0.938819
O5	O	0.114589	-0.598332	0.438743
O6	O	0.614589	-0.098332	0.938743
O7	O	-0.029550	-0.560051	0.544699
O8	O	0.470450	-0.060051	1.044699
O9	O	0.144886	-0.568039	0.468961
O10	O	0.644886	-0.068039	0.968961
O11	O	0.053564	-0.476791	0.469038
O12	O	0.553564	0.023209	0.969038
O13	O	0.092069	-0.621007	0.574841
O14	O	0.592069	-0.121007	1.074841
Zn15	Zn	0.077627	-0.544089	0.526737
Zn16	Zn	0.577627	-0.044089	1.026737
Zn17	Zn	0.037709	-0.584002	0.486923
Zn18	Zn	0.537709	-0.084002	0.986923
O19	O	0.000748	-0.529758	0.574918
O20	O	0.500748	-0.029758	1.074918
N21	N	0.104871	-0.516854	0.553912
N22	N	0.604871	-0.016854	1.053912
N23	N	0.010470	-0.611242	0.459748
N24	N	0.510470	-0.111242	0.959748
C25	C	0.143162	-0.478782	0.827124
C26	C	0.643162	0.021218	1.327124
C27	C	0.378203	-0.478734	0.591892
C28	C	0.878203	0.021266	1.091892
C29	C	0.143005	-0.478752	0.591997
C30	C	0.643005	0.021248	1.091997
C31	C	0.142986	-0.243586	0.592008
C32	C	0.642986	0.256414	1.092008
C33	C	0.180857	-0.357087	0.629814
C34	C	0.680857	0.142913	1.129814
C35	C	0.180866	-0.440920	0.629807
C36	C	0.680866	0.059080	1.129807
C37	C	0.201840	-0.419964	0.650755
C38	C	0.701840	0.080036	1.150755
C39	C	0.293272	-0.404201	0.602606
C40	C	0.793272	0.095799	1.102606
C41	C	0.350426	-0.423248	0.583534
C42	C	0.850426	0.076752	1.083534
C43	C	0.350451	-0.515727	0.618798
C44	C	0.850451	-0.015727	1.118798
C45	C	0.293297	-0.496678	0.637872
C46	C	0.793297	0.003322	1.137872
C47	C	0.194628	-0.328499	0.573626
C48	C	0.694628	0.171501	1.073626
C49	C	0.175551	-0.271340	0.554591
C50	C	0.675551	0.228660	1.054591
C51	C	0.128936	-0.271362	0.647935
C52	C	0.628936	0.228638	1.147935
C53	C	0.148014	-0.328521	0.666970
C54	C	0.648014	0.171479	1.166970
C55	C	0.124672	-0.427119	0.643641
C56	C	0.624672	0.072881	1.143641
C57	C	0.105611	-0.446170	0.624592
C58	C	0.605611	0.053830	1.124592
C59	C	0.198934	-0.492820	0.577889
C60	C	0.698934	0.007180	1.077889
C61	C	0.217998	-0.473770	0.596931
C62	C	0.717998	0.026230	1.096931
C63	C	0.124740	-0.427136	0.742229
C64	C	0.624740	0.072864	1.242229
C65	C	0.105728	-0.446202	0.799386
C66	C	0.605728	0.053798	1.299386
C67	C	0.199085	-0.492863	0.799337
C68	C	0.699085	0.007137	1.299337
C69	C	0.218096	-0.473798	0.742178
C70	C	0.718096	0.026202	1.242178
C71	C	0.180923	-0.440933	0.713626
C72	C	0.680923	0.059067	1.213626
C73	C	0.264710	-0.440915	0.629773
C74	C	0.764710	0.059085	1.129773
C75	C	0.121509	-0.499370	0.889991
C76	C	0.621509	0.000630	1.389991
C77	C	0.441068	-0.498953	0.570621
C78	C	0.941068	0.001047	1.070621
C79	C	0.121297	-0.499349	0.571429
C80	C	0.621297	0.000651	1.071429
C81	C	0.121653	-0.180715	0.571802
C82	C	0.621653	0.319285	1.071802
C83	C	-0.111071	-0.648912	0.421584
C84	C	0.388929	-0.148912	0.921584
C85	C	-0.027286	-0.649018	0.421777
C86	C	0.472714	-0.149018	0.921777
C87	C	-0.048200	-0.669944	0.400740
C88	C	0.451800	-0.169944	0.900740
C89	C	-0.064036	-0.761340	0.448814
C90	C	0.435964	-0.261340	0.948814
C91	C	-0.045033	-0.818500	0.467893
C92	C	0.454967	-0.318500	0.967893
C93	C	0.047447	-0.818609	0.432797
C94	C	0.547447	-0.318609	0.932797
C95	C	0.028444	-0.761451	0.413717
C96	C	0.528444	-0.261451	0.913717
C97	C	-0.139731	-0.662677	0.477755
C98	C	0.360269	-0.162677	0.977755
C99	C	-0.196885	-0.643554	0.496701
C100	C	0.303115	-0.143554	0.996701
C101	C	-0.196717	-0.596907	0.403303
C102	C	0.303283	-0.096907	0.903303
C103	C	-0.139562	-0.616030	0.384357
C104	C	0.360438	-0.116030	0.884357
C105	C	-0.041053	-0.592827	0.407952
C106	C	0.458947	-0.092827	0.907952
C107	C	-0.022041	-0.573809	0.427083
C108	C	0.477959	-0.073809	0.927083
C109	C	0.024504	-0.667167	0.473848
C110	C	0.524504	-0.167167	0.973848
C111	C	0.005492	-0.686188	0.454725
C112	C	0.505492	-0.186188	0.954725
C113	C	-0.040886	-0.592836	0.309259
C114	C	0.459114	-0.092836	0.809259
C115	C	-0.021740	-0.573821	0.252102
C116	C	0.478260	-0.073821	0.752102
C117	C	0.024886	-0.667185	0.252163
C118	C	0.524886	-0.167185	0.752163
C119	C	0.005743	-0.686199	0.309322
C120	C	0.505743	-0.186199	0.809322
C121	C	-0.027145	-0.649023	0.337868
C122	C	0.472855	-0.149023	0.837868
C123	C	-0.027299	-0.732818	0.421728
C124	C	0.472701	-0.232818	0.921728
N125	N	0.492511	-0.516826	0.553742
N126	N	0.992511	-0.016826	1.053742
O127	O	0.679283	-0.525926	0.419277
O128	O	1.179283	-0.025926	0.919277
O129	O	0.679465	-0.632059	0.563349
O130	O	1.179465	-0.132059	1.063349
O131	O	0.679393	-0.631817	0.471975
O132	O	1.179393	-0.131817	0.971975
O133	O	0.679355	-0.526168	0.510650
O134	O	1.179355	-0.026168	1.010650
O135	O	0.588593	-0.601610	0.502313
O136	O	1.088593	-0.101610	1.002313
O137	O	0.588665	-0.601852	0.593686
O138	O	1.088665	-0.101852	1.093686
O139	O	0.588483	-0.495720	0.449614
O140	O	1.088483	0.004280	0.949614
Zn141	Zn	0.574158	-0.543990	0.526467
Zn142	Zn	1.074158	-0.043990	1.026467
Zn143	Zn	0.693790	-0.583788	0.486496
Zn144	Zn	1.193790	-0.083788	0.986496
O145	O	0.588555	-0.495962	0.540987
O146	O	1.088555	0.004038	1.040987
N147	N	0.775436	-0.610952	0.459215
N148	N	1.275436	-0.110952	0.959215
N149	N	0.104844	-0.129269	0.553931
N150	N	0.604844	0.370731	1.053931
O151	O	-0.029548	0.057600	0.544709
O152	O	0.470452	0.557600	1.044709
O153	O	0.114530	0.057617	0.438578
O154	O	0.614530	0.557617	0.938578
O155	O	0.023130	0.057594	0.438850
O156	O	0.523130	0.557594	0.938850
O157	O	0.061852	0.057623	0.544437
O158	O	0.561852	0.557623	1.044437
O159	O	0.053431	-0.033213	0.469115
O160	O	0.553431	0.466787	0.969115
O161	O	0.144831	-0.033190	0.468843
O162	O	0.644831	0.466810	0.968843
O163	O	0.000753	-0.033207	0.574974
O164	O	0.500753	0.466793	1.074974
Zn165	Zn	0.077603	-0.047616	0.526714
Zn166	Zn	0.577603	0.452384	1.026714
Zn167	Zn	0.037680	0.072026	0.486838
Zn168	Zn	0.537680	0.572026	0.986838
O169	O	0.092153	-0.033184	0.574702
O170	O	0.592153	0.466816	1.074702
N171	N	0.010432	0.153679	0.459622
N172	N	0.510432	0.653679	0.959622
N173	N	0.105130	-0.516904	0.941437
N174	N	0.605130	-0.016904	1.441437
O175	O	0.095923	-0.651280	1.128292
O176	O	0.595923	-0.151280	1.628292
O177	O	-0.010184	-0.507155	1.128318
O178	O	0.489816	-0.007155	1.628318
O179	O	-0.009938	-0.598539	1.128284
O180	O	0.490062	-0.098539	1.628284
O181	O	0.095677	-0.559897	1.128326
O182	O	0.595677	-0.059897	1.628326
O183	O	0.020315	-0.568257	1.037481
O184	O	0.520315	-0.068257	1.537481
O185	O	0.020068	-0.476874	1.037515
O186	O	0.520068	0.023126	1.537515
O187	O	0.126176	-0.620999	1.037489
O188	O	0.626176	-0.120999	1.537489
Zn189	Zn	0.077925	-0.544128	1.023085
Zn190	Zn	0.577925	-0.044128	1.523085
Zn191	Zn	0.038066	-0.584026	1.142722
Zn192	Zn	0.538066	-0.084026	1.642722
O193	O	0.125929	-0.529616	1.037523
O194	O	0.625929	-0.029616	1.537523
N195	N	0.010860	-0.611256	1.224371
N196	N	0.510860	-0.111256	1.724371
C197	C	0.034807	-0.473765	0.439352
C198	C	0.534807	0.026235	0.939352
C199	C	0.147897	-0.586765	0.439257
C200	C	0.647897	-0.086765	0.939257
C201	C	0.080529	-0.654326	0.574308
C202	C	0.580529	-0.154326	1.074308
C203	C	-0.032561	-0.541326	0.574403
C204	C	0.467439	-0.041326	1.074403
C205	C	0.634087	-0.631571	0.596668
C206	C	1.134087	-0.131571	1.096668
C207	C	0.633999	-0.631272	0.483513
C208	C	1.133999	-0.131272	0.983513
C209	C	0.633858	-0.496206	0.416295
C210	C	1.133858	0.003794	0.916295
C211	C	0.633949	-0.496507	0.529449
C212	C	1.133949	0.003493	1.029449
C213	C	0.147793	0.012327	0.439058
C214	C	0.647793	0.512327	0.939058
C215	C	0.034644	0.012187	0.439432
C216	C	0.534644	0.512187	0.939432
C217	C	-0.032548	0.012195	0.574457
C218	C	0.467452	0.512195	1.074457
C219	C	0.080639	0.012222	0.574120
C220	C	0.580639	0.512222	1.074120
C221	C	-0.009670	-0.473857	1.082920
C222	C	0.490330	0.026143	1.582920
C223	C	-0.009359	-0.587018	1.082860
C224	C	0.490641	-0.087018	1.582860
C225	C	0.125662	-0.654297	1.082887
C226	C	0.625662	-0.154297	1.582887
C227	C	0.125358	-0.541129	1.082927
C228	C	0.625358	-0.041129	1.582927
H229	H	0.059977	-0.434960	0.822668
H230	H	0.559977	0.065040	1.322668
O231	O	0.088553	-0.395236	0.714578
O232	O	0.588553	0.104764	1.214578
C233	C	-0.006052	-0.350937	0.720660
C234	C	0.493948	0.149063	1.220660
C235	C	0.034867	-0.387076	0.752043
C236	C	0.534867	0.112924	1.252043
H237	H	-0.049466	-0.344319	0.750937
H238	H	0.450534	0.155681	1.250937
H239	H	0.000476	-0.371868	0.693917
H240	H	0.500476	0.128132	1.193917
H241	H	0.000548	-0.309834	0.693888
H242	H	0.500548	0.190166	1.193888
H243	H	0.028292	-0.428184	0.778844
H244	H	0.528292	0.071816	1.278844
H245	H	0.028329	-0.366102	0.778752
H246	H	0.528329	0.133898	1.278752
O247	O	-0.072746	-0.556704	0.336970
O248	O	0.427254	-0.056704	0.836970
C249	C	-0.080063	-0.482762	0.354476
C250	C	0.419937	0.017238	0.854476
C251	C	-0.043926	-0.523653	0.323066
C252	C	0.456074	-0.023653	0.823066
H253	H	-0.056781	-0.456021	0.343238
H254	H	0.443219	0.043979	0.843238
H255	H	-0.091366	-0.505982	0.400246
H256	H	0.408634	-0.005982	0.900246
H257	H	-0.118817	-0.455985	0.343167
H258	H	0.381183	0.044015	0.843167
H259	H	-0.005150	-0.550440	0.334329
H260	H	0.494850	-0.050440	0.834329
H261	H	-0.032667	-0.500399	0.277304
H262	H	0.467333	-0.000399	0.777304
H263	H	0.634133	-0.664888	0.638048
H264	H	1.134133	-0.164888	1.138048
O265	O	0.024681	0.012138	0.399930
O266	O	0.524681	0.512138	0.899930
C267	C	-0.040205	0.012115	0.374986
C268	C	0.459795	0.512115	0.874986
C269	C	-0.028994	0.012169	0.419771
C270	C	0.471006	0.512169	0.919771
H271	H	-0.083604	0.012152	0.391008
H272	H	0.416396	0.512152	0.891008
H273	H	-0.010008	-0.025904	0.363070
H274	H	0.489992	0.474096	0.863070
H275	H	-0.035311	0.050102	0.337708
H276	H	0.464689	0.550102	0.837708
H277	H	-0.033895	-0.025792	0.457079
H278	H	0.466105	0.474208	0.957079
H279	H	-0.059189	0.050213	0.431641
H280	H	0.440811	0.550213	0.931641
H281	H	0.634015	-0.664461	0.475235
H282	H	1.134015	-0.164461	0.975235
H283	H	-0.042983	-0.432464	1.082928
H284	H	0.457017	0.067536	1.582928
O285	O	-0.048860	-0.596942	1.082775
O286	O	0.451140	-0.096942	1.582775
C287	C	-0.073814	-0.661788	1.082709
C288	C	0.426186	-0.161788	1.582709
C289	C	-0.029028	-0.650618	1.082792
C290	C	0.470972	-0.150618	1.582792
H291	H	-0.057801	-0.705188	1.082735
H292	H	0.442199	-0.205188	1.582735
H293	H	-0.085721	-0.631580	1.044686
H294	H	0.414279	-0.131580	1.544686
H295	H	-0.111095	-0.656872	1.120687
H296	H	0.388905	-0.156872	1.620687
H297	H	0.008283	-0.655541	1.044840
H298	H	0.508283	-0.155541	1.544840
H299	H	-0.017167	-0.680824	1.120841
H300	H	0.482833	-0.180824	1.620841
H301	H	0.088756	-0.695753	0.607538
H302	H	0.588756	-0.195753	1.107538
H303	H	0.158977	-0.695688	1.082873
H304	H	0.658977	-0.195688	1.582873
H305	H	0.158538	-0.532861	1.082933
H306	H	0.658538	-0.032861	1.582933
H307	H	0.229358	-0.519614	0.822579
H308	H	0.729358	-0.019614	1.322579
H309	H	0.263847	-0.485039	0.718893
H310	H	0.763847	0.014961	1.218893
H311	H	0.088930	0.012231	0.607291
H312	H	0.588930	0.512231	1.107291
O313	O	0.051005	-0.432740	0.638102
O314	O	0.551005	0.067260	1.138102
C315	C	-0.039552	-0.384446	0.686423
C316	C	0.460448	0.115554	1.186423
C317	C	0.022272	-0.399622	0.671173
C318	C	0.522272	0.100378	1.171173
H319	H	-0.062800	-0.357659	0.713153
H320	H	0.437200	0.142341	1.213153
H321	H	-0.050808	-0.423222	0.709723
H322	H	0.449192	0.076778	1.209723
H323	H	-0.050815	-0.361192	0.647644
H324	H	0.449185	0.138808	1.147644
H325	H	0.033581	-0.422863	0.709923
H326	H	0.533581	0.077137	1.209923
H327	H	0.033496	-0.360826	0.647851
H328	H	0.533496	0.139174	1.147851
O329	O	0.235079	-0.524709	0.545943
O330	O	0.735079	-0.024709	1.045943
C331	C	0.329659	-0.568999	0.501661
C332	C	0.829659	-0.068999	1.001661
C333	C	0.288783	-0.532871	0.537835
C334	C	0.788783	-0.032871	1.037835
H335	H	0.373088	-0.575619	0.495103
H336	H	0.873088	-0.075619	0.995103
H337	H	0.323087	-0.548057	0.460534
H338	H	0.823087	-0.048057	0.960534
H339	H	0.323057	-0.610101	0.522600
H340	H	0.823057	-0.110101	1.022600
H341	H	0.295361	-0.491763	0.516944
H342	H	0.795361	0.008237	1.016944
H343	H	0.295365	-0.553856	0.578960
H344	H	0.795365	-0.053856	1.078960
H345	H	0.633799	-0.462884	0.374920
H346	H	1.133799	0.037116	0.874920
O347	O	0.097099	-0.243664	0.684076
O348	O	0.597099	0.256336	1.184076
C349	C	0.089855	-0.226145	0.757981
C350	C	0.589855	0.273855	1.257981
C351	C	0.125965	-0.257556	0.717092
C352	C	0.625965	0.242444	1.217092
H353	H	0.113183	-0.237357	0.784678
H354	H	0.613183	0.262643	1.284678
H355	H	0.051088	-0.237404	0.784799
H356	H	0.551088	0.262596	1.284799
H357	H	0.078570	-0.180386	0.734707
H358	H	0.578570	0.319614	1.234707
H359	H	0.137292	-0.303323	0.740322
H360	H	0.637292	0.196677	1.240322
H361	H	0.164706	-0.246252	0.690275
H362	H	0.664706	0.253748	1.190275
H363	H	-0.073925	0.012190	0.607776
H364	H	0.426075	0.512190	1.107776
O365	O	-0.224644	-0.656999	0.551287
O366	O	0.275356	-0.156999	1.051287
C367	C	-0.218782	-0.705268	0.641928
C368	C	0.281218	-0.205268	1.141928
C369	C	-0.187279	-0.690089	0.580127
C370	C	0.312721	-0.190089	1.080127
H371	H	-0.188586	-0.732014	0.665263
H372	H	0.311414	-0.232014	1.165263
H373	H	-0.245532	-0.728530	0.653139
H374	H	0.254468	-0.228530	1.153139
H375	H	-0.245558	-0.666458	0.653134
H376	H	0.254442	-0.166458	1.153134
H377	H	-0.160474	-0.728871	0.568877
H378	H	0.339526	-0.228871	1.068877
H379	H	-0.160564	-0.666807	0.568949
H380	H	0.339436	-0.166807	1.068949
H381	H	0.094434	-0.400372	0.670409
H382	H	0.594434	0.099628	1.170409
H383	H	0.633941	-0.463320	0.537725
H384	H	1.133941	0.036680	1.037725
O385	O	0.265635	-0.532414	0.664229
O386	O	0.765635	-0.032414	1.164229
C387	C	0.271694	-0.626156	0.697219
C388	C	0.771694	-0.126156	1.197219
C389	C	0.303088	-0.585743	0.667348
C390	C	0.803088	-0.085743	1.167348
H391	H	0.301960	-0.669281	0.699760
H392	H	0.801960	-0.169281	1.199760
H393	H	0.244929	-0.614722	0.673864
H394	H	0.744929	-0.114722	1.173864
H395	H	0.244943	-0.624382	0.740184
H396	H	0.744943	-0.124382	1.240184
H397	H	0.329868	-0.587495	0.624383
H398	H	0.829868	-0.087495	1.124383
H399	H	0.329818	-0.597189	0.690744
H400	H	0.829818	-0.097189	1.190744
O401	O	0.197006	0.012701	0.399138
O402	O	0.697006	0.512701	0.899138
C403	C	0.245353	0.060195	0.308116
C404	C	0.745353	0.560195	0.808116
C405	C	0.189582	0.059838	0.353273
C406	C	0.689582	0.559838	0.853273
H407	H	0.239370	0.098307	0.271027
H408	H	0.739370	0.598307	0.771027
H409	H	0.265111	0.022298	0.295998
H410	H	0.765111	0.522298	0.795998
H411	H	0.272873	0.060259	0.323912
H412	H	0.772873	0.560259	0.823912
H413	H	0.162019	0.059793	0.337516
H414	H	0.662019	0.559793	0.837516
H415	H	0.169867	0.097732	0.365384
H416	H	0.669867	0.597732	0.865384
O417	O	-0.081971	-0.531498	0.614048
O418	O	0.418029	-0.031498	1.114048
C419	C	-0.171888	-0.466817	0.639283
C420	C	0.328112	0.033183	1.139283
C421	C	-0.115954	-0.477871	0.594341
C422	C	0.384046	0.022129	1.094341
H423	H	-0.199384	-0.423464	0.623363
H424	H	0.300616	0.076536	1.123363
H425	H	-0.166198	-0.471703	0.676515
H426	H	0.333802	0.028297	1.176515
H427	H	-0.191505	-0.497121	0.651234
H428	H	0.308495	0.002879	1.151234
H429	H	-0.096308	-0.447576	0.582345
H430	H	0.403692	0.052424	1.082345
H431	H	-0.121680	-0.473004	0.557139
H432	H	0.378320	0.026996	1.057139
H433	H	0.263756	-0.485001	0.585661
H434	H	0.763756	0.014999	1.085661
H435	H	0.026581	-0.432337	0.406123
H436	H	0.526581	0.067663	0.906123
H437	H	0.221368	-0.351757	0.543370
H438	H	0.721368	0.148243	1.043370
H439	H	0.373680	-0.393351	0.561411
H440	H	0.873680	0.106649	1.061411
O441	O	0.378251	-0.569879	0.626562
O442	O	0.878251	-0.069879	1.126562
C443	C	0.442799	-0.639027	0.584433
C444	C	0.942799	-0.139027	1.084433
C445	C	0.411340	-0.577688	0.575562
C446	C	0.911340	-0.077688	1.075562
H447	H	0.469567	-0.645359	0.543207
H448	H	0.969567	-0.145359	1.043207
H449	H	0.412593	-0.662023	0.607096
H450	H	0.912593	-0.162023	1.107096
H451	H	0.469555	-0.655106	0.609571
H452	H	0.969555	-0.155106	1.109571
H453	H	0.384583	-0.561559	0.550410
H454	H	0.884583	-0.061559	1.050410
H455	H	0.441575	-0.554729	0.552923
H456	H	0.941575	-0.054729	1.052923
O457	O	0.265589	-0.350018	0.594715
O458	O	0.765589	0.149982	1.094715
C459	C	0.271600	-0.260299	0.557690
C460	C	0.771600	0.239701	1.057690
C461	C	0.303020	-0.321649	0.566603
C462	C	0.803020	0.178351	1.066603
H463	H	0.301850	-0.237343	0.534951
H464	H	0.801850	0.262657	1.034951
H465	H	0.244878	-0.253902	0.598893
H466	H	0.744878	0.246098	1.098893
H467	H	0.244805	-0.244229	0.532595
H468	H	0.744805	0.255771	1.032595
H469	H	0.329845	-0.337760	0.591679
H470	H	0.829845	0.162240	1.091679
H471	H	0.329708	-0.328010	0.525381
H472	H	0.829708	0.171990	1.025381
H473	H	0.136793	-0.351798	0.712725
H474	H	0.636793	0.148202	1.212725
O475	O	0.188901	-0.243625	0.499994
O476	O	0.688901	0.256375	0.999994
C477	C	0.184457	-0.226091	0.414408
C478	C	0.684457	0.273909	0.914408
C479	C	0.169314	-0.257521	0.476228
C480	C	0.669314	0.242479	0.976228
H481	H	0.168618	-0.237305	0.395177
H482	H	0.668618	0.262695	0.895177
H483	H	0.230733	-0.237330	0.395089
H484	H	0.730733	0.262670	0.895089
H485	H	0.165198	-0.180334	0.407201
H486	H	0.665198	0.319666	0.907201
H487	H	0.188537	-0.303285	0.483485
H488	H	0.688537	0.196715	0.983485
H489	H	0.123034	-0.246236	0.495517
H490	H	0.623034	0.253764	0.995517
O491	O	-0.035193	-0.519231	0.224342
O492	O	0.464807	-0.019231	0.724342
C493	C	-0.107590	-0.433572	0.206749
C494	C	0.392410	0.066428	0.706749
C495	C	-0.092430	-0.495387	0.238212
C496	C	0.407570	0.004613	0.738212
H497	H	-0.153867	-0.414273	0.217960
H498	H	0.346133	0.085727	0.717960
H499	H	-0.088304	-0.426329	0.160987
H500	H	0.411696	0.073671	0.660987
H501	H	-0.091817	-0.414344	0.218037
H502	H	0.408183	0.085656	0.718037
H503	H	-0.108200	-0.514656	0.226970
H504	H	0.391800	-0.014656	0.726970
H505	H	-0.111709	-0.502591	0.283966
H506	H	0.388291	-0.002591	0.783966
O507	O	0.056838	-0.703372	0.224522
O508	O	0.556838	-0.203372	0.724522
C509	C	0.101026	-0.797985	0.230623
C510	C	0.601026	-0.297985	0.730623
C511	C	0.064846	-0.757061	0.261995
C512	C	0.564846	-0.257061	0.761995
H513	H	0.107501	-0.841402	0.260906
H514	H	0.607501	-0.341402	0.760906
H515	H	0.142187	-0.791502	0.203952
H516	H	0.642187	-0.291502	0.703952
H517	H	0.080140	-0.791343	0.203780
H518	H	0.580140	-0.291343	0.703780
H519	H	0.085684	-0.763679	0.288867
H520	H	0.585684	-0.263679	0.788867
H521	H	0.023686	-0.763555	0.288632
H522	H	0.523686	-0.263555	0.788632
H523	H	0.016937	-0.731954	0.332612
H524	H	0.516937	-0.231954	0.832612
H525	H	-0.067739	-0.562558	0.381123
H526	H	0.432261	-0.062558	0.881123
H527	H	-0.033252	-0.528055	0.415829
H528	H	0.466748	-0.028055	0.915829
H529	H	0.051198	-0.697438	0.500669
H530	H	0.551198	-0.197438	1.000669
H531	H	0.058362	-0.738230	0.391661
H532	H	0.558362	-0.238230	0.891661
O533	O	0.018840	-0.740781	0.468226
O534	O	0.518840	-0.240781	0.968226
C535	C	0.014328	-0.826362	0.540661
C536	C	0.514328	-0.326362	1.040661
C537	C	-0.000814	-0.764549	0.525461
C538	C	0.499186	-0.264549	1.025461
H539	H	-0.001565	-0.845595	0.586935
H540	H	0.498435	-0.345595	1.086935
H541	H	0.060607	-0.845712	0.525002
H542	H	0.560607	-0.345712	1.025002
H543	H	-0.004880	-0.833534	0.521289
H544	H	0.495120	-0.333534	1.021289
H545	H	0.018357	-0.757328	0.544828
H546	H	0.518357	-0.257328	1.044828
H547	H	-0.047097	-0.745230	0.541111
H548	H	0.452903	-0.245230	1.041111
O549	O	0.101617	-0.846342	0.424951
O550	O	0.601617	-0.346342	0.924951
C551	C	0.191338	-0.840424	0.388153
C552	C	0.691338	-0.340424	0.888153
C553	C	0.130008	-0.808949	0.396993
C554	C	0.630008	-0.308949	0.896993
H555	H	0.214308	-0.810205	0.365559
H556	H	0.714308	-0.310205	0.865559
H557	H	0.207488	-0.867178	0.362991
H558	H	0.707488	-0.367178	0.862991
H559	H	0.197613	-0.867196	0.429407
H560	H	0.697613	-0.367196	0.929407
H561	H	0.123686	-0.782147	0.355765
H562	H	0.623686	-0.282147	0.855765
H563	H	0.113888	-0.782230	0.422181
H564	H	0.613888	-0.282230	0.922181
H565	H	-0.109425	-0.738032	0.455342
H566	H	0.390575	-0.238032	0.955342
O567	O	-0.080792	-0.846120	0.494179
O568	O	0.419208	-0.346120	0.994179
C569	C	-0.148018	-0.863513	0.489045
C570	C	0.351982	-0.363513	0.989045
C571	C	-0.107531	-0.832205	0.459187
C572	C	0.392469	-0.332205	0.959187
H573	H	-0.169639	-0.852283	0.460762
H574	H	0.330361	-0.352283	0.960762
H575	H	-0.179466	-0.852181	0.527109
H576	H	0.320534	-0.352181	1.027109
H577	H	-0.124889	-0.909289	0.501359
H578	H	0.375111	-0.409289	1.001359
H579	H	-0.130613	-0.786422	0.446836
H580	H	0.369387	-0.286422	0.946836
H581	H	-0.076083	-0.843583	0.421146
H582	H	0.423917	-0.343583	0.921146
O583	O	-0.224312	-0.564958	0.367069
O584	O	0.275688	-0.064958	0.867069
C585	C	-0.218116	-0.520752	0.272430
C586	C	0.281884	-0.020752	0.772430
C587	C	-0.186798	-0.556929	0.313405
C588	C	0.313202	-0.056929	0.813405
H589	H	-0.187800	-0.514259	0.229034
H590	H	0.312200	-0.014259	0.729034
H591	H	-0.244846	-0.479595	0.278935
H592	H	0.255154	0.020405	0.778935
H593	H	-0.244894	-0.541655	0.278992
H594	H	0.255106	-0.041655	0.778992
H595	H	-0.159990	-0.536075	0.306868
H596	H	0.340010	-0.036075	0.806868
H597	H	-0.160103	-0.598085	0.306890
H598	H	0.339897	-0.098085	0.806890
H599	H	-0.116534	-0.689457	0.508068
H600	H	0.383466	-0.189457	1.008068
H601	H	-0.116227	-0.604815	0.338615
H602	H	0.383773	-0.104815	0.838615
H603	H	0.189295	-0.594927	0.405983
H604	H	0.689295	-0.094927	0.905983
