data_functionalizedCrystal
_audit_creation_method	'MofGen! by Chris Wilmer'
_symmetry_space_group_name_H-M	'P1'
_symmetry_Int_Tables_number	1
_symmetry_cell_setting	triclinic
loop_
_symmetry_equiv_pos_as_xyz
  x,y,z
_cell_length_a	14.971486
_cell_length_b	15.995350
_cell_length_c	14.048226
_cell_angle_alpha	89.995798
_cell_angle_beta	89.998499
_cell_angle_gamma	83.553252
loop_
_atom_site_label
_atom_site_type_symbol
_atom_site_fract_x
_atom_site_fract_y
_atom_site_fract_z
O1	O	1.186822	0.109116	-0.079046
O2	O	0.926407	0.122183	-0.079072
O3	O	1.063733	-0.006231	-0.079057
O4	O	1.049496	0.237530	-0.079061
O5	O	1.063717	-0.006238	0.079264
O6	O	0.926391	0.122176	0.079250
O7	O	1.186806	0.109109	0.079275
Zn8	Zn	1.056596	0.115641	0.104399
Zn9	Zn	1.056617	0.115651	-0.104196
O10	O	1.049480	0.237523	0.079261
C11	C	0.893075	0.121595	0.000086
C12	C	0.793780	0.119844	0.000076
C13	C	1.063137	-0.037430	0.000101
C14	C	1.061372	-0.130382	0.000096
C15	C	0.736468	0.195284	0.000076
C16	C	0.643171	0.193633	0.000090
C17	C	0.607187	0.116542	0.000098
C18	C	0.664505	0.041097	0.000100
C19	C	0.757801	0.042748	0.000093
C20	C	0.470047	0.037660	0.000113
C21	C	0.376745	0.036008	0.000119
C22	C	0.355417	0.188545	0.000111
C23	C	0.448712	0.190197	0.000104
C24	C	0.506025	0.114751	0.000104
C25	C	1.055035	-0.468136	0.000098
C26	C	0.957234	-0.420800	-0.000266
C27	C	0.958999	-0.324108	0.000091
C28	C	1.058178	-0.300572	0.000097
C29	C	1.106408	-0.341606	0.090509
C30	C	1.103951	-0.438244	0.090584
C31	C	1.105990	-0.438591	-0.089456
C32	C	1.105967	-0.341646	-0.090651
C33	C	1.059960	-0.205873	0.000099
C34	C	1.053256	-0.562835	0.000103
C35	C	1.220138	0.109697	0.000116
C36	C	1.319433	0.111448	0.000119
C37	C	1.050077	0.268722	0.000100
C38	C	1.051841	0.361674	0.000099
N39	N	1.056587	0.115634	0.246760
N40	N	1.056633	0.115652	-0.246557
C41	C	1.117414	0.058795	0.296584
C42	C	1.117421	0.058795	0.396242
C43	C	1.056603	0.115637	0.446073
C44	C	0.995769	0.172478	0.396242
C45	C	0.995760	0.172474	0.296586
C46	C	0.995795	0.172484	0.603956
C47	C	0.995806	0.172490	0.703619
C48	C	1.117456	0.058805	0.703612
C49	C	1.117446	0.058801	0.603956
C50	C	1.056614	0.115643	0.554132
H51	H	0.765759	0.258060	0.000070
C52	C	0.525876	0.280264	-0.081301
C53	C	0.580175	0.276560	0.000081
H54	H	0.486983	0.331461	-0.081303
H55	H	0.562713	0.277735	-0.136503
H56	H	0.491094	0.234114	-0.081279
H57	H	0.614962	0.322707	0.000055
H58	H	0.543333	0.279098	0.055297
C59	C	0.874896	-0.351149	0.140125
C60	C	0.907474	-0.286541	0.087733
H61	H	0.843093	-0.327956	0.194239
H62	H	0.835653	-0.379233	0.101405
H63	H	0.923851	-0.390068	0.160277
H64	H	0.858517	-0.247625	0.067575
H65	H	0.946718	-0.258444	0.126460
C66	C	1.239097	0.040755	0.184447
C67	C	1.184227	-0.003709	0.241789
H68	H	1.280334	0.002157	0.150619
H69	H	1.202869	0.074617	0.140532
H70	H	1.271312	0.075635	0.223307
H71	H	1.152006	-0.038584	0.202929
H72	H	1.220459	-0.037586	0.285709
C73	C	0.875557	0.284870	0.613968
C74	C	0.928932	0.234970	0.549187
H75	H	0.834287	0.323450	0.580154
H76	H	0.843387	0.249970	0.652843
H77	H	0.912801	0.315042	0.652832
H78	H	0.891688	0.204793	0.510328
H79	H	0.961104	0.269875	0.510296
H80	H	1.070705	-0.314429	-0.157536
H81	H	1.166950	0.012513	0.436809
H82	H	0.308748	0.249976	0.000115
C83	C	0.587342	-0.048991	0.081495
C84	C	0.533044	-0.045273	0.000112
H85	H	0.626229	-0.100192	0.081491
H86	H	0.622123	-0.002850	0.081485
H87	H	0.550497	-0.046468	0.136702
H88	H	0.569889	-0.047789	-0.055095
H89	H	0.498261	-0.091427	0.000113
H90	H	0.478007	0.252971	0.000089
C91	C	0.366191	-0.094518	-0.081246
C92	C	0.337186	-0.048729	0.000133
H93	H	0.341771	-0.146833	-0.081233
H94	H	0.346518	-0.063454	-0.136450
H95	H	0.429957	-0.104334	-0.081236
H96	H	0.273419	-0.038908	0.000120
H97	H	0.356853	-0.079800	0.055351
C98	C	1.136568	-0.055305	0.492177
C99	C	1.184184	-0.003884	0.549309
H100	H	1.177736	-0.094062	0.458476
H101	H	1.099229	-0.085268	0.531156
H102	H	1.100455	-0.021455	0.448142
H103	H	1.220292	-0.037734	0.593349
H104	H	1.221538	0.026082	0.510326
H105	H	1.166988	0.012522	0.744185
C106	C	0.874109	0.190449	0.815725
C107	C	0.928952	0.234961	0.758406
H108	H	0.832841	0.229017	0.849554
H109	H	0.841937	0.155551	0.776857
H110	H	0.910358	0.156600	0.859649
H111	H	0.892704	0.268805	0.714477
H112	H	0.961127	0.269873	0.797277
H113	H	0.635200	-0.021672	0.000119
C114	C	1.028199	-0.366958	0.235048
C115	C	1.061170	-0.303354	0.181338
H116	H	1.000273	-0.343343	0.291123
H117	H	0.985484	-0.392727	0.198470
H118	H	1.076485	-0.407932	0.251991
H119	H	1.012883	-0.262382	0.164389
H120	H	1.103889	-0.277571	0.217923
H121	H	0.804464	-0.018683	0.000092
C122	C	1.222744	-0.270449	-0.020775
C123	C	1.203610	-0.320819	-0.098017
H124	H	1.283029	-0.257598	-0.025316
H125	H	1.183033	-0.219783	-0.021547
H126	H	1.215160	-0.299812	0.036922
H127	H	1.211187	-0.291453	-0.155715
H128	H	1.243332	-0.371494	-0.097255
H129	H	0.921086	-0.295721	-0.064720
H130	H	0.918150	-0.439368	-0.065103
H131	H	0.946246	0.218758	0.436821
C132	C	1.260903	-0.420628	0.099397
C133	C	1.200878	-0.481687	0.096145
H134	H	1.320739	-0.447447	0.102840
H135	H	1.254133	-0.386904	0.043654
H136	H	1.248552	-0.386130	0.153916
H137	H	1.213225	-0.516181	0.041622
H138	H	1.207653	-0.515425	0.151895
H139	H	0.918310	-0.440436	0.064202
H140	H	1.068768	-0.456584	0.158165
H141	H	0.946227	0.218756	0.256020
C142	C	0.989855	-0.510391	-0.159700
C143	C	1.062832	-0.466349	-0.181968
H144	H	0.963202	-0.527521	-0.216810
H145	H	1.010161	-0.558560	-0.122798
H146	H	0.946702	-0.474953	-0.124401
H147	H	1.105989	-0.501789	-0.217261
H148	H	1.042527	-0.418173	-0.218886
H149	H	1.178098	-0.470280	-0.090060
H150	H	1.179272	-0.327407	0.093875
