data_functionalizedCrystal
_audit_creation_method	'MofGen! by Chris Wilmer'
_symmetry_space_group_name_H-M	'P1'
_symmetry_Int_Tables_number	1
_symmetry_cell_setting	triclinic
loop_
_symmetry_equiv_pos_as_xyz
  x,y,z
_cell_length_a	21.395362
_cell_length_b	21.295416
_cell_length_c	21.395355
_cell_angle_alpha	90.018978
_cell_angle_beta	89.956060
_cell_angle_gamma	89.953791
loop_
_atom_site_label
_atom_site_type_symbol
_atom_site_fract_x
_atom_site_fract_y
_atom_site_fract_z
Zn1	Zn	0.957861	0.250415	-0.354584
Zn2	Zn	0.957764	0.355667	-0.249805
Zn3	Zn	0.853076	0.250445	-0.249785
Zn4	Zn	0.853046	0.355680	-0.354510
O5	O	0.905437	0.303052	-0.302171
O6	O	1.045526	0.264359	-0.340724
O7	O	0.943849	0.341716	-0.162125
O8	O	0.867029	0.162351	-0.263709
O9	O	1.045455	0.341687	-0.263744
O10	O	0.944014	0.162330	-0.340704
O11	O	0.866935	0.264409	-0.162110
O12	O	0.765394	0.264422	-0.263638
O13	O	0.866978	0.341709	-0.442198
O14	O	0.765372	0.341738	-0.340579
O15	O	0.943985	0.264372	-0.442252
O16	O	0.943820	0.443758	-0.263672
O17	O	0.866884	0.443767	-0.340598
C18	C	0.742649	0.303085	-0.302098
C19	C	0.673008	0.303114	-0.302082
C20	C	0.640300	0.343426	-0.342085
C21	C	0.574864	0.343411	-0.342113
C22	C	0.542140	0.303090	-0.302127
C23	C	0.574856	0.262771	-0.262121
C24	C	0.640290	0.262783	-0.262098
C25	C	0.438415	0.298019	-0.245721
C26	C	0.372982	0.298011	-0.245743
C27	C	0.340319	0.303049	-0.302196
C28	C	0.373097	0.308108	-0.358629
C29	C	0.438531	0.308120	-0.358607
C30	C	0.471187	0.303072	-0.302147
C31	C	0.236658	0.343346	-0.342233
C32	C	0.171222	0.343326	-0.342262
C33	C	0.171214	0.262690	-0.262264
C34	C	0.236650	0.262706	-0.262240
C35	C	0.269368	0.303038	-0.302224
C36	C	0.905355	0.466603	-0.302143
C37	C	0.905378	0.536571	-0.302152
C38	C	0.945474	0.569412	-0.262139
C39	C	0.945504	0.635155	-0.262156
C40	C	0.905426	0.668054	-0.302180
C41	C	0.865326	0.635205	-0.342200
C42	C	0.865302	0.569464	-0.342187
N43	N	0.850616	0.771336	-0.306936
N44	N	0.850641	0.833787	-0.306945
C45	C	0.905496	0.866129	-0.302224
N46	N	0.960328	0.833659	-0.297481
N47	N	0.960303	0.771202	-0.297468
C48	C	0.905447	0.739339	-0.302199
C49	C	0.945628	0.970255	-0.262227
C50	C	0.945659	1.035999	-0.262249
C51	C	0.865476	1.036048	-0.342289
C52	C	0.865451	0.970305	-0.342271
C53	C	0.905526	0.937413	-0.302237
C54	C	1.068860	0.303019	-0.302244
C55	C	1.138501	0.303005	-0.302275
C56	C	0.905537	1.138861	-0.302223
C57	C	0.905581	1.068893	-0.302273
C58	C	0.905489	0.303039	-0.465594
C59	C	0.905511	0.303033	-0.535236
C60	C	0.945607	0.262762	-0.567978
C61	C	0.945606	0.262735	-0.633413
C62	C	0.905516	0.302991	-0.666104
C63	C	0.865412	0.343265	-0.633354
C64	C	0.865410	0.343286	-0.567920
C65	C	0.900540	0.359672	-0.769767
C66	C	0.900547	0.359652	-0.835200
C67	C	0.905520	0.302924	-0.867925
C68	C	0.910499	0.246215	-0.835208
C69	C	0.910496	0.246237	-0.769774
C70	C	0.905514	0.302972	-0.737056
C71	C	0.945617	0.262620	-0.971620
C72	C	0.945612	0.262592	-1.037056
C73	C	0.865421	0.343127	-1.036996
C74	C	0.865423	0.343150	-0.971560
C75	C	0.905524	0.302897	-0.938876
C76	C	0.905421	0.303019	-0.139383
C77	C	0.905520	0.302847	-0.069742
H78	H	0.263281	0.229883	-0.229662
H79	H	0.346504	0.312209	-0.404599
H80	H	0.832847	1.062834	-0.374880
H81	H	0.914549	0.200022	-0.861851
C82	C	0.135241	0.387673	-0.386268
C83	C	0.090175	0.437041	-0.359042
C84	C	0.054194	0.481390	-0.403049
C85	C	0.063279	0.476371	-0.474282
C86	C	0.108348	0.427001	-0.501513
C87	C	0.144329	0.382652	-0.457506
H88	H	0.083447	0.440759	-0.306308
H89	H	0.020831	0.517937	-0.382891
H90	H	0.036644	0.509200	-0.506859
H91	H	0.115075	0.423283	-0.554247
H92	H	0.177691	0.346105	-0.477664
H93	H	0.832798	0.943565	-0.374851
H94	H	0.978266	0.229840	-0.945007
C95	C	0.895071	0.422078	-0.733774
C96	C	0.889605	0.484454	-0.769757
C97	C	0.884136	0.546857	-0.733764
C98	C	0.884132	0.546883	-0.661789
C99	C	0.889598	0.484505	-0.625802
C100	C	0.895068	0.422102	-0.661795
H101	H	0.889608	0.484437	-0.823040
H102	H	0.880089	0.593034	-0.760404
H103	H	0.880083	0.593078	-0.635145
H104	H	0.889596	0.484522	-0.572519
H105	H	0.899115	0.375925	-0.635155
H106	H	0.978262	0.229795	-1.063714
H107	H	0.914549	0.200062	-0.743139
H108	H	0.263299	0.376183	-0.374793
C109	C	0.989768	1.072126	-0.218231
C110	C	0.989800	1.144439	-0.218247
C111	C	1.033909	1.180568	-0.174229
C112	C	1.077986	1.144384	-0.130194
C113	C	1.077956	1.072067	-0.130176
C114	C	1.033846	1.035938	-0.174195
H115	H	0.957170	1.171228	-0.250846
H116	H	1.033932	1.234102	-0.174242
H117	H	1.110639	1.171128	-0.097609
H118	H	1.110586	1.045278	-0.097577
H119	H	1.033824	0.982404	-0.174181
H120	H	0.832696	0.661996	-0.374789
C121	C	0.989717	0.218437	-0.669440
C122	C	0.989719	0.218415	-0.741415
C123	C	1.033830	0.174118	-0.777440
C124	C	1.077938	0.129842	-0.741489
C125	C	1.077938	0.129862	-0.669510
C126	C	1.033827	0.174159	-0.633486
H127	H	0.957066	0.251193	-0.768031
H128	H	1.033830	0.174104	-0.830724
H129	H	1.110592	0.097051	-0.768157
H130	H	1.110591	0.097085	-0.642894
H131	H	1.033826	0.174174	-0.580202
H132	H	0.832651	0.542724	-0.374771
C133	C	0.821303	0.387587	-0.531897
C134	C	0.848420	0.437017	-0.486931
C135	C	0.804314	0.481319	-0.450906
C136	C	0.733090	0.476189	-0.459847
C137	C	0.705969	0.426757	-0.504815
C138	C	0.750075	0.382456	-0.540840
H139	H	0.901148	0.440816	-0.480311
H140	H	0.824391	0.517912	-0.417618
H141	H	0.700439	0.508984	-0.433179
H142	H	0.653241	0.422958	-0.511435
H143	H	0.729998	0.345863	-0.574128
C144	C	0.538875	0.387760	-0.386115
C145	C	0.574863	0.432123	-0.430093
C146	C	0.538876	0.476474	-0.474093
C147	C	0.466901	0.476462	-0.474114
C148	C	0.430909	0.432097	-0.430134
C149	C	0.466896	0.387746	-0.386134
H150	H	0.628147	0.432134	-0.430079
H151	H	0.565520	0.509316	-0.506650
H152	H	0.440261	0.509293	-0.506686
H153	H	0.377625	0.432087	-0.430148
H154	H	0.440252	0.354905	-0.353577
H155	H	0.832776	0.375947	-0.944901
C156	C	0.336929	0.292446	-0.183669
C157	C	0.264954	0.292435	-0.183689
C158	C	0.228904	0.286868	-0.121614
C159	C	0.264828	0.281312	-0.059517
C160	C	0.336807	0.281323	-0.059494
C161	C	0.372858	0.286890	-0.121570
H162	H	0.238358	0.296548	-0.229659
H163	H	0.175620	0.286860	-0.121631
H164	H	0.238141	0.277191	-0.013565
H165	H	0.363404	0.277210	-0.013525
H166	H	0.426141	0.286897	-0.121553
C167	C	0.474343	0.292475	-0.183620
C168	C	0.465359	0.234289	-0.141860
C169	C	0.501287	0.228743	-0.079762
C170	C	0.546201	0.281381	-0.059423
C171	C	0.555188	0.339571	-0.101183
C172	C	0.519259	0.345118	-0.163281
H173	H	0.432109	0.195319	-0.156916
H174	H	0.494635	0.185667	-0.048849
H175	H	0.572798	0.277275	-0.013455
H176	H	0.588437	0.378541	-0.086128
H177	H	0.525912	0.388194	-0.194195
H178	H	0.978260	0.229985	-0.541371
C179	C	0.989714	0.934066	-0.218199
C180	C	0.984646	0.943151	-0.146967
C181	C	1.028732	0.906963	-0.102939
C182	C	1.077887	0.861690	-0.130144
C183	C	1.082958	0.852603	-0.201380
C184	C	1.038872	0.888791	-0.245407
H185	H	0.948256	0.976666	-0.126825
H186	H	1.024978	0.913690	-0.050206
H187	H	1.110523	0.834902	-0.097552
H188	H	1.119347	0.819088	-0.221521
H189	H	1.042626	0.882064	-0.298141
C190	C	0.821320	0.387409	-1.072947
C191	C	0.821319	0.387387	-1.144922
C192	C	0.777213	0.431668	-1.180877
C193	C	0.733109	0.475970	-1.144857
C194	C	0.733109	0.475993	-1.072878
C195	C	0.777214	0.431713	-1.036923
H196	H	0.853969	0.354590	-1.171590
H197	H	0.777214	0.431650	-1.234161
H198	H	0.700460	0.508749	-1.171473
H199	H	0.700459	0.508790	-1.046210
H200	H	0.777213	0.431730	-0.983639
H201	H	0.548207	0.229940	-0.229564
C202	C	0.895002	0.422079	-0.871088
C203	C	0.947345	0.442550	-0.916107
C204	C	0.941766	0.505003	-0.951947
C205	C	0.883843	0.546986	-0.942767
C206	C	0.831496	0.526516	-0.897745
C207	C	0.837075	0.464063	-0.861906
H208	H	0.990226	0.411471	-0.922905
H209	H	0.980517	0.520156	-0.985275
H210	H	0.879713	0.593217	-0.969297
H211	H	0.788615	0.557595	-0.890948
H212	H	0.798324	0.448910	-0.828578
C213	C	0.676272	0.218441	-0.218088
C214	C	0.721338	0.169069	-0.245308
C215	C	0.757321	0.124728	-0.201295
C216	C	0.748238	0.129758	-0.130062
C217	C	0.703170	0.179132	-0.102838
C218	C	0.667187	0.223473	-0.146851
H219	H	0.728064	0.165343	-0.298042
H220	H	0.790684	0.088178	-0.221449
H221	H	0.774875	0.096934	-0.097482
H222	H	0.696444	0.182858	-0.050104
H223	H	0.633824	0.260023	-0.126698
C224	C	0.474587	0.313676	-0.420680
C225	C	0.438669	0.319216	-0.482781
C226	C	0.474726	0.324768	-0.544854
C227	C	0.546700	0.324780	-0.544827
C228	C	0.582623	0.319239	-0.482724
C229	C	0.546566	0.313687	-0.420650
H230	H	0.385385	0.319208	-0.482803
H231	H	0.448133	0.328870	-0.590827
H232	H	0.573392	0.328890	-0.590778
H233	H	0.635907	0.319247	-0.482702
H234	H	0.573159	0.309585	-0.374677
C235	C	0.989562	0.533234	-0.218107
C236	C	0.984487	0.542322	-0.146875
C237	C	1.028577	0.506144	-0.102843
C238	C	1.077741	0.460878	-0.130042
C239	C	1.082818	0.451788	-0.201277
C240	C	1.038729	0.487966	-0.245309
H241	H	0.948091	0.575832	-0.126738
H242	H	1.024819	0.512873	-0.050110
H243	H	1.110379	0.434096	-0.097447
H244	H	1.119215	0.418278	-0.221415
H245	H	1.042487	0.481237	-0.298042
H246	H	0.666935	0.376266	-0.374644
H247	H	0.978157	0.661899	-0.229573
H248	H	0.832768	0.376039	-0.659975
H249	H	0.144571	0.229857	-0.229709
