data_functionalizedCrystal
_audit_creation_method	'MofGen! by Chris Wilmer'
_symmetry_space_group_name_H-M	'P1'
_symmetry_Int_Tables_number	1
_symmetry_cell_setting	triclinic
loop_
_symmetry_equiv_pos_as_xyz
  x,y,z
_cell_length_a	19.077115
_cell_length_b	21.295417
_cell_length_c	19.076919
_cell_angle_alpha	92.267699
_cell_angle_beta	90.076897
_cell_angle_gamma	87.725900
loop_
_atom_site_label
_atom_site_type_symbol
_atom_site_fract_x
_atom_site_fract_y
_atom_site_fract_z
Zn1	Zn	1.058240	-0.304535	-0.440381
Zn2	Zn	1.062869	-0.405748	-0.322866
Zn3	Zn	0.945458	-0.296102	-0.318176
Zn4	Zn	0.940691	-0.405368	-0.435620
O5	O	1.001815	-0.352938	-0.379261
O6	O	1.157185	-0.321649	-0.428748
O7	O	1.051227	-0.387833	-0.223913
O8	O	0.960476	-0.209134	-0.334417
O9	O	1.160587	-0.396009	-0.342410
O10	O	1.043336	-0.215330	-0.424200
O11	O	0.964966	-0.307276	-0.220468
O12	O	0.846495	-0.306908	-0.329801
O13	O	0.952352	-0.395363	-0.534583
O14	O	0.842992	-0.387186	-0.416086
O15	O	1.038714	-0.321281	-0.538081
O16	O	1.046605	-0.493784	-0.337794
O17	O	0.956841	-0.493505	-0.420633
C18	C	0.819247	-0.346091	-0.371918
C19	C	0.741143	-0.343178	-0.368794
C20	C	0.301695	-0.322256	-0.346390
C21	C	0.375081	-0.324997	-0.349330
C22	C	0.409970	-0.368227	-0.395651
C23	C	0.371468	-0.408714	-0.439040
C24	C	0.298083	-0.405970	-0.436103
C25	C	0.629256	-0.380921	-0.409246
C26	C	0.702647	-0.383664	-0.412178
C27	C	0.706255	-0.299945	-0.322468
C28	C	0.632868	-0.297207	-0.319533
C29	C	0.594372	-0.337692	-0.362925
N30	N	0.484983	-0.371031	-0.398655
N31	N	0.519360	-0.334884	-0.359923
C32	C	1.001727	-0.516485	-0.379222
C33	C	1.001752	-0.586454	-0.379231
C34	C	1.044870	-0.622490	-0.426012
C35	C	1.044894	-0.688234	-0.426031
C36	C	1.001808	-0.717940	-0.379256
C37	C	0.958682	-0.681896	-0.332471
C38	C	0.958653	-0.616153	-0.332459
N39	N	0.998974	-0.818882	-0.317547
N40	N	0.999005	-0.881335	-0.317561
C41	C	1.001889	-0.916019	-0.379291
N42	N	1.004755	-0.885891	-0.441008
N43	N	1.004728	-0.823432	-0.440994
C44	C	1.001834	-0.789226	-0.379264
C45	C	1.045036	-1.023342	-0.426096
C46	C	1.045055	-1.089087	-0.426115
C47	C	0.958846	-1.082747	-0.332549
C48	C	0.958823	-1.017004	-0.332536
C49	C	1.001921	-0.987305	-0.379308
C50	C	1.185095	-0.359812	-0.386633
C51	C	1.263198	-0.362741	-0.389774
C52	C	0.994485	-0.359220	-0.562541
C53	C	0.991361	-0.361897	-0.640644
C54	C	1.001922	-0.188754	-0.379316
C55	C	1.001967	-0.118788	-0.379340
C56	C	1.034855	-0.324586	-0.679159
C57	C	1.031912	-0.327098	-0.752544
C58	C	0.985477	-0.366926	-0.787414
C59	C	0.941978	-0.404238	-0.748893
C60	C	0.944918	-0.401722	-0.675509
C61	C	0.971858	-0.378584	-1.006694
C62	C	0.968922	-0.381099	-1.080084
C63	C	1.058856	-0.303958	-1.083730
C64	C	1.061795	-0.301448	-1.010344
C65	C	1.018293	-0.338758	-0.971830
N66	N	0.982469	-0.369496	-0.862426
N67	N	1.021298	-0.336183	-0.896819
C68	C	1.009157	-0.346637	-0.196696
C69	C	1.012416	-0.343788	-0.118599
H70	H	0.604467	-0.262008	-0.281808
O71	O	0.416606	-0.281346	-0.302518
H72	H	0.380018	-0.250836	-0.269803
O73	O	1.105751	-0.263704	-1.125278
H74	H	1.140141	-0.294355	-1.160154
O75	O	0.747781	-0.256281	-0.275675
H76	H	0.735890	-0.264585	-0.219939
O77	O	0.740281	-0.430288	-0.462146
H78	H	0.701184	-0.457975	-0.491831
H79	H	0.931107	-0.413532	-1.108472
H80	H	1.072670	-0.292156	-0.650774
O81	O	0.256562	-0.449638	-0.482899
H82	H	0.199671	-0.440462	-0.473082
O83	O	0.587745	-0.424708	-0.455901
H84	H	0.624339	-0.455276	-0.488546
H85	H	0.399881	-0.443911	-0.476759
H86	H	1.080166	-1.118426	-0.464213
O87	O	1.091366	-0.590456	-0.476446
H88	H	1.121355	-0.626564	-0.508977
H89	H	0.923541	-0.586812	-0.294363
O90	O	1.091407	-0.727114	-0.476484
H91	H	1.121375	-0.695417	-0.509001
O92	O	0.264079	-0.275631	-0.296417
H93	H	0.232065	-0.301280	-0.259262
H94	H	0.923760	-1.106933	-0.294468
H95	H	0.923599	-0.706087	-0.294388
O96	O	1.091511	-0.991301	-0.476545
H97	H	1.121491	-1.027408	-0.509087
O98	O	0.912330	-0.978130	-0.282066
H99	H	0.882379	-1.009829	-0.249536
H100	H	1.067331	-0.296717	-0.783900
O101	O	1.111881	-0.258494	-0.972734
H102	H	1.141630	-0.232969	-1.011846
H103	H	0.936446	-0.408974	-0.975345
H104	H	0.904167	-0.436664	-0.777290
H105	H	0.909493	-0.432098	-0.644150
