data_functionalizedCrystal
_audit_creation_method	'MofGen! by Chris Wilmer'
_symmetry_space_group_name_H-M	'P1'
_symmetry_Int_Tables_number	1
_symmetry_cell_setting	triclinic
loop_
_symmetry_equiv_pos_as_xyz
  x,y,z
_cell_length_a	12.827892
_cell_length_b	19.805407
_cell_length_c	12.827893
_cell_angle_alpha	90.006715
_cell_angle_beta	90.007263
_cell_angle_gamma	90.015392
loop_
_atom_site_label
_atom_site_type_symbol
_atom_site_fract_x
_atom_site_fract_y
_atom_site_fract_z
Zn1	Zn	-0.416215	1.034702	0.590930
Zn2	Zn	-0.590923	1.034664	0.416190
Zn3	Zn	-0.416197	0.921542	0.416195
Zn4	Zn	-0.590914	0.921502	0.590881
O5	O	-0.503562	0.978102	0.503549
O6	O	-0.439401	1.129413	0.567769
O7	O	-0.567742	1.019659	0.269955
O8	O	-0.269963	0.936585	0.439396
O9	O	-0.567759	1.129385	0.439388
O10	O	-0.269976	1.019723	0.567773
O11	O	-0.439371	0.936548	0.269958
O12	O	-0.439362	0.826820	0.439349
O13	O	-0.567744	0.936517	0.737124
O14	O	-0.567727	0.826790	0.567690
O15	O	-0.439393	1.019684	0.737159
O16	O	-0.737158	1.019620	0.439341
O17	O	-0.737152	0.936480	0.567686
C18	C	-0.503542	0.802246	0.503515
C19	C	-0.503559	0.727014	0.503526
C20	C	-0.775072	0.978060	0.503531
C21	C	-0.891225	0.978104	0.503558
C22	C	-0.570499	0.691672	0.570245
C23	C	-0.570501	0.620984	0.570260
C24	C	-0.503567	0.585638	0.503549
C25	C	-0.436620	0.620985	0.436827
C26	C	-0.436614	0.691672	0.436818
C27	C	-0.436643	0.335912	0.436861
C28	C	-0.436657	0.265220	0.436873
C29	C	-0.570530	0.265223	0.570303
C30	C	-0.570524	0.335911	0.570294
C31	C	-0.503573	0.371251	0.503576
C32	C	-0.503571	0.447900	0.503563
C33	C	-0.503574	0.508991	0.503557
C34	C	-0.942979	1.019293	0.440119
C35	C	-1.063029	1.019339	0.440146
C36	C	-0.230992	0.978163	0.503590
C37	C	-0.114839	0.978189	0.503608
C38	C	-0.503569	0.978100	0.776119
C39	C	-0.503572	0.978100	0.892272
C40	C	-0.503583	1.154645	0.503584
C41	C	-0.503592	1.229877	0.503598
C42	C	-0.440068	1.019249	0.944075
C43	C	-0.440069	1.019249	1.064125
C44	C	-0.503579	0.978099	1.232039
C45	C	-0.503576	0.978099	1.115886
H46	H	-0.625007	0.720445	0.624565
H47	H	-0.898413	1.054525	0.385791
Cl48	Cl	-0.352503	0.220786	0.353003
Cl49	Cl	-0.654697	0.220791	0.654179
Cl50	Cl	-0.654658	0.576557	0.654139
Cl51	Cl	-0.352468	0.576551	0.352968
Cl52	Cl	-1.131738	1.073782	0.356282
H53	H	-0.382099	0.720447	0.382494
Cl54	Cl	-0.352474	0.380331	0.352990
Cl55	Cl	-0.654675	0.380341	0.654158
H56	H	-0.385695	1.054476	0.899548
Cl57	Cl	-1.046137	0.923736	0.587463
Cl58	Cl	-0.960027	0.923713	0.587452
H59	H	-0.385705	1.054481	1.108674
Cl60	Cl	-0.587530	0.923707	1.047119
Cl61	Cl	-0.587513	0.923702	0.961009
