data_functionalizedCrystal
_audit_creation_method	'MofGen! by Chris Wilmer'
_symmetry_space_group_name_H-M	'P1'
_symmetry_Int_Tables_number	1
_symmetry_cell_setting	triclinic
loop_
_symmetry_equiv_pos_as_xyz
  x,y,z
_cell_length_a	6.817900
_cell_length_b	12.840933
_cell_length_c	17.078472
_cell_angle_alpha	81.675883
_cell_angle_beta	79.875873
_cell_angle_gamma	88.345099
loop_
_atom_site_label
_atom_site_type_symbol
_atom_site_fract_x
_atom_site_fract_y
_atom_site_fract_z
V1	V	-3.878750	0.281214	0.111637
O2	O	-3.888907	0.320379	-0.003441
O3	O	-3.812211	0.236475	0.219508
O4	O	-3.774495	0.423395	0.110764
O5	O	-3.926883	0.132165	0.106055
V6	V	-4.371965	0.268588	0.097773
O7	O	-4.118746	0.308911	0.142050
O8	O	-4.582166	0.240891	0.067360
O9	O	-4.215298	0.313327	-0.010098
O10	O	-4.479205	0.229423	0.212851
O11	O	-4.441229	0.417637	0.103354
O12	O	-4.253013	0.126407	0.098646
C13	C	-3.654606	0.220990	0.245778
C14	C	-3.681117	0.185358	0.333969
C15	C	-3.872927	0.172230	0.379460
C16	C	-3.897865	0.138765	0.462327
C17	C	-3.730991	0.118421	0.499702
C18	C	-3.539166	0.131554	0.454205
C19	C	-3.514231	0.165026	0.371340
C20	C	-3.606509	0.459426	0.107060
C21	C	-3.602356	0.577559	0.107059
C22	C	-4.084342	0.090371	0.102348
C23	C	-4.067346	-0.027761	0.102347
V24	V	-3.861697	0.767376	0.111642
O25	O	-3.899212	0.920782	0.106060
O26	O	-3.767590	0.620536	0.110770
O27	O	-3.793620	0.766265	0.219512
O28	O	-3.873002	0.774045	-0.003435
V29	V	-4.352966	0.810284	0.097783
O30	O	-4.103631	0.739862	0.142058
O31	O	-4.560435	0.860482	0.067372
O32	O	-4.224261	0.945877	0.098653
O33	O	-4.432641	0.662793	0.103366
O34	O	-4.458851	0.809531	0.212861
O35	O	-4.198231	0.800148	-0.010089
C36	C	-4.036245	0.328807	-0.036364
C37	C	-3.988969	0.364446	-0.124555
C38	C	-3.635567	0.763448	0.245776
C39	C	-3.660743	0.765682	0.333966
C40	C	-4.020219	0.786000	-0.036361
C41	C	-3.974319	0.782730	-0.124552
C42	C	-3.851902	0.770570	0.379471
C43	C	-3.875545	0.772674	0.462333
C44	C	-3.708028	0.769883	0.499691
C45	C	-3.516854	0.764997	0.454179
C46	C	-3.493212	0.762901	0.371317
C47	C	-3.759503	0.775748	0.747074
C48	C	-3.783161	0.777842	0.829943
C49	C	-4.141851	0.785521	0.838091
C50	C	-4.118193	0.783417	0.755228
C51	C	-3.927022	0.778538	0.709723
N52	N	-3.732191	0.772030	0.584390
N53	N	-3.902860	0.776398	0.625024
C54	C	-4.142146	0.377576	-0.170045
C55	C	-4.097749	0.411046	-0.252912
C56	C	-3.900176	0.431392	-0.290286
C57	C	-3.746988	0.418257	-0.244790
C58	C	-3.791384	0.384780	-0.161926
H59	H	-3.751324	0.091167	0.567176
H60	H	-3.586122	0.434826	-0.275233
O61	O	-4.334172	0.357812	-0.133883
C62	C	-4.459825	0.376604	-0.191814
H63	H	-4.369822	0.369981	-0.253813
H64	H	-4.584703	0.316023	-0.177050
H65	H	-4.526557	0.459001	-0.191425
O66	O	-3.642778	0.372134	-0.117637
C67	C	-3.676840	0.439317	-0.058194
H68	H	-3.842066	0.459937	-0.045537
H69	H	-3.629558	0.397901	-0.000745
H70	H	-3.586440	0.514438	-0.080232
O71	O	-4.035258	0.191984	0.343297
C72	C	-4.209883	0.173191	0.401228
H73	H	-4.175205	0.179826	0.463226
H74	H	-4.328357	0.233764	0.386459
H75	H	-4.267294	0.090789	0.400845
H76	H	-4.222508	0.421738	-0.289943
O77	O	-3.573917	0.770848	0.702818
C78	C	-3.556132	0.678817	0.665956
H79	H	-3.710512	0.651656	0.660834
H80	H	-3.462080	0.696075	0.603428
H81	H	-3.481422	0.614304	0.703795
O82	O	-4.084111	0.125825	0.506575
C83	C	-4.108846	0.020362	0.543449
H84	H	-3.956723	-0.016543	0.548589
H85	H	-4.202416	0.017753	0.605970
H86	H	-4.187400	-0.025403	0.505607
O87	O	-3.327995	0.177664	0.327052
C88	C	-3.302410	0.110473	0.267615
H89	H	-3.454250	0.089858	0.254958
H90	H	-3.209032	0.151880	0.210164
H91	H	-3.223259	0.035350	0.289658
O92	O	-4.014841	0.773330	0.343307
C93	C	-4.188633	0.778068	0.401247
H94	H	-4.150484	0.811548	0.454990
H95	H	-4.303522	0.830917	0.373828
H96	H	-4.252429	0.695574	0.421775
H97	H	-3.403307	0.114986	0.484648
H98	H	-4.254607	0.785695	0.724817
O99	O	-4.061179	0.777593	0.506553
C100	C	-4.078967	0.869591	0.543458
H101	H	-3.965463	0.930096	0.508280
H102	H	-4.235642	0.903396	0.544221
H103	H	-4.050182	0.849672	0.607712
O104	O	-4.327452	0.790129	0.882396
C105	C	-4.358521	0.700988	0.941849
H106	H	-4.208566	0.667769	0.954490
H107	H	-4.449561	0.724461	0.999302
H108	H	-4.442557	0.638656	0.919831
H109	H	-3.380460	0.762731	0.484601
O110	O	-3.857282	0.463778	-0.370803
C111	C	-3.919704	0.386668	-0.412001
H112	H	-4.041375	0.336489	-0.370378
H113	H	-3.980496	0.426706	-0.466890
H114	H	-3.787724	0.334458	-0.432048
H115	H	-3.646736	0.775586	0.860354
H116	H	-3.337552	0.758926	0.334267
