data_functionalizedCrystal
_audit_creation_method	'MofGen! by Chris Wilmer'
_symmetry_space_group_name_H-M	'P1'
_symmetry_Int_Tables_number	1
_symmetry_cell_setting	triclinic
loop_
_symmetry_equiv_pos_as_xyz
  x,y,z
_cell_length_a	16.974813
_cell_length_b	11.792254
_cell_length_c	16.053811
_cell_angle_alpha	92.600538
_cell_angle_beta	88.912778
_cell_angle_gamma	96.203981
loop_
_atom_site_label
_atom_site_type_symbol
_atom_site_fract_x
_atom_site_fract_y
_atom_site_fract_z
O1	O	0.104775	-1.511058	-0.076531
O2	O	0.438108	-1.177724	0.256803
O3	O	0.771442	-0.844391	0.590136
O4	O	0.115898	-1.180654	-0.077278
O5	O	0.449231	-0.847321	0.256055
O6	O	0.782565	-0.513988	0.589388
O7	O	-0.004358	-1.354533	-0.069151
O8	O	0.328976	-1.021199	0.264182
O9	O	0.662309	-0.687866	0.597515
O10	O	0.225031	-1.337179	-0.084658
O11	O	0.558364	-1.003846	0.248676
O12	O	0.891697	-0.670513	0.582009
O13	O	0.002235	-1.344961	0.069262
O14	O	0.335568	-1.011627	0.402595
O15	O	0.668901	-0.678294	0.735929
O16	O	0.122490	-1.171082	0.061135
O17	O	0.455824	-0.837749	0.394468
O18	O	0.789157	-0.504415	0.727802
O19	O	0.111367	-1.501486	0.061883
O20	O	0.444701	-1.168152	0.395216
O21	O	0.778034	-0.834819	0.728550
Zn22	Zn	0.117976	-1.334764	0.083485
Zn23	Zn	0.451309	-1.001431	0.416818
Zn24	Zn	0.784642	-0.668097	0.750152
Zn25	Zn	0.109290	-1.347376	-0.098881
Zn26	Zn	0.442623	-1.014042	0.234453
Zn27	Zn	0.775956	-0.680709	0.567786
O28	O	0.231623	-1.327607	0.053756
O29	O	0.564956	-0.994274	0.387089
O30	O	0.898290	-0.660940	0.720422
C31	C	0.118494	-1.133581	-0.008024
C32	C	0.451827	-0.800248	0.325309
C33	C	0.785160	-0.466915	0.658643
C34	C	0.116396	-1.007580	-0.007881
C35	C	0.449730	-0.674247	0.325453
C36	C	0.783063	-0.340914	0.658786
C37	C	0.114692	-0.905254	-0.007768
C38	C	0.448026	-0.571920	0.325566
C39	C	0.781359	-0.238587	0.658899
C40	C	0.112562	-0.776879	-0.007622
C41	C	0.445895	-0.443546	0.325711
C42	C	0.779228	-0.110213	0.659045
C43	C	-0.030429	-1.348909	0.002039
C44	C	0.302905	-1.015575	0.335372
C45	C	0.636238	-0.682242	0.668705
C46	C	-0.117933	-1.346399	0.007949
C47	C	0.215400	-1.013065	0.341282
C48	C	0.548734	-0.679732	0.674615
C49	C	-0.162632	-1.350440	-0.064723
C50	C	0.170702	-1.017106	0.268610
C51	C	0.504035	-0.683773	0.601943
C52	C	-0.244850	-1.348073	-0.059168
C53	C	0.088483	-1.014740	0.274166
C54	C	0.421816	-0.681407	0.607499
C55	C	-0.282370	-1.341674	0.019061
C56	C	0.050964	-1.008341	0.352394
C57	C	0.384297	-0.675008	0.685727
C58	C	-0.237665	-1.337630	0.091738
C59	C	0.095669	-1.004296	0.425072
C60	C	0.429002	-0.670963	0.758405
C61	C	-0.155447	-1.339988	0.086182
C62	C	0.177887	-1.006654	0.419515
C63	C	0.511220	-0.673321	0.752849
C64	C	-0.527879	-1.334055	0.043769
C65	C	-0.194546	-1.000722	0.377103
C66	C	0.138787	-0.667388	0.710436
C67	C	-0.610104	-1.331701	0.049320
C68	C	-0.276770	-0.998367	0.382654
C69	C	0.056563	-0.665034	0.715987
C70	C	-0.617283	-1.342142	-0.101586
C71	C	-0.283950	-1.008809	0.231747
C72	C	0.049383	-0.675476	0.565080
C73	C	-0.535064	-1.344507	-0.107136
C74	C	-0.201731	-1.011174	0.226198
C75	C	0.131603	-0.677840	0.559531
C76	C	-0.490366	-1.340456	-0.034458
C77	C	-0.157032	-1.007123	0.298875
C78	C	0.176301	-0.673789	0.632208
N79	N	-0.366411	-1.339259	0.024741
N80	N	-0.033077	-1.005926	0.358075
N81	N	0.300256	-0.672593	0.691408
N82	N	-0.406325	-1.342863	-0.040140
N83	N	-0.072992	-1.009530	0.293193
N84	N	0.260341	-0.676196	0.626527
C85	C	0.257694	-1.333231	-0.017436
C86	C	0.591027	-0.999898	0.315897
C87	C	0.924360	-0.666564	0.649230
C88	C	0.345198	-1.335742	-0.023352
C89	C	0.678531	-1.002408	0.309982
C90	C	1.011864	-0.669075	0.643315
N91	N	0.123903	-1.326165	0.207945
N92	N	0.457236	-0.992832	0.541278
N93	N	0.790570	-0.659499	0.874611
C94	C	0.108772	-0.548558	-0.007369
C95	C	0.442105	-0.215225	0.325964
C96	C	0.775439	0.118108	0.659297
C97	C	0.110869	-0.674559	-0.007506
C98	C	0.444203	-0.341225	0.325827
C99	C	0.777536	-0.007892	0.659161
C100	C	0.072752	-1.400178	0.255095
C101	C	0.406086	-1.066844	0.588429
C102	C	0.739419	-0.733511	0.921762
C103	C	0.076906	-1.394173	0.342222
C104	C	0.410240	-1.060840	0.675555
C105	C	0.743573	-0.727506	1.008888
C106	C	0.132215	-1.314161	0.382195
C107	C	0.465548	-0.980828	0.715528
C108	C	0.798881	-0.647494	1.048862
C109	C	0.183367	-1.240141	0.335038
C110	C	0.516701	-0.906808	0.668371
C111	C	0.850034	-0.573474	1.001705
C112	C	0.179209	-1.246141	0.247914
C113	C	0.512543	-0.912807	0.581247
C114	C	0.845876	-0.579474	0.914580
C115	C	0.150355	-1.287954	0.642379
C116	C	0.483688	-0.954621	0.975712
C117	C	0.817022	-0.621287	1.309045
C118	C	0.154511	-1.281962	0.729509
C119	C	0.487844	-0.948629	1.062842
C120	C	0.821178	-0.615295	1.396176
C121	C	0.048048	-1.435994	0.736687
C122	C	0.381382	-1.102660	1.070020
C123	C	0.714715	-0.769327	1.403353
C124	C	0.043898	-1.441991	0.649560
C125	C	0.377232	-1.108657	0.982894
C126	C	0.710565	-0.775324	1.316227
C127	C	0.095048	-1.367967	0.602411
C128	C	0.428381	-1.034633	0.935744
C129	C	0.761715	-0.701300	1.269078
N130	N	0.136464	-1.308024	0.471252
N131	N	0.469797	-0.974691	0.804585
N132	N	0.803130	-0.641357	1.137918
N133	N	0.090795	-1.374099	0.513356
N134	N	0.424128	-1.040766	0.846690
N135	N	0.757462	-0.707432	1.180023
N136	N	0.103361	-1.355974	0.776660
N137	N	0.436694	-1.022641	1.109993
N138	N	0.770027	-0.689308	1.443326
H139	H	-0.132090	-1.355656	-0.128425
H140	H	0.201243	-1.022323	0.204908
H141	H	0.534576	-0.688990	0.538241
H142	H	0.220860	-1.185871	0.209524
H143	H	0.554194	-0.852537	0.542857
H144	H	0.887527	-0.519204	0.876191
H145	H	-0.001138	-1.507143	0.617016
H146	H	0.332195	-1.173810	0.950349
H147	H	0.665529	-0.840476	1.283683
N148	N	0.021743	-1.474013	0.393074
N149	N	0.355077	-1.140680	0.726408
N150	N	0.688410	-0.807346	1.059741
H151	H	0.032766	-1.458071	0.454333
H152	H	0.366099	-1.124738	0.787666
H153	H	0.699433	-0.791404	1.121000
H154	H	-0.034959	-1.461791	0.381637
H155	H	0.298374	-1.128457	0.714971
H156	H	0.631707	-0.795124	1.048304
H157	H	-0.281241	-1.351369	-0.118345
H158	H	0.052092	-1.018036	0.214988
H159	H	0.385425	-0.684702	0.548322
H160	H	-0.640648	-1.326484	0.113027
H161	H	-0.307315	-0.993151	0.446360
H162	H	0.026018	-0.659817	0.779693
H163	H	0.228398	-1.174988	0.367589
H164	H	0.561732	-0.841654	0.700923
H165	H	0.895065	-0.508321	1.034256
H166	H	-0.491497	-1.330779	0.102949
H167	H	-0.158164	-0.997446	0.436282
H168	H	0.175169	-0.664113	0.769615
H169	H	-0.268219	-1.332413	0.155434
H170	H	0.065115	-0.999079	0.488767
H171	H	0.398448	-0.665746	0.822100
H172	H	0.192005	-1.227683	0.603996
H173	H	0.525338	-0.894349	0.937330
H174	H	0.858671	-0.561016	1.270663
H175	H	-0.504522	-1.349719	-0.170838
H176	H	-0.171189	-1.016386	0.162496
H177	H	0.162145	-0.683052	0.495829
H178	H	0.027718	-1.465336	0.222555
H179	H	0.361051	-1.132003	0.555888
H180	H	0.694384	-0.798670	0.889222
N181	N	-0.665493	-1.346513	-0.179970
N182	N	-0.332159	-1.013179	0.153363
N183	N	0.001174	-0.679846	0.486697
H184	H	-0.693680	-1.275475	-0.181446
H185	H	-0.360347	-0.942142	0.151887
H186	H	-0.027014	-0.608808	0.485221
H187	H	-0.629197	-1.350967	-0.230322
H188	H	-0.295864	-1.017633	0.103011
H189	H	0.037469	-0.684300	0.436344
N190	N	-0.107231	-1.335624	0.164563
N191	N	0.226102	-1.002291	0.497896
N192	N	0.559435	-0.668957	0.831230
H193	H	-0.143474	-1.331214	0.214964
H194	H	0.189859	-0.997881	0.548298
H195	H	0.523193	-0.664547	0.881631
H196	H	-0.079046	-1.406668	0.165957
H197	H	0.254288	-1.073335	0.499290
H198	H	0.587621	-0.740002	0.832624
H199	H	0.006404	-1.496259	0.775084
H200	H	0.339737	-1.162926	1.108417
H201	H	0.673070	-0.829593	1.441750
H202	H	0.199553	-1.216803	0.762051
H203	H	0.532887	-0.883470	1.095384
H204	H	0.866220	-0.550136	1.428717
