data_functionalizedCrystal
_audit_creation_method	'MofGen! by Chris Wilmer'
_symmetry_space_group_name_H-M	'P1'
_symmetry_Int_Tables_number	1
_symmetry_cell_setting	triclinic
loop_
_symmetry_equiv_pos_as_xyz
  x,y,z
_cell_length_a	14.044191
_cell_length_b	14.044220
_cell_length_c	12.503572
_cell_angle_alpha	93.843168
_cell_angle_beta	86.162165
_cell_angle_gamma	93.190327
loop_
_atom_site_label
_atom_site_type_symbol
_atom_site_fract_x
_atom_site_fract_y
_atom_site_fract_z
O1	O	1.282208	0.225145	-0.089273
O2	O	1.615542	0.558478	0.244060
O3	O	1.948875	0.891812	0.577394
O4	O	1.005536	0.216832	-0.089287
O5	O	1.338870	0.550165	0.244047
O6	O	1.672203	0.883498	0.577380
O7	O	1.139719	0.082653	-0.089269
O8	O	1.473052	0.415986	0.244064
O9	O	1.806386	0.749320	0.577397
O10	O	1.148026	0.359324	-0.089290
O11	O	1.481359	0.692657	0.244043
O12	O	1.814692	1.025990	0.577376
O13	O	1.129629	0.092762	0.089371
O14	O	1.462962	0.426096	0.422705
O15	O	1.796296	0.759429	0.756038
O16	O	0.995447	0.226941	0.089354
O17	O	1.328780	0.560274	0.422687
O18	O	1.662113	0.893608	0.756021
O19	O	1.272118	0.235254	0.089368
O20	O	1.605452	0.568588	0.422701
O21	O	1.938785	0.901921	0.756034
Cu22	Cu	1.132861	0.232021	0.105672
Cu23	Cu	1.466195	0.565354	0.439005
Cu24	Cu	1.799528	0.898687	0.772339
Cu25	Cu	1.144794	0.220065	-0.105591
Cu26	Cu	1.478127	0.553399	0.227742
Cu27	Cu	1.811460	0.886732	0.561076
O28	O	1.137936	0.369433	0.089350
O29	O	1.471269	0.702766	0.422684
O30	O	1.804603	1.036100	0.756017
C31	C	0.964870	0.218250	0.000032
C32	C	1.298203	0.551583	0.333366
C33	C	1.631536	0.884916	0.666699
C34	C	0.858727	0.207402	0.000027
C35	C	1.192060	0.540735	0.333361
C36	C	1.525394	0.874069	0.666694
C37	C	1.131038	0.052086	0.000051
C38	C	1.464372	0.385419	0.333385
C39	C	1.797705	0.718753	0.666718
C40	C	1.120194	-0.054057	0.000052
C41	C	1.453527	0.279276	0.333385
C42	C	1.786860	0.612610	0.666719
C43	C	0.613268	0.264503	0.000034
C44	C	0.946601	0.597836	0.333367
C45	C	1.279935	0.931170	0.666700
C46	C	0.664393	0.187587	0.000038
C47	C	0.997727	0.520920	0.333371
C48	C	1.331060	0.854254	0.666704
C49	C	0.772531	0.198615	0.000032
C50	C	1.105864	0.531948	0.333365
C51	C	1.439197	0.865281	0.666699
C52	C	0.505121	0.253477	0.000040
C53	C	0.838454	0.586810	0.333373
C54	C	1.171788	0.920143	0.666706
C55	C	1.100368	-0.248396	0.000036
C56	C	1.433702	0.084937	0.333369
C57	C	1.767035	0.418270	0.666702
C58	C	1.177283	-0.299524	0.000036
C59	C	1.510616	0.033809	0.333369
C60	C	1.843950	0.367142	0.666703
C61	C	1.166252	-0.407661	0.000027
C62	C	1.499585	-0.074328	0.333360
C63	C	1.832918	0.259006	0.666694
C64	C	1.111398	-0.140249	0.000045
C65	C	1.444731	0.193084	0.333378
C66	C	1.778065	0.526417	0.666711
C67	C	1.312785	0.233836	0.000046
C68	C	1.646119	0.567170	0.333380
C69	C	1.979452	0.900503	0.666713
C70	C	1.418929	0.244683	0.000044
C71	C	1.752262	0.578017	0.333378
C72	C	2.085595	0.911350	0.666711
C73	C	1.146617	0.400000	0.000027
C74	C	1.479950	0.733333	0.333361
C75	C	1.813283	1.066667	0.666694
C76	C	1.157462	0.506143	0.000020
C77	C	1.490795	0.839476	0.333353
C78	C	1.824128	1.172809	0.666686
N79	N	1.124476	0.240429	0.254263
N80	N	1.457809	0.573763	0.587597
N81	N	1.791142	0.907096	0.920930
N82	N	1.153186	0.211650	-0.254182
N83	N	1.486520	0.544983	0.079151
N84	N	1.819853	0.878316	0.412484
C85	C	1.112141	0.252807	0.473377
C86	C	1.445474	0.586141	0.806710
C87	C	1.778807	0.919474	1.140044
C88	C	1.165518	0.199275	0.526711
C89	C	1.498852	0.532608	0.860044
C90	C	1.832185	0.865941	1.193378
C91	C	1.158655	0.206162	0.648633
C92	C	1.491988	0.539495	0.981967
C93	C	1.825322	0.872829	1.315300
C94	C	1.119003	0.245921	0.351444
C95	C	1.452336	0.579254	0.684777
C96	C	1.785670	0.912588	1.018110
H97	H	0.650710	0.338629	0.000025
H98	H	0.984043	0.671962	0.333358
H99	H	1.317376	1.005296	0.666692
O100	O	1.265684	-0.254766	-0.000090
O101	O	1.599018	0.078567	0.333243
O102	O	1.932351	0.411901	0.666576
C103	C	1.281883	-0.202547	-0.092615
C104	C	1.615217	0.130787	0.240718
C105	C	1.948550	0.464120	0.574052
H106	H	1.210444	-0.185968	-0.123472
H107	H	1.543777	0.147365	0.209861
H108	H	1.877110	0.480698	0.543194
H109	H	1.324171	-0.132882	-0.071791
H110	H	1.657504	0.200451	0.261542
H111	H	1.990837	0.533785	0.594876
H112	H	1.324134	-0.246561	-0.157398
H113	H	1.657468	0.086772	0.175936
H114	H	1.990801	0.420106	0.509269
H115	H	1.026241	-0.285835	0.000029
H116	H	1.359574	0.047498	0.333363
H117	H	1.692908	0.380831	0.666696
O118	O	1.225954	0.138200	0.471947
O119	O	1.559288	0.471533	0.805281
O120	O	1.892621	0.804867	1.138614
C121	C	1.173188	0.071413	0.407079
C122	C	1.506522	0.404747	0.740412
C123	C	1.839855	0.738080	1.073745
H124	H	1.102786	0.102425	0.390260
H125	H	1.436120	0.435758	0.723593
H126	H	1.769453	0.769091	1.056926
H127	H	1.216094	0.054963	0.327984
H128	H	1.549427	0.388297	0.661317
H129	H	1.882761	0.721630	0.994651
H130	H	1.158018	0.002849	0.450535
H131	H	1.491351	0.336182	0.783868
H132	H	1.824685	0.669515	1.117202
O133	O	0.619583	0.099212	-0.000014
O134	O	0.952916	0.432545	0.333320
O135	O	1.286250	0.765878	0.666653
C136	C	0.520023	0.107729	0.000012
C137	C	0.853357	0.441062	0.333346
C138	C	1.186690	0.774395	0.666679
H139	H	0.504971	0.178382	-0.033800
H140	H	0.838304	0.511715	0.299534
H141	H	1.171637	0.845048	0.632867
H142	H	0.487528	0.046049	-0.051860
H143	H	0.820861	0.379383	0.281474
H144	H	1.154195	0.712716	0.614807
H145	H	0.487065	0.105641	0.085714
H146	H	0.820398	0.438974	0.419047
H147	H	1.153731	0.772308	0.752381
O148	O	1.051562	0.313637	0.528298
O149	O	1.384895	0.646971	0.861632
O150	O	1.718229	0.980304	1.194965
C151	C	1.058104	0.307048	0.639567
C152	C	1.391438	0.640381	0.972901
C153	C	1.724771	0.973714	1.306234
H154	H	1.130088	0.278537	0.654782
H155	H	1.463422	0.611871	0.988115
H156	H	1.796755	0.945204	1.321448
H157	H	1.051353	0.380841	0.682399
H158	H	1.384687	0.714175	1.015733
H159	H	1.718020	1.047508	1.349066
H160	H	0.998163	0.256439	0.671496
H161	H	1.331496	0.589772	1.004829
H162	H	1.664829	0.923105	1.338162
