data_functionalizedCrystal
_audit_creation_method	'MofGen! by Chris Wilmer'
_symmetry_space_group_name_H-M	'P1'
_symmetry_Int_Tables_number	1
_symmetry_cell_setting	triclinic
loop_
_symmetry_equiv_pos_as_xyz
  x,y,z
_cell_length_a	10.654550
_cell_length_b	10.654551
_cell_length_c	9.130313
_cell_angle_alpha	90.002822
_cell_angle_beta	90.006902
_cell_angle_gamma	84.485132
loop_
_atom_site_label
_atom_site_type_symbol
_atom_site_fract_x
_atom_site_fract_y
_atom_site_fract_z
O1	O	1.667840	0.176400	0.121910
O2	O	1.302361	0.193207	0.121885
O3	O	1.493503	0.002064	0.121899
O4	O	1.476698	0.367543	0.121896
O5	O	1.493491	0.002055	-0.121700
O6	O	1.302349	0.193197	-0.121713
O7	O	1.667827	0.176391	-0.121689
Cu8	Cu	1.485087	0.184793	-0.143944
Cu9	Cu	1.485102	0.184804	0.144140
O10	O	1.476686	0.367533	-0.121703
C11	C	1.255557	0.191968	0.000083
C12	C	1.116114	0.188276	0.000074
C13	C	1.036629	0.300817	0.000095
C14	C	0.905608	0.297341	0.000120
C15	C	0.933570	0.068771	0.000110
C16	C	1.064589	0.072249	0.000074
C17	C	1.088154	0.416844	0.000094
C18	C	1.008667	0.529395	0.000116
C19	C	0.877647	0.525918	0.000142
C20	C	0.826112	0.409891	0.000145
C21	C	1.492263	-0.044739	0.000103
C22	C	1.488570	-0.184182	0.000112
C23	C	1.486845	-0.249688	0.132895
C24	C	1.483364	-0.380709	0.132888
C25	C	1.483341	-0.380705	-0.132696
C26	C	1.486812	-0.249686	-0.132688
C27	C	1.488603	-0.184184	0.265696
C28	C	1.486879	-0.249691	0.398490
C29	C	1.483399	-0.380711	0.398483
C30	C	1.481642	-0.446225	0.265682
C31	C	1.714632	0.177629	0.000117
C32	C	1.854075	0.181321	0.000135
C33	C	1.477926	0.414336	0.000097
C34	C	1.481619	0.553779	0.000097
N35	N	1.485086	0.184784	-0.346566
C36	C	1.408276	0.107921	-0.576607
C37	C	1.408266	0.107907	-0.423270
C38	C	1.561931	0.261670	-0.423207
C39	C	1.561947	0.261676	-0.576541
C40	C	1.331442	0.031048	-0.653303
C41	C	1.254599	-0.045840	-0.576673
C42	C	1.254588	-0.045854	-0.423336
C43	C	1.331421	0.031021	-0.346630
N44	N	1.485113	0.184803	0.346763
H45	H	0.891600	-0.025693	0.000137
H46	H	1.129308	-0.019392	0.000062
C47	C	1.488805	-0.177638	0.544561
H48	H	1.487266	-0.235418	0.623641
H49	H	1.563270	-0.135471	0.550090
H50	H	1.417044	-0.117584	0.550081
C51	C	1.232272	0.420666	0.000081
H52	H	1.272232	0.337022	0.000083
H53	H	1.256741	0.463665	-0.084860
H54	H	1.256755	0.463653	0.085047
C55	C	1.481423	-0.452768	-0.278762
H56	H	1.479121	-0.540182	-0.259749
H57	H	1.408881	-0.422360	-0.333331
H58	H	1.555108	-0.440236	-0.333313
C59	C	1.492604	-0.040088	0.265709
H60	H	1.493449	-0.010461	0.363814
H61	H	1.566541	-0.019529	0.216662
H62	H	1.420322	-0.001381	0.216675
C63	C	1.331454	0.031065	-0.821968
H64	H	1.388214	0.087870	-0.856622
H65	H	1.357229	-0.051453	-0.856671
H66	H	1.248919	0.056817	-0.856664
H67	H	1.488190	-0.196346	-0.240812
C68	C	1.477780	-0.590340	0.265676
H69	H	1.476999	-0.619974	0.363778
H70	H	1.403875	-0.611014	0.216625
H71	H	1.550101	-0.628943	0.216639
H72	H	1.192028	-0.108468	-0.360948
C73	C	1.170092	-0.130396	-0.661043
H74	H	1.181092	-0.119370	-0.763339
H75	H	1.192675	-0.216115	-0.635925
H76	H	1.084360	-0.107849	-0.635929
H77	H	0.719425	0.407069	0.000143
C78	C	1.065350	0.657013	0.000111
H79	H	1.154764	0.642968	0.000107
H80	H	1.038114	0.703403	-0.084829
H81	H	1.038154	0.703396	0.085078
C82	C	1.331401	0.031022	-0.177963
H83	H	1.388160	0.087818	-0.143259
H84	H	1.248862	0.056752	-0.143307
H85	H	1.357188	-0.051503	-0.143268
H86	H	1.624483	0.324259	-0.360740
H87	H	0.812931	0.617562	0.000145
H88	H	1.481982	-0.434042	0.506609
H89	H	1.624513	0.324281	-0.638935
