data_functionalizedCrystal
_audit_creation_method	'MofGen! by Chris Wilmer'
_symmetry_space_group_name_H-M	'P1'
_symmetry_Int_Tables_number	1
_symmetry_cell_setting	triclinic
loop_
_symmetry_equiv_pos_as_xyz
  x,y,z
_cell_length_a	29.999520
_cell_length_b	29.998686
_cell_length_c	29.995014
_cell_angle_alpha	60.005185
_cell_angle_beta	60.010401
_cell_angle_gamma	59.993433
loop_
_atom_site_label
_atom_site_type_symbol
_atom_site_fract_x
_atom_site_fract_y
_atom_site_fract_z
O1	O	0.061772	-0.651300	0.544623
O2	O	0.561772	-0.151300	1.044623
O3	O	0.023267	-0.507084	0.438819
O4	O	0.523267	-0.007084	0.938819
O5	O	0.114589	-0.598332	0.438743
O6	O	0.614589	-0.098332	0.938743
O7	O	-0.029550	-0.560051	0.544699
O8	O	0.470450	-0.060051	1.044699
O9	O	0.144886	-0.568039	0.468961
O10	O	0.644886	-0.068039	0.968961
O11	O	0.053564	-0.476791	0.469038
O12	O	0.553564	0.023209	0.969038
O13	O	0.092069	-0.621007	0.574841
O14	O	0.592069	-0.121007	1.074841
Zn15	Zn	0.077627	-0.544089	0.526737
Zn16	Zn	0.577627	-0.044089	1.026737
Zn17	Zn	0.037709	-0.584002	0.486923
Zn18	Zn	0.537709	-0.084002	0.986923
O19	O	0.000748	-0.529758	0.574918
O20	O	0.500748	-0.029758	1.074918
N21	N	0.104871	-0.516854	0.553912
N22	N	0.604871	-0.016854	1.053912
N23	N	0.010470	-0.611242	0.459748
N24	N	0.510470	-0.111242	0.959748
C25	C	0.143162	-0.478782	0.827124
C26	C	0.643162	0.021218	1.327124
C27	C	0.378203	-0.478734	0.591892
C28	C	0.878203	0.021266	1.091892
C29	C	0.143005	-0.478752	0.591997
C30	C	0.643005	0.021248	1.091997
C31	C	0.142986	-0.243586	0.592008
C32	C	0.642986	0.256414	1.092008
C33	C	0.180857	-0.357087	0.629814
C34	C	0.680857	0.142913	1.129814
C35	C	0.180866	-0.440920	0.629807
C36	C	0.680866	0.059080	1.129807
C37	C	0.201840	-0.419964	0.650755
C38	C	0.701840	0.080036	1.150755
C39	C	0.293272	-0.404201	0.602606
C40	C	0.793272	0.095799	1.102606
C41	C	0.350426	-0.423248	0.583534
C42	C	0.850426	0.076752	1.083534
C43	C	0.350451	-0.515727	0.618798
C44	C	0.850451	-0.015727	1.118798
C45	C	0.293297	-0.496678	0.637872
C46	C	0.793297	0.003322	1.137872
C47	C	0.194628	-0.328499	0.573626
C48	C	0.694628	0.171501	1.073626
C49	C	0.175551	-0.271340	0.554591
C50	C	0.675551	0.228660	1.054591
C51	C	0.128936	-0.271362	0.647935
C52	C	0.628936	0.228638	1.147935
C53	C	0.148014	-0.328521	0.666970
C54	C	0.648014	0.171479	1.166970
C55	C	0.124672	-0.427119	0.643641
C56	C	0.624672	0.072881	1.143641
C57	C	0.105611	-0.446170	0.624592
C58	C	0.605611	0.053830	1.124592
C59	C	0.198934	-0.492820	0.577889
C60	C	0.698934	0.007180	1.077889
C61	C	0.217998	-0.473770	0.596931
C62	C	0.717998	0.026230	1.096931
C63	C	0.124740	-0.427136	0.742229
C64	C	0.624740	0.072864	1.242229
C65	C	0.105728	-0.446202	0.799386
C66	C	0.605728	0.053798	1.299386
C67	C	0.199085	-0.492863	0.799337
C68	C	0.699085	0.007137	1.299337
C69	C	0.218096	-0.473798	0.742178
C70	C	0.718096	0.026202	1.242178
C71	C	0.180923	-0.440933	0.713626
C72	C	0.680923	0.059067	1.213626
C73	C	0.264710	-0.440915	0.629773
C74	C	0.764710	0.059085	1.129773
C75	C	0.121509	-0.499370	0.889991
C76	C	0.621509	0.000630	1.389991
C77	C	0.441068	-0.498953	0.570621
C78	C	0.941068	0.001047	1.070621
C79	C	0.121297	-0.499349	0.571429
C80	C	0.621297	0.000651	1.071429
C81	C	0.121653	-0.180715	0.571802
C82	C	0.621653	0.319285	1.071802
C83	C	-0.111071	-0.648912	0.421584
C84	C	0.388929	-0.148912	0.921584
C85	C	-0.027286	-0.649018	0.421777
C86	C	0.472714	-0.149018	0.921777
C87	C	-0.048200	-0.669944	0.400740
C88	C	0.451800	-0.169944	0.900740
C89	C	-0.064036	-0.761340	0.448814
C90	C	0.435964	-0.261340	0.948814
C91	C	-0.045033	-0.818500	0.467893
C92	C	0.454967	-0.318500	0.967893
C93	C	0.047447	-0.818609	0.432797
C94	C	0.547447	-0.318609	0.932797
C95	C	0.028444	-0.761451	0.413717
C96	C	0.528444	-0.261451	0.913717
C97	C	-0.139731	-0.662677	0.477755
C98	C	0.360269	-0.162677	0.977755
C99	C	-0.196885	-0.643554	0.496701
C100	C	0.303115	-0.143554	0.996701
C101	C	-0.196717	-0.596907	0.403303
C102	C	0.303283	-0.096907	0.903303
C103	C	-0.139562	-0.616030	0.384357
C104	C	0.360438	-0.116030	0.884357
C105	C	-0.041053	-0.592827	0.407952
C106	C	0.458947	-0.092827	0.907952
C107	C	-0.022041	-0.573809	0.427083
C108	C	0.477959	-0.073809	0.927083
C109	C	0.024504	-0.667167	0.473848
C110	C	0.524504	-0.167167	0.973848
C111	C	0.005492	-0.686188	0.454725
C112	C	0.505492	-0.186188	0.954725
C113	C	-0.040886	-0.592836	0.309259
C114	C	0.459114	-0.092836	0.809259
C115	C	-0.021740	-0.573821	0.252102
C116	C	0.478260	-0.073821	0.752102
C117	C	0.024886	-0.667185	0.252163
C118	C	0.524886	-0.167185	0.752163
C119	C	0.005743	-0.686199	0.309322
C120	C	0.505743	-0.186199	0.809322
C121	C	-0.027145	-0.649023	0.337868
C122	C	0.472855	-0.149023	0.837868
C123	C	-0.027299	-0.732818	0.421728
C124	C	0.472701	-0.232818	0.921728
N125	N	0.492511	-0.516826	0.553742
N126	N	0.992511	-0.016826	1.053742
O127	O	0.679283	-0.525926	0.419277
O128	O	1.179283	-0.025926	0.919277
O129	O	0.679465	-0.632059	0.563349
O130	O	1.179465	-0.132059	1.063349
O131	O	0.679393	-0.631817	0.471975
O132	O	1.179393	-0.131817	0.971975
O133	O	0.679355	-0.526168	0.510650
O134	O	1.179355	-0.026168	1.010650
O135	O	0.588593	-0.601610	0.502313
O136	O	1.088593	-0.101610	1.002313
O137	O	0.588665	-0.601852	0.593686
O138	O	1.088665	-0.101852	1.093686
O139	O	0.588483	-0.495720	0.449614
O140	O	1.088483	0.004280	0.949614
Zn141	Zn	0.574158	-0.543990	0.526467
Zn142	Zn	1.074158	-0.043990	1.026467
Zn143	Zn	0.693790	-0.583788	0.486496
Zn144	Zn	1.193790	-0.083788	0.986496
O145	O	0.588555	-0.495962	0.540987
O146	O	1.088555	0.004038	1.040987
N147	N	0.775436	-0.610952	0.459215
N148	N	1.275436	-0.110952	0.959215
N149	N	0.104844	-0.129269	0.553931
N150	N	0.604844	0.370731	1.053931
O151	O	-0.029548	0.057600	0.544709
O152	O	0.470452	0.557600	1.044709
O153	O	0.114530	0.057617	0.438578
O154	O	0.614530	0.557617	0.938578
O155	O	0.023130	0.057594	0.438850
O156	O	0.523130	0.557594	0.938850
O157	O	0.061852	0.057623	0.544437
O158	O	0.561852	0.557623	1.044437
O159	O	0.053431	-0.033213	0.469115
O160	O	0.553431	0.466787	0.969115
O161	O	0.144831	-0.033190	0.468843
O162	O	0.644831	0.466810	0.968843
O163	O	0.000753	-0.033207	0.574974
O164	O	0.500753	0.466793	1.074974
Zn165	Zn	0.077603	-0.047616	0.526714
Zn166	Zn	0.577603	0.452384	1.026714
Zn167	Zn	0.037680	0.072026	0.486838
Zn168	Zn	0.537680	0.572026	0.986838
O169	O	0.092153	-0.033184	0.574702
O170	O	0.592153	0.466816	1.074702
N171	N	0.010432	0.153679	0.459622
N172	N	0.510432	0.653679	0.959622
N173	N	0.105130	-0.516904	0.941437
N174	N	0.605130	-0.016904	1.441437
O175	O	0.095923	-0.651280	1.128292
O176	O	0.595923	-0.151280	1.628292
O177	O	-0.010184	-0.507155	1.128318
O178	O	0.489816	-0.007155	1.628318
O179	O	-0.009938	-0.598539	1.128284
O180	O	0.490062	-0.098539	1.628284
O181	O	0.095677	-0.559897	1.128326
O182	O	0.595677	-0.059897	1.628326
O183	O	0.020315	-0.568257	1.037481
O184	O	0.520315	-0.068257	1.537481
O185	O	0.020068	-0.476874	1.037515
O186	O	0.520068	0.023126	1.537515
O187	O	0.126176	-0.620999	1.037489
O188	O	0.626176	-0.120999	1.537489
Zn189	Zn	0.077925	-0.544128	1.023085
Zn190	Zn	0.577925	-0.044128	1.523085
Zn191	Zn	0.038066	-0.584026	1.142722
Zn192	Zn	0.538066	-0.084026	1.642722
O193	O	0.125929	-0.529616	1.037523
O194	O	0.625929	-0.029616	1.537523
N195	N	0.010860	-0.611256	1.224371
N196	N	0.510860	-0.111256	1.724371
C197	C	0.034807	-0.473765	0.439352
C198	C	0.534807	0.026235	0.939352
C199	C	0.147897	-0.586765	0.439257
C200	C	0.647897	-0.086765	0.939257
C201	C	0.080529	-0.654326	0.574308
C202	C	0.580529	-0.154326	1.074308
C203	C	-0.032561	-0.541326	0.574403
C204	C	0.467439	-0.041326	1.074403
C205	C	0.634087	-0.631571	0.596668
C206	C	1.134087	-0.131571	1.096668
C207	C	0.633999	-0.631272	0.483513
C208	C	1.133999	-0.131272	0.983513
C209	C	0.633858	-0.496206	0.416295
C210	C	1.133858	0.003794	0.916295
C211	C	0.633949	-0.496507	0.529449
C212	C	1.133949	0.003493	1.029449
C213	C	0.147793	0.012327	0.439058
C214	C	0.647793	0.512327	0.939058
C215	C	0.034644	0.012187	0.439432
C216	C	0.534644	0.512187	0.939432
C217	C	-0.032548	0.012195	0.574457
C218	C	0.467452	0.512195	1.074457
C219	C	0.080639	0.012222	0.574120
C220	C	0.580639	0.512222	1.074120
C221	C	-0.009670	-0.473857	1.082920
C222	C	0.490330	0.026143	1.582920
C223	C	-0.009359	-0.587018	1.082860
C224	C	0.490641	-0.087018	1.582860
C225	C	0.125662	-0.654297	1.082887
C226	C	0.625662	-0.154297	1.582887
C227	C	0.125358	-0.541129	1.082927
C228	C	0.625358	-0.041129	1.582927
H229	H	0.059977	-0.434960	0.822668
H230	H	0.559977	0.065040	1.322668
O231	O	-0.081924	-0.531539	0.614116
O232	O	0.418076	-0.031539	1.114116
C233	C	-0.091695	-0.487344	0.626713
C234	C	0.408305	0.012656	1.126713
H235	H	-0.051156	-0.482958	0.614636
H236	H	0.448844	0.017042	1.114636
H237	H	-0.118045	-0.448205	0.603273
H238	H	0.381955	0.051795	1.103273
C239	C	-0.171326	-0.503252	0.703287
C240	C	0.328674	-0.003252	1.203287
C241	C	-0.121535	-0.497868	0.688458
C242	C	0.378465	0.002132	1.188458
H243	H	-0.189735	-0.509742	0.741373
H244	H	0.310265	-0.009742	1.241373
H245	H	-0.164745	-0.533026	0.694799
H246	H	0.335255	-0.033026	1.194799
H247	H	-0.193278	-0.470634	0.683749
H248	H	0.306722	0.029366	1.183749
H249	H	-0.099581	-0.530488	0.707990
H250	H	0.400419	-0.030488	1.207990
H251	H	-0.128113	-0.468099	0.696951
H252	H	0.371887	0.031901	1.196951
O253	O	0.164997	-0.531368	1.082957
O254	O	0.664997	-0.031368	1.582957
C255	C	0.212119	-0.578253	1.082934
C256	C	0.712119	-0.078253	1.582934
H257	H	0.200202	-0.615788	1.100116
H258	H	0.700202	-0.115788	1.600116
H259	H	0.241801	-0.573845	1.039369
H260	H	0.741801	-0.073845	1.539369
C261	C	0.254233	-0.538615	1.097443
C262	C	0.754233	-0.038615	1.597443
C263	C	0.239596	-0.584718	1.118551
C264	C	0.739596	-0.084718	1.618551
H265	H	0.271184	-0.542603	1.119412
H266	H	0.771184	-0.042603	1.619412
H267	H	0.222487	-0.507027	1.097457
H268	H	0.722487	-0.007027	1.597457
H269	H	0.278966	-0.534947	1.061140
H270	H	0.778966	-0.034947	1.561140
H271	H	0.214859	-0.588382	1.154851
H272	H	0.714859	-0.088382	1.654851
H273	H	0.271339	-0.616307	1.118544
H274	H	0.771339	-0.116307	1.618544
H275	H	0.026581	-0.432337	0.406123
H276	H	0.526581	0.067663	0.906123
O277	O	0.090428	0.012252	0.613749
O278	O	0.590428	0.512252	1.113749
C279	C	0.043567	0.012233	0.660877
C280	C	0.543567	0.512233	1.160877
H281	H	0.006018	0.029417	0.648967
H282	H	0.506018	0.529417	1.148967
H283	H	0.047993	-0.031333	0.690568
H284	H	0.547993	0.468667	1.190568
C285	C	0.083238	0.026743	0.702965
C286	C	0.583238	0.526743	1.202965
C287	C	0.037120	0.047854	0.688337
C288	C	0.537120	0.547854	1.188337
H289	H	0.079262	0.048714	0.719905
H290	H	0.579262	0.548714	1.219905
H291	H	0.114810	0.026754	0.671215
H292	H	0.614810	0.526754	1.171215
H293	H	0.086922	-0.009561	0.727705
H294	H	0.586922	0.490439	1.227705
H295	H	0.033441	0.084154	0.663592
H296	H	0.533441	0.584154	1.163592
H297	H	0.005547	0.047849	0.720083
H298	H	0.505547	0.547849	1.220083
H299	H	0.189085	0.012584	0.405656
H300	H	0.689085	0.512584	0.905656
O301	O	-0.081951	0.012295	0.614159
O302	O	0.418049	0.512295	1.114159
C303	C	-0.123125	0.059314	0.595491
C304	C	0.376875	0.559314	1.095491
H305	H	-0.104529	0.092182	0.561483
H306	H	0.395471	0.592182	1.061483
H307	H	-0.142437	0.048673	0.579210
H308	H	0.357563	0.548673	1.079210
C309	C	-0.189971	0.040283	0.684800
C310	C	0.310029	0.540283	1.184800
C311	C	-0.167133	0.080653	0.643034
C312	C	0.332867	0.580653	1.143034
H313	H	-0.217119	0.053444	0.714127
H314	H	0.282881	0.553444	1.214127
H315	H	-0.162232	0.008603	0.697377
H316	H	0.337768	0.508603	1.197377
H317	H	-0.206060	0.031419	0.671226
H318	H	0.293940	0.531419	1.171226
H319	H	-0.151038	0.089511	0.656606
H320	H	0.348962	0.589511	1.156606
H321	H	-0.194870	0.112334	0.630460
H322	H	0.305130	0.612334	1.130460
O323	O	0.024681	0.012138	0.399930
O324	O	0.524681	0.512138	0.899930
C325	C	-0.028988	0.012135	0.419827
C326	C	0.471012	0.512135	0.919827
H327	H	-0.043337	-0.005039	0.466333
H328	H	0.456663	0.494961	0.966333
H329	H	-0.057249	0.055692	0.406010
H330	H	0.442751	0.555692	0.906010
C331	C	-0.012430	-0.002415	0.340285
C332	C	0.487570	0.497585	0.840285
C333	C	-0.030052	-0.023513	0.397404
C334	C	0.469948	0.476487	0.897404
H335	H	-0.013088	-0.024402	0.326452
H336	H	0.486912	0.475598	0.826452
H337	H	0.023727	-0.002411	0.326879
H338	H	0.523727	0.497589	0.826879
H339	H	-0.035983	0.033882	0.328778
H340	H	0.464017	0.533882	0.828778
H341	H	-0.006496	-0.059807	0.408910
H342	H	0.493504	0.440193	0.908910
H343	H	-0.066206	-0.023524	0.410812
H344	H	0.433794	0.476476	0.910812
H345	H	0.088756	-0.695753	0.607538
H346	H	0.588756	-0.195753	1.107538
H347	H	0.186762	-0.248063	0.508836
H348	H	0.686762	0.251937	1.008836
O349	O	-0.049363	-0.424455	1.082952
O350	O	0.450637	0.075545	1.582952
C351	C	-0.029707	-0.390477	1.082955
C352	C	0.470293	0.109523	1.582955
H353	H	0.005343	-0.416735	1.100148
H354	H	0.505343	0.083265	1.600148
H355	H	-0.014554	-0.362903	1.039397
H356	H	0.485446	0.137097	1.539397
C357	C	-0.119102	-0.322892	1.097456
C358	C	0.380898	0.177108	1.597456
C359	C	-0.076055	-0.355142	1.118577
C360	C	0.423945	0.144858	1.618577
H361	H	-0.147692	-0.301093	1.119427
H362	H	0.352308	0.198907	1.619427
H363	H	-0.132344	-0.345782	1.097452
H364	H	0.367656	0.154218	1.597452
H365	H	-0.106467	-0.299918	1.061158
H366	H	0.393533	0.200082	1.561158
H367	H	-0.088689	-0.378120	1.154872
H368	H	0.411311	0.121880	1.654872
H369	H	-0.062816	-0.332255	1.118588
H370	H	0.437184	0.167745	1.618588
O371	O	0.634053	-0.671310	0.646052
O372	O	1.134053	-0.171310	1.146052
C373	C	0.587060	-0.686014	0.670233
C374	C	1.087060	-0.186014	1.170233
H375	H	0.554153	-0.650959	0.652205
H376	H	1.054153	-0.150959	1.152205
H377	H	0.597712	-0.723919	0.661870
H378	H	1.097712	-0.223919	1.161870
C379	C	0.606208	-0.741280	0.754439
C380	C	1.106208	-0.241280	1.254439
C381	C	0.565790	-0.698223	0.732301
C382	C	1.065790	-0.198223	1.232301
H383	H	0.593089	-0.748814	0.792726
H384	H	1.093089	-0.248814	1.292726
H385	H	0.637869	-0.731376	0.738148
H386	H	1.137869	-0.231376	1.238148
H387	H	0.615081	-0.772863	0.747465
H388	H	1.115081	-0.272863	1.247465
H389	H	0.556923	-0.666640	0.739269
H390	H	1.056923	-0.166640	1.239269
H391	H	0.534127	-0.708123	0.748595
H392	H	1.034127	-0.208123	1.248595
H393	H	-0.042525	-0.595273	1.082811
H394	H	0.457475	-0.095273	1.582811
H395	H	0.221368	-0.351757	0.543370
H396	H	0.721368	0.148243	1.043370
O397	O	0.633991	-0.670800	0.473562
O398	O	1.133991	-0.170800	0.973562
C399	C	0.633950	-0.650914	0.419899
C400	C	1.133950	-0.150914	0.919899
H401	H	0.616719	-0.604408	0.405552
H402	H	1.116719	-0.104408	0.905552
H403	H	0.677500	-0.664696	0.391626
H404	H	1.177500	-0.164696	0.891626
C405	C	0.619515	-0.730517	0.436475
C406	C	1.119515	-0.230517	0.936475
C407	C	0.598347	-0.673397	0.418855
C408	C	1.098347	-0.173397	0.918855
H409	H	0.597556	-0.744387	0.435829
H410	H	1.097556	-0.244387	0.935829
H411	H	0.619544	-0.743916	0.472628
H412	H	1.119544	-0.243916	0.972628
H413	H	0.655806	-0.741994	0.412911
H414	H	1.155806	-0.241994	0.912911
H415	H	0.562060	-0.661920	0.442422
H416	H	1.062060	-0.161920	0.942422
H417	H	0.598311	-0.659996	0.382706
H418	H	1.098311	-0.159996	0.882706
O419	O	0.165389	-0.703673	1.082804
O420	O	0.665389	-0.203673	1.582804
C421	C	0.178077	-0.713459	1.035758
C422	C	0.678077	-0.213459	1.535758
H423	H	0.141986	-0.687979	1.020077
H424	H	0.641986	-0.187979	1.520077
H425	H	0.215505	-0.701704	1.002835
H426	H	0.715505	-0.201704	1.502835
C427	C	0.234453	-0.805741	1.069282
C428	C	0.734453	-0.305741	1.569282
C429	C	0.190125	-0.774450	1.050026
C430	C	0.690125	-0.274450	1.550026
H431	H	0.241888	-0.843363	1.078082
H432	H	0.741888	-0.343363	1.578082
H433	H	0.225908	-0.799148	1.100977
H434	H	0.725908	-0.299148	1.600977
H435	H	0.265639	-0.795939	1.041843
H436	H	0.765639	-0.295939	1.541843
H437	H	0.158939	-0.784247	1.077467
H438	H	0.658939	-0.284247	1.577467
H439	H	0.198665	-0.781046	1.018335
H440	H	0.698665	-0.281046	1.518335
H441	H	0.633799	-0.462884	0.374920
H442	H	1.133799	0.037116	0.874920
H443	H	0.189295	-0.594927	0.405983
H444	H	0.689295	-0.094927	0.905983
H445	H	0.094465	-0.400370	0.718985
H446	H	0.594465	0.099630	1.218985
O447	O	0.633910	-0.456963	0.539416
O448	O	1.133910	0.043037	1.039416
C449	C	0.633982	-0.476859	0.593069
C450	C	1.133982	0.023141	1.093069
H451	H	0.616832	-0.511927	0.618903
H452	H	1.116832	-0.011927	1.118903
H453	H	0.677555	-0.492064	0.592232
H454	H	1.177555	0.007936	1.092232
C455	C	0.619428	-0.387611	0.586180
C456	C	1.119428	0.112389	1.086180
C457	C	0.598360	-0.430679	0.617911
C458	C	1.098360	0.069321	1.117911
H459	H	0.597457	-0.359126	0.601503
H460	H	1.097457	0.140874	1.101503
H461	H	0.619382	-0.374207	0.550032
H462	H	1.119382	0.125793	1.050032
H463	H	0.655738	-0.400289	0.585485
H464	H	1.155738	0.099711	1.085485
H465	H	0.562053	-0.418003	0.618600
H466	H	1.062053	0.081997	1.118600
H467	H	0.598399	-0.444081	0.654059
H468	H	1.098399	0.055919	1.154059
H469	H	0.263847	-0.485039	0.718893
H470	H	0.763847	0.014961	1.218893
O471	O	0.235271	-0.524793	0.826984
O472	O	0.735271	-0.024793	1.326984
C473	C	0.288935	-0.532864	0.789479
C474	C	0.788935	-0.032864	1.289479
H475	H	0.288804	-0.526475	0.748744
H476	H	0.788804	-0.026475	1.248744
H477	H	0.305301	-0.502435	0.783392
H478	H	0.805301	-0.002435	1.283392
C479	C	0.325787	-0.599266	0.861789
C480	C	0.825787	-0.099266	1.361789
C481	C	0.325626	-0.591423	0.811759
C482	C	0.825626	-0.091423	1.311759
H483	H	0.348421	-0.635386	0.875533
H484	H	0.848421	-0.135386	1.375533
H485	H	0.289633	-0.593827	0.887058
H486	H	0.789633	-0.093827	1.387058
H487	H	0.339424	-0.573904	0.856710
H488	H	0.839424	-0.073904	1.356710
H489	H	0.311984	-0.616779	0.816839
H490	H	0.811984	-0.116779	1.316839
H491	H	0.361780	-0.596867	0.786491
H492	H	0.861780	-0.096867	1.286491
H493	H	0.094434	-0.400372	0.670409
H494	H	0.594434	0.099628	1.170409
H495	H	0.059853	-0.434921	0.635844
H496	H	0.559853	0.065079	1.135844
H497	H	0.263756	-0.485001	0.585661
H498	H	0.763756	0.014999	1.085661
O499	O	0.235079	-0.524709	0.545943
O500	O	0.735079	-0.024709	1.045943
C501	C	0.288763	-0.532815	0.537836
C502	C	0.788763	-0.032815	1.037836
H503	H	0.288660	-0.498356	0.544225
H504	H	0.788660	0.001644	1.044225
H505	H	0.305163	-0.573536	0.568245
H506	H	0.805163	-0.073536	1.068245
C507	C	0.325517	-0.575531	0.471425
C508	C	0.825517	-0.075531	0.971425
C509	C	0.325391	-0.533206	0.479268
C510	C	0.825391	-0.033206	0.979268
H511	H	0.348112	-0.575775	0.435299
H512	H	0.848112	-0.075775	0.935299
H513	H	0.289349	-0.570072	0.476888
H514	H	0.789349	-0.070072	0.976888
H515	H	0.339182	-0.609461	0.496769
H516	H	0.839182	-0.109461	0.996769
H517	H	0.311720	-0.499277	0.453929
H518	H	0.811720	0.000723	0.953929
H519	H	0.361558	-0.538659	0.473799
H520	H	0.861558	-0.038659	0.973799
H521	H	0.270043	-0.526578	0.659994
H522	H	0.770043	-0.026578	1.159994
H523	H	0.373728	-0.561133	0.625383
H524	H	0.873728	-0.061133	1.125383
H525	H	0.373680	-0.393351	0.561411
H526	H	0.873680	0.106649	1.061411
H527	H	0.102202	-0.248101	0.678192
H528	H	0.602202	0.251899	1.178192
O529	O	0.265564	-0.350011	0.594644
O530	O	0.765564	0.149989	1.094644
C531	C	0.279486	-0.320519	0.538211
C532	C	0.779486	0.179481	1.038211
H533	H	0.320978	-0.345492	0.515693
H534	H	0.820978	0.154508	1.015693
H535	H	0.247302	-0.311992	0.522649
H536	H	0.747302	0.188008	1.022649
C537	C	0.231160	-0.235416	0.555664
C538	C	0.731160	0.264584	1.055664
C539	C	0.282123	-0.266086	0.528007
C540	C	0.782123	0.233914	1.028007
H541	H	0.232784	-0.201838	0.549369
H542	H	0.732784	0.298162	1.049369
H543	H	0.221778	-0.255285	0.593684
H544	H	0.721778	0.244715	1.093684
H545	H	0.204345	-0.228316	0.542692
H546	H	0.704345	0.271684	1.042692
H547	H	0.308936	-0.273191	0.540984
H548	H	0.808936	0.226809	1.040984
H549	H	0.291510	-0.246217	0.489989
H550	H	0.791510	0.253783	0.989989
O551	O	0.134607	-0.356210	0.721572
O552	O	0.634607	0.143790	1.221572
C553	C	0.101515	-0.318739	0.750285
C554	C	0.601515	0.181261	1.250285
H555	H	0.108787	-0.277989	0.723029
H556	H	0.608787	0.222011	1.223029
H557	H	0.056747	-0.312669	0.762625
H558	H	0.556747	0.187331	1.262625
C559	C	0.107085	-0.391106	0.835275
C560	C	0.607085	0.108894	1.335275
C561	C	0.116021	-0.341057	0.801800
C562	C	0.616021	0.158943	1.301800
H563	H	0.116031	-0.404873	0.867053
H564	H	0.616031	0.095127	1.367053
H565	H	0.129378	-0.416351	0.815931
H566	H	0.629378	0.083649	1.315931
H567	H	0.069778	-0.386040	0.845552
H568	H	0.569778	0.113960	1.345552
H569	H	0.153328	-0.346125	0.791518
H570	H	0.653328	0.153875	1.291518
H571	H	0.093734	-0.315813	0.821144
H572	H	0.593734	0.184187	1.321144
H573	H	-0.032937	-0.528066	0.228816
H574	H	0.467063	-0.028066	0.728816
H575	H	-0.067667	-0.562559	0.332499
H576	H	0.432333	-0.062559	0.832499
H577	H	0.016937	-0.731954	0.332612
H578	H	0.516937	-0.231954	0.832612
O579	O	0.056838	-0.703372	0.224522
O580	O	0.556838	-0.203372	0.724522
C581	C	0.064844	-0.757041	0.262033
C582	C	0.564844	-0.257041	0.762033
H583	H	0.058394	-0.756926	0.302798
H584	H	0.558394	-0.256926	0.802798
H585	H	0.034422	-0.773368	0.268041
H586	H	0.534422	-0.273368	0.768041
C587	C	0.131319	-0.793907	0.189757
C588	C	0.631319	-0.293907	0.689757
C589	C	0.123401	-0.793767	0.239824
C590	C	0.623401	-0.293767	0.739824
H591	H	0.167439	-0.816562	0.176057
H592	H	0.667439	-0.316562	0.676057
H593	H	0.125924	-0.757749	0.164485
H594	H	0.625924	-0.257749	0.664485
H595	H	0.105964	-0.807512	0.194771
H596	H	0.605964	-0.307512	0.694771
H597	H	0.148751	-0.780156	0.234809
H598	H	0.648751	-0.280156	0.734809
H599	H	0.128802	-0.829923	0.265095
H600	H	0.628802	-0.329923	0.765095
H601	H	-0.067739	-0.562558	0.381123
H602	H	0.432261	-0.062558	0.881123
H603	H	0.051198	-0.697438	0.500669
H604	H	0.551198	-0.197438	1.000669
O605	O	-0.035333	-0.519222	0.413558
O606	O	0.464667	-0.019222	0.913558
C607	C	-0.015693	-0.495532	0.356312
C608	C	0.484307	0.004468	0.856312
H609	H	0.019556	-0.528119	0.337944
H610	H	0.519556	-0.028119	0.837944
H611	H	-0.049929	-0.477440	0.339292
H612	H	0.450071	0.022560	0.839292
C613	C	-0.038900	-0.410048	0.364144
C614	C	0.461100	0.089952	0.864144
C615	C	0.004397	-0.450072	0.341585
C616	C	0.504397	0.049928	0.841585
H617	H	-0.026510	-0.382005	0.355059
H618	H	0.473490	0.117995	0.855059
H619	H	-0.052133	-0.426008	0.402712
H620	H	0.447867	0.073992	0.902712
H621	H	-0.067426	-0.394978	0.349958
H622	H	0.432574	0.105022	0.849958
H623	H	0.032919	-0.465147	0.355776
H624	H	0.532919	0.034853	0.855776
H625	H	0.017636	-0.434114	0.303019
H626	H	0.517636	0.065886	0.803019
O627	O	0.018935	-0.740789	0.468179
O628	O	0.518935	-0.240789	0.968179
C629	C	0.051932	-0.769520	0.501371
C630	C	0.551932	-0.269520	1.001371
H631	H	0.072715	-0.742297	0.494137
H632	H	0.572715	-0.242297	0.994137
H633	H	0.025500	-0.781807	0.546115
H634	H	0.525500	-0.281807	1.046115
C635	C	0.070084	-0.854517	0.495844
C636	C	0.570084	-0.354517	0.995844
C637	C	0.095613	-0.821083	0.486956
C638	C	0.595613	-0.321083	0.986956
H639	H	0.097027	-0.886325	0.486954
H640	H	0.597027	-0.386325	0.986954
H641	H	0.047851	-0.835161	0.473483
H642	H	0.547851	-0.335161	0.973483
H643	H	0.048058	-0.864750	0.533131
H644	H	0.548058	-0.364750	1.033131
H645	H	0.117633	-0.810845	0.449668
H646	H	0.617633	-0.310845	0.949668
H647	H	0.117850	-0.840438	0.509310
H648	H	0.617850	-0.340438	1.009310
H649	H	0.092838	-0.841923	0.426277
H650	H	0.592838	-0.341923	0.926277
O651	O	0.064193	-0.733804	0.387350
O652	O	0.564193	-0.233804	0.887350
C653	C	0.103040	-0.747804	0.340255
C654	C	0.603040	-0.247804	0.840255
H655	H	0.105718	-0.789293	0.345404
H656	H	0.605718	-0.289293	0.845404
H657	H	0.090193	-0.715634	0.303186
H658	H	0.590193	-0.215634	0.803186
C659	C	0.155924	-0.699553	0.325605
C660	C	0.655924	-0.199553	0.825605
C661	C	0.159216	-0.750512	0.331931
C662	C	0.659216	-0.250512	0.831931
H663	H	0.190575	-0.701221	0.320469
H664	H	0.690575	-0.201221	0.820469
H665	H	0.129751	-0.690118	0.357332
H666	H	0.629751	-0.190118	0.857332
H667	H	0.145215	-0.672750	0.294715
H668	H	0.645215	-0.172750	0.794715
H669	H	0.169917	-0.777313	0.362825
H670	H	0.669917	-0.277313	0.862825
H671	H	0.185392	-0.759952	0.300209
H672	H	0.685392	-0.259952	0.800209
O673	O	-0.080805	-0.846122	0.494279
O674	O	0.419195	-0.346122	0.994279
C675	C	-0.134083	-0.808593	0.497282
C676	C	0.365917	-0.308593	0.997282
H677	H	-0.136266	-0.767844	0.493477
H678	H	0.363734	-0.267844	0.993477
H679	H	-0.144752	-0.802549	0.462661
H680	H	0.355248	-0.302549	0.962661
C681	C	-0.172239	-0.880858	0.557142
C682	C	0.327761	-0.380858	1.057142
C683	C	-0.174921	-0.830810	0.552473
C684	C	0.325079	-0.330810	1.052473
H685	H	-0.197431	-0.894562	0.591185
H686	H	0.302569	-0.394562	1.091185
H687	H	-0.136344	-0.906142	0.555117
H688	H	0.363656	-0.406142	1.055117
H689	H	-0.181129	-0.875814	0.528288
H690	H	0.318871	-0.375814	1.028288
H691	H	-0.166025	-0.835855	0.581323
H692	H	0.333975	-0.335855	1.081323
H693	H	-0.210816	-0.805526	0.554504
H694	H	0.289184	-0.305526	1.054504
H695	H	-0.109425	-0.738032	0.455342
H696	H	0.390575	-0.238032	0.955342
H697	H	-0.116534	-0.689457	0.508068
H698	H	0.383466	-0.189457	1.008068
H699	H	-0.219915	-0.570138	0.372989
H700	H	0.280085	-0.070138	0.872989
O701	O	-0.224706	-0.657019	0.551274
O702	O	0.275294	-0.157019	1.051274
C703	C	-0.210788	-0.714265	0.575030
C704	C	0.289212	-0.214265	1.075030
H705	H	-0.195026	-0.732699	0.542477
H706	H	0.304974	-0.232699	1.042477
H707	H	-0.177667	-0.731229	0.593160
H708	H	0.322333	-0.231229	1.093160
C709	C	-0.280975	-0.706336	0.660441
C710	C	0.219025	-0.206336	1.160441
C711	C	-0.261620	-0.728978	0.620461
C712	C	0.238380	-0.228978	1.120461
H713	H	-0.312329	-0.715413	0.688467
H714	H	0.187671	-0.215413	1.188467
H715	H	-0.290351	-0.667769	0.644437
H716	H	0.209649	-0.167769	1.144437
H717	H	-0.253370	-0.720475	0.675544
H718	H	0.246630	-0.220475	1.175544
H719	H	-0.289223	-0.714834	0.605354
H720	H	0.210777	-0.214834	1.105354
H721	H	-0.252250	-0.767543	0.636463
H722	H	0.247750	-0.267543	1.136463
O723	O	-0.111804	-0.602632	0.329771
O724	O	0.388196	-0.102632	0.829771
C725	C	-0.149207	-0.569497	0.300977
C726	C	0.350793	-0.069497	0.800977
H727	H	-0.189977	-0.576733	0.328165
H728	H	0.310023	-0.076733	0.828165
H729	H	-0.155249	-0.524737	0.288650
H730	H	0.344751	-0.024737	0.788650
C731	C	-0.076752	-0.575105	0.216053
C732	C	0.423248	-0.075105	0.716053
C733	C	-0.126826	-0.583996	0.249446
C734	C	0.373174	-0.083996	0.749446
H735	H	-0.062946	-0.584046	0.184265
H736	H	0.437054	-0.084046	0.684265
H737	H	-0.051552	-0.597427	0.235452
H738	H	0.448448	-0.097427	0.735452
H739	H	-0.081794	-0.537805	0.205787
H740	H	0.418206	-0.037805	0.705787
H741	H	-0.121782	-0.621296	0.259717
H742	H	0.378218	-0.121296	0.759717
H743	H	-0.152024	-0.561680	0.230047
H744	H	0.347976	-0.061680	0.730047
