data_functionalizedCrystal
_audit_creation_method	'MofGen! by Chris Wilmer'
_symmetry_space_group_name_H-M	'P1'
_symmetry_Int_Tables_number	1
_symmetry_cell_setting	triclinic
loop_
_symmetry_equiv_pos_as_xyz
  x,y,z
_cell_length_a	19.288864
_cell_length_b	16.992695
_cell_length_c	18.366186
_cell_angle_alpha	89.993794
_cell_angle_beta	89.977106
_cell_angle_gamma	86.902234
loop_
_atom_site_label
_atom_site_type_symbol
_atom_site_fract_x
_atom_site_fract_y
_atom_site_fract_z
O1	O	0.927052	0.097795	-0.060785
O2	O	1.260386	0.431129	0.272548
O3	O	1.593719	0.764462	0.605881
O4	O	0.725561	0.110988	-0.060736
O5	O	1.058894	0.444321	0.272597
O6	O	1.392227	0.777654	0.605931
O7	O	0.825499	-0.009748	-0.060755
O8	O	1.158832	0.323585	0.272579
O9	O	1.492165	0.656918	0.605912
O10	O	0.827114	0.218531	-0.060767
O11	O	1.160448	0.551865	0.272567
O12	O	1.493781	0.885198	0.605900
O13	O	0.825480	-0.009754	0.060345
O14	O	1.158814	0.323579	0.393678
O15	O	1.492147	0.656912	0.727011
O16	O	0.725542	0.110982	0.060363
O17	O	1.058875	0.444315	0.393697
O18	O	1.392209	0.777648	0.727030
O19	O	0.927034	0.097789	0.060314
O20	O	1.260367	0.431123	0.393647
O21	O	1.593701	0.764456	0.726981
Zn22	Zn	0.826285	0.104385	0.079566
Zn23	Zn	1.159618	0.437718	0.412899
Zn24	Zn	1.492952	0.771051	0.746233
Zn25	Zn	0.826309	0.104392	-0.079988
Zn26	Zn	1.159643	0.437726	0.253346
Zn27	Zn	1.492976	0.771059	0.586679
O28	O	0.827096	0.218525	0.060333
O29	O	1.160429	0.551859	0.393666
O30	O	1.493762	0.885192	0.726999
C31	C	0.699650	0.110560	-0.000180
C32	C	1.032983	0.443893	0.333154
C33	C	1.366317	0.777227	0.666487
C34	C	0.622472	0.109286	-0.000161
C35	C	0.955806	0.442619	0.333173
C36	C	1.289139	0.775953	0.666506
C37	C	0.581905	0.180128	-0.000176
C38	C	0.915238	0.513462	0.333157
C39	C	1.248571	0.846795	0.666491
C40	C	0.509388	0.178931	-0.000184
C41	C	0.842721	0.512265	0.333150
C42	C	1.176055	0.845598	0.666483
C43	C	0.477442	0.106888	-0.000191
C44	C	0.810775	0.440221	0.333142
C45	C	1.144108	0.773554	0.666475
C46	C	0.518018	0.036036	-0.000172
C47	C	0.851352	0.369369	0.333161
C48	C	1.184685	0.702703	0.666495
C49	C	0.590534	0.037235	-0.000157
C50	C	0.923867	0.370568	0.333177
C51	C	1.257200	0.703902	0.666510
C52	C	0.365885	0.050255	-0.042639
C53	C	0.699219	0.383589	0.290694
C54	C	1.032552	0.716922	0.624027
C55	C	0.293371	0.049059	-0.042659
C56	C	0.626705	0.382393	0.290674
C57	C	0.960038	0.715726	0.624008
C58	C	0.253780	0.103186	-0.000235
C59	C	0.587114	0.436519	0.333098
C60	C	0.920447	0.769853	0.666432
C61	C	0.286712	0.158522	0.042199
C62	C	0.620045	0.491856	0.375532
C63	C	0.953378	0.825189	0.708866
C64	C	0.359227	0.159722	0.042214
C65	C	0.692560	0.493055	0.375548
C66	C	1.025894	0.826388	0.708881
C67	C	0.398811	0.105579	-0.000207
C68	C	0.732145	0.438913	0.333126
C69	C	1.065478	0.772246	0.666459
C70	C	0.134581	0.172735	-0.000258
C71	C	0.467915	0.506069	0.333075
C72	C	0.801248	0.839402	0.666409
C73	C	0.062063	0.171535	-0.000261
C74	C	0.395397	0.504869	0.333072
C75	C	0.728730	0.838202	0.666405
C76	C	0.070695	0.028638	-0.000257
C77	C	0.404029	0.361971	0.333076
C78	C	0.737362	0.695305	0.666410
C79	C	0.143212	0.029840	-0.000246
C80	C	0.476545	0.363173	0.333087
C81	C	0.809879	0.696507	0.666421
C82	C	0.175150	0.101891	-0.000250
C83	C	0.508484	0.435224	0.333083
C84	C	0.841817	0.768558	0.666417
C85	C	0.823411	-0.038957	-0.000205
C86	C	1.156745	0.294377	0.333129
C87	C	1.490078	0.627710	0.666462
C88	C	0.817211	-0.125979	-0.000203
C89	C	1.150544	0.207355	0.333130
C90	C	1.483877	0.540688	0.666463
C91	C	0.877039	-0.176431	-0.000217
C92	C	1.210372	0.156903	0.333116
C93	C	1.543705	0.490236	0.666450
C94	C	0.871208	-0.258197	-0.000223
C95	C	1.204542	0.075137	0.333111
C96	C	1.537875	0.408470	0.666444
C97	C	0.805549	-0.289509	-0.000209
C98	C	1.138883	0.043824	0.333124
C99	C	1.472216	0.377157	0.666458
C100	C	0.745717	-0.239051	-0.000197
C101	C	1.079050	0.094282	0.333136
C102	C	1.412383	0.427616	0.666469
C103	C	0.751548	-0.157287	-0.000197
C104	C	1.084881	0.176047	0.333136
C105	C	1.418214	0.509380	0.666470
C106	C	0.781382	-0.533022	-0.000213
C107	C	1.114715	-0.199688	0.333120
C108	C	1.448049	0.133645	0.666454
C109	C	0.775556	-0.614793	-0.000211
C110	C	1.108889	-0.281459	0.333122
C111	C	1.442222	0.051874	0.666456
C112	C	0.901048	-0.633933	-0.000238
C113	C	1.234381	-0.300599	0.333095
C114	C	1.567715	0.032734	0.666429
C115	C	0.906873	-0.552166	-0.000233
C116	C	1.240207	-0.218832	0.333100
C117	C	1.573540	0.114501	0.666433
C118	C	0.847041	-0.501715	-0.000225
C119	C	1.180374	-0.168381	0.333108
C120	C	1.513707	0.164952	0.666441
N121	N	0.799588	-0.373087	-0.000212
N122	N	1.132921	-0.039754	0.333121
N123	N	1.466255	0.293580	0.666454
N124	N	0.853002	-0.418138	-0.000227
N125	N	1.186336	-0.084805	0.333106
N126	N	1.519669	0.248528	0.666439
C127	C	0.952944	0.098217	-0.000244
C128	C	1.286278	0.431550	0.333090
C129	C	1.619611	0.764883	0.666423
C130	C	1.030122	0.099491	-0.000268
C131	C	1.363455	0.432824	0.333066
C132	C	1.696789	0.766158	0.666399
C133	C	0.829183	0.247733	-0.000219
C134	C	1.162516	0.581067	0.333114
C135	C	1.495850	0.914400	0.666448
C136	C	0.835384	0.334756	-0.000225
C137	C	1.168717	0.668089	0.333108
C138	C	1.502051	1.001422	0.666442
N139	N	0.826273	0.104379	0.188457
N140	N	1.159607	0.437712	0.521790
N141	N	1.492940	0.771045	0.855124
N142	N	0.826326	0.104392	-0.188879
N143	N	1.159659	0.437725	0.144454
N144	N	1.492993	0.771059	0.477788
C145	C	0.870543	0.050943	0.226549
C146	C	1.203876	0.384276	0.559882
C147	C	1.537210	0.717610	0.893216
C148	C	0.870547	0.050940	0.302777
C149	C	1.203881	0.384273	0.636110
C150	C	1.537214	0.717606	0.969444
C151	C	0.826289	0.104385	0.340910
C152	C	1.159623	0.437719	0.674243
C153	C	1.492956	0.771052	1.007576
C154	C	0.782011	0.157825	0.302808
C155	C	1.115344	0.491158	0.636142
C156	C	1.448678	0.824492	0.969475
C157	C	0.782003	0.157822	0.226582
C158	C	1.115336	0.491155	0.559915
C159	C	1.448670	0.824488	0.893249
C160	C	0.821154	0.175814	0.461668
C161	C	1.154487	0.509148	0.795001
C162	C	1.487821	0.842481	1.128334
C163	C	0.821167	0.175819	0.537893
C164	C	1.154500	0.509152	0.871226
C165	C	1.487833	0.842485	1.204559
C166	C	0.826310	0.104395	0.576017
C167	C	1.159643	0.437728	0.909351
C168	C	1.492976	0.771062	1.242684
C169	C	0.831454	0.032964	0.537908
C170	C	1.164787	0.366297	0.871241
C171	C	1.498121	0.699631	1.204574
C172	C	0.831446	0.032961	0.461681
C173	C	1.164780	0.366294	0.795014
C174	C	1.498113	0.699627	1.128348
C175	C	0.826293	0.104394	0.423564
C176	C	1.159626	0.437728	0.756898
C177	C	1.492959	0.771061	1.090231
C178	C	0.870586	0.050951	0.696764
C179	C	1.203919	0.384284	1.030098
C180	C	1.537253	0.717618	1.363431
C181	C	0.870585	0.050947	0.772994
C182	C	1.203919	0.384280	1.106327
C183	C	1.537252	0.717613	1.439660
C184	C	0.782053	0.157839	0.773024
C185	C	1.115386	0.491172	1.106357
C186	C	1.448720	0.824506	1.439690
C187	C	0.782050	0.157837	0.696796
C188	C	1.115383	0.491170	1.030129
C189	C	1.448716	0.824503	1.363463
C190	C	0.826320	0.104394	0.658671
C191	C	1.159653	0.437727	0.992004
C192	C	1.492987	0.771060	1.325337
H193	H	0.160587	0.231403	-0.000250
H194	H	0.493920	0.564737	0.333083
H195	H	0.827254	0.898070	0.666416
F196	F	0.615892	0.256812	-0.000178
F197	F	0.949225	0.590145	0.333156
F198	F	1.282558	0.923478	0.666489
H199	H	0.029034	0.229226	-0.000270
H200	H	0.362367	0.562559	0.333064
H201	H	0.695700	0.895893	0.666397
F202	F	0.244582	0.216133	0.087353
F203	F	0.577915	0.549467	0.420686
F204	F	0.911249	0.882800	0.754020
F205	F	0.036701	-0.048037	-0.000258
F206	F	0.370034	0.285296	0.333076
F207	F	0.703367	0.618630	0.666409
H208	H	0.386037	0.204776	0.076768
H209	H	0.719370	0.538109	0.410102
H210	H	1.052703	0.871443	0.743435
F211	F	0.946923	-0.143113	-0.000225
F212	F	1.280256	0.190220	0.333109
F213	F	1.613589	0.523553	0.666442
H214	H	0.816982	0.233982	0.568916
H215	H	1.150316	0.567315	0.902249
H216	H	1.483649	0.900649	1.235582
H217	H	0.919927	-0.299272	-0.000232
H218	H	1.253260	0.034062	0.333101
H219	H	1.586594	0.367395	0.666434
H220	H	0.949760	-0.675018	-0.000246
H221	H	1.283094	-0.341685	0.333088
H222	H	1.616427	-0.008351	0.666421
H223	H	0.732662	-0.491954	-0.000206
H224	H	1.065995	-0.158620	0.333127
H225	H	1.399328	0.174713	0.666460
H226	H	0.906589	0.007425	0.195510
H227	H	1.239922	0.340758	0.528843
H228	H	1.573255	0.674091	0.862177
H229	H	0.906633	0.007429	0.804009
H230	H	1.239966	0.340762	1.137342
H231	H	1.573299	0.674095	1.470675
H232	H	0.835633	-0.025201	0.430655
H233	H	1.168967	0.308133	0.763989
H234	H	1.502300	0.641466	1.097322
F235	F	0.484018	-0.040638	-0.000176
F236	F	0.817351	0.292695	0.333157
F237	F	1.150685	0.626029	0.666490
F238	F	0.408014	-0.007358	-0.087795
F239	F	0.741348	0.325975	0.245538
F240	F	1.074681	0.659308	0.578871
F241	F	0.633710	-0.038169	-0.000141
F242	F	0.967044	0.295165	0.333193
F243	F	1.300377	0.628498	0.666526
H244	H	0.722085	-0.640283	-0.000188
H245	H	1.055419	-0.306950	0.333145
H246	H	1.388752	0.026383	0.666478
H247	H	0.476351	0.236621	-0.000194
H248	H	0.809685	0.569955	0.333139
H249	H	1.143018	0.903288	0.666473
F250	F	0.186389	-0.045561	-0.000234
F251	F	0.519722	0.287772	0.333100
F252	F	0.853055	0.621105	0.666433
H253	H	0.745974	0.201340	0.333860
H254	H	1.079308	0.534673	0.667193
H255	H	1.412641	0.868007	1.000527
F256	F	0.675837	-0.272378	-0.000191
F257	F	1.009170	0.060955	0.333142
F258	F	1.342503	0.394288	0.666476
F259	F	0.734884	0.214698	0.186040
F260	F	1.068217	0.548031	0.519373
F261	F	1.401550	0.881365	0.852707
H262	H	0.702829	-0.116209	-0.000186
H263	H	1.036162	0.217125	0.333148
H264	H	1.369496	0.550458	0.666481
H265	H	0.906598	0.007424	0.333797
H266	H	1.239931	0.340757	0.667131
H267	H	1.573265	0.674091	1.000464
F268	F	0.258330	-0.009828	-0.087827
F269	F	0.591663	0.323506	0.245506
F270	F	0.924996	0.656839	0.578839
H271	H	0.960340	-0.526677	-0.000244
H272	H	1.293673	-0.193344	0.333089
H273	H	1.627007	0.139989	0.666422
F274	F	0.836932	-0.043056	0.578476
F275	F	1.170266	0.290277	0.911809
F276	F	1.503599	0.623610	1.245143
F277	F	0.917699	-0.005931	0.656188
F278	F	1.251033	0.327403	0.989521
F279	F	1.584366	0.660736	1.322855
F280	F	0.734946	0.214715	0.813604
F281	F	1.068279	0.548048	1.146937
F282	F	1.401612	0.881382	1.480270
F283	F	0.734935	0.214714	0.656252
F284	F	1.068269	0.548047	0.989586
F285	F	1.401602	0.881380	1.322919
H286	H	0.816954	0.233980	0.430633
H287	H	1.150288	0.567313	0.763966
H288	H	1.483621	0.900647	1.097300
