data_functionalizedCrystal
_audit_creation_method	'MofGen! by Chris Wilmer'
_symmetry_space_group_name_H-M	'P1'
_symmetry_Int_Tables_number	1
_symmetry_cell_setting	triclinic
loop_
_symmetry_equiv_pos_as_xyz
  x,y,z
_cell_length_a	14.908571
_cell_length_b	18.050589
_cell_length_c	14.908308
_cell_angle_alpha	86.730698
_cell_angle_beta	89.824947
_cell_angle_gamma	86.724558
loop_
_atom_site_label
_atom_site_type_symbol
_atom_site_fract_x
_atom_site_fract_y
_atom_site_fract_z
Zn1	Zn	1.345230	-0.387558	0.587600
Zn2	Zn	1.353791	-0.505024	0.437245
Zn3	Zn	1.203548	-0.373294	0.428597
Zn4	Zn	1.194819	-0.504142	0.578897
O5	O	1.274347	-0.442504	0.508085
O6	O	1.472191	-0.409479	0.574916
O7	O	1.341097	-0.481949	0.310273
O8	O	1.222413	-0.271266	0.449712
O9	O	1.478480	-0.495781	0.464452
O10	O	1.326506	-0.281746	0.566530
O11	O	1.230714	-0.385168	0.303919
O12	O	1.076565	-0.384312	0.441273
O13	O	1.207536	-0.494277	0.705876
O14	O	1.070152	-0.480446	0.551698
O15	O	1.318042	-0.408624	0.712270
O16	O	1.332633	-0.608827	0.456013
O17	O	1.215836	-0.608179	0.560084
C18	C	1.040734	-0.430736	0.494603
C19	C	0.940791	-0.425720	0.488857
C20	C	0.746369	-0.516539	0.592890
C21	C	0.652464	-0.511829	0.587494
C22	C	0.659075	-0.411586	0.472674
C23	C	0.752980	-0.416296	0.478070
C24	C	0.796623	-0.468775	0.538179
C25	C	0.890530	-0.473489	0.543570
C26	C	0.897139	-0.373243	0.428755
C27	C	0.803235	-0.368533	0.423359
C28	C	1.274239	-0.635451	0.508063
C29	C	1.274274	-0.717999	0.508089
C30	C	1.210820	-0.917126	0.564665
C31	C	1.193639	-0.961795	0.481356
C32	C	1.274362	-0.869134	0.508106
C33	C	1.291586	-0.971550	0.591427
C34	C	1.274444	-1.015125	0.508129
C35	C	1.257140	-0.912712	0.424750
C36	C	1.355122	-0.922467	0.534880
C37	C	1.337975	-0.967112	0.451515
C38	C	1.274312	-0.785033	0.508094
C39	C	1.274495	-1.099224	0.508132
C40	C	1.508873	-0.454320	0.521619
C41	C	1.608814	-0.459355	0.527387
C42	C	1.260860	-0.452943	0.742610
C43	C	1.255113	-0.457391	0.842551
C44	C	1.274479	-0.248807	0.508127
C45	C	1.274535	-0.166265	0.508145
C46	C	1.287833	-0.432055	0.274474
C47	C	1.293755	-0.427407	0.174544
C48	C	1.359381	-0.376542	1.037010
C49	C	1.353984	-0.380719	1.130914
C50	C	1.238917	-0.469919	1.124263
C51	C	1.244314	-0.465741	1.030360
C52	C	1.304549	-0.419052	0.986737
C53	C	1.309951	-0.414880	0.892832
C54	C	1.194880	-0.504075	0.886183
C55	C	1.189483	-0.508252	0.980086
H56	H	0.623524	-0.368856	0.423742
H57	H	0.767687	-0.325804	0.374423
H58	H	1.423362	-0.905010	0.557544
O59	O	0.946092	-0.326877	0.375696
C60	C	1.093689	-0.289745	0.333070
C61	C	1.038359	-0.342282	0.393228
H62	H	1.168298	-0.302191	0.347210
H63	H	1.074410	-0.229650	0.347921
H64	H	1.079313	-0.298534	0.259488
H65	H	1.052706	-0.333559	0.466829
H66	H	1.057647	-0.402358	0.378300
H67	H	1.398631	-0.346101	1.171843
O68	O	1.131050	-0.553589	1.022609
C69	C	1.071697	-0.599521	1.164322
C70	C	1.137925	-0.548157	1.116284
H71	H	1.077219	-0.595135	1.240065
H72	H	1.088512	-0.659396	1.146829
H73	H	1.000277	-0.582019	1.141623
H74	H	1.209368	-0.565593	1.138956
H75	H	1.121033	-0.488295	1.133777
H76	H	1.189877	-0.507930	1.159798
O77	O	1.141568	-0.545441	0.837483
C78	C	1.026819	-0.634312	0.840797
C79	C	1.087154	-0.587520	0.896059
H80	H	0.982796	-0.668333	0.888131
H81	H	1.070553	-0.673317	0.799229
H82	H	0.982394	-0.595880	0.794107
H83	H	1.131588	-0.625895	0.942798
H84	H	1.043367	-0.548508	0.937567
O85	O	1.239727	-0.882299	0.340607
C86	C	1.207773	-0.904755	0.186472
C87	C	1.227508	-0.939297	0.281712
H88	H	1.197869	-0.950820	0.138833
H89	H	1.266610	-0.871206	0.162323
H90	H	1.144160	-0.866654	0.187770
H91	H	1.291093	-0.977430	0.280489
H92	H	1.168620	-0.972801	0.305823
H93	H	1.306123	-0.997236	0.661882
H94	H	1.157015	-0.895182	0.612419
H95	H	1.125381	-0.979255	0.458730
O96	O	0.603556	-0.558253	0.640508
C97	C	0.496860	-0.653779	0.646317
C98	C	0.552181	-0.601229	0.586168
H99	H	0.455324	-0.688550	0.602408
H100	H	0.450154	-0.619670	0.690857
H101	H	0.544204	-0.692060	0.690223
H102	H	0.504904	-0.562937	0.542207
H103	H	0.598897	-0.635384	0.541688
O104	O	1.402110	-0.993255	0.394467
C105	C	1.474587	-1.100912	0.330878
C106	C	1.401945	-1.071405	0.395534
H107	H	1.474466	-1.164099	0.331705
H108	H	1.543257	-1.084031	0.353075
H109	H	1.459773	-1.076439	0.259930
H110	H	1.416675	-1.095864	0.466500
H111	H	1.333298	-1.088278	0.373260
O112	O	1.368479	-0.369465	0.850594
C113	C	1.482071	-0.281460	0.867108
C114	C	1.415814	-0.332853	0.915052
H115	H	1.520373	-0.251858	0.919201
H116	H	1.443381	-0.238551	0.820798
H117	H	1.531559	-0.315972	0.825825
H118	H	1.366311	-0.298402	0.956383
H119	H	1.454564	-0.375764	0.961309
O120	O	1.417795	-0.331086	0.994663
C121	C	1.463219	-0.205694	0.968507
C122	C	1.396992	-0.257085	1.016500
H123	H	1.446435	-0.145856	0.986159
H124	H	1.457653	-0.209946	0.892745
H125	H	1.534646	-0.223248	0.991138
H126	H	1.325536	-0.239566	0.993943
H127	H	1.402636	-0.252826	1.092253
O128	O	0.933072	-0.524441	0.601882
C129	C	1.074802	-0.576093	0.661128
C130	C	1.026744	-0.518369	0.595031
H131	H	1.150543	-0.571193	0.655625
H132	H	1.057293	-0.634342	0.644165
H133	H	1.052136	-0.565445	0.732582
H134	H	1.049383	-0.528948	0.523554
H135	H	1.044253	-0.460139	0.612072
H136	H	0.781904	-0.559273	0.641828
