data_functionalizedCrystal
_audit_creation_method	'MofGen! by Chris Wilmer'
_symmetry_space_group_name_H-M	'P1'
_symmetry_Int_Tables_number	1
_symmetry_cell_setting	triclinic
loop_
_symmetry_equiv_pos_as_xyz
  x,y,z
_cell_length_a	10.654544
_cell_length_b	17.019294
_cell_length_c	15.500258
_cell_angle_alpha	89.302945
_cell_angle_beta	93.153295
_cell_angle_gamma	83.938208
loop_
_atom_site_label
_atom_site_type_symbol
_atom_site_fract_x
_atom_site_fract_y
_atom_site_fract_z
O1	O	1.660317	0.107128	-0.079945
O2	O	1.294617	0.117648	-0.080725
O3	O	1.488284	-0.001998	-0.071809
O4	O	1.466649	0.226774	-0.088861
O5	O	1.498654	0.004574	0.071588
O6	O	1.304986	0.124220	0.062673
O7	O	1.670687	0.113700	0.063453
Cu8	Cu	1.488783	0.119560	0.076156
Cu9	Cu	1.476520	0.111788	-0.093428
O10	O	1.477019	0.233346	0.054537
C11	C	1.253020	0.120162	-0.008968
C12	C	1.113625	0.117851	-0.008795
C13	C	1.124906	0.125025	0.147541
C14	C	1.065059	0.127529	0.225787
C15	C	0.934086	0.125356	0.225945
C16	C	0.862957	0.120677	0.147849
C17	C	0.922804	0.118173	0.069603
C18	C	1.053780	0.120349	0.069453
C19	C	0.911525	0.110993	-0.086731
C20	C	1.042496	0.113172	-0.086891
C21	C	0.840395	0.106314	-0.164827
C22	C	0.900241	0.103816	-0.243075
C23	C	1.031222	0.105990	-0.243230
C24	C	1.102343	0.110668	-0.165137
C25	C	1.492854	-0.028005	0.002071
C26	C	1.491004	-0.115290	0.008571
C27	C	1.484485	-0.159875	-0.066541
C28	C	1.482739	-0.241888	-0.060430
C29	C	1.487521	-0.279315	0.020793
C30	C	1.494036	-0.234724	0.095910
C31	C	1.495773	-0.152712	0.089799
C32	C	1.482551	-0.526759	0.043155
C33	C	1.480818	-0.608777	0.049261
C34	C	1.469518	-0.615935	-0.107080
C35	C	1.471263	-0.533922	-0.113184
C36	C	1.477772	-0.489337	-0.038067
C37	C	1.485740	-0.363146	0.027040
C38	C	1.479543	-0.405508	-0.044316
C39	C	1.712283	0.111186	-0.008306
C40	C	1.851678	0.113497	-0.008485
C41	C	1.472450	0.259353	-0.019345
C42	C	1.474299	0.346638	-0.025851
N43	N	1.497418	0.125026	0.195433
N44	N	1.467895	0.106316	-0.212705
C45	C	1.540444	0.152370	0.738579
C46	C	1.533921	0.148230	0.648315
C47	C	1.454855	0.098032	0.606770
C48	C	1.382298	0.051976	0.655493
C49	C	1.388815	0.056120	0.745755
C50	C	1.431378	0.083115	0.334417
C51	C	1.424869	0.078972	0.244149
C52	C	1.576491	0.175228	0.236978
C53	C	1.583007	0.179364	0.327242
C54	C	1.510445	0.133312	0.375956
C55	C	1.448188	0.093797	0.514506
C56	C	1.517106	0.137551	0.468218
H57	H	0.885358	0.127400	0.289659
H58	H	1.487876	-0.490470	0.104321
H59	H	0.733752	0.104540	-0.164692
H60	H	1.497922	-0.265204	0.162044
N61	N	1.092353	0.103415	-0.323158
N62	N	1.085923	0.045447	-0.371343
H63	H	1.129093	0.043625	-0.427794
N64	N	1.258633	0.127460	0.147239
N65	N	1.307377	0.185481	0.177841
H66	H	1.401804	0.187275	0.177576
H67	H	1.501064	-0.116411	0.150963
H68	H	1.360477	0.038095	0.210326
N69	N	1.474689	-0.367282	-0.127280
N70	N	1.559239	-0.385596	-0.178426
H71	H	1.555819	-0.358593	-0.237020
H72	H	1.635565	0.212722	0.197305
H73	H	1.464217	-0.652244	-0.168236
N74	N	1.301566	0.000671	0.613074
N75	N	1.236818	-0.040458	0.656585
H76	H	1.179812	-0.076703	0.626630
H77	H	0.842319	0.100002	-0.306654
N78	N	1.466392	-0.495685	-0.196147
N79	N	1.554622	-0.457487	-0.216490
H80	H	1.551190	-0.430483	-0.275085
H81	H	1.604833	0.193243	0.772399
H82	H	1.383816	0.052924	0.480670
N83	N	1.137735	0.132301	0.305550
N84	N	1.254675	0.134240	0.305403
H85	H	1.306002	0.137608	0.361735
H86	H	1.489638	-0.393629	0.093173
N87	N	1.608001	0.195300	0.598565
N88	N	1.678574	0.240127	0.635668
H89	H	1.730885	0.273381	0.600532
N90	N	1.236092	0.113023	-0.165382
N91	N	1.284940	0.170992	-0.134742
H92	H	1.379390	0.172699	-0.134945
H93	H	1.647393	0.220240	0.361062
H94	H	1.372297	0.045613	0.374070
N95	N	1.314691	0.009077	0.795507
N96	N	1.244097	-0.035738	0.758405
H97	H	1.191738	-0.068960	0.793540
N98	N	1.597866	0.188835	0.510636
N99	N	1.581573	0.261549	0.495096
H100	H	1.638613	0.297769	0.525059
N101	N	0.729173	0.118443	0.147993
N102	N	0.680182	0.060552	0.117286
H103	H	0.585695	0.058973	0.117384
N104	N	1.479616	-0.121662	-0.149516
N105	N	1.473797	-0.161483	-0.216573
H106	H	1.470357	-0.134497	-0.275177
H107	H	1.477436	-0.278186	-0.121594
N108	N	1.485695	-0.646996	0.132240
N109	N	1.491499	-0.607181	0.199301
H110	H	1.494941	-0.634173	0.257903
