data_functionalizedCrystal
_audit_creation_method	'MofGen! by Chris Wilmer'
_symmetry_space_group_name_H-M	'P1'
_symmetry_Int_Tables_number	1
_symmetry_cell_setting	triclinic
loop_
_symmetry_equiv_pos_as_xyz
  x,y,z
_cell_length_a	6.817900
_cell_length_b	11.168129
_cell_length_c	19.453114
_cell_angle_alpha	94.532242
_cell_angle_beta	101.709288
_cell_angle_gamma	108.508637
loop_
_atom_site_label
_atom_site_type_symbol
_atom_site_fract_x
_atom_site_fract_y
_atom_site_fract_z
V1	V	-4.032643	-0.176019	-0.219005
O2	O	-3.993699	0.007106	-0.214830
O3	O	-4.009458	-0.347716	-0.217513
O4	O	-3.975248	-0.173906	-0.314518
O5	O	-4.028146	-0.167908	-0.117154
V6	V	-4.514170	-0.154045	-0.206822
O7	O	-4.298282	-0.224221	-0.245730
O8	O	-4.698728	-0.105844	-0.180098
O9	O	-4.314148	0.017651	-0.208314
O10	O	-4.670510	-0.337171	-0.210997
O11	O	-4.636063	-0.162157	-0.308674
O12	O	-4.348358	-0.156159	-0.111309
C13	C	-3.860884	-0.389553	-0.214060
C14	C	-3.923154	-0.529921	-0.213477
C15	C	-3.915662	-0.574998	-0.152088
C16	C	-3.980021	-0.720076	-0.151484
C17	C	-3.817244	-0.167839	-0.337798
C18	C	-3.851768	-0.167247	-0.415881
C19	C	-4.050700	-0.173307	-0.456138
C20	C	-4.083138	-0.172750	-0.529505
C21	C	-3.916646	-0.166159	-0.562613
C22	C	-3.717683	-0.160092	-0.522346
C23	C	-3.685243	-0.160635	-0.448980
N24	N	-3.866696	-0.232843	-0.681405
N25	N	-3.897526	-0.232330	-0.751100
C26	C	-4.014371	-0.164518	-0.783662
N27	N	-4.099261	-0.097256	-0.743896
N28	N	-4.068437	-0.097775	-0.674195
C29	C	-3.951800	-0.165568	-0.642166
C30	C	-4.248489	-0.169973	-0.903472
C31	C	-4.280917	-0.169409	-0.976839
C32	C	-3.915461	-0.156763	-0.969680
C33	C	-3.883033	-0.157315	-0.896313
C34	C	-4.049557	-0.163926	-0.863214
C35	C	-4.126066	0.059482	-0.211765
C36	C	-4.043033	0.199848	-0.212353
C37	C	-4.169705	-0.162230	-0.088025
C38	C	-4.114419	-0.162816	-0.009942
H39	H	-4.049336	-0.761328	-0.264914
N40	N	-3.994791	-0.621070	-0.282504
H41	H	-3.896436	-0.672225	-0.282722
H42	H	-3.990978	-0.570976	-0.323520
N43	N	-4.297717	-0.179302	-0.572941
H44	H	-4.281088	-0.100681	-0.596721
H45	H	-4.398176	-0.183617	-0.540799
N46	N	-3.971678	-0.771504	-0.081861
H47	H	-3.920784	-0.698126	-0.041324
H48	H	-3.870084	-0.821052	-0.076485
H49	H	-3.861613	-0.506186	-0.099978
N50	N	-3.538087	-0.152988	-0.558042
H51	H	-3.505144	-0.073804	-0.581504
H52	H	-3.581764	-0.231220	-0.595106
N53	N	-4.230293	-0.180426	-0.420437
H54	H	-4.361240	-0.184177	-0.457077
H55	H	-4.186543	-0.102242	-0.383334
N56	N	-3.470668	-0.154109	-0.405561
H57	H	-3.487312	-0.232735	-0.381785
H58	H	-3.410927	-0.075327	-0.368178
N59	N	-4.428078	-0.177099	-0.867765
H60	H	-4.559024	-0.180843	-0.904403
H61	H	-4.384329	-0.098922	-0.830656
N62	N	-4.495478	-0.175920	-1.020261
H63	H	-4.596036	-0.180188	-0.988157
H64	H	-4.555149	-0.254644	-1.057684
N65	N	-3.735843	-0.149664	-1.005361
H66	H	-3.702866	-0.070479	-1.028821
H67	H	-3.779514	-0.227896	-1.042425
N68	N	-3.668467	-0.150798	-0.852896
H69	H	-3.685111	-0.229422	-0.829118
H70	H	-3.608717	-0.072014	-0.815514
