data_functionalizedCrystal
_audit_creation_method	'MofGen! by Chris Wilmer'
_symmetry_space_group_name_H-M	'P1'
_symmetry_Int_Tables_number	1
_symmetry_cell_setting	triclinic
loop_
_symmetry_equiv_pos_as_xyz
  x,y,z
_cell_length_a	16.109302
_cell_length_b	16.109304
_cell_length_c	15.186229
_cell_angle_alpha	89.999066
_cell_angle_beta	89.994701
_cell_angle_gamma	83.462209
loop_
_atom_site_label
_atom_site_type_symbol
_atom_site_fract_x
_atom_site_fract_y
_atom_site_fract_z
O1	O	1.103131	0.106869	-0.073263
O2	O	0.861070	0.120167	-0.073255
O3	O	0.988749	-0.007513	-0.073259
O4	O	0.975452	0.234549	-0.073258
O5	O	0.988740	-0.007514	0.073198
O6	O	0.861061	0.120166	0.073202
O7	O	1.103123	0.106867	0.073195
Zn8	Zn	0.982091	0.113516	0.096452
Zn9	Zn	0.982102	0.113518	-0.096512
O10	O	0.975444	0.234547	0.073199
C11	C	0.830090	0.119628	-0.000025
C12	C	0.737795	0.118012	-0.000023
C13	C	0.525450	0.114276	0.079802
C14	C	0.438729	0.112750	0.079799
C15	C	0.438749	0.112756	-0.079876
C16	C	0.525468	0.114277	-0.079872
C17	C	0.568816	0.115041	-0.000030
C18	C	0.395377	0.111994	-0.000038
C19	C	0.301351	0.110338	-0.000041
C20	C	0.662848	0.116695	-0.000026
C21	C	0.988206	-0.038488	-0.000033
C22	C	0.986590	-0.130784	-0.000039
C23	C	0.982861	-0.343120	-0.079869
C24	C	0.981334	-0.429840	-0.079868
C25	C	0.981329	-0.429839	0.079807
C26	C	0.982849	-0.343120	0.079806
C27	C	0.983619	-0.299763	-0.000035
C28	C	0.980573	-0.473202	-0.000033
C29	C	0.978918	-0.567228	-0.000031
C30	C	0.985272	-0.205731	-0.000037
C31	C	1.134102	0.107407	-0.000037
C32	C	1.226397	0.109022	-0.000045
C33	C	0.975987	0.265523	-0.000029
C34	C	0.977603	0.357818	-0.000029
N35	N	0.982089	0.113514	0.228144
N36	N	0.982110	0.113514	-0.228205
C37	C	1.038645	0.056996	0.453865
C38	C	1.038647	0.056994	0.546055
C39	C	0.925548	0.170034	0.546068
C40	C	0.925542	0.170032	0.453880
C41	C	0.982095	0.113514	0.407781
C42	C	0.982104	0.113514	0.592159
C43	C	0.982106	0.113513	0.692115
C44	C	0.982092	0.113514	0.307819
H45	H	0.403445	0.112134	-0.144881
H46	H	0.560779	0.114897	-0.144886
C47	C	0.980486	-0.477540	0.167628
N48	N	0.979852	-0.513468	0.233776
C49	C	0.863342	0.232199	0.596785
N50	N	0.816487	0.279023	0.634985
H51	H	0.560740	0.114899	0.144815
C52	C	1.100848	-0.005182	0.403160
N53	N	1.147698	-0.052019	0.364971
H54	H	0.980715	-0.465137	-0.144877
H55	H	0.983485	-0.307821	-0.144881
C56	C	0.983683	-0.295424	0.167634
N57	N	0.984309	-0.259500	0.233783
C58	C	1.100850	-0.005186	0.596743
N59	N	1.147700	-0.052026	0.634921
H60	H	0.403424	0.112127	0.144807
C61	C	0.863368	0.232246	0.403184
N62	N	0.816553	0.279117	0.365000
