data_functionalizedCrystal
_audit_creation_method	'MofGen! by Chris Wilmer'
_symmetry_space_group_name_H-M	'P1'
_symmetry_Int_Tables_number	1
_symmetry_cell_setting	triclinic
loop_
_symmetry_equiv_pos_as_xyz
  x,y,z
_cell_length_a	34.408637
_cell_length_b	34.407814
_cell_length_c	34.404193
_cell_angle_alpha	60.004510
_cell_angle_beta	60.009006
_cell_angle_gamma	59.994604
loop_
_atom_site_label
_atom_site_type_symbol
_atom_site_fract_x
_atom_site_fract_y
_atom_site_fract_z
O1	O	0.053973	-0.567860	0.474801
O2	O	0.553973	-0.067860	0.974801
O3	O	0.020377	-0.442124	0.382567
O4	O	0.520377	0.057876	0.882567
O5	O	0.100004	-0.521670	0.382483
O6	O	0.600004	-0.021670	0.882483
O7	O	-0.025653	-0.488314	0.474886
O8	O	0.474347	0.011686	0.974886
O9	O	0.126426	-0.495253	0.408816
O10	O	0.626426	0.004747	0.908816
O11	O	0.046800	-0.415707	0.408900
O12	O	0.546800	0.084293	0.908900
O13	O	0.080396	-0.541443	0.501134
O14	O	0.580396	-0.041443	1.001134
Zn15	Zn	0.067793	-0.474381	0.459198
Zn16	Zn	0.567793	0.025619	0.959198
Zn17	Zn	0.032980	-0.509186	0.424503
Zn18	Zn	0.532980	-0.009186	0.924503
O19	O	0.000769	-0.461897	0.501219
O20	O	0.500769	0.038103	1.001219
N21	N	0.091552	-0.450631	0.482879
N22	N	0.591552	0.049369	0.982879
N23	N	0.009225	-0.532940	0.400823
N24	N	0.509225	-0.032940	0.900823
C25	C	0.142848	-0.268847	0.534081
C26	C	0.642848	0.231153	1.034081
C27	C	0.142979	-0.399386	0.664559
C28	C	0.642979	0.100614	1.164559
C29	C	0.142862	-0.399365	0.534081
C30	C	0.642862	0.100635	1.034081
C31	C	0.273409	-0.399338	0.533986
C32	C	0.773409	0.100662	1.033986
C33	C	0.157225	-0.311914	0.548422
C34	C	0.657225	0.188086	1.048422
C35	C	0.157300	-0.385019	0.621491
C36	C	0.657300	0.114981	1.121491
C37	C	0.230339	-0.384991	0.548370
C38	C	0.730339	0.115009	1.048370
C39	C	0.157235	-0.385007	0.548422
C40	C	0.657235	0.114993	1.048422
C41	C	0.124548	-0.214028	0.515827
C42	C	0.624548	0.285972	1.015827
C43	C	0.124571	-0.417639	0.515827
C44	C	0.624571	0.082361	1.015827
C45	C	0.175526	-0.366733	0.566676
C46	C	0.675526	0.133267	1.066676
C47	C	0.353121	-0.385580	0.491988
C48	C	0.853121	0.114420	0.991988
C49	C	0.402952	-0.402180	0.475348
C50	C	0.902952	0.097820	0.975348
C51	C	0.402981	-0.482812	0.506096
C52	C	0.902981	0.017188	1.006096
C53	C	0.353151	-0.466211	0.522737
C54	C	0.853151	0.033789	1.022737
C55	C	0.136544	-0.189099	0.466839
C56	C	0.636544	0.310901	0.966839
C57	C	0.119905	-0.139265	0.450247
C58	C	0.619905	0.360735	0.950247
C59	C	0.079280	-0.139291	0.531632
C60	C	0.579280	0.360709	1.031632
C61	C	0.095918	-0.189125	0.548224
C62	C	0.595918	0.310875	1.048224
C63	C	0.075577	-0.405615	0.527900
C64	C	0.575577	0.094385	1.027900
C65	C	0.058953	-0.422228	0.511301
C66	C	0.558953	0.077772	1.011301
C67	C	0.140315	-0.462889	0.470566
C68	C	0.640315	0.037111	0.970566
C69	C	0.156941	-0.446276	0.487159
C70	C	0.656941	0.053724	0.987159
C71	C	0.075772	-0.405653	0.744326
C72	C	0.575772	0.094347	1.244326
C73	C	0.059206	-0.422280	0.794159
C74	C	0.559206	0.077720	1.294159
C75	C	0.140607	-0.462951	0.794094
C76	C	0.640607	0.037049	1.294094
C77	C	0.157172	-0.446325	0.744260
C78	C	0.657172	0.053675	1.244260
C79	C	0.124753	-0.417674	0.719377
C80	C	0.624753	0.082326	1.219377
C81	C	0.328223	-0.417595	0.515681
C82	C	0.828223	0.082405	1.015681
C83	C	-0.172390	-0.583988	0.349141
C84	C	0.327610	-0.083988	0.849141
C85	C	-0.041751	-0.584138	0.218783
C86	C	0.458249	-0.084138	0.718783
C87	C	-0.041941	-0.584130	0.349402
C88	C	0.458059	-0.084130	0.849402
C89	C	-0.041957	-0.714607	0.349338
C90	C	0.458043	-0.214607	0.849338
C91	C	-0.129326	-0.598388	0.334853
C92	C	0.370674	-0.098388	0.834853
C93	C	-0.056165	-0.598473	0.261852
C94	C	0.443835	-0.098473	0.761852
C95	C	-0.056282	-0.671535	0.334962
C96	C	0.443718	-0.171535	0.834962
C97	C	-0.056272	-0.598469	0.334999
C98	C	0.443728	-0.098469	0.834999
C99	C	-0.227205	-0.565659	0.367327
C100	C	0.272795	-0.065659	0.867327
C101	C	-0.023703	-0.565882	0.367734
C102	C	0.476297	-0.065882	0.867734
C103	C	-0.074511	-0.616717	0.316667
C104	C	0.425489	-0.116717	0.816667
C105	C	-0.055754	-0.794298	0.391257
C106	C	0.444246	-0.294298	0.891257
C107	C	-0.039181	-0.844132	0.407888
C108	C	0.460819	-0.344132	0.907888
C109	C	0.041447	-0.844215	0.377269
C110	C	0.541447	-0.344215	0.877269
C111	C	0.024873	-0.794381	0.360637
C112	C	0.524873	-0.294381	0.860637
C113	C	-0.252183	-0.577666	0.416302
C114	C	0.247817	-0.077666	0.916302
C115	C	-0.302014	-0.561001	0.432833
C116	C	0.197986	-0.061001	0.932833
C117	C	-0.301886	-0.520329	0.351410
C118	C	0.198114	-0.020329	0.851410
C119	C	-0.252055	-0.536994	0.334880
C120	C	0.247945	-0.036994	0.834880
C121	C	-0.035709	-0.516892	0.355682
C122	C	0.464291	-0.016892	0.855682
C123	C	-0.019129	-0.500308	0.372353
C124	C	0.480871	-0.000308	0.872353
C125	C	0.021465	-0.581700	0.413115
C126	C	0.521465	-0.081700	0.913115
C127	C	0.004884	-0.598286	0.396450
C128	C	0.504884	-0.098286	0.896450
C129	C	-0.035389	-0.516907	0.139026
C130	C	0.464611	-0.016907	0.639026
C131	C	-0.018707	-0.500324	0.089193
C132	C	0.481293	-0.000324	0.589193
C133	C	0.021949	-0.581721	0.089240
C134	C	0.521949	-0.081721	0.589240
C135	C	0.005268	-0.598303	0.139074
C136	C	0.505268	-0.098303	0.639074
C137	C	-0.023402	-0.565894	0.163965
C138	C	0.476598	-0.065894	0.663965
C139	C	-0.023728	-0.769425	0.367633
C140	C	0.476272	-0.269425	0.867633
N141	N	0.427173	-0.450553	0.482630
N142	N	0.927173	0.049447	0.982630
O143	O	0.589997	-0.458460	0.365361
O144	O	1.089997	0.041540	0.865361
O145	O	0.590185	-0.550997	0.490963
O146	O	1.090185	-0.050997	0.990963
O147	O	0.590104	-0.550786	0.411309
O148	O	1.090104	-0.050786	0.911309
O149	O	0.590077	-0.458671	0.445016
O150	O	1.090077	0.041329	0.945016
O151	O	0.510940	-0.524462	0.437777
O152	O	1.010940	-0.024462	0.937777
O153	O	0.511020	-0.524674	0.517432
O154	O	1.011020	-0.024674	1.017432
O155	O	0.510832	-0.432136	0.391830
O156	O	1.010832	0.067864	0.891830
Zn157	Zn	0.498357	-0.474225	0.458833
Zn158	Zn	0.998357	0.025775	0.958833
Zn159	Zn	0.602660	-0.508908	0.423960
Zn160	Zn	1.102660	-0.008908	0.923960
O161	O	0.510913	-0.432348	0.471484
O162	O	1.010913	0.067652	0.971484
N163	N	0.673844	-0.532580	0.400158
N164	N	1.173844	-0.032580	0.900158
N165	N	0.091520	-0.115070	0.482873
N166	N	0.591520	0.384930	0.982873
O167	O	-0.025663	0.047841	0.474857
O168	O	0.474337	0.547841	0.974857
O169	O	0.099940	0.047877	0.382299
O170	O	0.599940	0.547877	0.882299
O171	O	0.020247	0.047844	0.382560
O172	O	0.520247	0.547844	0.882560
O173	O	0.054030	0.047874	0.474596
O174	O	0.554030	0.547874	0.974596
O175	O	0.046674	-0.031326	0.408942
O176	O	0.546674	0.468674	0.908942
O177	O	0.126367	-0.031293	0.408680
O178	O	0.626367	0.468707	0.908680
O179	O	0.000764	-0.031329	0.501238
O180	O	0.500764	0.468671	1.001238
Zn181	Zn	0.067761	-0.043881	0.459148
Zn182	Zn	0.567761	0.456119	0.959148
Zn183	Zn	0.032943	0.060429	0.424389
Zn184	Zn	0.532943	0.560429	0.924389
O185	O	0.080457	-0.031296	0.500977
O186	O	0.580457	0.468704	1.000977
N187	N	0.009178	0.131618	0.400665
N188	N	0.509178	0.631618	0.900665
N189	N	0.091852	-0.450680	0.818332
N190	N	0.591852	0.049320	1.318332
O191	O	0.083862	-0.567845	0.981235
O192	O	0.583862	-0.067845	1.481235
O193	O	-0.008657	-0.442198	0.981276
O194	O	0.491343	0.057802	1.481276
O195	O	-0.008441	-0.521875	0.981252
O196	O	0.491559	-0.021875	1.481252
O197	O	0.083646	-0.488168	0.981258
O198	O	0.583646	0.011832	1.481258
O199	O	0.017919	-0.495468	0.902085
O200	O	0.517919	0.004532	1.402085
O201	O	0.017703	-0.415791	0.902109
O202	O	0.517703	0.084209	1.402109
O203	O	0.110222	-0.541438	0.902067
O204	O	0.610222	-0.041438	1.402067
Zn205	Zn	0.068148	-0.474422	0.889518
Zn206	Zn	0.568148	0.025578	1.389518
Zn207	Zn	0.033417	-0.509214	0.993825
Zn208	Zn	0.533417	-0.009214	1.493825
O209	O	0.110006	-0.461761	0.902091
O210	O	0.610006	0.038239	1.402091
N211	N	0.009712	-0.532961	1.065011
N212	N	0.509712	-0.032961	1.565011
C213	C	0.030439	-0.413071	0.383027
C214	C	0.530439	0.086929	0.883027
C215	C	0.129046	-0.511580	0.382922
C216	C	0.629046	-0.011580	0.882922
C217	C	0.070334	-0.570496	0.500675
C218	C	0.570334	-0.070496	1.000675
C219	C	-0.028274	-0.471987	0.500780
C220	C	0.471726	0.028013	1.000780
C221	C	0.550625	-0.550579	0.520021
C222	C	1.050625	-0.050579	1.020021
C223	C	0.550527	-0.550317	0.421379
C224	C	1.050527	-0.050317	0.921379
C225	C	0.550389	-0.432554	0.362773
C226	C	1.050389	0.067446	0.862773
C227	C	0.550491	-0.432816	0.461414
C228	C	1.050491	0.067184	0.961414
C229	C	0.128944	0.008394	0.382712
C230	C	0.628944	0.508394	0.882712
C231	C	0.030287	0.008256	0.383068
C232	C	0.530287	0.508256	0.883068
C233	C	-0.028273	0.008252	0.500793
C234	C	0.471727	0.508252	1.000793
C235	C	0.070417	0.008292	0.500470
C236	C	0.570417	0.508292	1.000470
C237	C	-0.008218	-0.413165	0.941698
C238	C	0.491782	0.086835	1.441698
C239	C	-0.007945	-0.511830	0.941653
C240	C	0.492055	-0.011830	1.441653
C241	C	0.109783	-0.570471	0.941646
C242	C	0.609783	-0.070471	1.441646
C243	C	0.109516	-0.471800	0.941673
C244	C	0.609516	0.028200	1.441673
H245	H	0.049370	-0.382321	0.724071
H246	H	0.549370	0.117679	1.224071
H247	H	0.023050	0.008252	0.354152
H248	H	0.523050	0.508252	0.854152
H249	H	0.077653	0.008301	0.529384
H250	H	0.577653	0.508301	1.029384
O251	O	-0.076054	0.008249	0.539283
O252	O	0.423946	0.508249	1.039283
H253	H	-0.099418	0.008244	0.525842
H254	H	0.400582	0.508244	1.025842
O255	O	-0.046699	-0.365369	0.941717
O256	O	0.453301	0.134631	1.441717
H257	H	-0.033243	-0.342024	0.941727
H258	H	0.466757	0.157976	1.441727
H259	H	-0.036863	-0.519031	0.941619
H260	H	0.463137	-0.019031	1.441619
O261	O	0.550693	-0.589064	0.567803
O262	O	1.050693	-0.089064	1.067803
H263	H	0.550708	-0.575602	0.591144
H264	H	1.050708	-0.075602	1.091144
H265	H	0.138832	-0.606554	0.941627
H266	H	0.638832	-0.106554	1.441627
O267	O	0.550540	-0.588651	0.411831
O268	O	1.050540	-0.088651	0.911831
H269	H	0.550490	-0.575028	0.375013
H270	H	1.050490	-0.075028	0.875013
O271	O	-0.076079	-0.462573	0.539215
O272	O	0.423921	0.037427	1.039215
H273	H	-0.092723	-0.488294	0.549331
H274	H	0.407277	0.011706	1.049331
H275	H	0.332825	-0.345993	0.486242
H276	H	0.832825	0.154007	0.986242
H277	H	0.550329	-0.403500	0.326702
H278	H	1.050329	0.096500	0.826702
O279	O	0.147842	-0.462251	0.941667
O280	O	0.647842	0.037749	1.441667
H281	H	0.134224	-0.425418	0.941674
H282	H	0.634224	0.074582	1.441674
O283	O	0.550475	-0.394481	0.470962
O284	O	1.050475	0.105519	0.970962
H285	H	0.550519	-0.408102	0.507783
H286	H	1.050519	0.091898	1.007783
O287	O	0.176619	0.008679	0.344105
O288	O	0.676619	0.508679	0.844105
H289	H	0.183218	0.041021	0.335434
H290	H	0.683218	0.541021	0.835434
O291	O	0.006373	-0.409299	0.821062
O292	O	0.506373	0.090701	1.321062
H293	H	-0.009967	-0.422695	0.811509
H294	H	0.490033	0.077305	1.311509
O295	O	0.175574	-0.493848	0.820931
O296	O	0.675574	0.006152	1.320931
H297	H	0.198269	-0.474061	0.811349
H298	H	0.698269	0.025939	1.311349
O299	O	0.210005	-0.459286	0.717351
O300	O	0.710005	0.040714	1.217351
H301	H	0.229762	-0.481994	0.743027
H302	H	0.729762	0.018006	1.243027
O303	O	0.079839	-0.618337	0.539052
O304	O	0.579839	-0.118337	1.039052
H305	H	0.088641	-0.646585	0.526226
H306	H	0.588641	-0.146585	1.026226
O307	O	0.040666	-0.374734	0.558824
O308	O	0.540666	0.125266	1.058824
H309	H	0.003804	-0.369162	0.564426
H310	H	0.503804	0.130838	1.064426
O311	O	0.006109	-0.409266	0.524322
O312	O	0.506109	0.090734	1.024322
H313	H	-0.013608	-0.386570	0.547052
H314	H	0.486392	0.113430	1.047052
H315	H	0.196836	-0.456064	0.477324
H316	H	0.696836	0.043936	0.977324
O317	O	0.175213	-0.493766	0.439633
O318	O	0.675213	0.006234	0.939633
H319	H	0.197950	-0.526688	0.459370
H320	H	0.697950	-0.026688	0.959370
O321	O	0.326301	-0.500746	0.548285
O322	O	0.826301	-0.000746	1.048285
H323	H	0.335901	-0.527400	0.580618
H324	H	0.835901	-0.027400	1.080618
O325	O	0.429871	-0.535247	0.513709
O326	O	0.929871	-0.035247	1.013709
H327	H	0.404185	-0.554723	0.532986
H328	H	0.904185	-0.054723	1.032986
H329	H	0.423225	-0.376108	0.456057
H330	H	0.923225	0.123892	0.956057
H331	H	0.129672	-0.118967	0.410356
H332	H	0.629672	0.381033	0.910356
O333	O	0.167424	-0.215960	0.431898
O334	O	0.667424	0.284040	0.931898
H335	H	0.147617	-0.206402	0.409224
H336	H	0.647617	0.293598	0.909224
O337	O	0.048403	-0.112427	0.566572
O338	O	0.548403	0.387573	1.066572
H339	H	0.042860	-0.138135	0.603425
H340	H	0.542860	0.361865	1.103425
H341	H	0.086148	-0.209418	0.588113
H342	H	0.586148	0.290582	1.088113
H343	H	0.023260	-0.376951	0.354059
H344	H	0.523260	0.123049	0.854059
H345	H	0.044746	-0.608091	0.436494
H346	H	0.544746	-0.108091	0.936494
O347	O	-0.031646	-0.447485	0.062295
O348	O	0.468354	0.052515	0.562295
H349	H	-0.054389	-0.427740	0.087979
H350	H	0.445611	0.072260	0.587979
O351	O	0.176852	-0.520990	0.344486
O352	O	0.676852	-0.020990	0.844486
H353	H	0.183587	-0.551316	0.335811
H354	H	0.683587	-0.051316	0.835811
H355	H	0.045284	-0.608113	0.068976
H356	H	0.545284	-0.108113	0.568976
O357	O	-0.066306	-0.481951	0.165872
O358	O	0.433694	0.018049	0.665872
H359	H	-0.071833	-0.445101	0.140156
H360	H	0.428167	0.054899	0.640156
H361	H	0.015032	-0.638195	0.159378
H362	H	0.515032	-0.138195	0.659378
O363	O	-0.066545	-0.481944	0.324715
O364	O	0.433455	0.018056	0.824715
H365	H	-0.099471	-0.459222	0.344460
H366	H	0.400529	0.040778	0.844460
O367	O	-0.031992	-0.447468	0.359277
O368	O	0.468008	0.052532	0.859277
H369	H	-0.054620	-0.427721	0.336473
H370	H	0.445380	0.072279	0.836473
O371	O	0.017835	-0.651126	0.409441
O372	O	0.517835	-0.151126	0.909441
H373	H	0.040502	-0.670872	0.432205
H374	H	0.540502	-0.170872	0.932205
H375	H	0.050956	-0.774133	0.341399
H376	H	0.550956	-0.274133	0.841399
O377	O	0.093867	-0.871135	0.369726
O378	O	0.593867	-0.371135	0.869726
H379	H	0.113354	-0.845466	0.350501
H380	H	0.613354	-0.345466	0.850501
H381	H	-0.065262	-0.864385	0.427124
H382	H	0.434738	-0.364385	0.927124
O383	O	-0.108176	-0.767377	0.398803
O384	O	0.391824	-0.267377	0.898803
H385	H	-0.127660	-0.793048	0.418021
H386	H	0.372340	-0.293048	0.918021
H387	H	-0.231954	-0.601008	0.442726
H388	H	0.268046	-0.101008	0.942726
H389	H	-0.322118	-0.496994	0.324987
H390	H	0.177882	0.003006	0.824987
O391	O	-0.328976	-0.573951	0.485655
O392	O	0.171024	-0.073951	0.985655
H393	H	-0.319451	-0.560572	0.502037
H394	H	0.180549	-0.060572	1.002037
O395	O	-0.225114	-0.524041	0.282056
O396	O	0.274886	-0.024041	0.782056
H397	H	-0.250767	-0.501309	0.262272
H398	H	0.249233	-0.001309	0.762272
