data_functionalizedCrystal
_audit_creation_method	'MofGen! by Chris Wilmer'
_symmetry_space_group_name_H-M	'P1'
_symmetry_Int_Tables_number	1
_symmetry_cell_setting	triclinic
loop_
_symmetry_equiv_pos_as_xyz
  x,y,z
_cell_length_a	11.169417
_cell_length_b	19.077068
_cell_length_c	11.169409
_cell_angle_alpha	92.259065
_cell_angle_beta	89.980487
_cell_angle_gamma	92.328150
loop_
_atom_site_label
_atom_site_type_symbol
_atom_site_fract_x
_atom_site_fract_y
_atom_site_fract_z
Zn1	Zn	1.815630	-0.280119	-0.697655
Zn2	Zn	2.315630	0.219881	-0.197655
Zn3	Zn	1.807395	-0.397840	-0.505008
Zn4	Zn	2.307395	0.102160	-0.005008
Zn5	Zn	1.614913	-0.280163	-0.496993
Zn6	Zn	2.114913	0.219837	0.003007
Zn7	Zn	1.606803	-0.397783	-0.705650
Zn8	Zn	2.106803	0.102217	-0.205650
O9	O	1.711185	-0.338976	-0.601326
O10	O	2.211185	0.161024	-0.101326
O11	O	1.982487	-0.295741	-0.672108
O12	O	2.482487	0.204259	-0.172108
O13	O	1.781810	-0.382271	-0.335998
O14	O	2.281810	0.117729	0.164002
O15	O	1.648379	-0.181667	-0.516911
O16	O	2.148379	0.318333	-0.016911
O17	O	1.976437	-0.382229	-0.530571
O18	O	2.476437	0.117771	-0.030571
O19	O	1.795845	-0.181635	-0.664337
O20	O	2.295845	0.318365	-0.164337
O21	O	1.640394	-0.295815	-0.330109
O22	O	2.140394	0.204185	0.169891
O23	O	1.445888	-0.295760	-0.524664
O24	O	1.945888	0.204240	-0.024664
O25	O	1.634557	-0.382133	-0.872536
O26	O	2.134557	0.117867	-0.372536
O27	O	1.439929	-0.382175	-0.677963
O28	O	1.939929	0.117825	-0.177963
O29	O	1.787981	-0.295686	-0.866662
O30	O	2.287981	0.204314	-0.366662
O31	O	1.773946	-0.496323	-0.538323
O32	O	2.273946	0.003677	-0.038323
O33	O	1.626572	-0.496281	-0.685734
O34	O	2.126572	0.003719	-0.185734
C35	C	1.399361	-0.338967	-0.601312
C36	C	1.899361	0.161033	-0.101312
C37	C	1.265960	-0.338980	-0.601335
C38	C	1.765960	0.161020	-0.101335
C39	C	1.698518	-0.521839	-0.613792
C40	C	2.198518	-0.021839	-0.113792
C41	C	1.693208	-0.600069	-0.619165
C42	C	2.193208	-0.100069	-0.119165
C43	C	1.767503	-0.636820	-0.545004
C44	C	2.267503	-0.136820	-0.045004
C45	C	1.762516	-0.710325	-0.550065
C46	C	2.262516	-0.210325	-0.050065
C47	C	1.683228	-0.747077	-0.629281
C48	C	2.183228	-0.247077	-0.129281
C49	C	1.608930	-0.710322	-0.703451
C50	C	2.108930	-0.210322	-0.203451
C51	C	1.613923	-0.636818	-0.698395
C52	C	2.113923	-0.136818	-0.198395
C53	C	1.660064	-0.966910	-0.652630
C54	C	2.160064	-0.466910	-0.152630
C55	C	1.655073	-1.040419	-0.657677
C56	C	2.155073	-0.540419	-0.157677
C57	C	1.808662	-1.040417	-0.504293
C58	C	2.308662	-0.540417	-0.004293
C59	C	1.813644	-0.966912	-0.499239
C60	C	2.313644	-0.466912	0.000761
C61	C	1.739350	-0.930162	-0.573413
C62	C	2.239350	-0.430162	-0.073413
N63	N	1.678126	-0.822211	-0.634453
N64	N	2.178126	-0.322211	-0.134453
N65	N	1.744459	-0.855030	-0.568246
N66	N	2.244459	-0.355030	-0.068246
C67	C	2.024227	-0.338986	-0.601342
C68	C	2.524227	0.161014	-0.101342
C69	C	2.157627	-0.338991	-0.601348
C70	C	2.657627	0.161009	-0.101348
C71	C	1.711283	-0.338898	-0.914364
C72	C	2.211283	0.161102	-0.414364
C73	C	1.711324	-0.338865	-1.047761
C74	C	2.211324	0.161135	-0.547761
C75	C	1.723935	-0.155399	-0.588838
C76	C	2.223935	0.344601	-0.088838
C77	C	1.729368	-0.077170	-0.583516
C78	C	2.229368	0.422830	-0.083516
C79	C	1.711161	-0.339003	-0.289503
C80	C	2.211161	0.160997	0.210497
C81	C	1.711365	-0.338838	-0.156093
C82	C	2.211365	0.161162	0.343907
H83	H	1.832063	-0.606900	-0.480493
H84	H	2.332063	-0.106900	0.019507
H85	H	1.553426	-0.606896	-0.758786
H86	H	2.053426	-0.106896	-0.258786
O87	O	1.531939	-0.746130	-0.780297
O88	O	2.031939	-0.246130	-0.280297
C89	C	1.543479	-0.818887	-0.768877
C90	C	2.043479	-0.318887	-0.268877
H91	H	1.582150	-0.828954	-0.676981
H92	H	2.082150	-0.328954	-0.176981
H93	H	1.451674	-0.846861	-0.778862
H94	H	1.951674	-0.346861	-0.278862
H95	H	1.605941	-0.839681	-0.841550
H96	H	2.105941	-0.339681	-0.341550
O97	O	1.834728	-0.745915	-0.477900
O98	O	2.334728	-0.245915	0.022100
C99	C	1.905795	-0.697714	-0.406914
C100	C	2.405795	-0.197714	0.093086
H101	H	1.860192	-0.645346	-0.399117
H102	H	2.360192	-0.145346	0.100883
H103	H	1.917196	-0.718994	-0.313826
H104	H	2.417196	-0.218994	0.186174
H105	H	1.997462	-0.689828	-0.450393
H106	H	2.497462	-0.189828	0.049607
O107	O	1.890612	-0.931293	-0.422133
O108	O	2.390612	-0.431293	0.077867
C109	C	1.863206	-0.949314	-0.303729
C110	C	2.363206	-0.449314	0.196271
H111	H	1.813438	-1.002705	-0.304872
H112	H	2.313438	-0.502705	0.195128
H113	H	1.949685	-0.951817	-0.250165
H114	H	2.449685	-0.451817	0.249835
H115	H	1.804337	-0.907994	-0.260406
H116	H	2.304337	-0.407994	0.239594
H117	H	1.590521	-1.070341	-0.722206
H118	H	2.090521	-0.570341	-0.222206
O119	O	1.880796	-1.076224	-0.432381
O120	O	2.380796	-0.576224	0.067619
C121	C	1.859374	-1.148982	-0.453808
C122	C	2.359374	-0.648982	0.046192
H123	H	1.819326	-1.158993	-0.547078
H124	H	2.319326	-0.658993	-0.047078
H125	H	1.947388	-1.176873	-0.447679
H126	H	2.447388	-0.676873	0.052321
H127	H	1.794091	-1.169912	-0.383994
H128	H	2.294091	-0.669912	0.116006
H129	H	1.599569	-0.936994	-0.713023
H130	H	2.099569	-0.436994	-0.213023
