data_functionalizedCrystal
_audit_creation_method	'MofGen! by Chris Wilmer'
_symmetry_space_group_name_H-M	'P1'
_symmetry_Int_Tables_number	1
_symmetry_cell_setting	triclinic
loop_
_symmetry_equiv_pos_as_xyz
  x,y,z
_cell_length_a	14.853566
_cell_length_b	17.038274
_cell_length_c	13.930277
_cell_angle_alpha	90.012392
_cell_angle_beta	89.995631
_cell_angle_gamma	92.626900
loop_
_atom_site_label
_atom_site_type_symbol
_atom_site_fract_x
_atom_site_fract_y
_atom_site_fract_z
O1	O	1.204051	-0.102081	-0.079785
O2	O	0.942507	-0.114243	-0.079803
O3	O	1.071724	0.005655	-0.079768
O4	O	1.074834	-0.221980	-0.079821
O5	O	1.071705	0.005658	0.079894
O6	O	0.942487	-0.114241	0.079859
O7	O	1.204032	-0.102079	0.079877
Zn8	Zn	1.073257	-0.108159	0.105218
Zn9	Zn	1.073282	-0.108163	-0.105144
O10	O	1.074814	-0.221977	0.079841
C11	C	0.908867	-0.113691	0.000026
C12	C	0.808659	-0.112040	0.000020
C13	C	0.384959	-0.105059	-0.086993
C14	C	0.384960	-0.105057	0.087077
C15	C	0.479110	-0.106607	0.087073
C16	C	0.526190	-0.107385	0.000036
C17	C	0.479119	-0.106612	-0.086999
C18	C	0.526188	-0.107388	0.174106
C19	C	0.620344	-0.108939	0.174106
C20	C	0.667426	-0.109711	0.087068
C21	C	0.620349	-0.108937	0.000030
C22	C	0.667429	-0.109715	-0.087008
C23	C	0.620354	-0.108935	-0.174047
C24	C	0.526200	-0.107384	-0.174038
C25	C	0.761579	-0.111263	0.087058
C26	C	0.761588	-0.111267	-0.087014
C27	C	1.068887	0.034788	0.000068
C28	C	1.060451	0.121592	0.000082
C29	C	1.137904	0.171605	0.000096
C30	C	1.129972	0.253166	0.000100
C31	C	1.044586	0.284713	0.000096
C32	C	0.967127	0.234693	0.000079
C33	C	0.975060	0.153134	0.000069
C34	C	1.016560	0.530507	0.000122
C35	C	1.008633	0.612073	0.000136
C36	C	1.171478	0.630540	0.000154
C37	C	1.179404	0.548978	0.000149
C38	C	1.101945	0.498966	0.000127
C39	C	1.036476	0.368081	0.000103
C40	C	1.110056	0.415600	0.000113
C41	C	1.237672	-0.102631	0.000046
C42	C	1.337880	-0.104282	0.000045
N43	N	1.073246	-0.108156	0.248784
C44	C	1.077651	0.748890	0.000046
C45	C	1.086086	0.662086	0.000150
N46	N	1.073300	-0.108159	-0.248710
C47	C	1.016061	-0.161233	0.701037
C48	C	1.130528	-0.055086	0.701038
C49	C	1.130517	-0.055084	0.600542
C50	C	1.073278	-0.108157	0.550289
C51	C	1.016050	-0.161233	0.600532
C52	C	1.187751	-0.002014	0.550292
C53	C	1.187743	-0.002010	0.449790
C54	C	1.130498	-0.055081	0.399535
C55	C	1.073267	-0.108158	0.449784
C56	C	1.016028	-0.161232	0.399531
C57	C	0.958792	-0.214306	0.449779
C58	C	0.958806	-0.214304	0.550277
C59	C	1.130485	-0.055083	0.299036
C60	C	1.016018	-0.161232	0.299026
H61	H	0.658665	-0.109572	0.244979
C62	C	1.249734	0.055694	0.604911
C63	C	1.198030	0.103644	0.662606
C64	C	1.255095	0.156823	0.712934
H65	H	1.289435	0.027596	0.644186
H66	H	1.283808	0.087351	0.560634
H67	H	1.163972	0.071991	0.706878
H68	H	1.158332	0.131759	0.623355
H69	H	1.289169	0.188481	0.668656
H70	H	1.294793	0.128719	0.752203
H71	H	1.220022	0.189369	0.752079
C72	C	1.230691	0.137510	0.000047
C73	C	1.296822	0.198770	0.000031
C74	C	1.382310	0.167395	-0.000032
H75	H	1.237296	0.106093	0.055704
H76	H	1.237222	0.106097	-0.055658
H77	H	1.290294	0.230170	0.055731
H78	H	1.290247	0.230192	-0.055622
H79	H	1.388841	0.135982	-0.055737
H80	H	1.388906	0.135978	0.055627
H81	H	1.427190	0.208955	-0.000051
C82	C	0.953759	-0.218733	0.244418
C83	C	0.895356	-0.176995	0.186757
C84	C	0.837985	-0.229938	0.136448
H85	H	0.988579	-0.251357	0.205123
H86	H	0.919623	-0.250328	0.288708
H87	H	0.929489	-0.145413	0.142472
H88	H	0.860517	-0.144374	0.226028
H89	H	0.803849	-0.261533	0.180738
H90	H	0.872812	-0.262559	0.097158
H91	H	0.798347	-0.201626	0.097326
H92	H	0.658698	-0.109574	-0.244913
H93	H	1.177090	-0.011874	0.258130
H94	H	0.487863	-0.106748	-0.244900
H95	H	0.346627	-0.104421	-0.157858
H96	H	0.912191	-0.257522	0.408851
H97	H	0.799903	-0.111905	0.157924
H98	H	0.912207	-0.257516	0.591195
H99	H	0.969457	-0.204443	0.741951
C100	C	1.272056	0.514628	-0.000003
C101	C	1.281372	0.468322	-0.082139
C102	C	1.366708	0.436659	-0.082303
H103	H	1.317131	0.556017	-0.000045
H104	H	1.278543	0.483156	0.055642
H105	H	1.274894	0.499792	-0.137770
H106	H	1.236318	0.426920	-0.082115
H107	H	1.373195	0.405187	-0.026658
H108	H	1.411775	0.478054	-0.082342
H109	H	1.373037	0.405232	-0.138026
H110	H	1.193043	0.293884	0.000113
C111	C	0.943692	0.402182	0.000055
C112	C	0.877551	0.340930	0.000021
C113	C	0.792069	0.372317	-0.000041
H114	H	0.937081	0.433612	0.055719
H115	H	0.937177	0.433586	-0.055643
H116	H	0.884062	0.309540	0.055714
H117	H	0.884132	0.309496	-0.055638
H118	H	0.785554	0.403721	-0.055739
H119	H	0.785468	0.403746	0.055624
H120	H	0.747182	0.330763	-0.000073
H121	H	1.234541	0.671268	0.000171
H122	H	0.939098	0.637754	0.000149
H123	H	1.177135	-0.011879	0.741957
H124	H	1.234346	0.041206	0.408885
C125	C	0.334008	-0.104255	0.181671
C126	C	0.395384	-0.105281	0.257889
C127	C	0.348476	-0.104551	0.345047
H128	H	0.300652	-0.058102	0.185435
H129	H	0.293917	-0.149230	0.185334
H130	H	0.435458	-0.060310	0.254228
H131	H	0.428742	-0.151431	0.254157
H132	H	0.308386	-0.149527	0.348710
H133	H	0.315122	-0.058397	0.348801
H134	H	0.390112	-0.105255	0.396772
C135	C	0.812534	-0.112151	-0.181616
C136	C	0.751152	-0.111156	-0.257832
C137	C	0.798049	-0.111981	-0.344992
H138	H	0.852651	-0.067211	-0.185363
H139	H	0.845857	-0.158338	-0.185300
H140	H	0.717844	-0.064974	-0.254150
H141	H	0.711033	-0.156093	-0.254116
H142	H	0.831372	-0.158168	-0.348676
H143	H	0.838164	-0.067040	-0.348729
H144	H	0.756408	-0.111313	-0.396714
H145	H	0.953487	0.489797	0.000105
C146	C	0.890891	0.098923	-0.000095
C147	C	0.839842	0.113200	-0.082228
C148	C	0.762292	0.063283	-0.082411
H149	H	0.907718	0.045805	-0.000154
H150	H	0.856076	0.108507	0.055551
H151	H	0.874650	0.103609	-0.137861
H152	H	0.822991	0.166308	-0.082187
H153	H	0.727477	0.072868	-0.026765
H154	H	0.779128	0.010169	-0.082467
H155	H	0.727642	0.072968	-0.138133
H156	H	0.487848	-0.106760	0.244968
H157	H	0.897603	0.260385	0.000071
H158	H	1.179577	0.389911	0.000095
