data_functionalizedCrystal
_audit_creation_method	'MofGen! by Chris Wilmer'
_symmetry_space_group_name_H-M	'P1'
_symmetry_Int_Tables_number	1
_symmetry_cell_setting	triclinic
loop_
_symmetry_equiv_pos_as_xyz
  x,y,z
_cell_length_a	17.640112
_cell_length_b	21.295417
_cell_length_c	21.295411
_cell_angle_alpha	89.978356
_cell_angle_beta	101.169060
_cell_angle_gamma	101.256239
loop_
_atom_site_label
_atom_site_type_symbol
_atom_site_fract_x
_atom_site_fract_y
_atom_site_fract_z
Zn1	Zn	1.208340	-0.055888	-0.161687
Zn2	Zn	1.208217	-0.161159	-0.056433
Zn3	Zn	1.076153	-0.077198	-0.077680
Zn4	Zn	1.076115	-0.182439	-0.182898
O5	O	1.142206	-0.119171	-0.119674
O6	O	1.318929	-0.052029	-0.129957
O7	O	1.190663	-0.150034	0.028833
O8	O	1.093756	0.013729	-0.088839
O9	O	1.318839	-0.129371	-0.052626
O10	O	1.190872	0.029386	-0.150559
O11	O	1.093637	-0.088348	0.013223
O12	O	0.965543	-0.108982	-0.109406
O13	O	1.093690	-0.165639	-0.268168
O14	O	0.965515	-0.186302	-0.186709
O15	O	1.190835	-0.072662	-0.252585
O16	O	1.190626	-0.252082	-0.073193
O17	O	1.093571	-0.267716	-0.166107
C18	C	0.936850	-0.152264	-0.152665
C19	C	0.848997	-0.166436	-0.166793
C20	C	0.560026	-0.011493	-0.012347
C21	C	0.477475	-0.024823	-0.025632
C22	C	0.477500	-0.105447	-0.105989
C23	C	0.560052	-0.092122	-0.092714
C24	C	0.601309	-0.045145	-0.045892
C25	C	0.601335	-0.125774	-0.126258
C26	C	0.683881	-0.112452	-0.112981
C27	C	0.725143	-0.065478	-0.066160
C28	C	0.683854	-0.031823	-0.032615
C29	C	0.560077	-0.172754	-0.173076
C30	C	0.601360	-0.206406	-0.206620
C31	C	0.683907	-0.193080	-0.193347
C32	C	0.725169	-0.146107	-0.146526
C33	C	0.725196	-0.226736	-0.226892
C34	C	0.807741	-0.213413	-0.213615
C35	C	0.807714	-0.132785	-0.133249
C36	C	1.142103	-0.282739	-0.119656
C37	C	1.142131	-0.352703	-0.119658
C38	C	1.192712	-0.377401	-0.071312
C39	C	1.192749	-0.443137	-0.071320
C40	C	1.142191	-0.484176	-0.119670
C41	C	1.091606	-0.459470	-0.168024
C42	C	1.091576	-0.393734	-0.168018
N43	N	1.073048	-0.598589	-0.135577
N44	N	1.073079	-0.661035	-0.135578
C45	C	1.142279	-0.682236	-0.119692
N46	N	1.211449	-0.638631	-0.103791
N47	N	1.211418	-0.576179	-0.103786
C48	C	1.142218	-0.555457	-0.119682
C49	C	1.192905	-0.778212	-0.071352
C50	C	1.192943	-0.843950	-0.071364
C51	C	1.091793	-0.860283	-0.168066
C52	C	1.091762	-0.794545	-0.168056
C53	C	1.142317	-0.753514	-0.119696
C54	C	1.348365	-0.085949	-0.086555
C55	C	1.436217	-0.071792	-0.072442
C56	C	1.142272	-0.119147	-0.283854
C57	C	1.142300	-0.119137	-0.353818
C58	C	1.142332	0.045040	-0.119703
C59	C	1.142385	0.115016	-0.119715
C60	C	1.192881	-0.070723	-0.378572
C61	C	1.192880	-0.070695	-0.444314
C62	C	1.142306	-0.119093	-0.485299
C63	C	1.091715	-0.167511	-0.460539
C64	C	1.091712	-0.167533	-0.394798
N65	N	1.136208	-0.175143	-0.589495
N66	N	1.136215	-0.175120	-0.651945
C67	C	1.142311	-0.119028	-0.683373
N68	N	1.148414	-0.062957	-0.649990
N69	N	1.148411	-0.062980	-0.587533
C70	C	1.142303	-0.119074	-0.556585
C71	C	1.192894	-0.070580	-0.779413
C72	C	1.192887	-0.070553	-0.845157
C73	C	1.091726	-0.167374	-0.861380
C74	C	1.091729	-0.167396	-0.795637
C75	C	1.142317	-0.119000	-0.754657
C76	C	1.142186	-0.119142	0.043874
C77	C	1.142312	-0.118950	0.113862
H78	H	0.792356	-0.054633	-0.055349
H79	H	1.050570	-0.774436	-0.207422
C80	C	1.292702	-0.367864	0.024269
C81	C	1.248293	-0.332299	-0.018162
H82	H	1.327020	-0.340017	0.057078
H83	H	1.258291	-0.399086	0.042840
H84	H	1.322923	-0.388601	0.001666
H85	H	1.218067	-0.311565	0.004441
H86	H	1.282708	-0.301066	-0.036733
C87	C	0.985404	-0.193300	-0.738763
C88	C	1.036134	-0.220619	-0.768422
H89	H	0.951077	-0.226160	-0.721966
H90	H	1.015526	-0.164486	-0.704951
H91	H	0.955194	-0.170736	-0.769264
H92	H	1.066348	-0.243179	-0.737920
H93	H	1.006009	-0.249444	-0.802238
C94	C	1.046829	-0.210339	-0.969353
C95	C	1.036142	-0.220579	-0.906422
H96	H	1.012516	-0.243191	-0.997161
H97	H	1.035283	-0.169908	-0.981980
H98	H	1.099933	-0.210985	-0.971598
H99	H	0.983039	-0.219929	-0.904176
H100	H	1.047682	-0.261021	-0.893792
H101	H	1.234073	-0.744803	-0.031975
C102	C	0.934243	-0.076557	-0.077220
C103	C	0.853073	-0.081141	-0.081786
H104	H	0.962244	-0.044674	-0.045453
H105	H	0.947741	-0.116655	-0.065753
H106	H	0.947793	-0.065223	-0.117356
H107	H	0.839522	-0.092480	-0.041651
H108	H	0.839569	-0.041035	-0.093249
H109	H	1.050631	-0.893695	-0.207436
H110	H	0.717447	0.006440	0.005503
C111	C	0.551719	0.066867	0.065768
C112	C	0.605383	0.040141	0.039125
H113	H	0.579722	0.098737	0.097548
H114	H	0.519559	0.085721	0.033127
H115	H	0.519488	0.034268	0.084709
H116	H	0.637610	0.072739	0.020180
H117	H	0.637557	0.021287	0.071772
C118	C	1.080679	-0.253947	-0.536231
C119	C	1.036126	-0.220714	-0.505585
H120	H	1.046356	-0.286795	-0.564036
H121	H	1.110795	-0.225110	-0.560384
H122	H	1.115093	-0.272485	-0.505053
H123	H	1.001715	-0.202172	-0.536763
H124	H	1.005996	-0.249556	-0.481431
C125	C	1.080669	-0.254010	-0.322634
C126	C	1.036115	-0.220756	-0.367582
H127	H	1.046345	-0.286865	-0.305828
H128	H	1.115077	-0.272534	-0.342763
H129	H	1.110790	-0.225183	-0.288823
H130	H	1.005999	-0.249582	-0.401395
H131	H	1.001693	-0.202232	-0.347453
C132	C	0.350975	-0.161669	-0.162029
C133	C	0.432146	-0.157081	-0.157457
H134	H	0.322979	-0.193542	-0.193807
H135	H	0.337419	-0.173013	-0.121903
H136	H	0.337478	-0.121562	-0.173487
H137	H	0.445645	-0.197186	-0.145994
H138	H	0.445708	-0.145740	-0.197591
H139	H	1.234067	-0.031268	-0.464473
C140	C	0.384576	-0.030929	0.044077
C141	C	0.432088	0.012178	0.011230
H142	H	0.356558	-0.008084	0.066832
H143	H	0.348200	-0.060809	0.014293
H144	H	0.416754	-0.053120	0.073390
H145	H	0.399910	0.034365	-0.018087
H146	H	0.468469	0.042069	0.041017
C147	C	1.203897	0.015722	-0.302903
C148	C	1.248466	-0.017506	-0.333538
H149	H	1.238209	0.048578	-0.275102
H150	H	1.169476	0.034242	-0.334081
H151	H	1.173788	-0.013121	-0.278740
H152	H	1.278571	0.011336	-0.357705
H153	H	1.282900	-0.036026	-0.302356
C154	C	0.474836	-0.262627	-0.262660
C155	C	0.556007	-0.258039	-0.258089
H156	H	0.446839	-0.294500	-0.294439
H157	H	0.461279	-0.273971	-0.222534
H158	H	0.461338	-0.222521	-0.274118
H159	H	0.569505	-0.298144	-0.246626
H160	H	0.569568	-0.246698	-0.298223
C161	C	1.046732	-0.567494	-0.210964
C162	C	1.036028	-0.504578	-0.221170
H163	H	1.012417	-0.595340	-0.243775
H164	H	1.099830	-0.569663	-0.211684
H165	H	1.035193	-0.580151	-0.170515
H166	H	1.047573	-0.491919	-0.261618
H167	H	0.982918	-0.502406	-0.220457
C168	C	0.699836	-0.261643	-0.337507
C169	C	0.679839	-0.278370	-0.278358
H170	H	0.671837	-0.293522	-0.369279
H171	H	0.686327	-0.221546	-0.348961
H172	H	0.754906	-0.258527	-0.334396
H173	H	0.624770	-0.281481	-0.281468
H174	H	0.693342	-0.318478	-0.266902
C175	C	1.299085	-0.499880	-0.045541
C176	C	1.248330	-0.470306	-0.018167
H177	H	1.333394	-0.516651	-0.012723
H178	H	1.268980	-0.533715	-0.074343
H179	H	1.329313	-0.469324	-0.068114
H180	H	1.218098	-0.500863	0.004402
H181	H	1.278438	-0.436467	0.010646
C182	C	1.292878	0.025129	-0.769979
C183	C	1.248489	-0.017379	-0.734363
H184	H	1.327196	0.057975	-0.742168
H185	H	1.323092	0.002582	-0.790772
H186	H	1.258449	0.043666	-0.801145
H187	H	1.282917	-0.035919	-0.703201
H188	H	1.218273	0.005171	-0.713560
H189	H	1.234075	-0.031125	-0.865310
H190	H	0.841354	-0.240815	-0.240931
C191	C	0.991598	-0.416482	-0.263604
C192	C	1.035968	-0.366583	-0.221161
H193	H	0.957264	-0.399719	-0.296409
H194	H	1.026032	-0.436531	-0.282178
H195	H	0.961395	-0.447033	-0.241009
H196	H	1.066175	-0.336035	-0.243755
H197	H	1.001529	-0.346524	-0.202586
H198	H	0.492864	-0.183599	-0.183885
C199	C	1.292907	-0.821201	0.024230
C200	C	1.248546	-0.871100	-0.018217
H201	H	1.327230	-0.837965	0.057043
H202	H	1.323113	-0.790654	0.001645
H203	H	1.258460	-0.801151	0.042798
H204	H	1.282993	-0.891148	-0.036788
H205	H	1.218338	-0.901659	0.004372
