data_functionalizedCrystal
_audit_creation_method	'MofGen! by Chris Wilmer'
_symmetry_space_group_name_H-M	'P1'
_symmetry_Int_Tables_number	1
_symmetry_cell_setting	triclinic
loop_
_symmetry_equiv_pos_as_xyz
  x,y,z
_cell_length_a	9.065215
_cell_length_b	16.974813
_cell_length_c	7.540329
_cell_angle_alpha	86.341850
_cell_angle_beta	89.997574
_cell_angle_gamma	84.203340
loop_
_atom_site_label
_atom_site_type_symbol
_atom_site_fract_x
_atom_site_fract_y
_atom_site_fract_z
O1	O	1.957275	0.115924	-0.164096
O2	O	1.527733	0.125436	-0.165469
O3	O	1.754479	0.005663	-0.148267
O4	O	1.730529	0.235698	-0.181299
O5	O	1.754465	0.005661	0.146699
O6	O	1.527720	0.125435	0.129496
O7	O	1.957261	0.115923	0.130869
Cu8	Cu	1.742489	0.120678	0.157115
Cu9	Cu	1.742505	0.120680	-0.191716
O10	O	1.730516	0.235696	0.113666
C11	C	1.472764	0.124522	-0.017857
C12	C	1.308995	0.121790	-0.017467
C13	C	1.753561	-0.023803	0.003443
C14	C	1.750829	-0.111600	0.016039
C15	C	1.749556	-0.152841	-0.138828
C16	C	1.746979	-0.235334	-0.126987
C17	C	1.745686	-0.276585	0.039722
C18	C	1.746955	-0.235338	0.194600
C19	C	1.749521	-0.152845	0.182758
C20	C	1.738001	-0.523302	0.092381
C21	C	1.735439	-0.605800	0.104212
C22	C	1.735461	-0.605791	-0.217377
C23	C	1.738036	-0.523297	-0.229205
C24	C	1.739296	-0.482056	-0.074327
N25	N	1.743057	-0.360907	0.051829
N26	N	1.741915	-0.397735	-0.086435
C27	C	2.012230	0.116837	-0.016748
C28	C	2.176000	0.119569	-0.017149
C29	C	1.731434	0.265162	-0.038048
C30	C	1.734166	0.352958	-0.050655
N31	N	1.742489	0.120677	0.402464
N32	N	1.742517	0.120676	-0.437063
H33	H	1.750617	-0.119261	-0.274581
H34	H	1.734378	-0.639384	0.239973
H35	H	1.739091	-0.489716	-0.364957
H36	H	1.734431	-0.639378	-0.343470
O37	O	1.750496	-0.112725	0.333137
C38	C	1.625665	-0.011510	0.505161
C39	C	1.624372	-0.056899	0.334806
H40	H	1.523722	0.033647	0.506549
H41	H	1.624207	-0.055115	0.626421
H42	H	1.730102	0.020580	0.508572
H43	H	1.519953	-0.088991	0.331222
H44	H	1.625909	-0.013256	0.213624
O45	O	1.738985	-0.483204	0.242781
C46	C	1.614194	-0.382014	0.414907
C47	C	1.612869	-0.427375	0.244513
H48	H	1.512257	-0.336855	0.416345
H49	H	1.612746	-0.425637	0.536136
H50	H	1.718637	-0.349930	0.418325
H51	H	1.508444	-0.459461	0.240921
H52	H	1.614396	-0.383714	0.123361
H53	H	1.745949	-0.268910	-0.253097
O54	O	1.745503	-0.275483	0.356439
C55	C	1.614826	-0.360547	0.555333
C56	C	1.616290	-0.315137	0.371975
H57	H	1.510353	-0.392606	0.567967
H58	H	1.716751	-0.405711	0.569876
H59	H	1.616249	-0.316890	0.663959
H60	H	1.614817	-0.358735	0.263240
H61	H	1.514375	-0.269962	0.357585
