data_functionalizedCrystal
_audit_creation_method	'MofGen! by Chris Wilmer'
_symmetry_space_group_name_H-M	'P1'
_symmetry_Int_Tables_number	1
_symmetry_cell_setting	triclinic
loop_
_symmetry_equiv_pos_as_xyz
  x,y,z
_cell_length_a	15.944551
_cell_length_b	10.654541
_cell_length_c	9.730217
_cell_angle_alpha	90.000068
_cell_angle_beta	89.995798
_cell_angle_gamma	96.008667
loop_
_atom_site_label
_atom_site_type_symbol
_atom_site_fract_x
_atom_site_fract_y
_atom_site_fract_z
O1	O	0.117965	-1.666312	-0.114251
O2	O	0.617965	-1.166312	0.385749
O3	O	0.129208	-1.300688	-0.114263
O4	O	0.629208	-0.800688	0.385737
O5	O	0.001369	-1.493484	-0.114245
O6	O	0.501369	-0.993484	0.385755
O7	O	0.245804	-1.473516	-0.114270
O8	O	0.745804	-0.973516	0.385730
O9	O	0.001368	-1.493478	0.114335
O10	O	0.501368	-0.993478	0.614335
O11	O	0.129206	-1.300682	0.114317
O12	O	0.629206	-0.800682	0.614317
O13	O	0.117964	-1.666306	0.114329
O14	O	0.617964	-1.166306	0.614329
Zn15	Zn	0.123585	-1.483493	0.150615
Zn16	Zn	0.623585	-0.983493	0.650615
Zn17	Zn	0.123587	-1.483501	-0.150549
Zn18	Zn	0.623587	-0.983501	0.349451
O19	O	0.245802	-1.473510	0.114310
O20	O	0.745802	-0.973510	0.614310
C21	C	0.128382	-1.253897	0.000025
C22	C	0.628382	-0.753897	0.500025
C23	C	0.125914	-1.114486	0.000021
C24	C	0.625914	-0.614486	0.500021
C25	C	-0.029930	-1.492652	0.000046
C26	C	0.470070	-0.992652	0.500046
C27	C	-0.123190	-1.490167	0.000046
C28	C	0.376810	-0.990167	0.500046
C29	C	0.118790	-1.713097	0.000037
C30	C	0.618790	-1.213097	0.500037
C31	C	0.121258	-1.852508	0.000033
C32	C	0.621258	-1.352508	0.500033
C33	C	-0.338772	-1.364722	0.000023
C34	C	0.161228	-0.864722	0.500023
C35	C	-0.399453	-1.422972	0.112729
C36	C	0.100547	-0.922972	0.612729
C37	C	-0.293942	-1.485671	0.000036
C38	C	0.206058	-0.985671	0.500036
C39	C	-0.399436	-1.423006	-0.112633
C40	C	0.100564	-0.923006	0.387367
C41	C	-0.458880	-1.481319	0.000019
C42	C	0.041120	-0.981319	0.500019
C43	C	-0.353395	-1.543954	0.112834
C44	C	0.146605	-1.043954	0.612834
C45	C	-0.353371	-1.543971	-0.112629
C46	C	0.146629	-1.043971	0.387371
C47	C	-0.414034	-1.602309	0.000104
C48	C	0.085966	-1.102309	0.500104
C49	C	-0.198925	-1.488175	0.000046
C50	C	0.301075	-0.988175	0.500046
C51	C	-0.553896	-1.478825	0.000019
C52	C	-0.053896	-0.978825	0.500019
C53	C	0.277102	-1.474342	0.000017
C54	C	0.777102	-0.974342	0.500017
C55	C	0.370362	-1.476827	0.000007
C56	C	0.870362	-0.976827	0.500007
N57	N	0.123584	-1.483497	0.356151
N58	N	0.623584	-0.983497	0.856151
C59	C	0.278779	-1.084537	-0.000012
C60	C	0.778779	-0.584537	0.499988
C61	C	0.354048	-1.004069	-0.000034
C62	C	0.854048	-0.504069	0.499966
C63	C	0.351724	-0.873081	-0.000035
C64	C	0.851724	-0.373081	0.499965
C65	C	0.274122	-0.822560	-0.000010
C66	C	0.774122	-0.322560	0.499990
C67	C	0.198852	-0.903028	0.000012
C68	C	0.698852	-0.403028	0.500012
C69	C	0.201185	-1.034017	0.000009
C70	C	0.701185	-0.534017	0.500009
C71	C	0.045989	-0.932976	0.000055
C72	C	0.545989	-0.432976	0.500055
C73	C	0.048311	-1.063965	0.000046
C74	C	0.548311	-0.563965	0.500046
C75	C	-0.031613	-0.882455	0.000080
C76	C	0.468387	-0.382455	0.500080
C77	C	-0.106885	-0.962924	0.000092
C78	C	0.393115	-0.462924	0.500092
C79	C	-0.104557	-1.093919	0.000091
C80	C	0.395443	-0.593919	0.500091
C81	C	-0.026958	-1.144433	0.000068
C82	C	0.473042	-0.644433	0.500068
N83	N	0.123582	-1.483507	-0.356086
N84	N	0.623582	-0.983507	0.143914
C85	C	0.010416	-1.654288	0.356159
C86	C	0.510416	-1.154288	0.856159
C87	C	-0.046165	-1.739691	0.428102
C88	C	0.453835	-1.239691	0.928102
C89	C	-0.046166	-1.739704	0.571982
C90	C	0.453834	-1.239704	1.071982
C91	C	0.010420	-1.654302	0.643921
C92	C	0.510420	-1.154302	1.143921
C93	C	0.067001	-1.568898	0.571978
C94	C	0.567001	-1.068898	1.071978
C95	C	0.066997	-1.568897	0.428095
C96	C	0.566997	-1.068897	0.928095
C97	C	0.180163	-1.398103	0.571971
C98	C	0.680163	-0.898103	1.071971
C99	C	0.180169	-1.398094	0.428091
C100	C	0.680169	-0.898094	0.928091
C101	C	0.236748	-1.312700	0.643910
C102	C	0.736748	-0.812700	1.143910
C103	C	0.293335	-1.227301	0.571967
C104	C	0.793335	-0.727301	1.071967
C105	C	0.293334	-1.227292	0.428078
C106	C	0.793334	-0.727292	0.928078
C107	C	0.236750	-1.312691	0.356147
C108	C	0.736750	-0.812691	0.856147
H109	H	-0.306045	-1.264329	0.000132
H110	H	0.193955	-0.764329	0.500132
H111	H	0.413015	-0.807563	-0.000043
H112	H	0.913015	-0.307563	0.499957
H113	H	0.236747	-1.312696	0.238993
H114	H	0.736747	-0.812696	0.738993
H115	H	-0.446611	-1.702790	0.000171
H116	H	0.053389	-1.202790	0.500171
H117	H	-0.419858	-1.371813	0.208009
H118	H	0.080142	-0.871813	0.708009
H119	H	-0.333109	-1.595065	0.208223
H120	H	0.166891	-1.095065	0.708223
H121	H	0.280679	-1.191193	-0.000042
H122	H	0.780679	-0.691193	0.499958
H123	H	-0.332944	-1.595086	-0.207914
H124	H	0.167056	-1.095086	0.292086
H125	H	-0.419808	-1.371836	-0.207924
H126	H	0.080192	-0.871836	0.292076
H127	H	0.417231	-1.045218	-0.000051
H128	H	0.917231	-0.545218	0.499949
H129	H	0.272236	-0.715901	0.000005
H130	H	0.772236	-0.215901	0.500005
H131	H	-0.033501	-0.775797	0.000086
H132	H	0.466499	-0.275797	0.500086
H133	H	-0.170062	-0.921778	0.000111
H134	H	0.329938	-0.421778	0.500111
H135	H	-0.165851	-1.159430	0.000114
H136	H	0.334149	-0.659430	0.500114
H137	H	-0.025055	-1.251088	0.000051
H138	H	0.474945	-0.751088	0.500051
H139	H	0.010418	-1.654296	0.239004
H140	H	0.510418	-1.154296	0.739004
H141	H	-0.092242	-1.809243	0.630559
H142	H	0.407758	-1.309243	1.130559
H143	H	0.236742	-1.312709	0.761065
H144	H	0.736742	-0.812709	1.261065
H145	H	-0.092238	-1.809224	0.369517
H146	H	0.407762	-1.309224	0.869517
H147	H	0.339399	-1.157766	0.630549
H148	H	0.839399	-0.657766	1.130549
H149	H	0.010409	-1.654307	0.761076
H150	H	0.510409	-1.154307	1.261076
H151	H	0.339406	-1.157742	0.369509
H152	H	0.839406	-0.657742	0.869509
