data_functionalizedCrystal
_audit_creation_method	'MofGen! by Chris Wilmer'
_symmetry_space_group_name_H-M	'P1'
_symmetry_Int_Tables_number	1
_symmetry_cell_setting	triclinic
loop_
_symmetry_equiv_pos_as_xyz
  x,y,z
_cell_length_a	15.711784
_cell_length_b	19.188924
_cell_length_c	14.185569
_cell_angle_alpha	76.888872
_cell_angle_beta	107.179161
_cell_angle_gamma	101.365383
loop_
_atom_site_label
_atom_site_type_symbol
_atom_site_fract_x
_atom_site_fract_y
_atom_site_fract_z
O1	O	1.125814	0.393385	-0.083484
O2	O	0.874355	0.340271	-0.083473
O3	O	1.007347	0.267043	-0.083467
O4	O	0.992822	0.466613	-0.083490
O5	O	1.046633	0.245414	0.083369
O6	O	0.913642	0.318642	0.083363
O7	O	1.165100	0.371756	0.083352
Cu8	Cu	1.042958	0.343224	0.098591
Cu9	Cu	0.996497	0.368803	-0.098712
O10	O	1.032109	0.444984	0.083346
C11	C	0.861828	0.320780	-0.000054
C12	C	0.765969	0.294918	-0.000049
C13	C	0.641395	0.197558	-0.000037
C14	C	0.731468	0.221866	-0.000041
C15	C	0.710402	0.343692	-0.000059
C16	C	0.620325	0.319394	-0.000060
C17	C	0.585829	0.246327	-0.000048
C18	C	0.564759	0.368163	-0.000071
C19	C	0.474691	0.343867	-0.000066
C20	C	0.440188	0.270802	-0.000051
C21	C	0.495761	0.222031	-0.000043
C22	C	0.599258	0.441229	-0.000076
C23	C	0.543692	0.489998	-0.000087
C24	C	0.453621	0.465703	-0.000089
C25	C	0.419118	0.392638	-0.000074
C26	C	0.398048	0.514474	-0.000097
C27	C	0.307980	0.490178	-0.000093
C28	C	0.329050	0.368342	-0.000070
C29	C	1.026521	0.230096	-0.000048
C30	C	1.025113	0.152228	-0.000045
C31	C	1.003041	0.127449	-0.090988
C32	C	1.001703	0.054283	-0.090996
C33	C	1.022457	0.005900	-0.000055
C34	C	1.044528	0.030685	0.090899
C35	C	1.045856	0.103849	0.090904
N36	N	1.085454	-0.110402	0.067627
N37	N	1.084192	-0.179904	0.067616
C38	C	1.018455	-0.214539	-0.000065
N39	N	0.954033	-0.177044	-0.067750
N40	N	0.955298	-0.107536	-0.067742
C41	C	1.021019	-0.073435	-0.000051
C42	C	0.994929	-0.318652	-0.091022
C43	C	0.993587	-0.391821	-0.091026
C44	C	1.036421	-0.415417	0.090872
C45	C	1.037754	-0.342250	0.090873
C46	C	1.017011	-0.293871	-0.000077
C47	C	1.177627	0.391248	-0.000070
C48	C	1.273484	0.417110	-0.000081
C49	C	1.012934	0.481931	-0.000075
C50	C	1.014340	0.559801	-0.000085
N51	N	1.075643	0.325235	0.237364
N52	N	0.963819	0.386789	-0.237485
C53	C	0.867791	0.439611	0.605004
C54	C	0.892556	0.425991	0.710027
C55	C	1.010344	0.361188	0.709993
C56	C	0.985586	0.374800	0.604968
C57	C	0.914310	0.414013	0.552482
C58	C	1.032105	0.349202	0.552446
C59	C	1.007353	0.362817	0.447431
C60	C	0.936082	0.402029	0.394937
C61	C	0.889558	0.427627	0.447466
C62	C	1.103385	0.309994	0.604934
C63	C	1.149904	0.284396	0.552412
C64	C	1.125148	0.298006	0.447395
C65	C	1.053876	0.337219	0.394901
C66	C	1.171671	0.272408	0.394865
C67	C	1.146919	0.286022	0.289850
C68	C	1.029124	0.350833	0.289886
H69	H	0.467670	0.162533	-0.000044
C70	C	0.603443	0.117181	-0.000034
N71	N	0.574856	0.056644	-0.000031
H72	H	0.978034	-0.279261	-0.165079
C73	C	0.841373	0.454152	0.767797
N74	N	0.802823	0.475363	0.811310
C75	C	1.088743	0.318053	0.767740
N76	N	1.147792	0.285559	0.811234
C77	C	0.436009	0.594845	-0.000101
N78	N	0.464601	0.655381	-0.000104
H79	H	0.915932	0.413117	0.309426
H80	H	1.055735	-0.322075	0.164929
C81	C	1.067355	-0.022538	0.190934
N82	N	1.084546	-0.062626	0.266283
C83	C	1.250076	0.229279	0.452615
N84	N	1.309131	0.196792	0.496111
C85	C	0.969348	-0.419069	-0.191075
N86	N	0.951108	-0.439590	-0.266435
H87	H	1.053313	-0.454811	0.164917
C88	C	0.950682	0.393932	0.232145
N89	N	0.891591	0.426382	0.188654
C90	C	1.070144	0.131106	0.190953
N91	N	1.088441	0.151637	0.266311
H92	H	1.123538	0.298914	0.690445
C93	C	0.811116	0.470726	0.389726
N94	N	0.752025	0.503176	0.346235
H95	H	0.366851	0.251020	-0.000039
H96	H	0.809745	0.471535	0.562268
C97	C	0.748359	0.424064	-0.000072
N98	N	0.776945	0.484602	-0.000086
H99	H	1.207940	0.252471	0.595159
H100	H	0.776707	0.182148	-0.000035
H101	H	0.300960	0.308844	-0.000071
C102	C	0.581649	0.570370	-0.000100
N103	N	0.610235	0.630909	-0.000114
C104	C	1.198090	0.257861	0.232072
N105	N	1.236635	0.236650	0.188554
H106	H	0.672599	0.461008	-0.000075
C107	C	0.246852	0.543827	-0.000114
N108	N	0.200810	0.584237	-0.000130
H109	H	0.983723	0.034103	-0.165054
C110	C	0.980215	0.180661	-0.191036
N111	N	0.963020	0.220741	-0.266393
