data_functionalizedCrystal
_audit_creation_method	'MofGen! by Chris Wilmer'
_symmetry_space_group_name_H-M	'P1'
_symmetry_Int_Tables_number	1
_symmetry_cell_setting	triclinic
loop_
_symmetry_equiv_pos_as_xyz
  x,y,z
_cell_length_a	14.044220
_cell_length_b	19.188924
_cell_length_c	12.503572
_cell_angle_alpha	93.509187
_cell_angle_beta	86.164750
_cell_angle_gamma	88.165421
loop_
_atom_site_label
_atom_site_type_symbol
_atom_site_fract_x
_atom_site_fract_y
_atom_site_fract_z
O1	O	1.262478	0.164590	-0.089215
O2	O	1.595812	0.497923	0.244118
O3	O	1.929145	0.831256	0.577451
O4	O	0.986536	0.158516	-0.089242
O5	O	1.319869	0.491849	0.244091
O6	O	1.653203	0.825183	0.577425
O7	O	1.132473	0.060412	-0.089215
O8	O	1.465806	0.393745	0.244118
O9	O	1.799140	0.727078	0.577451
O10	O	1.116542	0.262694	-0.089242
O11	O	1.449875	0.596028	0.244091
O12	O	1.783208	0.929361	0.577425
O13	O	1.121498	0.067803	0.089425
O14	O	1.454831	0.401136	0.422758
O15	O	1.788164	0.734470	0.756091
O16	O	0.975561	0.165907	0.089398
O17	O	1.308894	0.499241	0.422731
O18	O	1.642227	0.832574	0.756064
O19	O	1.251503	0.171981	0.089425
O20	O	1.584836	0.505314	0.422758
O21	O	1.918170	0.838648	0.756091
Cu22	Cu	1.112530	0.169619	0.105722
Cu23	Cu	1.445863	0.502953	0.439056
Cu24	Cu	1.779196	0.836286	0.772389
Cu25	Cu	1.125509	0.160878	-0.105540
Cu26	Cu	1.458843	0.494211	0.227793
Cu27	Cu	1.792176	0.827545	0.561127
O28	O	1.105566	0.270086	0.089398
O29	O	1.438899	0.603419	0.422731
O30	O	1.772233	0.936752	0.756064
C31	C	0.945745	0.159554	0.000075
C32	C	1.279079	0.492887	0.333408
C33	C	1.612412	0.826220	0.666741
C34	C	0.840553	0.151624	0.000065
C35	C	1.173887	0.484958	0.333398
C36	C	1.507220	0.818291	0.666731
C37	C	1.126470	0.038063	0.000106
C38	C	1.459804	0.371396	0.333439
C39	C	1.793137	0.704730	0.666772
C40	C	1.124925	-0.039541	0.000108
C41	C	1.458258	0.293792	0.333442
C42	C	1.791591	0.627125	0.666775
C43	C	0.647951	0.137130	0.000088
C44	C	0.981284	0.470463	0.333421
C45	C	1.314618	0.803796	0.666755
C46	C	0.590083	0.193364	0.000085
C47	C	0.923416	0.526697	0.333418
C48	C	1.256750	0.860031	0.666752
C49	C	0.482913	0.185299	0.000098
C50	C	0.816246	0.518632	0.333431
C51	C	1.149579	0.851966	0.666765
C52	C	0.755132	0.145194	0.000075
C53	C	1.088465	0.478527	0.333408
C54	C	1.421798	0.811860	0.666742
C55	C	1.130186	-0.080016	-0.097269
C56	C	1.463519	0.253317	0.236065
C57	C	1.796853	0.586651	0.569398
C58	C	1.128721	-0.152934	-0.097277
C59	C	1.462054	0.180400	0.236056
C60	C	1.795387	0.513733	0.569390
C61	C	1.122013	-0.185374	0.000097
C62	C	1.455346	0.147959	0.333431
C63	C	1.788680	0.481292	0.666764
C64	C	1.116746	-0.144890	0.097487
C65	C	1.450079	0.188443	0.430820
C66	C	1.783412	0.521776	0.764154
C67	C	1.118201	-0.071974	0.097493
C68	C	1.451535	0.261360	0.430826
C69	C	1.784868	0.594693	0.764159
N70	N	1.169200	-0.298706	0.072576
N71	N	1.502534	0.034627	0.405909
N72	N	1.835867	0.367960	0.739242
N73	N	1.167820	-0.367974	0.072564
N74	N	1.501153	-0.034641	0.405897
N75	N	1.834486	0.298692	0.739230
C76	C	1.117624	-0.405067	0.000086
C77	C	1.450958	-0.071734	0.333420
C78	C	1.784291	0.261600	0.666753
N79	N	1.068874	-0.370276	-0.072395
N80	N	1.402208	-0.036943	0.260938
N81	N	1.735541	0.296390	0.594272
N82	N	1.070259	-0.301002	-0.072386
N83	N	1.403593	0.032331	0.260947
N84	N	1.736926	0.365664	0.594281
C85	C	1.120433	-0.264439	0.000102
C86	C	1.453766	0.068894	0.333435
C87	C	1.787100	0.402227	0.666769
C88	C	1.121296	-0.524607	-0.097306
C89	C	1.454629	-0.191274	0.236027
C90	C	1.787963	0.142059	0.569361
C91	C	1.119824	-0.597526	-0.097310
C92	C	1.453158	-0.264193	0.236023
C93	C	1.786491	0.069141	0.569356
C94	C	1.107859	-0.589482	0.097456
C95	C	1.441192	-0.256148	0.430790
C96	C	1.774525	0.077185	0.764123
C97	C	1.109321	-0.516564	0.097458
C98	C	1.442654	-0.183231	0.430791
C99	C	1.775987	0.150102	0.764124
C100	C	1.116044	-0.484132	0.000074
C101	C	1.449377	-0.150798	0.333407
C102	C	1.782711	0.182535	0.666740
C103	C	1.292294	0.170944	0.000106
C104	C	1.625627	0.504277	0.333439
C105	C	1.958961	0.837610	0.666772
C106	C	1.397486	0.178873	0.000108
C107	C	1.730820	0.512206	0.333442
C108	C	2.064153	0.845539	0.666775
C109	C	1.111569	0.292434	0.000075
C110	C	1.444902	0.625767	0.333408
C111	C	1.778236	0.959101	0.666741
C112	C	1.113115	0.370038	0.000065
C113	C	1.446448	0.703372	0.333398
C114	C	1.779782	1.036705	0.666731
N115	N	1.103407	0.175767	0.254313
N116	N	1.436741	0.509101	0.587646
N117	N	1.770074	0.842434	0.920980
N118	N	1.134639	0.154725	-0.254131
N119	N	1.467973	0.488058	0.079203
N120	N	1.801306	0.821392	0.412536
C121	C	1.089988	0.184817	0.473426
C122	C	1.423321	0.518151	0.806759
C123	C	1.756655	0.851484	1.140092
C124	C	1.148055	0.145677	0.526764
C125	C	1.481389	0.479010	0.860097
C126	C	1.814722	0.812344	1.193430
C127	C	1.140589	0.150713	0.648685
C128	C	1.473922	0.484046	0.982019
C129	C	1.807255	0.817379	1.315352
C130	C	1.097454	0.179783	0.351493
C131	C	1.430787	0.513116	0.684826
C132	C	1.764120	0.846449	1.018160
H133	H	0.621028	0.247565	0.000073
H134	H	0.954362	0.580898	0.333406
H135	H	1.287695	0.914232	0.666739
H136	H	1.034672	0.222106	0.519323
H137	H	1.368005	0.555439	0.852656
H138	H	1.701339	0.888773	1.185990
H139	H	1.203376	0.108387	0.480861
H140	H	1.536710	0.441720	0.814194
H141	H	1.870043	0.775054	1.147528
H142	H	0.617008	0.082933	0.000101
H143	H	0.950341	0.416266	0.333434
H144	H	1.283674	0.749600	0.666768
H145	H	1.124104	-0.630480	-0.176610
H146	H	1.457438	-0.297146	0.156724
H147	H	1.790771	0.036187	0.490057
H148	H	1.132999	-0.185894	-0.176575
H149	H	1.466333	0.147439	0.156758
H150	H	1.799666	0.480773	0.490091
H151	H	1.135658	-0.053614	-0.176567
H152	H	1.468991	0.279719	0.156767
H153	H	1.802324	0.613053	0.490100
H154	H	1.111281	-0.171308	0.176770
H155	H	1.444615	0.162025	0.510103
H156	H	1.777948	0.495359	0.843436
H157	H	1.126765	-0.498199	-0.176602
H158	H	1.460098	-0.164866	0.156731
H159	H	1.793431	0.168467	0.490064
H160	H	1.113913	-0.039019	0.176791
H161	H	1.447246	0.294314	0.510124
H162	H	1.780579	0.627648	0.843458
H163	H	1.102390	-0.615894	0.176740
H164	H	1.435723	-0.282561	0.510074
H165	H	1.769056	0.050773	0.843407
H166	H	1.105044	-0.483609	0.176753
H167	H	1.438378	-0.150276	0.510086
H168	H	1.771711	0.183057	0.843419
