data_functionalizedCrystal
_audit_creation_method	'MofGen! by Chris Wilmer'
_symmetry_space_group_name_H-M	'P1'
_symmetry_Int_Tables_number	1
_symmetry_cell_setting	triclinic
loop_
_symmetry_equiv_pos_as_xyz
  x,y,z
_cell_length_a	16.625548
_cell_length_b	16.625539
_cell_length_c	18.215405
_cell_angle_alpha	89.970092
_cell_angle_beta	90.025953
_cell_angle_gamma	89.982945
loop_
_atom_site_label
_atom_site_type_symbol
_atom_site_fract_x
_atom_site_fract_y
_atom_site_fract_z
Zn1	Zn	1.232639	-0.455890	-0.292976
Zn2	Zn	1.482639	-0.205890	-0.042976
Zn3	Zn	1.732639	0.044110	0.207024
Zn4	Zn	1.982639	0.294110	0.457024
Zn5	Zn	1.232545	-0.321049	-0.416045
Zn6	Zn	1.482545	-0.071049	-0.166045
Zn7	Zn	1.732545	0.178951	0.083955
Zn8	Zn	1.982545	0.428951	0.333955
Zn9	Zn	1.097809	-0.321070	-0.293000
Zn10	Zn	1.347809	-0.071070	-0.043000
Zn11	Zn	1.597809	0.178930	0.207000
Zn12	Zn	1.847809	0.428930	0.457000
Zn13	Zn	1.097766	-0.455839	-0.416007
Zn14	Zn	1.347766	-0.205839	-0.166007
Zn15	Zn	1.597766	0.044161	0.083993
Zn16	Zn	1.847766	0.294161	0.333993
O17	O	1.165190	-0.388462	-0.354507
O18	O	1.415190	-0.138462	-0.104507
O19	O	1.665190	0.111538	0.145493
O20	O	1.915190	0.361538	0.395493
O21	O	1.345459	-0.438015	-0.309307
O22	O	1.595459	-0.188015	-0.059307
O23	O	1.845459	0.061985	0.190693
O24	O	2.095459	0.311985	0.440693
O25	O	1.214651	-0.208219	-0.399749
O26	O	1.464651	0.041781	-0.149749
O27	O	1.714651	0.291781	0.100251
O28	O	1.964651	0.541781	0.350251
O29	O	1.115752	-0.338985	-0.190012
O30	O	1.365752	-0.088985	0.059988
O31	O	1.615752	0.161015	0.309988
O32	O	1.865752	0.411015	0.559988
O33	O	1.345390	-0.338948	-0.399726
O34	O	1.595390	-0.088948	-0.149726
O35	O	1.845390	0.161052	0.100274
O36	O	2.095390	0.411052	0.350274
O37	O	1.214811	-0.438036	-0.189994
O38	O	1.464811	-0.188036	0.060006
O39	O	1.714811	0.061964	0.310006
O40	O	1.964811	0.311964	0.560006
O41	O	1.115661	-0.208235	-0.309348
O42	O	1.365661	0.041765	-0.059348
O43	O	1.615661	0.291765	0.190652
O44	O	1.865661	0.541765	0.440652
O45	O	0.984971	-0.338935	-0.309311
O46	O	1.234971	-0.088935	-0.059311
O47	O	1.484971	0.161065	0.190689
O48	O	1.734971	0.411065	0.440689
O49	O	1.115678	-0.568678	-0.399661
O50	O	1.365678	-0.318678	-0.149661
O51	O	1.615678	-0.068678	0.100339
O52	O	1.865678	0.181322	0.350339
O53	O	0.984939	-0.437949	-0.399684
O54	O	1.234939	-0.187949	-0.149684
O55	O	1.484939	0.062051	0.100316
O56	O	1.734939	0.312051	0.350316
O57	O	1.214769	-0.568716	-0.309270
O58	O	1.464769	-0.318716	-0.059270
O59	O	1.714769	-0.068716	0.190730
O60	O	1.964769	0.181284	0.440730
O61	O	1.214608	-0.338899	-0.519025
O62	O	1.464608	-0.088899	-0.269025
O63	O	1.714608	0.161101	-0.019025
O64	O	1.964608	0.411101	0.230975
O65	O	1.115587	-0.437928	-0.518997
O66	O	1.365587	-0.187928	-0.268997
O67	O	1.615587	0.062072	-0.018997
O68	O	1.865587	0.312072	0.231003
C69	C	0.955699	-0.388440	-0.354496
C70	C	1.205699	-0.138440	-0.104496
C71	C	1.455699	0.111560	0.145504
C72	C	1.705699	0.361560	0.395504
C73	C	0.866078	-0.388449	-0.354510
C74	C	1.116078	-0.138449	-0.104510
C75	C	1.366078	0.111551	0.145490
C76	C	1.616078	0.361551	0.395490
C77	C	0.537902	-0.388483	-0.354514
C78	C	0.787902	-0.138483	-0.104514
C79	C	1.037902	0.111517	0.145486
C80	C	1.287902	0.361517	0.395486
C81	C	0.629210	-0.388471	-0.354511
C82	C	0.879210	-0.138471	-0.104511
C83	C	1.129210	0.111529	0.145489
C84	C	1.379210	0.361529	0.395489
C85	C	0.701987	-0.388466	-0.354512
C86	C	0.951987	-0.138466	-0.104512
C87	C	1.201987	0.111534	0.145488
C88	C	1.451987	0.361534	0.395488
C89	C	0.793301	-0.388455	-0.354508
C90	C	1.043301	-0.138455	-0.104508
C91	C	1.293301	0.111545	0.145492
C92	C	1.543301	0.361545	0.395492
C93	C	1.165229	-0.598771	-0.354458
C94	C	1.415229	-0.348771	-0.104458
C95	C	1.665229	-0.098771	0.145542
C96	C	1.915229	0.151229	0.395542
C97	C	1.165246	-0.688392	-0.354438
C98	C	1.415246	-0.438392	-0.104438
C99	C	1.665246	-0.188392	0.145562
C100	C	1.915246	0.061608	0.395562
C101	C	1.165259	-0.761175	-0.354421
C102	C	1.415259	-0.511175	-0.104421
C103	C	1.665259	-0.261175	0.145579
C104	C	1.915259	-0.011175	0.395579
C105	C	1.165278	-0.852483	-0.354394
C106	C	1.415278	-0.602483	-0.104394
C107	C	1.665278	-0.352483	0.145606
C108	C	1.915278	-0.102483	0.395606
C109	C	1.165297	-0.925260	-0.354368
C110	C	1.415297	-0.675260	-0.104368
C111	C	1.665297	-0.425260	0.145632
C112	C	1.915297	-0.175260	0.395632
C113	C	1.165317	-1.016574	-0.354341
C114	C	1.415317	-0.766574	-0.104341
C115	C	1.665317	-0.516574	0.145659
C116	C	1.915317	-0.266574	0.395659
C117	C	1.375498	-0.388485	-0.354518
C118	C	1.625498	-0.138485	-0.104518
C119	C	1.875498	0.111515	0.145482
C120	C	2.125498	0.361515	0.395482
C121	C	1.465120	-0.388495	-0.354523
C122	C	1.715120	-0.138495	-0.104523
C123	C	1.965120	0.111505	0.145477
C124	C	2.215120	0.361505	0.395477
C125	C	1.165104	-0.388423	-0.545713
C126	C	1.415104	-0.138423	-0.295713
C127	C	1.665104	0.111577	-0.045713
C128	C	1.915104	0.361577	0.204287
C129	C	1.165142	-0.388434	-0.627512
C130	C	1.415142	-0.138434	-0.377512
C131	C	1.665142	0.111566	-0.127512
C132	C	1.915142	0.361566	0.122488
C133	C	1.165197	-0.178971	-0.354502
C134	C	1.415197	0.071029	-0.104502
C135	C	1.665197	0.321029	0.145498
C136	C	1.915197	0.571029	0.395498
C137	C	1.165336	-0.089351	-0.354316
C138	C	1.415336	0.160649	-0.104316
C139	C	1.665336	0.410649	0.145684
C140	C	1.915336	0.660649	0.395684
C141	C	1.216823	-0.336964	-0.815696
C142	C	1.466823	-0.086964	-0.565696
C143	C	1.716823	0.163036	-0.315696
C144	C	1.966823	0.413036	-0.065696
C145	C	1.216859	-0.336983	-0.892555
C146	C	1.466859	-0.086983	-0.642555
C147	C	1.716859	0.163017	-0.392555
C148	C	1.966859	0.413017	-0.142555
C149	C	1.113659	-0.440018	-0.892566
C150	C	1.363659	-0.190018	-0.642566
C151	C	1.613659	0.059982	-0.392566
C152	C	1.863659	0.309982	-0.142566
C153	C	1.113627	-0.440002	-0.815708
C154	C	1.363627	-0.190002	-0.565708
C155	C	1.613627	0.059998	-0.315708
C156	C	1.863627	0.309998	-0.065708
C157	C	1.165209	-0.388470	-0.777276
C158	C	1.415209	-0.138470	-0.527276
C159	C	1.665209	0.111530	-0.277276
C160	C	1.915209	0.361530	-0.027276
C161	C	1.165276	-0.388506	-0.930992
C162	C	1.415276	-0.138506	-0.680992
C163	C	1.665276	0.111494	-0.430992
C164	C	1.915276	0.361494	-0.180992
C165	C	1.165315	-0.388528	-1.014325
C166	C	1.415315	-0.138528	-0.764325
C167	C	1.665315	0.111472	-0.514325
C168	C	1.915315	0.361472	-0.264325
C169	C	1.165171	-0.388450	-0.693937
C170	C	1.415171	-0.138450	-0.443937
C171	C	1.665171	0.111550	-0.193937
C172	C	1.915171	0.361550	0.056063
C173	C	1.165297	-0.388519	-0.162554
C174	C	1.415297	-0.138519	0.087446
C175	C	1.665297	0.111481	0.337446
C176	C	1.915297	0.361481	0.587446
C177	C	1.165343	-0.388543	-0.080755
C178	C	1.415343	-0.138543	0.169245
C179	C	1.665343	0.111457	0.419245
C180	C	1.915343	0.361457	0.669245
H181	H	1.258825	-0.295005	-0.784406
H182	H	1.508825	-0.045005	-0.534406
H183	H	1.758825	0.204995	-0.284406
H184	H	2.008825	0.454995	-0.034406
H185	H	1.258891	-0.295043	-0.923834
H186	H	1.508891	-0.045043	-0.673834
H187	H	1.758891	0.204957	-0.423834
H188	H	2.008891	0.454957	-0.173834
F189	F	1.058764	-0.494857	-0.933475
F190	F	1.308764	-0.244857	-0.683475
F191	F	1.558764	0.005143	-0.433475
F192	F	1.808764	0.255143	-0.183475
H193	H	1.071596	-0.481949	-0.784424
H194	H	1.321596	-0.231949	-0.534424
H195	H	1.571596	0.018051	-0.284424
H196	H	1.821596	0.268051	-0.034424
