data_functionalizedCrystal
_audit_creation_method	'MofGen! by Chris Wilmer'
_symmetry_space_group_name_H-M	'P1'
_symmetry_Int_Tables_number	1
_symmetry_cell_setting	triclinic
loop_
_symmetry_equiv_pos_as_xyz
  x,y,z
_cell_length_a	9.065215
_cell_length_b	9.065215
_cell_length_c	18.366186
_cell_angle_alpha	89.994788
_cell_angle_beta	89.991514
_cell_angle_gamma	85.014697
loop_
_atom_site_label
_atom_site_type_symbol
_atom_site_fract_x
_atom_site_fract_y
_atom_site_fract_z
O1	O	1.960411	0.216339	-0.060540
O2	O	2.460411	0.716339	0.439460
O3	O	1.531126	0.234090	-0.060543
O4	O	2.031126	0.734090	0.439457
O5	O	1.754644	0.010572	-0.060538
O6	O	2.254644	0.510572	0.439462
O7	O	1.736893	0.439857	-0.060544
O8	O	2.236893	0.939857	0.439456
O9	O	1.754605	0.010560	0.060561
O10	O	2.254605	0.510560	0.560561
O11	O	1.531087	0.234078	0.060557
O12	O	2.031087	0.734078	0.560557
O13	O	1.960373	0.216327	0.060560
O14	O	2.460373	0.716327	0.560560
Zn15	Zn	1.745724	0.225201	0.079785
Zn16	Zn	2.245724	0.725201	0.579785
Zn17	Zn	1.745775	0.225216	-0.079768
Zn18	Zn	2.245775	0.725216	0.420232
O19	O	1.736854	0.439845	0.060555
O20	O	2.236854	0.939845	0.560555
C21	C	1.476120	0.232379	0.000007
C22	C	1.976120	0.732379	0.500007
C23	C	1.312277	0.227281	0.000005
C24	C	1.812277	0.727281	0.500005
C25	C	1.752920	-0.044421	0.000011
C26	C	2.252920	0.455579	0.500011
C27	C	1.747822	-0.208264	0.000009
C28	C	2.247822	0.291736	0.500009
C29	C	2.015379	0.218038	0.000009
C30	C	2.515379	0.718038	0.500009
C31	C	2.179222	0.223136	0.000005
C32	C	2.679222	0.723136	0.500005
C33	C	1.738579	0.494838	0.000005
C34	C	2.238579	0.994838	0.500005
C35	C	1.743677	0.658681	0.000002
C36	C	2.243677	1.158681	0.500002
N37	N	1.745700	0.225189	0.188676
N38	N	2.245700	0.725189	0.688676
N39	N	1.745810	0.225216	-0.188659
N40	N	2.245810	0.725216	0.311341
C41	C	1.844707	0.126265	0.226779
C42	C	2.344707	0.626265	0.726779
C43	C	1.844716	0.126259	0.303007
C44	C	2.344716	0.626259	0.803007
C45	C	1.745733	0.225202	0.341129
C46	C	2.245733	0.725202	0.841129
C47	C	1.646706	0.324134	0.303018
C48	C	2.146706	0.824134	0.803018
C49	C	1.646690	0.324127	0.226791
C50	C	2.146690	0.824127	0.726791
C51	C	1.728195	0.359329	0.461887
C52	C	2.228195	0.859329	0.961887
C53	C	1.728221	0.359338	0.538112
C54	C	2.228221	0.859338	1.038112
C55	C	1.745775	0.225221	0.576237
C56	C	2.245775	0.725221	1.076237
C57	C	1.763333	0.091091	0.538127
C58	C	2.263333	0.591091	1.038127
C59	C	1.763316	0.091085	0.461900
C60	C	2.263316	0.591085	0.961900
C61	C	1.745739	0.225220	0.423784
C62	C	2.245739	0.725220	0.923784
C63	C	1.844798	0.126282	0.696994
C64	C	2.344798	0.626282	1.196994
C65	C	1.844797	0.126274	0.773223
C66	C	2.344797	0.626274	1.273223
C67	C	1.646794	0.324161	0.773233
C68	C	2.146794	0.824161	1.273233
C69	C	1.646788	0.324157	0.697005
C70	C	2.146788	0.824157	1.197005
C71	C	1.745797	0.225219	0.658890
C72	C	2.245797	0.725219	1.158890
H73	H	1.925323	0.045701	0.195748
H74	H	2.425323	0.545701	0.695748
F75	F	1.782025	-0.051656	0.578695
F76	F	2.282025	0.448344	1.078695
H77	H	1.566172	0.404716	0.665980
H78	H	2.066172	0.904716	1.165980
F79	F	1.950166	0.020978	0.656429
F80	F	2.450166	0.520978	1.156429
H81	H	1.925343	0.045700	0.334036
H82	H	2.425343	0.545700	0.834036
F83	F	1.781990	-0.051662	0.421344
F84	F	2.281990	0.448338	0.921344
F85	F	1.709618	0.502089	0.421320
F86	F	2.209618	1.002089	0.921320
H87	H	1.566110	0.404692	0.334061
H88	H	2.066110	0.904692	0.834061
H89	H	1.925416	0.045710	0.804247
H90	H	2.425416	0.545710	1.304247
F91	F	1.541439	0.429455	0.813802
F92	F	2.041439	0.929455	1.313802
H93	H	1.713934	0.468554	0.569136
H94	H	2.213934	0.968554	1.069136
H95	H	1.566064	0.404685	0.195767
H96	H	2.066064	0.904685	0.695767
