data_functionalizedCrystal
_audit_creation_method	'MofGen! by Chris Wilmer'
_symmetry_space_group_name_H-M	'P1'
_symmetry_Int_Tables_number	1
_symmetry_cell_setting	triclinic
loop_
_symmetry_equiv_pos_as_xyz
  x,y,z
_cell_length_a	16.959455
_cell_length_b	29.839131
_cell_length_c	29.839125
_cell_angle_alpha	89.982291
_cell_angle_beta	89.988873
_cell_angle_gamma	90.038367
loop_
_atom_site_label
_atom_site_type_symbol
_atom_site_fract_x
_atom_site_fract_y
_atom_site_fract_z
Zn1	Zn	1.208242	-0.178953	-0.253995
Zn2	Zn	1.708242	0.321047	0.246005
Zn3	Zn	1.208122	-0.254065	-0.178865
Zn4	Zn	1.708122	0.245935	0.321135
Zn5	Zn	1.076077	-0.178946	-0.178879
Zn6	Zn	1.576077	0.321054	0.321121
Zn7	Zn	1.075985	-0.254053	-0.253968
Zn8	Zn	1.575985	0.245947	0.246032
O9	O	1.142107	-0.216504	-0.216427
O10	O	1.642107	0.283496	0.283573
O11	O	1.318837	-0.188925	-0.244034
O12	O	1.818837	0.311075	0.255966
O13	O	1.190595	-0.244102	-0.116000
O14	O	1.690595	0.255898	0.384000
O15	O	1.093698	-0.116080	-0.188860
O16	O	1.593698	0.383920	0.311140
O17	O	1.318749	-0.244109	-0.188837
O18	O	1.818749	0.255891	0.311163
O19	O	1.190798	-0.116085	-0.244048
O20	O	1.690798	0.383915	0.255952
O21	O	1.093582	-0.188913	-0.116010
O22	O	1.593582	0.311087	0.383990
O23	O	0.965454	-0.188901	-0.188834
O24	O	1.465454	0.311099	0.311166
O25	O	1.093541	-0.244088	-0.316838
O26	O	1.593541	0.255912	0.183162
O27	O	0.965387	-0.244081	-0.244001
O28	O	1.465387	0.255919	0.255999
O29	O	1.190709	-0.188913	-0.316858
O30	O	1.690709	0.311087	0.183142
O31	O	1.190505	-0.316930	-0.188810
O32	O	1.690505	0.183070	0.311190
O33	O	1.093425	-0.316921	-0.243988
O34	O	1.593425	0.183079	0.256012
C35	C	0.936740	-0.216489	-0.216416
C36	C	1.436740	0.283511	0.283584
C37	C	0.848884	-0.216494	-0.216422
C38	C	1.348884	0.283506	0.283578
C39	C	1.141964	-0.333227	-0.216404
C40	C	1.641964	0.166773	0.283596
C41	C	1.141975	-0.383161	-0.216410
C42	C	1.641975	0.116839	0.283590
C43	C	0.477419	-0.187748	-0.187761
C44	C	0.977419	0.312252	0.312239
C45	C	0.477397	-0.245297	-0.245118
C46	C	0.977397	0.254703	0.254882
C47	C	0.559943	-0.245291	-0.245115
C48	C	1.059943	0.254709	0.254885
C49	C	0.601231	-0.216513	-0.216434
C50	C	1.101231	0.283487	0.283566
C51	C	0.559972	-0.187742	-0.187756
C52	C	1.059972	0.312258	0.312244
C53	C	0.601208	-0.274065	-0.273789
C54	C	1.101208	0.225935	0.226211
C55	C	0.683759	-0.274060	-0.273788
C56	C	1.183759	0.225940	0.226212
C57	C	0.725048	-0.245279	-0.245109
C58	C	1.225048	0.254721	0.254891
C59	C	0.683784	-0.216507	-0.216430
C60	C	1.183784	0.283493	0.283570
C61	C	0.725072	-0.187729	-0.187749
C62	C	1.225072	0.312271	0.312251
C63	C	0.683810	-0.158953	-0.159072
C64	C	1.183810	0.341047	0.340928
C65	C	0.601261	-0.158961	-0.159077
C66	C	1.101261	0.341039	0.340923
C67	C	0.807596	-0.245272	-0.245103
C68	C	1.307596	0.254728	0.254897
C69	C	0.807625	-0.187722	-0.187744
C70	C	1.307625	0.312278	0.312256
C71	C	1.192748	-0.692797	-0.187738
C72	C	1.692748	-0.192797	0.312262
C73	C	1.192846	-0.880470	-0.187755
C74	C	1.692846	-0.380470	0.312245
O75	O	1.235902	-0.904728	-0.163360
O76	O	1.735902	-0.404728	0.336640
N77	N	1.142270	-0.903946	-0.216460
N78	N	1.642270	-0.403946	0.283540
C79	C	1.091671	-0.880502	-0.245166
C80	C	1.591671	-0.380502	0.254834
O81	O	1.048661	-0.904776	-0.269585
O82	O	1.548661	-0.404776	0.230415
C83	C	1.091578	-0.692829	-0.245150
C84	C	1.591578	-0.192829	0.254850
C85	C	1.142151	-0.669355	-0.216440
C86	C	1.642151	-0.169355	0.283560
C87	C	1.243318	-0.669322	-0.159030
C88	C	1.743318	-0.169322	0.340970
C89	C	1.243290	-0.622407	-0.159024
C90	C	1.743290	-0.122407	0.340976
C91	C	1.192692	-0.598966	-0.187726
C92	C	1.692692	-0.098966	0.312274
C93	C	1.142123	-0.622440	-0.216434
C94	C	1.642123	-0.122440	0.283566
C95	C	1.040983	-0.669386	-0.273857
C96	C	1.540983	-0.169386	0.226143
C97	C	1.040966	-0.622465	-0.273852
C98	C	1.540966	-0.122465	0.226148
C99	C	1.091538	-0.598990	-0.245141
C100	C	1.591538	-0.098990	0.254859
C101	C	1.091498	-0.552083	-0.245130
C102	C	1.591498	-0.052083	0.254870
N103	N	1.142073	-0.528606	-0.216425
N104	N	1.642073	-0.028606	0.283575
C105	C	1.192670	-0.552048	-0.187723
C106	C	1.692670	-0.052048	0.312277
C107	C	1.091722	-0.979032	-0.245171
C108	C	1.591722	-0.479032	0.254829
C109	C	1.091744	-1.025950	-0.245174
C110	C	1.591744	-0.525950	0.254826
C111	C	1.192920	-1.025915	-0.187764
C112	C	1.692920	-0.525915	0.312236
C113	C	1.192894	-0.978996	-0.187759
C114	C	1.692894	-0.478996	0.312241
C115	C	1.142297	-0.955556	-0.216466
C116	C	1.642297	-0.455556	0.283534
C117	C	1.192607	-0.453522	-0.187712
C118	C	1.692607	0.046478	0.312288
C119	C	1.192572	-0.406602	-0.187708
C120	C	1.692572	0.093398	0.312292
C121	C	1.091400	-0.406642	-0.245119
C122	C	1.591400	0.093358	0.254881
C123	C	1.091431	-0.453557	-0.245122
C124	C	1.591431	0.046443	0.254878
C125	C	1.142041	-0.476996	-0.216417
C126	C	1.642041	0.023004	0.283583
O127	O	1.048471	-0.527796	-0.269516
O128	O	1.548471	-0.027796	0.230484
O129	O	1.235686	-0.527765	-0.163314
O130	O	1.735686	-0.027765	0.336686
C131	C	1.192776	-0.739712	-0.187743
C132	C	1.692776	-0.239712	0.312257
C133	C	1.142207	-0.763186	-0.216451
C134	C	1.642207	-0.263186	0.283549
C135	C	1.091609	-0.739745	-0.245153
C136	C	1.591609	-0.239745	0.254847
C137	C	1.142229	-0.810104	-0.216455
C138	C	1.642229	-0.310104	0.283545
C139	C	1.192826	-0.833545	-0.187753
C140	C	1.692826	-0.333545	0.312247
C141	C	1.243401	-0.810069	-0.159047
C142	C	1.743401	-0.310069	0.340953
C143	C	1.243374	-0.763153	-0.159041
C144	C	1.743374	-0.263153	0.340959
C145	C	1.041034	-0.763221	-0.273859
C146	C	1.541034	-0.263221	0.226141
C147	C	1.041065	-0.810137	-0.273862
C148	C	1.541065	-0.310137	0.226138
C149	C	1.091663	-0.833578	-0.245160
C150	C	1.591663	-0.333578	0.254840
C151	C	1.348275	-0.216519	-0.216437
C152	C	1.848275	0.283481	0.283563
C153	C	1.436131	-0.216526	-0.216442
C154	C	1.936131	0.283474	0.283558
C155	C	1.142128	-0.216500	-0.333605
C156	C	1.642128	0.283500	0.166395
C157	C	1.142137	-0.216498	-0.383539
C158	C	1.642137	0.283502	0.116461
C159	C	1.142271	-0.099326	-0.216459
C160	C	1.642271	0.400674	0.283541
C161	C	1.142342	-0.049391	-0.216472
C162	C	1.642342	0.450609	0.283528
C163	C	1.192786	-0.187693	-0.693196
C164	C	1.692786	0.312307	-0.193196
C165	C	1.192825	-0.187655	-0.880870
C166	C	1.692825	0.312345	-0.380870
O167	O	1.235829	-0.163206	-0.905146
O168	O	1.735829	0.336794	-0.405146
N169	N	1.142242	-0.216378	-0.904325
N170	N	1.642242	0.283622	-0.404325
C171	C	1.091642	-0.245111	-0.880859
C172	C	1.591642	0.254889	-0.380859
O173	O	1.048613	-0.269537	-0.905115
O174	O	1.548613	0.230463	-0.405115
C175	C	1.091599	-0.245146	-0.693186
C176	C	1.591599	0.254854	-0.193186
C177	C	1.142191	-0.216425	-0.669734
C178	C	1.642191	0.283575	-0.169734
C179	C	1.243373	-0.158973	-0.669744
C180	C	1.743373	0.341027	-0.169744
C181	C	1.243366	-0.158985	-0.622828
C182	C	1.743366	0.341015	-0.122828
C183	C	1.192771	-0.187716	-0.599365
C184	C	1.692771	0.312284	-0.099365
C185	C	1.142184	-0.216436	-0.622818
C186	C	1.642184	0.283564	-0.122818
C187	C	1.040996	-0.273876	-0.669721
C188	C	1.540996	0.226124	-0.169721
C189	C	1.040988	-0.273882	-0.622800
C190	C	1.540988	0.226118	-0.122800
C191	C	1.091580	-0.245160	-0.599347
C192	C	1.591580	0.254840	-0.099347
C193	C	1.091582	-0.245179	-0.552440
C194	C	1.591582	0.254821	-0.052440
N195	N	1.142165	-0.216456	-0.528985
N196	N	1.642165	0.283544	-0.028985
C197	C	1.192760	-0.187725	-0.552448
C198	C	1.692760	0.312275	-0.052448
C199	C	1.091669	-0.245090	-0.979389
C200	C	1.591669	0.254910	-0.479389
C201	C	1.091680	-0.245082	-1.026307
C202	C	1.591680	0.254918	-0.526307
C203	C	1.192863	-0.187626	-1.026315
C204	C	1.692863	0.312374	-0.526315
C205	C	1.192855	-0.187637	-0.979396
C206	C	1.692855	0.312363	-0.479396
C207	C	1.142252	-0.216367	-0.955934
C208	C	1.642252	0.283633	-0.455934
C209	C	1.192741	-0.187751	-0.453922
C210	C	1.692741	0.312249	0.046078
C211	C	1.192732	-0.187767	-0.407002
C212	C	1.692732	0.312233	0.092998
C213	C	1.091547	-0.245221	-0.406999
C214	C	1.591547	0.254779	0.093001
C215	C	1.091559	-0.245208	-0.453914
C216	C	1.591559	0.254792	0.046086
C217	C	1.142159	-0.216469	-0.477374
C218	C	1.642159	0.283531	0.022626
O219	O	1.048594	-0.269611	-0.528135
O220	O	1.548594	0.230389	-0.028135
O221	O	1.235770	-0.163295	-0.528183
O222	O	1.735770	0.336705	-0.028183
C223	C	1.192793	-0.187682	-0.740112
C224	C	1.692793	0.312318	-0.240112
C225	C	1.142206	-0.216401	-0.763565
C226	C	1.642206	0.283599	-0.263565
C227	C	1.091611	-0.245133	-0.740102
C228	C	1.591611	0.254867	-0.240102
C229	C	1.142217	-0.216393	-0.810482
C230	C	1.642217	0.283607	-0.310482
C231	C	1.192812	-0.187662	-0.833945
C232	C	1.692812	0.312338	-0.333945
C233	C	1.243395	-0.158939	-0.810490
C234	C	1.743395	0.341061	-0.310490
C235	C	1.243387	-0.158950	-0.763575
C236	C	1.743387	0.341050	-0.263575
C237	C	1.041028	-0.273856	-0.763557
C238	C	1.541028	0.226144	-0.263557
C239	C	1.041040	-0.273842	-0.810473
C240	C	1.541040	0.226158	-0.310473
C241	C	1.091635	-0.245111	-0.833935
C242	C	1.591635	0.254889	-0.333935
C243	C	1.142131	-0.216476	-0.099704
C244	C	1.642131	0.283524	0.400296
C245	C	1.142275	-0.216351	-0.049770
C246	C	1.642275	0.283649	0.450230
H247	H	0.841236	-0.164285	-0.164391
H248	H	1.341236	0.335715	0.335609
Cl249	Cl	0.977419	-0.733760	-0.309945
Cl250	Cl	1.477419	-0.233760	0.190055
H251	H	0.717437	-0.135524	-0.135718
H252	H	1.217437	0.364476	0.364282
H253	H	0.999772	-0.297274	-0.603700
H254	H	1.499772	0.202726	-0.103700
H255	H	0.999876	-0.829245	-0.297241
H256	H	1.499876	-0.329245	0.202759
Cl257	Cl	0.977393	-0.309988	-0.699193
Cl258	Cl	1.477393	0.190012	-0.199193
H259	H	0.717347	-0.297490	-0.297138
H260	H	1.217347	0.202510	0.202862
H261	H	1.284473	-0.603297	-0.135647
H262	H	1.784473	-0.103297	0.364353
H263	H	1.234075	-0.959886	-0.164381
H264	H	1.734075	-0.459886	0.335619
H265	H	1.233932	-0.164378	-0.387909
H266	H	1.733932	0.335622	0.112091
H267	H	0.567659	-0.135534	-0.135730
H268	H	1.067659	0.364466	0.364270
H269	H	0.443820	-0.164318	-0.164414
H270	H	0.943820	0.335682	0.335586
Cl271	Cl	1.256527	-1.055392	-0.151681
Cl272	Cl	1.756527	-0.555392	0.348319
Cl273	Cl	1.027961	-0.281318	-0.483398
Cl274	Cl	1.527961	0.218682	0.016602
Cl275	Cl	1.256350	-0.151621	-0.483407
Cl276	Cl	1.756350	0.348379	0.016593
Cl277	Cl	0.549300	-0.310254	-0.309828
Cl278	Cl	1.049300	0.189746	0.190172
H279	H	0.999828	-0.297253	-0.744458
H280	H	1.499828	0.202747	-0.244458
H281	H	1.050492	-0.268475	-1.045398
H282	H	1.550492	0.231525	-0.545398
H283	H	1.284593	-0.135546	-0.829602
H284	H	1.784593	0.364454	-0.329602
H285	H	1.284524	-0.688403	-0.135657
H286	H	1.784524	-0.188403	0.364343
H287	H	1.050463	-0.268489	-0.960291
H288	H	1.550463	0.231511	-0.460291
H289	H	0.841188	-0.268701	-0.268450
H290	H	1.341188	0.231299	0.231550
H291	H	1.050357	-0.268615	-0.387887
H292	H	1.550357	0.231385	0.112113
H293	H	0.999844	-0.297235	-0.829564
H294	H	1.499844	0.202765	-0.329564
Cl295	Cl	0.425492	-0.281482	-0.281162
Cl296	Cl	0.925492	0.218518	0.218838
Cl297	Cl	1.306965	-0.122872	-0.593352
Cl298	Cl	1.806965	0.377128	-0.093352
Cl299	Cl	1.256155	-0.377095	-0.151612
Cl300	Cl	1.756155	0.122905	0.348388
Cl301	Cl	1.306996	-0.122855	-0.699231
Cl302	Cl	1.806996	0.377145	-0.199231
H303	H	1.233821	-0.472600	-0.164339
H304	H	1.733821	0.027400	0.335661
H305	H	1.050555	-1.045059	-0.268549
H306	H	1.550555	-0.545059	0.231451
Cl307	Cl	1.028107	-0.949571	-0.281262
Cl308	Cl	1.528107	-0.449571	0.218738
Cl309	Cl	0.977410	-0.698884	-0.309958
Cl310	Cl	1.477410	-0.198884	0.190042
Cl311	Cl	0.977356	-0.593000	-0.309943
Cl312	Cl	1.477356	-0.093000	0.190057
Cl313	Cl	1.256456	-0.151527	-0.949918
Cl314	Cl	1.756456	0.348473	-0.449918
Cl315	Cl	1.306991	-0.122840	-0.734098
Cl316	Cl	1.806991	0.377160	-0.234098
H317	H	1.050253	-0.472671	-0.268502
H318	H	1.550253	0.027329	0.231498
Cl319	Cl	1.027799	-0.377164	-0.281202
Cl320	Cl	1.527799	0.122836	0.218798
Cl321	Cl	1.256465	-0.151506	-1.055819
Cl322	Cl	1.756465	0.348494	-0.555819
H323	H	1.284555	-0.744044	-0.135663
H324	H	1.784555	-0.244044	0.364337
H325	H	1.284597	-0.829163	-0.135676
H326	H	1.784597	-0.329163	0.364324
