data_functionalizedCrystal
_audit_creation_method	'MofGen! by Chris Wilmer'
_symmetry_space_group_name_H-M	'P1'
_symmetry_Int_Tables_number	1
_symmetry_cell_setting	triclinic
loop_
_symmetry_equiv_pos_as_xyz
  x,y,z
_cell_length_a	15.995355
_cell_length_b	9.730223
_cell_length_c	15.995343
_cell_angle_alpha	90.007696
_cell_angle_beta	96.508305
_cell_angle_gamma	90.000698
loop_
_atom_site_label
_atom_site_type_symbol
_atom_site_fract_x
_atom_site_fract_y
_atom_site_fract_z
O1	O	-1.110979	0.114171	0.107943
O2	O	-0.867204	0.114205	0.121266
O3	O	-0.995759	0.114162	-0.007283
O4	O	-0.982424	0.114215	0.236493
O5	O	-0.995750	-0.114418	-0.007283
O6	O	-0.867195	-0.114375	0.121267
O7	O	-1.110970	-0.114409	0.107943
Zn8	Zn	-0.989081	-0.150684	0.114605
Zn9	Zn	-0.989093	0.150480	0.114605
O10	O	-0.982415	-0.114365	0.236493
C11	C	-0.836005	-0.000081	0.120715
C12	C	-0.743055	-0.000069	0.119062
N13	N	-0.989079	-0.356220	0.114604
C14	C	-0.572869	-0.000089	0.116061
C15	C	-0.549526	-0.000109	0.023262
C16	C	-0.452849	-0.000636	0.021512
C17	C	-0.405311	-0.000107	0.113105
C18	C	-0.434395	-0.130367	0.159766
C19	C	-0.531187	-0.130468	0.160871
C20	C	-0.531108	0.129480	0.162229
C21	C	-0.434614	0.131183	0.158800
C22	C	-0.310613	-0.000122	0.111439
C23	C	-0.667567	-0.000083	0.117729
C24	C	-1.039857	-0.428137	0.165419
C25	C	-1.039871	-0.572020	0.165414
C26	C	-0.938321	-0.572057	0.063778
C27	C	-0.938313	-0.428176	0.063779
C28	C	-0.142171	-0.000121	0.108483
C29	C	-0.235125	-0.000127	0.110104
C30	C	-0.995204	-0.000132	-0.038478
C31	C	-0.993555	-0.000142	-0.131429
N32	N	-0.989102	0.356017	0.114598
C33	C	-0.990561	-0.000111	-0.301615
C34	C	-0.897764	-0.000095	-0.324962
C35	C	-0.896019	0.000440	-0.421640
C36	C	-0.987613	-0.000081	-0.469175
C37	C	-1.034278	0.130180	-0.440076
C38	C	-1.035378	0.130274	-0.343283
C39	C	-1.036727	-0.129673	-0.343387
C40	C	-1.033301	-0.131370	-0.439882
C41	C	-0.985951	-0.000060	-0.563874
C42	C	-0.992226	-0.000123	-0.206917
C43	C	-0.982970	-0.000069	0.267688
C44	C	-0.984619	-0.000049	0.360638
H45	H	-0.433835	0.092720	-0.015014
H46	H	-0.896988	-0.630661	0.022398
H47	H	-1.081221	-0.630568	0.206792
H48	H	-0.896962	-0.369620	0.022395
Cl49	Cl	-0.839616	-0.143692	-0.451017
H50	H	-0.861792	-0.093495	-0.296960
H51	H	-1.103429	0.135817	-0.328708
H52	H	-0.401656	0.139466	0.225631
Cl53	Cl	-0.594267	-0.144137	-0.031368
H54	H	-0.862385	0.093188	-0.295974
Cl55	Cl	-0.980836	-0.280162	-0.468543
H56	H	-1.081195	-0.369554	0.206805
H57	H	-1.105028	-0.130948	-0.329366
H58	H	-0.559383	0.228245	0.132953
Cl59	Cl	-0.839903	0.145477	-0.450105
Cl60	Cl	-0.986077	0.281195	-0.301916
H61	H	-0.414301	-0.227690	0.127750
H62	H	-1.100137	-0.139636	-0.472830
H63	H	-1.101689	0.134651	-0.471920
H64	H	-1.002266	0.227503	-0.460161
Cl65	Cl	-0.991517	-0.282167	-0.299753
Cl66	Cl	-0.424371	-0.145688	-0.034599
Cl67	Cl	-0.592775	0.144088	-0.032275
Cl68	Cl	-0.572541	-0.281395	0.111565
Cl69	Cl	-0.552703	0.131405	0.267698
Cl70	Cl	-0.553689	-0.139032	0.265934
Cl71	Cl	-0.405999	0.279972	0.106320
Cl72	Cl	-0.385227	-0.137268	0.263842
