data_functionalizedCrystal
_audit_creation_method	'MofGen! by Chris Wilmer'
_symmetry_space_group_name_H-M	'P1'
_symmetry_Int_Tables_number	1
_symmetry_cell_setting	triclinic
loop_
_symmetry_equiv_pos_as_xyz
  x,y,z
_cell_length_a	19.288864
_cell_length_b	9.482900
_cell_length_c	19.288865
_cell_angle_alpha	99.296723
_cell_angle_beta	96.863755
_cell_angle_gamma	99.270367
loop_
_atom_site_label
_atom_site_type_symbol
_atom_site_fract_x
_atom_site_fract_y
_atom_site_fract_z
O1	O	0.932252	0.121381	-0.075694
O2	O	1.432252	0.621381	0.424306
O3	O	0.729983	0.121284	-0.087392
O4	O	1.229983	0.621284	0.412608
O5	O	0.836959	0.121307	0.019585
O6	O	1.336959	0.621307	0.519585
O7	O	0.825275	0.121359	-0.182671
O8	O	1.325275	0.621359	0.317329
O9	O	0.815230	-0.120490	-0.002231
O10	O	1.315230	0.379510	0.497769
O11	O	0.708253	-0.120513	-0.109208
O12	O	1.208253	0.379487	0.390792
O13	O	0.910522	-0.120416	-0.097511
O14	O	1.410522	0.379584	0.402489
Cu15	Cu	0.807403	-0.142542	-0.105351
Cu16	Cu	1.307403	0.357458	0.394649
Cu17	Cu	0.833101	0.143411	-0.079551
Cu18	Cu	1.333101	0.643411	0.420449
O19	O	0.803545	-0.120438	-0.204487
O20	O	1.303545	0.379562	0.295513
C21	C	0.693240	0.000373	-0.097925
C22	C	1.193240	0.500373	0.402075
C23	C	0.616133	0.000334	-0.096800
C24	C	1.116133	0.500334	0.403200
N25	N	0.789334	-0.343666	-0.123498
N26	N	1.289334	0.156334	0.376502
C27	C	0.571440	0.000373	-0.159564
C28	C	1.071440	0.500373	0.340436
C29	C	0.498995	0.000389	-0.158502
C30	C	0.998995	0.500389	0.341498
C31	C	0.471248	0.000395	-0.094669
C32	C	0.971248	0.500395	0.405331
C33	C	0.515949	0.000348	-0.031897
C34	C	1.015949	0.500348	0.468103
C35	C	0.588392	0.000317	-0.032962
C36	C	1.088392	0.500317	0.467038
C37	C	0.370602	0.085143	-0.036843
C38	C	0.870602	0.585143	0.463157
C39	C	0.298161	0.085183	-0.035780
C40	C	0.798161	0.585183	0.464220
C41	C	0.247810	0.000482	-0.091382
C42	C	0.747810	0.500482	0.408618
C43	C	0.269909	-0.084239	-0.148057
C44	C	0.769909	0.415761	0.351943
C45	C	0.342352	-0.084269	-0.149122
C46	C	0.842352	0.415731	0.350878
C47	C	0.392696	0.000427	-0.093507
C48	C	0.892696	0.500427	0.406493
C49	C	0.124562	0.000536	-0.152999
C50	C	0.624562	0.500536	0.347001
C51	C	0.052115	0.000543	-0.151935
C52	C	0.552115	0.500543	0.348065
C53	C	0.069073	0.000516	-0.025327
C54	C	0.569073	0.500516	0.474673
C55	C	0.141517	0.000495	-0.026394
C56	C	0.641517	0.500495	0.473606
C57	C	0.169258	0.000512	-0.090231
C58	C	0.669258	0.500512	0.409769
C59	C	0.827767	-0.415858	-0.084900
C60	C	1.327767	0.084142	0.415100
C61	C	0.812738	-0.583278	-0.100003
C62	C	1.312738	-0.083278	0.399997
C63	C	0.947265	0.000499	-0.086977
C64	C	1.447265	0.500499	0.413023
C65	C	1.024373	0.000547	-0.088102
C66	C	1.524373	0.500547	0.411898
C67	C	0.825718	0.000404	0.034553
C68	C	1.325718	0.500404	0.534553
C69	C	0.824588	0.000390	0.111655
C70	C	1.324588	0.500390	0.611655
N71	N	0.851176	0.344535	-0.061399
N72	N	1.351176	0.844535	0.438601
C73	C	0.814787	0.000468	-0.219455
C74	C	1.314787	0.500468	0.280545
C75	C	0.815918	0.000491	-0.296556
C76	C	1.315918	0.500491	0.203444
C77	C	0.887358	0.000413	0.156354
C78	C	1.387358	0.500413	0.656354
C79	C	0.886299	0.000436	0.228803
C80	C	1.386299	0.500436	0.728803
C81	C	0.822464	0.000406	0.256547
C82	C	1.322464	0.500406	0.756547
C83	C	0.759687	0.000391	0.211840
C84	C	1.259687	0.500391	0.711840
C85	C	0.760748	0.000383	0.139394
C86	C	1.260748	0.500383	0.639394
C87	C	0.764671	-0.084314	0.357191
C88	C	1.264671	0.415686	0.857191
C89	C	0.763611	-0.084315	0.429635
C90	C	1.263611	0.415685	0.929635
C91	C	0.819187	0.000437	0.479996
C92	C	1.319187	0.500437	0.979996
C93	C	0.875834	0.085172	0.457903
C94	C	1.375834	0.585172	0.957903
C95	C	0.876895	0.085164	0.385457
C96	C	1.376895	0.585164	0.885457
C97	C	0.821306	0.000416	0.335102
C98	C	1.321306	0.500416	0.835102
C99	C	0.880814	0.000487	0.603253
C100	C	1.380814	0.500487	1.103253
C101	C	0.879753	0.000518	0.675704
C102	C	1.379753	0.500518	1.175704
C103	C	0.753138	0.000459	0.658738
C104	C	1.253138	0.500459	1.158738
C105	C	0.754202	0.000442	0.586290
C106	C	1.254202	0.500442	1.086290
C107	C	0.818041	0.000449	0.558551
C108	C	1.318041	0.500449	1.058551
H109	H	0.594022	0.000390	-0.211545
H110	H	1.094022	0.500390	0.288455
F111	F	0.885195	-0.334643	-0.026969
F112	F	1.385195	0.165357	0.473031
H113	H	0.768702	-0.645412	-0.144230
H114	H	1.268702	-0.145412	0.355770
H115	H	0.709632	0.000364	0.103000
H116	H	1.209632	0.500364	0.603000
H117	H	0.895207	-0.593332	-0.017168
H118	H	1.395207	-0.093332	0.482832
F119	F	0.189086	0.000461	0.040410
F120	F	0.689086	0.500461	0.540410
F121	F	0.039546	0.000509	0.042608
F122	F	0.539546	0.500509	0.542608
H123	H	0.147148	0.000529	-0.204981
H124	H	0.647148	0.500529	0.295019
F125	F	0.705516	-0.174528	0.303598
F126	F	1.205516	0.325472	0.803598
H127	H	0.745301	-0.405806	-0.167721
H128	H	1.245301	0.094194	0.332279
F129	F	0.451420	0.000427	-0.225307
F130	F	0.951420	0.500427	0.274693
H131	H	0.921089	0.154186	0.498906
H132	H	1.421089	0.654186	0.998906
H133	H	0.707712	0.000370	0.234435
H134	H	1.207712	0.500370	0.734435
H135	H	0.939341	0.000424	0.133774
H136	H	1.439341	0.500424	0.633774
H137	H	0.360341	-0.153257	-0.195267
H138	H	0.860341	0.346743	0.304733
F139	F	0.953110	0.000463	0.276383
F140	F	1.453110	0.500463	0.776383
F141	F	0.937178	0.175348	0.361946
F142	F	1.437178	0.675348	0.861946
H143	H	0.228913	-0.153211	-0.193332
H144	H	0.728913	0.346789	0.306668
H145	H	0.280174	0.154173	0.010366
H146	H	0.780174	0.654173	0.510366
H147	H	0.015725	0.000566	-0.203048
H148	H	0.515725	0.500566	0.296952
F149	F	0.424184	0.175298	0.022340
F150	F	0.924184	0.675298	0.522340
H151	H	0.932796	0.000499	0.580667
H152	H	1.432796	0.500499	1.080667
H153	H	0.717484	-0.153303	0.447617
H154	H	1.217484	0.346697	0.947617
H155	H	0.493355	0.000373	0.020078
H156	H	0.993355	0.500373	0.520078
F157	F	0.946566	0.000552	0.723277
F158	F	1.446566	0.500552	1.223277
F159	F	0.635960	0.000276	0.033843
F160	F	1.135960	0.500276	0.533843
F161	F	0.685200	0.000434	0.688262
F162	F	1.185200	0.500434	1.188262
H163	H	0.703087	0.000415	0.549895
H164	H	1.203087	0.500415	1.049895
