data_functionalizedCrystal
_audit_creation_method	'MofGen! by Chris Wilmer'
_symmetry_space_group_name_H-M	'P1'
_symmetry_Int_Tables_number	1
_symmetry_cell_setting	triclinic
loop_
_symmetry_equiv_pos_as_xyz
  x,y,z
_cell_length_a	16.109318
_cell_length_b	27.732048
_cell_length_c	14.586319
_cell_angle_alpha	89.991275
_cell_angle_beta	90.000075
_cell_angle_gamma	83.055609
loop_
_atom_site_label
_atom_site_type_symbol
_atom_site_fract_x
_atom_site_fract_y
_atom_site_fract_z
O1	O	1.102352	0.062170	-0.076174
O2	O	1.602352	0.562170	0.423826
O3	O	0.860196	0.069893	-0.076194
O4	O	1.360196	0.569893	0.423806
O5	O	0.988795	-0.004333	-0.076166
O6	O	1.488795	0.495667	0.423834
O7	O	0.973753	0.136397	-0.076202
O8	O	1.473753	0.636397	0.423798
O9	O	0.988786	-0.004335	0.076315
O10	O	1.488786	0.495665	0.576315
O11	O	0.860188	0.069892	0.076287
O12	O	1.360188	0.569892	0.576287
O13	O	1.102343	0.062169	0.076307
O14	O	1.602343	0.562169	0.576307
Cu15	Cu	0.981265	0.066030	0.090219
Cu16	Cu	1.481265	0.566030	0.590219
Cu17	Cu	0.981275	0.066032	-0.090107
Cu18	Cu	1.481275	0.566032	0.409893
O19	O	0.973745	0.136395	0.076279
O20	O	1.473745	0.636395	0.576279
C21	C	0.829221	0.069578	0.000044
C22	C	1.329221	0.569578	0.500044
C23	C	0.736938	0.068636	0.000037
C24	C	1.236938	0.568636	0.500037
C25	C	0.437907	0.065593	-0.083063
C26	C	0.937907	0.565593	0.416937
C27	C	0.524618	0.066475	-0.083069
C28	C	1.024618	0.566475	0.416931
C29	C	0.524627	0.066467	0.083174
C30	C	1.024627	0.566467	0.583174
C31	C	0.437919	0.065582	0.083179
C32	C	0.937919	0.565582	0.583179
C33	C	0.394561	0.065147	0.000058
C34	C	0.894561	0.565147	0.500058
C35	C	0.567979	0.066915	0.000047
C36	C	1.067979	0.566915	0.500047
C37	C	0.661994	0.067871	0.000041
C38	C	1.161994	0.567871	0.500041
C39	C	0.300540	0.064190	0.000063
C40	C	0.800540	0.564190	0.500063
C41	C	0.988475	-0.022342	0.000077
C42	C	1.488475	0.477658	0.500077
C43	C	0.987524	-0.076001	0.000084
C44	C	1.487524	0.423999	0.500084
C45	C	1.057532	-0.414521	0.000043
C46	C	1.557532	0.085479	0.500043
C47	C	1.054004	-0.616195	0.000030
C48	C	1.554004	-0.116195	0.500030
O49	O	1.118022	-0.647181	-0.000005
O50	O	1.618022	-0.147181	0.499995
N51	N	0.977751	-0.635641	0.000024
N52	N	1.477751	-0.135641	0.500024
C53	C	0.902374	-0.604664	0.000016
C54	C	1.402374	-0.104664	0.500016
O55	O	0.837434	-0.625832	0.000002
O56	O	1.337434	-0.125832	0.500002
C57	C	0.905902	-0.402991	0.000023
C58	C	1.405902	0.097009	0.500023
C59	C	0.982161	-0.383548	0.000038
C60	C	1.482161	0.116452	0.500038
C61	C	1.133784	-0.395078	0.000057
C62	C	1.633784	0.104922	0.500057
C63	C	1.134665	-0.344662	0.000065
C64	C	1.634665	0.155338	0.500065
C65	C	1.059294	-0.313689	0.000059
C66	C	1.559294	0.186311	0.500059
C67	C	0.983042	-0.333133	0.000046
C68	C	1.483042	0.166867	0.500046
C69	C	0.830526	-0.372015	0.000008
C70	C	1.330526	0.127985	0.500008
C71	C	0.831415	-0.321594	0.000007
C72	C	1.331415	0.178406	0.500007
C73	C	0.907673	-0.302152	0.000022
C74	C	1.407673	0.197848	0.500022
C75	C	0.908551	-0.251744	0.000049
C76	C	1.408551	0.248256	0.500049
N77	N	0.984805	-0.232299	0.000054
N78	N	1.484805	0.267701	0.500054
C79	C	1.060176	-0.263271	0.000059
C80	C	1.560176	0.236729	0.500059
C81	C	0.900526	-0.710546	0.000015
C82	C	1.400526	-0.210546	0.500015
C83	C	0.899644	-0.760964	0.000015
C84	C	1.399644	-0.260964	0.500015
C85	C	1.051275	-0.772492	0.000027
C86	C	1.551275	-0.272492	0.500027
C87	C	1.052157	-0.722073	0.000033
C88	C	1.552157	-0.222073	0.500033
C89	C	0.976780	-0.691101	0.000020
C90	C	1.476780	-0.191101	0.500020
C91	C	1.062021	-0.157394	0.000078
C92	C	1.562021	0.342606	0.500078
C93	C	1.062895	-0.106974	0.000090
C94	C	1.562895	0.393026	0.500090
C95	C	0.911265	-0.095451	0.000073
C96	C	1.411265	0.404549	0.500073
C97	C	0.910390	-0.145867	0.000066
C98	C	1.410390	0.354133	0.500066
C99	C	0.985775	-0.176838	0.000065
C100	C	1.485775	0.323162	0.500065
O101	O	0.844569	-0.220730	0.000073
O102	O	1.344569	0.279270	0.500073
O103	O	1.125106	-0.242095	0.000053
O104	O	1.625106	0.257905	0.500053
C105	C	1.056651	-0.464936	0.000035
C106	C	1.556651	0.035064	0.500035
C107	C	0.980398	-0.484380	0.000021
C108	C	1.480398	0.015620	0.500021
C109	C	0.905027	-0.453407	0.000016
C110	C	1.405027	0.046593	0.500016
C111	C	0.979516	-0.534798	0.000021
C112	C	1.479516	-0.034798	0.500021
C113	C	1.054887	-0.565770	0.000026
C114	C	1.554887	-0.065770	0.500026
C115	C	1.131141	-0.546325	0.000032
C116	C	1.631141	-0.046325	0.500032
C117	C	1.132022	-0.495909	0.000040
C118	C	1.632022	0.004091	0.500040
C119	C	0.828773	-0.472853	0.000010
C120	C	1.328773	0.027147	0.500010
C121	C	0.827899	-0.523269	0.000003
C122	C	1.327899	-0.023269	0.500003
C123	C	0.903270	-0.554241	0.000008
C124	C	1.403270	-0.054241	0.500008
C125	C	1.133318	0.062484	0.000066
C126	C	1.633318	0.562484	0.500066
C127	C	1.225601	0.063426	0.000067
C128	C	1.725601	0.563426	0.500067
N129	N	0.981263	0.066029	0.217051
N130	N	1.481263	0.566029	0.717051
C131	C	0.974065	0.154404	0.000034
C132	C	1.474065	0.654404	0.500034
C133	C	0.975015	0.208063	0.000020
C134	C	1.475015	0.708063	0.500020
N135	N	0.981283	0.066029	-0.216939
N136	N	1.481283	0.566029	0.283061
C137	C	1.038225	0.033173	0.452070
C138	C	1.538225	0.533173	0.952070
C139	C	1.038228	0.033171	0.548051
C140	C	1.538228	0.533171	1.048051
C141	C	0.924315	0.098887	0.548036
C142	C	1.424315	0.598887	1.048036
C143	C	0.924309	0.098886	0.452056
C144	C	1.424309	0.598886	0.952056
C145	C	0.981269	0.066029	0.404076
C146	C	1.481269	0.566029	0.904076
C147	C	0.981277	0.066029	0.596037
C148	C	1.481277	0.566029	1.096037
C149	C	0.981279	0.066028	0.700104
C150	C	1.481279	0.566028	1.200104
C151	C	0.981266	0.066029	0.300002
C152	C	1.481266	0.566029	0.800002
H153	H	0.559939	0.066822	0.150848
H154	H	1.059939	0.566822	0.650848
F155	F	1.098845	-0.001798	0.401009
F156	F	1.598845	0.498202	0.901009
F157	F	1.098846	-0.001800	0.599127
F158	F	1.598846	0.498200	1.099127
F159	F	0.748548	-0.439895	0.000002
F160	F	1.248548	0.060105	0.500002
F161	F	0.863699	0.133855	0.599106
F162	F	1.363699	0.633855	1.099106
H163	H	0.402608	0.065238	-0.150746
H164	H	0.902608	0.565238	0.349254
F165	F	1.142254	-0.190349	0.000076
F166	F	1.642254	0.309651	0.500076
F167	F	1.214012	-0.428034	0.000062
F168	F	1.714012	0.071966	0.500062
F169	F	1.215831	-0.323976	0.000061
F170	F	1.715831	0.176024	0.500061
H171	H	0.839142	-0.685333	0.000004
H172	H	1.339142	-0.185333	0.500004
F173	F	0.863682	0.133856	0.400973
F174	F	1.363682	0.633856	0.900973
H175	H	0.402625	0.065218	0.150870
H176	H	0.902625	0.565218	0.650870
F177	F	0.570747	0.066948	-0.171538
F178	F	1.070747	0.566948	0.328462
F179	F	0.829228	-0.166560	0.000067
F180	F	1.329228	0.333440	0.500067
F181	F	0.746728	-0.543955	-0.000007
F182	F	1.246728	-0.043955	0.499993
H183	H	1.124997	-0.091147	0.000104
H184	H	1.624997	0.408853	0.500104
H185	H	1.194120	-0.480084	0.000052
H186	H	1.694120	0.019916	0.500052
F187	F	1.133321	-0.701385	0.000049
F188	F	1.633321	-0.201385	0.500049
H189	H	0.768428	-0.387836	-0.000009
H190	H	1.268428	0.112164	0.499991
H191	H	1.112646	-0.797718	0.000031
H192	H	1.612646	-0.297718	0.500031
H193	H	0.770032	-0.296379	-0.000004
H194	H	1.270032	0.203621	0.499996
F195	F	0.818479	-0.781651	0.000016
F196	F	1.318479	-0.281651	0.500016
H197	H	0.849900	-0.070224	0.000072
H198	H	1.349900	0.429776	0.500072
F199	F	1.211357	-0.579297	0.000042
F200	F	1.711357	-0.079297	0.500042
