data_functionalizedCrystal
_audit_creation_method	'MofGen! by Chris Wilmer'
_symmetry_space_group_name_H-M	'P1'
_symmetry_Int_Tables_number	1
_symmetry_cell_setting	triclinic
loop_
_symmetry_equiv_pos_as_xyz
  x,y,z
_cell_length_a	10.723024
_cell_length_b	10.654550
_cell_length_c	9.130313
_cell_angle_alpha	89.996249
_cell_angle_beta	90.002478
_cell_angle_gamma	95.523600
loop_
_atom_site_label
_atom_site_type_symbol
_atom_site_fract_x
_atom_site_fract_y
_atom_site_fract_z
O1	O	1.657212	-0.176148	0.121789
O2	O	2.157212	0.323852	0.621789
O3	O	1.294062	-0.193009	0.121794
O4	O	1.794062	0.306991	0.621794
O5	O	1.483986	-0.001838	0.121783
O6	O	1.983986	0.498162	0.621783
O7	O	1.467287	-0.367319	0.121801
O8	O	1.967287	0.132681	0.621801
O9	O	1.483976	-0.001835	-0.121816
O10	O	1.983976	0.498165	0.378184
O11	O	1.294051	-0.193005	-0.121804
O12	O	1.794051	0.306995	0.378196
O13	O	1.657201	-0.176145	-0.121809
O14	O	2.157201	0.323855	0.378191
Cu15	Cu	1.475625	-0.184575	-0.144049
Cu16	Cu	1.975625	0.315425	0.355951
Cu17	Cu	1.475638	-0.184579	0.144034
Cu18	Cu	1.975638	0.315421	0.644034
O19	O	1.467277	-0.367316	-0.121798
O20	O	1.967277	0.132684	0.378202
C21	C	1.247557	-0.191780	-0.000004
C22	C	1.747557	0.308220	0.499996
C23	C	1.109002	-0.188109	-0.000003
C24	C	1.609002	0.311891	0.499997
C25	C	1.482755	0.044961	-0.000016
C26	C	1.982755	0.544961	0.499984
C27	C	1.479086	0.184404	-0.000014
C28	C	1.979086	0.684404	0.499986
N29	N	1.475625	-0.184571	-0.346672
N30	N	1.975625	0.315429	0.153328
C31	C	1.034035	-0.295078	0.000004
C32	C	1.534035	0.204922	0.500004
C33	C	0.890831	-0.291287	0.000005
C34	C	1.390831	0.208713	0.500005
C35	C	1.703706	-0.177373	-0.000007
C36	C	2.203706	0.322627	0.499993
C37	C	1.842261	-0.181045	0.000001
C38	C	2.342261	0.318955	0.500001
C39	C	1.468508	-0.414115	0.000004
C40	C	1.968508	0.085885	0.500004
C41	C	1.472176	-0.553558	0.000012
C42	C	1.972176	-0.053558	0.500012
C43	C	1.590911	0.263907	-0.000015
C44	C	2.090911	0.763907	0.499985
C45	C	1.587457	0.394927	0.000003
C46	C	2.087457	0.894927	0.500003
C47	C	1.360343	0.366929	0.000017
C48	C	1.860343	0.866929	0.500017
C49	C	1.363799	0.235912	0.000010
C50	C	1.863799	0.735912	0.500010
C51	C	1.559758	-0.099952	-0.576676
C52	C	2.059758	0.400048	-0.076676
C53	C	1.559751	-0.099954	-0.423339
C54	C	2.059751	0.400046	0.076661
C55	C	1.391510	-0.269201	-0.423350
C56	C	1.891510	0.230799	0.076650
C57	C	1.391525	-0.269204	-0.576684
C58	C	1.891525	0.230796	-0.076684
N59	N	1.475647	-0.184573	0.346657
N60	N	1.975647	0.315427	0.846657
H61	H	1.075871	-0.389466	0.000000
H62	H	1.575871	0.110534	0.500000
H63	H	1.272732	0.171177	0.000015
H64	H	1.772732	0.671177	0.500015
H65	H	1.684785	0.221974	-0.000030
H66	H	2.184785	0.721974	0.499970
H67	H	1.323018	-0.338104	-0.360919
H68	H	1.823018	0.161896	0.139081
N69	N	1.650503	-0.008688	-0.659353
N70	N	2.150503	0.491312	-0.159353
H71	H	1.706166	-0.057200	-0.722955
H72	H	2.206166	0.442800	-0.222955
H73	H	1.602264	0.047344	-0.722904
H74	H	2.102264	0.547344	-0.222904
H75	H	0.906673	-0.089466	0.000004
H76	H	1.406673	0.410534	0.500004
H77	H	1.067166	-0.093722	0.000030
H78	H	1.567166	0.406278	0.500030
N79	N	1.650456	-0.008667	-0.340652
N80	N	2.150456	0.491333	0.159348
H81	H	1.637687	-0.021503	-0.231882
H82	H	2.137687	0.478497	0.268118
H83	H	1.739110	-0.023980	-0.367437
H84	H	2.239110	0.476020	0.132563
H85	H	1.323031	-0.338118	-0.639110
H86	H	1.823031	0.161882	-0.139110
N87	N	1.708067	0.480677	0.000003
N88	N	2.208067	0.980677	0.500003
H89	H	1.781620	0.428162	-0.000013
H90	H	2.281620	0.928162	0.499987
H91	H	1.711570	0.535658	-0.090298
H92	H	2.211570	1.035658	0.409702
H93	H	1.266480	0.408883	0.000033
H94	H	1.766480	0.908883	0.500033
H95	H	0.826412	-0.382860	0.000017
H96	H	1.326412	0.117140	0.500017
