data_functionalizedCrystal
_audit_creation_method	'MofGen! by Chris Wilmer'
_symmetry_space_group_name_H-M	'P1'
_symmetry_Int_Tables_number	1
_symmetry_cell_setting	triclinic
loop_
_symmetry_equiv_pos_as_xyz
  x,y,z
_cell_length_a	12.759401
_cell_length_b	16.625546
_cell_length_c	12.759393
_cell_angle_alpha	89.963806
_cell_angle_beta	89.981504
_cell_angle_gamma	90.022629
loop_
_atom_site_label
_atom_site_type_symbol
_atom_site_fract_x
_atom_site_fract_y
_atom_site_fract_z
Zn1	Zn	1.606199	-0.320951	-0.593948
Zn2	Zn	1.606069	-0.455807	-0.418253
Zn3	Zn	1.430501	-0.320993	-0.418287
Zn4	Zn	1.430465	-0.455745	-0.593895
O5	O	1.518308	-0.388374	-0.506096
O6	O	1.753203	-0.338848	-0.570649
O7	O	1.582740	-0.437968	-0.271237
O8	O	1.453876	-0.208155	-0.441625
O9	O	1.753107	-0.437927	-0.441568
O10	O	1.582961	-0.208124	-0.570682
O11	O	1.453751	-0.338920	-0.271261
O12	O	1.283475	-0.338860	-0.441574
O13	O	1.453816	-0.437821	-0.740923
O14	O	1.283449	-0.437862	-0.570592
O15	O	1.582927	-0.338788	-0.740962
O16	O	1.582706	-0.568632	-0.441517
O17	O	1.453691	-0.568586	-0.570560
C18	C	1.245341	-0.388359	-0.506081
C19	C	1.128564	-0.388372	-0.506100
C20	C	1.518209	-0.597865	-0.506052
C21	C	1.518263	-0.687486	-0.506068
C22	C	1.073717	-0.440005	-0.573169
C23	C	0.963992	-0.440015	-0.573180
C24	C	0.963974	-0.336758	-0.439045
C25	C	1.073696	-0.336744	-0.439040
C26	C	1.128585	-0.491634	-0.640229
C27	C	1.073737	-0.543271	-0.707303
C28	C	0.964013	-0.543282	-0.707314
C29	C	0.909137	-0.491654	-0.640252
C30	C	1.518446	-1.015662	-0.506177
C31	C	1.518392	-0.924353	-0.506150
C32	C	1.518353	-0.851577	-0.506122
C33	C	1.518301	-0.760262	-0.506096
C34	C	1.792342	-0.388390	-0.506111
C35	C	1.909118	-0.388396	-0.506117
C36	C	1.518382	-0.388293	-0.780129
C37	C	1.518413	-0.388258	-0.896906
C38	C	1.518437	-0.178065	-0.506163
C39	C	1.518492	-0.088444	-0.506191
C40	C	1.585650	-0.336687	-0.951790
C41	C	1.585675	-0.336657	-1.061514
C42	C	1.451223	-0.439778	-1.061461
C43	C	1.451194	-0.439803	-0.951739
C44	C	1.652870	-0.285142	-0.896957
C45	C	1.720113	-0.233567	-0.951841
C46	C	1.720138	-0.233538	-1.061565
C47	C	1.652920	-0.285084	-1.116405
C48	C	1.518296	-0.388397	-0.233128
C49	C	1.518468	-0.388204	-0.116352
H50	H	1.118424	-0.585299	-0.761909
C51	C	1.391584	-0.485535	-1.229636
C52	C	1.377353	-0.496444	-1.121739
H53	H	1.345985	-0.520525	-1.266846
H54	H	1.376240	-0.431362	-1.247637
H55	H	1.462177	-0.497334	-1.247601
H56	H	1.306761	-0.484639	-1.103773
H57	H	1.392689	-0.550629	-1.103731
C58	C	0.840544	-0.325452	-0.297748
C59	C	0.903662	-0.280020	-0.365319
H60	H	0.803318	-0.290425	-0.252225
H61	H	0.792177	-0.356195	-0.337695
H62	H	0.883338	-0.360540	-0.257487
H63	H	0.860866	-0.244937	-0.405586
H64	H	0.952035	-0.249264	-0.325368
H65	H	1.652934	-0.285046	-1.205750
H66	H	1.217928	-0.491633	-0.640226
H67	H	1.652859	-0.285162	-0.807614
H68	H	1.396427	-0.481784	-0.907051
C69	C	1.779775	-0.187821	-0.783667
C70	C	1.793992	-0.176906	-0.891565
H71	H	1.825389	-0.152842	-0.746460
H72	H	1.709196	-0.176020	-0.765691
H73	H	1.795117	-0.242004	-0.765676
H74	H	1.778642	-0.122724	-0.909558
H75	H	1.864587	-0.188701	-0.909549
C76	C	0.975057	-0.645349	-0.839894
C77	C	0.903722	-0.600038	-0.781040
H78	H	0.937836	-0.680394	-0.885402
H79	H	1.017878	-0.610252	-0.880162
H80	H	1.017827	-0.676140	-0.794027
H81	H	0.860958	-0.569242	-0.826906
H82	H	0.860883	-0.635139	-0.740769
H83	H	0.819792	-0.491660	-0.640276
C84	C	1.107443	-0.297319	-0.261224
C85	C	1.134001	-0.279999	-0.365310
H86	H	1.144681	-0.262289	-0.215708
H87	H	1.034255	-0.289929	-0.251630
H88	H	1.125400	-0.351483	-0.245740
H89	H	1.116037	-0.225837	-0.380796
H90	H	1.207205	-0.287382	-0.374908
C91	C	1.853040	-0.131616	-1.050591
C92	C	1.794048	-0.176848	-1.121896
H93	H	1.898677	-0.096623	-1.087838
H94	H	1.807277	-0.100780	-1.007808
H95	H	1.893188	-0.166771	-1.007782
H96	H	1.753894	-0.141693	-1.164700
H97	H	1.839817	-0.207686	-1.164697
