data_functionalizedCrystal
_audit_creation_method	'MofGen! by Chris Wilmer'
_symmetry_space_group_name_H-M	'P1'
_symmetry_Int_Tables_number	1
_symmetry_cell_setting	triclinic
loop_
_symmetry_equiv_pos_as_xyz
  x,y,z
_cell_length_a	12.759394
_cell_length_b	19.077241
_cell_length_c	19.077299
_cell_angle_alpha	85.306080
_cell_angle_beta	87.712152
_cell_angle_gamma	87.693167
loop_
_atom_site_label
_atom_site_type_symbol
_atom_site_fract_x
_atom_site_fract_y
_atom_site_fract_z
Zn1	Zn	-0.379518	-1.093678	0.442001
Zn2	Zn	-0.548389	-1.088910	0.324120
Zn3	Zn	-0.379487	-0.971088	0.319383
Zn4	Zn	-0.561920	-0.975775	0.437220
O5	O	-0.467328	-1.032363	0.380681
O6	O	-0.396269	-1.191697	0.430347
O7	O	-0.520308	-1.069324	0.224843
O8	O	-0.232469	-0.987384	0.335668
O9	O	-0.520338	-1.188194	0.343740
O10	O	-0.232492	-1.077450	0.425754
O11	O	-0.396216	-0.982761	0.221363
O12	O	-0.409337	-0.873059	0.331032
O13	O	-0.543400	-0.995372	0.536503
O14	O	-0.543370	-0.876502	0.417606
O15	O	-0.409390	-1.081995	0.540016
O16	O	-0.697206	-1.073869	0.339104
O17	O	-0.707147	-0.990749	0.422198
C18	C	-0.477819	-0.849201	0.373286
C19	C	-0.482333	-0.770844	0.370140
C20	C	-0.419969	-0.735859	0.413822
C21	C	-0.424205	-0.662235	0.410859
C22	C	-0.490812	-0.623596	0.364217
C23	C	-0.553179	-0.658586	0.320530
C24	C	-0.548936	-0.732210	0.323490
C25	C	-0.510410	-0.403210	0.350519
C26	C	-0.514650	-0.329582	0.347564
C27	C	-0.385674	-0.333235	0.437893
C28	C	-0.381442	-0.406860	0.440851
C29	C	-0.443805	-0.441843	0.397162
N30	N	-0.495146	-0.548340	0.361189
N31	N	-0.439465	-0.517098	0.400187
C32	C	-0.740297	-1.032320	0.380662
C33	C	-0.857072	-1.032367	0.380680
C34	C	-0.846667	-1.118990	0.294225
C35	C	-0.896324	-1.162320	0.251006
C36	C	-1.006045	-1.162362	0.251026
C37	C	-1.066111	-1.119071	0.294272
C38	C	-1.016453	-1.075741	0.337491
C39	C	-0.906730	-1.075702	0.337464
C40	C	-1.026858	-0.989123	0.423950
C41	C	-0.917138	-0.989076	0.423926
C42	C	-1.086924	-0.945832	0.467196
C43	C	-1.037267	-0.902497	0.510412
C44	C	-0.927539	-0.902456	0.510389
C45	C	-0.867480	-0.945746	0.467145
C46	C	-0.193293	-1.032426	0.380716
C47	C	-0.076516	-1.032453	0.380731
C48	C	-0.477908	-1.039738	0.564553
C49	C	-0.482416	-1.042881	0.642909
C50	C	-0.456791	-0.216240	0.388099
C51	C	-0.452285	-0.294597	0.391247
C52	C	-0.514780	-1.065450	1.084162
C53	C	-0.510538	-1.062486	1.010538
C54	C	-0.443804	-1.015940	0.971923
C55	C	-0.381316	-0.972349	1.006934
C56	C	-0.385564	-0.975310	1.080556
C57	C	-0.424176	-1.002251	0.751542
C58	C	-0.419930	-0.999295	0.677915
C59	C	-0.549154	-1.089432	0.681524
C60	C	-0.553392	-1.092391	0.755148
C61	C	-0.490908	-1.048798	0.790153
N62	N	-0.439464	-1.012911	0.896668
N63	N	-0.495254	-1.051823	0.865406
C64	C	-0.456811	-1.025010	1.197524
C65	C	-0.452294	-1.021864	1.119168
H66	H	-0.561191	-0.431685	0.314945
H67	H	-0.847409	-1.197569	0.215796
C68	C	-0.347548	-0.777680	0.464487
C69	C	-0.293819	-0.731279	0.502094
C70	C	-0.227083	-0.769776	0.548766
H71	H	-0.387805	-0.807638	0.496373
H72	H	-0.298450	-0.805306	0.438744
H73	H	-0.342911	-0.703665	0.527835
H74	H	-0.253541	-0.701321	0.470226
H75	H	-0.177985	-0.797402	0.523023
H76	H	-0.267348	-0.799732	0.580648
H77	H	-0.190613	-0.738299	0.574283
H78	H	-0.327208	-0.438314	0.478835
C79	C	-0.356677	-0.624166	0.458329
C80	C	-0.421303	-0.583697	0.501729
C81	C	-0.359130	-0.548613	0.545464
H82	H	-0.316393	-0.657646	0.486597
H83	H	-0.310957	-0.594325	0.430284
H84	H	-0.467005	-0.613535	0.529772
H85	H	-0.461586	-0.550205	0.473480
H86	H	-0.313409	-0.518773	0.517419
H87	H	-0.318849	-0.582098	0.573728
H88	H	-0.402969	-0.521146	0.574912
C89	C	-0.318004	-0.295122	0.485237
C90	C	-0.335951	-0.222375	0.472652
C91	C	-0.273616	-0.187243	0.516246
H92	H	-0.335455	-0.309010	0.533096
H93	H	-0.246085	-0.306741	0.475476
H94	H	-0.407853	-0.210761	0.482418
H95	H	-0.318494	-0.208466	0.424803
H96	H	-0.201697	-0.198863	0.506486
H97	H	-0.291072	-0.201138	0.564102
H98	H	-0.285777	-0.137881	0.507709
C99	C	-1.059770	-1.209429	0.204028
C100	C	-0.983691	-1.247322	0.166139
C101	C	-1.033143	-1.290679	0.122831
H102	H	-1.102306	-1.241282	0.232190
H103	H	-1.102377	-1.181279	0.172178
H104	H	-0.941102	-1.275470	0.197985
H105	H	-0.941150	-1.215487	0.137964
H106	H	-1.075749	-1.262529	0.090981
H107	H	-1.075678	-1.322527	0.150999
H108	H	-0.981531	-1.316390	0.097114
C109	C	-0.587341	-1.116009	1.125958
C110	C	-0.641176	-1.153531	1.079538
C111	C	-0.708043	-1.200106	1.118012
H112	H	-0.547167	-1.147955	1.155928
H113	H	-0.636373	-1.090199	1.153568
H114	H	-0.592151	-1.179340	1.051940
H115	H	-0.681370	-1.121604	1.049567
H116	H	-0.757074	-1.174295	1.145622
H117	H	-0.667861	-1.232047	1.147981
H118	H	-0.744585	-1.225565	1.086522
C119	C	-1.185224	-1.119195	0.294175
C120	C	-1.215856	-1.166398	0.247062
C121	C	-1.325575	-1.166523	0.246948
H122	H	-1.212042	-1.133210	0.340132
H123	H	-1.212055	-1.073241	0.280085
H124	H	-1.189037	-1.212341	0.261155
H125	H	-1.189066	-1.152393	0.201098
H126	H	-1.352406	-1.120569	0.232858
H127	H	-1.352383	-1.180537	0.292907
H128	H	-1.346373	-1.198544	0.214978
H129	H	-1.176264	-0.945872	0.467213
C130	C	-0.317658	-0.928106	1.118661
C131	C	-0.250493	-0.969737	1.162565
C132	C	-0.187937	-0.926273	1.197684
H133	H	-0.277209	-0.899947	1.085201
H134	H	-0.361239	-0.898547	1.146176
H135	H	-0.206917	-0.999283	1.135053
H136	H	-0.290914	-0.997894	1.196039
H137	H	-0.231517	-0.896714	1.225199
H138	H	-0.147495	-0.898117	1.164219
H139	H	-0.142365	-0.954513	1.227482
H140	H	-0.365580	-0.961392	0.646476
H141	H	-1.086180	-0.867256	0.545623
H142	H	-0.607406	-0.627121	0.282550
C143	C	-0.587135	-0.287719	0.296965
C144	C	-0.690964	-0.306245	0.312897
C145	C	-0.757762	-0.267701	0.266300
H146	H	-0.580869	-0.238849	0.301421
H147	H	-0.568289	-0.297886	0.250090
H148	H	-0.709804	-0.296073	0.359761
H149	H	-0.697263	-0.355108	0.308437
H150	H	-0.738916	-0.277869	0.219424
H151	H	-0.751487	-0.218834	0.270759
H152	H	-0.828216	-0.280271	0.277099
H153	H	-0.887115	-0.867174	0.545586
C154	C	-0.616773	-0.770068	0.276034
C155	C	-0.676036	-0.720475	0.234568
C156	C	-0.738548	-0.755323	0.190847
H157	H	-0.573207	-0.797556	0.246457
H158	H	-0.662561	-0.799854	0.304087
H159	H	-0.630252	-0.690702	0.206517
H160	H	-0.719622	-0.692985	0.264126
H161	H	-0.784336	-0.785109	0.218900
H162	H	-0.694974	-0.782810	0.161275
H163	H	-0.778772	-0.721680	0.162712
H164	H	-0.778140	-0.945712	0.467118
H165	H	-0.607734	-1.130293	0.786584
C166	C	-0.578513	-1.109695	0.972493
C167	C	-0.645727	-1.068066	0.928621
C168	C	-0.708375	-1.111531	0.893572
H169	H	-0.535029	-1.139278	0.944960
H170	H	-0.618920	-1.137828	1.006015
H171	H	-0.605324	-1.039945	0.895103
H172	H	-0.689234	-1.038484	0.956137
H173	H	-0.748781	-1.139665	0.927094
H174	H	-0.664882	-1.141113	0.866043
H175	H	-0.753993	-1.083293	0.863806
C176	C	-0.309029	-0.921768	0.964918
C177	C	-0.368660	-0.874881	0.920804
C178	C	-0.302101	-0.828283	0.882082
H179	H	-0.272398	-0.896161	0.996227
H180	H	-0.260068	-0.947574	0.937253
H181	H	-0.417602	-0.849078	0.948466
H182	H	-0.405289	-0.900468	0.889480
H183	H	-0.253139	-0.854088	0.854418
H184	H	-0.265473	-0.802681	0.913397
H185	H	-0.342549	-0.796469	0.852142
C186	C	-0.616956	-1.136672	0.643387
C187	C	-0.598977	-1.124107	0.570647
C188	C	-0.661434	-1.167604	0.535493
H189	H	-0.599631	-1.184553	0.657280
H190	H	-0.688853	-1.126809	0.654984
H191	H	-0.527097	-1.133975	0.559056
H192	H	-0.616309	-1.076234	0.556733
H193	H	-0.733331	-1.157742	0.547090
H194	H	-0.644104	-1.215483	0.549392
H195	H	-0.649252	-1.159080	0.486135
C196	C	-0.356207	-0.954896	0.789414
C197	C	-0.296833	-0.913518	0.739836
C198	C	-0.234194	-0.869893	0.774700
H199	H	-0.399693	-0.925258	0.816888
H200	H	-0.310489	-0.983015	0.819213
H201	H	-0.342547	-0.885402	0.710048
H202	H	-0.253328	-0.943137	0.712360
H203	H	-0.188475	-0.898011	0.804500
H204	H	-0.277687	-0.840259	0.802174
H205	H	-0.193894	-0.841817	0.741068
H206	H	-0.757326	-1.118951	0.294194
