data_functionalizedCrystal
_audit_creation_method	'MofGen! by Chris Wilmer'
_symmetry_space_group_name_H-M	'P1'
_symmetry_Int_Tables_number	1
_symmetry_cell_setting	triclinic
loop_
_symmetry_equiv_pos_as_xyz
  x,y,z
_cell_length_a	14.044191
_cell_length_b	13.101018
_cell_length_c	9.065218
_cell_angle_alpha	93.410526
_cell_angle_beta	90.896169
_cell_angle_gamma	93.666878
loop_
_atom_site_label
_atom_site_type_symbol
_atom_site_fract_x
_atom_site_fract_y
_atom_site_fract_z
O1	O	1.265919	0.085157	-0.348674
O2	O	1.765919	0.585157	0.151326
O3	O	0.989840	0.085170	-0.335813
O4	O	1.489840	0.585170	0.164187
O5	O	1.133586	0.085161	-0.128234
O6	O	1.633586	0.585161	0.371766
O7	O	1.122173	0.085166	-0.556253
O8	O	1.622173	0.585166	-0.056253
O9	O	1.123260	-0.085268	-0.143140
O10	O	1.623260	0.414732	0.356860
O11	O	0.979514	-0.085259	-0.350719
O12	O	1.479514	0.414741	0.149281
O13	O	1.255593	-0.085273	-0.363580
O14	O	1.755593	0.414727	0.136420
Zn15	Zn	1.115914	-0.112325	-0.359516
Zn16	Zn	1.615914	0.387675	0.140484
Zn17	Zn	1.129519	0.112223	-0.339877
Zn18	Zn	1.629519	0.612223	0.160123
O19	O	1.111847	-0.085264	-0.571159
O20	O	1.611847	0.414736	-0.071159
C21	C	0.949314	-0.000043	-0.337640
C22	C	1.449314	0.499957	0.162360
C23	C	0.843944	-0.000037	-0.320858
C24	C	1.343944	0.499963	0.179142
C25	C	0.594416	-0.000047	-0.409195
C26	C	1.094416	0.499953	0.090805
C27	C	0.651023	-0.000046	-0.290203
C28	C	1.151023	0.499954	0.209797
C29	C	0.758374	-0.000041	-0.307264
C30	C	1.258374	0.499959	0.192736
C31	C	0.487055	-0.000052	-0.392137
C32	C	0.987055	0.499948	0.107863
N33	N	1.106637	-0.265574	-0.372920
N34	N	1.606637	0.234426	0.127080
C35	C	1.151421	-0.525486	-0.308220
C36	C	1.651421	-0.025486	0.191780
C37	C	1.094022	-0.474610	-0.391158
C38	C	1.594022	0.025390	0.108842
C39	C	1.101043	-0.358291	-0.381007
C40	C	1.601043	0.141709	0.118993
C41	C	1.144402	-0.641815	-0.318369
C42	C	1.644402	-0.141815	0.181631
C43	C	1.296119	-0.000057	-0.361753
C44	C	1.796119	0.499943	0.138247
C45	C	1.401489	-0.000056	-0.378534
C46	C	1.901489	0.499944	0.121466
C47	C	1.127326	-0.000052	-0.080578
C48	C	1.627326	0.499948	0.419422
C49	C	1.124047	-0.000047	0.083628
C50	C	1.624047	0.499953	0.583628
N51	N	1.138804	0.265472	-0.326462
N52	N	1.638804	0.765472	0.173538
C53	C	1.118107	-0.000048	-0.618814
C54	C	1.618107	0.499952	-0.118814
C55	C	1.121387	-0.000046	-0.783020
C56	C	1.621387	0.499954	-0.283020
H57	H	0.618868	0.000025	-0.175512
H58	H	1.118868	0.500025	0.324488
Cl59	Cl	1.010015	-0.542234	-0.512559
Cl60	Cl	1.510015	-0.042234	-0.012559
H61	H	0.626574	-0.000042	-0.523871
H62	H	1.126574	0.499958	-0.023871
H63	H	1.205832	-0.481690	-0.229598
H64	H	1.705832	0.018310	0.270402
