data_functionalizedCrystal
_audit_creation_method	'MofGen! by Chris Wilmer'
_symmetry_space_group_name_H-M	'P1'
_symmetry_Int_Tables_number	1
_symmetry_cell_setting	triclinic
loop_
_symmetry_equiv_pos_as_xyz
  x,y,z
_cell_length_a	13.339070
_cell_length_b	16.992695
_cell_length_c	15.455313
_cell_angle_alpha	87.152573
_cell_angle_beta	93.405976
_cell_angle_gamma	103.148759
loop_
_atom_site_label
_atom_site_type_symbol
_atom_site_fract_x
_atom_site_fract_y
_atom_site_fract_z
O1	O	-1.378864	-0.397618	-0.072167
O2	O	-1.080091	-0.345099	-0.072161
O3	O	-1.228279	-0.256955	-0.072157
O4	O	-1.230676	-0.485761	-0.072171
O5	O	-1.219803	-0.261967	0.072105
O6	O	-1.071614	-0.350110	0.072101
O7	O	-1.370388	-0.402629	0.072095
Cu8	Cu	-1.220227	-0.376827	0.085270
Cu9	Cu	-1.230251	-0.370900	-0.085336
O10	O	-1.222199	-0.490773	0.072091
C11	C	-1.037446	-0.338733	-0.000030
C12	C	-0.923006	-0.312289	-0.000027
C13	C	-1.220960	-0.229578	-0.000026
C14	C	-1.211765	-0.140533	-0.000026
C15	C	-1.413032	-0.408995	-0.000039
C16	C	-1.527473	-0.435438	-0.000047
C17	C	-0.574838	-0.517902	-0.000053
C18	C	-0.682360	-0.542749	-0.000058
C19	C	-0.742526	-0.485136	-0.000050
C20	C	-0.695161	-0.402672	-0.000038
C21	C	-0.587629	-0.377821	-0.000040
C22	C	-0.755318	-0.345056	-0.000036
C23	C	-0.707953	-0.262591	-0.000024
C24	C	-0.600431	-0.237745	-0.000025
C25	C	-0.540264	-0.295358	-0.000033
C26	C	-0.862850	-0.369906	-0.000035
C27	C	-0.875641	-0.229826	-0.000021
C28	C	-0.768119	-0.204978	-0.000016
C29	C	-1.229519	-0.518150	-0.000042
C30	C	-1.238714	-0.607194	-0.000048
N31	N	-1.213184	-0.380997	0.205265
C32	C	-1.300479	-0.109593	-0.000027
C33	C	-1.291834	-0.025925	-0.000035
C34	C	-1.194474	0.026800	-0.000036
C35	C	-1.105754	-0.004145	-0.000038
C36	C	-1.114400	-0.087811	-0.000036
C37	C	-1.158640	0.278195	-0.000048
C38	C	-1.150000	0.361866	-0.000047
C39	C	-1.336081	0.340079	-0.000046
C40	C	-1.344718	0.256413	-0.000039
C41	C	-1.255998	0.225475	-0.000045
N42	N	-1.185636	0.112322	-0.000042
N43	N	-1.264839	0.139954	-0.000046
N44	N	-1.237302	-0.366726	-0.205332
C45	C	-1.276165	-0.343575	0.250661
C46	C	-1.270848	-0.346737	0.341469
C47	C	-1.202556	-0.387328	0.386879
C48	C	-1.139568	-0.424751	0.341477
C49	C	-1.144880	-0.421583	0.250671
C50	C	-1.179627	-0.400981	0.658460
C51	C	-1.174322	-0.404148	0.749272
C52	C	-1.305601	-0.326133	0.749258
C53	C	-1.310911	-0.322973	0.658450
C54	C	-1.247920	-0.360392	0.613056
N55	N	-1.197122	-0.390564	0.479699
N56	N	-1.253349	-0.357151	0.520238
H57	H	-0.901404	-0.437050	-0.000041
H58	H	-1.128338	-0.431451	0.621507
H59	H	-1.093593	-0.452055	0.213710
H60	H	-1.322131	-0.316265	0.378430
H61	H	-1.364074	-0.000739	-0.000034
F62	F	-1.019979	-0.120739	-0.000038
F63	F	-0.510800	-0.579207	-0.000074
F64	F	-1.383596	-0.279774	0.610122
H65	H	-0.561870	-0.170596	-0.000025
F66	F	-0.856961	-0.511584	-0.000054
H67	H	-1.423999	0.213488	-0.000038
H68	H	-1.331780	-0.310526	0.213694
F69	F	-1.372634	-0.286309	0.797575
F70	F	-1.101632	-0.447355	0.797596
H71	H	-1.026482	0.038792	-0.000044
H72	H	-1.408311	0.365279	-0.000042
F73	F	-0.939670	-0.168505	-0.000018
F74	F	-1.404103	-0.165702	-0.000018
F75	F	-1.066880	-0.467946	0.389807
H76	H	-0.452710	-0.275131	-0.000029
F77	F	-0.732762	-0.630510	-0.000075
H78	H	-0.729540	-0.137833	-0.000013
F79	F	-1.046372	0.417980	-0.000044
F80	F	-1.064215	0.245279	-0.000057
