data_functionalizedCrystal
_audit_creation_method	'MofGen! by Chris Wilmer'
_symmetry_space_group_name_H-M	'P1'
_symmetry_Int_Tables_number	1
_symmetry_cell_setting	triclinic
loop_
_symmetry_equiv_pos_as_xyz
  x,y,z
_cell_length_a	15.625950
_cell_length_b	14.519731
_cell_length_c	14.750779
_cell_angle_alpha	77.331756
_cell_angle_beta	120.090508
_cell_angle_gamma	83.980850
loop_
_atom_site_label
_atom_site_type_symbol
_atom_site_fract_x
_atom_site_fract_y
_atom_site_fract_z
O1	O	1.286263	0.028421	0.367765
O2	O	0.999417	0.067734	0.267946
O3	O	1.150437	-0.086825	0.320508
O4	O	1.135244	0.182981	0.315203
O5	O	1.193129	-0.130513	0.495017
O6	O	1.042109	0.024047	0.442455
O7	O	1.328955	-0.015266	0.542274
Zn8	Zn	1.192310	-0.002546	0.520072
Zn9	Zn	1.136062	0.055014	0.290149
O10	O	1.177935	0.139294	0.489712
C11	C	0.984052	0.048436	0.342426
C12	C	0.874666	0.056011	0.304361
C13	C	0.631137	-0.038066	0.654665
C14	C	0.528338	-0.030918	0.618848
C15	C	0.481848	0.016705	0.428624
C16	C	0.584645	0.009566	0.464425
C17	C	0.659283	-0.017821	0.577447
C18	C	0.612791	0.029811	0.387206
C19	C	0.715580	0.022667	0.423004
C20	C	0.790223	-0.004722	0.536022
C21	C	0.762072	-0.024965	0.613245
C22	C	0.538153	0.057191	0.274184
C23	C	0.566298	0.077436	0.196966
C24	C	0.669088	0.070299	0.232764
C25	C	0.743731	0.042910	0.345781
C26	C	0.697239	0.090542	0.155540
C27	C	0.800028	0.083398	0.191339
C28	C	0.846520	0.035766	0.381580
C29	C	1.171071	-0.142967	0.407515
C30	C	1.168939	-0.245161	0.406773
C31	C	1.167205	-0.328153	0.406168
C32	C	1.165038	-0.432270	0.405407
C33	C	1.163318	-0.515257	0.404802
C34	C	1.161151	-0.619382	0.404042
C35	C	1.344319	0.004032	0.467792
C36	C	1.453704	-0.003540	0.505850
C37	C	1.157301	0.195435	0.402703
C38	C	1.159431	0.297631	0.403438
N39	N	1.230705	-0.041831	0.676990
N40	N	1.097675	0.094291	0.133233
C41	C	0.990444	0.203967	0.945187
C42	C	1.017356	0.176444	1.055053
C43	C	1.151111	0.039625	1.101568
C44	C	1.124207	0.067134	0.991703
C45	C	1.043874	0.149306	0.913521
C46	C	1.177637	0.012473	0.960037
C47	C	1.150738	0.039983	0.850183
C48	C	1.070410	0.122153	0.771995
C49	C	1.016975	0.176816	0.803666
C50	C	1.257975	-0.069695	1.038223
C51	C	1.311405	-0.124356	1.006557
C52	C	1.284502	-0.096850	0.896699
C53	C	1.204174	-0.014680	0.818511
C54	C	1.337937	-0.151513	0.865027
C55	C	1.311038	-0.124003	0.755173
C56	C	1.177275	0.012830	0.708657
H57	H	0.873920	-0.010539	0.565167
F58	F	0.931464	0.264266	0.720451
F59	F	0.904933	0.291418	0.861972
H60	H	0.822943	0.099888	0.128459
H61	H	0.822845	-0.047252	0.705279
H62	H	1.048513	0.144553	0.682546
H63	H	1.279876	-0.092087	1.127673
F64	F	0.960481	0.234633	1.088744
F65	F	1.396903	-0.211805	1.089773
H66	H	1.216522	-0.027278	1.165237
F67	F	1.423441	-0.238957	0.948248
H68	H	0.421066	0.038999	0.336601
F69	F	0.925960	0.006628	0.501871
H70	H	1.354548	-0.168514	0.729392
H71	H	0.691911	-0.060353	0.746699
H72	H	0.454456	0.063011	0.245040
H73	H	0.505516	0.099730	0.104943
F74	F	0.498391	-0.052481	0.701045
H75	H	1.111852	0.079737	0.644993
F76	F	0.617798	0.119656	0.035259
