data_functionalizedCrystal
_audit_creation_method	'MofGen! by Chris Wilmer'
_symmetry_space_group_name_H-M	'P1'
_symmetry_Int_Tables_number	1
_symmetry_cell_setting	triclinic
loop_
_symmetry_equiv_pos_as_xyz
  x,y,z
_cell_length_a	14.519709
_cell_length_b	14.971486
_cell_length_c	13.448316
_cell_angle_alpha	90.000041
_cell_angle_beta	90.003630
_cell_angle_gamma	96.352863
loop_
_atom_site_label
_atom_site_type_symbol
_atom_site_fract_x
_atom_site_fract_y
_atom_site_fract_z
O1	O	0.120179	-1.187013	0.082580
O2	O	0.134571	-0.926621	0.082607
O3	O	-0.006868	-1.063721	0.082584
O4	O	0.261618	-1.049913	0.082603
O5	O	-0.006866	-1.063707	-0.082800
O6	O	0.134572	-0.926607	-0.082777
O7	O	0.120180	-1.187000	-0.082804
Cu8	Cu	0.127376	-1.056802	-0.097891
Cu9	Cu	0.127375	-1.056818	0.097694
O10	O	0.261619	-1.049900	-0.082781
C11	C	-0.041226	-1.063071	-0.000108
C12	C	-0.143606	-1.061142	-0.000109
C13	C	0.133928	-0.893289	-0.000082
C14	C	0.131999	-0.793991	-0.000071
C15	C	0.120823	-1.220331	-0.000113
C16	C	0.122752	-1.319630	-0.000117
C17	C	-0.518498	-1.054043	-0.000082
C18	C	-0.414191	-1.056015	-0.000090
C19	C	-0.331055	-1.057593	-0.000096
C20	C	-0.226742	-1.059564	-0.000102
C21	C	0.295978	-1.050550	-0.000087
C22	C	0.398358	-1.052478	-0.000080
N23	N	0.127377	-1.056798	-0.235456
C24	C	0.215091	-0.736812	-0.000067
C25	C	0.213273	-0.643512	-0.000082
C26	C	0.128363	-0.607392	-0.000094
C27	C	0.045265	-0.664578	-0.000102
C28	C	0.047084	-0.757876	-0.000094
C29	C	0.041480	-0.470113	-0.000116
C30	C	0.039661	-0.376808	-0.000122
C31	C	0.207669	-0.355749	-0.000104
C32	C	0.209488	-0.449047	-0.000096
C33	C	0.126390	-0.506227	-0.000101
C34	C	0.071339	-1.002496	-0.712701
C35	C	0.071337	-1.002493	-0.608598
C36	C	0.127367	-1.056820	-0.556537
C37	C	0.183397	-1.111160	-0.608584
C38	C	0.183394	-1.111167	-0.712686
C39	C	0.183400	-1.111139	-0.391604
C40	C	0.183405	-1.111131	-0.287496
C41	C	0.071343	-1.002466	-0.287517
C42	C	0.071340	-1.002473	-0.391618
C43	C	0.127371	-1.056812	-0.443658
N44	N	0.127367	-1.056830	0.235258
H45	H	0.284234	-0.766213	-0.000056
H46	H	-0.020578	-0.804431	-0.000097
H47	H	0.229033	-1.155366	-0.245110
C48	C	0.297823	-0.293569	0.000056
C49	C	0.301671	-0.239369	0.085124
C50	C	0.384698	-0.182068	0.085306
H51	H	0.348727	-0.328334	0.000122
H52	H	0.300622	-0.256687	-0.057591
H53	H	0.298882	-0.276247	0.142756
H54	H	0.250787	-0.204586	0.085076
H55	H	0.387497	-0.145186	0.027659
H56	H	0.435595	-0.216840	0.085369
H57	H	0.387316	-0.145281	0.143019
C58	C	0.303588	-0.581581	-0.000025
C59	C	0.378337	-0.633183	0.000020
C60	C	0.461552	-0.576163	0.000083
H61	H	0.306507	-0.544734	-0.057687
H62	H	0.306419	-0.544754	0.057667
H63	H	0.375507	-0.669994	-0.057666
H64	H	0.375449	-0.670028	0.057678
H65	H	0.464383	-0.539336	0.057775
H66	H	0.464462	-0.539319	-0.057580
H67	H	0.512279	-0.611166	0.000123
C68	C	0.010628	-0.943306	-0.231086
C69	C	0.035941	-0.853222	-0.256406
C70	C	-0.019954	-0.798692	-0.204432
H71	H	-0.052471	-0.959707	-0.248113
H72	H	0.018654	-0.951014	-0.161619
H73	H	0.027907	-0.845519	-0.325857
H74	H	0.099030	-0.836793	-0.239376
H75	H	-0.011928	-0.806400	-0.134965
H76	H	-0.083050	-0.815101	-0.221463
H77	H	-0.002781	-0.737564	-0.221598
H78	H	0.278629	-0.478453	-0.000076
C79	C	-0.046897	-0.625313	0.000090
C80	C	-0.052860	-0.572381	0.085186
C81	C	-0.137753	-0.536208	0.085406
H82	H	-0.051189	-0.589295	-0.057517
H83	H	-0.096152	-0.672706	0.000140
H84	H	-0.003619	-0.524995	0.085126
H85	H	-0.048585	-0.608379	0.142807
H86	H	-0.187008	-0.583601	0.085457
H87	H	-0.142037	-0.500194	0.027796
H88	H	-0.141814	-0.500297	0.143147
C89	C	0.010479	-0.943402	-0.552277
C90	C	-0.038567	-0.895805	-0.620152
C91	C	-0.094632	-0.841351	-0.568306
H92	H	-0.031980	-0.979889	-0.511665
H93	H	0.048184	-0.902248	-0.511689
H94	H	-0.076269	-0.936954	-0.660723
H95	H	0.003869	-0.859301	-0.660766
H96	H	-0.056926	-0.800197	-0.527717
H97	H	-0.137085	-0.877845	-0.527695
H98	H	-0.127909	-0.809044	-0.614350
C99	C	0.244333	-1.170165	-0.447927
C100	C	0.293424	-1.217722	-0.380056
C101	C	0.349574	-1.272090	-0.431904
H102	H	0.206711	-1.211348	-0.488540
H103	H	0.286760	-1.133595	-0.488517
H104	H	0.251002	-1.254288	-0.339484
H105	H	0.331063	-1.176561	-0.339441
H106	H	0.392001	-1.235521	-0.472494
H107	H	0.311945	-1.313268	-0.472515
H108	H	0.382895	-1.304358	-0.385862
H109	H	0.229013	-1.155398	-0.566188
C110	C	-0.052591	-0.337708	0.000014
C111	C	-0.102851	-0.366767	0.085078
C112	C	-0.187841	-0.330774	0.085230
H113	H	-0.041896	-0.273956	0.000065
H114	H	-0.086854	-0.357347	-0.057636
H115	H	-0.068595	-0.347122	0.142712
H116	H	-0.113570	-0.430514	0.085044
H117	H	-0.222104	-0.350414	0.027580
H118	H	-0.177137	-0.267024	0.085279
H119	H	-0.221956	-0.350492	0.142940
C120	C	0.244325	-1.170187	-0.769011
C121	C	0.293413	-1.217746	-0.701139
C122	C	0.349558	-1.272120	-0.752988
H123	H	0.206699	-1.211370	-0.809621
H124	H	0.286753	-1.133621	-0.809602
H125	H	0.250991	-1.254309	-0.660565
H126	H	0.331057	-1.176586	-0.660527
H127	H	0.391986	-1.235554	-0.793579
H128	H	0.311925	-1.313297	-0.793596
H129	H	0.382878	-1.304389	-0.706945
H130	H	0.025718	-0.958252	-0.755082
H131	H	-0.026188	-0.516667	-0.000122
H132	H	0.025720	-0.958231	-0.434004
