data_functionalizedCrystal
_audit_creation_method	'MofGen! by Chris Wilmer'
_symmetry_space_group_name_H-M	'P1'
_symmetry_Int_Tables_number	1
_symmetry_cell_setting	triclinic
loop_
_symmetry_equiv_pos_as_xyz
  x,y,z
_cell_length_a	6.394984
_cell_length_b	16.109301
_cell_length_c	14.586319
_cell_angle_alpha	90.000787
_cell_angle_beta	89.997741
_cell_angle_gamma	95.021583
loop_
_atom_site_label
_atom_site_type_symbol
_atom_site_fract_x
_atom_site_fract_y
_atom_site_fract_z
O1	O	0.268481	-1.105971	-0.076179
O2	O	0.301893	-0.864262	-0.076193
O3	O	-0.018881	-0.988550	-0.076183
O4	O	0.589254	-0.981683	-0.076189
O5	O	-0.018885	-0.988541	0.076297
O6	O	0.301888	-0.864253	0.076287
O7	O	0.268476	-1.105962	0.076302
Cu8	Cu	0.285182	-0.985107	0.090217
Cu9	Cu	0.285187	-0.985117	-0.090109
O10	O	0.589249	-0.981674	0.076292
C11	C	0.300537	-0.833268	0.000045
C12	C	0.296479	-0.740930	0.000040
C13	C	0.903299	-0.987180	0.000060
C14	C	0.667065	-0.983042	0.000058
C15	C	0.269832	-1.136955	0.000061
C16	C	0.273890	-1.229294	0.000060
N17	N	0.285176	-0.985105	0.217049
N18	N	0.285176	-0.985125	-0.216941
C19	C	0.477385	-0.520571	0.000049
C20	C	0.473556	-0.433811	0.000054
C21	C	0.092969	-0.449659	0.000054
C22	C	0.096800	-0.536418	0.000055
C23	C	0.289014	-0.571872	0.000047
C24	C	0.281354	-0.398352	0.000053
C25	C	0.277202	-0.304282	0.000059
C26	C	0.293168	-0.665948	0.000043
C27	C	0.143185	-1.040159	0.452060
C28	C	0.143180	-1.040161	0.548041
C29	C	0.427174	-0.930065	0.548042
C30	C	0.427167	-0.930060	0.452062
C31	C	0.285175	-0.985111	0.404074
C32	C	0.285177	-0.985119	0.596034
C33	C	0.285173	-0.985121	0.700102
C34	C	0.285177	-0.985108	0.300000
H35	H	0.633898	-0.549435	0.000049
H36	H	0.626947	-0.392045	0.000057
H37	H	0.027564	-1.084984	0.412990
C38	C	0.788738	-0.885019	0.577576
C39	C	0.583258	-0.869555	0.600788
H40	H	0.885098	-0.847657	0.610134
H41	H	0.811457	-0.940734	0.593307
H42	H	0.809020	-0.877138	0.513544
H43	H	0.562971	-0.877442	0.664820
H44	H	0.560531	-0.813827	0.585063
C45	C	0.711419	-0.914988	0.344111
C46	C	0.583261	-0.869549	0.399308
H47	H	0.807767	-0.877630	0.311539
H48	H	0.786578	-0.950373	0.381548
H49	H	0.626822	-0.947765	0.301799
H50	H	0.667857	-0.836776	0.441624
H51	H	0.508096	-0.834149	0.361866
H52	H	-0.063525	-0.420782	0.000066
H53	H	-0.056603	-0.578190	0.000057
H54	H	0.027557	-1.084985	0.587109
