data_functionalizedCrystal
_audit_creation_method	'MofGen! by Chris Wilmer'
_symmetry_space_group_name_H-M	'P1'
_symmetry_Int_Tables_number	1
_symmetry_cell_setting	triclinic
loop_
_symmetry_equiv_pos_as_xyz
  x,y,z
_cell_length_a	10.540510
_cell_length_b	15.995292
_cell_length_c	9.616153
_cell_angle_alpha	90.000932
_cell_angle_beta	89.992871
_cell_angle_gamma	83.990964
loop_
_atom_site_label
_atom_site_type_symbol
_atom_site_fract_x
_atom_site_fract_y
_atom_site_fract_z
O1	O	1.684257	0.117879	-0.115643
O2	O	1.314682	0.129023	-0.115643
O3	O	1.509610	0.001620	-0.115646
O4	O	1.489328	0.245282	-0.115641
O5	O	1.509584	0.001622	0.115646
O6	O	1.314656	0.129025	0.115648
O7	O	1.684230	0.117881	0.115648
Zn8	Zn	1.499439	0.123454	0.152371
Zn9	Zn	1.499474	0.123450	-0.152366
O10	O	1.489302	0.245284	0.115650
C11	C	1.267377	0.128194	0.000002
C12	C	1.126462	0.125709	0.000002
C13	C	0.907762	0.214215	-0.000528
C14	C	1.054320	0.216866	0.000002
C15	C	1.082343	0.079047	0.132077
C16	C	0.935610	0.077043	0.132179
C17	C	0.935861	0.075141	-0.130843
C18	C	1.082142	0.079465	-0.132580
C19	C	1.508772	-0.029579	-0.000003
C20	C	1.506297	-0.122547	-0.000014
C21	C	1.497199	-0.460339	-0.000001
C22	C	1.637893	-0.436196	0.000516
C23	C	1.640567	-0.339504	-0.000011
C24	C	1.501713	-0.292757	-0.000007
C25	C	1.431388	-0.322275	-0.132081
C26	C	1.429695	-0.419075	-0.132187
C27	C	1.426791	-0.418946	0.130835
C28	C	1.432005	-0.322423	0.132576
C29	C	1.504257	-0.198045	-0.000014
C30	C	1.494651	-0.555050	-0.000003
C31	C	1.731535	0.118711	-0.000001
C32	C	1.872450	0.121195	-0.000009
C33	C	1.490141	0.276484	0.000005
C34	C	1.492615	0.369451	0.000006
N35	N	1.499424	0.123456	0.360345
N36	N	1.499499	0.123442	-0.360340
C37	C	1.394838	0.191379	0.580716
C38	C	1.395062	0.191634	0.419549
C39	C	1.631870	0.143322	0.418795
C40	C	1.631298	0.143803	0.580013
C41	C	1.472889	0.035443	0.580255
C42	C	1.469834	0.036014	0.419028
H43	H	0.892920	0.103887	-0.230949
F44	F	1.122058	0.121405	0.260554
H45	H	1.471087	-0.446772	0.230947
F46	F	1.265742	0.175988	0.631417
F47	F	1.092024	0.264584	-0.123747
H48	H	1.711602	0.095191	0.380442
F49	F	1.493390	-0.453755	-0.261230
F50	F	1.416748	0.276235	0.633628
F51	F	1.498928	-0.297754	0.260290
F52	F	1.294864	-0.438894	-0.140025
H53	H	1.329211	-0.291011	-0.136988
F54	F	1.417217	0.276977	0.369117
F55	F	1.495249	-0.295683	-0.260558
F56	F	1.299530	-0.280115	0.143008
H57	H	1.692112	-0.463871	0.095232
H58	H	1.110294	0.113416	-0.230288
F59	F	1.661951	0.227718	0.629149
F60	F	1.147493	-0.007526	-0.143005
F61	F	1.663251	0.226289	0.366005
H62	H	1.323230	-0.433549	0.131728
H63	H	1.296612	0.179681	0.380033
F64	F	0.882439	0.118729	0.261221
H65	H	1.695645	-0.320152	0.094663
H66	H	1.711610	0.096314	0.619000
F67	F	1.145505	-0.008671	0.138494
F68	F	1.708400	-0.473707	-0.122590
H69	H	1.372406	0.020955	0.380828
F70	F	1.713007	-0.315017	-0.123978
H71	H	1.378417	0.016533	0.620992
H72	H	1.541107	-0.016970	0.378732
F73	F	0.906801	-0.012069	0.140082
H74	H	0.914669	0.006701	-0.131737
H75	H	0.865320	0.249728	-0.095247
F76	F	1.090764	0.264867	0.123966
F77	F	0.850231	0.260372	0.122572
F78	F	1.572648	-0.030651	0.630074
