data_functionalizedCrystal
_audit_creation_method	'MofGen! by Chris Wilmer'
_symmetry_space_group_name_H-M	'P1'
_symmetry_Int_Tables_number	1
_symmetry_cell_setting	triclinic
loop_
_symmetry_equiv_pos_as_xyz
  x,y,z
_cell_length_a	14.044220
_cell_length_b	10.654550
_cell_length_c	9.130313
_cell_angle_alpha	89.999890
_cell_angle_beta	90.004466
_cell_angle_gamma	88.836890
loop_
_atom_site_label
_atom_site_type_symbol
_atom_site_fract_x
_atom_site_fract_y
_atom_site_fract_z
O1	O	1.259693	0.302980	-0.121637
O2	O	0.983652	0.292047	-0.121674
O3	O	1.128019	0.115412	-0.121649
O4	O	1.115326	0.479615	-0.121662
O5	O	1.128017	0.115417	0.121950
O6	O	0.983650	0.292052	0.121925
O7	O	1.259691	0.302985	0.121962
Cu8	Cu	1.121671	0.297519	0.144186
Cu9	Cu	1.121673	0.297513	-0.143898
O10	O	1.115324	0.479620	0.121937
C11	C	1.127086	0.068523	0.000149
C12	C	1.124298	-0.071201	0.000143
C13	C	0.948305	0.287263	0.000121
C14	C	0.842986	0.272988	0.000106
C15	C	1.209299	-0.142144	0.000159
C16	C	1.206673	-0.273429	0.000148
C17	C	1.034038	-0.262814	0.000112
C18	C	1.036664	-0.131532	0.000112
C19	C	1.296932	-0.081813	0.000190
C20	C	1.381941	-0.152758	0.000207
C21	C	1.379315	-0.284043	0.000197
C22	C	1.291681	-0.344383	0.000169
C23	C	0.650153	0.246889	0.000136
C24	C	0.593185	0.348137	0.000139
C25	C	0.485886	0.333615	0.000156
C26	C	0.757461	0.261409	0.000120
C27	C	1.295038	0.307769	0.000164
C28	C	1.400358	0.322044	0.000169
C29	C	1.116257	0.526509	0.000136
C30	C	1.119045	0.666233	0.000132
N31	N	1.121676	0.297523	0.346809
N32	N	1.121675	0.297500	-0.346520
C33	C	1.185618	0.219340	0.423472
C34	C	1.185616	0.219324	0.576808
C35	C	1.057725	0.375686	0.576806
C36	C	1.057724	0.375694	0.423472
C37	C	1.249570	0.141169	0.346809
C38	C	1.313518	0.062980	0.423472
C39	C	1.313516	0.062965	0.576809
C40	C	1.249565	0.141138	0.653482
H41	H	1.299080	0.025085	0.000203
H42	H	1.289550	-0.451284	0.000144
F43	F	0.608574	0.119343	0.000145
F44	F	0.634763	0.475692	0.000128
H45	H	1.453289	-0.103620	0.000194
H46	H	1.365579	-0.000708	0.639226
H47	H	1.249580	0.141177	0.221954
F48	F	1.381568	-0.020223	0.341870
F49	F	1.469786	-0.359543	0.000200
F50	F	0.989671	0.458881	0.658411
H51	H	1.249562	0.141110	0.778340
H52	H	0.962690	-0.311954	0.000091
F53	F	0.989666	0.458904	0.341880
H54	H	0.967449	-0.073767	0.000101
