data_functionalizedCrystal
_audit_creation_method	'MofGen! by Chris Wilmer'
_symmetry_space_group_name_H-M	'P1'
_symmetry_Int_Tables_number	1
_symmetry_cell_setting	triclinic
loop_
_symmetry_equiv_pos_as_xyz
  x,y,z
_cell_length_a	16.109302
_cell_length_b	10.654551
_cell_length_c	15.186229
_cell_angle_alpha	89.999082
_cell_angle_beta	89.994701
_cell_angle_gamma	83.973571
loop_
_atom_site_label
_atom_site_type_symbol
_atom_site_fract_x
_atom_site_fract_y
_atom_site_fract_z
O1	O	1.104090	0.161423	-0.073263
O2	O	0.862148	0.181511	-0.073255
O3	O	0.988681	-0.011348	-0.073259
O4	O	0.977557	0.354281	-0.073258
O5	O	0.988673	-0.011350	0.073198
O6	O	0.862139	0.181508	0.073202
O7	O	1.104082	0.161420	0.073195
Zn8	Zn	0.983109	0.171464	0.096452
Zn9	Zn	0.983121	0.171467	-0.096512
O10	O	0.977548	0.354279	0.073199
C11	C	0.831164	0.180695	-0.000025
C12	C	0.738854	0.178255	-0.000023
C13	C	0.526475	0.172612	0.079802
C14	C	0.439741	0.170306	0.079799
C15	C	0.439761	0.170315	-0.079877
C16	C	0.526494	0.172612	-0.079873
C17	C	0.569848	0.173767	-0.000031
C18	C	0.396382	0.169164	-0.000038
C19	C	0.302341	0.166664	-0.000042
C20	C	0.663895	0.176265	-0.000026
C21	C	0.987860	-0.058136	-0.000033
C22	C	0.985416	-0.197546	-0.000039
C23	C	0.984274	-0.263041	-0.079871
C24	C	0.981970	-0.394030	-0.079867
C25	C	0.981954	-0.394018	0.079809
C26	C	0.984252	-0.263030	0.079804
C27	C	0.985438	-0.197556	-0.159713
C28	C	0.984297	-0.263052	-0.239552
C29	C	0.981993	-0.394041	-0.239548
C30	C	0.980830	-0.459535	-0.159705
C31	C	1.135066	0.162236	-0.000037
C32	C	1.227376	0.164676	-0.000045
C33	C	0.978370	0.401067	-0.000030
C34	C	0.980814	0.540477	-0.000029
N35	N	0.983108	0.171460	0.228144
N36	N	0.983129	0.171461	-0.228205
C37	C	1.039156	0.086092	0.453865
C38	C	1.039159	0.086089	0.546055
C39	C	0.927074	0.256834	0.546068
C40	C	0.927068	0.256830	0.453880
C41	C	0.983114	0.171460	0.407781
C42	C	0.983122	0.171461	0.592159
C43	C	0.983125	0.171458	0.692115
C44	C	0.983111	0.171461	0.307819
H45	H	0.561772	0.173552	0.144815
O46	O	0.397733	0.169247	0.157428
C47	C	0.406877	0.169411	0.315804
C48	C	0.454552	0.170645	0.227950
H49	H	0.452797	0.170514	0.372844
H50	H	0.359186	0.256187	0.319857
H51	H	0.373353	0.080519	0.319746
H52	H	0.488126	0.259479	0.223949
H53	H	0.502196	0.083809	0.223935
H54	H	0.985164	-0.209700	0.144810
O55	O	0.872720	0.339718	0.590987
C56	C	0.823024	0.415354	0.733012
C57	C	0.884637	0.321435	0.682255
H58	H	0.832626	0.400587	0.806812
H59	H	0.834437	0.515971	0.714944
H60	H	0.756349	0.398975	0.714848
H61	H	0.951336	0.337698	0.700393
H62	H	0.873151	0.220850	0.700327
O63	O	0.397701	0.168989	-0.157455
C64	C	0.380008	0.059626	-0.293965
C65	C	0.427688	0.060947	-0.206128
H66	H	0.404246	-0.027704	-0.333350
H67	H	0.310562	0.057711	-0.280312
H68	H	0.389955	0.147957	-0.333288
H69	H	0.417809	-0.027368	-0.166761
H70	H	0.497117	0.062927	-0.219843
O71	O	0.568577	0.173960	-0.157450
C72	C	0.586312	0.283362	-0.293942
C73	C	0.538602	0.282013	-0.206115
H74	H	0.562084	0.370700	-0.333320
H75	H	0.655752	0.285278	-0.280274
H76	H	0.576381	0.195039	-0.333279
H77	H	0.548465	0.370318	-0.166734
H78	H	0.469179	0.280031	-0.219844
O79	O	0.872596	0.339884	0.409244
C80	C	0.761389	0.509189	0.418978
C81	C	0.823046	0.415229	0.469637
H82	H	0.721300	0.570111	0.467783
H83	H	0.797598	0.572024	0.375831
H84	H	0.719582	0.454919	0.375804
H85	H	0.864868	0.469395	0.512859
H86	H	0.786785	0.352394	0.512728
H87	H	1.084791	0.016577	0.416334
H88	H	0.985236	-0.209716	-0.304557
H89	H	0.981055	-0.447362	-0.304557
O90	O	0.980715	-0.457750	0.157308
C91	C	0.906189	-0.591314	0.250006
C92	C	0.907493	-0.519223	0.162197
H93	H	0.846987	-0.641012	0.253995
H94	H	0.963154	-0.664232	0.254013
H95	H	0.907440	-0.521983	0.307049
H96	H	0.906214	-0.588458	0.105103
H97	H	0.850534	-0.446287	0.158266
H98	H	0.978942	-0.566192	-0.159708
H99	H	0.987316	-0.090899	-0.159726
H100	H	1.084792	0.016573	0.583574
