data_functionalizedCrystal
_audit_creation_method	'MofGen! by Chris Wilmer'
_symmetry_space_group_name_H-M	'P1'
_symmetry_Int_Tables_number	1
_symmetry_cell_setting	triclinic
loop_
_symmetry_equiv_pos_as_xyz
  x,y,z
_cell_length_a	18.101398
_cell_length_b	18.101395
_cell_length_c	18.101390
_cell_angle_alpha	89.968664
_cell_angle_beta	89.975319
_cell_angle_gamma	90.026371
loop_
_atom_site_label
_atom_site_type_symbol
_atom_site_fract_x
_atom_site_fract_y
_atom_site_fract_z
Zn1	Zn	1.132124	-0.294895	-0.418847
Zn2	Zn	1.132019	-0.418752	-0.295009
Zn3	Zn	1.008282	-0.294918	-0.295008
Zn4	Zn	1.008233	-0.418689	-0.418797
O5	O	1.070164	-0.356813	-0.356915
O6	O	1.235743	-0.311341	-0.402441
O7	O	1.115581	-0.402361	-0.191376
O8	O	1.024774	-0.191282	-0.311456
O9	O	1.235666	-0.402338	-0.311457
O10	O	1.115760	-0.191265	-0.402440
O11	O	1.024672	-0.311381	-0.191375
O12	O	0.904642	-0.311320	-0.311408
O13	O	1.024691	-0.402231	-0.522437
O14	O	0.904607	-0.402254	-0.402355
O15	O	1.115713	-0.311280	-0.522473
O16	O	1.115534	-0.522376	-0.311409
O17	O	1.024590	-0.522330	-0.402356
C18	C	0.877754	-0.356783	-0.356877
C19	C	0.795440	-0.356788	-0.356878
C20	C	1.070065	-0.549224	-0.356893
C21	C	1.070091	-0.631538	-0.356909
C22	C	0.496349	-0.356835	-0.356940
C23	C	0.527672	-0.299336	-0.299997
C24	C	0.613290	-0.299490	-0.299754
C25	C	0.644731	-0.356811	-0.356909
C26	C	0.613613	-0.434824	-0.335587
C27	C	0.527968	-0.434505	-0.335191
C28	C	0.527964	-0.336998	-0.435339
C29	C	0.613615	-0.335261	-0.434911
C30	C	0.728591	-0.356803	-0.356893
C31	C	0.412489	-0.356848	-0.356954
C32	C	1.070253	-0.930629	-0.356949
C33	C	1.013166	-0.899306	-0.414312
C34	C	1.012895	-0.813688	-0.414133
C35	C	1.070172	-0.782247	-0.356930
C36	C	1.049043	-0.813402	-0.278878
C37	C	1.048675	-0.899047	-0.279221
C38	C	1.148595	-0.898978	-0.376950
C39	C	1.148134	-0.813327	-0.378661
C40	C	1.070128	-0.698387	-0.356914
C41	C	1.070296	-1.014488	-0.356959
C42	C	1.263326	-0.356844	-0.356954
C43	C	1.345640	-0.356857	-0.356971
C44	C	1.070208	-0.356746	-0.550077
C45	C	1.070227	-0.356717	-0.632391
C46	C	1.070284	-0.163652	-0.356953
C47	C	1.070335	-0.081337	-0.356970
C48	C	1.070267	-0.356671	-0.931483
C49	C	1.127724	-0.299648	-0.900180
C50	C	1.127545	-0.299437	-0.814562
C51	C	1.070248	-0.356694	-0.783100
C52	C	0.992231	-0.335484	-0.814166
C53	C	0.992575	-0.335057	-0.899811
C54	C	1.090140	-0.435050	-0.899899
C55	C	1.091852	-0.434650	-0.814249
C56	C	1.070232	-0.356708	-0.699240
C57	C	1.070278	-0.356655	-1.015342
C58	C	1.070163	-0.356827	-0.164505
C59	C	1.070288	-0.356648	-0.082191
H60	H	0.634330	-0.241640	-0.313119
H61	H	1.167859	-0.920523	-0.432895
H62	H	0.633959	-0.277852	-0.450989
H63	H	0.635020	-0.374088	-0.479611
C64	C	0.972494	-0.784518	-0.255578
C65	C	0.939344	-0.807450	-0.180630
C66	C	0.862794	-0.778569	-0.157335
C67	C	0.819394	-0.726755	-0.208988
C68	C	0.852544	-0.703821	-0.283941
C69	C	0.929094	-0.732702	-0.307236
H70	H	0.971472	-0.845808	-0.142389
H71	H	0.838255	-0.795547	-0.101849
H72	H	0.762727	-0.705375	-0.191743
H73	H	0.820416	-0.665463	-0.322182
H74	H	0.953633	-0.715724	-0.362722
H75	H	1.026255	-0.919850	-0.472374
C76	C	0.500605	-0.393574	-0.492658
C77	C	0.449831	-0.457459	-0.468494
C78	C	0.422471	-0.514039	-0.525806
C79	C	0.445883	-0.506734	-0.607281
C80	C	0.496659	-0.442847	-0.631450
C81	C	0.524020	-0.386267	-0.574138
H82	H	0.432497	-0.462868	-0.408177
H83	H	0.384883	-0.561332	-0.507914
H84	H	0.425629	-0.548618	-0.649707
H85	H	0.513993	-0.437437	-0.691766
H86	H	0.561608	-0.338973	-0.592029
H87	H	1.114736	-0.241908	-0.921715
H88	H	1.149265	-0.450643	-0.793944
C89	C	1.169673	-0.785817	-0.456260
C90	C	1.239984	-0.739074	-0.466887
C91	C	1.261521	-0.711563	-0.544486
C92	C	1.212747	-0.730796	-0.611458
C93	C	1.142431	-0.777541	-0.600832
C94	C	1.120894	-0.805052	-0.523233
H95	H	1.276093	-0.724835	-0.417309
H96	H	1.313574	-0.676959	-0.552352
H97	H	1.228690	-0.710431	-0.668901
H98	H	1.106321	-0.791780	-0.650410
H99	H	1.068841	-0.839656	-0.515368
C100	C	0.642533	-0.457946	-0.258994
C101	C	0.694343	-0.406182	-0.215732
C102	C	0.723261	-0.429299	-0.139137
C103	C	0.700369	-0.504180	-0.105804
C104	C	0.648556	-0.555949	-0.149067
C105	C	0.619638	-0.532832	-0.225661
H106	H	0.711292	-0.350746	-0.240406
H107	H	0.761617	-0.390976	-0.107112
H108	H	0.721776	-0.521293	-0.049105
H109	H	0.631608	-0.611385	-0.124392
H110	H	0.581283	-0.571155	-0.257687
H111	H	1.192917	-0.791921	-0.339927
C112	C	0.641128	-0.494257	-0.389854
C113	C	0.687130	-0.559869	-0.361317
C114	C	0.714648	-0.619300	-0.415585
C115	C	0.696164	-0.613118	-0.498390
C116	C	0.650160	-0.547503	-0.526931
C117	C	0.622642	-0.488072	-0.472663
H118	H	0.700815	-0.564447	-0.300016
H119	H	0.748703	-0.667872	-0.394457
H120	H	0.716534	-0.657112	-0.538562
H121	H	0.636475	-0.542925	-0.588231
H122	H	0.588587	-0.439500	-0.493791
C123	C	0.498824	-0.261485	-0.461533
C124	C	0.445939	-0.216866	-0.412063
C125	C	0.416798	-0.141351	-0.438249
C126	C	0.440542	-0.110454	-0.513904
C127	C	0.493430	-0.155074	-0.563379
C128	C	0.522572	-0.230589	-0.537193
H129	H	0.428360	-0.239737	-0.356055
H130	H	0.377646	-0.108321	-0.401624
H131	H	0.418970	-0.054553	-0.533288
H132	H	0.511010	-0.132203	-0.619388
H133	H	0.561723	-0.263619	-0.573818
C134	C	1.206134	-0.317363	-0.928026
C135	C	1.241660	-0.392519	-0.909990
C136	C	1.320071	-0.410236	-0.937844
C137	C	1.362957	-0.352797	-0.983733
C138	C	1.327431	-0.277636	-1.001771
C139	C	1.249019	-0.259919	-0.973918
H140	H	1.209914	-0.435043	-0.876018
H141	H	1.346370	-0.465876	-0.924491
H142	H	1.421001	-0.365912	-1.004352
H143	H	1.359177	-0.235112	-1.035743
H144	H	1.222721	-0.204280	-0.987271
H145	H	1.053046	-0.479420	-0.792829
H146	H	1.048295	-0.477538	-0.920146
H147	H	1.114391	-0.241372	-0.794086
C148	C	1.030738	-0.785238	-0.492325
C149	C	1.099009	-0.736106	-0.505243
C150	C	1.116844	-0.707669	-0.583444
C151	C	1.066408	-0.728365	-0.648727
C152	C	0.998132	-0.777500	-0.635810
C153	C	0.980297	-0.805937	-0.557610
H154	H	1.136350	-0.720783	-0.456915
H155	H	1.167387	-0.671296	-0.593005
H156	H	1.079610	-0.707314	-0.706615
H157	H	0.960792	-0.792822	-0.684138
H158	H	0.929754	-0.842310	-0.548049
C159	C	0.500926	-0.457224	-0.257765
C160	C	0.557261	-0.475531	-0.196724
C161	C	0.530224	-0.498249	-0.119296
C162	C	0.446852	-0.502659	-0.102908
C163	C	0.390512	-0.484351	-0.163949
C164	C	0.417549	-0.461634	-0.241378
H165	H	0.618983	-0.472267	-0.208855
H166	H	0.571931	-0.511801	-0.074109
H167	H	0.426837	-0.519476	-0.045590
H168	H	0.328790	-0.487616	-0.151819
H169	H	0.375842	-0.448081	-0.286565
H170	H	0.955450	-0.920888	-0.401230
C171	C	0.969821	-0.257656	-0.926820
C172	C	0.951463	-0.196666	-0.870459
C173	C	0.928710	-0.119263	-0.897464
C174	C	0.924315	-0.102851	-0.980829
C175	C	0.942674	-0.163843	-1.037195
C176	C	0.965426	-0.241246	-1.010191
H177	H	0.954716	-0.208813	-0.808742
H178	H	0.915120	-0.074112	-0.855737
H179	H	0.907472	-0.045553	-1.000819
H180	H	0.939421	-0.151696	-1.098912
H181	H	0.979016	-0.286397	-1.051917
H182	H	0.954826	-0.793261	-0.400884
C183	C	0.971311	-0.926125	-0.256339
C184	C	0.954961	-1.009505	-0.251916
C185	C	0.877594	-1.036579	-0.229035
C186	C	0.816578	-0.980273	-0.210576
C187	C	0.832927	-0.896889	-0.214999
C188	C	0.910293	-0.869814	-0.237880
H189	H	1.000130	-1.051190	-0.265581
H190	H	0.865492	-1.098306	-0.225762
H191	H	0.759307	-1.000315	-0.193638
H192	H	0.787757	-0.855203	-0.201334
H193	H	0.922395	-0.808087	-0.241153
H194	H	1.191127	-0.919234	-0.335170
C195	C	1.205707	-0.317333	-0.786182
C196	C	1.220860	-0.320622	-0.702540
C197	C	1.299030	-0.338498	-0.674165
C198	C	1.362048	-0.353086	-0.729433
C199	C	1.346898	-0.349798	-0.813080
C200	C	1.268727	-0.331922	-0.841455
H201	H	1.174208	-0.309822	-0.661623
H202	H	1.310246	-0.340932	-0.612243
H203	H	1.419915	-0.366319	-0.708428
H204	H	1.393549	-0.360597	-0.853998
H205	H	1.257512	-0.329488	-0.903377
H206	H	1.088451	-0.919770	-0.235023
C207	C	1.103441	-0.785892	-0.219558
C208	C	1.167836	-0.734697	-0.241353
C209	C	1.222235	-0.707186	-0.182034
C210	C	1.212239	-0.730872	-0.100920
C211	C	1.147841	-0.782070	-0.079122
C212	C	1.093442	-0.809580	-0.138440
H213	H	1.175239	-0.717161	-0.301402
H214	H	1.269907	-0.669286	-0.198171
H215	H	1.252508	-0.710507	-0.057009
H216	H	1.140438	-0.799606	-0.019073
H217	H	1.045770	-0.847481	-0.122303
H218	H	0.948309	-0.374782	-0.920516
C219	C	0.932823	-0.389858	-0.786631
C220	C	0.918573	-0.398705	-0.703217
C221	C	0.859166	-0.453080	-0.675681
C222	C	0.814009	-0.498607	-0.731560
C223	C	0.828258	-0.489761	-0.814979
C224	C	0.887665	-0.435387	-0.842515
H225	H	0.952001	-0.365002	-0.661848
H226	H	0.848618	-0.459628	-0.613928
H227	H	0.770033	-0.538859	-0.711176
H228	H	0.794830	-0.523465	-0.856349
H229	H	0.898213	-0.428838	-0.904268
C230	C	0.499877	-0.220944	-0.317846
C231	C	0.454000	-0.178039	-0.260492
C232	C	0.426198	-0.099647	-0.278343
C233	C	0.444273	-0.064158	-0.353548
C234	C	0.490152	-0.107063	-0.410908
C235	C	0.517955	-0.185456	-0.393057
H236	H	0.440617	-0.204310	-0.204815
H237	H	0.392234	-0.067886	-0.235881
H238	H	0.423692	-0.006127	-0.366763
H239	H	0.503535	-0.080793	-0.466584
H240	H	0.551918	-0.217217	-0.435519
C241	C	0.969057	-0.258939	-0.785213
C242	C	1.020781	-0.215613	-0.733423
C243	C	0.997611	-0.139066	-0.704472
C244	C	0.922717	-0.105844	-0.727311
C245	C	0.870988	-0.149170	-0.779103
C246	C	0.894158	-0.225717	-0.808054
H247	H	1.076226	-0.240206	-0.716514
H248	H	1.035904	-0.106993	-0.666132
H249	H	0.905565	-0.049179	-0.705879
H250	H	0.815543	-0.124577	-0.796012
H251	H	0.855864	-0.257789	-0.846395
C252	C	1.165676	-0.461114	-0.929091
C253	C	1.196609	-0.536729	-0.905384
C254	C	1.272148	-0.562785	-0.934579
C255	C	1.316753	-0.513225	-0.987479
C256	C	1.285820	-0.437605	-1.011189
C257	C	1.210282	-0.411550	-0.981994
H258	H	1.163589	-0.573421	-0.866222
H259	H	1.295046	-0.618764	-0.917027
H260	H	1.372671	-0.532513	-1.009091
H261	H	1.318840	-0.400914	-1.050352
H262	H	1.187383	-0.355571	-0.999546
H263	H	0.633743	-0.312604	-0.241661
H264	H	0.506122	-0.312301	-0.242242
H265	H	0.507246	-0.478797	-0.374857
