data_functionalizedCrystal
_audit_creation_method	'MofGen! by Chris Wilmer'
_symmetry_space_group_name_H-M	'P1'
_symmetry_Int_Tables_number	1
_symmetry_cell_setting	triclinic
loop_
_symmetry_equiv_pos_as_xyz
  x,y,z
_cell_length_a	10.654545
_cell_length_b	11.792254
_cell_length_c	10.868271
_cell_angle_alpha	90.001586
_cell_angle_beta	90.003913
_cell_angle_gamma	84.340838
loop_
_atom_site_label
_atom_site_type_symbol
_atom_site_fract_x
_atom_site_fract_y
_atom_site_fract_z
O1	O	1.667402	0.159389	0.102311
O2	O	1.301881	0.174583	0.102316
O3	O	1.493503	0.001837	0.102304
O4	O	1.475779	0.332135	0.102322
O5	O	1.493486	0.001842	-0.102340
O6	O	1.301863	0.174588	-0.102329
O7	O	1.667385	0.159395	-0.102334
Zn8	Zn	1.484621	0.166992	-0.134823
Zn9	Zn	1.484644	0.166985	0.134805
O10	O	1.475762	0.332141	-0.102323
C11	C	1.255077	0.173471	-0.000006
C12	C	1.115643	0.170137	-0.000004
C13	C	1.050133	0.168570	-0.111557
C14	C	0.919122	0.165418	-0.111557
C15	C	0.919142	0.165404	0.111558
C16	C	1.050151	0.168548	0.111557
C17	C	1.492378	-0.040454	-0.000018
C18	C	1.489036	-0.166474	-0.000016
C19	C	1.486321	-0.268817	-0.000012
C20	C	1.482926	-0.397212	-0.000001
C21	C	1.714188	0.160506	-0.000010
C22	C	1.853623	0.163841	-0.000003
C23	C	1.476887	0.374431	0.000002
C24	C	1.480229	0.500452	0.000009
N25	N	1.484615	0.166997	-0.318837
C26	C	1.484624	0.166997	-0.430175
C27	C	1.484641	0.166987	-0.569852
N28	N	1.484660	0.166972	0.318819
H29	H	0.865790	0.164143	-0.202394
H30	H	0.865803	0.164112	0.202387
H31	H	1.103452	0.169863	-0.202397
C32	C	1.122217	0.170265	0.234280
N33	N	1.176498	0.171553	0.326711
