data_functionalizedCrystal
_audit_creation_method	'MofGen! by Chris Wilmer'
_symmetry_space_group_name_H-M	'P1'
_symmetry_Int_Tables_number	1
_symmetry_cell_setting	triclinic
loop_
_symmetry_equiv_pos_as_xyz
  x,y,z
_cell_length_a	8.497374
_cell_length_b	8.497365
_cell_length_c	12.594517
_cell_angle_alpha	89.965296
_cell_angle_beta	89.995212
_cell_angle_gamma	89.956729
loop_
_atom_site_label
_atom_site_type_symbol
_atom_site_fract_x
_atom_site_fract_y
_atom_site_fract_z
Zn1	Zn	-0.627668	-0.892138	1.627560
Zn2	Zn	-0.891612	-0.628378	1.627474
Zn3	Zn	-0.627839	-0.628355	1.449522
Zn4	Zn	-0.891399	-0.892100	1.449610
O5	O	-0.759630	-0.760242	1.538542
O6	O	-0.662699	-0.857175	1.776494
O7	O	-0.856782	-0.407612	1.603795
O8	O	-0.407054	-0.663352	1.473139
O9	O	-0.856617	-0.663391	1.776431
O10	O	-0.406929	-0.857153	1.603943
O11	O	-0.662989	-0.407595	1.473055
O12	O	-0.662783	-0.663315	1.300588
O13	O	-0.856254	-1.112867	1.473289
O14	O	-0.856420	-0.857088	1.300653
O15	O	-0.662492	-1.112895	1.604028
O16	O	-1.112346	-0.663355	1.603880
O17	O	-1.112190	-0.857110	1.473205
C18	C	-0.759598	-0.760196	1.262001
C19	C	-0.759622	-0.760213	1.143695
C20	C	-0.348149	-0.760250	1.538533
C21	C	-0.169505	-0.760255	1.538533
C22	C	-0.759802	-0.350362	1.538465
C23	C	-0.759478	-0.171719	1.538616
C24	C	-0.654159	-0.655022	1.074376
C25	C	-0.798076	-0.616237	1.003594
C26	C	-0.615776	-0.799025	1.003678
C27	C	-0.903615	-0.721354	1.074471
C28	C	-0.721218	-0.904208	1.074562
C29	C	-0.865234	-0.865478	1.003812
C30	C	-0.759662	-0.760290	1.816162
C31	C	-0.759676	-0.760310	1.934468
H32	H	-0.565060	-0.565955	1.105361
H33	H	-0.830593	-0.494505	0.972424
O34	O	-1.048800	-0.682284	1.111530
C35	C	-1.272755	-0.762114	1.215794
C36	C	-1.108340	-0.806548	1.173917
H37	H	-1.320957	-0.862570	1.266224
H38	H	-1.263995	-0.651053	1.266179
H39	H	-1.355086	-0.739856	1.145907
H40	H	-1.025920	-0.828888	1.243739
H41	H	-1.117224	-0.917566	1.123500
O42	O	-0.470584	-0.837876	0.966527
C43	C	-0.247611	-0.758378	0.861193
C44	C	-0.412014	-0.714185	0.903209
H45	H	-0.200221	-0.658414	0.809974
H46	H	-0.164663	-0.779370	0.930928
H47	H	-0.256289	-0.870138	0.811512
H48	H	-0.403487	-0.602405	0.952874
H49	H	-0.494897	-0.693296	0.833428
H50	H	-0.954546	-0.954477	0.973022
H51	H	-0.688657	-1.025904	1.105758
