data_functionalizedCrystal
_audit_creation_method	'MofGen! by Chris Wilmer'
_symmetry_space_group_name_H-M	'P1'
_symmetry_Int_Tables_number	1
_symmetry_cell_setting	triclinic
loop_
_symmetry_equiv_pos_as_xyz
  x,y,z
_cell_length_a	16.956995
_cell_length_b	15.944551
_cell_length_c	16.053802
_cell_angle_alpha	92.564789
_cell_angle_beta	87.607939
_cell_angle_gamma	79.776605
loop_
_atom_site_label
_atom_site_type_symbol
_atom_site_fract_x
_atom_site_fract_y
_atom_site_fract_z
O1	O	1.061405	0.031039	-0.069487
O2	O	1.394739	0.364372	0.263846
O3	O	1.728072	0.697706	0.597179
O4	O	0.829249	0.060528	-0.069477
O5	O	1.162583	0.393861	0.263856
O6	O	1.495916	0.727194	0.597190
O7	O	0.951667	-0.076932	-0.069475
O8	O	1.285000	0.256402	0.263858
O9	O	1.618333	0.589735	0.597192
O10	O	0.938988	0.168498	-0.069489
O11	O	1.272321	0.501832	0.263844
O12	O	1.605655	0.835165	0.597177
O13	O	0.944929	-0.069395	0.069384
O14	O	1.278262	0.263939	0.402717
O15	O	1.611595	0.597272	0.736051
O16	O	0.822511	0.068065	0.069382
O17	O	1.155844	0.401398	0.402715
O18	O	1.489178	0.734731	0.736049
O19	O	1.054667	0.038576	0.069372
O20	O	1.388001	0.371909	0.402705
O21	O	1.721334	0.705243	0.736038
Zn22	Zn	0.937519	0.054517	0.091424
Zn23	Zn	1.270853	0.387850	0.424757
Zn24	Zn	1.604186	0.721184	0.758090
Zn25	Zn	0.946397	0.044587	-0.091529
Zn26	Zn	1.279731	0.377920	0.241804
Zn27	Zn	1.613064	0.711253	0.575138
O28	O	0.932250	0.176035	0.069369
O29	O	1.265583	0.509369	0.402703
O30	O	1.598917	0.842702	0.736036
C31	C	0.796172	0.065806	-0.000046
C32	C	1.129506	0.399139	0.333287
C33	C	1.462839	0.732473	0.666621
C34	C	0.707652	0.070295	-0.000042
C35	C	1.040985	0.403628	0.333291
C36	C	1.374318	0.736962	0.666625
C37	C	0.208355	0.103874	-0.000075
C38	C	0.541688	0.437207	0.333258
C39	C	0.875022	0.770540	0.666592
C40	C	0.291530	0.099649	-0.000074
C41	C	0.624863	0.432983	0.333259
C42	C	0.958196	0.766316	0.666593
C43	C	0.342613	0.020360	-0.000063
C44	C	0.675947	0.353693	0.333270
C45	C	1.009280	0.687026	0.666604
C46	C	0.310519	-0.054712	-0.000061
C47	C	0.643852	0.278622	0.333272
C48	C	0.977185	0.611955	0.666605
C49	C	0.227345	-0.050487	-0.000068
C50	C	0.560679	0.282846	0.333265
C51	C	0.894012	0.616180	0.666598
C52	C	0.592384	-0.000552	-0.000047
C53	C	0.925717	0.332782	0.333286
C54	C	1.259051	0.666115	0.666620
C55	C	0.675562	-0.004770	-0.000038
C56	C	1.008895	0.328563	0.333296
C57	C	1.342229	0.661896	0.666629
C58	C	0.656568	0.149591	-0.000052
C59	C	0.989901	0.482925	0.333281
C60	C	1.323234	0.816258	0.666615
C61	C	0.573393	0.153809	-0.000054
C62	C	0.906727	0.487142	0.333280
C63	C	1.240060	0.820476	0.666613
C64	C	0.541306	0.078738	-0.000057
C65	C	0.874639	0.412071	0.333277
C66	C	1.207973	0.745405	0.666610
N67	N	0.427632	0.016040	-0.000059
N68	N	0.760965	0.349373	0.333274
N69	N	1.094298	0.682707	0.666607
N70	N	0.456290	0.083058	-0.000066
N71	N	0.789623	0.416391	0.333267
N72	N	1.122956	0.749725	0.666601
C73	C	0.947771	-0.104420	-0.000045
C74	C	1.281105	0.228913	0.333288
C75	C	1.614438	0.562246	0.666621
C76	C	0.946193	-0.197557	-0.000045
C77	C	1.279526	0.135776	0.333289
C78	C	1.612860	0.469110	0.666622
C79	C	0.866542	-0.406879	-0.000053
C80	C	1.199875	-0.073546	0.333281
C81	C	1.533208	0.259787	0.666614
C82	C	0.900207	-0.466751	0.068411
C83	C	1.233540	-0.133417	0.401745
C84	C	1.566874	0.199916	0.735078
C85	C	0.943339	-0.368085	-0.000051
C86	C	1.276672	-0.034751	0.333282
C87	C	1.610005	0.298582	0.666616
C88	C	0.906868	-0.474166	-0.068492
C89	C	1.240202	-0.140833	0.264841
C90	C	1.573535	0.192501	0.598174
C91	C	0.940576	-0.532806	-0.000061
C92	C	1.273909	-0.199473	0.333273
C93	C	1.607242	0.133861	0.666606
C94	C	0.977022	-0.426726	0.068470
C95	C	1.310356	-0.093393	0.401803
C96	C	1.643689	0.239940	0.735136
C97	C	0.983676	-0.434138	-0.068496
C98	C	1.317009	-0.100805	0.264838
C99	C	1.650343	0.232529	0.598171
C100	C	1.017397	-0.493995	-0.000015
C101	C	1.350730	-0.160661	0.333318
C102	C	1.684063	0.172672	0.666652
C103	C	0.944928	-0.273193	-0.000045
C104	C	1.278261	0.060141	0.333289
C105	C	1.611595	0.393474	0.666622
C106	C	0.938992	-0.627697	-0.000061
C107	C	1.272325	-0.294364	0.333272
C108	C	1.605659	0.038970	0.666606
C109	C	1.087744	0.033298	-0.000061
C110	C	1.421078	0.366631	0.333272
C111	C	1.754411	0.699964	0.666606
C112	C	1.176265	0.028808	-0.000071
C113	C	1.509598	0.362142	0.333263
C114	C	1.842932	0.695475	0.666596
C115	C	0.936145	0.203524	-0.000062
C116	C	1.269479	0.536857	0.333271
C117	C	1.602812	0.870191	0.666605
C118	C	0.937724	0.296660	-0.000068
C119	C	1.271057	0.629993	0.333265
C120	C	1.604390	0.963327	0.666599
N121	N	0.931466	0.061293	0.216284
N122	N	1.264800	0.394626	0.549617
N123	N	1.598133	0.727960	0.882950
N124	N	0.952457	0.037803	-0.216389
N125	N	1.285790	0.371137	0.116944
N126	N	1.619123	0.704470	0.450278
C127	C	0.983574	0.002822	0.259979
C128	C	1.316907	0.336156	0.593312
C129	C	1.650241	0.669489	0.926645
C130	C	0.979347	0.007570	0.347385
C131	C	1.312681	0.340903	0.680719
C132	C	1.646014	0.674236	1.014052
C133	C	0.923016	0.070792	0.391096
C134	C	1.256349	0.404126	0.724429
C135	C	1.589683	0.737459	1.057762
C136	C	0.870903	0.129266	0.347395
C137	C	1.204236	0.462599	0.680728
C138	C	1.537569	0.795933	1.014061
C139	C	0.875126	0.124514	0.259990
C140	C	1.208460	0.457848	0.593323
C141	C	1.541793	0.791181	0.926656
C142	C	0.904567	0.091525	0.652505
C143	C	1.237900	0.424859	0.985838
C144	C	1.571234	0.758192	1.319172
C145	C	0.900349	0.096274	0.739916
C146	C	1.233682	0.429608	1.073249
C147	C	1.567016	0.762941	1.406583
C148	C	1.008793	-0.025424	0.739901
C149	C	1.342126	0.307910	1.073234
C150	C	1.675460	0.641243	1.406567
C151	C	1.013015	-0.030167	0.652494
C152	C	1.346348	0.303167	0.985827
C153	C	1.679681	0.636500	1.319161
C154	C	0.960899	0.028304	0.608801
C155	C	1.294232	0.361637	0.942134
C156	C	1.627565	0.694971	1.275467
N157	N	0.918696	0.075648	0.480439
N158	N	1.252029	0.408982	0.813773
N159	N	1.585363	0.742315	1.147106
N160	N	0.965216	0.023444	0.519459
N161	N	1.298549	0.356777	0.852792
N162	N	1.631882	0.690111	1.186125
H163	H	0.682702	0.210710	-0.000051
H164	H	1.016036	0.544043	0.333282
H165	H	1.349369	0.877377	0.666616
H166	H	0.854475	0.147762	0.775501
H167	H	1.187808	0.481095	1.108834
H168	H	1.521141	0.814428	1.442168
C169	C	1.031315	-0.414230	-0.146699
C170	C	1.364648	-0.080897	0.186634
C171	C	1.697981	0.252437	0.519967
N172	N	1.067190	-0.399233	-0.205609
N173	N	1.400524	-0.065900	0.127725
N174	N	1.733857	0.267434	0.461058
H175	H	1.081196	-0.531585	0.000021
H176	H	1.414529	-0.198251	0.333354
H177	H	1.747863	0.135082	0.666688
H178	H	1.006665	-0.405846	0.126414
H179	H	1.339999	-0.072513	0.459747
H180	H	1.673332	0.260821	0.793081
H181	H	1.051223	-0.073029	0.775484
H182	H	1.384556	0.260305	1.108817
H183	H	1.717889	0.593638	1.442150
H184	H	0.825032	0.180741	0.382989
H185	H	1.158366	0.514074	0.716322
H186	H	1.491699	0.847408	1.049655
H187	H	0.862133	0.139136	0.616937
H188	H	1.195467	0.472470	0.950270
H189	H	1.528800	0.805803	1.283603
H190	H	0.877185	-0.495127	-0.126377
H191	H	1.210519	-0.161794	0.206956
H192	H	1.543852	0.171540	0.540289
H193	H	0.832694	0.172126	0.224414
H194	H	1.166027	0.505460	0.557747
H195	H	1.499360	0.838793	0.891081
H196	H	0.166767	0.168441	-0.000078
H197	H	0.500101	0.501774	0.333256
H198	H	0.833434	0.835107	0.666589
H199	H	1.029448	-0.048657	0.224395
H200	H	1.362782	0.284676	0.557729
H201	H	1.696115	0.618009	0.891062
C202	C	0.366713	-0.141931	-0.000044
C203	C	0.700047	0.191402	0.333289
C204	C	1.033380	0.524735	0.666623
N205	N	0.409038	-0.207627	-0.000025
N206	N	0.742372	0.125706	0.333308
N207	N	1.075705	0.459040	0.666641
H208	H	1.021777	-0.040042	0.382961
H209	H	1.355110	0.293291	0.716294
H210	H	1.688444	0.626624	1.049628
H211	H	0.717154	-0.069341	-0.000033
H212	H	1.050487	0.263992	0.333300
H213	H	1.383820	0.597325	0.666634
H214	H	1.058884	-0.081648	0.616907
H215	H	1.392217	0.251686	0.950240
H216	H	1.725551	0.585019	1.283573
H217	H	0.201220	-0.111613	-0.000067
H218	H	0.534553	0.221720	0.333267
H219	H	0.867887	0.555053	0.666600
H220	H	0.566269	-0.061680	-0.000047
H221	H	0.899602	0.271654	0.333286
H222	H	1.232936	0.604987	0.666620
H223	H	0.317653	0.160775	-0.000085
H224	H	0.650986	0.494109	0.333248
H225	H	0.984320	0.827442	0.666581
H226	H	0.531806	0.218375	-0.000065
H227	H	0.865139	0.551709	0.333268
H228	H	1.198472	0.885042	0.666602
H229	H	0.802793	-0.369138	0.000019
H230	H	1.136126	-0.035805	0.333352
H231	H	1.469460	0.297528	0.666685
C232	C	0.852530	-0.486627	0.146608
C233	C	1.185864	-0.153294	0.479941
C234	C	1.519197	0.180040	0.813274
N235	N	0.816615	-0.501596	0.205502
N236	N	1.149949	-0.168262	0.538835
N237	N	1.483282	0.165071	0.872169
