data_functionalizedCrystal
_audit_creation_method	'MofGen! by Chris Wilmer'
_symmetry_space_group_name_H-M	'P1'
_symmetry_Int_Tables_number	1
_symmetry_cell_setting	triclinic
loop_
_symmetry_equiv_pos_as_xyz
  x,y,z
_cell_length_a	12.759401
_cell_length_b	17.637651
_cell_length_c	12.759393
_cell_angle_alpha	101.248903
_cell_angle_beta	90.020787
_cell_angle_gamma	101.219612
loop_
_atom_site_label
_atom_site_type_symbol
_atom_site_fract_x
_atom_site_fract_y
_atom_site_fract_z
Zn1	Zn	1.521699	-0.314720	0.509343
Zn2	Zn	1.486058	-0.446956	0.298086
Zn3	Zn	1.345988	-0.314760	0.333668
Zn4	Zn	1.310473	-0.446899	0.473739
O5	O	1.416055	-0.380834	0.403709
O6	O	1.663991	-0.332269	0.481328
O7	O	1.467424	-0.429461	0.155774
O8	O	1.399075	-0.204113	0.386763
O9	O	1.637805	-0.429422	0.326118
O10	O	1.528170	-0.204084	0.515830
O11	O	1.364515	-0.332337	0.181915
O12	O	1.194257	-0.332281	0.352239
O13	O	1.338546	-0.429324	0.625494
O14	O	1.168165	-0.429363	0.455149
O15	O	1.493733	-0.332213	0.651652
O16	O	1.432988	-0.557590	0.291595
O17	O	1.303986	-0.557548	0.420647
C18	C	1.143091	-0.380820	0.403692
C19	C	1.026311	-0.380834	0.403705
C20	C	1.360794	-0.586257	0.348419
C21	C	1.337249	-0.674138	0.324801
C22	C	0.848103	-0.431353	0.322835
C23	C	0.957830	-0.431341	0.322818
C24	C	0.985060	-0.330329	0.484607
C25	C	0.875336	-0.330338	0.484619
C26	C	1.100156	-0.459467	0.191262
C27	C	1.141401	-0.509978	0.110370
C28	C	1.085039	-0.587114	0.073314
C29	C	0.987429	-0.613755	0.117161
C30	C	0.946189	-0.563248	0.198060
C31	C	1.002553	-0.486101	0.235099
C32	C	0.733006	-0.302219	0.616174
C33	C	0.691763	-0.251716	0.697078
C34	C	0.748124	-0.174579	0.734145
C35	C	0.845736	-0.147941	0.690316
C36	C	0.886979	-0.198445	0.609412
C37	C	0.830611	-0.275581	0.572343
C38	C	1.595603	-0.962797	0.583463
C39	C	1.573446	-1.045375	0.561252
C40	C	1.439109	-1.045512	0.426724
C41	C	1.461259	-0.962933	0.448920
C42	C	1.539506	-0.921582	0.527291
C43	C	1.405161	-0.921718	0.392748
C44	C	1.427306	-0.839146	0.414947
C45	C	1.505547	-0.797789	0.493317
C46	C	1.561650	-0.839010	0.549490
C47	C	1.326909	-0.963071	0.314383
C48	C	1.270812	-0.921855	0.258211
C49	C	1.292961	-0.839282	0.280404
C50	C	1.371202	-0.797925	0.358774
C51	C	1.236858	-0.798061	0.224231
C52	C	1.259002	-0.715489	0.246430
C53	C	1.393347	-0.715353	0.380973
C54	C	1.690084	-0.380848	0.403726
C55	C	1.806859	-0.380854	0.403733
C56	C	1.416154	-0.380758	0.677763
C57	C	1.416196	-0.380726	0.794548
C58	C	1.471560	-0.174608	0.459237
C59	C	1.495213	-0.086727	0.482900
C60	C	1.416032	-0.380852	0.130736
C61	C	1.416253	-0.380662	0.014011
C62	C	1.497009	-0.330152	0.863034
C63	C	1.497036	-0.330118	0.972768
C64	C	1.335432	-0.431238	0.945517
C65	C	1.335402	-0.431267	0.835787
C66	C	1.559714	-0.236834	1.147843
C67	C	1.640541	-0.186267	1.216331
C68	C	1.746311	-0.174145	1.184001
C69	C	1.771272	-0.212600	1.083181
C70	C	1.690448	-0.263173	1.014697
C71	C	1.584667	-0.275280	1.047030
C72	C	1.272734	-0.524552	0.660709
C73	C	1.191914	-0.575129	0.592222
C74	C	1.086140	-0.587260	0.624548
C75	C	1.061180	-0.548818	0.725367
C76	C	1.142000	-0.498241	0.793854
C77	C	1.247773	-0.486109	0.761521
H78	H	0.792352	-0.472485	0.256972
H79	H	1.173142	-0.831742	0.160429
H80	H	1.308872	-1.030306	0.296321
C81	C	1.114538	-0.455950	0.904757
N82	N	1.093854	-0.424096	0.988287
H83	H	1.118628	-0.628241	0.007450
H84	H	1.625375	-0.805340	0.613300
H85	H	1.020337	-0.628451	0.568777
C86	C	1.681678	-0.917306	0.669677
N87	N	1.746503	-0.883042	0.734615
H88	H	1.269654	-0.472389	0.979107
H89	H	1.562794	-0.288995	0.829462
H90	H	1.457071	-0.681683	0.444783
C91	C	1.197302	-0.670150	0.184628
N92	N	1.150828	-0.636000	0.138077
H93	H	1.212247	-0.606438	0.510134
C94	C	1.529907	-0.706957	0.517735
N95	N	1.548257	-0.638542	0.536124
C96	C	1.060393	-0.274768	0.573581
N97	N	1.117133	-0.232920	0.640599
H98	H	0.866719	-0.584939	0.233761
H99	H	0.966584	-0.176809	0.573901
H100	H	1.220890	-0.488287	0.074691
H101	H	1.619118	-1.078929	0.607014
H102	H	1.812122	-0.132971	1.239772
H103	H	0.891629	-0.085130	0.720501
H104	H	1.375398	-1.079192	0.362916
H105	H	1.710771	-0.294485	0.932614
H106	H	1.207100	-0.955535	0.194404
H107	H	0.714537	-0.133462	0.800031
C108	C	1.443359	-0.250156	1.183410
N109	N	1.355720	-0.260191	1.210205
C110	C	1.389093	-0.511212	0.625142
N111	N	1.476734	-0.501170	0.598353
C112	C	1.887631	-0.199265	1.047628
N113	N	1.975274	-0.189217	1.020845
H114	H	1.620209	-0.154957	1.298419
H115	H	0.941550	-0.676570	0.086991
C116	C	1.162142	-0.374602	0.231987
N117	N	1.208830	-0.310678	0.262654
C118	C	0.671001	-0.387077	0.575405
N119	N	0.624299	-0.450992	0.544704
H120	H	0.975050	-0.558699	0.751690
H121	H	0.612284	-0.273413	0.732770
