data_functionalizedCrystal
_audit_creation_method	'MofGen! by Chris Wilmer'
_symmetry_space_group_name_H-M	'P1'
_symmetry_Int_Tables_number	1
_symmetry_cell_setting	triclinic
loop_
_symmetry_equiv_pos_as_xyz
  x,y,z
_cell_length_a	19.805404
_cell_length_b	18.050591
_cell_length_c	19.805398
_cell_angle_alpha	90.024004
_cell_angle_beta	89.974553
_cell_angle_gamma	89.977324
loop_
_atom_site_label
_atom_site_type_symbol
_atom_site_fract_x
_atom_site_fract_y
_atom_site_fract_z
Zn1	Zn	-0.269615	-1.135286	-0.382869
Zn2	Zn	0.230385	-0.635286	0.117131
Zn3	Zn	-0.382800	-1.135193	-0.269681
Zn4	Zn	0.117200	-0.635193	0.230319
Zn5	Zn	-0.269617	-1.011105	-0.269677
Zn6	Zn	0.230383	-0.511105	0.230323
Zn7	Zn	-0.382754	-1.011050	-0.382812
Zn8	Zn	0.117246	-0.511050	0.117188
O9	O	-0.326196	-1.073158	-0.326260
O10	O	0.173804	-0.573158	0.173740
O11	O	-0.284648	-1.239198	-0.367880
O12	O	0.215352	-0.739198	0.132120
O13	O	-0.367806	-1.118717	-0.174964
O14	O	0.132194	-0.618717	0.325036
O15	O	-0.174900	-1.027639	-0.284714
O16	O	0.325100	-0.527639	0.215286
O17	O	-0.367804	-1.239130	-0.284721
O18	O	0.132196	-0.739130	0.215279
O19	O	-0.174898	-1.118874	-0.367876
O20	O	0.325102	-0.618874	0.132124
O21	O	-0.284651	-1.027550	-0.174961
O22	O	0.215349	-0.527550	0.325039
O23	O	-0.284606	-0.907173	-0.284659
O24	O	0.215394	-0.407173	0.215341
O25	O	-0.367725	-1.027545	-0.477536
O26	O	0.132275	-0.527545	0.022464
O27	O	-0.367727	-0.907132	-0.367779
O28	O	0.132273	-0.407132	0.132221
O29	O	-0.284603	-1.118821	-0.477578
O30	O	0.215397	-0.618821	0.022422
O31	O	-0.477510	-1.118664	-0.284666
O32	O	0.022490	-0.618664	0.215334
O33	O	-0.477476	-1.027456	-0.367783
O34	O	0.022524	-0.527456	0.132217
C35	C	-0.502052	-1.073064	-0.326234
C36	C	-0.002052	-0.573064	0.173766
C37	C	-0.577284	-1.073092	-0.326245
C38	C	-0.077284	-0.573092	0.173755
C39	C	-0.326162	-0.880206	-0.326213
C40	C	0.173838	-0.380206	0.173787
C41	C	-0.326164	-0.797660	-0.326209
C42	C	0.173836	-0.297660	0.173791
C43	C	-1.039070	-1.120833	-0.283076
C44	C	-0.539070	-0.620833	0.216924
C45	C	-0.968382	-1.120798	-0.283063
C46	C	-0.468382	-0.620798	0.216937
C47	C	-0.933046	-1.073256	-0.326296
C48	C	-0.433046	-0.573256	0.173704
C49	C	-0.968402	-1.025740	-0.369540
C50	C	-0.468402	-0.525740	0.130460
C51	C	-1.039089	-1.025772	-0.369549
C52	C	-0.539089	-0.525772	0.130451
C53	C	-0.683329	-1.025611	-0.369503
C54	C	-0.183329	-0.525611	0.130497
C55	C	-0.612637	-1.025584	-0.369492
C56	C	-0.112637	-0.525584	0.130508
C57	C	-0.612622	-1.120637	-0.283016
C58	C	-0.112622	-0.620637	0.216984
C59	C	-0.683309	-1.120668	-0.283025
C60	C	-0.183309	-0.620668	0.216975
C61	C	-0.718659	-1.073150	-0.326267
C62	C	-0.218659	-0.573150	0.173733
C63	C	-0.795307	-1.073188	-0.326280
C64	C	-0.295307	-0.573188	0.173720
C65	C	-0.856399	-1.073222	-0.326287
C66	C	-0.356399	-0.573222	0.173713
C67	C	-0.280901	-0.598210	-0.281103
C68	C	0.219099	-0.098210	0.218897
C69	C	-0.342633	-0.548789	-0.264443
C70	C	0.157367	-0.048789	0.235557
C71	C	-0.326177	-0.646530	-0.326232
C72	C	0.173823	-0.146530	0.173768
C73	C	-0.264459	-0.548870	-0.342883
C74	C	0.235541	-0.048870	0.157117
C75	C	-0.326185	-0.500545	-0.326253
C76	C	0.173815	-0.000545	0.173747
C77	C	-0.387942	-0.598196	-0.309540
C78	C	0.112058	-0.098196	0.190460
C79	C	-0.309727	-0.598281	-0.388009
C80	C	0.190273	-0.098281	0.111991
C81	C	-0.371502	-0.548882	-0.371373
C82	C	0.128498	-0.048882	0.128627
C83	C	-0.326172	-0.730628	-0.326218
C84	C	0.173828	-0.230628	0.173782
C85	C	-0.326197	-0.416448	-0.326267
C86	C	0.173803	0.083552	0.173733
C87	C	-0.149653	-1.073273	-0.326301
C88	C	0.350347	-0.573273	0.173699
C89	C	-0.074421	-1.073322	-0.326318
C90	C	0.425579	-0.573322	0.173682
C91	C	-0.326159	-1.073187	-0.502803
C92	C	0.173841	-0.573187	-0.002803
C93	C	-0.326143	-1.073200	-0.578035
C94	C	0.173857	-0.573200	-0.078035
C95	C	-0.326219	-0.266864	-0.326295
C96	C	0.173781	0.233136	0.173705
C97	C	-0.326199	-0.349410	-0.326279
C98	C	0.173801	0.150590	0.173721
C99	C	-0.282741	-1.120816	-1.039849
C100	C	0.217259	-0.620816	-0.539849
C101	C	-0.282762	-1.120805	-0.969160
C102	C	0.217238	-0.620805	-0.469160
C103	C	-0.326049	-1.073276	-0.933797
C104	C	0.173951	-0.573276	-0.433797
C105	C	-0.369322	-1.025761	-0.969125
C106	C	0.130678	-0.525761	-0.469125
C107	C	-0.369305	-1.025777	-1.039812
C108	C	0.130695	-0.525777	-0.539812
C109	C	-0.369396	-1.025696	-0.684052
C110	C	0.130604	-0.525696	-0.184052
C111	C	-0.369409	-1.025683	-0.613360
C112	C	0.130591	-0.525683	-0.113360
C113	C	-0.282853	-1.120724	-0.613400
C114	C	0.217147	-0.620724	-0.113400
C115	C	-0.282835	-1.120740	-0.684087
C116	C	0.217165	-0.620740	-0.184087
C117	C	-0.326111	-1.073228	-0.719409
C118	C	0.173889	-0.573228	-0.219409
C119	C	-0.326089	-1.073243	-0.796058
C120	C	0.173911	-0.573243	-0.296058
C121	C	-0.326068	-1.073258	-0.857149
C122	C	0.173932	-0.573258	-0.357149
C123	C	-0.326185	-1.073172	-0.150404
C124	C	0.173815	-0.573172	0.349596
C125	C	-0.326010	-1.073304	-0.075172
C126	C	0.173990	-0.573304	0.424828
H127	H	-1.067836	-1.159551	-0.247874
H128	H	-0.567836	-0.659551	0.252126
H129	H	-0.404658	-0.986974	-0.584568
H130	H	0.095342	-0.486974	-0.084568
H131	H	-0.409838	-0.527360	-0.409546
H132	H	0.090162	-0.027360	0.090454
H133	H	-0.939627	-0.987026	-0.404739
H134	H	-0.439627	-0.487026	0.095261
O135	O	-0.291265	-0.627111	-0.457176
O136	O	0.208735	-0.127111	0.042824
H137	H	-0.239983	-0.607394	-0.470876
H138	H	0.260017	-0.107394	0.029124
H139	H	-0.939600	-1.159484	-0.247851
H140	H	-0.439600	-0.659484	0.252149
H141	H	-0.404633	-0.987008	-0.712803
H142	H	0.095367	-0.487008	-0.212803
H143	H	-0.247584	-1.159440	-0.712876
H144	H	0.252416	-0.659440	-0.212876
O145	O	-0.574520	-0.974292	-0.416111
O146	O	-0.074520	-0.474292	0.083889
H147	H	-0.610975	-0.941245	-0.446174
H148	H	-0.110975	-0.441245	0.053826
O149	O	-0.195328	-0.520152	-0.361541
O150	O	0.304672	-0.020152	0.138459
H151	H	-0.160756	-0.567595	-0.370358
H152	H	0.339244	-0.067595	0.129642
H153	H	-0.247487	-1.159515	-1.068637
H154	H	0.252513	-0.659515	-0.568637
H155	H	-0.440155	-0.619773	-0.295408
H156	H	0.059845	-0.119773	0.204592
H157	H	-0.356555	-0.527051	-0.212209
H158	H	0.143445	-0.027051	0.287791
O159	O	-0.230247	-0.626915	-0.230502
O160	O	0.269753	-0.126915	0.269498
H161	H	-0.205372	-0.579465	-0.204981
H162	H	0.294628	-0.079465	0.295019
H163	H	-1.067871	-0.987088	-0.404765
H164	H	-0.567871	-0.487088	0.095235
H165	H	-0.247530	-1.159497	-0.940403
H166	H	0.252470	-0.659497	-0.440403
H167	H	-0.247617	-1.159413	-0.584632
H168	H	0.252383	-0.659413	-0.084632
O169	O	-0.721423	-1.171942	-0.236393
O170	O	-0.221423	-0.671942	0.263607
H171	H	-0.684965	-1.204969	-0.206316
H172	H	-0.184965	-0.704969	0.293684
O173	O	-0.574496	-1.171897	-0.236378
O174	O	-0.074496	-0.671897	0.263622
H175	H	-0.519406	-1.163889	-0.243630
H176	H	-0.019406	-0.663889	0.256370
O177	O	-0.416007	-0.974495	-0.930982
O178	O	0.083993	-0.474495	-0.430982
H179	H	-0.404384	-0.916221	-0.944548
H180	H	0.095616	-0.416221	-0.444548
H181	H	-0.712102	-0.986913	-0.404708
H182	H	-0.212102	-0.486913	0.095292
H183	H	-0.404539	-0.987088	-1.068572
H184	H	0.095461	-0.487088	-0.568572
