data_functionalizedCrystal
_audit_creation_method	'MofGen! by Chris Wilmer'
_symmetry_space_group_name_H-M	'P1'
_symmetry_Int_Tables_number	1
_symmetry_cell_setting	triclinic
loop_
_symmetry_equiv_pos_as_xyz
  x,y,z
_cell_length_a	14.908520
_cell_length_b	18.215407
_cell_length_c	18.215399
_cell_angle_alpha	90.019833
_cell_angle_beta	86.730636
_cell_angle_gamma	93.321174
loop_
_atom_site_label
_atom_site_type_symbol
_atom_site_fract_x
_atom_site_fract_y
_atom_site_fract_z
Zn1	Zn	-0.359158	1.108178	0.433017
Zn2	Zn	0.140842	1.608178	0.933017
Zn3	Zn	-0.510027	1.100989	0.317051
Zn4	Zn	-0.010027	1.600989	0.817051
Zn5	Zn	-0.359188	0.985109	0.309966
Zn6	Zn	0.140812	1.485109	0.809966
Zn7	Zn	-0.509977	0.977982	0.440073
Zn8	Zn	-0.009977	1.477982	0.940073
O9	O	-0.434588	1.043064	0.375027
O10	O	0.065412	1.543064	0.875027
O11	O	-0.379180	1.210208	0.417646
O12	O	0.120820	1.710208	0.917646
O13	O	-0.490052	1.085592	0.213128
O14	O	0.009948	1.585592	0.713128
O15	O	-0.232939	1.007425	0.320371
O16	O	0.267061	1.507425	0.820371
O17	O	-0.490023	1.204927	0.332446
O18	O	0.009977	1.704927	0.832446
O19	O	-0.232917	1.097843	0.410776
O20	O	0.267083	1.597843	0.910776
O21	O	-0.379230	1.000455	0.207923
O22	O	0.120770	1.500455	0.707923
O23	O	-0.379182	0.881180	0.327213
O24	O	0.120818	1.381180	0.827213
O25	O	-0.489937	0.995278	0.542120
O26	O	0.010063	1.495278	1.042120
O27	O	-0.489966	0.875943	0.422802
O28	O	0.010034	1.375943	0.922802
O29	O	-0.379131	1.090932	0.536936
O30	O	0.120869	1.590932	1.036936
O31	O	-0.636266	1.078681	0.339288
O32	O	-0.136266	1.578681	0.839288
O33	O	-0.636229	0.988308	0.429672
O34	O	-0.136229	1.488308	0.929672
C35	C	-0.434572	0.851859	0.375005
C36	C	0.065428	1.351859	0.875005
C37	C	-0.434587	0.770059	0.375014
C38	C	0.065413	1.270059	0.875014
C39	C	-0.668981	1.031961	0.386030
C40	C	-0.168981	1.531961	0.886030
C41	C	-0.769256	1.027278	0.390762
C42	C	-0.269256	1.527278	0.890762
C43	C	-0.492363	0.579154	0.424733
C44	C	0.007637	1.079154	0.924733
C45	C	-0.492366	0.502295	0.424742
C46	C	0.007634	1.002295	0.924742
C47	C	-0.376828	0.507726	0.325338
C48	C	0.123172	1.007726	0.825338
C49	C	-0.376822	0.584584	0.325333
C50	C	0.123178	1.084584	0.825333
C51	C	-0.434594	0.620295	0.375029
C52	C	0.065406	1.120295	0.875029
C53	C	-0.434604	0.466579	0.375044
C54	C	0.065396	0.966579	0.875044
C55	C	-0.434606	0.383245	0.375053
C56	C	0.065394	0.883245	0.875053
C57	C	-0.434591	0.703635	0.375021
C58	C	0.065409	1.203635	0.875021
C59	C	-0.957660	1.112681	0.305613
C60	C	-0.457660	1.612681	0.805613
C61	C	-1.051877	1.108284	0.310057
C62	C	-0.551877	1.608284	0.810057
C63	C	-1.051908	1.014091	0.404097
C64	C	-0.551908	1.514091	0.904097
C65	C	-0.957691	1.018488	0.399653
C66	C	-0.457691	1.518488	0.899653
C67	C	-0.910570	1.067784	0.350409
C68	C	-0.410570	1.567784	0.850409
C69	C	-0.816352	1.072177	0.345962
C70	C	-0.316352	1.572177	0.845962
C71	C	-0.816385	0.977988	0.440005
C72	C	-0.316385	1.477988	0.940005
C73	C	-0.910602	0.973591	0.444449
C74	C	-0.410602	1.473591	0.944449
C75	C	-0.199279	1.054231	0.363996
C76	C	0.300721	1.554231	0.863996
C77	C	-0.099004	1.058990	0.359296
C78	C	0.400996	1.558990	0.859296
C79	C	-0.434526	1.043112	0.566977
C80	C	0.065474	1.543112	1.066977
C81	C	-0.434499	1.043133	0.648775
C82	C	0.065501	1.543133	1.148775
C83	C	-0.434604	1.235017	0.375049
C84	C	0.065396	1.735017	0.875049
C85	C	-0.434611	1.316815	0.375059
C86	C	0.065389	1.816815	0.875059
C87	C	-0.434585	1.043062	0.183820
C88	C	0.065415	1.543062	0.683820
C89	C	-0.434357	1.043196	0.102011
C90	C	0.065643	1.543196	0.602011
C91	C	-0.376748	1.092959	0.834268
C92	C	0.123252	1.592959	1.334268
C93	C	-0.376722	1.092969	0.911126
C94	C	0.123278	1.592969	1.411126
C95	C	-0.492110	0.993364	0.916513
C96	C	0.007890	1.493364	1.416513
C97	C	-0.492131	0.993351	0.839656
C98	C	0.007869	1.493351	1.339656
C99	C	-0.434452	1.043153	0.798536
C100	C	0.065548	1.543153	1.298536
C101	C	-0.434404	1.043176	0.952250
C102	C	0.065596	1.543176	1.452250
C103	C	-0.434376	1.043186	1.035582
C104	C	0.065624	1.543186	1.535582
C105	C	-0.434478	1.043142	0.715198
C106	C	0.065522	1.543142	1.215198
H107	H	-0.539406	0.468801	0.465216
H108	H	-0.039406	0.968801	0.965216
H109	H	-0.329780	1.133509	0.800790
H110	H	0.170220	1.633509	1.300790
O111	O	-0.314487	1.146685	0.949673
O112	O	0.185513	1.646685	1.449673
H113	H	-0.329971	1.203709	0.935669
H114	H	0.170029	1.703709	1.435669
H115	H	-0.329773	0.618083	0.284858
H116	H	0.170227	1.118083	0.784858
O117	O	-0.554322	0.939652	0.960862
O118	O	-0.054322	1.439652	1.460862
H119	H	-0.544619	0.948031	1.020309
H120	H	-0.044619	1.448031	1.520309
H121	H	-0.539403	0.608228	0.465200
H122	H	-0.039403	1.108228	0.965200
O123	O	-0.765519	1.125352	0.292861
O124	O	-0.265519	1.625352	0.792861
H125	H	-0.783658	1.111934	0.235942
H126	H	-0.283658	1.611934	0.735942
O127	O	-0.765583	0.929557	0.488313
O128	O	-0.265583	1.429557	0.988313
H129	H	-0.783738	0.870961	0.476476
H130	H	-0.283738	1.370961	0.976476
H131	H	-1.090213	1.144846	0.273581
H132	H	-0.590213	1.644846	0.773581
H133	H	-0.329793	0.478640	0.284876
H134	H	0.170207	0.978640	0.784876
O135	O	-0.961433	0.920425	0.497559
O136	O	-0.461433	1.420425	0.997559
H137	H	-0.912857	0.889947	0.527964
H138	H	-0.412857	1.389947	1.027964
O139	O	-0.906827	1.165846	0.252503
O140	O	-0.406827	1.665846	0.752503
H141	H	-0.955401	1.196331	0.222101
H142	H	-0.455401	1.696331	0.722101
O143	O	-1.102737	0.960916	0.457199
O144	O	-0.602737	1.460916	0.957199
H145	H	-1.176163	0.965399	0.452755
H146	H	-0.676163	1.465399	0.952755
H147	H	-0.539119	0.952788	0.810563
H148	H	-0.039119	1.452788	1.310563
