data_functionalizedCrystal
_audit_creation_method	'MofGen! by Chris Wilmer'
_symmetry_space_group_name_H-M	'P1'
_symmetry_Int_Tables_number	1
_symmetry_cell_setting	triclinic
loop_
_symmetry_equiv_pos_as_xyz
  x,y,z
_cell_length_a	16.109301
_cell_length_b	10.654550
_cell_length_c	14.586319
_cell_angle_alpha	90.002721
_cell_angle_beta	90.005970
_cell_angle_gamma	96.026743
loop_
_atom_site_label
_atom_site_type_symbol
_atom_site_fract_x
_atom_site_fract_y
_atom_site_fract_z
O1	O	0.116776	-1.666250	0.076172
O2	O	0.127902	-1.300620	0.076189
O3	O	0.001368	-1.493479	0.076174
O4	O	0.243310	-1.473391	0.076187
O5	O	0.001360	-1.493477	-0.076307
O6	O	0.127894	-1.300619	-0.076292
O7	O	0.116768	-1.666248	-0.076309
Cu8	Cu	0.122330	-1.483433	-0.090223
Cu9	Cu	0.122340	-1.483435	0.090103
O10	O	0.243302	-1.473389	-0.076294
C11	C	0.127081	-1.253833	-0.000049
C12	C	0.124637	-1.114422	-0.000043
N13	N	0.122323	-1.483441	-0.217055
C14	C	-0.029616	-1.492664	-0.000066
C15	C	-0.121926	-1.490225	-0.000065
C16	C	-0.430291	-1.596688	-0.000054
C17	C	-0.343557	-1.598992	-0.000059
C18	C	-0.325045	-1.370171	-0.000061
C19	C	-0.411777	-1.367869	-0.000062
C20	C	-0.464398	-1.481131	-0.000054
C21	C	-0.290932	-1.485738	-0.000058
C22	C	-0.196891	-1.488235	-0.000064
C23	C	-0.558445	-1.478634	-0.000050
C24	C	0.274286	-1.474204	-0.000052
C25	C	0.366596	-1.476644	-0.000047
C26	C	0.117589	-1.713036	-0.000068
C27	C	0.120033	-1.852446	-0.000069
C28	C	0.199138	-1.033926	-0.000042
C29	C	0.196836	-0.902937	-0.000058
C30	C	0.045526	-0.932952	-0.000073
C31	C	0.047828	-1.063939	-0.000063
N32	N	0.122340	-1.483437	0.216935
C33	C	0.066422	-1.569000	0.451935
C34	C	0.066420	-1.569003	0.547916
C35	C	0.178248	-1.397874	0.547939
C36	C	0.178253	-1.397878	0.451959
C37	C	0.122335	-1.483439	0.403960
C38	C	0.122328	-1.483439	0.595920
C39	C	0.122326	-1.483443	0.699988
C40	C	0.122338	-1.483438	0.299886
H41	H	-0.473134	-1.688913	-0.000047
H42	H	0.020891	-1.638676	0.586975
N43	N	0.277191	-0.816114	-0.000107
H44	H	0.326194	-0.867976	-0.000110
H45	H	0.279562	-0.761065	0.056397
H46	H	0.261680	-1.075025	-0.000032
H47	H	0.020891	-1.638671	0.412856
N48	N	-0.037314	-0.878502	-0.000099
H49	H	-0.027469	-0.783307	-0.000105
H50	H	-0.069951	-0.907939	0.056423
N51	N	-0.032530	-1.150773	-0.000076
H52	H	-0.081537	-1.098918	-0.000085
H53	H	-0.034871	-1.205768	0.056452
H54	H	-0.282190	-1.277958	-0.000065
H55	H	0.223773	-1.328210	0.587029
N56	N	0.238560	-1.305586	0.400206
H57	H	0.273976	-1.251373	0.445176
H58	H	0.206306	-1.250200	0.360380
H59	H	-0.439546	-1.273763	-0.000066
N60	N	-0.306769	-1.723628	-0.000065
H61	H	-0.353268	-1.795024	-0.000061
H62	H	-0.271178	-1.729564	0.056460
