data_functionalizedCrystal
_audit_creation_method	'MofGen! by Chris Wilmer'
_symmetry_space_group_name_H-M	'P1'
_symmetry_Int_Tables_number	1
_symmetry_cell_setting	triclinic
loop_
_symmetry_equiv_pos_as_xyz
  x,y,z
_cell_length_a	19.077105
_cell_length_b	19.077068
_cell_length_c	19.076929
_cell_angle_alpha	94.467801
_cell_angle_beta	90.078300
_cell_angle_gamma	90.115316
loop_
_atom_site_label
_atom_site_type_symbol
_atom_site_fract_x
_atom_site_fract_y
_atom_site_fract_z
Zn1	Zn	1.044032	-0.340427	-0.453497
Zn2	Zn	1.544032	0.159573	0.046503
Zn3	Zn	1.043949	-0.453583	-0.340339
Zn4	Zn	1.543949	0.046417	0.159661
Zn5	Zn	0.931648	-0.331006	-0.330929
Zn6	Zn	1.431648	0.168994	0.169071
Zn7	Zn	0.921785	-0.453152	-0.453075
Zn8	Zn	1.421785	0.046848	0.046925
O9	O	0.985354	-0.394542	-0.394460
O10	O	1.485354	0.105458	0.105540
O11	O	1.142180	-0.359560	-0.442602
O12	O	1.642180	0.140440	0.057398
O13	O	1.033146	-0.433560	-0.240615
O14	O	1.533146	0.066440	0.259385
O15	O	0.950719	-0.233781	-0.343427
O16	O	1.450719	0.266219	0.156573
O17	O	1.142120	-0.442695	-0.359465
O18	O	1.642120	0.057305	0.140535
O19	O	1.033287	-0.240703	-0.433477
O20	O	1.533287	0.259297	0.066523
O21	O	0.950638	-0.343504	-0.233702
O22	O	1.450638	0.156496	0.266298
O23	O	0.832180	-0.343086	-0.343017
O24	O	1.332180	0.156914	0.156983
O25	O	0.933908	-0.441962	-0.551606
O26	O	1.433908	0.058038	-0.051606
O27	O	0.824934	-0.432827	-0.432757
O28	O	1.324934	0.067173	0.067243
O29	O	1.023722	-0.359143	-0.551917
O30	O	1.523722	0.140857	-0.051917
O31	O	1.023581	-0.552000	-0.359055
O32	O	1.523581	-0.052000	0.140945
O33	O	0.933828	-0.551684	-0.441881
O34	O	1.433828	-0.051684	0.058119
C35	C	0.803105	-0.386888	-0.386820
C36	C	1.303105	0.113112	0.113180
C37	C	0.725137	-0.383631	-0.383570
C38	C	1.225137	0.116369	0.116430
C39	C	0.684753	-0.428889	-0.428697
C40	C	1.184753	0.071111	0.071303
C41	C	0.611494	-0.425820	-0.425645
C42	C	1.111494	0.074180	0.074355
C43	C	0.578621	-0.377496	-0.377463
C44	C	1.078621	0.122504	0.122537
C45	C	0.619010	-0.332233	-0.332333
C46	C	1.119010	0.167767	0.167667
C47	C	0.692268	-0.335299	-0.335389
C48	C	1.192268	0.164701	0.164611
C49	C	0.359927	-0.363304	-0.363325
C50	C	0.859927	0.136696	0.136675
C51	C	0.286664	-0.360243	-0.360271
C52	C	0.786664	0.139757	0.139729
C53	C	0.279153	-0.453830	-0.453584
C54	C	0.779153	0.046170	0.046416
C55	C	0.352413	-0.456895	-0.456633
C56	C	0.852413	0.043105	0.043367
C57	C	0.392795	-0.411629	-0.411506
C58	C	0.892795	0.088371	0.088494
N59	N	0.503738	-0.374359	-0.374341
N60	N	1.003738	0.125641	0.125659
N61	N	0.467676	-0.414763	-0.414632
N62	N	0.967676	0.085237	0.085368
C63	C	0.977644	-0.577377	-0.401459
C64	C	1.477644	-0.077377	0.098541
C65	C	0.974409	-0.655598	-0.404480
C66	C	1.474409	-0.155598	0.095520
C67	C	1.019652	-0.692490	-0.362814
C68	C	1.519652	-0.192490	0.137186
C69	C	1.016613	-0.765988	-0.365660
C70	C	1.516613	-0.265988	0.134340
C71	C	0.968327	-0.802591	-0.410167
C72	C	1.468327	-0.302591	0.089833
C73	C	0.923082	-0.765693	-0.451837
C74	C	1.423082	-0.265693	0.048163
C75	C	0.926124	-0.692198	-0.448995
C76	C	1.426124	-0.192198	0.051005
C77	C	0.954215	-1.022385	-0.423291
C78	C	1.454215	-0.522385	0.076709
C79	C	0.951175	-1.095885	-0.426128
C80	C	1.451175	-0.595885	0.073872
C81	C	1.044708	-1.096175	-0.339951
C82	C	1.544708	-0.596175	0.160049
C83	C	1.047743	-1.022677	-0.337110
C84	C	1.547743	-0.522677	0.162890
C85	C	1.002500	-0.985786	-0.378782
C86	C	1.502500	-0.485786	0.121218
N87	N	0.965218	-0.877717	-0.413075
N88	N	1.465218	-0.377717	0.086925
N89	N	1.005613	-0.910662	-0.375878
N90	N	1.505613	-0.410662	0.124122
C91	C	1.168313	-0.402226	-0.402130
C92	C	1.668313	0.097774	0.097870
C93	C	1.246280	-0.405501	-0.405398
C94	C	1.746280	0.094499	0.094602
C95	C	0.977724	-0.401555	-0.578009
C96	C	1.477724	0.098445	-0.078009
C97	C	0.974473	-0.404544	-0.656227
C98	C	1.474473	0.095456	-0.156227
C99	C	0.993112	-0.210995	-0.387450
C100	C	1.493112	0.289005	0.112550
C101	C	0.996418	-0.132778	-0.384462
C102	C	1.496418	0.367222	0.115538
C103	C	0.951156	-0.426035	-1.096494
C104	C	1.451156	0.073965	-0.596494
C105	C	0.954209	-0.423217	-1.023000
C106	C	1.454209	0.076783	-0.523000
C107	C	1.002500	-0.378692	-0.986418
C108	C	1.502500	0.121308	-0.486418
C109	C	1.047737	-0.336978	-1.023334
C110	C	1.547737	0.163022	-0.523334
C111	C	1.044681	-0.339794	-1.096827
C112	C	1.544681	0.160206	-0.596827
C113	C	1.016653	-0.365645	-0.766636
C114	C	1.516653	0.134355	-0.266636
C115	C	1.019708	-0.362835	-0.693138
C116	C	1.519708	0.137165	-0.193138
C117	C	0.926178	-0.449072	-0.692809
C118	C	1.426178	0.050928	-0.192809
C119	C	0.923129	-0.451887	-0.766303
C120	C	1.423129	0.048113	-0.266303
C121	C	0.968363	-0.410170	-0.803213
C122	C	1.468363	0.089830	-0.303213
N123	N	1.005623	-0.375812	-0.911295
N124	N	1.505623	0.124188	-0.411295
N125	N	0.965236	-0.413048	-0.878334
N126	N	1.465236	0.086952	-0.378334
C127	C	0.992996	-0.387507	-0.211625
C128	C	1.492996	0.112493	0.288375
C129	C	0.996391	-0.384326	-0.133405
C130	C	1.496391	0.115674	0.366595
H131	H	0.259901	-0.320883	-0.321039
H132	H	0.759901	0.179117	0.178961
O133	O	1.071735	-0.653012	-0.314813
O134	O	1.571735	-0.153012	0.185187
H135	H	1.102690	-0.691017	-0.286325
H136	H	1.602690	-0.191017	0.213675
O137	O	0.720210	-0.481008	-0.480668
O138	O	1.220210	0.018992	0.019332
H139	H	0.679817	-0.511957	-0.511541
H140	H	1.179817	-0.011957	-0.011541
O141	O	0.871046	-0.499911	-0.805761
O142	O	1.371046	0.000089	-0.305761
H143	H	0.835304	-0.468198	-0.836555
H144	H	1.335304	0.031802	-0.336555
H145	H	0.911862	-1.125686	-0.462384
H146	H	1.411862	-0.625686	0.037616
H147	H	0.889351	-0.483035	-0.662749
H148	H	1.389351	0.016965	-0.162749
H149	H	0.379173	-0.496247	-0.495867
H150	H	0.879173	0.003753	0.004133
H151	H	0.246266	-0.490681	-0.490325
H152	H	0.746266	0.009319	0.009675
H153	H	1.081513	-0.305827	-1.126879
H154	H	1.581513	0.194173	-0.626879
H155	H	1.053489	-0.331681	-0.796679
H156	H	1.553489	0.168319	-0.296679
O157	O	0.905383	-0.468180	-0.983205
O158	O	1.405383	0.031820	-0.483205
H159	H	0.914467	-0.524462	-0.999907
H160	H	1.414467	-0.024462	-0.499907
H161	H	1.059032	-0.326573	-0.663355
H162	H	1.559032	0.173427	-0.163355
O163	O	1.099829	-0.288959	-0.983884
O164	O	1.599829	0.211041	-0.483884
H165	H	1.094363	-0.294014	-0.926579
H166	H	1.594363	0.205986	-0.426579
H167	H	0.592239	-0.292883	-0.293105
H168	H	1.092239	0.207117	0.206895
O169	O	0.568005	-0.474766	-0.474252
O170	O	1.068005	0.025234	0.025748
H171	H	0.580271	-0.465589	-0.529659
H172	H	1.080271	0.034411	-0.029659
O173	O	0.403479	-0.314506	-0.314634
O174	O	0.903479	0.185494	0.185366
H175	H	0.368310	-0.280402	-0.280606
H176	H	0.868310	0.219598	0.219394
H177	H	0.725148	-0.298442	-0.298645
H178	H	1.225148	0.201558	0.201355
H179	H	1.053455	-0.796022	-0.331731
H180	H	1.553455	-0.296022	0.168269
H181	H	1.087061	-0.992876	-0.300868
H182	H	1.587061	-0.492876	0.199132
O183	O	1.093516	-1.135974	-0.295028
O184	O	1.593516	-0.635974	0.204972
H185	H	1.062262	-1.166829	-0.259184
H186	H	1.562262	-0.666829	0.240816
O187	O	0.905400	-0.982597	-0.468213
O188	O	1.405400	-0.482597	0.031787
H189	H	0.871302	-1.020398	-0.499625
H190	H	1.371302	-0.520398	0.000375
O191	O	0.877327	-0.652401	-0.493934
O192	O	1.377327	-0.152401	0.006066
H193	H	0.844365	-0.616254	-0.459620
H194	H	1.344365	-0.116254	0.040380
H195	H	0.883769	-0.795502	-0.488079
H196	H	1.383769	-0.295502	0.011921
O197	O	0.899067	-0.474055	-1.135950
O198	O	1.399067	0.025945	-0.635950
H199	H	0.868120	-0.502577	-1.097932
H200	H	1.368120	-0.002577	-0.597932
