data_functionalizedCrystal
_audit_creation_method	'MofGen! by Chris Wilmer'
_symmetry_space_group_name_H-M	'P1'
_symmetry_Int_Tables_number	1
_symmetry_cell_setting	triclinic
loop_
_symmetry_equiv_pos_as_xyz
  x,y,z
_cell_length_a	10.654550
_cell_length_b	17.038272
_cell_length_c	9.130313
_cell_angle_alpha	89.998262
_cell_angle_beta	89.996220
_cell_angle_gamma	87.798229
loop_
_atom_site_label
_atom_site_type_symbol
_atom_site_fract_x
_atom_site_fract_y
_atom_site_fract_z
O1	O	1.678036	0.109874	-0.121922
O2	O	1.313530	0.120343	-0.121899
O3	O	1.493617	0.001281	-0.121899
O4	O	1.497950	0.228936	-0.121923
O5	O	1.493615	0.001284	0.121700
O6	O	1.313528	0.120346	0.121700
O7	O	1.678034	0.109878	0.121676
Cu8	Cu	1.495781	0.115112	0.143931
Cu9	Cu	1.495783	0.115108	-0.144153
O10	O	1.497948	0.228939	0.121676
C11	C	1.266660	0.119576	-0.000097
C12	C	1.127003	0.117276	-0.000087
C13	C	1.054026	0.187378	-0.000116
C14	C	0.922804	0.185212	-0.000141
C15	C	0.937548	0.042837	-0.000115
C16	C	1.068767	0.045004	-0.000080
C17	C	1.112262	0.259650	-0.000124
C18	C	1.039285	0.329758	-0.000154
C19	C	0.908063	0.327592	-0.000179
C20	C	0.849818	0.255319	-0.000174
C21	C	1.489675	-0.027867	-0.000100
C22	C	1.477918	-0.114726	-0.000099
C23	C	1.585862	-0.164237	-0.000105
C24	C	1.574808	-0.245850	-0.000118
C25	C	1.455808	-0.277949	-0.000115
C26	C	1.347856	-0.228431	-0.000114
C27	C	1.358911	-0.146821	-0.000111
C28	C	1.416750	-0.523925	-0.000133
C29	C	1.405702	-0.605542	-0.000131
C30	C	1.632656	-0.622955	-0.000137
C31	C	1.643701	-0.541342	-0.000126
C32	C	1.535749	-0.491831	-0.000133
C33	C	1.444505	-0.361370	-0.000124
C34	C	1.547052	-0.408412	-0.000134
C35	C	1.724905	0.110645	-0.000129
C36	C	1.864562	0.112944	-0.000148
C37	C	1.501889	0.258088	-0.000126
C38	C	1.513646	0.344947	-0.000136
N39	N	1.495788	0.115114	0.346553
N40	N	1.495785	0.115100	-0.346776
C41	C	1.575554	0.062412	0.423205
C42	C	1.575550	0.062403	0.576542
C43	C	1.416010	0.167805	0.576561
C44	C	1.416009	0.167810	0.423227
C45	C	1.655334	0.009716	0.346531
C46	C	1.735107	-0.042990	0.423183
C47	C	1.735103	-0.042999	0.576520
C48	C	1.655325	0.009698	0.653205
H49	H	1.682764	-0.138109	-0.000098
N50	N	1.143323	-0.026600	-0.000020
N51	N	1.133582	-0.074499	0.102675
H52	H	1.186240	-0.125071	0.102728
N53	N	1.334555	0.221656	0.344917
N54	N	1.379610	0.270449	0.259355
H55	H	1.322079	0.308478	0.204046
N56	N	1.334548	0.221644	0.654886
N57	N	1.343989	0.293965	0.637766
H58	H	1.286457	0.331992	0.693081
H59	H	1.662708	-0.286159	-0.000119
H60	H	1.328847	-0.483623	-0.000138
H61	H	1.800048	-0.085920	0.638929
H62	H	1.720544	-0.663275	-0.000135
H63	H	1.655319	0.009680	0.778062
H64	H	1.308794	-0.631674	-0.000105
H65	H	1.347615	-0.387514	-0.000119
N66	N	1.765267	-0.508568	-0.000127
N67	N	1.861639	-0.552785	-0.000135
H68	H	1.947498	-0.529640	-0.000132
N69	N	1.226308	-0.261230	-0.000129
N70	N	1.216451	-0.334097	-0.000132
H71	H	1.130606	-0.357261	-0.000140
N72	N	1.248636	-0.096255	-0.000125
N73	N	1.142392	-0.124922	-0.000131
H74	H	1.064505	-0.089211	-0.000150
H75	H	1.086717	0.388600	-0.000146
N76	N	1.668593	-0.375613	-0.000119
N77	N	1.700057	-0.332014	0.102567
H78	H	1.785896	-0.308842	0.102585
H79	H	0.890114	-0.016004	-0.000135
H80	H	1.219109	0.261422	-0.000110
H81	H	1.655347	0.009721	0.221677
N82	N	0.715779	0.253092	-0.000210
N83	N	0.663796	0.188561	-0.000221
H84	H	0.569132	0.186987	-0.000253
N85	N	1.816531	-0.096829	0.344808
N86	N	1.771418	-0.145594	0.259245
H87	H	1.828908	-0.183622	0.203874
H88	H	0.848648	0.384677	-0.000189
