data_functionalizedCrystal
_audit_creation_method	'MofGen! by Chris Wilmer'
_symmetry_space_group_name_H-M	'P1'
_symmetry_Int_Tables_number	1
_symmetry_cell_setting	triclinic
loop_
_symmetry_equiv_pos_as_xyz
  x,y,z
_cell_length_a	23.532407
_cell_length_b	27.732048
_cell_length_c	22.010155
_cell_angle_alpha	89.999275
_cell_angle_beta	89.996931
_cell_angle_gamma	82.745667
loop_
_atom_site_label
_atom_site_type_symbol
_atom_site_fract_x
_atom_site_fract_y
_atom_site_fract_z
O1	O	0.755138	0.058672	-0.050456
O2	O	0.589257	0.067162	-0.050475
O3	O	0.677350	-0.007472	-0.050453
O4	O	0.667046	0.133306	-0.050477
O5	O	0.677334	-0.007461	0.050597
O6	O	0.589241	0.067173	0.050576
O7	O	0.755122	0.058683	0.050595
Cu8	Cu	0.672180	0.062929	0.059812
Cu9	Cu	0.672199	0.062916	-0.059692
O10	O	0.667030	0.133317	0.050573
C11	C	0.568033	0.066952	0.000048
C12	C	0.504818	0.066302	0.000042
C13	C	0.105629	0.106391	0.000062
C14	C	0.046230	0.105787	0.000066
O15	O	0.009406	0.142951	0.000082
N16	N	0.023699	0.061418	0.000073
C17	C	0.060570	0.017649	0.000082
O18	O	0.035951	-0.020147	0.000088
C19	C	0.119967	0.018253	0.000082
C20	C	0.142495	0.062626	0.000070
C21	C	0.128158	0.150760	0.000050
C22	C	0.187552	0.151364	0.000045
C23	C	0.224419	0.107599	0.000052
C24	C	0.201890	0.063229	0.000065
C25	C	0.156837	-0.025515	0.000096
C26	C	0.216239	-0.024907	0.000097
C27	C	0.238766	0.019466	0.000084
C28	C	0.298151	0.020068	0.000067
N29	N	0.320683	0.064437	0.000060
C30	C	0.283817	0.108203	0.000053
C31	C	-0.064170	0.016383	0.000082
C32	C	-0.123567	0.015778	0.000077
C33	C	-0.137902	0.103917	0.000062
C34	C	-0.078505	0.104521	0.000063
C35	C	-0.041639	0.060753	0.000075
C36	C	0.408551	0.109467	0.000042
C37	C	0.467951	0.110067	0.000035
C38	C	0.482282	0.021928	0.000052
C39	C	0.422886	0.021328	0.000057
C40	C	0.386021	0.065102	0.000053
O41	O	0.335010	-0.017077	0.000054
O42	O	0.308444	0.145992	0.000054
C43	C	0.677125	-0.025473	0.000074
C44	C	0.676474	-0.079129	0.000079
C45	C	0.724431	-0.417871	0.000053
C46	C	0.722014	-0.619534	0.000044
O47	O	0.765867	-0.650722	0.000023
N48	N	0.669779	-0.638738	0.000039
C49	C	0.618144	-0.607523	0.000032
O50	O	0.573659	-0.628484	0.000021
C51	C	0.620561	-0.405860	0.000036
C52	C	0.672800	-0.386659	0.000048
C53	C	0.776665	-0.398669	0.000064
C54	C	0.777269	-0.348256	0.000069
C55	C	0.725638	-0.317045	0.000064
C56	C	0.673403	-0.336247	0.000053
C57	C	0.568927	-0.374646	0.000025
C58	C	0.569536	-0.324228	0.000024
C59	C	0.621775	-0.305027	0.000036
C60	C	0.622376	-0.254622	0.000053
N61	N	0.674611	-0.235418	0.000059
C62	C	0.726242	-0.266630	0.000064
C63	C	0.616879	-0.713399	0.000031
C64	C	0.616274	-0.763814	0.000031
C65	C	0.720145	-0.775822	0.000042
C66	C	0.720749	-0.725406	0.000046
C67	C	0.669114	-0.694195	0.000036
C68	C	0.727506	-0.160758	0.000076
C69	C	0.728105	-0.110341	0.000084
C70	C	0.624235	-0.098337	0.000069
C71	C	0.623635	-0.148751	0.000065
C72	C	0.675276	-0.179961	0.000066
O73	O	0.578547	-0.223406	0.000068
O74	O	0.770721	-0.245659	0.000061
C75	C	0.723827	-0.468283	0.000047
C76	C	0.671593	-0.487485	0.000037
C77	C	0.619962	-0.456274	0.000031
C78	C	0.670988	-0.537900	0.000037
C79	C	0.722619	-0.569112	0.000042
C80	C	0.774855	-0.549908	0.000047
C81	C	0.775458	-0.499495	0.000053
C82	C	0.567727	-0.475478	0.000026
C83	C	0.567127	-0.525891	0.000021
C84	C	0.618758	-0.557103	0.000026
C85	C	0.776346	0.058894	0.000070
C86	C	0.839562	0.059544	0.000073
C87	C	0.667254	0.151319	0.000045
C88	C	0.667905	0.204975	0.000036
N89	N	0.672171	0.062938	0.143864
N90	N	0.672213	0.062903	-0.143744
C91	C	0.711209	0.029873	0.563653
C92	C	0.711211	0.029869	0.627261
O93	O	0.744380	0.001762	0.660160
N94	N	0.672199	0.062906	0.659071
C95	C	0.633177	0.095945	0.627271
O96	O	0.599994	0.124044	0.660169
C97	C	0.633172	0.095945	0.563665
C98	C	0.672191	0.062910	0.531857
C99	C	0.750224	-0.003160	0.531846
C100	C	0.750222	-0.003156	0.468243
C101	C	0.711205	0.029881	0.436447
C102	C	0.672189	0.062914	0.468254
C103	C	0.594148	0.128981	0.531866
C104	C	0.594147	0.128979	0.468255
C105	C	0.633166	0.095943	0.436447
C106	C	0.633170	0.095955	0.372855
N107	N	0.672182	0.062919	0.341045
C108	C	0.711200	0.029881	0.372840
C109	C	0.633190	0.095940	0.760849
C110	C	0.633197	0.095942	0.824454
C111	C	0.711231	0.029866	0.824440
C112	C	0.711226	0.029867	0.760833
C113	C	0.672202	0.062904	0.729038
C114	C	0.711193	0.029893	0.239269
C115	C	0.711189	0.029901	0.175660
C116	C	0.633153	0.095975	0.175680
C117	C	0.633159	0.095969	0.239284
C118	C	0.672181	0.062924	0.271076
O119	O	0.600017	0.124047	0.339915
O120	O	0.744372	0.001783	0.339935
H121	H	0.770646	-0.094710	0.000095
N122	N	0.513847	-0.290560	0.000016
H123	H	0.491043	-0.296706	-0.037447
H124	H	0.491076	-0.296726	0.037497
H125	H	0.246253	-0.060550	0.000107
H126	H	-0.034156	-0.019261	0.000086
N127	N	0.368788	0.156675	0.000034
H128	H	0.343824	0.158395	0.037495
H129	H	0.392115	0.184847	0.000001
N130	N	0.492242	0.157931	0.000024
H131	H	0.516567	0.160152	0.037480
H132	H	0.516537	0.160116	-0.037463
N133	N	0.211846	0.199223	0.000028
H134	H	0.179472	0.226853	0.000024
H135	H	0.236177	0.201403	0.037487
N136	N	0.753286	-0.005742	0.273554
H137	H	0.731723	-0.027059	0.299947
H138	H	0.777989	-0.026630	0.243707
H139	H	0.581099	-0.164385	0.000072
N140	N	0.830540	-0.583580	0.000051
H141	H	0.853357	-0.577433	-0.037405
H142	H	0.853302	-0.577423	0.037538
H143	H	0.404543	-0.014804	0.000058
H144	H	0.781993	-0.030058	0.442349
N145	N	0.552056	0.164607	0.566161
H146	H	0.527009	0.146237	0.592551
H147	H	0.573661	0.185913	0.592518
H148	H	0.098146	0.186402	0.000047
H149	H	0.818712	-0.424077	0.000066
H150	H	0.138506	-0.061648	0.000107
N151	N	0.591072	0.131607	0.141380
H152	H	0.596992	0.126592	0.096260
H153	H	0.550723	0.126192	0.152501
N154	N	0.552059	0.164616	0.433964
H155	H	0.557974	0.159608	0.388843
H156	H	0.511710	0.159203	0.445088
N157	N	0.591075	0.131603	0.273587
H158	H	0.566022	0.113238	0.299975
H159	H	0.612684	0.152904	0.299945
H160	H	0.743000	0.002965	0.850339
N161	N	0.753303	-0.005764	0.726522
H162	H	0.793674	-0.000373	0.737583
H163	H	0.746998	-0.040028	0.737608
N164	N	0.522050	-0.025274	0.000060
H165	H	0.563095	-0.018155	0.000059
H166	H	0.514798	-0.044616	0.037528
N167	N	0.783202	-0.194416	0.000077
H168	H	0.816380	-0.174595	0.000086
H169	H	0.785209	-0.215596	0.037537
N170	N	0.831801	-0.478789	0.000066
H171	H	0.864413	-0.506217	0.000069
H172	H	0.834325	-0.458132	-0.037393
H173	H	0.819807	-0.332628	0.000076
H174	H	-0.060167	0.140653	0.000056
N175	N	0.792317	-0.038792	0.566132
H176	H	0.786410	-0.033786	0.611255
H177	H	0.786045	-0.073056	0.555012
N178	N	-0.177671	0.151123	0.000055
H179	H	-0.218717	0.144003	0.000059
H180	H	-0.170424	0.170477	0.037512
H181	H	-0.141903	-0.020355	0.000078
N182	N	0.777091	-0.704697	0.000059
H183	H	0.809704	-0.732124	0.000064
H184	H	0.779614	-0.684043	-0.037402
H185	H	0.601430	0.122848	0.850347
H186	H	0.762185	-0.801243	0.000047
N187	N	0.591100	0.131576	0.726558
H188	H	0.566389	0.152502	0.756366
H189	H	0.612708	0.152855	0.700164
H190	H	0.573737	-0.779443	0.000032
H191	H	0.574829	-0.687991	0.000022
N192	N	0.512583	-0.395348	0.000020
H193	H	0.479973	-0.367919	0.000015
H194	H	0.510070	-0.416003	-0.037441
N195	N	0.568555	-0.064662	0.000075
H196	H	0.566500	-0.043474	-0.037381
H197	H	0.535396	-0.084501	0.000094
H198	H	0.525681	-0.450070	0.000020
N199	N	0.510777	-0.546593	0.000016
H200	H	0.488187	-0.535188	-0.037446
H201	H	0.518267	-0.583264	0.000037
N202	N	0.753276	-0.005730	0.141354
H203	H	0.777992	-0.026659	0.171152
H204	H	0.731664	-0.027006	0.114963
