data_functionalizedCrystal
_audit_creation_method	'MofGen! by Chris Wilmer'
_symmetry_space_group_name_H-M	'P1'
_symmetry_Int_Tables_number	1
_symmetry_cell_setting	triclinic
loop_
_symmetry_equiv_pos_as_xyz
  x,y,z
_cell_length_a	19.288867
_cell_length_b	17.766277
_cell_length_c	19.288865
_cell_angle_alpha	90.012963
_cell_angle_beta	96.863342
_cell_angle_gamma	90.002427
loop_
_atom_site_label
_atom_site_type_symbol
_atom_site_fract_x
_atom_site_fract_y
_atom_site_fract_z
O1	O	0.921341	-0.062576	-0.086658
O2	O	1.254675	0.270757	0.246675
O3	O	1.588008	0.604090	0.580009
O4	O	0.719081	-0.062585	-0.098345
O5	O	1.052414	0.270748	0.234988
O6	O	1.385748	0.604082	0.568321
O7	O	0.826056	-0.062566	0.008629
O8	O	1.159389	0.270768	0.341962
O9	O	1.492722	0.604101	0.675295
O10	O	0.814367	-0.062596	-0.193632
O11	O	1.147700	0.270738	0.139701
O12	O	1.481034	0.604071	0.473035
O13	O	0.826058	0.062623	0.008639
O14	O	1.159392	0.395956	0.341973
O15	O	1.492725	0.729290	0.675306
O16	O	0.719084	0.062604	-0.098335
O17	O	1.052417	0.395937	0.234999
O18	O	1.385750	0.729270	0.568332
O19	O	0.921344	0.062612	-0.086647
O20	O	1.254677	0.395945	0.246686
O21	O	1.588011	0.729279	0.580019
Cu22	Cu	0.820214	0.074039	-0.092490
Cu23	Cu	1.153547	0.407372	0.240843
Cu24	Cu	1.486881	0.740705	0.574177
Cu25	Cu	0.820211	-0.074011	-0.092503
Cu26	Cu	1.153544	0.259322	0.240831
Cu27	Cu	1.486878	0.592655	0.574164
O28	O	0.814369	0.062593	-0.193621
O29	O	1.147703	0.395926	0.139712
O30	O	1.481036	0.729259	0.473045
C31	C	0.693206	0.000009	-0.097964
C32	C	1.026539	0.333342	0.235370
C33	C	1.359873	0.666675	0.568703
C34	C	0.616102	0.000006	-0.096834
C35	C	0.949436	0.333339	0.236499
C36	C	1.282769	0.666673	0.569833
C37	C	0.060536	-0.068224	-0.088704
C38	C	0.393869	0.265109	0.244630
C39	C	0.727202	0.598442	0.577963
C40	C	0.132983	-0.068227	-0.089761
C41	C	0.466316	0.265106	0.243573
C42	C	0.799650	0.598439	0.576906
C43	C	0.169213	0.000013	-0.090287
C44	C	0.502546	0.333346	0.243046
C45	C	0.835880	0.666679	0.576380
C46	C	0.132992	0.068261	-0.089738
C47	C	0.466325	0.401594	0.243596
C48	C	0.799659	0.734927	0.576929
C49	C	0.060547	0.068262	-0.088674
C50	C	0.393880	0.401595	0.244660
C51	C	0.727213	0.734928	0.577993
C52	C	0.278542	0.052287	-0.132650
C53	C	0.611875	0.385620	0.200683
C54	C	0.945208	0.718954	0.534017
C55	C	0.350985	0.052283	-0.133718
C56	C	0.684318	0.385617	0.199615
C57	C	1.017652	0.718950	0.532948
C58	C	0.392659	0.000012	-0.093566
C59	C	0.725992	0.333346	0.239767
C60	C	1.059325	0.666679	0.573101
C61	C	0.361879	-0.052267	-0.052354
C62	C	0.695213	0.281066	0.280979
C63	C	1.028546	0.614399	0.614313
C64	C	0.289434	-0.052266	-0.051290
C65	C	0.622767	0.281067	0.282044
C66	C	0.956101	0.614400	0.615377
C67	C	0.247768	0.000019	-0.091440
C68	C	0.581101	0.333352	0.241893
C69	C	0.914435	0.666686	0.575226
C70	C	0.507428	-0.068235	-0.095256
C71	C	0.840761	0.265099	0.238077
C72	C	1.174094	0.598432	0.571410
C73	C	0.579877	-0.068235	-0.096309
C74	C	0.913211	0.265099	0.237024
C75	C	1.246544	0.598432	0.570357
C76	C	0.579884	0.068255	-0.096293
C77	C	0.913217	0.401589	0.237040
C78	C	1.246550	0.734922	0.570373
C79	C	0.507437	0.068253	-0.095233
C80	C	0.840770	0.401587	0.238100
C81	C	1.174103	0.734920	0.571433
C82	C	0.471213	0.000006	-0.094718
C83	C	0.804546	0.333340	0.238615
C84	C	1.137879	0.666673	0.571948
N85	N	0.820209	-0.178142	-0.092506
N86	N	1.153543	0.155192	0.240827
N87	N	1.486876	0.488525	0.574160
C88	C	0.867662	-0.217520	-0.045231
C89	C	1.200995	0.115813	0.288103
C90	C	1.534328	0.449147	0.621436
C91	C	0.867668	-0.296322	-0.045229
C92	C	1.201001	0.037011	0.288104
C93	C	1.534334	0.370345	0.621437
C94	C	0.820209	-0.335742	-0.092497
C95	C	1.153543	-0.002409	0.240836
C96	C	1.486876	0.330924	0.574169
C97	C	0.772753	-0.296354	-0.139782
C98	C	1.106087	0.036979	0.193551
C99	C	1.439420	0.370312	0.526885
C100	C	0.772753	-0.217554	-0.139787
C101	C	1.106087	0.115779	0.193547
C102	C	1.439420	0.449113	0.526880
C103	C	0.756922	-0.460591	-0.101642
C104	C	1.090255	-0.127257	0.231691
C105	C	1.423589	0.206076	0.565024
C106	C	0.756921	-0.539390	-0.101633
C107	C	1.090254	-0.206056	0.231700
C108	C	1.423588	0.127277	0.565034
C109	C	0.820210	-0.578789	-0.092488
C110	C	1.153543	-0.245455	0.240846
C111	C	1.486876	0.087878	0.574179
C112	C	0.883502	-0.539379	-0.083337
C113	C	1.216835	-0.206046	0.249997
C114	C	1.550168	0.127288	0.583330
C115	C	0.883502	-0.460579	-0.083341
C116	C	1.216835	-0.127245	0.249992
C117	C	1.550168	0.206088	0.583325
C118	C	0.820204	-0.421188	-0.092498
C119	C	1.153538	-0.087855	0.240835
C120	C	1.486871	0.245479	0.574169
C121	C	0.867673	-0.703613	-0.045208
C122	C	1.201006	-0.370280	0.288126
C123	C	1.534339	-0.036946	0.621459
C124	C	0.867679	-0.782416	-0.045211
C125	C	1.201013	-0.449083	0.288122
C126	C	1.534346	-0.115749	0.621455
C127	C	0.772759	-0.782447	-0.139761
C128	C	1.106092	-0.449114	0.193573
C129	C	1.439426	-0.115780	0.526906
C130	C	0.772758	-0.703645	-0.139760
C131	C	1.106091	-0.370312	0.193573
C132	C	1.439425	-0.036979	0.526906
C133	C	0.820214	-0.664233	-0.092480
C134	C	1.153547	-0.330900	0.240853
C135	C	1.486881	0.002434	0.574186
C136	C	0.947219	0.000017	-0.087029
C137	C	1.280552	0.333350	0.246304
C138	C	1.613886	0.666684	0.579638
C139	C	1.024323	0.000015	-0.088159
C140	C	1.357656	0.333348	0.245175
C141	C	1.690989	0.666681	0.578508
C142	C	0.825681	0.000031	0.034510
C143	C	1.159014	0.333364	0.367844
C144	C	1.492347	0.666698	0.701177
C145	C	0.824552	0.000038	0.111614
C146	C	1.157885	0.333371	0.444947
C147	C	1.491218	0.666704	0.778281
N148	N	0.820221	0.178169	-0.092481
N149	N	1.153555	0.511502	0.240853
N150	N	1.486888	0.844836	0.574186
C151	C	0.814744	-0.000005	-0.219503
C152	C	1.148078	0.333328	0.113830
C153	C	1.481411	0.666661	0.447164
C154	C	0.815873	-0.000017	-0.296607
C155	C	1.149207	0.333316	0.036727
C156	C	1.482540	0.666650	0.370060
C157	C	0.887320	0.000044	0.156310
C158	C	1.220653	0.333377	0.489643
C159	C	1.553986	0.666711	0.822976
C160	C	0.886259	0.000032	0.228757
C161	C	1.219592	0.333365	0.562090
C162	C	1.552926	0.666699	0.895424
C163	C	0.822427	0.000029	0.256505
C164	C	1.155760	0.333362	0.589838
C165	C	1.489093	0.666695	0.923172
C166	C	0.759651	0.000018	0.211799
C167	C	1.092984	0.333352	0.545133
C168	C	1.426317	0.666685	0.878466
C169	C	0.760713	0.000023	0.139354
C170	C	1.094047	0.333356	0.472687
C171	C	1.427380	0.666689	0.806020
C172	C	0.772248	0.043877	0.364796
C173	C	1.105582	0.377211	0.698130
C174	C	1.438915	0.710544	1.031463
C175	C	0.771188	0.043878	0.437241
C176	C	1.104522	0.377211	0.770574
C177	C	1.437855	0.710544	1.103908
C178	C	0.819147	0.000012	0.479951
C179	C	1.152481	0.333345	0.813284
C180	C	1.485814	0.666678	1.146617
C181	C	0.868178	-0.043845	0.450208
C182	C	1.201511	0.289489	0.783542
C183	C	1.534844	0.622822	1.116875
C184	C	0.869240	-0.043840	0.377763
C185	C	1.202573	0.289493	0.711096
C186	C	1.535907	0.622826	1.044430
C187	C	0.821268	0.000024	0.335059
C188	C	1.154601	0.333357	0.668392
C189	C	1.487934	0.666690	1.001726
C190	C	0.880769	0.000004	0.603202
C191	C	1.214103	0.333337	0.936536
C192	C	1.547436	0.666671	1.269869
C193	C	0.879706	-0.000013	0.675650
C194	C	1.213039	0.333321	1.008984
C195	C	1.546373	0.666654	1.342317
C196	C	0.753096	-0.000019	0.658691
C197	C	1.086429	0.333315	0.992024
C198	C	1.419763	0.666648	1.325358
C199	C	0.754161	-0.000010	0.586245
C200	C	1.087494	0.333324	0.919578
C201	C	1.420828	0.666657	1.252911
C202	C	0.818000	0.000005	0.558505
C203	C	1.151333	0.333339	0.891838
C204	C	1.484666	0.666672	1.225172
H205	H	0.162473	-0.123798	-0.090209
H206	H	0.495806	0.209536	0.243125
H207	H	0.829140	0.542869	0.576458
H208	H	0.731262	0.079584	0.461451
H209	H	1.064595	0.412917	0.794784
H210	H	1.397929	0.746251	1.128117
H211	H	0.734111	-0.185492	-0.178285
H212	H	1.067444	0.147842	0.155048
H213	H	1.400778	0.481175	0.488381
Cl214	Cl	0.713097	-0.654136	-0.199192
Cl215	Cl	1.046430	-0.320803	0.134141
Cl216	Cl	1.379764	0.012530	0.467475
Cl217	Cl	0.677357	-0.588925	-0.113198
Cl218	Cl	1.010690	-0.255592	0.220136
Cl219	Cl	1.344023	0.077742	0.553469
Cl220	Cl	0.967574	0.000041	0.121441
Cl221	Cl	1.300907	0.333375	0.454774
Cl222	Cl	1.634240	0.666708	0.788107
H223	H	0.734120	-0.814543	-0.178250
H224	H	1.067453	-0.481209	0.155083
H225	H	1.400787	-0.147876	0.488417
H226	H	0.906305	-0.185433	-0.006734
H227	H	1.239638	0.147901	0.326599
H228	H	1.572971	0.481234	0.659933
H229	H	0.937374	0.000034	0.265155
H230	H	1.270707	0.333367	0.598489
H231	H	1.604040	0.666701	0.931822
H232	H	0.031062	0.123832	-0.088232
H233	H	0.364396	0.457165	0.245101
H234	H	0.697729	0.790499	0.578434
H235	H	0.705381	-0.428519	-0.109093
H236	H	1.038714	-0.095185	0.224240
H237	H	1.372048	0.238148	0.557574
Cl238	Cl	0.015001	-0.154021	-0.088051
Cl239	Cl	0.348335	0.179313	0.245283
Cl240	Cl	0.681668	0.512646	0.578616
H241	H	0.734113	-0.328454	-0.178270
H242	H	1.067446	0.004879	0.155064
H243	H	1.400780	0.338212	0.488397
Cl244	Cl	0.711953	0.099031	0.311111
Cl245	Cl	1.045286	0.432364	0.644445
Cl246	Cl	1.378619	0.765698	0.977778
H247	H	0.906325	-0.814479	-0.006716
H248	H	1.239658	-0.481145	0.326618
H249	H	1.572991	-0.147812	0.659951
H250	H	0.707678	0.000014	0.234396
H251	H	1.041012	0.333347	0.567730
H252	H	1.374345	0.666681	0.901063
H253	H	0.376037	0.094837	-0.167293
H254	H	0.709371	0.428170	0.166041
H255	H	1.042704	0.761503	0.499374
H256	H	0.264377	-0.094833	-0.017732
H257	H	0.597710	0.238500	0.315601
H258	H	0.931043	0.571834	0.648934
H259	H	0.395809	-0.094833	-0.019660
H260	H	0.729142	0.238500	0.313673
H261	H	1.062475	0.571833	0.647007
Cl262	Cl	0.958622	-0.000010	0.731841
Cl263	Cl	1.291955	0.333324	1.065175
Cl264	Cl	1.625288	0.666657	1.398508
Cl265	Cl	0.930871	-0.098976	0.340374
Cl266	Cl	1.264204	0.234357	0.673707
Cl267	Cl	1.597538	0.567690	1.007041
Cl268	Cl	0.461886	-0.154029	-0.094604
Cl269	Cl	0.795220	0.179305	0.238730
Cl270	Cl	1.128553	0.512638	0.572063
H271	H	0.609361	-0.123805	-0.096748
H272	H	0.942695	0.209528	0.236585
H273	H	1.276028	0.542861	0.569919
Cl274	Cl	0.963065	-0.411038	-0.071845
Cl275	Cl	1.296398	-0.077705	0.261488
Cl276	Cl	1.629732	0.255629	0.594821
Cl277	Cl	0.928472	-0.098996	0.503892
Cl278	Cl	1.261806	0.234338	0.837226
Cl279	Cl	1.595139	0.567671	1.170559
H280	H	0.244616	0.094861	-0.165344
H281	H	0.577950	0.428194	0.167990
H282	H	0.911283	0.761527	0.501323
H283	H	0.477951	0.123821	-0.094792
H284	H	0.811285	0.457154	0.238541
H285	H	1.144618	0.790488	0.571875
H286	H	0.932750	0.000013	0.580616
H287	H	1.266084	0.333346	0.913949
H288	H	1.599417	0.666679	1.247282
H289	H	0.609382	0.123818	-0.096719
H290	H	0.942715	0.457151	0.236614
H291	H	1.276049	0.790484	0.569948
Cl292	Cl	0.681798	0.000015	0.083161
Cl293	Cl	1.015132	0.333348	0.416495
Cl294	Cl	1.348465	0.666682	0.749828
Cl295	Cl	0.672849	-0.000027	0.693567
Cl296	Cl	1.006182	0.333306	1.026901
Cl297	Cl	1.339516	0.666640	1.360234
H298	H	0.162495	0.123822	-0.090165
H299	H	0.495829	0.457155	0.243169
H300	H	0.829162	0.790489	0.576502
Cl301	Cl	0.927327	-0.345834	0.014209
Cl302	Cl	1.260660	-0.012501	0.347542
Cl303	Cl	1.593994	0.320832	0.680876
Cl304	Cl	0.963070	-0.588900	-0.071834
Cl305	Cl	1.296404	-0.255567	0.261499
Cl306	Cl	1.629737	0.077767	0.594832
H307	H	0.906316	-0.671522	-0.006711
H308	H	1.239650	-0.338189	0.326622
H309	H	1.572983	-0.004855	0.659955
H310	H	0.703049	-0.000011	0.549852
H311	H	1.036382	0.333323	0.883185
H312	H	1.369715	0.666656	1.216519
