data_functionalizedCrystal
_audit_creation_method	'MofGen! by Chris Wilmer'
_symmetry_space_group_name_H-M	'P1'
_symmetry_Int_Tables_number	1
_symmetry_cell_setting	triclinic
loop_
_symmetry_equiv_pos_as_xyz
  x,y,z
_cell_length_a	10.967926
_cell_length_b	10.654551
_cell_length_c	9.482900
_cell_angle_alpha	99.428019
_cell_angle_beta	92.549900
_cell_angle_gamma	84.600089
loop_
_atom_site_label
_atom_site_type_symbol
_atom_site_fract_x
_atom_site_fract_y
_atom_site_fract_z
O1	O	1.612052	0.221773	0.282989
O2	O	1.262861	0.224528	0.195502
O3	O	1.445484	0.040734	0.241256
O4	O	1.429428	0.405566	0.237235
O5	O	1.408391	0.078224	0.473755
O6	O	1.225767	0.262017	0.428002
O7	O	1.574958	0.259263	0.515488
Cu8	Cu	1.396976	0.264063	0.492974
Cu9	Cu	1.440843	0.219727	0.218016
O10	O	1.392335	0.443056	0.469734
C11	C	1.199602	0.240239	0.300550
C12	C	1.066373	0.231186	0.267170
C13	C	0.987760	0.246571	0.372730
C14	C	0.850060	0.237215	0.338233
C15	C	1.425759	0.012633	0.357207
C16	C	1.422232	-0.126954	0.356314
C17	C	1.440797	-0.212968	0.229166
C18	C	1.437471	-0.344121	0.228340
C19	C	1.397019	-0.303233	0.481821
C20	C	1.400337	-0.172082	0.482644
C21	C	1.462692	-0.167839	0.102837
C22	C	1.481260	-0.253855	-0.024321
C23	C	1.477933	-0.385008	-0.025148
C24	C	1.456040	-0.430146	0.101183
C25	C	1.638218	0.243550	0.410438
C26	C	1.771448	0.252602	0.443808
C27	C	1.412061	0.471157	0.353780
C28	C	1.415589	0.610742	0.354664
N29	N	1.366130	0.295246	0.686366
N30	N	1.471698	0.188534	0.024627
C31	C	1.431737	0.228918	0.775002
C32	C	1.406082	0.254873	0.935992
H33	H	0.815428	0.217112	0.222313
H34	H	1.493039	-0.455039	-0.128688
H35	H	1.506894	0.152910	0.731704
H36	H	1.499073	-0.217094	-0.127177
C37	C	1.373083	-0.352396	0.618824
C38	C	1.266963	-0.417482	0.599922
C39	C	1.244887	-0.462800	0.726095
H40	H	1.362417	-0.282502	0.694768
H41	H	1.440760	-0.408904	0.641276
H42	H	1.199303	-0.360978	0.577488
H43	H	1.277603	-0.487393	0.524002
H44	H	1.312564	-0.519308	0.748548
H45	H	1.234226	-0.392899	0.802031
H46	H	1.172890	-0.506976	0.713284
C47	C	1.380185	-0.078891	0.620841
C48	C	1.360328	-0.146483	0.731306
C49	C	1.341756	-0.060677	0.858634
H50	H	1.310770	-0.020732	0.609100
H51	H	1.450491	-0.033007	0.644035
H52	H	1.290030	-0.192345	0.708117
H53	H	1.429731	-0.204637	0.743092
H54	H	1.412061	-0.014794	0.881829
H55	H	1.272341	-0.002523	0.846879
H56	H	1.328292	-0.106526	0.933603
C57	C	1.305670	0.356054	0.993584
C58	C	1.193124	0.324427	0.928521
C59	C	1.100597	0.417592	0.981555
H60	H	1.323242	0.436722	0.973177
H61	H	1.301664	0.360020	1.094108
H62	H	1.197132	0.320475	0.828020
H63	H	1.175514	0.243774	0.948922
H64	H	1.096591	0.421558	1.082080
H65	H	1.118181	0.498254	0.961145
H66	H	1.024223	0.396140	0.937428
H67	H	1.546860	0.112523	0.981333
H68	H	1.290965	0.371244	0.729664
H69	H	0.806080	0.272697	0.559729
C70	C	1.033896	0.273111	0.527326
C71	C	1.003951	0.176015	0.599373
C72	C	1.046443	0.200410	0.741786
H73	H	0.996623	0.352834	0.572353
H74	H	1.120319	0.275778	0.530030
H75	H	0.917545	0.173361	0.596677
H76	H	1.041222	0.096282	0.554389
H77	H	1.132866	0.203077	0.744490
H78	H	1.009167	0.280135	0.786800
H79	H	1.026141	0.134530	0.790684
C80	C	1.019954	0.204460	0.112698
C81	C	0.892599	0.200537	0.109191
C82	C	0.849797	0.175936	-0.033087
H83	H	1.057135	0.124677	0.067714
H84	H	1.040111	0.270238	0.063550
H85	H	0.872452	0.134763	0.158319
H86	H	0.855386	0.280308	0.154146
H87	H	0.869955	0.241714	-0.082235
H88	H	0.886987	0.096155	-0.078059
H89	H	0.763383	0.173283	-0.035485
H90	H	1.465406	-0.061051	0.103496
H91	H	1.453316	-0.536940	0.100495
