data_functionalizedCrystal
_audit_creation_method	'MofGen! by Chris Wilmer'
_symmetry_space_group_name_H-M	'P1'
_symmetry_Int_Tables_number	1
_symmetry_cell_setting	triclinic
loop_
_symmetry_equiv_pos_as_xyz
  x,y,z
_cell_length_a	23.532407
_cell_length_b	23.532407
_cell_length_c	22.610064
_cell_angle_alpha	89.999397
_cell_angle_beta	89.997161
_cell_angle_gamma	82.848678
loop_
_atom_site_label
_atom_site_type_symbol
_atom_site_fract_x
_atom_site_fract_y
_atom_site_fract_z
O1	O	0.755263	0.069127	-0.049117
O2	O	0.589400	0.079130	-0.049135
O3	O	0.677333	-0.008803	-0.049114
O4	O	0.667330	0.157060	-0.049137
O5	O	0.677318	-0.008790	0.049255
O6	O	0.589385	0.079143	0.049234
O7	O	0.755248	0.069140	0.049252
Zn8	Zn	0.672314	0.074144	0.064862
Zn9	Zn	0.672334	0.074127	-0.064744
O10	O	0.667315	0.157073	0.049232
C11	C	0.568176	0.078882	0.000048
C12	C	0.504959	0.078116	0.000041
C13	C	0.105856	0.125350	0.000061
C14	C	0.046456	0.124638	0.000065
O15	O	0.009711	0.168424	0.000081
N16	N	0.023830	0.072362	0.000071
C17	C	0.060607	0.020794	0.000080
O18	O	0.035908	-0.023737	0.000086
C19	C	0.120006	0.021506	0.000080
C20	C	0.142629	0.073785	0.000068
C21	C	0.128479	0.177625	0.000050
C22	C	0.187876	0.178336	0.000045
C23	C	0.224649	0.126772	0.000052
C24	C	0.202025	0.074497	0.000063
C25	C	0.156783	-0.030062	0.000093
C26	C	0.216185	-0.029345	0.000094
C27	C	0.238808	0.022934	0.000082
C28	C	0.298194	0.023643	0.000065
N29	N	0.320820	0.075920	0.000059
C30	C	0.284048	0.127484	0.000052
C31	C	-0.064135	0.019302	0.000080
C32	C	-0.123533	0.018589	0.000075
C33	C	-0.137680	0.122434	0.000061
C34	C	-0.078281	0.123146	0.000062
C35	C	-0.041509	0.071578	0.000074
C36	C	0.408784	0.128974	0.000042
C37	C	0.468186	0.129680	0.000034
C38	C	0.482329	0.025836	0.000051
C39	C	0.422932	0.025129	0.000055
C40	C	0.386160	0.076702	0.000052
O41	O	0.334974	-0.020119	0.000052
O42	O	0.308755	0.172007	0.000054
C43	C	0.677071	-0.030013	0.000072
C44	C	0.676305	-0.093230	0.000076
C45	C	0.723539	-0.492333	0.000049
C46	C	0.722827	-0.551733	0.000044
O47	O	0.766613	-0.588478	0.000027
N48	N	0.670551	-0.574359	0.000039
C49	C	0.618983	-0.537582	0.000032
O50	O	0.574452	-0.562281	0.000027
C51	C	0.619695	-0.478182	0.000033
C52	C	0.671974	-0.455560	0.000044
C53	C	0.775814	-0.469710	0.000060
C54	C	0.776525	-0.410313	0.000065
C55	C	0.724961	-0.373540	0.000060
C56	C	0.672685	-0.396164	0.000050
C57	C	0.568127	-0.441406	0.000022
C58	C	0.568844	-0.382004	0.000021
C59	C	0.621123	-0.359381	0.000033
C60	C	0.621832	-0.299995	0.000050
N61	N	0.674109	-0.277368	0.000056
C62	C	0.725673	-0.314141	0.000061
C63	C	0.617491	-0.662324	0.000031
C64	C	0.616778	-0.721722	0.000034
C65	C	0.720623	-0.735869	0.000045
C66	C	0.721335	-0.676470	0.000046
C67	C	0.669767	-0.639698	0.000036
C68	C	0.727163	-0.189405	0.000073
C69	C	0.727869	-0.130003	0.000081
C70	C	0.624025	-0.115860	0.000067
C71	C	0.623318	-0.175257	0.000062
C72	C	0.674891	-0.212029	0.000063
O73	O	0.578070	-0.263215	0.000065
O74	O	0.770196	-0.289433	0.000058
C75	C	0.776472	0.069388	0.000069
C76	C	0.839689	0.070154	0.000071
C77	C	0.667577	0.178283	0.000045
C78	C	0.668343	0.241500	0.000036
N79	N	0.672304	0.074155	0.153314
N80	N	0.672349	0.074111	-0.153196
C81	C	0.711273	0.035196	0.561965
C82	C	0.711276	0.035192	0.623884
O83	O	0.744384	0.002076	0.655911
N84	N	0.672334	0.074115	0.654851
C85	C	0.633383	0.113041	0.623895
O86	O	0.600259	0.146147	0.655920
C87	C	0.633377	0.113042	0.561976
C88	C	0.672326	0.074120	0.531013
C89	C	0.750218	-0.003724	0.531001
C90	C	0.750215	-0.003719	0.469085
C91	C	0.711268	0.035206	0.438133
C92	C	0.672323	0.074125	0.469097
C93	C	0.594424	0.151965	0.531021
C94	C	0.594422	0.151962	0.469098
C95	C	0.633370	0.113040	0.438134
C96	C	0.633374	0.113054	0.376229
N97	N	0.672316	0.074131	0.345262
C98	C	0.711263	0.035207	0.376214
C99	C	0.633396	0.113035	0.753928
C100	C	0.633403	0.113037	0.815846
C101	C	0.711296	0.035187	0.815831
C102	C	0.711291	0.035188	0.753913
C103	C	0.672338	0.074112	0.722962
C104	C	0.711255	0.035220	0.246187
C105	C	0.711251	0.035230	0.184266
C106	C	0.633357	0.113078	0.184286
C107	C	0.633363	0.113071	0.246202
C108	C	0.672314	0.074137	0.277151
O109	O	0.600281	0.146152	0.344163
O110	O	0.744376	0.002101	0.344182
H111	H	0.512280	-0.016146	0.000054
N112	N	0.792219	-0.045702	0.435692
H113	H	0.832600	-0.039350	0.446467
H114	H	0.785838	-0.086070	0.446486
H115	H	0.206289	0.220908	0.000035
N116	N	0.591355	0.155055	0.279595
H117	H	0.566263	0.133417	0.305283
H118	H	0.613010	0.180151	0.305254
H119	H	0.486602	0.172255	0.000024
H120	H	0.743005	0.003494	0.728706
N121	N	0.255847	-0.084966	0.000110
H122	H	0.232498	-0.118189	0.000119
H123	H	0.280802	-0.086943	-0.036357
H124	H	0.580748	-0.193677	0.000069
H125	H	0.770443	-0.111587	0.000092
N126	N	0.511742	-0.465802	0.000002
H127	H	0.509118	-0.490133	0.036464
H128	H	0.479220	-0.433458	-0.000028
N129	N	0.591351	0.155060	0.150896
H130	H	0.597261	0.149151	0.106973
H131	H	0.550991	0.148680	0.161722
N132	N	0.753272	-0.006767	0.279559
H133	H	0.778364	0.014869	0.305246
H134	H	0.731623	-0.031872	0.305217
N135	N	0.552404	0.193945	0.435720
H136	H	0.558730	0.234333	0.446498
H137	H	0.558328	0.187996	0.391806
H138	H	-0.167632	0.164421	0.000059
N139	N	0.753305	-0.006797	0.849221
H140	H	0.747393	-0.000890	0.893144
H141	H	0.746956	-0.047167	0.838400
N142	N	0.132392	-0.086450	0.000115
H143	H	0.108064	-0.089076	-0.036348
H144	H	0.164739	-0.118969	0.000146
H145	H	0.098544	0.219617	0.000046
H146	H	0.378851	0.170970	0.000041
N147	N	0.513223	-0.342342	0.000008
H148	H	0.480000	-0.365691	0.000000
H149	H	0.511246	-0.317390	0.036476
H150	H	-0.059867	0.165717	0.000055
N151	N	0.591398	0.155020	0.849239
H152	H	0.566726	0.179676	0.820230
H153	H	0.566347	0.133340	0.874928
H154	H	-0.141947	-0.023982	0.000076
N155	N	0.792237	-0.045701	0.564379
H156	H	0.816907	-0.070349	0.535359
H157	H	0.817289	-0.024015	0.590058
N158	N	0.782787	-0.229060	0.000074
H159	H	0.816007	-0.205707	0.000083
H160	H	0.784749	-0.254014	0.036540
N161	N	0.591389	0.155027	0.720545
H162	H	0.566293	0.133396	0.694858
H163	H	0.566762	0.179673	0.749597
N164	N	0.560388	-0.746112	0.000029
H165	H	0.557779	-0.770438	-0.036439
H166	H	0.557801	-0.770414	0.036516
N167	N	0.568411	-0.076193	0.000078
H168	H	0.576799	-0.035132	0.000085
H169	H	0.545612	-0.083476	-0.036390
H170	H	-0.034198	-0.022693	0.000084
H171	H	0.404512	-0.017441	0.000056
H172	H	0.819097	-0.391900	0.000072
N173	N	0.561868	-0.622664	0.000025
H174	H	0.528647	-0.646015	0.000023
H175	H	0.559894	-0.597711	0.036492
H176	H	0.763906	-0.658056	0.000054
N177	N	0.831434	-0.509367	0.000066
H178	H	0.864653	-0.486012	0.000073
H179	H	0.833396	-0.534317	0.036534
N180	N	0.776241	-0.775538	0.000051
H181	H	0.767853	-0.816598	0.000047
H182	H	0.799045	-0.768246	-0.036413
N183	N	0.753263	-0.006749	0.150870
H184	H	0.777934	-0.031409	0.179877
H185	H	0.731605	-0.031816	0.125179
H186	H	0.562709	0.183658	0.556223
