data_functionalizedCrystal
_audit_creation_method	'MofGen! by Chris Wilmer'
_symmetry_space_group_name_H-M	'P1'
_symmetry_Int_Tables_number	1
_symmetry_cell_setting	triclinic
loop_
_symmetry_equiv_pos_as_xyz
  x,y,z
_cell_length_a	13.185408
_cell_length_b	10.967953
_cell_length_c	10.065918
_cell_angle_alpha	87.756828
_cell_angle_beta	101.891450
_cell_angle_gamma	68.729493
loop_
_atom_site_label
_atom_site_type_symbol
_atom_site_fract_x
_atom_site_fract_y
_atom_site_fract_z
O1	O	1.468048	-0.305573	0.185260
O2	O	1.147818	-0.182329	0.156298
O3	O	1.320603	-0.423783	0.213069
O4	O	1.295263	-0.064118	0.128490
O5	O	1.292465	-0.446150	-0.008658
O6	O	1.119680	-0.204696	-0.065428
O7	O	1.439910	-0.327939	-0.036466
Zn8	Zn	1.275327	-0.269869	-0.086151
Zn9	Zn	1.312400	-0.240399	0.205983
O10	O	1.267125	-0.086485	-0.093237
C11	C	1.092843	-0.181018	0.042499
C12	C	0.970958	-0.143803	0.033756
C13	C	0.898148	-0.011302	0.002600
C14	C	0.783628	0.023665	-0.005635
C15	C	0.741908	-0.073864	0.017295
C16	C	0.814720	-0.206367	0.048461
C17	C	0.929250	-0.241339	0.056687
C18	C	0.773010	-0.303900	0.071382
C19	C	0.845821	-0.436403	0.102549
C20	C	0.960340	-0.471368	0.110774
C21	C	1.002060	-0.373839	0.087843
C22	C	0.658479	-0.268928	0.063157
C23	C	0.689581	-0.498965	0.117244
C24	C	0.804102	-0.533932	0.125479
C25	C	1.306817	-0.480029	0.112806
C26	C	1.307647	-0.614297	0.144389
C27	C	1.294290	-0.824518	0.076234
C28	C	1.293437	-0.685747	0.043595
C29	C	1.494885	-0.329250	0.077336
C30	C	1.616771	-0.366464	0.086088
C31	C	1.280911	-0.030239	0.007030
C32	C	1.280083	0.104030	-0.024545
N33	N	1.250034	-0.289984	-0.285524
C34	C	1.303593	-0.247395	-0.363323
C35	C	1.284136	-0.262891	-0.516844
N36	N	1.337702	-0.220297	0.405359
H37	H	0.655622	-0.578375	0.135977
H38	H	1.189780	-0.337922	-0.332574
H39	H	0.724352	0.131548	-0.031011
H40	H	0.599206	-0.161044	0.037779
O41	O	1.277976	-0.636025	-0.088174
C42	C	1.163951	-0.462842	-0.272267
C43	C	1.181314	-0.519027	-0.123040
H44	H	1.085815	-0.368225	-0.300493
H45	H	1.153305	-0.538135	-0.343149
H46	H	1.239939	-0.440527	-0.283603
H47	H	1.105355	-0.541337	-0.111571
H48	H	1.192008	-0.443702	-0.052230
H49	H	1.307092	-0.866086	0.186679
O50	O	1.409514	-0.163076	-0.538328
C51	C	1.494459	-0.095570	-0.333943
C52	C	1.413089	-0.160372	-0.397546
H53	H	1.497394	-0.093388	-0.220106
H54	H	1.464544	0.009463	-0.386563
H55	H	1.581749	-0.154903	-0.348068
H56	H	1.325776	-0.101145	-0.383438
H57	H	1.443098	-0.265416	-0.344917
H58	H	1.223878	-0.310833	-0.563888
O59	O	0.630642	-0.039668	0.009312
C60	C	0.449224	0.136726	-0.032245
C61	C	0.575214	0.098176	-0.023224
H62	H	0.404370	0.248171	-0.058579
H63	H	0.436730	0.104706	0.070305
H64	H	0.413286	0.085812	-0.115239
H65	H	0.611235	0.149072	0.059710
H66	H	0.587631	0.130170	-0.125830
H67	H	1.363855	-0.199468	-0.316271
H68	H	0.932127	0.068090	-0.016077
O69	O	1.322716	-0.663825	0.276120
C70	C	1.246003	-0.747683	0.439247
C71	C	1.228781	-0.691581	0.290028
H72	H	1.170081	-0.770166	0.450534
H73	H	1.256503	-0.672312	0.510100
H74	H	1.324228	-0.842198	0.467557
H75	H	1.150553	-0.597083	0.261589
H76	H	1.218347	-0.767038	0.219260
O77	O	1.030922	-0.600136	0.141108
C78	C	1.049670	-0.824617	0.193799
C79	C	0.969620	-0.678837	0.159491
H80	H	1.000136	-0.888292	0.208643
H81	H	1.115823	-0.837459	0.291834
H82	H	1.092314	-0.856032	0.106214
H83	H	0.926897	-0.647326	0.246989
H84	H	0.903536	-0.666076	0.061413
O85	O	0.874688	-0.662697	0.155821
C86	C	0.893451	-0.887182	0.208527
C87	C	0.813393	-0.741406	0.174206
H88	H	0.843922	-0.950863	0.223373
H89	H	0.959598	-0.900013	0.306564
H90	H	0.936101	-0.918599	0.120947
H91	H	0.770663	-0.709892	0.261699
H92	H	0.747314	-0.728657	0.076126
O93	O	1.264623	-0.846243	-0.156308
C94	C	1.150597	-0.673060	-0.340400
C95	C	1.167960	-0.729245	-0.191173
H96	H	1.072462	-0.578443	-0.368626
H97	H	1.139952	-0.748353	-0.411282
H98	H	1.226585	-0.650745	-0.351737
H99	H	1.092002	-0.751555	-0.179704
H100	H	1.178655	-0.653920	-0.120363
H101	H	1.095310	-0.402303	0.094543
