data_functionalizedCrystal
_audit_creation_method	'MofGen! by Chris Wilmer'
_symmetry_space_group_name_H-M	'P1'
_symmetry_Int_Tables_number	1
_symmetry_cell_setting	triclinic
loop_
_symmetry_equiv_pos_as_xyz
  x,y,z
_cell_length_a	19.805407
_cell_length_b	19.805405
_cell_length_c	19.805399
_cell_angle_alpha	89.970699
_cell_angle_beta	89.980427
_cell_angle_gamma	90.026410
loop_
_atom_site_label
_atom_site_type_symbol
_atom_site_fract_x
_atom_site_fract_y
_atom_site_fract_z
Zn1	Zn	1.034736	-0.269479	-0.382712
Zn2	Zn	1.034651	-0.382667	-0.269520
Zn3	Zn	0.921550	-0.269498	-0.269536
Zn4	Zn	0.921514	-0.382631	-0.382667
O5	O	0.978113	-0.326069	-0.326109
O6	O	1.129441	-0.284501	-0.367708
O7	O	1.019627	-0.367678	-0.174805
O8	O	0.936616	-0.174778	-0.284575
O9	O	1.129378	-0.367660	-0.284547
O10	O	1.019772	-0.174765	-0.367724
O11	O	0.936533	-0.284533	-0.174817
O12	O	0.826829	-0.284498	-0.284531
O13	O	0.936553	-0.367598	-0.477389
O14	O	0.826802	-0.367617	-0.367648
O15	O	1.019737	-0.284466	-0.477422
O16	O	1.019592	-0.477379	-0.284503
O17	O	0.936471	-0.477353	-0.367632
C18	C	0.802257	-0.326056	-0.326087
C19	C	0.727025	-0.326067	-0.326093
C20	C	0.691684	-0.369412	-0.369302
C21	C	0.620996	-0.369413	-0.369312
C22	C	0.585649	-0.326072	-0.326109
C23	C	0.620994	-0.282722	-0.282898
C24	C	0.691681	-0.282718	-0.282892
C25	C	0.335921	-0.282737	-0.282920
C26	C	0.265229	-0.282746	-0.282928
C27	C	0.265235	-0.369432	-0.369340
C28	C	0.335922	-0.369428	-0.369334
C29	C	0.371262	-0.326076	-0.326126
C30	C	0.447910	-0.326074	-0.326117
C31	C	0.509002	-0.326076	-0.326114
C32	C	0.978036	-0.501925	-0.326076
C33	C	0.978066	-0.577157	-0.326084
C34	C	1.021389	-0.612492	-0.282845
C35	C	1.021418	-0.683181	-0.282860
C36	C	0.978119	-0.718532	-0.326111
C37	C	0.934794	-0.683192	-0.369356
C38	C	0.934769	-0.612505	-0.369344
C39	C	0.934894	-0.968265	-0.369406
C40	C	0.934921	-1.038957	-0.369413
C41	C	1.021542	-1.038941	-0.282922
C42	C	1.021517	-0.968254	-0.282910
C43	C	0.978195	-0.932920	-0.326157
C44	C	0.978166	-0.856271	-0.326141
C45	C	0.978145	-0.795179	-0.326124
C46	C	1.154655	-0.326082	-0.326131
C47	C	1.229887	-0.326088	-0.326140
C48	C	0.978151	-0.326026	-0.502651
C49	C	0.978167	-0.326008	-0.577883
C50	C	0.978207	-0.149526	-0.326156
C51	C	0.978248	-0.074294	-0.326177
C52	C	1.021481	-0.282719	-0.613246
C53	C	1.021488	-0.282699	-0.683934
C54	C	0.978184	-0.325973	-0.719259
C55	C	0.934864	-0.369264	-0.683892
C56	C	0.934854	-0.369279	-0.613204
C57	C	0.934902	-0.369201	-0.968965
C58	C	0.934917	-0.369183	-1.039657
C59	C	1.021536	-0.282620	-1.039695
C60	C	1.021527	-0.282636	-0.969008
C61	C	0.978205	-0.325924	-0.933647
C62	C	0.978197	-0.325944	-0.856998
C63	C	0.978194	-0.325957	-0.795906
C64	C	0.978114	-0.326062	-0.150253
C65	C	0.978229	-0.325890	-0.075021
H66	H	0.592209	-0.247430	-0.247724
H67	H	0.720458	-0.404707	-0.404481
H68	H	0.899543	-0.711981	-0.404575
H69	H	1.056644	-0.583713	-0.247621
H70	H	0.592225	-0.404709	-0.404496
H71	H	0.720455	-0.247418	-0.247711
O72	O	0.370288	-0.411599	-0.411206
C73	C	0.450100	-0.502956	-0.420148
C74	C	0.411212	-0.455253	-0.372646
H75	H	0.483207	-0.538252	-0.388992
H76	H	0.412730	-0.533985	-0.451023
H77	H	0.483190	-0.471906	-0.455604
H78	H	0.378122	-0.486251	-0.337149
H79	H	0.448619	-0.424221	-0.341818
O80	O	1.063524	-0.240743	-0.578830
C81	C	1.101865	-0.202363	-0.469953
C82	C	1.054231	-0.249950	-0.508842
H83	H	1.094358	-0.209780	-0.413361
H84	H	1.156454	-0.214246	-0.483807
H85	H	1.090012	-0.147791	-0.483908
H86	H	1.066023	-0.304539	-0.494907
H87	H	0.999656	-0.238009	-0.494984
O88	O	0.892776	-0.933870	-0.411313
C89	C	0.801333	-0.854160	-0.420313
C90	C	0.849003	-0.893064	-0.372777
H91	H	0.765921	-0.821171	-0.389175
H92	H	0.832336	-0.820972	-0.455719
H93	H	0.770418	-0.891580	-0.451241
H94	H	0.879927	-0.855693	-0.341805
H95	H	0.817960	-0.926263	-0.337416
O96	O	1.063631	-0.240629	-0.718180
C97	C	1.149525	-0.154747	-0.710758
C98	C	1.101843	-0.202370	-0.671891
H99	H	1.180422	-0.123792	-0.673350
H100	H	1.184947	-0.185787	-0.743833
H101	H	1.118466	-0.119370	-0.743873
H102	H	1.132848	-0.237756	-0.638740
H103	H	1.066419	-0.171288	-0.638859
O104	O	1.063521	-0.717401	-0.240791
C105	C	1.149462	-0.709925	-0.155022
C106	C	1.101800	-0.671087	-0.202621
H107	H	1.180433	-0.672498	-0.124160
H108	H	1.118451	-0.743051	-0.119564
H109	H	1.184821	-0.742986	-0.186145
H110	H	1.066432	-0.637990	-0.171553
H111	H	1.132853	-0.638004	-0.238081
O112	O	1.063642	-0.934019	-0.240874
C113	C	1.149540	-0.941465	-0.155060
C114	C	1.101877	-0.980319	-0.202640
H115	H	1.180456	-0.978881	-0.124125
H116	H	1.184946	-0.908340	-0.186133
H117	H	1.118464	-0.908401	-0.119663
H118	H	1.132898	-1.013419	-0.238047
H119	H	1.066470	-1.013400	-0.171526
H120	H	0.899576	-0.404523	-0.584413
O121	O	0.892860	-0.411277	-0.718309
C122	C	0.854455	-0.449590	-0.827187
C123	C	0.902070	-0.401985	-0.788296
H124	H	0.861875	-0.442084	-0.883779
H125	H	0.866309	-0.504187	-0.813325
H126	H	0.799890	-0.437708	-0.813241
H127	H	0.956651	-0.413806	-0.802222
H128	H	0.890159	-0.347403	-0.802162
H129	H	1.056820	-1.067719	-0.247711
O130	O	1.063711	-0.240635	-1.074016
C131	C	1.178864	-0.207757	-1.095644
C132	C	1.131180	-0.255355	-1.056748
H133	H	1.233422	-0.219632	-1.081686
H134	H	1.171492	-0.215177	-1.152242
H135	H	1.166972	-0.153187	-1.081763
H136	H	1.143042	-0.309943	-1.070572
H137	H	1.138561	-0.247877	-1.000160
H138	H	1.056792	-0.247400	-0.940250
O139	O	0.230801	-0.411477	-0.411297
C140	C	0.121908	-0.449935	-0.449581
C141	C	0.160817	-0.402274	-0.402046
H142	H	0.065319	-0.442522	-0.442108
H143	H	0.135786	-0.438121	-0.504194
H144	H	0.135820	-0.504488	-0.437598
H145	H	0.146926	-0.347705	-0.413968
H146	H	0.146935	-0.414146	-0.347447
H147	H	0.899650	-0.404423	-1.068417
O148	O	0.892792	-0.411305	-0.934726
C149	C	0.806822	-0.497111	-0.942155
C150	C	0.854498	-0.449478	-0.981018
H151	H	0.775838	-0.527976	-0.979565
H152	H	0.837822	-0.532564	-0.909065
H153	H	0.771474	-0.466014	-0.909055
H154	H	0.889855	-0.480520	-1.014154
H155	H	0.823456	-0.414023	-1.014065
O156	O	0.892841	-1.073194	-0.411498
C157	C	0.806898	-1.065755	-0.497269
C158	C	0.854527	-1.026898	-0.449657
H159	H	0.775898	-1.028341	-0.528122
H160	H	0.837936	-1.098783	-0.532734
H161	H	0.771563	-1.098917	-0.466156
H162	H	0.889871	-0.993700	-0.480715
H163	H	0.823446	-0.993913	-0.414190
H164	H	0.899492	-0.583735	-0.404555
O165	O	0.230813	-0.240613	-0.241051
C166	C	0.151047	-0.149215	-0.232118
C167	C	0.189972	-0.196889	-0.279619
H168	H	0.118029	-0.113843	-0.263282
H169	H	0.117886	-0.180219	-0.196687
H170	H	0.188454	-0.118258	-0.201215
H171	H	0.152614	-0.227856	-0.310565
H172	H	0.223143	-0.165846	-0.315006
H173	H	0.364686	-0.247442	-0.247733
