data_functionalizedCrystal
_audit_creation_method	'MofGen! by Chris Wilmer'
_symmetry_space_group_name_H-M	'P1'
_symmetry_Int_Tables_number	1
_symmetry_cell_setting	triclinic
loop_
_symmetry_equiv_pos_as_xyz
  x,y,z
_cell_length_a	18.215407
_cell_length_b	18.215405
_cell_length_c	18.215399
_cell_angle_alpha	90.030551
_cell_angle_beta	90.019833
_cell_angle_gamma	90.025333
loop_
_atom_site_label
_atom_site_type_symbol
_atom_site_fract_x
_atom_site_fract_y
_atom_site_fract_z
Zn1	Zn	1.125072	-0.292983	0.416103
Zn2	Zn	1.458405	0.040350	0.749436
Zn3	Zn	1.791739	0.373684	1.082769
Zn4	Zn	1.124980	-0.416054	0.293031
Zn5	Zn	1.458314	-0.082721	0.626364
Zn6	Zn	1.791647	0.250612	0.959697
Zn7	Zn	1.002005	-0.293007	0.293050
Zn8	Zn	1.335338	0.040326	0.626383
Zn9	Zn	1.668671	0.373660	0.959717
Zn10	Zn	1.001970	-0.416013	0.416056
Zn11	Zn	1.335304	-0.082680	0.749389
Zn12	Zn	1.668637	0.250653	1.082722
O13	O	1.063507	-0.354514	0.354560
O14	O	1.396840	-0.021181	0.687893
O15	O	1.730173	0.312152	1.021226
O16	O	1.228044	-0.309316	0.399788
O17	O	1.561377	0.024018	0.733122
O18	O	1.894711	0.357351	1.066455
O19	O	1.108643	-0.399759	0.190049
O20	O	1.441977	-0.066426	0.523382
O21	O	1.775310	0.266908	0.856716
O22	O	1.018382	-0.190020	0.309401
O23	O	1.351716	0.143314	0.642734
O24	O	1.685049	0.476647	0.976067
O25	O	1.227977	-0.399736	0.309368
O26	O	1.561310	-0.066402	0.642701
O27	O	1.894643	0.266931	0.976035
O28	O	1.108799	-0.190002	0.399807
O29	O	1.442133	0.143331	0.733140
O30	O	1.775466	0.476665	1.066474
O31	O	1.018293	-0.309357	0.190063
O32	O	1.351627	0.023977	0.523396
O33	O	1.684960	0.357310	0.856730
O34	O	0.899016	-0.309317	0.309355
O35	O	1.232349	0.024016	0.642689
O36	O	1.565682	0.357350	0.976022
O37	O	1.018324	-0.399666	0.519046
O38	O	1.351657	-0.066333	0.852379
O39	O	1.684991	0.267001	1.185713
O40	O	0.898991	-0.399689	0.399727
O41	O	1.232324	-0.066356	0.733060
O42	O	1.565657	0.266977	1.066394
O43	O	1.108766	-0.309276	0.519081
O44	O	1.442100	0.024057	0.852414
O45	O	1.775433	0.357391	1.185747
O46	O	1.108610	-0.519033	0.309322
O47	O	1.441944	-0.185700	0.642656
O48	O	1.775277	0.147634	0.975989
O49	O	1.018235	-0.519003	0.399708
O50	O	1.351569	-0.185670	0.733042
O51	O	1.684902	0.147664	1.066375
C52	C	0.872301	-0.354502	0.354539
C53	C	1.205634	-0.021169	0.687872
C54	C	1.538967	0.312165	1.021205
C55	C	0.790502	-0.354514	0.354547
C56	C	1.123835	-0.021181	0.687880
C57	C	1.457168	0.312152	1.021214
C58	C	0.602314	-0.401645	0.401544
C59	C	0.935647	-0.068312	0.734878
C60	C	1.268981	0.265022	1.068211
C61	C	0.525455	-0.401647	0.401554
C62	C	0.858789	-0.068314	0.734887
C63	C	1.192122	0.265019	1.068220
C64	C	0.525452	-0.307397	0.307591
C65	C	0.858785	0.025936	0.640924
C66	C	1.192118	0.359269	0.974258
C67	C	0.602309	-0.307392	0.307586
C68	C	0.935642	0.025942	0.640919
C69	C	1.268976	0.359275	0.974253
C70	C	0.640738	-0.354520	0.354562
C71	C	0.974071	-0.021186	0.687895
C72	C	1.307405	0.312147	1.021228
C73	C	0.487022	-0.354528	0.354576
C74	C	0.820355	-0.021194	0.687909
C75	C	1.153689	0.312139	1.021242
C76	C	0.403688	-0.354530	0.354585
C77	C	0.737022	-0.021196	0.687919
C78	C	1.070355	0.312137	1.021252
C79	C	0.724077	-0.354517	0.354553
C80	C	1.057410	-0.021184	0.687887
C81	C	1.390744	0.312150	1.021220
C82	C	1.063429	-0.545721	0.354524
C83	C	1.396762	-0.212387	0.687858
C84	C	1.730096	0.120946	1.021191
C85	C	1.063463	-0.627520	0.354534
C86	C	1.396797	-0.294186	0.687867
C87	C	1.730130	0.039147	1.021200
C88	C	1.110632	-0.815705	0.307556
C89	C	1.443965	-0.482371	0.640890
C90	C	1.777299	-0.149038	0.974223
C91	C	1.110665	-0.892563	0.307574
C92	C	1.443998	-0.559230	0.640908
C93	C	1.777331	-0.225897	0.974241
C94	C	1.016476	-0.892572	0.401616
C95	C	1.349809	-0.559239	0.734949
C96	C	1.683143	-0.225905	1.068283
C97	C	1.016447	-0.815715	0.401601
C98	C	1.349781	-0.482381	0.734935
C99	C	1.683114	-0.149048	1.068268
C100	C	1.063524	-0.777283	0.354567
C101	C	1.396857	-0.443950	0.687901
C102	C	1.730191	-0.110616	1.021234
C103	C	1.063586	-0.930999	0.354600
C104	C	1.396919	-0.597666	0.687933
C105	C	1.730252	-0.264332	1.021266
C106	C	1.063621	-1.014333	0.354619
C107	C	1.396954	-0.680999	0.687953
C108	C	1.730288	-0.347666	1.021286
C109	C	1.063490	-0.693944	0.354548
C110	C	1.396823	-0.360611	0.687882
C111	C	1.730157	-0.027277	1.021215
C112	C	1.255460	-0.354528	0.354581
C113	C	1.588793	-0.021194	0.687915
C114	C	1.922126	0.312139	1.021248
C115	C	1.337259	-0.354533	0.354591
C116	C	1.670592	-0.021200	0.687924
C117	C	2.003925	0.312133	1.021257
C118	C	1.063552	-0.354464	0.546513
C119	C	1.396885	-0.021130	0.879846
C120	C	1.730218	0.312203	1.213179
C121	C	1.063571	-0.354442	0.628312
C122	C	1.396904	-0.021109	0.961645
C123	C	1.730237	0.312225	1.294978
C124	C	1.063605	-0.162561	0.354611
C125	C	1.396938	0.170772	0.687945
C126	C	1.730272	0.504105	1.021278
C127	C	1.063647	-0.080763	0.354633
C128	C	1.396980	0.252571	0.687967
C129	C	1.730313	0.585904	1.021300
C130	C	1.063504	-0.354512	0.163353
C131	C	1.396838	-0.021179	0.496687
C132	C	1.730171	0.312155	0.830020
C133	C	1.063628	-0.354326	0.081555
C134	C	1.396961	-0.020993	0.414888
C135	C	1.730295	0.312340	0.748222
C136	C	1.110681	-0.307332	0.816525
C137	C	1.444014	0.026001	1.149858
C138	C	1.777348	0.359335	1.483191
C139	C	1.110690	-0.307311	0.893384
C140	C	1.444023	0.026023	1.226717
C141	C	1.777356	0.359356	1.560050
C142	C	1.016513	-0.401438	0.893336
C143	C	1.349846	-0.068105	1.226670
C144	C	1.683179	0.265228	1.560003
C145	C	1.016501	-0.401455	0.816479
C146	C	1.349834	-0.068122	1.149812
C147	C	1.683167	0.265211	1.483146
C148	C	1.063589	-0.354403	0.778075
C149	C	1.396922	-0.021070	1.111409
C150	C	1.730256	0.312263	1.444742
C151	C	1.063610	-0.354365	0.931791
C152	C	1.396943	-0.021031	1.265125
C153	C	1.730276	0.312302	1.598458
C154	C	1.063619	-0.354342	1.015125
C155	C	1.396952	-0.021009	1.348458
C156	C	1.730286	0.312325	1.681792
C157	C	1.063579	-0.354425	0.694736
C158	C	1.396912	-0.021092	1.028070
C159	C	1.730246	0.312241	1.361403
H160	H	0.494153	-0.269028	0.269344
H161	H	0.827487	0.064305	0.602677
H162	H	1.160820	0.397638	0.936011
H163	H	0.978146	-0.923873	0.439908
H164	H	1.311480	-0.590539	0.773241
H165	H	1.644813	-0.257206	1.106575
O166	O	0.965628	-0.774277	0.452309
O167	O	1.298961	-0.440943	0.785642
O168	O	1.632294	-0.107610	1.118975
H169	H	0.998528	-0.739211	0.489782
H170	H	1.331861	-0.405878	0.823116
H171	H	1.665195	-0.072545	1.156449
H172	H	0.633601	-0.440018	0.439797
H173	H	0.966934	-0.106684	0.773130
H174	H	1.300267	0.226649	1.106464
H175	H	0.633595	-0.269012	0.269327
H176	H	0.966928	0.064321	0.602660
H177	H	1.300262	0.397654	0.935994
O178	O	1.161485	-0.256546	0.934857
O179	O	1.494819	0.076788	1.268191
O180	O	1.828152	0.410121	1.601524
H181	H	1.194228	-0.223837	0.895238
H182	H	1.527562	0.109496	1.228571
H183	H	1.860895	0.442830	1.561904
O184	O	0.965704	-0.452220	0.774994
O185	O	1.299037	-0.118887	1.108327
O186	O	1.632371	0.214446	1.441661
H187	H	0.928278	-0.419272	0.739990
H188	H	1.261611	-0.085939	1.073324
H189	H	1.594944	0.247395	1.406657
O190	O	1.161460	-0.256581	0.775100
O191	O	1.494794	0.076753	1.108433
O192	O	1.828127	0.410086	1.441766
H193	H	1.194202	-0.223841	0.814752
H194	H	1.527536	0.109493	1.148085
H195	H	1.860869	0.442826	1.481419
O196	O	0.483970	-0.452477	0.452193
O197	O	0.817303	-0.119143	0.785527
O198	O	1.150637	0.214190	1.118860
H199	H	0.448928	-0.489845	0.419148
H200	H	0.782262	-0.156511	0.752482
H201	H	1.115595	0.176822	1.085815
O202	O	1.161413	-0.774250	0.256839
O203	O	1.494747	-0.440916	0.590172
O204	O	1.828080	-0.107583	0.923506
H205	H	1.194182	-0.813882	0.224159
H206	H	1.527515	-0.480549	0.557492
H207	H	1.860848	-0.147216	0.890825
H208	H	0.978177	-0.439748	0.924614
H209	H	1.311510	-0.106415	1.257947
H210	H	1.644843	0.226919	1.591281
O211	O	1.161479	-0.934008	0.256877
O212	O	1.494813	-0.600675	0.590211
O213	O	1.828146	-0.267342	0.923544
H214	H	1.128582	-0.969090	0.219416
H215	H	1.461916	-0.635756	0.552749
H216	H	1.795249	-0.302423	0.886083
