data_functionalizedCrystal
_audit_creation_method	'MofGen! by Chris Wilmer'
_symmetry_space_group_name_H-M	'P1'
_symmetry_Int_Tables_number	1
_symmetry_cell_setting	triclinic
loop_
_symmetry_equiv_pos_as_xyz
  x,y,z
_cell_length_a	11.026660
_cell_length_b	11.026607
_cell_length_c	17.766277
_cell_angle_alpha	89.996915
_cell_angle_beta	89.991602
_cell_angle_gamma	108.585426
loop_
_atom_site_label
_atom_site_type_symbol
_atom_site_fract_x
_atom_site_fract_y
_atom_site_fract_z
O1	O	1.726728	0.533609	-0.062595
O2	O	1.360151	0.472849	-0.062596
O3	O	1.513058	0.319939	-0.062592
O4	O	1.573821	0.686519	-0.062598
O5	O	1.513022	0.319922	0.062596
O6	O	1.360115	0.472832	0.062593
O7	O	1.726692	0.533591	0.062594
Cu8	Cu	1.543400	0.503210	0.074024
Cu9	Cu	1.543443	0.503231	-0.074026
O10	O	1.573785	0.686501	0.062591
C11	C	1.312474	0.461631	-0.000001
C12	C	1.170461	0.428216	-0.000002
C13	C	0.970035	0.485957	-0.000005
C14	C	1.116813	0.520496	-0.000004
C15	C	1.501830	0.272271	0.000001
C16	C	1.468414	0.130257	-0.000002
C17	C	1.560682	0.076607	-0.000003
C18	C	1.526147	-0.070171	-0.000006
C19	C	1.774369	0.544809	-0.000002
C20	C	1.916382	0.578225	-0.000007
C21	C	1.585013	0.734169	-0.000004
C22	C	1.618429	0.876183	-0.000007
N23	N	1.543378	0.503196	0.178154
N24	N	1.543472	0.503236	-0.178156
C25	C	1.611123	0.435537	0.217543
C26	C	1.611129	0.435532	0.296344
C27	C	1.543408	0.503213	0.335755
C28	C	1.475648	0.570875	0.296357
C29	C	1.475634	0.570867	0.217557
C30	C	1.552064	0.615623	0.460591
C31	C	1.552087	0.615634	0.539390
C32	C	1.543445	0.503235	0.578801
C33	C	1.534805	0.390826	0.539404
C34	C	1.534790	0.390818	0.460604
C35	C	1.543415	0.503228	0.421201
C36	C	1.611199	0.435565	0.703635
C37	C	1.611196	0.435557	0.782439
C38	C	1.475724	0.570912	0.782450
C39	C	1.475718	0.570908	0.703648
C40	C	1.543463	0.503237	0.664246
H41	H	1.179538	0.625067	-0.000000
H42	H	1.665244	0.139339	0.000002
N43	N	1.756942	-0.040732	-0.000002
H44	H	1.800808	-0.059451	0.046406
H45	H	1.800736	-0.059464	-0.046440
H46	H	1.420467	0.625965	0.185486
H47	H	0.979112	0.682788	-0.000003
H48	H	1.421578	-0.132899	-0.000011
H49	H	1.363852	0.067525	-0.000007
N50	N	1.525498	0.269582	0.581893
H51	H	1.446450	0.245051	0.614599
H52	H	1.520082	0.198471	0.544924
N53	N	1.684182	0.362547	0.175044
H54	H	1.727098	0.319682	0.211959
H55	H	1.623084	0.295520	0.142363
N56	N	1.087391	0.289697	0.000007
H57	H	0.994313	0.284654	0.000007
H58	H	1.106221	0.245902	-0.046401
N59	N	1.684195	0.362550	0.338841
H60	H	1.727105	0.319678	0.301922
H61	H	1.751190	0.423686	0.371522
N62	N	1.525469	0.269588	0.418109
H63	H	1.519997	0.198379	0.455028
H64	H	1.446416	0.245193	0.385428
N65	N	0.886966	0.347444	-0.000007
H66	H	0.905665	0.303558	0.046401
H67	H	0.793919	0.342504	-0.000036
H68	H	1.666357	0.380458	0.671553
H69	H	1.559131	0.707166	0.571461
N70	N	1.684293	0.362603	0.824926
H71	H	1.727217	0.319750	0.788004
H72	H	1.751280	0.423762	0.857601
N73	N	1.402667	0.643901	0.824945
H74	H	1.412951	0.633637	0.880843
H75	H	1.437127	0.737526	0.811164
N76	N	1.402650	0.643883	0.661159
H77	H	1.359746	0.686758	0.698080
H78	H	1.463732	0.710902	0.628450
H79	H	1.559080	0.707152	0.428509
H80	H	1.420506	0.625979	0.328449
