data_functionalizedCrystal
_audit_creation_method	'MofGen! by Chris Wilmer'
_symmetry_space_group_name_H-M	'P1'
_symmetry_Int_Tables_number	1
_symmetry_cell_setting	triclinic
loop_
_symmetry_equiv_pos_as_xyz
  x,y,z
_cell_length_a	19.077105
_cell_length_b	13.897448
_cell_length_c	19.077579
_cell_angle_alpha	87.676511
_cell_angle_beta	85.300666
_cell_angle_gamma	87.714101
loop_
_atom_site_label
_atom_site_type_symbol
_atom_site_fract_x
_atom_site_fract_y
_atom_site_fract_z
Zn1	Zn	1.093742	-0.420024	-0.441857
Zn2	Zn	1.088942	-0.587558	-0.323970
Zn3	Zn	0.971127	-0.420041	-0.319253
Zn4	Zn	0.975835	-0.575039	-0.437090
O5	O	1.032412	-0.500665	-0.380542
O6	O	1.191756	-0.447480	-0.430189
O7	O	1.069335	-0.570582	-0.224693
O8	O	0.987431	-0.285058	-0.335537
O9	O	1.188229	-0.570566	-0.343578
O10	O	1.077516	-0.285046	-0.425614
O11	O	0.982777	-0.447508	-0.221227
O12	O	0.873101	-0.435369	-0.330915
O13	O	0.995454	-0.549230	-0.536373
O14	O	0.876560	-0.549246	-0.417489
O15	O	1.082080	-0.435341	-0.539876
O16	O	1.073899	-0.720878	-0.338955
O17	O	0.990800	-0.711680	-0.422063
C18	C	0.849252	-0.490951	-0.373173
C19	C	0.770896	-0.486818	-0.370037
C20	C	0.735900	-0.544262	-0.413567
C21	C	0.662276	-0.540366	-0.410624
C22	C	0.623649	-0.479029	-0.364146
C23	C	0.658650	-0.421578	-0.320614
C24	C	0.732273	-0.425471	-0.323561
C25	C	0.403267	-0.461015	-0.350509
C26	C	0.329639	-0.457130	-0.347564
C27	C	0.333271	-0.575916	-0.437575
C28	C	0.406894	-0.579807	-0.440515
C29	C	0.441889	-0.522353	-0.396986
N30	N	0.548394	-0.475047	-0.361135
N31	N	0.517143	-0.526331	-0.400001
C32	C	1.032359	-0.751278	-0.380520
C33	C	1.032402	-0.858493	-0.380537
C34	C	1.032478	-1.054790	-0.380584
C35	C	1.032434	-0.945557	-0.380560
C36	C	1.216287	-0.510418	-0.387941
C37	C	1.294644	-0.514574	-0.391094
C38	C	1.039828	-0.490887	-0.564419
C39	C	1.042988	-0.486720	-0.642776
C40	C	1.032484	-0.249074	-0.380581
C41	C	1.032515	-0.141861	-0.380598
C42	C	1.065655	-0.456906	-1.084041
C43	C	1.062681	-0.460825	-1.010416
C44	C	1.016089	-0.522075	-0.971783
C45	C	0.972474	-0.579416	-1.006779
C46	C	0.975451	-0.575501	-1.080403
C47	C	1.002350	-0.540146	-0.751396
C48	C	0.999374	-0.544055	-0.677767
C49	C	1.089583	-0.425465	-0.681409
C50	C	1.092554	-0.421551	-0.755034
C51	C	1.048941	-0.478896	-0.790024
N52	N	1.013047	-0.526080	-0.896526
N53	N	1.051987	-0.474895	-0.865279
C54	C	1.025065	-0.510338	-0.197383
C55	C	1.022041	-0.514240	-0.119032
H56	H	1.103591	-0.407023	-1.115490
O57	O	0.299356	-0.631663	-0.479964
C58	C	0.320189	-0.607919	-0.550972
H59	H	0.373713	-0.573592	-0.554616
H60	H	0.279730	-0.554915	-0.573118
C61	C	0.259559	-0.742114	-0.589223
C62	C	0.325301	-0.699960	-0.593699
H63	H	0.262709	-0.798888	-0.615580
H64	H	0.245520	-0.758109	-0.541384
H65	H	0.225850	-0.697935	-0.607677
H66	H	0.359006	-0.744135	-0.575237
H67	H	0.339345	-0.683975	-0.641536
H68	H	0.760765	-0.378688	-0.288118
O69	O	1.105073	-0.405032	-0.976536
C70	C	1.146843	-0.350145	-1.026421
H71	H	1.120090	-0.342482	-1.077744
H72	H	1.200690	-0.387891	-1.036397
C73	C	1.188731	-0.258964	-0.935076
C74	C	1.155869	-0.249545	-0.998109
H75	H	1.194302	-0.196910	-0.917611
H76	H	1.160592	-0.295944	-0.901466
H77	H	1.233600	-0.290422	-0.943398
H78	H	1.110998	-0.218098	-0.989785
H79	H	1.184001	-0.212557	-1.031717
H80	H	0.298191	-0.407171	-0.309720
H81	H	0.431750	-0.414240	-0.315059
O82	O	1.137879	-0.362036	-0.792453
C83	C	1.175726	-0.312253	-0.745780
H84	H	1.176031	-0.354680	-0.693390
H85	H	1.149619	-0.238039	-0.736927
C86	C	1.251546	-0.248701	-0.841875
C87	C	1.251926	-0.300815	-0.777530
H88	H	1.298549	-0.241641	-0.861460
H89	H	1.226047	-0.282237	-0.873320
H90	H	1.229786	-0.186861	-0.834488
H91	H	1.273677	-0.362657	-0.784919
H92	H	1.277431	-0.267288	-0.746086
H93	H	1.125091	-0.378779	-0.652912
O94	O	0.954039	-0.603432	-0.640214
C95	C	0.906801	-0.548384	-0.595795
H96	H	0.903359	-0.471000	-0.617811
H97	H	0.926334	-0.549191	-0.540868
C98	C	0.837688	-0.686740	-0.564689
C99	C	0.833457	-0.591697	-0.591733
H100	H	0.792447	-0.713459	-0.562180
H101	H	0.869515	-0.723829	-0.594613
H102	H	0.853969	-0.687400	-0.518919
H103	H	0.817185	-0.591040	-0.637504
H104	H	0.801626	-0.554609	-0.561816
H105	H	0.934540	-0.629291	-0.975319
O106	O	0.933155	-0.631161	-1.114507
C107	C	0.945762	-0.614557	-1.187773
H108	H	1.000582	-0.585319	-1.200015
H109	H	0.904808	-0.559861	-1.206998
C110	C	0.873471	-0.745713	-1.210261
C111	C	0.940805	-0.709809	-1.225297
H112	H	0.870411	-0.804467	-1.233409
H113	H	0.864975	-0.756897	-1.160901
H114	H	0.839351	-0.700124	-1.226282
H115	H	0.974924	-0.755393	-1.209268
H116	H	0.949307	-0.698635	-1.274656
O117	O	0.959910	-0.595875	-0.785267
C118	C	0.918160	-0.650785	-0.735379
H119	H	0.913613	-0.613933	-0.682807
H120	H	0.943632	-0.725832	-0.728571
C121	C	0.849871	-0.704434	-0.825665
C122	C	0.844282	-0.659167	-0.761097
H123	H	0.804300	-0.709609	-0.841530
H124	H	0.878000	-0.667443	-0.859277
H125	H	0.871101	-0.766969	-0.819983
H126	H	0.823060	-0.596630	-0.766782
H127	H	0.816147	-0.696148	-0.727487
H128	H	0.767345	-0.594213	-0.451412
H129	H	0.438339	-0.629756	-0.478361
O130	O	0.628391	-0.596275	-0.452928
C131	C	0.678272	-0.651238	-0.494587
H132	H	0.729582	-0.658813	-0.467809
H133	H	0.688278	-0.613610	-0.548494
C134	C	0.586910	-0.742571	-0.536337
C135	C	0.649928	-0.751881	-0.503444
H136	H	0.569426	-0.804651	-0.541804
H137	H	0.553304	-0.705539	-0.508272
H138	H	0.595257	-0.711211	-0.581255
H139	H	0.641578	-0.783229	-0.458524
H140	H	0.683532	-0.788921	-0.531502
H141	H	0.627194	-0.371633	-0.282774
