data_functionalizedCrystal
_audit_creation_method	'MofGen! by Chris Wilmer'
_symmetry_space_group_name_H-M	'P1'
_symmetry_Int_Tables_number	1
_symmetry_cell_setting	triclinic
loop_
_symmetry_equiv_pos_as_xyz
  x,y,z
_cell_length_a	14.908783
_cell_length_b	14.908178
_cell_length_c	19.805399
_cell_angle_alpha	86.675724
_cell_angle_beta	86.681112
_cell_angle_gamma	96.402596
loop_
_atom_site_label
_atom_site_type_symbol
_atom_site_fract_x
_atom_site_fract_y
_atom_site_fract_z
Zn1	Zn	1.363060	-0.280657	-0.429647
Zn2	Zn	1.354233	-0.432043	-0.309521
Zn3	Zn	1.211690	-0.289405	-0.309532
Zn4	Zn	1.202932	-0.440714	-0.415735
O5	O	1.282979	-0.360705	-0.366109
O6	O	1.488557	-0.293449	-0.419530
O7	O	1.335295	-0.413154	-0.214803
O8	O	1.239128	-0.161566	-0.331293
O9	O	1.482072	-0.404671	-0.331274
O10	O	1.350339	-0.155139	-0.419541
O11	O	1.230569	-0.308359	-0.214812
O12	O	1.083860	-0.316767	-0.317802
O13	O	1.224203	-0.419450	-0.512299
O14	O	1.077426	-0.427932	-0.395829
O15	O	1.341847	-0.301857	-0.522521
O16	O	1.326804	-0.559871	-0.317784
O17	O	1.215644	-0.566242	-0.395818
C18	C	1.047799	-0.374240	-0.355307
C19	C	0.947186	-0.380053	-0.350701
C20	C	0.764867	-0.275318	-0.434072
C21	C	0.670333	-0.280776	-0.429747
C22	C	0.663583	-0.396422	-0.337722
C23	C	0.758117	-0.390964	-0.342048
C24	C	0.808756	-0.330410	-0.390225
C25	C	0.903291	-0.324958	-0.394553
C26	C	0.896540	-0.440599	-0.302526
C27	C	0.802006	-0.446057	-0.298200
C28	C	1.269340	-0.595901	-0.355306
C29	C	1.263588	-0.696515	-0.350710
C30	C	1.368496	-0.878741	-0.434057
C31	C	1.363095	-0.973276	-0.429742
C32	C	1.247381	-0.980122	-0.337769
C33	C	1.252782	-0.885587	-0.342084
C34	C	1.313343	-0.834899	-0.390229
C35	C	1.318748	-0.740362	-0.394541
C36	C	1.203030	-0.747211	-0.302571
C37	C	1.197629	-0.841746	-0.298256
C38	C	1.519077	-0.347117	-0.376953
C39	C	1.619688	-0.341327	-0.381574
C40	C	1.283033	-0.360645	-0.542657
C41	C	1.283056	-0.360619	-0.617891
C42	C	1.296695	-0.124588	-0.376970
C43	C	1.302540	-0.023969	-0.381599
C44	C	1.344315	-0.299386	-0.658559
C45	C	1.344326	-0.299359	-0.729249
C46	C	1.283081	-0.360571	-0.759270
C47	C	1.221815	-0.421807	-0.718596
C48	C	1.221801	-0.421829	-0.647908
C49	C	1.221871	-0.421720	-1.003676
C50	C	1.221892	-0.421695	-1.074370
C51	C	1.344396	-0.299250	-1.085017
C52	C	1.344382	-0.299272	-1.014328
C53	C	1.283113	-0.360504	-0.973661
C54	C	1.283101	-0.360532	-0.897011
C55	C	1.283097	-0.360548	-0.835918
C56	C	1.282981	-0.360696	-0.190253
C57	C	1.283148	-0.360457	-0.115039
H58	H	0.944520	-0.275653	-0.433782
H59	H	0.634603	-0.235911	-0.465450
H60	H	1.148320	-0.883028	-0.259059
H61	H	1.158123	-0.711504	-0.266881
H62	H	1.368062	-0.699093	-0.433741
H63	H	1.171946	-0.471644	-0.743045
H64	H	1.394190	-0.249543	-0.634121
H65	H	1.171995	-0.471592	-0.970573
F66	F	1.409601	-0.234077	-1.128304
H67	H	0.760763	-0.495354	-0.258974
F68	F	1.409569	-0.234125	-0.982382
H69	H	0.932283	-0.485466	-0.266827
F70	F	0.818762	-0.210881	-0.485350
F71	F	0.609676	-0.460852	-0.286447
H72	H	1.417813	-0.837470	-0.473255
H73	H	1.394211	-0.249498	-0.762358
F74	F	1.156703	-0.486848	-1.106319
H75	H	1.171909	-0.471683	-0.614796
H76	H	1.408002	-1.008968	-0.465435
H77	H	1.198071	-1.021408	-0.298574
