data_functionalizedCrystal
_audit_creation_method	'MofGen! by Chris Wilmer'
_symmetry_space_group_name_H-M	'P1'
_symmetry_Int_Tables_number	1
_symmetry_cell_setting	triclinic
loop_
_symmetry_equiv_pos_as_xyz
  x,y,z
_cell_length_a	15.298114
_cell_length_b	15.297327
_cell_length_c	15.296720
_cell_angle_alpha	72.680778
_cell_angle_beta	69.221067
_cell_angle_gamma	88.422361
loop_
_atom_site_label
_atom_site_type_symbol
_atom_site_fract_x
_atom_site_fract_y
_atom_site_fract_z
Zn1	Zn	1.197182	-0.637548	0.412745
Zn2	Zn	1.697182	-0.137548	0.912745
Zn3	Zn	1.197080	-0.766155	0.284154
Zn4	Zn	1.697080	-0.266155	0.784154
Zn5	Zn	1.077899	-0.593108	0.274907
Zn6	Zn	1.577899	-0.093108	0.774907
Zn7	Zn	1.014723	-0.766139	0.466573
Zn8	Zn	1.514723	-0.266139	0.966573
O9	O	1.121721	-0.690737	0.359594
O10	O	1.621721	-0.190737	0.859594
O11	O	1.323406	-0.673213	0.377030
O12	O	1.823406	-0.173213	0.877030
O13	O	1.207666	-0.724608	0.148899
O14	O	1.707666	-0.224608	0.648899
O15	O	1.120204	-0.472766	0.266794
O16	O	1.620204	0.027234	0.766794
O17	O	1.323331	-0.767700	0.282554
O18	O	1.823331	-0.267700	0.782554
O19	O	1.207841	-0.505416	0.368063
O20	O	1.707841	-0.005416	0.868063
O21	O	1.120104	-0.597471	0.142105
O22	O	1.620104	-0.097471	0.642105
O23	O	0.943281	-0.597456	0.318989
O24	O	1.443281	-0.097456	0.818989
O25	O	1.012531	-0.767673	0.593461
O26	O	1.512531	-0.267673	1.093461
O27	O	0.896866	-0.724581	0.459805
O28	O	1.396866	-0.224581	0.959805
O29	O	1.146582	-0.673198	0.553913
O30	O	1.646582	-0.173198	1.053913
O31	O	1.146408	-0.892389	0.334749
O32	O	1.646408	-0.392389	0.834749
O33	O	1.012431	-0.892378	0.468772
O34	O	1.512431	-0.392378	0.968772
C35	C	0.887341	-0.656195	0.394235
C36	C	1.387341	-0.156195	0.894235
C37	C	0.787064	-0.641443	0.409082
C38	C	1.287064	-0.141443	0.909082
C39	C	0.504390	-0.796215	0.253720
C40	C	1.004390	-0.296215	0.753720
C41	C	0.598608	-0.810073	0.239763
C42	C	1.098608	-0.310073	0.739763
C43	C	0.645726	-0.767917	0.282092
C44	C	1.145726	-0.267917	0.782092
C45	C	0.598618	-0.711899	0.338379
C46	C	1.098618	-0.211899	0.838379
C47	C	0.504394	-0.698034	0.352331
C48	C	1.004394	-0.198034	0.852331
C49	C	0.645730	-0.669736	0.380703
C50	C	1.145730	-0.169736	0.880703
C51	C	0.598622	-0.613718	0.436990
C52	C	1.098622	-0.113718	0.936990
C53	C	0.504406	-0.599856	0.450940
C54	C	1.004406	-0.099856	0.950940
C55	C	0.457288	-0.642012	0.408611
C56	C	0.957288	-0.142012	0.908611
C57	C	0.739954	-0.683602	0.366751
C58	C	1.239954	-0.183602	0.866751
C59	C	0.739958	-0.585421	0.465362
C60	C	1.239958	-0.085421	0.965362
C61	C	0.645740	-0.571562	0.479319
C62	C	1.145740	-0.071562	0.979319
C63	C	1.072573	-0.925122	0.408622
C64	C	1.572573	-0.425122	0.908622
C65	C	1.051624	-1.025409	0.429616
C66	C	1.551624	-0.525409	0.929616
C67	C	1.271756	-1.308052	0.209818
C68	C	1.771756	-0.808052	0.709818
C69	C	1.291440	-1.213827	0.190088
C70	C	1.791440	-0.713827	0.690088
C71	C	1.231488	-1.166718	0.249969
C72	C	1.731488	-0.666718	0.749969
C73	C	1.151849	-1.213843	0.329582
C74	C	1.651849	-0.713843	0.829582
C75	C	1.132159	-1.308077	0.349309
C76	C	1.632159	-0.808077	0.849309
C77	C	1.091891	-1.166742	0.389460
C78	C	1.591891	-0.666742	0.889460
C79	C	1.012251	-1.213868	0.469073
C80	C	1.512251	-0.713868	0.969073
C81	C	0.992566	-1.308092	0.488797
C82	C	1.492566	-0.808092	0.988797
C83	C	1.052518	-1.355201	0.428917
C84	C	1.552518	-0.855201	0.928917
C85	C	1.111580	-1.072509	0.369733
C86	C	1.611580	-0.572509	0.869733
C87	C	0.971983	-1.072533	0.509224
C88	C	1.471983	-0.572533	1.009224
C89	C	0.952299	-1.166758	0.528954
C90	C	1.452299	-0.666758	1.028954
C91	C	1.357016	-0.725415	0.324819
C92	C	1.857016	-0.225415	0.824819
C93	C	1.457284	-0.740193	0.310000
C94	C	1.957284	-0.240193	0.810000
C95	C	1.072521	-0.725391	0.609411
C96	C	1.572521	-0.225391	1.109411
C97	C	1.051555	-0.740158	0.715868
C98	C	1.551555	-0.240158	1.215868
C99	C	1.171081	-0.455444	0.310393
C100	C	1.671081	0.044556	0.810393
C101	C	1.192115	-0.355177	0.289426
C102	C	1.692115	0.144823	0.789426
C103	C	1.170795	-0.656161	0.110729
C104	C	1.670795	-0.156161	0.610729
C105	C	1.191989	-0.641165	0.004193
C106	C	1.691989	-0.141165	0.504193
C107	C	1.271636	-0.585040	0.933592
C108	C	1.771636	-0.085040	1.433592
C109	C	1.291340	-0.571168	0.833570
C110	C	1.791340	-0.071168	1.333570
C111	C	1.231395	-0.613414	0.804139
C112	C	1.731395	-0.113414	1.304139
C113	C	1.151743	-0.669535	0.874741
C114	C	1.651743	-0.169535	1.374741
C115	C	1.132041	-0.683415	0.974773
C116	C	1.632041	-0.183415	1.474773
C117	C	1.091801	-0.711788	0.845320
C118	C	1.591801	-0.211788	1.345320
C119	C	1.012149	-0.767910	0.915922
C120	C	1.512149	-0.267910	1.415922
C121	C	0.992450	-0.781786	1.015944
C122	C	1.492450	-0.281786	1.515944
C123	C	1.052395	-0.739540	1.045374
C124	C	1.552395	-0.239540	1.545374
C125	C	1.111503	-0.697909	0.745288
C126	C	1.611503	-0.197909	1.245288
C127	C	0.971908	-0.796284	0.786469
C128	C	1.471908	-0.296284	1.286469
C129	C	0.952204	-0.810156	0.886491
C130	C	1.452204	-0.310156	1.386491
H131	H	0.636957	-0.855681	0.193932
H132	H	1.136957	-0.355681	0.693932
C133	C	0.864692	-1.218607	0.616520
C134	C	1.364692	-0.718607	1.116520
N135	N	0.798705	-1.257659	0.682473
N136	N	1.298705	-0.757659	1.182473
C137	C	1.199114	-0.636170	0.667637
C138	C	1.699114	-0.136170	1.167637
N139	N	1.265105	-0.589661	0.609150
N140	N	1.765105	-0.089661	1.109150
H141	H	1.356281	-1.175460	0.125267
H142	H	1.856281	-0.675460	0.625267
H143	H	1.036498	-1.431928	0.444979
H144	H	1.536498	-0.931928	0.944979
H145	H	1.320438	-0.550655	0.957566
H146	H	1.820438	-0.050655	1.457566
C147	C	0.904954	-1.359925	0.576367
C148	C	1.404954	-0.859925	1.076367
N149	N	0.838964	-1.398964	0.642325
N150	N	1.338964	-0.898964	1.142325
C151	C	0.906032	-1.020717	0.575098
C152	C	1.406032	-0.520717	1.075098
N153	N	0.856362	-0.981684	0.624710
N154	N	1.356362	-0.481684	1.124710
C155	C	0.452555	-0.842575	0.207160
C156	C	0.952555	-0.342575	0.707160
N157	N	0.413513	-0.877495	0.172087
N158	N	0.913513	-0.377495	0.672087
H159	H	1.247443	-0.602116	0.722696
H160	H	1.747443	-0.102116	1.222696
H161	H	1.320556	-1.346416	0.161067
H162	H	1.820556	-0.846416	0.661067
H163	H	0.927598	-0.827493	1.073427
H164	H	1.427598	-0.327493	1.573427
C165	C	0.864588	-0.871887	0.964165
C166	C	1.364588	-0.371887	1.464165
N167	N	0.798594	-0.918381	1.022669
N168	N	1.298594	-0.418381	1.522669
H169	H	0.778300	-0.729212	0.320922
H170	H	1.278300	-0.229212	0.820922
C171	C	0.593915	-0.509928	0.541216
C172	C	1.093915	-0.009928	1.041216
N173	N	0.554881	-0.463500	0.587832
N174	N	1.054881	0.036500	1.087832
C175	C	0.749366	-0.783170	0.266744
C176	C	1.249366	-0.283170	0.766744
N177	N	0.827430	-0.794665	0.255185
N178	N	1.327430	-0.294665	0.755185
H179	H	1.356194	-0.525476	0.776093
H180	H	1.856194	-0.025476	1.276093
H181	H	0.778322	-0.551091	0.499827
H182	H	1.278322	-0.051091	0.999827
H183	H	1.036356	-0.750832	1.126819
H184	H	1.536356	-0.250832	1.626819
H185	H	0.923098	-0.830686	0.762509
H186	H	1.423098	-0.330686	1.262509
C187	C	1.199183	-1.020682	0.282161
C188	C	1.699183	-0.520682	0.782161
N189	N	1.265171	-0.981647	0.216197
N190	N	1.765171	-0.481647	0.716197
H191	H	0.380567	-0.630734	0.419975
H192	H	0.880567	-0.130734	0.919975
H193	H	0.466056	-0.554235	0.496765
H194	H	0.966056	-0.054235	0.996765
H195	H	1.247518	-1.089995	0.233899
H196	H	1.747518	-0.589995	0.733899
