data_functionalizedCrystal
_audit_creation_method	'MofGen! by Chris Wilmer'
_symmetry_space_group_name_H-M	'P1'
_symmetry_Int_Tables_number	1
_symmetry_cell_setting	triclinic
loop_
_symmetry_equiv_pos_as_xyz
  x,y,z
_cell_length_a	12.759400
_cell_length_b	12.759401
_cell_length_c	18.215399
_cell_angle_alpha	89.983431
_cell_angle_beta	89.975454
_cell_angle_gamma	90.013728
loop_
_atom_site_label
_atom_site_type_symbol
_atom_site_fract_x
_atom_site_fract_y
_atom_site_fract_z
Zn1	Zn	-0.418304	1.606235	-0.416069
Zn2	Zn	-0.594001	1.606135	-0.293010
Zn3	Zn	-0.418334	1.430543	-0.293024
Zn4	Zn	-0.593938	1.430525	-0.416042
O5	O	-0.506144	1.518360	-0.354536
O6	O	-0.441624	1.753243	-0.399751
O7	O	-0.570737	1.582808	-0.190028
O8	O	-0.271309	1.453898	-0.309363
O9	O	-0.570708	1.753169	-0.309340
O10	O	-0.271287	1.582978	-0.399764
O11	O	-0.441675	1.453801	-0.190037
O12	O	-0.441615	1.283520	-0.309337
O13	O	-0.570601	1.453868	-0.519030
O14	O	-0.570630	1.283507	-0.399718
O15	O	-0.441563	1.582961	-0.519050
O16	O	-0.741014	1.582791	-0.309314
O17	O	-0.740968	1.453772	-0.399705
C18	C	-0.506120	1.245392	-0.354526
C19	C	-0.506134	1.128616	-0.354539
C20	C	-0.439047	1.073785	-0.401689
C21	C	-0.439067	0.964061	-0.401694
C22	C	-0.573271	0.964008	-0.307396
C23	C	-0.573245	1.073730	-0.307389
C24	C	-0.371937	1.128670	-0.448840
C25	C	-0.304845	1.073839	-0.495994
C26	C	-0.304865	0.964115	-0.495998
C27	C	-0.371977	0.909222	-0.448849
C28	C	-0.779112	1.518297	-0.354521
C29	C	-0.895888	1.518367	-0.354539
C30	C	-0.950740	1.585622	-0.307524
C31	C	-1.060464	1.585686	-0.307547
C32	C	-1.060476	1.451232	-0.401601
C33	C	-0.950754	1.451173	-0.401581
C34	C	-0.895874	1.652815	-0.260482
C35	C	-0.950726	1.720075	-0.213463
C36	C	-1.060450	1.720140	-0.213486
C37	C	-1.115322	1.652944	-0.260527
C38	C	-0.232111	1.518451	-0.354568
C39	C	-0.115334	1.518490	-0.354581
C40	C	-0.506072	1.518424	-0.546489
C41	C	-0.506041	1.518451	-0.628288
C42	C	-0.506170	1.792393	-0.354547
C43	C	-0.506181	1.909169	-0.354552
C44	C	-0.438788	1.585694	-0.816494
C45	C	-0.438758	1.585706	-0.893353
C46	C	-0.573132	1.451282	-0.893321
C47	C	-0.573156	1.451265	-0.816463
C48	C	-0.505986	1.518477	-0.778052
C49	C	-0.505931	1.518506	-0.931768
C50	C	-0.505898	1.518520	-1.015102
C51	C	-0.506017	1.518463	-0.694713
C52	C	-0.506141	1.518356	-0.163330
C53	C	-0.505876	1.518533	-0.081532
H54	H	-0.371913	1.218013	-0.448841
H55	H	-0.250199	1.118540	-0.534377
F56	F	-0.367243	1.657255	-0.934262
F57	F	-1.118823	1.791731	-0.163451
H58	H	-0.250228	0.919475	-0.534388
H59	H	-0.627821	1.396563	-0.924605
H60	H	-0.627876	1.396522	-0.785163
F61	F	-0.644693	0.905584	-0.257222
F62	F	-0.371986	0.792443	-0.448849
F63	F	-1.118879	1.379721	-0.451661
H64	H	-0.384091	1.640419	-0.785221
H65	H	-0.906043	1.774790	-0.175167
F66	F	-1.232101	1.652677	-0.260311
F67	F	-0.644654	1.132089	-0.257212
H68	H	-0.806532	1.652767	-0.260456
F69	F	-0.892374	1.379594	-0.451621
