data_functionalizedCrystal
_audit_creation_method	'MofGen! by Chris Wilmer'
_symmetry_space_group_name_H-M	'P1'
_symmetry_Int_Tables_number	1
_symmetry_cell_setting	triclinic
loop_
_symmetry_equiv_pos_as_xyz
  x,y,z
_cell_length_a	9.065218
_cell_length_b	10.723023
_cell_length_c	7.540329
_cell_angle_alpha	89.997411
_cell_angle_beta	89.996962
_cell_angle_gamma	84.741717
loop_
_atom_site_label
_atom_site_type_symbol
_atom_site_fract_x
_atom_site_fract_y
_atom_site_fract_z
O1	O	1.959359	0.182984	-0.147483
O2	O	1.529989	0.197993	-0.147485
O3	O	1.754578	0.008953	-0.147477
O4	O	1.734769	0.372025	-0.147491
O5	O	1.754565	0.008950	0.147489
O6	O	1.529975	0.197991	0.147480
O7	O	1.959345	0.182982	0.147482
Cu8	Cu	1.744659	0.190486	0.174414
Cu9	Cu	1.744675	0.190489	-0.174417
O10	O	1.734756	0.372022	0.147474
C11	C	1.475004	0.196550	-0.000003
C12	C	1.311185	0.192237	-0.000003
C13	C	1.753130	-0.037554	0.000004
C14	C	1.748818	-0.176126	-0.000002
C15	C	1.746903	-0.237898	-0.152805
C16	C	1.742446	-0.381119	-0.152814
C17	C	2.014330	0.184425	-0.000004
C18	C	2.178149	0.188739	-0.000015
C19	C	1.736204	0.418529	-0.000011
C20	C	1.740516	0.557101	-0.000017
N21	N	1.744659	0.190483	0.419762
N22	N	1.744687	0.190482	-0.419765
H23	H	1.748556	-0.184752	-0.283618
H24	H	1.740805	-0.434243	-0.283634
H25	H	1.742171	-0.389785	0.130811
O26	O	1.746626	-0.239627	0.155958
C27	C	1.614366	-0.374031	0.342362
C28	C	1.616686	-0.302208	0.165649
H29	H	1.509305	-0.424624	0.350271
H30	H	1.715466	-0.445332	0.350329
H31	H	1.616571	-0.305224	0.457376
H32	H	1.614431	-0.370919	0.050534
H33	H	1.515595	-0.230889	0.157836
