data_functionalizedCrystal
_audit_creation_method	'MofGen! by Chris Wilmer'
_symmetry_space_group_name_H-M	'P1'
_symmetry_Int_Tables_number	1
_symmetry_cell_setting	triclinic
loop_
_symmetry_equiv_pos_as_xyz
  x,y,z
_cell_length_a	17.019311
_cell_length_b	16.098538
_cell_length_c	16.992695
_cell_angle_alpha	87.084303
_cell_angle_beta	87.024688
_cell_angle_gamma	96.609511
loop_
_atom_site_label
_atom_site_type_symbol
_atom_site_fract_x
_atom_site_fract_y
_atom_site_fract_z
O1	O	1.059922	0.145259	0.092561
O2	O	1.393255	0.478592	0.425894
O3	O	1.726589	0.811926	0.759227
O4	O	0.830272	0.128790	0.106126
O5	O	1.163606	0.462123	0.439459
O6	O	1.496939	0.795456	0.772792
O7	O	0.944177	0.136966	-0.014795
O8	O	1.277510	0.470299	0.318538
O9	O	1.610843	0.803632	0.651871
O10	O	0.946017	0.137083	0.213482
O11	O	1.279351	0.470416	0.546815
O12	O	1.612684	0.803750	0.880149
O13	O	0.937521	-0.002025	-0.007759
O14	O	1.270855	0.331308	0.325574
O15	O	1.604188	0.664642	0.658907
O16	O	0.823617	-0.010201	0.113162
O17	O	1.156950	0.323132	0.446495
O18	O	1.490283	0.656466	0.779828
O19	O	1.053266	0.006268	0.099597
O20	O	1.386600	0.339602	0.432930
O21	O	1.719933	0.672935	0.766264
Zn22	Zn	0.937385	-0.024034	0.107496
Zn23	Zn	1.270718	0.309299	0.440830
Zn24	Zn	1.604051	0.642633	0.774163
Zn25	Zn	0.946154	0.159092	0.098226
Zn26	Zn	1.279487	0.492425	0.431559
Zn27	Zn	1.612820	0.825759	0.764893
O28	O	0.939362	-0.001908	0.220518
O29	O	1.272695	0.331426	0.553851
O30	O	1.606028	0.664759	0.887185
C31	C	0.797424	0.057177	0.109267
C32	C	1.130757	0.390511	0.442600
C33	C	1.464090	0.723844	0.775934
C34	C	0.709460	0.050870	0.108136
C35	C	1.042794	0.384203	0.441469
C36	C	1.376127	0.717536	0.774802
C37	C	0.211774	0.011395	0.101954
C38	C	0.545108	0.344729	0.435287
C39	C	0.878441	0.678062	0.768621
C40	C	0.294425	0.017324	0.103017
C41	C	0.627758	0.350657	0.436350
C42	C	0.961092	0.683991	0.769684
C43	C	0.339379	0.096053	0.099707
C44	C	0.672712	0.429387	0.433041
C45	C	1.006046	0.762720	0.766374
C46	C	0.301678	0.168859	0.095342
C47	C	0.635011	0.502192	0.428675
C48	C	0.968344	0.835526	0.762009
C49	C	0.219028	0.162930	0.094285
C50	C	0.552361	0.496263	0.427618
C51	C	0.885694	0.829596	0.760951
C52	C	0.589109	0.117746	0.102713
C53	C	0.922443	0.451079	0.436046
C54	C	1.255776	0.784413	0.769380
C55	C	0.671765	0.123670	0.103768
C56	C	1.005098	0.457003	0.437102
C57	C	1.338431	0.790337	0.770435
C58	C	0.664506	-0.027866	0.111445
C59	C	0.997840	0.305468	0.444778
C60	C	1.331173	0.638801	0.778111
C61	C	0.581856	-0.033788	0.110382
C62	C	0.915189	0.299545	0.443716
C63	C	1.248522	0.632879	0.777049
C64	C	0.544161	0.039017	0.106021
C65	C	0.877494	0.372351	0.439355
C66	C	1.210828	0.705684	0.772688
C67	C	0.423862	0.102115	0.100791
C68	C	0.757195	0.435448	0.434125
C69	C	1.090528	0.768782	0.767458
C70	C	0.459679	0.032955	0.104943
C71	C	0.793013	0.366288	0.438276
C72	C	1.126346	0.699622	0.771610
N73	N	0.931406	-0.149012	0.113823
N74	N	1.264739	0.184321	0.447156
N75	N	1.598073	0.517654	0.780489
C76	C	0.979772	-0.189126	0.062517
C77	C	1.313105	0.144208	0.395850
C78	C	1.646438	0.477541	0.729184
C79	C	0.975597	-0.276614	0.066950
C80	C	1.308930	0.056719	0.400283
C81	C	1.642264	0.390052	0.733616
C82	C	0.923060	-0.323988	0.122693
C83	C	1.256394	0.009346	0.456026
C84	C	1.589727	0.342679	0.789359
C85	C	0.874689	-0.283869	0.174001
C86	C	1.208023	0.049465	0.507334
C87	C	1.541356	0.382798	0.840667
C88	C	0.878860	-0.196382	0.169564
C89	C	1.212194	0.136951	0.502897
C90	C	1.545527	0.470285	0.836230
C91	C	0.907939	-0.588323	0.138765
C92	C	1.241272	-0.254990	0.472098
C93	C	1.574605	0.078343	0.805431
C94	C	0.903773	-0.675816	0.143199
C95	C	1.237106	-0.342482	0.476533
C96	C	1.570439	-0.009149	0.809866
C97	C	1.004680	-0.668556	0.036147
C98	C	1.338013	-0.335222	0.369480
C99	C	1.671347	-0.001889	0.702814
C100	C	1.008850	-0.581067	0.031718
C101	C	1.342183	-0.247734	0.365051
C102	C	1.675517	0.085600	0.698384
C103	C	0.960476	-0.540956	0.083023
C104	C	1.293809	-0.207623	0.416356
C105	C	1.627143	0.125711	0.749690
C106	C	0.918794	-0.413415	0.127227
C107	C	1.252127	-0.080082	0.460560
C108	C	1.585460	0.253251	0.793894
C109	C	0.964739	-0.451530	0.078485
C110	C	1.298072	-0.118197	0.411818
C111	C	1.631406	0.215136	0.745151
C112	C	1.086115	0.077882	0.096455
C113	C	1.419448	0.411216	0.429789
C114	C	1.752782	0.744549	0.763122
C115	C	1.174078	0.084196	0.097587
C116	C	1.507412	0.417529	0.430920
C117	C	1.840745	0.750862	0.764253
C118	C	0.938481	0.067304	-0.040479
C119	C	1.271814	0.400637	0.292854
C120	C	1.605147	0.733971	0.626188
C121	C	0.931414	0.066808	-0.127490
C122	C	1.264747	0.400141	0.205843
C123	C	1.598080	0.733475	0.539176
N124	N	0.952138	0.284071	0.091894
N125	N	1.285472	0.617404	0.425227
N126	N	1.618805	0.950738	0.758560
C127	C	0.945058	0.067756	0.246201
C128	C	1.278391	0.401089	0.579535
C129	C	1.611725	0.734422	0.912868
C130	C	0.952125	0.068257	0.333213
C131	C	1.285458	0.401591	0.666546
C132	C	1.618792	0.734924	0.999879
C133	C	0.883936	0.063367	0.383775
C134	C	1.217269	0.396701	0.717108
C135	C	1.550603	0.730034	1.050442
C136	C	0.890582	0.063854	0.465530
C137	C	1.223915	0.397188	0.798863
C138	C	1.557248	0.730521	1.132196
C139	C	0.965417	0.069225	0.496721
C140	C	1.298750	0.402559	0.830054
C141	C	1.632083	0.735892	1.163387
C142	C	1.033611	0.074118	0.446152
C143	C	1.366944	0.407451	0.779485
C144	C	1.700278	0.740785	1.112818
C145	C	1.026965	0.073637	0.364398
C146	C	1.360298	0.406970	0.697732
C147	C	1.693631	0.740304	1.031065
C148	C	0.992962	0.071220	0.740187
C149	C	1.326295	0.404553	1.073521
C150	C	1.659629	0.737886	1.406854
C151	C	0.999603	0.071698	0.821947
C152	C	1.332936	0.405031	1.155281
C153	C	1.666270	0.738365	1.488614
C154	C	0.856573	0.061436	0.841320
C155	C	1.189906	0.394769	1.174653
C156	C	1.523240	0.728103	1.507986
C157	C	0.849933	0.060950	0.759564
C158	C	1.183267	0.394284	1.092897
C159	C	1.516600	0.727617	1.426231
C160	C	0.918128	0.065847	0.709002
C161	C	1.251461	0.399181	1.042335
C162	C	1.584794	0.732514	1.375669
N163	N	0.972211	0.069721	0.580287
N164	N	1.305545	0.403054	0.913620
N165	N	1.638878	0.736387	1.246954
N166	N	0.911333	0.065358	0.625437
N167	N	1.244666	0.398691	0.958770
N168	N	1.577999	0.732025	1.292104
H169	H	0.338285	0.232962	0.092652
H170	H	0.671619	0.566295	0.425985
H171	H	1.004952	0.899629	0.759319
Cl172	Cl	0.837721	-0.735365	0.213285
Cl173	Cl	1.171055	-0.402032	0.546618
Cl174	Cl	1.504388	-0.068699	0.879951
H175	H	1.048491	0.075202	0.699029
H176	H	1.381824	0.408536	1.032363
H177	H	1.715158	0.741869	1.365696
Cl178	Cl	1.127690	0.080877	0.485363
Cl179	Cl	1.461024	0.414210	0.818696
Cl180	Cl	1.794357	0.747543	1.152030
Cl181	Cl	0.808638	-0.343422	0.244075
Cl182	Cl	1.141971	-0.010089	0.577409
Cl183	Cl	1.475304	0.323244	0.910742
H184	H	0.708364	0.187784	0.101079
H185	H	1.041697	0.521117	0.434413
H186	H	1.375031	0.854451	0.767746
Cl187	Cl	0.525347	-0.132766	0.114561
Cl188	Cl	0.858680	0.200567	0.447895
Cl189	Cl	1.192013	0.533900	0.781228
Cl190	Cl	0.711898	-0.119387	0.116933
Cl191	Cl	1.045231	0.213947	0.450267
Cl192	Cl	1.378565	0.547280	0.783600
Cl193	Cl	0.804854	0.057715	0.529091
Cl194	Cl	1.138187	0.391048	0.862424
Cl195	Cl	1.471521	0.724381	1.195757
Cl196	Cl	1.036400	-0.327044	0.002449
Cl197	Cl	1.369733	0.006289	0.335783
Cl198	Cl	1.703066	0.339622	0.669116
H199	H	0.423074	-0.031146	0.107642
H200	H	0.756407	0.302187	0.440975
H201	H	1.089741	0.635521	0.774309
Cl202	Cl	0.541733	0.209274	0.097226
Cl203	Cl	0.875066	0.542608	0.430559
Cl204	Cl	1.208400	0.875941	0.763892
Cl205	Cl	1.030780	-0.391975	0.008408
Cl206	Cl	1.364114	-0.058642	0.341741
Cl207	Cl	1.697447	0.274692	0.675074
Cl208	Cl	0.755851	0.054201	0.720359
Cl209	Cl	1.089184	0.387534	1.053692
Cl210	Cl	1.422518	0.720867	1.387025
Cl211	Cl	0.171638	0.254454	0.088798
Cl212	Cl	0.504972	0.587787	0.422132
Cl213	Cl	0.838305	0.921121	0.755465
H214	H	1.060545	0.076071	0.847339
H215	H	1.393879	0.409405	1.180673
H216	H	1.727212	0.742738	1.514006
H217	H	0.801053	0.057450	0.882495
H218	H	1.134387	0.390783	1.215829
H219	H	1.467720	0.724117	1.549162
Cl220	Cl	0.789852	0.056609	0.344572
Cl221	Cl	1.123186	0.389942	0.677906
Cl222	Cl	1.456519	0.723275	1.011239
H223	H	1.051629	-0.542497	-0.013672
H224	H	1.384963	-0.209164	0.319661
H225	H	1.718296	0.124169	0.652994
Cl226	Cl	0.480383	0.201086	0.096620
Cl227	Cl	0.813716	0.534420	0.429953
Cl228	Cl	1.147049	0.867753	0.763287
Cl229	Cl	0.818052	-0.145955	0.234063
Cl230	Cl	1.151385	0.187379	0.567396
Cl231	Cl	1.484718	0.520712	0.900730
Cl232	Cl	1.045826	-0.129579	-0.007560
Cl233	Cl	1.379159	0.203754	0.325773
Cl234	Cl	1.712492	0.537087	0.659106
Cl235	Cl	1.065486	-0.718985	-0.028350
Cl236	Cl	1.398820	-0.385652	0.304983
Cl237	Cl	1.732153	-0.052319	0.638317
H238	H	0.325113	-0.041958	0.106571
H239	H	0.658446	0.291375	0.439905
H240	H	0.991780	0.624709	0.773238
H241	H	0.868552	-0.555671	0.180541
H242	H	1.201885	-0.222338	0.513874
H243	H	1.535219	0.110995	0.847207
H244	H	0.876019	-0.451994	0.172615
H245	H	1.209352	-0.118660	0.505949
H246	H	1.542685	0.214673	0.839282
H247	H	0.175178	-0.052715	0.104653
H248	H	0.508511	0.280619	0.437986
H249	H	0.841845	0.613952	0.771319
Cl250	Cl	1.112692	0.079790	0.300833
Cl251	Cl	1.446026	0.413123	0.634166
Cl252	Cl	1.779359	0.746456	0.967500
