data_functionalizedCrystal
_audit_creation_method	'MofGen! by Chris Wilmer'
_symmetry_space_group_name_H-M	'P1'
_symmetry_Int_Tables_number	1
_symmetry_cell_setting	triclinic
loop_
_symmetry_equiv_pos_as_xyz
  x,y,z
_cell_length_a	12.827893
_cell_length_b	12.827892
_cell_length_c	10.686551
_cell_angle_alpha	94.402040
_cell_angle_beta	85.605088
_cell_angle_gamma	89.982699
loop_
_atom_site_label
_atom_site_type_symbol
_atom_site_fract_x
_atom_site_fract_y
_atom_site_fract_z
Zn1	Zn	1.643019	0.370626	-0.713470
Zn2	Zn	1.629493	0.558817	-0.502482
Zn3	Zn	1.454846	0.384090	-0.502488
Zn4	Zn	1.468238	0.545328	-0.713433
O5	O	1.548899	0.464715	-0.607968
O6	O	1.787462	0.395600	-0.685495
O7	O	1.595060	0.546918	-0.325902
O8	O	1.479864	0.236067	-0.530493
O9	O	1.777524	0.533863	-0.530483
O10	O	1.618114	0.226175	-0.685500
O11	O	1.466748	0.418547	-0.325907
O12	O	1.310386	0.405468	-0.530458
O13	O	1.502688	0.510874	-0.890018
O14	O	1.320225	0.523929	-0.685438
O15	O	1.631100	0.382521	-0.890045
O16	O	1.608045	0.703264	-0.530447
O17	O	1.489572	0.693355	-0.685432
C18	C	1.277388	0.464696	-0.607945
C19	C	1.161236	0.464712	-0.607965
C20	C	1.104527	0.533037	-0.531159
C21	C	0.984478	0.533055	-0.531178
C22	C	1.548824	0.736225	-0.607963
C23	C	1.548890	0.852376	-0.608002
C24	C	1.607594	0.909024	-0.531399
C25	C	1.607664	1.029072	-0.531438
C26	C	1.821471	0.464735	-0.607992
C27	C	1.937624	0.464743	-0.608002
C28	C	1.569897	0.443691	-0.937097
C29	C	1.578845	0.434732	-1.077353
C30	C	1.548997	1.192142	-0.608017
C31	C	1.549019	1.075985	-0.608077
C32	C	1.528043	0.485582	-0.280120
C33	C	1.519297	0.494247	-0.139865
H34	H	1.144853	0.591523	-0.465392
C35	C	0.860464	0.674638	-0.513525
C36	C	0.918680	0.612031	-0.442405
H37	H	0.819847	0.723401	-0.458716
H38	H	0.815509	0.631783	-0.561709
H39	H	0.906557	0.711205	-0.568368
H40	H	0.872585	0.575459	-0.387568
H41	H	0.963638	0.654892	-0.394199
H42	H	1.461474	0.552057	-1.086085
H43	H	1.498754	1.027295	-0.673659
H44	H	0.986367	0.406240	-0.673757
C45	C	1.650965	0.362609	-1.279502
C46	C	1.656912	0.356682	-1.149950
H47	H	1.699154	0.314419	-1.324317
H48	H	1.667598	0.431455	-1.301026
H49	H	1.582110	0.345955	-1.301022
H50	H	1.725766	0.373345	-1.128428
H51	H	1.640286	0.287821	-1.128417
C52	C	1.611219	0.797025	-0.361773
C53	C	1.675373	0.854529	-0.442817
H54	H	1.653066	0.763390	-0.307081
H55	H	1.574392	0.745935	-0.409832
H56	H	1.562703	0.842759	-0.313429
H57	H	1.723884	0.808794	-0.491168
H58	H	1.712217	0.905625	-0.394753
C59	C	1.049211	0.439708	-0.777610
C60	C	1.106807	0.385758	-0.696760
H61	H	1.015607	0.390962	-0.832424
H62	H	1.094872	0.482163	-0.825824
H63	H	0.998082	0.482574	-0.729411
H64	H	1.157942	0.342897	-0.744959
H65	H	1.061143	0.343284	-0.648542
C66	C	1.662514	1.200999	-0.460146
C67	C	1.675558	1.094800	-0.442947
H68	H	1.704449	1.241574	-0.405531
H69	H	1.591144	1.220100	-0.441579
H70	H	1.683121	1.213345	-0.544990
H71	H	1.654944	1.082452	-0.358104
H72	H	1.746944	1.075692	-0.461504
H73	H	1.498688	0.892752	-0.673619
