data_functionalizedCrystal
_audit_creation_method	'MofGen! by Chris Wilmer'
_symmetry_space_group_name_H-M	'P1'
_symmetry_Int_Tables_number	1
_symmetry_cell_setting	triclinic
loop_
_symmetry_equiv_pos_as_xyz
  x,y,z
_cell_length_a	10.654550
_cell_length_b	9.065218
_cell_length_c	9.130313
_cell_angle_alpha	89.997322
_cell_angle_beta	89.999724
_cell_angle_gamma	84.750408
loop_
_atom_site_label
_atom_site_type_symbol
_atom_site_fract_x
_atom_site_fract_y
_atom_site_fract_z
O1	O	1.668660	0.207235	-0.121684
O2	O	1.303260	0.226979	-0.121710
O3	O	1.493513	0.002423	-0.121693
O4	O	1.478407	0.431791	-0.121700
O5	O	1.493500	0.002417	0.121906
O6	O	1.303247	0.226972	0.121889
O7	O	1.668647	0.207228	0.121915
Cu8	Cu	1.485946	0.217100	0.144145
Cu9	Cu	1.485961	0.217107	-0.143939
O10	O	1.478394	0.431784	0.121899
C11	C	1.256450	0.225526	0.000086
C12	C	1.116989	0.221188	0.000076
C13	C	1.038027	0.353403	0.000078
C14	C	0.906990	0.349319	0.000104
C15	C	0.933890	0.080794	0.000119
C16	C	1.064924	0.084879	0.000104
C17	C	1.492055	-0.052559	0.000104
C18	C	1.487714	-0.216378	0.000096
C19	C	1.715457	0.208681	0.000116
C20	C	1.854918	0.213019	0.000117
C21	C	1.479852	0.486766	0.000098
C22	C	1.484193	0.650585	0.000096
N23	N	1.485944	0.217093	0.346767
N24	N	1.485973	0.217102	-0.346562
C25	C	1.570217	0.117702	0.423427
C26	C	1.570229	0.117703	0.576763
C27	C	1.401691	0.316498	0.576768
C28	C	1.401674	0.316489	0.423434
H29	H	0.842704	0.456982	0.000108
C30	C	1.661666	0.009558	0.659806
C31	C	1.639683	-0.135658	0.622491
C32	C	1.723903	-0.235326	0.698944
H33	H	1.649697	0.023584	0.762129
H34	H	1.745687	0.026415	0.634631
H35	H	1.555682	-0.152509	0.647675
H36	H	1.651661	-0.149731	0.520180
H37	H	1.807924	-0.218468	0.673770
H38	H	1.711927	-0.221286	0.801264
H39	H	1.709007	-0.333865	0.673627
H40	H	0.891482	-0.030185	0.000151
H41	H	1.333082	0.397426	0.639206
C42	C	1.150455	-0.058839	0.000026
C43	C	1.076816	-0.179087	0.000002
C44	C	1.155562	-0.311496	-0.000084
H45	H	1.202162	-0.063033	0.084946
H46	H	1.202106	-0.062905	-0.084961
H47	H	1.025187	-0.175024	0.084980
H48	H	1.025111	-0.174943	-0.084912
H49	H	1.207213	-0.315562	-0.085071
H50	H	1.207265	-0.315674	0.084838
H51	H	1.105610	-0.393099	-0.000113
H52	H	1.638833	0.036766	0.361008
C53	C	1.310319	0.424649	0.340273
C54	C	1.332351	0.569868	0.377518
C55	C	1.248233	0.669535	0.300925
H56	H	1.226269	0.407909	0.365354
H57	H	1.322383	0.410505	0.237958
H58	H	1.320277	0.584006	0.479809
H59	H	1.416385	0.586656	0.352433
H60	H	1.260296	0.655391	0.198610
H61	H	1.164188	0.652781	0.326012
H62	H	1.263177	0.768077	0.326174
H63	H	1.080414	0.464395	0.000066
