data_functionalizedCrystal
_audit_creation_method	'MofGen! by Chris Wilmer'
_symmetry_space_group_name_H-M	'P1'
_symmetry_Int_Tables_number	1
_symmetry_cell_setting	triclinic
loop_
_symmetry_equiv_pos_as_xyz
  x,y,z
_cell_length_a	15.538191
_cell_length_b	10.723024
_cell_length_c	14.185292
_cell_angle_alpha	103.286635
_cell_angle_beta	82.127500
_cell_angle_gamma	65.869982
loop_
_atom_site_label
_atom_site_type_symbol
_atom_site_fract_x
_atom_site_fract_y
_atom_site_fract_z
O1	O	0.152847	1.558153	-0.083404
O2	O	0.165457	1.189145	-0.083406
O3	O	0.022488	1.445477	-0.083409
O4	O	0.295816	1.301821	-0.083401
O5	O	-0.019747	1.521219	0.083432
O6	O	0.123222	1.264887	0.083435
O7	O	0.110612	1.633895	0.083438
Cu8	Cu	0.113061	1.456307	0.098671
Cu9	Cu	0.163009	1.366733	-0.098639
O10	O	0.253581	1.377563	0.083441
C11	C	0.143422	1.180942	0.000014
C12	C	0.140677	1.043662	0.000013
C13	C	0.220675	0.931537	0.000015
C14	C	0.217840	0.789649	0.000013
C15	C	-0.033627	1.498377	0.000008
C16	C	-0.137909	1.543145	-0.000001
C17	C	-0.428579	1.098361	0.000017
C18	C	-0.526573	1.140463	0.000020
C19	C	-0.547486	1.377271	0.000021
C20	C	-0.449490	1.335187	0.000013
C21	C	-0.390044	1.195730	0.000013
C22	C	-0.410956	1.432556	0.000009
C23	C	-0.312970	1.390477	0.000007
C24	C	-0.253518	1.251028	0.000009
C25	C	-0.292058	1.153651	0.000011
C26	C	-0.470405	1.572015	0.000017
C27	C	-0.431870	1.669385	0.000012
C28	C	-0.333881	1.627303	0.000003
C29	C	-0.274430	1.487854	0.000005
C30	C	-0.295341	1.724680	0.000002
C31	C	-0.197355	1.682601	-0.000001
C32	C	-0.176444	1.445775	0.000003
C33	C	0.309697	1.324661	0.000021
C34	C	0.413981	1.279891	0.000024
C35	C	0.132648	1.642097	0.000015
C36	C	0.135394	1.779374	0.000010
N37	N	0.077929	1.519317	0.237447
N38	N	0.198133	1.303736	-0.237416
C39	C	-0.025229	1.704370	0.394971
C40	C	0.001367	1.656652	0.289945
C41	C	0.127922	1.429644	0.289963
C42	C	0.101334	1.477341	0.394991
C43	C	0.024758	1.614706	0.447487
C44	C	0.151320	1.387676	0.447507
C45	C	0.124737	1.435373	0.552526
C46	C	0.048167	1.572734	0.605029
C47	C	-0.001825	1.662402	0.552506
C48	C	0.227900	1.250316	0.395010
C49	C	0.277887	1.160651	0.447526
C50	C	0.251299	1.208343	0.552547
C51	C	0.174729	1.345704	0.605050
C52	C	0.301291	1.118674	0.605070
C53	C	0.274708	1.166371	0.710089
C54	C	0.148146	1.393400	0.710068
H55	H	0.291262	0.940588	0.000023
H56	H	0.070095	1.034602	-0.000015
H57	H	0.249544	1.211489	0.309497
O58	O	0.022165	1.619160	0.707045
C59	C	-0.076046	1.650176	0.742129
H60	H	-0.115883	1.673244	0.681602
H61	H	-0.112658	1.748498	0.812378
H62	H	-0.079012	1.553870	0.760779
O63	O	-0.159771	1.777020	0.000036
C64	C	-0.060533	1.709962	0.000011
H65	H	-0.046164	1.616792	0.031599
H66	H	-0.042228	1.791579	0.048447
H67	H	-0.012962	1.667291	-0.080032
O68	O	-0.605239	1.512828	0.000195
C69	C	-0.609504	1.613818	0.086583
H70	H	-0.591739	1.560395	0.146984
H71	H	-0.686026	1.708374	0.115584
H72	H	-0.554199	1.654348	0.067040
O73	O	-0.099726	1.837693	0.446025
C74	C	-0.173489	1.824901	0.506800
H75	H	-0.167740	1.713155	0.475153
H76	H	-0.248102	1.910009	0.508001
H77	H	-0.164273	1.841194	0.586387
H78	H	-0.039344	1.729681	0.247192
O79	O	0.053587	0.894123	0.000140
C80	C	-0.020935	0.934561	0.086560
H81	H	-0.005890	0.838770	0.115370
H82	H	-0.094293	0.970475	0.067122
H83	H	-0.022882	1.027136	0.147065
O84	O	-0.565538	1.612750	-0.000163
C85	C	-0.570667	1.522614	-0.086564
H86	H	-0.499096	1.473036	-0.146956
H87	H	-0.633381	1.588625	-0.115568
H88	H	-0.583674	1.433299	-0.067035
H89	H	-0.480285	1.782933	0.000017
H90	H	0.286325	0.693418	0.000011
H91	H	-0.243651	1.040088	0.000003
O92	O	0.073853	1.526879	0.761176
C93	C	0.109308	1.608438	0.821896
H94	H	0.178482	1.532759	0.837637
H95	H	0.051544	1.679411	0.895742
H96	H	0.126567	1.679094	0.781411
H97	H	-0.343759	1.838230	0.000012
H98	H	-0.128037	1.332212	-0.000005
O99	O	-0.076118	1.795881	0.603613
C100	C	-0.040663	1.877440	0.664333
H101	H	0.028512	1.801760	0.680074
H102	H	-0.098427	1.948413	0.738179
H103	H	-0.023403	1.948096	0.623848
H104	H	0.190273	1.317802	0.247209
O105	O	0.352216	1.027236	0.396373
C106	C	0.364980	1.004376	0.292418
H107	H	0.294261	1.078187	0.278068
H108	H	0.384871	0.887326	0.252517
H109	H	0.426128	1.029127	0.262609
H110	H	-0.173734	1.216772	0.000013
O111	O	-0.370968	0.962851	0.000050
C112	C	-0.425978	0.885906	0.000017
H113	H	-0.506887	0.964944	0.031611
H114	H	-0.402604	0.812909	0.048445
H115	H	-0.412925	0.817648	-0.080029
O116	O	-0.564084	1.045937	-0.000113
C117	C	-0.598245	1.023936	-0.086533
H118	H	-0.614708	1.119968	-0.115344
H119	H	-0.667645	1.012239	-0.067097
H120	H	-0.540009	0.921813	-0.147039
H121	H	0.363646	1.006836	0.562315
H122	H	0.315414	1.093356	0.752848
