data_functionalizedCrystal
_audit_creation_method	'MofGen! by Chris Wilmer'
_symmetry_space_group_name_H-M	'P1'
_symmetry_Int_Tables_number	1
_symmetry_cell_setting	triclinic
loop_
_symmetry_equiv_pos_as_xyz
  x,y,z
_cell_length_a	21.295418
_cell_length_b	29.839131
_cell_length_c	21.295411
_cell_angle_alpha	89.979636
_cell_angle_beta	89.956262
_cell_angle_gamma	90.057233
loop_
_atom_site_label
_atom_site_type_symbol
_atom_site_fract_x
_atom_site_fract_y
_atom_site_fract_z
Zn1	Zn	0.962308	-0.178715	-0.356239
Zn2	Zn	0.962190	-0.253830	-0.250967
Zn3	Zn	0.857031	-0.178736	-0.250949
Zn4	Zn	0.856981	-0.253839	-0.356163
O5	O	0.909628	-0.216280	-0.303580
O6	O	1.050382	-0.188667	-0.342314
O7	O	0.948213	-0.243874	-0.162875
O8	O	0.871067	-0.115866	-0.264940
O9	O	1.050295	-0.243854	-0.264971
O10	O	0.948413	-0.115851	-0.342296
O11	O	0.870953	-0.188703	-0.162862
O12	O	0.768935	-0.188711	-0.264867
O13	O	0.870981	-0.243869	-0.444263
O14	O	0.768898	-0.243889	-0.342167
O15	O	0.948364	-0.188675	-0.444319
O16	O	0.948164	-0.316699	-0.264897
O17	O	0.870866	-0.316705	-0.342185
C18	C	0.746076	-0.216304	-0.303507
C19	C	0.676108	-0.216325	-0.303491
C20	C	0.643238	-0.245094	-0.343681
C21	C	0.577496	-0.245083	-0.343710
C22	C	0.544625	-0.216307	-0.303536
C23	C	0.577503	-0.187532	-0.263343
C24	C	0.643244	-0.187541	-0.263321
N25	N	0.441350	-0.212791	-0.248479
N26	N	0.378899	-0.212785	-0.248502
C27	C	0.346551	-0.216279	-0.303603
N28	N	0.379013	-0.219787	-0.358681
N29	N	0.441470	-0.219795	-0.358657
C30	C	0.473340	-0.216294	-0.303557
C31	C	0.242396	-0.245037	-0.343827
C32	C	0.176652	-0.245023	-0.343857
C33	C	0.176660	-0.187475	-0.263485
C34	C	0.242403	-0.187487	-0.263461
C35	C	0.275266	-0.216271	-0.303632
C36	C	0.909514	-0.333003	-0.303548
C37	C	0.909523	-0.382937	-0.303556
C38	C	0.949949	-0.692564	-0.263395
C39	C	0.950027	-0.880238	-0.263419
O40	O	0.984309	-0.904489	-0.229249
N41	N	0.909758	-0.903722	-0.303627
C42	C	0.869470	-0.880286	-0.343835
O43	O	0.835225	-0.904567	-0.378039
C44	C	0.869396	-0.692614	-0.343813
C45	C	0.909663	-0.669131	-0.303598
C46	C	0.990214	-0.669082	-0.223184
C47	C	0.990192	-0.622167	-0.223176
C48	C	0.949905	-0.598734	-0.263379
C49	C	0.909641	-0.622216	-0.303590
C50	C	0.829111	-0.669178	-0.384023
C51	C	0.829097	-0.622257	-0.384015
C52	C	0.869364	-0.598775	-0.343800
C53	C	0.869332	-0.551867	-0.343785
N54	N	0.909601	-0.528383	-0.303577
C55	C	0.949887	-0.551816	-0.263374
C56	C	0.869511	-0.978816	-0.343842
C57	C	0.869528	-1.025734	-0.343847
C58	C	0.950087	-1.025683	-0.263432
C59	C	0.950065	-0.978764	-0.263425
C60	C	0.909780	-0.955332	-0.303634
C61	C	0.949837	-0.453290	-0.263359
C62	C	0.949810	-0.406370	-0.263353
C63	C	0.869254	-0.406426	-0.343770
C64	C	0.869279	-0.453341	-0.343774
C65	C	0.909576	-0.476772	-0.303567
O66	O	0.835073	-0.527587	-0.377942
O67	O	0.984137	-0.527526	-0.229185
C68	C	0.949972	-0.739480	-0.263403
C69	C	0.909707	-0.762962	-0.303614
C70	C	0.869421	-0.739529	-0.343817
C71	C	0.909725	-0.809880	-0.303619
C72	C	0.950012	-0.833313	-0.263416
C73	C	0.990281	-0.809829	-0.223208
C74	C	0.990258	-0.762913	-0.223200
C75	C	0.829152	-0.763014	-0.384025
C76	C	0.829177	-0.809929	-0.384029
C77	C	0.869463	-0.833362	-0.343826
C78	C	1.073818	-0.216257	-0.303653
C79	C	1.143786	-0.216247	-0.303684
C80	C	0.909680	-0.216271	-0.467770
C81	C	0.909702	-0.216267	-0.537738
C82	C	0.909759	-0.099102	-0.303625
C83	C	0.909815	-0.049167	-0.303644
C84	C	0.949994	-0.187526	-0.570635
C85	C	0.949993	-0.187507	-0.636377
C86	C	0.909707	-0.216236	-0.669221
C87	C	0.869407	-0.244978	-0.636316
C88	C	0.869405	-0.244994	-0.570575
N89	N	0.904840	-0.255537	-0.772436
N90	N	0.904846	-0.255521	-0.834887
C91	C	0.909711	-0.216190	-0.867295
N92	N	0.914582	-0.176875	-0.834893
N93	N	0.914580	-0.176891	-0.772436
C94	C	0.909705	-0.216222	-0.740506
C95	C	0.950004	-0.187426	-0.971478
C96	C	0.949999	-0.187406	-1.037221
C97	C	0.869416	-0.244882	-1.037159
C98	C	0.869418	-0.244898	-0.971417
C99	C	0.909716	-0.216171	-0.938580
C100	C	0.909612	-0.216257	-0.140028
C101	C	0.909712	-0.216135	-0.070060
H102	H	0.670006	-0.164112	-0.230593
H103	H	0.269155	-0.268472	-0.376540
C104	C	0.825095	-0.276584	-0.672439
C105	C	0.753536	-0.272932	-0.663351
C106	C	0.709220	-0.304538	-0.699472
C107	C	0.736463	-0.339797	-0.744680
C108	C	0.808025	-0.343451	-0.753770
C109	C	0.852341	-0.311844	-0.717649
H110	H	0.733366	-0.246830	-0.629884
H111	H	0.656245	-0.301833	-0.692743
H112	H	0.703657	-0.363194	-0.771419
H113	H	0.828194	-0.369553	-0.787237
H114	H	0.905316	-0.314549	-0.724378
H115	H	1.022982	-0.603050	-0.190431
H116	H	0.796292	-0.603181	-0.416761
H117	H	0.982600	-0.387253	-0.230603
H118	H	0.836451	-0.387339	-0.376501
H119	H	0.836591	-0.268397	-0.543791
H120	H	0.836733	-1.044849	-0.376588
H121	H	0.836608	-0.268269	-1.063899
H122	H	0.550728	-0.268510	-0.376440
H123	H	0.550736	-0.164102	-0.230635
C124	C	0.825092	-0.276514	-0.935231
C125	C	0.775688	-0.257060	-0.890008
C126	C	0.731353	-0.288675	-0.853825
C127	C	0.736424	-0.339744	-0.862866
C128	C	0.785830	-0.359201	-0.908091
C129	C	0.830164	-0.327586	-0.944273
H130	H	0.771933	-0.219253	-0.883314
H131	H	0.694780	-0.274271	-0.820347
H132	H	0.703605	-0.363148	-0.836081
H133	H	0.789585	-0.397008	-0.914785
H134	H	0.866738	-0.341990	-0.977752
H135	H	0.149891	-0.268450	-0.376588
C136	C	0.994311	-0.155922	-0.534513
C137	C	1.043709	-0.175389	-0.489349
C138	C	1.088023	-0.143784	-0.453225
C139	C	1.082940	-0.092711	-0.462264
C140	C	1.033540	-0.073241	-0.507429
C141	C	0.989226	-0.104847	-0.543554
H142	H	1.047473	-0.213199	-0.482656
H143	H	1.124592	-0.158197	-0.419790
H144	H	1.115744	-0.069315	-0.435522
H145	H	1.029776	-0.035432	-0.514122
H146	H	0.952657	-0.090433	-0.576988
H147	H	0.982802	-0.164100	-0.663167
H148	H	0.149898	-0.164043	-0.230778
H149	H	0.982813	-0.164032	-0.944741
C150	C	0.784831	-0.737243	-0.428251
C151	C	0.713277	-0.743770	-0.423020
C152	C	0.668950	-0.718002	-0.467248
C153	C	0.696178	-0.685707	-0.516706
C154	C	0.767736	-0.679178	-0.521939
C155	C	0.812063	-0.704946	-0.477712
H156	H	0.693117	-0.767678	-0.386406
H157	H	0.615978	-0.722835	-0.463374
H158	H	0.663365	-0.666632	-0.549446
H159	H	0.787896	-0.655270	-0.558553
H160	H	0.865035	-0.700113	-0.481586
H161	H	0.836704	-0.959741	-0.376586
C162	C	0.679385	-0.276751	-0.387875
C163	C	0.670254	-0.327816	-0.382612
C164	C	0.706401	-0.359472	-0.426808
C165	C	0.751681	-0.340064	-0.476266
C166	C	0.760815	-0.288996	-0.481531
C167	C	0.724667	-0.257340	-0.437336
H168	H	0.636733	-0.342186	-0.345998
H169	H	0.699640	-0.397276	-0.422910
H170	H	0.778440	-0.363498	-0.508983
H171	H	0.794335	-0.274627	-0.518145
H172	H	0.731429	-0.219536	-0.441233
C173	C	1.034556	-0.737086	-0.178966
C174	C	1.083954	-0.704777	-0.206295
C175	C	1.128255	-0.678954	-0.162059
C176	C	1.123157	-0.685438	-0.090493
C177	C	1.073756	-0.717748	-0.063159
C178	C	1.029456	-0.743572	-0.107396
H179	H	1.087730	-0.699976	-0.259276
H180	H	1.164824	-0.655036	-0.182294
H181	H	1.155950	-0.666322	-0.057747
H182	H	1.069980	-0.722550	-0.010179
H183	H	0.992886	-0.767490	-0.087161
H184	H	0.269165	-0.164062	-0.230731
H185	H	0.796381	-0.829044	-0.416777
H186	H	0.982652	-0.472362	-0.230620
C187	C	1.034598	-0.835611	-0.178985
C188	C	1.106154	-0.829095	-0.184213
C189	C	1.150472	-0.854879	-0.139995
C190	C	1.123232	-0.887180	-0.090549
C191	C	1.051672	-0.893697	-0.085319
C192	C	1.007355	-0.867912	-0.129537
H193	H	1.126322	-0.805183	-0.220817
H194	H	1.203446	-0.850055	-0.143867
H195	H	1.156038	-0.906267	-0.057817
H196	H	1.031504	-0.917609	-0.048715
H197	H	0.954381	-0.872737	-0.125665
H198	H	1.023023	-0.688157	-0.190445
C199	C	0.994322	-0.155787	-1.073409
C200	C	1.065879	-0.159450	-1.064426
C201	C	1.110203	-0.127830	-1.100614
C202	C	1.082970	-0.092548	-1.145785
C203	C	1.011409	-0.088884	-1.154771
C204	C	0.967085	-0.120503	-1.118583
H205	H	1.086042	-0.185569	-1.030986
H206	H	1.163177	-0.130543	-1.093962
H207	H	1.115781	-0.069141	-1.172574
H208	H	0.991246	-0.062765	-1.188211
H209	H	0.914111	-0.117791	-1.125234
C210	C	0.824984	-0.479177	-0.388005
C211	C	0.753421	-0.472800	-0.382780
C212	C	0.709131	-0.498633	-0.427017
C213	C	0.736404	-0.530842	-0.476478
C214	C	0.807970	-0.537220	-0.481706
C215	C	0.852260	-0.511388	-0.437469
H216	H	0.733228	-0.448956	-0.346164
H217	H	0.656152	-0.493911	-0.423147
H218	H	0.703617	-0.549965	-0.509225
H219	H	0.828163	-0.561065	-0.518322
H220	H	0.905239	-0.516109	-0.441339
H221	H	0.982890	-1.044770	-0.230698
H222	H	0.982855	-0.959647	-0.230679
H223	H	0.796318	-0.688289	-0.416767
