data_functionalizedCrystal
_audit_creation_method	'MofGen! by Chris Wilmer'
_symmetry_space_group_name_H-M	'P1'
_symmetry_Int_Tables_number	1
_symmetry_cell_setting	triclinic
loop_
_symmetry_equiv_pos_as_xyz
  x,y,z
_cell_length_a	14.519731
_cell_length_b	17.038272
_cell_length_c	13.596369
_cell_angle_alpha	89.993837
_cell_angle_beta	89.994584
_cell_angle_gamma	87.400204
loop_
_atom_site_label
_atom_site_type_symbol
_atom_site_fract_x
_atom_site_fract_y
_atom_site_fract_z
O1	O	1.231705	0.102582	-0.081795
O2	O	1.731705	0.602582	0.418205
O3	O	0.964153	0.114636	-0.081796
O4	O	1.464153	0.614636	0.418204
O5	O	1.096339	-0.005209	-0.081788
O6	O	1.596339	0.494791	0.418212
O7	O	1.099519	0.222427	-0.081803
O8	O	1.599519	0.722427	0.418197
O9	O	1.096324	-0.005215	0.081795
O10	O	1.596324	0.494785	0.581795
O11	O	0.964138	0.114629	0.081787
O12	O	1.464138	0.614629	0.581787
O13	O	1.231690	0.102576	0.081788
O14	O	1.731690	0.602576	0.581788
Zn15	Zn	1.097912	0.108602	0.107760
Zn16	Zn	1.597912	0.608602	0.607760
Zn17	Zn	1.097931	0.108610	-0.107768
Zn18	Zn	1.597931	0.608610	0.392232
O19	O	1.099505	0.222421	0.081780
O20	O	1.599505	0.722421	0.581780
C21	C	0.929743	0.114068	-0.000005
C22	C	1.429743	0.614068	0.499995
C23	C	0.827233	0.112375	-0.000005
C24	C	1.327233	0.612375	0.499995
C25	C	0.743984	0.111000	-0.000009
C26	C	1.243984	0.611000	0.499991
C27	C	0.639544	0.109282	-0.000010
C28	C	1.139544	0.609282	0.499990
C29	C	0.556300	0.107918	-0.000009
C30	C	1.056300	0.607918	0.499991
C31	C	0.451854	0.106200	-0.000011
C32	C	0.951854	0.606200	0.499989
C33	C	1.093439	-0.034345	0.000004
C34	C	1.593439	0.465655	0.500004
C35	C	1.084809	-0.121153	0.000003
C36	C	1.584809	0.378847	0.500003
C37	C	1.164041	-0.171133	0.000005
C38	C	1.664041	0.328867	0.500005
C39	C	1.155927	-0.252698	-0.000005
C40	C	1.655927	0.247302	0.499995
C41	C	1.068580	-0.284280	-0.000008
C42	C	1.568580	0.215720	0.499992
C43	C	0.989342	-0.234293	-0.000013
C44	C	1.489342	0.265707	0.499987
C45	C	0.997457	-0.152730	-0.000011
C46	C	1.497457	0.347270	0.499989
C47	C	1.039911	-0.530086	-0.000022
C48	C	1.539911	-0.030086	0.499978
C49	C	1.031802	-0.611655	-0.000021
C50	C	1.531802	-0.111655	0.499979
C51	C	1.198388	-0.630054	-0.000015
C52	C	1.698388	-0.130054	0.499985
C53	C	1.206496	-0.548489	-0.000007
C54	C	1.706496	-0.048489	0.499993
C55	C	1.127257	-0.498509	-0.000016
C56	C	1.627257	0.001491	0.499984
C57	C	1.060284	-0.367651	-0.000015
C58	C	1.560284	0.132349	0.499985
C59	C	1.135554	-0.415140	-0.000017
C60	C	1.635554	0.084860	0.499983
C61	C	1.266100	0.103144	-0.000005
C62	C	1.766100	0.603144	0.499995
C63	C	1.368610	0.104836	-0.000011
C64	C	1.868610	0.604836	0.499989
C65	C	1.102404	0.251557	-0.000014
C66	C	1.602404	0.751557	0.499986
C67	C	1.111034	0.338364	-0.000020
C68	C	1.611034	0.838364	0.499980
N69	N	1.097906	0.108595	0.254852
N70	N	1.597906	0.608595	0.754852
N71	N	1.097945	0.108610	-0.254860
N72	N	1.597945	0.608610	0.245140
C73	C	1.097930	0.108611	0.656143
C74	C	1.597930	0.608611	1.156143
C75	C	1.097921	0.108609	0.544491
C76	C	1.597921	0.608609	1.044491
C77	C	1.097918	0.108604	0.455501
C78	C	1.597918	0.608604	0.955501
C79	C	1.097908	0.108601	0.343842
C80	C	1.597908	0.608601	0.843842
H81	H	1.235169	-0.145426	0.000014
H82	H	1.735169	0.354574	0.500014
O83	O	0.920585	-0.104064	-0.000052
O84	O	1.420585	0.395936	0.499948
C85	C	0.946476	-0.025304	-0.000027
C86	C	1.446476	0.474696	0.499973
H87	H	1.019170	-0.022070	-0.030994
H88	H	1.519170	0.477930	0.469006
H89	H	0.944822	-0.001727	0.078452
H90	H	1.444822	0.498273	0.578452
C91	C	0.789511	0.020545	-0.026148
C92	C	1.289511	0.520545	0.473852
C93	C	0.878793	0.024516	-0.064190
C94	C	1.378793	0.524516	0.435810
H95	H	0.747759	0.051278	-0.065722
H96	H	1.247759	0.551278	0.434278
H97	H	0.772067	-0.032518	-0.026161
H98	H	1.272067	0.467482	0.473839
H99	H	0.788146	0.040190	0.039250
H100	H	1.288146	0.540190	0.539250
H101	H	0.880160	0.004862	-0.129582
H102	H	1.380160	0.504862	0.370418
H103	H	0.896236	0.077577	-0.064189
H104	H	1.396236	0.577577	0.435811
O105	O	1.291416	-0.517943	-0.000043
O106	O	1.791416	-0.017943	0.499957
C107	C	1.359611	-0.579549	-0.000015
C108	C	1.859611	-0.079549	0.499985
H109	H	1.329417	-0.634988	-0.030995
H110	H	1.829417	-0.134988	0.469005
H111	H	1.384341	-0.591063	0.078467
H112	H	1.884341	-0.091063	0.578467
C113	C	1.478567	-0.488308	-0.026101
C114	C	1.978567	0.011692	0.473899
C115	C	1.441485	-0.556398	-0.064159
C116	C	1.941485	-0.056398	0.435841
H117	H	1.529073	-0.474027	-0.065665
H118	H	2.029073	0.025973	0.434335
H119	H	1.432624	-0.446802	-0.026117
H120	H	1.932624	0.053198	0.473883
H121	H	1.499169	-0.497912	0.039299
H122	H	1.999169	0.002088	0.539299
H123	H	1.420873	-0.546790	-0.129554
H124	H	1.920873	-0.046790	0.370446
H125	H	1.487427	-0.597901	-0.064156
H126	H	1.987427	-0.097901	0.435844
O127	O	0.975488	-0.398426	-0.000141
O128	O	1.475488	0.101574	0.499859
C129	C	0.965812	-0.445030	-0.084876
C130	C	1.465812	0.054970	0.415124
H131	H	1.036917	-0.465225	-0.113128
H132	H	1.536917	0.034775	0.386872
H133	H	0.927831	-0.409053	-0.144197
H134	H	1.427831	0.090947	0.355803
C135	C	0.823165	-0.492452	-0.024443
C136	C	1.323165	0.007548	0.475557
C137	C	0.910498	-0.517262	-0.059137
C138	C	1.410498	-0.017262	0.440863
H139	H	0.789042	-0.537007	-0.008569
H140	H	1.289042	-0.037007	0.491431
H141	H	0.829682	-0.461052	0.032643
H142	H	1.329682	0.038948	0.532643
H143	H	0.791527	-0.462471	-0.073883
H144	H	1.291527	0.037529	0.426117
H145	H	0.942139	-0.547234	-0.009694
H146	H	1.442139	-0.047234	0.490306
H147	H	0.903985	-0.548669	-0.116215
H148	H	1.403985	-0.048669	0.383785
O149	O	1.275261	-0.678716	-0.000058
O150	O	1.775261	-0.178716	0.499942
C151	C	1.249374	-0.757479	-0.000037
C152	C	1.749374	-0.257479	0.499963
H153	H	1.176686	-0.760709	-0.031005
H154	H	1.676686	-0.260709	0.468995
H155	H	1.251016	-0.781069	0.078441
H156	H	1.751016	-0.281069	0.578441
C157	C	1.406346	-0.803316	-0.026156
C158	C	1.906346	-0.303316	0.473844
C159	C	1.317072	-0.807284	-0.064200
C160	C	1.817072	-0.307284	0.435800
H161	H	1.448106	-0.834040	-0.065731
H162	H	1.948106	-0.334040	0.434269
H163	H	1.423788	-0.750253	-0.026167
H164	H	1.923788	-0.250253	0.473833
H165	H	1.407701	-0.822973	0.039241
H166	H	1.907701	-0.322973	0.539241
H167	H	1.315716	-0.787617	-0.129591
H168	H	1.815716	-0.287617	0.370409
H169	H	1.299631	-0.860345	-0.064201
H170	H	1.799631	-0.360345	0.435799
O171	O	1.232988	-0.301137	0.000047
O172	O	1.732988	0.198863	0.500047
C173	C	1.311822	-0.255772	0.000035
C174	C	1.811822	0.244228	0.500035
H175	H	1.293181	-0.194937	0.031005
H176	H	1.793181	0.305063	0.531005
H177	H	1.338311	-0.249919	-0.078440
H178	H	1.838311	0.250081	0.421560
C179	C	1.410231	-0.371022	0.026158
C180	C	1.910231	0.128978	0.526158
C181	C	1.387337	-0.296305	0.064203
C182	C	1.887337	0.203695	0.564203
H183	H	1.456814	-0.396025	0.065736
H184	H	1.956814	0.103975	0.565736
H185	H	1.357120	-0.401586	0.026163
H186	H	1.857120	0.098414	0.526163
H187	H	1.432300	-0.366134	-0.039237
H188	H	1.932300	0.133866	0.460763
H189	H	1.365258	-0.301195	0.129592
H190	H	1.865258	0.198805	0.629592
H191	H	1.440447	-0.265743	0.064211
H192	H	1.940447	0.234257	0.564211
H193	H	0.975389	-0.489401	-0.000030
H194	H	1.475389	0.010599	0.499970
O195	O	0.946929	-0.642300	-0.000208
O196	O	1.446929	-0.142300	0.499792
C197	C	0.898247	-0.616756	-0.084924
C198	C	1.398247	-0.116756	0.415076
H199	H	0.949221	-0.599708	-0.144133
H200	H	1.449221	-0.099708	0.355867
H201	H	0.851009	-0.563681	-0.065778
H202	H	1.351009	-0.063681	0.434222
C203	C	0.777412	-0.704515	-0.050626
C204	C	1.277412	-0.204515	0.449374
C205	C	0.840021	-0.683583	-0.123350
C206	C	1.340021	-0.183583	0.376650
H207	H	0.741492	-0.745735	-0.074327
H208	H	1.241492	-0.245735	0.425673
H209	H	0.810208	-0.721723	0.006451
H210	H	1.310208	-0.221723	0.506451
H211	H	0.738057	-0.660281	-0.034677
H212	H	1.238057	-0.160281	0.465323
H213	H	0.879382	-0.727815	-0.139288
H214	H	1.379382	-0.227815	0.360712
H215	H	0.807230	-0.666385	-0.180431
H216	H	1.307230	-0.166385	0.319569
O217	O	0.904543	-0.265062	-0.000148
O218	O	1.404543	0.234938	0.499852
C219	C	0.894865	-0.311669	-0.084881
C220	C	1.394865	0.188331	0.415119
H221	H	0.965969	-0.331874	-0.113125
H222	H	1.465969	0.168126	0.386875
H223	H	0.856894	-0.275691	-0.144207
H224	H	1.356894	0.224309	0.355793
C225	C	0.752205	-0.359071	-0.024455
C226	C	1.252205	0.140929	0.475545
C227	C	0.839537	-0.383893	-0.059140
C228	C	1.339537	0.116107	0.440860
H229	H	0.718073	-0.403620	-0.008580
H230	H	1.218073	0.096380	0.491420
H231	H	0.758723	-0.327669	0.032629
H232	H	1.258723	0.172331	0.532629
H233	H	0.720575	-0.329088	-0.073899
H234	H	1.220575	0.170912	0.426101
H235	H	0.871170	-0.413866	-0.009692
H236	H	1.371170	0.086134	0.490308
H237	H	0.833023	-0.415302	-0.116216
H238	H	1.333023	0.084698	0.383784
H239	H	1.206672	-0.389422	-0.000035
H240	H	1.706672	0.110578	0.499965
