data_functionalizedCrystal
_audit_creation_method	'MofGen! by Chris Wilmer'
_symmetry_space_group_name_H-M	'P1'
_symmetry_Int_Tables_number	1
_symmetry_cell_setting	triclinic
loop_
_symmetry_equiv_pos_as_xyz
  x,y,z
_cell_length_a	16.625546
_cell_length_b	16.625547
_cell_length_c	21.395356
_cell_angle_alpha	89.979278
_cell_angle_beta	89.971853
_cell_angle_gamma	90.022405
loop_
_atom_site_label
_atom_site_type_symbol
_atom_site_fract_x
_atom_site_fract_y
_atom_site_fract_z
Zn1	Zn	-0.321019	1.232648	-0.354332
Zn2	Zn	0.178981	1.732648	0.145668
Zn3	Zn	-0.455857	1.232561	-0.249555
Zn4	Zn	0.044143	1.732561	0.250445
Zn5	Zn	-0.321042	1.097819	-0.249561
Zn6	Zn	0.178958	1.597819	0.250439
Zn7	Zn	-0.455814	1.097780	-0.354287
Zn8	Zn	0.044186	1.597780	0.145713
O9	O	-0.388433	1.165202	-0.301934
O10	O	0.111567	1.665202	0.198066
O11	O	-0.338915	1.345469	-0.340449
O12	O	0.161085	1.845469	0.159551
O13	O	-0.438002	1.214667	-0.161878
O14	O	0.061998	1.714667	0.338122
O15	O	-0.208207	1.115758	-0.263481
O16	O	0.291793	1.615758	0.236519
O17	O	-0.437979	1.345405	-0.263470
O18	O	0.062021	1.845405	0.236530
O19	O	-0.208190	1.214815	-0.340456
O20	O	0.291810	1.714815	0.159544
O21	O	-0.338953	1.115673	-0.161883
O22	O	0.161047	1.615673	0.338117
O23	O	-0.338911	0.984982	-0.263437
O24	O	0.161089	1.484982	0.236563
O25	O	-0.437905	1.115691	-0.441971
O26	O	0.062095	1.615691	0.058029
O27	O	-0.437927	0.984953	-0.340379
O28	O	0.062073	1.484953	0.159621
O29	O	-0.338872	1.214777	-0.442004
O30	O	0.161128	1.714777	0.057996
O31	O	-0.568684	1.214629	-0.263426
O32	O	-0.068684	1.714629	0.236574
O33	O	-0.568652	1.115606	-0.340373
O34	O	-0.068652	1.615606	0.159627
C35	C	-0.388417	0.955711	-0.301904
C36	C	0.111583	1.455711	0.198096
C37	C	-0.388430	0.866090	-0.301907
C38	C	0.111570	1.366090	0.198093
C39	C	-0.388432	0.793308	-0.301914
C40	C	0.111568	1.293308	0.198086
C41	C	-0.388436	0.701999	-0.301930
C42	C	0.111564	1.201999	0.198070
C43	C	-0.388443	0.629223	-0.301946
C44	C	0.111557	1.129223	0.198054
C45	C	-0.388449	0.537908	-0.301961
C46	C	0.111551	1.037908	0.198039
C47	C	-0.597924	1.165126	-0.301908
C48	C	-0.097924	1.665126	0.198092
C49	C	-0.687545	1.165167	-0.301917
C50	C	-0.187545	1.665167	0.198083
C51	C	-1.015721	1.165307	-0.301983
C52	C	-0.515721	1.665307	0.198017
C53	C	-0.924412	1.165266	-0.301966
C54	C	-0.424412	1.665266	0.198034
C55	C	-0.851636	1.165237	-0.301950
C56	C	-0.351636	1.665237	0.198050
C57	C	-0.760322	1.165196	-0.301934
C58	C	-0.260322	1.665196	0.198066
C59	C	-0.178124	1.165301	-0.301974
C60	C	0.321876	1.665301	0.198026
C61	C	-0.088503	1.165343	-0.301991
C62	C	0.411497	1.665343	0.198009
C63	C	-0.388381	1.165239	-0.465357
C64	C	0.111619	1.665239	0.034643
C65	C	-0.388359	1.165255	-0.534999
C66	C	0.111641	1.665255	-0.034999
C67	C	-0.388449	1.375511	-0.301964
C68	C	0.111551	1.875511	0.198036
C69	C	-0.388456	1.465132	-0.301977
C70	C	0.111544	1.965132	0.198023
C71	C	-0.336664	1.216926	-1.036813
C72	C	0.163336	1.716926	-0.536813
C73	C	-0.336684	1.216919	-0.971378
C74	C	0.163316	1.716919	-0.471378
C75	C	-0.388252	1.165324	-0.938637
C76	C	0.111748	1.665324	-0.438637
C77	C	-0.439819	1.113747	-0.971337
C78	C	0.060181	1.613747	-0.471337
C79	C	-0.439804	1.113760	-1.036771
C80	C	0.060196	1.613760	-0.536771
C81	C	-0.394637	1.092656	-0.834957
C82	C	0.105363	1.592656	-0.334957
C83	C	-0.394647	1.092641	-0.769524
C84	C	0.105353	1.592641	-0.269524
C85	C	-0.388303	1.165283	-0.736816
C86	C	0.111697	1.665283	-0.236816
C87	C	-0.381934	1.237943	-0.769550
C88	C	0.118066	1.737943	-0.269550
C89	C	-0.381918	1.237956	-0.834984
C90	C	0.118082	1.737956	-0.334984
C91	C	-0.388274	1.165304	-0.867685
C92	C	0.111726	1.665304	-0.367685
C93	C	-0.336765	1.216855	-0.633171
C94	C	0.163235	1.716855	-0.133171
C95	C	-0.336790	1.216850	-0.567735
C96	C	0.163210	1.716850	-0.067735
C97	C	-0.439921	1.113670	-0.567696
C98	C	0.060079	1.613670	-0.067696
C99	C	-0.439900	1.113682	-0.633131
C100	C	0.060100	1.613682	-0.133131
C101	C	-0.388317	1.165273	-0.665865
C102	C	0.111683	1.665273	-0.165865
C103	C	-0.388427	1.165211	-0.139146
C104	C	0.111573	1.665211	0.360854
C105	C	-0.388221	1.165351	-0.069505
C106	C	0.111779	1.665351	0.430495
H107	H	-0.294666	1.258939	-1.063461
H108	H	0.205334	1.758939	-0.563461
Br109	Br	-0.266710	1.286919	-0.927000
Br110	Br	0.233290	1.786919	-0.427000
H111	H	-0.376765	1.297095	-0.742920
H112	H	0.123235	1.797095	-0.242920
Br113	Br	-0.509810	1.043729	-0.926906
Br114	Br	-0.009810	1.543729	-0.426906
H115	H	-0.481789	1.071761	-1.063389
H116	H	0.018211	1.571761	-0.563389
H117	H	-0.399833	1.033477	-0.742877
H118	H	0.100167	1.533477	-0.242877
H119	H	-0.294763	1.258863	-0.659825
H120	H	0.205237	1.758863	-0.159825
Br121	Br	-0.373285	1.336561	-0.879406
Br122	Br	0.126715	1.836561	-0.379406
H123	H	-0.294808	1.258853	-0.541118
H124	H	0.205192	1.758853	-0.041118
H125	H	-0.481911	1.071663	-0.541039
H126	H	0.018089	1.571663	-0.041039
Br127	Br	-0.403237	0.994059	-0.879339
Br128	Br	0.096763	1.494059	-0.379339
Br129	Br	-0.509874	1.043685	-0.677502
Br130	Br	-0.009874	1.543685	-0.177502
