data_functionalizedCrystal
_audit_creation_method	'MofGen! by Chris Wilmer'
_symmetry_space_group_name_H-M	'P1'
_symmetry_Int_Tables_number	1
_symmetry_cell_setting	triclinic
loop_
_symmetry_equiv_pos_as_xyz
  x,y,z
_cell_length_a	10.654550
_cell_length_b	12.837942
_cell_length_c	9.730223
_cell_angle_alpha	89.998888
_cell_angle_beta	89.996251
_cell_angle_gamma	89.656921
loop_
_atom_site_label
_atom_site_type_symbol
_atom_site_fract_x
_atom_site_fract_y
_atom_site_fract_z
O1	O	1.683735	0.145718	-0.114403
O2	O	1.319772	0.159602	-0.114381
O3	O	1.493683	0.001699	-0.114383
O4	O	1.509824	0.303621	-0.114401
O5	O	1.493681	0.001703	0.114196
O6	O	1.319770	0.159606	0.114199
O7	O	1.683734	0.145722	0.114177
Zn8	Zn	1.501752	0.152665	0.150480
Zn9	Zn	1.501754	0.152659	-0.150684
O10	O	1.509822	0.303625	0.114179
C11	C	1.272862	0.158585	-0.000089
C12	C	1.133086	0.155535	-0.000080
C13	C	1.063745	0.248505	-0.000105
C14	C	0.932411	0.245633	-0.000129
C15	C	0.939770	0.056812	-0.000107
C16	C	1.071101	0.059685	-0.000074
C17	C	1.059496	0.357520	-0.000124
C18	C	0.928162	0.354648	-0.000148
C19	C	1.488230	-0.036959	-0.000094
C20	C	1.471967	-0.152153	-0.000095
C21	C	1.667472	-0.391705	-0.000136
C22	C	1.652197	-0.499941	-0.000137
C23	C	1.426146	-0.476862	-0.000109
C24	C	1.441420	-0.368626	-0.000108
C25	C	1.562087	-0.326052	-0.000119
C26	C	1.577360	-0.217814	-0.000108
C27	C	1.351309	-0.194737	-0.000090
C28	C	1.336035	-0.302973	-0.000091
C29	C	1.730644	0.146740	-0.000119
C30	C	1.870420	0.149790	-0.000137
C31	C	1.515276	0.342283	-0.000114
C32	C	1.531538	0.457477	-0.000122
N33	N	1.501759	0.152668	0.356016
N34	N	1.501755	0.152648	-0.356221
C35	C	1.578792	0.082772	0.427941
C36	C	1.578787	0.082760	0.571824
C37	C	1.424714	0.222547	0.571844
C38	C	1.424713	0.222554	0.427964
C39	C	1.667748	0.002070	0.427931
C40	C	1.667744	0.002058	0.571814
H41	H	1.093479	0.400157	0.095539
C42	C	0.871589	-0.048616	-0.000109
H43	H	0.931699	-0.103575	-0.000081
H44	H	0.820526	-0.053667	-0.079828
H45	H	0.820494	-0.053658	0.079603
C46	C	1.800195	-0.344870	-0.000137
H47	H	1.860773	-0.399474	-0.000150
H48	H	1.810848	-0.303128	0.079573
H49	H	1.810853	-0.303126	-0.079858
H50	H	1.675613	-0.183153	-0.000112
H51	H	1.761690	0.027339	0.383297
H52	H	1.098940	0.392230	-0.098814
C53	C	1.627016	-0.105650	0.375170
H54	H	1.610252	-0.149954	0.451109
H55	H	1.692294	-0.135132	0.320925
H56	H	1.553350	-0.098317	0.320940
H57	H	1.738013	-0.553393	-0.000155
C58	C	1.800731	0.026076	0.624576
H59	H	1.800723	0.026057	0.722213
H60	H	1.825865	0.092527	0.592049
H61	H	1.857644	-0.025555	0.592031
C62	C	0.871309	0.399156	0.133154
H63	H	0.936871	0.420970	0.192531
H64	H	0.823131	0.346959	0.177450
H65	H	0.818863	0.457012	0.111714
C66	C	0.877825	0.410122	-0.129385
H67	H	0.788703	0.408180	-0.129387
H68	H	0.908896	0.375904	-0.209096
H69	H	0.904808	0.480518	-0.129383
C70	C	1.147372	-0.042582	-0.000030
H71	H	1.091644	-0.100074	-0.000043
H72	H	1.198736	-0.045377	0.079694
H73	H	1.198778	-0.045395	-0.079737
H74	H	1.327904	-0.511545	-0.000115
C75	C	1.203313	-0.349810	-0.000070
H76	H	1.209308	-0.423675	-0.000064
H77	H	1.159365	-0.327327	-0.079769
H78	H	1.159390	-0.327334	0.079663
C79	C	1.339987	0.299441	0.348844
H80	H	1.351016	0.289436	0.252849
H81	H	1.361920	0.368787	0.372434
H82	H	1.254747	0.287524	0.372422
C83	C	1.615438	-0.099747	0.632105
H84	H	1.592152	-0.145077	0.559392
H85	H	1.543962	-0.084511	0.687067
H86	H	1.677950	-0.132469	0.687041
H87	H	1.265497	-0.141270	-0.000065
C88	C	1.339979	0.299421	0.650991
H89	H	1.351016	0.289411	0.746983
H90	H	1.254746	0.287512	0.627414
H91	H	1.361920	0.368776	0.627416
