data_functionalizedCrystal
_audit_creation_method	'MofGen! by Chris Wilmer'
_symmetry_space_group_name_H-M	'P1'
_symmetry_Int_Tables_number	1
_symmetry_cell_setting	triclinic
loop_
_symmetry_equiv_pos_as_xyz
  x,y,z
_cell_length_a	16.120297
_cell_length_b	16.120530
_cell_length_c	16.120484
_cell_angle_alpha	90.167327
_cell_angle_beta	84.385569
_cell_angle_gamma	89.871860
loop_
_atom_site_label
_atom_site_type_symbol
_atom_site_fract_x
_atom_site_fract_y
_atom_site_fract_z
Zn1	Zn	-0.554813	-1.224987	0.422264
Zn2	Zn	-0.221480	-0.891654	0.755598
Zn3	Zn	0.111853	-0.558320	1.088931
Zn4	Zn	-0.422118	-1.224883	0.554948
Zn5	Zn	-0.088785	-0.891549	0.888282
Zn6	Zn	0.244548	-0.558216	1.221615
Zn7	Zn	-0.408056	-1.093726	0.408180
Zn8	Zn	-0.074723	-0.760393	0.741513
Zn9	Zn	0.258611	-0.427060	1.074847
Zn10	Zn	-0.554051	-1.078880	0.554181
Zn11	Zn	-0.220717	-0.745547	0.887514
Zn12	Zn	0.112616	-0.412213	1.220848
O13	O	-0.484760	-1.155619	0.484893
O14	O	-0.151426	-0.822286	0.818227
O15	O	0.181907	-0.488952	1.151560
O16	O	-0.543415	-1.341009	0.446081
O17	O	-0.210082	-1.007676	0.779414
O18	O	0.123251	-0.674342	1.112747
O19	O	-0.303620	-1.213654	0.529906
O20	O	0.029713	-0.880321	0.863240
O21	O	0.363047	-0.546987	1.196573
O22	O	-0.421958	-1.117395	0.293418
O23	O	-0.088624	-0.784062	0.626751
O24	O	0.244709	-0.450729	0.960084
O25	O	-0.445925	-1.340932	0.543563
O26	O	-0.112591	-1.007599	0.876896
O27	O	0.220742	-0.674266	1.210230
O28	O	-0.529780	-1.213832	0.303765
O29	O	-0.196446	-0.880499	0.637099
O30	O	0.136887	-0.547166	0.970432
O31	O	-0.293289	-1.117294	0.422076
O32	O	0.040045	-0.783961	0.755409
O33	O	0.373378	-0.450627	1.088743
O34	O	-0.421218	-0.975721	0.421332
O35	O	-0.087885	-0.642388	0.754665
O36	O	0.245448	-0.309055	1.087998
O37	O	-0.670785	-1.092092	0.542255
O38	O	-0.337451	-0.758758	0.875588
O39	O	-0.004118	-0.425425	1.208922
O40	O	-0.528480	-0.964814	0.528598
O41	O	-0.195147	-0.631480	0.861931
O42	O	0.138187	-0.298147	1.195265
O43	O	-0.671345	-1.199436	0.445336
O44	O	-0.338011	-0.866103	0.778670
O45	O	-0.004678	-0.532769	1.112003
O46	O	-0.445185	-1.199258	0.671477
O47	O	-0.111852	-0.865925	1.004811
O48	O	0.221481	-0.532591	1.338144
O49	O	-0.542116	-1.091990	0.670913
O50	O	-0.208782	-0.758657	1.004247
O51	O	0.124551	-0.425324	1.337580
C52	C	-0.473241	-0.940181	0.473354
C53	C	-0.139908	-0.606847	0.806687
C54	C	0.193426	-0.273514	1.140021
C55	C	-0.468334	-0.848013	0.468438
C56	C	-0.135001	-0.514680	0.801772
C57	C	0.198333	-0.181346	1.135105
C58	C	-0.495113	-1.144023	0.701438
C59	C	-0.161780	-0.810690	1.034772
C60	C	0.171554	-0.477357	1.368105
C61	C	-0.499574	-1.139137	0.794083
C62	C	-0.166241	-0.805804	1.127416
C63	C	0.167093	-0.472470	1.460749
C64	C	-0.702152	-1.144119	0.495281
C65	C	-0.368818	-0.810786	0.828614
C66	C	-0.035485	-0.477453	1.161948
C67	C	-0.794791	-1.139219	0.499708
C68	C	-0.461458	-0.805886	0.833041
C69	C	-0.128125	-0.472552	1.166374
C70	C	-0.964403	-1.130243	0.507770
C71	C	-0.631069	-0.796909	0.841103
C72	C	-0.297736	-0.463576	1.174436
C73	C	-1.005965	-1.181172	0.461776
C74	C	-0.672632	-0.847839	0.795110
C75	C	-0.339298	-0.514505	1.128443
C76	C	-1.100342	-1.176177	0.466262
C77	C	-0.767009	-0.842844	0.799595
C78	C	-0.433676	-0.509511	1.132929
C79	C	-0.870017	-1.135236	0.503285
C80	C	-0.536683	-0.801903	0.836618
C81	C	-0.203350	-0.468569	1.169952
C82	C	-0.268213	-1.167125	0.474489
C83	C	0.065121	-0.833791	0.807822
C84	C	0.398454	-0.500458	1.141155
C85	C	-0.175571	-1.172198	0.469836
C86	C	0.157763	-0.838865	0.803169
C87	C	0.491096	-0.505532	1.136502
C88	C	-0.496324	-1.371899	0.496479
C89	C	-0.162990	-1.038565	0.829812
C90	C	0.170343	-0.705232	1.163145
C91	C	-0.501252	-1.464064	0.501416
C92	C	-0.167918	-1.130731	0.834749
C93	C	0.165415	-0.797398	1.168082
C94	C	-0.459381	-0.679262	0.459445
C95	C	-0.126048	-0.345928	0.792778
C96	C	0.207285	-0.012595	1.126111
C97	C	-0.510202	-0.632810	0.510407
C98	C	-0.176868	-0.299477	0.843740
C99	C	0.156465	0.033856	1.177073
C100	C	-0.505220	-0.538911	0.505403
C101	C	-0.171887	-0.205578	0.838736
C102	C	0.161446	0.127755	1.172069
C103	C	-0.464361	-0.773169	0.464448
C104	C	-0.131028	-0.439836	0.797781
C105	C	0.202305	-0.106503	1.131114
C106	C	-0.474385	-1.167282	0.267505
C107	C	-0.141052	-0.833948	0.600838
C108	C	0.192282	-0.500615	0.934172
C109	C	-0.469964	-1.172251	0.174867
C110	C	-0.136631	-0.838918	0.508200
C111	C	0.196703	-0.505585	0.841534
C112	C	-0.507736	-1.130220	0.963706
C113	C	-0.174403	-0.796887	1.297039
C114	C	0.158930	-0.463553	1.630372
C115	C	-0.461804	-1.181166	1.005249
C116	C	-0.128471	-0.847833	1.338583
C117	C	0.204862	-0.514499	1.671916
C118	C	-0.466346	-1.176204	1.099633
C119	C	-0.133012	-0.842871	1.432967
C120	C	0.200321	-0.509538	1.766300
C121	C	-0.503196	-1.135180	0.869313
C122	C	-0.169863	-0.801847	1.202646
C123	C	0.163471	-0.468514	1.535980
H124	H	-0.970668	-1.228524	0.419031
H125	H	-0.637334	-0.895191	0.752364
H126	H	-0.304001	-0.561857	1.085697
H127	H	-0.999698	-1.082894	0.550512
H128	H	-0.666364	-0.749561	0.883845
H129	H	-0.333031	-0.416228	1.217178
O130	O	-0.566610	-0.669584	0.566837
O131	O	-0.233277	-0.336251	0.900171
O132	O	0.100057	-0.002918	1.233504
C133	C	-0.620878	-0.719374	0.524669
C134	C	-0.287545	-0.386040	0.858003
C135	C	0.045788	-0.052707	1.191336
H136	H	-0.589239	-0.737173	0.460732
H137	H	-0.255905	-0.403839	0.794066
H138	H	0.077428	-0.070506	1.127399
H139	H	-0.680495	-0.683287	0.516825
H140	H	-0.347161	-0.349954	0.850158
H141	H	-0.013828	-0.016621	1.183491
C142	C	-0.681226	-0.776603	0.654102
C143	C	-0.347893	-0.443270	0.987435
C144	C	-0.014560	-0.109937	1.320769
C145	C	-0.642363	-0.798470	0.575576
C146	C	-0.309030	-0.465137	0.908909
C147	C	0.024304	-0.131803	1.242242
H148	H	-0.694483	-0.825392	0.685504
H149	H	-0.361150	-0.492059	1.018838
H150	H	-0.027816	-0.158726	1.352171
H151	H	-0.644667	-0.743057	0.682512
H152	H	-0.311334	-0.409724	1.015846
H153	H	0.021999	-0.076391	1.349179
H154	H	-0.730902	-0.746530	0.647553
H155	H	-0.397569	-0.413197	0.980887
H156	H	-0.064235	-0.079864	1.314220
H157	H	-0.592684	-0.828533	0.582125
H158	H	-0.259350	-0.495200	0.915458
H159	H	0.073983	-0.161867	1.248792
H160	H	-0.678915	-0.832023	0.547168
H161	H	-0.345581	-0.498690	0.880501
H162	H	-0.012248	-0.165357	1.213834
H163	H	-0.412135	-0.648511	0.412060
H164	H	-0.078801	-0.315178	0.745394
H165	H	0.254532	0.018156	1.078727
H166	H	-0.419069	-1.228508	0.969931
H167	H	-0.085736	-0.895175	1.303264
H168	H	0.247598	-0.561841	1.636597
O169	O	-0.558640	-1.073762	1.005958
O170	O	-0.225307	-0.740429	1.339291
O171	O	0.108026	-0.407096	1.672624
C172	C	-0.551902	-1.081326	1.092154
C173	C	-0.218568	-0.747993	1.425488
C174	C	0.114765	-0.414660	1.758821
H175	H	-0.489616	-1.111338	1.102322
H176	H	-0.156283	-0.778005	1.435656
H177	H	0.177051	-0.444672	1.768989
H178	H	-0.604899	-1.121551	1.121527
H179	H	-0.271566	-0.788218	1.454860
H180	H	0.061767	-0.454884	1.788193
C181	C	-0.633586	-0.957849	1.120410
C182	C	-0.300253	-0.624516	1.453743
C183	C	0.033080	-0.291182	1.787076
C184	C	-0.557083	-0.994704	1.132898
C185	C	-0.223750	-0.661371	1.466231
C186	C	0.109584	-0.328037	1.799565
H187	H	-0.636786	-0.904418	1.145544
H188	H	-0.303453	-0.571084	1.478877
H189	H	0.029881	-0.237751	1.812211
H190	H	-0.638129	-0.952754	1.062338
H191	H	-0.304796	-0.619421	1.395671
H192	H	0.028537	-0.286088	1.729004
H193	H	-0.677743	-0.991378	1.144887
H194	H	-0.344409	-0.658045	1.478220
H195	H	-0.011076	-0.324711	1.811553
H196	H	-0.512929	-0.961180	1.108412
H197	H	-0.179595	-0.627847	1.441745
H198	H	0.153738	-0.294514	1.775079
H199	H	-0.552533	-0.999791	1.190967
H200	H	-0.219199	-0.666458	1.524300
H201	H	0.114134	-0.333124	1.857634
