data_functionalizedCrystal
_audit_creation_method	'MofGen! by Chris Wilmer'
_symmetry_space_group_name_H-M	'P1'
_symmetry_Int_Tables_number	1
_symmetry_cell_setting	triclinic
loop_
_symmetry_equiv_pos_as_xyz
  x,y,z
_cell_length_a	13.897449
_cell_length_b	13.897447
_cell_length_c	16.959447
_cell_angle_alpha	89.971904
_cell_angle_beta	89.983048
_cell_angle_gamma	90.020357
loop_
_atom_site_label
_atom_site_type_symbol
_atom_site_fract_x
_atom_site_fract_y
_atom_site_fract_z
Zn1	Zn	1.474629	-0.383975	-0.446976
Zn2	Zn	1.974629	0.116025	0.053024
Zn3	Zn	1.474536	-0.545293	-0.314803
Zn4	Zn	1.974536	-0.045293	0.185197
Zn5	Zn	1.313336	-0.384016	-0.314808
Zn6	Zn	1.813336	0.115984	0.185192
Zn7	Zn	1.313295	-0.545232	-0.446936
Zn8	Zn	1.813295	-0.045232	0.053064
O9	O	1.393949	-0.464629	-0.380881
O10	O	1.893949	0.035371	0.119119
O11	O	1.609598	-0.405382	-0.429458
O12	O	2.109598	0.094618	0.070542
O13	O	1.453131	-0.523942	-0.204193
O14	O	1.953131	-0.023942	0.295807
O15	O	1.334788	-0.249029	-0.332359
O16	O	1.834788	0.250971	0.167641
O17	O	1.609530	-0.523902	-0.332351
O18	O	2.109530	-0.023902	0.167649
O19	O	1.453290	-0.248998	-0.429463
O20	O	1.953290	0.251002	0.070537
O21	O	1.334698	-0.405452	-0.204196
O22	O	1.834698	0.094548	0.295804
O23	O	1.178349	-0.405393	-0.332320
O24	O	1.678349	0.094607	0.167680
O25	O	1.334718	-0.523798	-0.557552
O26	O	1.834718	-0.023798	-0.057552
O27	O	1.178319	-0.523838	-0.429393
O28	O	1.678319	-0.023838	0.070607
O29	O	1.453249	-0.405323	-0.557582
O30	O	1.953249	0.094677	-0.057582
O31	O	1.453091	-0.680266	-0.332312
O32	O	1.953091	-0.180266	0.167688
O33	O	1.334627	-0.680221	-0.429389
O34	O	1.834627	-0.180221	0.070611
C35	C	1.143335	-0.464614	-0.380853
C36	C	1.643335	0.035386	0.119147
C37	C	1.036121	-0.464631	-0.380860
C38	C	1.536121	0.035369	0.119140
C39	C	0.949051	-0.464634	-0.380873
C40	C	1.449051	0.035366	0.119127
C41	C	0.839818	-0.464641	-0.380897
C42	C	1.339818	0.035359	0.119103
C43	C	1.393871	-0.715243	-0.380862
C44	C	1.893871	-0.215243	0.119138
C45	C	1.393925	-0.822457	-0.380881
C46	C	1.893925	-0.322457	0.119119
C47	C	1.393972	-0.909527	-0.380899
C48	C	1.893972	-0.409527	0.119101
C49	C	1.394040	-1.018759	-0.380919
C50	C	1.894040	-0.518759	0.119081
C51	C	1.645542	-0.464644	-0.380909
C52	C	2.145542	0.035356	0.119091
C53	C	1.752756	-0.464651	-0.380921
C54	C	2.252756	0.035349	0.119079
C55	C	1.393989	-0.464549	-0.587049
C56	C	1.893989	0.035451	-0.087049
C57	C	1.394006	-0.464515	-0.674906
C58	C	1.894006	0.035485	-0.174906
C59	C	1.394054	-0.213036	-0.380916
C60	C	1.894054	0.286964	0.119084
C61	C	1.394099	-0.105822	-0.380932
C62	C	1.894099	0.394178	0.119068
C63	C	1.332407	-0.526097	-1.046368
C64	C	1.832407	-0.026097	-0.546368
C65	C	1.455836	-0.402729	-1.046395
C66	C	1.955836	0.097271	-0.546395
C67	C	1.455810	-0.402749	-0.963849
C68	C	1.955810	0.097251	-0.463849
C69	C	1.394083	-0.464446	-0.922559
C70	C	1.894083	0.035554	-0.422559
C71	C	1.332382	-0.526122	-0.963815
C72	C	1.832382	-0.026122	-0.463815
C73	C	1.517517	-0.341081	-0.922587
C74	C	2.017517	0.158919	-0.422587
C75	C	1.517494	-0.341100	-0.840036
C76	C	2.017494	0.158900	-0.340036
C77	C	1.455762	-0.402792	-0.798744
C78	C	1.955762	0.097208	-0.298744
C79	C	1.394057	-0.464470	-0.840005
C80	C	1.894057	0.035530	-0.340005
C81	C	1.332331	-0.526167	-0.798715
C82	C	1.832331	-0.026167	-0.298715
C83	C	1.270621	-0.587840	-0.839975
C84	C	1.770621	-0.087840	-0.339975
C85	C	1.270649	-0.587814	-0.922523
C86	C	1.770649	-0.087814	-0.422523
C87	C	1.455733	-0.402818	-0.716196
C88	C	1.955733	0.097182	-0.216196
C89	C	1.332305	-0.526191	-0.716162
C90	C	1.832305	-0.026191	-0.216162
C91	C	1.393964	-0.464639	-0.175514
C92	C	1.893964	0.035361	0.324486
C93	C	1.394134	-0.464401	-0.087658
C94	C	1.894134	0.035599	0.412342
H95	H	1.282030	-0.576424	-0.682549
H96	H	1.782030	-0.076424	-0.182549
H97	H	1.220367	-0.638078	-0.806346
H98	H	1.720367	-0.138078	-0.306346
Br99	Br	1.601294	-0.257365	-0.978625
Br100	Br	2.101294	0.242635	-0.478625
H101	H	1.505979	-0.352607	-0.682606
H102	H	2.005979	0.147393	-0.182606
Br103	Br	1.539613	-0.319012	-1.102431
Br104	Br	2.039613	0.180988	-0.602431
H105	H	1.567742	-0.290881	-0.806449
H106	H	2.067742	0.209119	-0.306449
Br107	Br	1.248657	-0.609788	-1.102359
Br108	Br	1.748657	-0.109788	-0.602359
Br109	Br	1.186912	-0.671510	-0.978522
Br110	Br	1.686912	-0.171510	-0.478522
