data_functionalizedCrystal
_audit_creation_method	'MofGen! by Chris Wilmer'
_symmetry_space_group_name_H-M	'P1'
_symmetry_Int_Tables_number	1
_symmetry_cell_setting	triclinic
loop_
_symmetry_equiv_pos_as_xyz
  x,y,z
_cell_length_a	11.169417
_cell_length_b	12.759400
_cell_length_c	12.759393
_cell_angle_alpha	90.023884
_cell_angle_beta	90.019397
_cell_angle_gamma	90.004324
loop_
_atom_site_label
_atom_site_type_symbol
_atom_site_fract_x
_atom_site_fract_y
_atom_site_fract_z
Zn1	Zn	1.835015	-0.418191	0.594025
Zn2	Zn	1.834930	-0.593906	0.418366
Zn3	Zn	1.634302	-0.418245	0.418365
Zn4	Zn	1.634332	-0.593831	0.594008
O5	O	1.734645	-0.506043	0.506191
O6	O	2.002953	-0.441509	0.570731
O7	O	1.808268	-0.570659	0.271344
O8	O	1.660950	-0.271217	0.441674
O9	O	2.002891	-0.570606	0.441675
O10	O	1.808413	-0.271177	0.570731
O11	O	1.660868	-0.441601	0.271344
O12	O	1.466356	-0.441528	0.441657
O13	O	1.661001	-0.570478	0.741031
O14	O	1.466379	-0.570530	0.570701
O15	O	1.808442	-0.441436	0.741044
O16	O	1.808297	-0.740917	0.441658
O17	O	1.660919	-0.740862	0.570701
C18	C	1.734635	-0.779011	0.506200
C19	C	1.734740	-0.895787	0.506240
C20	C	1.422820	-0.506027	0.506177
C21	C	1.289420	-0.506046	0.506196
C22	C	1.734735	-0.505942	0.780224
C23	C	1.734773	-0.505899	0.897001
C24	C	2.047687	-0.506060	0.506205
C25	C	2.181087	-0.506067	0.506211
C26	C	1.734688	-0.232010	0.506204
C27	C	1.734706	-0.115233	0.506210
C28	C	1.657942	-0.060390	0.439023
C29	C	1.657956	0.049334	0.439040
C30	C	1.811507	0.049362	0.573434
C31	C	1.811486	-0.060360	0.573422
C32	C	1.734624	-0.506068	0.233223
C33	C	1.734819	-0.505815	0.116447
C34	C	1.811551	-0.438696	0.951871
C35	C	1.811571	-0.438651	1.061596
C36	C	1.658032	-0.573021	1.061569
C37	C	1.658007	-0.573060	0.951847
H38	H	1.595420	-0.105065	0.384297
H39	H	1.595534	-0.627703	1.106238
C40	C	1.573537	-0.646989	0.891486
N41	N	1.509913	-0.702667	0.846022
H42	H	1.873996	-0.105014	0.628141
H43	H	1.874089	-0.383926	1.106266
C44	C	1.573500	0.109656	0.365137
N45	N	1.509880	0.155090	0.309474
C46	C	1.895985	-0.364809	0.891545
N47	N	1.959579	-0.309150	0.846109
C48	C	1.895972	0.109733	0.647354
N49	N	1.959597	0.155204	0.703028
