data_functionalizedCrystal
_audit_creation_method	'MofGen! by Chris Wilmer'
_symmetry_space_group_name_H-M	'P1'
_symmetry_Int_Tables_number	1
_symmetry_cell_setting	triclinic
loop_
_symmetry_equiv_pos_as_xyz
  x,y,z
_cell_length_a	21.295419
_cell_length_b	21.295417
_cell_length_c	21.295411
_cell_angle_alpha	89.978356
_cell_angle_beta	90.024539
_cell_angle_gamma	89.954692
loop_
_atom_site_label
_atom_site_type_symbol
_atom_site_fract_x
_atom_site_fract_y
_atom_site_fract_z
Zn1	Zn	0.962356	0.250432	0.355911
Zn2	Zn	1.462356	0.750432	0.855911
Zn3	Zn	0.962258	0.355684	0.250637
Zn4	Zn	1.462258	0.855684	0.750637
Zn5	Zn	0.857079	0.250460	0.250656
Zn6	Zn	1.357079	0.750460	0.750656
Zn7	Zn	0.857048	0.355695	0.355868
Zn8	Zn	1.357048	0.855695	0.855868
O9	O	0.909685	0.303068	0.303268
O10	O	1.409685	0.803068	0.803268
O11	O	1.050432	0.264378	0.341956
O12	O	1.550432	0.764378	0.841956
O13	O	0.948278	0.341733	0.162550
O14	O	1.448278	0.841733	0.662550
O15	O	0.871098	0.162367	0.264645
O16	O	1.371098	0.662367	0.764645
O17	O	1.050360	0.341706	0.264611
O18	O	1.550360	0.841706	0.764611
O19	O	0.948444	0.162347	0.341975
O20	O	1.448444	0.662347	0.841975
O21	O	0.871003	0.264425	0.162564
O22	O	1.371003	0.764425	0.662564
O23	O	0.768985	0.264436	0.264603
O24	O	1.268985	0.764436	0.764603
O25	O	0.871045	0.341724	0.443963
O26	O	1.371045	0.841724	0.943963
O27	O	0.768963	0.341751	0.341902
O28	O	1.268963	0.841751	0.841902
O29	O	0.948414	0.264388	0.443995
O30	O	1.448414	0.764388	0.943995
O31	O	0.948248	0.443775	0.264570
O32	O	1.448248	0.943775	0.764570
O33	O	0.870951	0.443783	0.341883
O34	O	1.370951	0.943783	0.841883
C35	C	0.746133	0.303098	0.303250
C36	C	1.246133	0.803098	0.803250
C37	C	0.676165	0.303126	0.303258
C38	C	1.176165	0.803126	0.803258
C39	C	0.643358	0.262927	0.343593
C40	C	1.143358	0.762927	0.843593
C41	C	0.577616	0.262910	0.343596
C42	C	1.077616	0.762910	0.843596
C43	C	0.544683	0.303104	0.303269
C44	C	1.044683	0.803104	0.803269
C45	C	0.577498	0.343305	0.262926
C46	C	1.077498	0.843305	0.762926
C47	C	0.643239	0.343317	0.262920
C48	C	1.143239	0.843317	0.762920
N49	N	0.441407	0.358181	0.298349
N50	N	0.941407	0.858181	0.798349
N51	N	0.378956	0.358168	0.298359
N52	N	0.878956	0.858168	0.798359
C53	C	0.346608	0.303071	0.303283
C54	C	0.846608	0.803071	0.803283
N55	N	0.379071	0.247985	0.308210
N56	N	0.879071	0.747985	0.808210
N57	N	0.441528	0.247999	0.308205
N58	N	0.941528	0.747999	0.808205
C59	C	0.473397	0.303095	0.303271
C60	C	0.973397	0.803095	0.803271
C61	C	0.242516	0.262850	0.343624
C62	C	0.742516	0.762850	0.843624
C63	C	0.176772	0.262832	0.343622
C64	C	0.676772	0.762832	0.843622
C65	C	0.176655	0.343233	0.262955
C66	C	0.676655	0.843233	0.762955
C67	C	0.242397	0.343245	0.262953
C68	C	0.742397	0.843245	0.762953
C69	C	0.275324	0.303055	0.303291
C70	C	0.775324	0.803055	0.803291
C71	C	0.909603	0.466619	0.303233
C72	C	1.409603	0.966619	0.803233
C73	C	0.909625	0.536588	0.303239
C74	C	1.409625	1.036588	0.803239
C75	C	0.909737	0.303055	0.467458
C76	C	1.409737	0.803055	0.967458
C77	C	0.909760	0.303049	0.537426
C78	C	1.409760	0.803049	1.037426
C79	C	1.073875	0.303038	0.303286
C80	C	1.573875	0.803038	0.803286
C81	C	1.143843	0.303025	0.303294
C82	C	1.643843	0.803025	0.803294
C83	C	0.909785	0.138878	0.303317
C84	C	1.409785	0.638878	0.803317
C85	C	0.909828	0.068909	0.303338
C86	C	1.409828	0.568909	0.803338
C87	C	0.949909	0.569429	0.263024
C88	C	1.449909	1.069429	0.763024
C89	C	0.949939	0.635172	0.263038
C90	C	1.449939	1.135172	0.763038
C91	C	0.909673	0.668070	0.303261
C92	C	1.409673	1.168070	0.803261
C93	C	0.869385	0.635220	0.343485
C94	C	1.369385	1.135220	0.843485
C95	C	0.869361	0.569479	0.343474
C96	C	1.369361	1.069479	0.843474
N97	N	0.854606	0.771351	0.308054
N98	N	1.354606	1.271351	0.808054
N99	N	0.854630	0.833802	0.308061
N100	N	1.354630	1.333802	0.808061
C101	C	0.909743	0.866145	0.303297
C102	C	1.409743	1.366145	0.803297
N103	N	0.964832	0.833676	0.298514
N104	N	1.464832	1.333676	0.798514
N105	N	0.964807	0.771219	0.298504
N106	N	1.464807	1.271219	0.798504
C107	C	0.909694	0.739355	0.303278
C108	C	1.409694	1.239355	0.803278
C109	C	0.950063	0.970272	0.263095
C110	C	1.450063	1.470272	0.763095
C111	C	0.950093	1.036016	0.263113
C112	C	1.450093	1.536016	0.763113
C113	C	0.869534	1.036063	0.343557
C114	C	1.369534	1.536063	0.843557
C115	C	0.869510	0.970321	0.343541
C116	C	1.369510	1.470321	0.843541
C117	C	0.909773	0.937429	0.303307
C118	C	1.409773	1.437429	0.803307
C119	C	0.909669	0.303036	0.139716
C120	C	1.409669	0.803036	0.639716
C121	C	0.909769	0.302864	0.069749
C122	C	1.409769	0.802864	0.569749
C123	C	0.950044	0.262778	0.570311
C124	C	1.450044	0.762778	1.070311
C125	C	0.950043	0.262751	0.636053
C126	C	1.450043	0.762751	1.136053
C127	C	0.909764	0.303006	0.668909
C128	C	1.409764	0.803006	1.168909
C129	C	0.869472	0.343279	0.636017
C130	C	1.369472	0.843279	1.136017
C131	C	0.869470	0.343301	0.570276
C132	C	1.369470	0.843301	1.070276
N133	N	0.904908	0.358075	0.772124
N134	N	1.404908	0.858075	1.272124
N135	N	0.904914	0.358052	0.834576
N136	N	1.404914	0.858052	1.334576
C137	C	0.909768	0.302942	0.866984
C138	C	1.409768	0.802942	1.366984
N139	N	0.914629	0.247853	0.834581
N140	N	1.414629	0.747853	1.334581
N141	N	0.914626	0.247876	0.772124
N142	N	1.414626	0.747876	1.272124
C143	C	0.909762	0.302986	0.740194
C144	C	1.409762	0.802986	1.240194
C145	C	0.950054	0.262638	0.971154
C146	C	1.450054	0.762638	1.471154
C147	C	0.950049	0.262610	1.036897
C148	C	1.450049	0.762610	1.536897
C149	C	0.869481	0.343143	1.036860
C150	C	1.369481	0.843143	1.536860
C151	C	0.869483	0.343166	0.971118
C152	C	1.369483	0.843166	1.471118
C153	C	0.909773	0.302914	0.938268
C154	C	1.409773	0.802914	1.438268
H155	H	0.550899	0.230172	0.376441
H156	H	1.050899	0.730172	0.876441
N157	N	0.993379	0.670602	0.219648
N158	N	1.493379	1.170602	0.719648
H159	H	0.987280	0.717240	0.225758
H160	H	1.487280	1.217240	0.725758
H161	H	1.038332	0.659061	0.229472
H162	H	1.538332	1.159061	0.729472
H163	H	0.670163	0.230200	0.376439
H164	H	1.170163	0.730200	0.876439
H165	H	0.836679	0.375913	1.063611
H166	H	1.336679	0.875913	1.563611
H167	H	0.982857	0.229859	0.944406
H168	H	1.482857	0.729859	1.444406
N169	N	0.678623	0.386677	0.219411
N170	N	1.178623	0.886677	0.719411
H171	H	0.667143	0.431667	0.229104
H172	H	1.167143	0.931667	0.729104
H173	H	0.725256	0.380534	0.225546
H174	H	1.225256	0.880534	0.725546
H175	H	0.836675	0.376052	0.662773
H176	H	1.336675	0.876052	1.162773
H177	H	0.982852	0.229813	1.063670
H178	H	1.482852	0.729813	1.563670
N179	N	0.825908	0.534049	0.386846
N180	N	1.325908	1.034049	0.886846
H181	H	0.835665	0.545451	0.431835
H182	H	1.335665	1.045451	0.931835
H183	H	0.780957	0.545562	0.376976
H184	H	1.280957	1.045562	0.876976
H185	H	0.836683	0.375963	0.944343
H186	H	1.336683	0.875963	1.444343
N187	N	0.993493	0.219314	0.671532
N188	N	1.493493	0.719314	1.171532
H189	H	1.019015	0.193818	0.640746
H190	H	1.519015	0.693818	1.140746
H191	H	1.022606	0.244930	0.698817
H192	H	1.522606	0.744930	1.198817
H193	H	0.982850	0.943490	0.230335
H194	H	1.482850	1.443490	0.730335
N195	N	0.993343	0.533953	0.219639
N196	N	1.493343	1.033953	0.719639
H197	H	1.018871	0.564738	0.194167
H198	H	1.518871	1.064738	0.694167
H199	H	1.022451	0.506635	0.245292
H200	H	1.522451	1.006635	0.745292
N201	N	0.993547	1.071436	0.219732
N202	N	1.493547	1.571436	0.719732
H203	H	0.967987	1.098760	0.190546
H204	H	1.467987	1.598760	0.690546
H205	H	1.022712	1.098626	0.245387
H206	H	1.522712	1.598626	0.745387
N207	N	0.993481	0.219348	0.534883
N208	N	1.493481	0.719348	1.034883
H209	H	0.987365	0.225467	0.488245
H210	H	1.487365	0.725467	0.988245
H211	H	1.038436	0.229125	0.546386
H212	H	1.538436	0.729125	1.046386
H213	H	0.550679	0.376030	0.230091
H214	H	1.050679	0.876030	0.730091
N215	N	0.278035	0.219503	0.387126
N216	N	0.778035	0.719503	0.887126
H217	H	0.247274	0.194030	0.412676
H218	H	0.747274	0.694030	0.912676
H219	H	0.305330	0.190341	0.361554
H220	H	0.805330	0.690341	0.861554
N221	N	0.826010	0.386728	0.534803
N222	N	1.326010	0.886728	1.034803
H223	H	0.800488	0.412222	0.565590
H224	H	1.300488	0.912222	1.065590
H225	H	0.851607	0.415868	0.507532
H226	H	1.351607	0.915868	1.007532
N227	N	0.826108	1.071536	0.386947
N228	N	1.326108	1.571536	0.886947
H229	H	0.832237	1.118167	0.380854
H230	H	1.332237	1.618167	0.880854
H231	H	0.781150	1.060104	0.377107
H232	H	1.281150	1.560104	0.877107
H233	H	0.150062	0.230094	0.376467
H234	H	0.650062	0.730094	0.876467
N235	N	0.141144	0.386580	0.219453
N236	N	0.641144	0.886580	0.719453
H237	H	0.094518	0.380473	0.225575
H238	H	0.594518	0.880473	0.725575
H239	H	0.152595	0.431555	0.229165
H240	H	0.652595	0.931555	0.729165
N241	N	0.826055	0.934893	0.386913
N242	N	1.326055	1.434893	0.886913
H243	H	0.800549	0.965708	0.412396
H244	H	1.300549	1.465708	0.912396
H245	H	0.796927	0.907666	0.361255
H246	H	1.296927	1.407666	0.861255
H247	H	0.836602	0.662010	0.376236
H248	H	1.336602	1.162010	0.876236
N249	N	0.277787	0.386604	0.219449
N250	N	0.777787	0.886604	0.719449
H251	H	0.246950	0.412064	0.193901
H252	H	0.746950	0.912064	0.693901
H253	H	0.305050	0.415778	0.245015
H254	H	0.805050	0.915778	0.745015
