data_functionalizedCrystal
_audit_creation_method	'MofGen! by Chris Wilmer'
_symmetry_space_group_name_H-M	'P1'
_symmetry_Int_Tables_number	1
_symmetry_cell_setting	triclinic
loop_
_symmetry_equiv_pos_as_xyz
  x,y,z
_cell_length_a	12.827893
_cell_length_b	12.759394
_cell_length_c	12.827893
_cell_angle_alpha	90.007007
_cell_angle_beta	90.003976
_cell_angle_gamma	90.013826
loop_
_atom_site_label
_atom_site_type_symbol
_atom_site_fract_x
_atom_site_fract_y
_atom_site_fract_z
Zn1	Zn	1.597523	-0.418450	0.590850
Zn2	Zn	1.597468	-0.594097	0.416111
Zn3	Zn	1.422811	-0.418432	0.416124
Zn4	Zn	1.422754	-0.594087	0.590811
O5	O	1.510139	-0.506267	0.503474
O6	O	1.743752	-0.441761	0.567682
O7	O	1.574301	-0.570791	0.269877
O8	O	1.446033	-0.271413	0.439323
O9	O	1.743712	-0.570808	0.439302
O10	O	1.574394	-0.271427	0.567694
O11	O	1.445981	-0.441731	0.269886
O12	O	1.276567	-0.441722	0.439285
O13	O	1.445937	-0.570792	0.737052
O14	O	1.276526	-0.570775	0.567627
O15	O	1.574339	-0.441752	0.737081
O16	O	1.574246	-0.741116	0.439264
O17	O	1.445884	-0.741110	0.567615
C18	C	1.238629	-0.506246	0.503454
C19	C	1.122476	-0.506263	0.503470
C20	C	1.070698	-0.570222	0.566880
C21	C	0.950648	-0.570241	0.566898
C22	C	1.510081	-0.779234	0.503457
C23	C	1.510152	-0.896011	0.503484
C24	C	1.643713	-0.895866	0.637257
C25	C	1.710527	-0.950655	0.704151
C26	C	1.710589	-1.060376	0.704174
C27	C	1.643828	-1.115312	0.637297
C28	C	1.577014	-1.060523	0.570403
C29	C	1.576962	-0.950799	0.570385
C30	C	1.443449	-1.060668	0.436637
C31	C	1.443391	-0.950946	0.436608
C32	C	1.376688	-1.115603	0.369761
C33	C	1.309879	-1.060815	0.302860
C34	C	1.309820	-0.951087	0.302839
C35	C	1.376577	-0.896158	0.369714
C36	C	1.782709	-0.506288	0.503495
C37	C	1.898862	-0.506297	0.503503
C38	C	1.510138	-0.506273	0.776044
C39	C	1.510137	-0.506276	0.892197
C40	C	1.510226	-0.232233	0.503514
C41	C	1.510263	-0.115456	0.503531
C42	C	1.573624	-0.570135	1.064022
C43	C	1.573626	-0.570134	0.943971
C44	C	1.510133	-0.506283	1.231964
C45	C	1.510134	-0.506280	1.115811
H46	H	0.943383	-0.451540	0.449209
H47	H	1.455776	-0.451614	1.071273
C48	C	1.647043	-0.644005	1.124187
C49	C	1.638472	-0.763452	1.109265
C50	C	1.711886	-0.837328	1.169432
C51	C	1.793871	-0.791757	1.244520
C52	C	1.802445	-0.672303	1.259445
C53	C	1.729031	-0.598427	1.199279
H54	H	1.577779	-0.797192	1.053677
H55	H	1.705538	-0.925756	1.158383
H56	H	1.848216	-0.846444	1.289059
H57	H	1.863138	-0.638563	1.315033
H58	H	1.735379	-0.509999	1.210328
H59	H	1.077928	-0.451515	0.449201
H60	H	1.643679	-0.806525	0.637236
H61	H	1.764881	-0.905917	0.758604
H62	H	1.627987	-0.624798	0.899434
H63	H	1.455782	-0.451600	0.936728
H64	H	1.115246	-0.624963	0.621158
H65	H	1.376541	-0.806817	0.369699
C66	C	0.890504	-0.644221	0.640242
C67	C	0.770458	-0.644134	0.640156
C68	C	0.710312	-0.718116	0.713503
C69	C	0.770211	-0.792185	0.786936
C70	C	0.890263	-0.792275	0.787025
C71	C	0.950410	-0.718292	0.713678
H72	H	0.726112	-0.589301	0.585794
H73	H	0.621441	-0.718049	0.713437
H74	H	0.725687	-0.846951	0.841231
H75	H	0.934610	-0.847108	0.841387
H76	H	1.039280	-0.718359	0.713745
C77	C	1.784083	-1.120650	0.777755
C78	C	1.857515	-1.060235	0.851318
C79	C	1.931008	-1.120509	0.924899
C80	C	1.931070	-1.241199	0.924917
C81	C	1.857636	-1.301622	0.851352
C82	C	1.784142	-1.241347	0.777771
H83	H	1.857471	-0.970887	0.851307
H84	H	1.985369	-1.075780	0.979357
H85	H	1.985474	-1.285818	0.979386
H86	H	1.857679	-1.390970	0.851363
H87	H	1.729781	-1.286077	0.723313
C88	C	1.236322	-0.890823	0.229253
C89	C	1.162895	-0.951254	0.155698
C90	C	1.089395	-0.890995	0.082110
C91	C	1.089324	-0.770305	0.082077
C92	C	1.162754	-0.709867	0.155635
C93	C	1.236253	-0.770126	0.229222
H94	H	1.162945	-1.040602	0.155720
H95	H	1.035037	-0.935735	0.027658
H96	H	1.034915	-0.725697	0.027603
H97	H	1.162703	-0.620519	0.155613
H98	H	1.290611	-0.725385	0.283674
H99	H	1.643876	-1.204653	0.637330
H100	H	1.376740	-1.204944	0.369788
H101	H	1.255522	-1.105552	0.248419
