data_functionalizedCrystal
_audit_creation_method	'MofGen! by Chris Wilmer'
_symmetry_space_group_name_H-M	'P1'
_symmetry_Int_Tables_number	1
_symmetry_cell_setting	triclinic
loop_
_symmetry_equiv_pos_as_xyz
  x,y,z
_cell_length_a	12.759401
_cell_length_b	19.805405
_cell_length_c	19.805407
_cell_angle_alpha	90.016469
_cell_angle_beta	90.004666
_cell_angle_gamma	90.027935
loop_
_atom_site_label
_atom_site_type_symbol
_atom_site_fract_x
_atom_site_fract_y
_atom_site_fract_z
Zn1	Zn	1.606012	-0.269537	0.382662
Zn2	Zn	1.605917	-0.382700	0.269470
Zn3	Zn	1.430361	-0.269533	0.269492
Zn4	Zn	1.430267	-0.382692	0.382622
O5	O	1.518139	-0.326116	0.326061
O6	O	1.753021	-0.284553	0.367654
O7	O	1.582629	-0.367690	0.174756
O8	O	1.453740	-0.174817	0.284530
O9	O	1.752951	-0.367694	0.284493
O10	O	1.582791	-0.174820	0.367675
O11	O	1.453648	-0.284547	0.174772
O12	O	1.283327	-0.284539	0.284491
O13	O	1.453580	-0.367681	0.477344
O14	O	1.283258	-0.367677	0.367608
O15	O	1.582700	-0.284546	0.477373
O16	O	1.582538	-0.477416	0.284454
O17	O	1.453488	-0.477410	0.367587
C18	C	1.245172	-0.326108	0.326048
C19	C	1.128395	-0.326120	0.326058
C20	C	1.073525	-0.369476	0.369269
C21	C	0.963801	-0.369478	0.369282
C22	C	0.963827	-0.282768	0.282869
C23	C	1.073549	-0.282763	0.282859
C24	C	1.518021	-0.501972	0.326029
C25	C	1.518067	-0.577204	0.326037
C26	C	1.585328	-0.612528	0.282796
C27	C	1.585372	-0.683217	0.282811
C28	C	1.518150	-0.718579	0.326064
C29	C	1.450885	-0.683250	0.369311
C30	C	1.450847	-0.612563	0.369299
C31	C	1.451040	-0.968323	0.369361
C32	C	1.451082	-1.039015	0.369368
C33	C	1.585566	-1.038977	0.282873
C34	C	1.585527	-0.968290	0.282861
C35	C	1.518268	-0.932967	0.326109
C36	C	1.518221	-0.856318	0.326094
C37	C	1.518190	-0.795226	0.326077
C38	C	1.792172	-0.326125	0.326075
C39	C	1.908949	-0.326128	0.326081
C40	C	1.518140	-0.326113	0.502604
C41	C	1.518140	-0.326111	0.577836
C42	C	1.518286	-0.149573	0.326109
C43	C	1.518349	-0.074341	0.326129
C44	C	1.450990	-0.282824	0.613188
C45	C	1.450986	-0.282828	0.683876
C46	C	1.518139	-0.326117	0.719212
C47	C	1.585292	-0.369410	0.683855
C48	C	1.585290	-0.369408	0.613168
C49	C	1.585302	-0.369418	0.968928
C50	C	1.585302	-0.369414	1.039620
C51	C	1.450999	-0.282837	1.039637
C52	C	1.450997	-0.282835	0.968950
C53	C	1.518145	-0.326130	0.933599
C54	C	1.518147	-0.326126	0.856951
C55	C	1.518143	-0.326119	0.795859
C56	C	1.518134	-0.326132	1.150205
C57	C	1.518145	-0.326129	1.074973
H58	H	1.640064	-0.583741	0.247571
C59	C	1.600195	-0.888831	0.191807
C60	C	1.659420	-0.929422	0.235314
H61	H	1.645818	-0.864841	0.162452
H62	H	1.560141	-0.857679	0.217558
H63	H	1.554472	-0.916451	0.165897
H64	H	1.705138	-0.901801	0.261228
H65	H	1.699493	-0.960578	0.209560
C66	C	0.974875	-0.197056	0.197454
C67	C	0.903538	-0.235115	0.235381
H68	H	0.937654	-0.167635	0.168139
H69	H	1.017642	-0.226504	0.171508
H70	H	1.017697	-0.171211	0.226996
H71	H	0.860720	-0.260965	0.205839
H72	H	0.860753	-0.205664	0.261329
H73	H	1.639978	-0.404653	0.584385
C74	C	1.309679	-0.273414	0.533688
C75	C	1.377174	-0.235239	0.574348
H76	H	1.264111	-0.244037	0.509709
H77	H	1.269472	-0.302897	0.561254
H78	H	1.349685	-0.299191	0.502519
H79	H	1.337168	-0.209466	0.605521
H80	H	1.417385	-0.205744	0.546780
H81	H	1.640143	-0.711975	0.247598
H82	H	1.396302	-0.247581	0.712657
C83	C	1.196928	-0.273211	0.191823
C84	C	1.133874	-0.235104	0.235358
H85	H	1.234174	-0.243787	0.162504
H86	H	1.154097	-0.302654	0.165881
H87	H	1.245288	-0.299026	0.217560
H88	H	1.085509	-0.209292	0.209621
H89	H	1.176709	-0.205649	0.261303
H90	H	1.639988	-0.404668	1.068388
H91	H	1.640336	-1.067746	0.247660
H92	H	0.919130	-0.404782	0.404470
C93	C	1.391219	-0.791624	0.407731
C94	C	1.376989	-0.722119	0.416855
H95	H	1.345590	-0.815617	0.437080
H96	H	1.461794	-0.803163	0.417682
H97	H	1.375906	-0.803228	0.362245
H98	H	1.392310	-0.710514	0.462341
H99	H	1.306398	-0.710574	0.406909
H100	H	1.396318	-0.247582	0.940183
H101	H	1.118177	-0.404779	0.404446
C102	C	1.391342	-0.244397	1.148003
C103	C	1.377172	-0.235253	1.078497
H104	H	1.345761	-0.215024	1.171991
H105	H	1.461931	-0.234492	1.159593
H106	H	1.375925	-0.289876	1.159565
H107	H	1.392596	-0.189775	1.066934
H108	H	1.306567	-0.245154	1.066902
H109	H	1.396342	-1.067805	0.404596
C110	C	1.318085	-0.975471	0.454844
C111	C	1.377089	-0.929502	0.416886
H112	H	1.272420	-0.951500	0.484179
H113	H	1.363838	-1.003000	0.480770
H114	H	1.277966	-1.003081	0.425323
H115	H	1.417213	-0.901895	0.446407
H116	H	1.331329	-0.901961	0.390958
H117	H	1.639967	-0.404678	0.940154
C118	C	1.309472	-0.533137	0.378614
C119	C	1.376911	-0.573731	0.416831
H120	H	1.263834	-0.509163	0.407963
H121	H	1.269335	-0.560747	0.349112
H122	H	1.349513	-0.501963	0.352855
H123	H	1.336870	-0.604908	0.442586
H124	H	1.417051	-0.546119	0.446344
C125	C	1.644936	-0.407854	0.792204
C126	C	1.659108	-0.416995	0.722694
H127	H	1.690515	-0.437228	0.816179
H128	H	1.574346	-0.417758	0.803780
H129	H	1.660354	-0.362375	0.803795
H130	H	1.643683	-0.462473	0.711102
H131	H	1.729714	-0.407096	0.711113
