data_functionalizedCrystal
_audit_creation_method	'MofGen! by Chris Wilmer'
_symmetry_space_group_name_H-M	'P1'
_symmetry_Int_Tables_number	1
_symmetry_cell_setting	triclinic
loop_
_symmetry_equiv_pos_as_xyz
  x,y,z
_cell_length_a	21.295418
_cell_length_b	16.959454
_cell_length_c	16.959447
_cell_angle_alpha	90.026736
_cell_angle_beta	89.965359
_cell_angle_gamma	89.964110
loop_
_atom_site_label
_atom_site_type_symbol
_atom_site_fract_x
_atom_site_fract_y
_atom_site_fract_z
Zn1	Zn	0.962345	0.314332	-0.447357
Zn2	Zn	1.462345	0.814332	0.052643
Zn3	Zn	0.962283	0.446525	-0.315187
Zn4	Zn	1.462283	0.946525	0.184813
Zn5	Zn	0.857085	0.314401	-0.315148
Zn6	Zn	1.357085	0.814401	0.184852
Zn7	Zn	0.857057	0.446509	-0.447278
Zn8	Zn	1.357057	0.946509	0.052722
O9	O	0.909692	0.380442	-0.381243
O10	O	1.409692	0.880442	0.118757
O11	O	1.050426	0.331846	-0.429874
O12	O	1.550426	0.831846	0.070126
O13	O	0.948314	0.429033	-0.204571
O14	O	1.448314	0.929033	0.295429
O15	O	0.871085	0.203781	-0.332702
O16	O	1.371085	0.703781	0.167298
O17	O	1.050381	0.428967	-0.332769
O18	O	1.550381	0.928967	0.167231
O19	O	0.948420	0.203730	-0.429836
O20	O	1.448420	0.703730	0.070164
O21	O	0.871026	0.331962	-0.204542
O22	O	1.371026	0.831962	0.295458
O23	O	0.768992	0.331947	-0.332626
O24	O	1.268992	0.831947	0.167374
O25	O	0.871037	0.428940	-0.557900
O26	O	1.371037	0.928940	-0.057900
O27	O	0.768971	0.429007	-0.429702
O28	O	1.268971	0.929007	0.070298
O29	O	0.948392	0.331831	-0.557958
O30	O	1.448392	0.831831	-0.057958
O31	O	0.948287	0.557133	-0.332692
O32	O	1.448287	1.057133	0.167308
O33	O	0.870978	0.557122	-0.429740
O34	O	1.370978	1.057122	0.070260
C35	C	0.909640	0.585808	-0.381229
C36	C	1.409640	1.085808	0.118771
C37	C	0.909675	0.673664	-0.381250
C38	C	1.409675	1.173664	0.118750
C39	C	0.746141	0.380483	-0.381152
C40	C	1.246141	0.880483	0.118848
C41	C	0.676173	0.380520	-0.381131
C42	C	1.176173	0.880520	0.118869
C43	C	0.909719	0.380376	-0.587411
C44	C	1.409719	0.880376	-0.087411
C45	C	0.909730	0.380348	-0.675267
C46	C	1.409730	0.880348	-0.175267
C47	C	0.643312	0.431126	-0.431603
C48	C	1.143312	0.931126	0.068397
C49	C	0.577569	0.431106	-0.431639
C50	C	1.077569	0.931106	0.068361
C51	C	0.544690	0.380489	-0.381188
C52	C	1.044690	0.880489	0.118812
C53	C	0.577559	0.329874	-0.330713
C54	C	1.077559	0.829874	0.169287
C55	C	0.643300	0.329889	-0.330684
C56	C	1.143300	0.829889	0.169316
N57	N	0.441422	0.374319	-0.312053
N58	N	0.941422	0.874319	0.187947
N59	N	0.378971	0.374309	-0.312083
N60	N	0.878971	0.874309	0.187917
C61	C	0.346615	0.380439	-0.381272
C62	C	0.846615	0.880439	0.118728
N63	N	0.379071	0.386595	-0.450433
N64	N	0.879071	0.886595	0.049567
N65	N	0.441528	0.386609	-0.450403
N66	N	0.941528	0.886609	0.049597
C67	C	0.473405	0.380467	-0.381214
C68	C	0.973405	0.880467	0.118786
C69	C	0.242469	0.431026	-0.431787
C70	C	0.742469	0.931026	0.068213
C71	C	0.176725	0.431001	-0.431824
C72	C	0.676725	0.931001	0.068176
C73	C	0.176716	0.329773	-0.330891
C74	C	0.676716	0.829773	0.169109
C75	C	0.242459	0.329794	-0.330861
C76	C	0.742459	0.829794	0.169139
C77	C	0.275331	0.380425	-0.381308
C78	C	0.775331	0.880425	0.118692
C79	C	1.073883	0.380400	-0.381334
C80	C	1.573883	0.880400	0.118666
C81	C	1.143851	0.380383	-0.381373
C82	C	1.643851	0.880383	0.118627
C83	C	0.909762	0.174273	-0.381273
C84	C	1.409762	0.674273	0.118727
C85	C	0.909792	0.086417	-0.381286
C86	C	1.409792	0.586417	0.118714
C87	C	0.869496	1.045164	-0.431770
C88	C	1.369496	1.545164	0.068230
C89	C	0.950064	1.045116	-0.330796
C90	C	1.450064	1.545116	0.169204
C91	C	0.950042	0.962570	-0.330789
C92	C	1.450042	1.462570	0.169211
C93	C	0.909746	0.921317	-0.381272
C94	C	1.409746	1.421317	0.118728
C95	C	0.869471	0.962611	-0.431762
C96	C	1.369471	1.462611	0.068238
C97	C	0.990312	0.921271	-0.280294
C98	C	1.490312	1.421271	0.219706
C99	C	0.990291	0.838720	-0.280284
C100	C	1.490291	1.338720	0.219716
C101	C	0.949997	0.797466	-0.330771
C102	C	1.449997	1.297466	0.169229
C103	C	0.909721	0.838764	-0.381264
C104	C	1.409721	1.338764	0.118736
C105	C	0.869425	0.797511	-0.431748
C106	C	1.369425	1.297511	0.068252
C107	C	0.829152	0.838808	-0.482245
C108	C	1.329152	1.338808	0.017755
C109	C	0.829177	0.921356	-0.482250
C110	C	1.329177	1.421356	0.017750
C111	C	0.949971	0.714917	-0.330767
C112	C	1.449971	1.214917	0.169233
C113	C	0.869400	0.714958	-0.431740
C114	C	1.369400	1.214958	0.068260
C115	C	0.869530	0.430825	-1.046716
C116	C	1.369530	0.930825	-0.546716
C117	C	0.950080	0.329704	-1.046771
C118	C	1.450080	0.829704	-0.546771
C119	C	0.950063	0.329721	-0.964225
C120	C	1.450063	0.829721	-0.464225
C121	C	0.909780	0.380292	-0.922921
C122	C	1.409780	0.880292	-0.422921
C123	C	0.869513	0.430845	-0.964162
C124	C	1.369513	0.930845	-0.464162
C125	C	0.990334	0.279174	-0.922977
C126	C	1.490334	0.779174	-0.422977
C127	C	0.990319	0.279189	-0.840426
C128	C	1.490319	0.779189	-0.340426
C129	C	0.950032	0.329756	-0.799120
C130	C	1.450032	0.829756	-0.299120
C131	C	0.909763	0.380312	-0.840367
C132	C	1.409763	0.880312	-0.340367
C133	C	0.869480	0.430882	-0.799063
C134	C	1.369480	0.930882	-0.299063
C135	C	0.829207	0.481434	-0.840308
C136	C	1.329207	0.981434	-0.340308
C137	C	0.829226	0.481413	-0.922856
C138	C	1.329226	0.981413	-0.422856
C139	C	0.950013	0.329778	-0.716572
C140	C	1.450013	0.829778	-0.216572
C141	C	0.869463	0.430902	-0.716509
C142	C	1.369463	0.930902	-0.216509
C143	C	0.909702	0.380450	-0.175876
C144	C	1.409702	0.880450	0.324124
C145	C	0.909813	0.380255	-0.088020
C146	C	1.409813	0.880255	0.411980
H147	H	0.670072	0.472353	-0.472682
H148	H	1.170072	0.972353	0.027318
H149	H	1.023114	0.954865	-0.239187
H150	H	1.523114	1.454865	0.260813
H151	H	0.149947	0.288556	-0.289816
H152	H	0.649947	0.788556	0.210184
H153	H	1.023084	0.805101	-0.239167
H154	H	1.523084	1.305101	0.260833
C155	C	0.679452	0.274224	-0.275162
C156	C	1.179452	0.774224	0.224838
H157	H	0.723313	0.281481	-0.282373
H158	H	1.223313	0.781481	0.217627
H159	H	0.668629	0.285720	-0.222038
H160	H	1.168629	0.785720	0.277962
H161	H	0.668723	0.221124	-0.286833
H162	H	1.168723	0.721124	0.213167
C163	C	0.994385	0.274078	-1.092203
C164	C	1.494385	0.774078	-0.592203
H165	H	0.988624	0.281302	-1.147273
H166	H	1.488624	0.781302	-0.647273
H167	H	1.036675	0.285629	-1.078692
H168	H	1.536675	0.785629	-0.578692
H169	H	0.985178	0.220973	-1.078683
H170	H	1.485178	0.720973	-0.578683
H171	H	0.836588	0.681375	-0.472853
H172	H	1.336588	1.181375	0.027147
H173	H	0.269235	0.472249	-0.472868
H174	H	0.769235	0.972249	0.027132
C175	C	0.994266	0.669494	-0.275227
C176	C	1.494266	1.169494	0.224773
H177	H	1.018269	0.705886	-0.245164
H178	H	1.518269	1.205886	0.254836
H179	H	0.970194	0.637338	-0.240750
H180	H	1.470194	1.137338	0.259250
H181	H	1.021673	0.637245	-0.305509
H182	H	1.521673	1.137245	0.194491
C183	C	0.825159	0.486542	-0.671080
C184	C	1.325159	0.986542	-0.171080
H185	H	0.801185	0.516650	-0.707469
H186	H	1.301185	1.016650	-0.207469
H187	H	0.797734	0.456333	-0.638863
H188	H	1.297734	0.956333	-0.138863
H189	H	0.849234	0.520986	-0.638891
H190	H	1.349234	1.020986	-0.138891
H191	H	0.982804	0.288621	-0.682994
H192	H	1.482804	0.788621	-0.182994
C193	C	0.825197	1.090585	-0.487310
C194	C	1.325197	1.590585	0.012690
H195	H	0.830978	1.145657	-0.480085
H196	H	1.330978	1.645657	0.019915
H197	H	0.834376	1.077012	-0.540432
H198	H	1.334376	1.577012	-0.040432
H199	H	0.782902	1.077116	-0.475666
H200	H	1.282902	1.577116	0.024334
C201	C	0.541395	0.274197	-0.275219
C202	C	1.041395	0.774197	0.224781
H203	H	0.497535	0.281440	-0.282459
H204	H	0.997535	0.781440	0.217541
H205	H	0.552211	0.221105	-0.286873
H206	H	1.052211	0.721105	0.213127
H207	H	0.552122	0.285705	-0.222083
H208	H	1.052122	0.785705	0.277917
H209	H	0.796411	0.522612	-0.806667
H210	H	1.296411	1.022612	-0.306667
H211	H	0.149971	0.472209	-0.472929
H212	H	0.649971	0.972209	0.027071
C213	C	0.541415	0.486729	-0.487206
C214	C	1.041415	0.986729	0.012794
H215	H	0.570408	0.516873	-0.517257
H216	H	1.070408	1.016873	-0.017257
H217	H	0.515833	0.456487	-0.521692
H218	H	1.015833	0.956487	-0.021692
H219	H	0.515706	0.521142	-0.456957
H220	H	1.015706	1.021142	0.043043
C221	C	0.278608	0.274136	-0.275331
C222	C	0.778608	0.774136	0.224669
H223	H	0.249612	0.243992	-0.245284
H224	H	0.749612	0.743992	0.254716
H225	H	0.304301	0.239739	-0.305611
H226	H	0.804301	0.739739	0.194389
H227	H	0.304205	0.304345	-0.240826
H228	H	0.804205	0.804345	0.259174
C229	C	0.784936	0.537018	-0.968227
C230	C	1.284936	1.037018	-0.468227
H231	H	0.790722	0.529769	-1.023305
H232	H	1.290722	1.029769	-0.523305
H233	H	0.742641	0.525468	-0.954687
H234	H	1.242641	1.025468	-0.454687
H235	H	0.794133	0.590130	-0.954689
H236	H	1.294133	1.090130	-0.454689
C237	C	0.825235	0.486431	-1.092080
C238	C	1.325235	0.986431	-0.592080
H239	H	0.831015	0.479182	-1.147159
H240	H	1.331015	0.979182	-0.647159
H241	H	0.782942	0.474879	-1.078532
H242	H	1.282942	0.974879	-0.578532
H243	H	0.834433	0.539543	-1.078544
H244	H	1.334433	1.039543	-0.578544
C245	C	1.034633	0.223542	-0.968411
C246	C	1.534633	0.723542	-0.468411
H247	H	1.028866	0.230761	-1.023481
H248	H	1.528866	0.730761	-0.523481
H249	H	1.076925	0.235092	-0.954910
H250	H	1.576925	0.735092	-0.454910
H251	H	1.025425	0.170439	-0.954884
H252	H	1.525425	0.670439	-0.454884
C253	C	1.034611	0.223579	-0.795064
C254	C	1.534611	0.723579	-0.295064
H255	H	1.058601	0.193455	-0.831487
H256	H	1.558601	0.693455	-0.331487
H257	H	1.062021	0.253811	-0.762862
H258	H	1.562021	0.753811	-0.262862
H259	H	1.010529	0.189149	-0.762864
H260	H	1.510529	0.689149	-0.262864
H261	H	0.796339	0.805210	-0.523345
H262	H	1.296339	1.305210	-0.023345
H263	H	0.796388	0.954987	-0.523361
H264	H	1.296388	1.454987	-0.023361
H265	H	0.982868	1.078709	-0.289690
H266	H	1.482868	1.578709	0.210310
