data_functionalizedCrystal
_audit_creation_method	'MofGen! by Chris Wilmer'
_symmetry_space_group_name_H-M	'P1'
_symmetry_Int_Tables_number	1
_symmetry_cell_setting	triclinic
loop_
_symmetry_equiv_pos_as_xyz
  x,y,z
_cell_length_a	13.339070
_cell_length_b	14.519709
_cell_length_c	12.376457
_cell_angle_alpha	101.296542
_cell_angle_beta	75.589755
_cell_angle_gamma	99.654719
loop_
_atom_site_label
_atom_site_type_symbol
_atom_site_fract_x
_atom_site_fract_y
_atom_site_fract_z
O1	O	1.362507	0.449827	-0.094056
O2	O	1.067869	0.389115	-0.094048
O3	O	1.222998	0.287221	-0.094042
O4	O	1.207378	0.551721	-0.094062
O5	O	1.184229	0.312650	0.093969
O6	O	1.029100	0.414544	0.093963
O7	O	1.323739	0.475256	0.093955
Zn8	Zn	1.170264	0.448937	0.123810
Zn9	Zn	1.221343	0.415434	-0.123903
O10	O	1.168610	0.577150	0.093949
C11	C	1.010777	0.391574	-0.000041
C12	C	0.898419	0.361005	-0.000038
C13	C	0.534063	0.598692	-0.000074
C14	C	0.639629	0.627415	-0.000081
C15	C	0.704332	0.560815	-0.000070
C16	C	0.663458	0.465487	-0.000053
C17	C	0.557883	0.436759	-0.000055
C18	C	0.728152	0.398883	-0.000050
C19	C	0.687278	0.303554	-0.000033
C20	C	0.581713	0.274832	-0.000035
C21	C	0.517011	0.341432	-0.000046
C22	C	0.833726	0.427610	-0.000048
C23	C	0.857547	0.265678	-0.000029
C24	C	0.751980	0.236954	-0.000022
C25	C	1.202885	0.265390	-0.000036
C26	C	1.200703	0.162454	-0.000036
C27	C	1.192677	-0.214489	-0.000065
C28	C	1.194906	-0.109612	-0.000056
C29	C	1.196690	-0.026021	-0.000049
C30	C	1.198919	0.078862	-0.000043
C31	C	1.380832	0.472796	-0.000054
C32	C	1.493191	0.503364	-0.000065
C33	C	1.188723	0.598980	-0.000059
C34	C	1.190906	0.701915	-0.000067
N35	N	1.135411	0.471804	0.292866
N36	N	1.256204	0.392562	-0.292960
C37	C	1.337109	0.339463	0.647859
C38	C	1.361497	0.323457	0.529520
C39	C	1.304977	0.360542	0.470351
C40	C	1.224066	0.413636	0.529532
C41	C	1.199681	0.429650	0.647883
C42	C	1.167550	0.450729	0.470375
C43	C	1.086639	0.503824	0.529556
C44	C	1.062257	0.519834	0.647895
C45	C	1.118777	0.482749	0.707064
C46	C	1.191935	0.434715	0.352024
C47	C	1.054507	0.524903	0.352048
C48	C	1.030119	0.540909	0.470387
H49	H	0.672903	0.705030	-0.000103
H50	H	0.866994	0.505228	-0.000058
C51	C	0.707588	0.133437	-0.000246
C52	C	0.667649	0.099130	-0.096988
C53	C	0.626759	0.003772	-0.097241
H54	H	0.653325	0.127617	0.065240
H55	H	0.761220	0.097838	-0.000302
H56	H	0.614023	0.134719	-0.096923
H57	H	0.721893	0.104925	-0.162490
H58	H	0.680390	-0.031827	-0.097296
H59	H	0.572499	-0.002039	-0.031750
H60	H	0.599664	-0.019520	-0.162883
C61	C	0.537331	0.171312	-0.000263
C62	C	0.497397	0.137001	-0.097008
C63	C	0.456521	0.041640	-0.097266
H64	H	0.483066	0.165485	0.065222
H65	H	0.590968	0.135720	-0.000317
H66	H	0.443766	0.172583	-0.096943
H67	H	0.551643	0.142803	-0.162508
H68	H	0.510158	0.006048	-0.097320
H69	H	0.402260	0.035822	-0.031777
H70	H	0.429430	0.018345	-0.162911
H71	H	0.481376	0.652906	-0.000092
H72	H	0.790288	0.584207	-0.000078
C73	C	0.927939	0.193437	-0.000192
C74	C	1.009207	0.192135	-0.096903
C75	C	1.074087	0.125615	-0.097089
H76	H	0.888618	0.132498	-0.000249
H77	H	0.956160	0.210149	0.065339
H78	H	0.980987	0.175418	-0.162417
H79	H	1.048554	0.253058	-0.096867
H80	H	1.102308	0.142326	-0.031557
H81	H	1.034757	0.064680	-0.097142
H82	H	1.129240	0.124729	-0.162699
C83	C	1.331571	0.343015	0.341868
C84	C	1.414506	0.288558	0.302703
C85	C	1.439023	0.272376	0.184347
H86	H	1.351106	0.401846	0.314940
H87	H	1.272407	0.310128	0.315076
H88	H	1.473658	0.321446	0.329483
H89	H	1.394995	0.229717	0.329600
H90	H	1.379859	0.239489	0.157555
H91	H	1.458554	0.331211	0.157430
H92	H	1.495290	0.235419	0.157758
H93	H	0.431049	0.318049	-0.000040
C94	C	1.449336	0.265747	0.465474
C95	C	1.493595	0.236674	0.542617
C96	C	1.574509	0.183495	0.483658
H97	H	1.501133	0.303409	0.419291
H98	H	1.422394	0.211718	0.419345
H99	H	1.520538	0.290694	0.588727
H100	H	1.441825	0.198999	0.588803
H101	H	1.547567	0.129465	0.437529
H102	H	1.626299	0.221163	0.437477
H103	H	1.604543	0.163755	0.535990
C104	C	1.398286	0.299067	0.712166
C105	C	1.330274	0.237945	0.780108
C106	C	1.386599	0.200703	0.839356
H107	H	1.430965	0.349220	0.758410
H108	H	1.449943	0.265095	0.660016
H109	H	1.278636	0.271916	0.832252
H110	H	1.297593	0.187776	0.733892
H111	H	1.438256	0.166731	0.787206
H112	H	1.419276	0.250862	0.885593
H113	H	1.340463	0.159222	0.885453
C114	C	1.092494	0.500069	0.835552
C115	C	1.159323	0.456240	0.874695
C116	C	1.135155	0.472185	0.993051
H117	H	1.022302	0.474479	0.862483
H118	H	1.100978	0.566212	0.862355
H119	H	1.150830	0.390110	0.847903
H120	H	1.229519	0.481821	0.847794
H121	H	1.143639	0.538329	1.019854
H122	H	1.064963	0.446595	1.019971
H123	H	1.180501	0.442458	1.019624
H124	H	0.996383	0.563075	0.696080
H125	H	0.964240	0.584140	0.518587
C126	C	0.993327	0.565240	0.287677
C127	C	1.061344	0.626329	0.219695
C128	C	1.005034	0.663497	0.160364
H129	H	0.941652	0.599225	0.339743
H130	H	0.960677	0.515023	0.241459
H131	H	1.093977	0.676539	0.265909
H132	H	1.113020	0.592366	0.167609
H133	H	0.972384	0.613279	0.114146
H134	H	0.953361	0.697477	0.212437
H135	H	1.051176	0.704942	0.114223
H136	H	1.257813	0.391486	0.303849
