data_functionalizedCrystal
_audit_creation_method	'MofGen! by Chris Wilmer'
_symmetry_space_group_name_H-M	'P1'
_symmetry_Int_Tables_number	1
_symmetry_cell_setting	triclinic
loop_
_symmetry_equiv_pos_as_xyz
  x,y,z
_cell_length_a	13.031981
_cell_length_b	15.298073
_cell_length_c	13.032268
_cell_angle_alpha	93.759913
_cell_angle_beta	89.068348
_cell_angle_gamma	74.594498
loop_
_atom_site_label
_atom_site_type_symbol
_atom_site_fract_x
_atom_site_fract_y
_atom_site_fract_z
Zn1	Zn	-0.266464	-1.261279	-0.810333
Zn2	Zn	-0.415846	-1.265964	-0.617547
Zn3	Zn	-0.266834	-1.132371	-0.609668
Zn4	Zn	-0.467028	-1.094869	-0.751363
O5	O	-0.354043	-1.188621	-0.697228
O6	O	-0.264706	-1.387452	-0.812736
O7	O	-0.374814	-1.265898	-0.476521
O8	O	-0.120486	-1.163205	-0.657669
O9	O	-0.374456	-1.390895	-0.671097
O10	O	-0.120214	-1.257913	-0.805096
O11	O	-0.265335	-1.167748	-0.470733
O12	O	-0.314964	-1.001844	-0.600488
O13	O	-0.461688	-1.099289	-0.899166
O14	O	-0.462046	-0.974292	-0.704590
O15	O	-0.314335	-1.221549	-0.942491
O16	O	-0.568935	-1.229534	-0.613916
O17	O	-0.606537	-1.103832	-0.712230
C18	C	-0.394100	-0.955514	-0.645286
C19	C	-0.411265	-0.855784	-0.623084
C20	C	-0.231567	-0.567407	-0.855824
C21	C	-0.215443	-0.661107	-0.876688
C22	C	-0.264397	-0.709781	-0.813289
C23	C	-0.329478	-0.664745	-0.729022
C24	C	-0.345610	-0.571035	-0.708160
C25	C	-0.378440	-0.713409	-0.665625
C26	C	-0.443521	-0.668374	-0.581359
C27	C	-0.459649	-0.574673	-0.560500
C28	C	-0.410696	-0.525999	-0.623900
C29	C	-0.362308	-0.807119	-0.686487
C30	C	-0.476351	-0.810748	-0.538824
C31	C	-0.492474	-0.717048	-0.517959
C32	C	-0.625669	-1.163143	-0.657556
C33	C	-0.741862	-1.152322	-0.640637
C34	C	-0.793463	-1.194314	-0.706089
C35	C	-0.913555	-1.183130	-0.688603
C36	C	-0.081356	-1.214220	-0.737081
C37	C	0.034847	-1.225128	-0.754065
C38	C	-0.393679	-1.155713	-0.958139
C39	C	-0.410570	-1.141689	-1.069324
C40	C	-0.313820	-0.422640	-0.749365
C41	C	-0.296653	-0.522370	-0.771563
C42	C	-0.345193	-1.195929	-1.140330
C43	C	-0.362648	-1.181437	-1.255246
C44	C	-0.314477	-1.221460	-0.437354
C45	C	-0.297262	-1.235684	-0.326252
H46	H	-0.191723	-0.527767	-0.907439
O47	O	-0.555559	-0.673364	-0.435993
C48	C	-0.513488	-0.710980	-0.344784
H49	H	-0.424782	-0.745187	-0.357794
H50	H	-0.556151	-0.763425	-0.322473
C51	C	-0.638680	-0.593001	-0.241736
C52	C	-0.529727	-0.635009	-0.257713
H53	H	-0.648700	-0.546140	-0.188024
H54	H	-0.667027	-0.567660	-0.303184
H55	H	-0.674220	-0.636714	-0.223149
H56	H	-0.494191	-0.591298	-0.276312
H57	H	-0.501374	-0.660341	-0.196265
O58	O	-0.262956	-1.264026	-1.111237
C59	C	-0.195078	-1.226853	-1.049289
H60	H	-0.241285	-1.157343	-1.013199
H61	H	-0.125355	-1.219240	-1.098631
C62	C	-0.095945	-1.375800	-1.008046
C63	C	-0.152700	-1.290430	-0.963712
H64	H	-0.069800	-1.415019	-0.955260
H65	H	-0.141672	-1.400845	-1.049784
H66	H	-0.037850	-1.369444	-1.049163
H67	H	-0.210800	-1.296786	-0.922607
H68	H	-0.106981	-1.265387	-0.921965
O69	O	-0.444825	-1.113303	-1.284379
C70	C	-0.443951	-1.113992	-1.392630
H71	H	-0.399944	-1.184671	-1.427234
H72	H	-0.401900	-1.062284	-1.418569
C73	C	-0.613298	-1.002310	-1.386590
C74	C	-0.559256	-1.089122	-1.429092
H75	H	-0.684423	-0.986965	-1.409084
H76	H	-0.613886	-1.001843	-1.313660
H77	H	-0.578244	-0.959230	-1.408210
H78	H	-0.594302	-1.132201	-1.407462
H79	H	-0.558677	-1.089596	-1.502021
O80	O	-0.215002	-1.303776	-1.297178
C81	C	-0.147128	-1.266586	-1.235244
H82	H	-0.193351	-1.197086	-1.199139
H83	H	-0.077428	-1.258948	-1.284599
C84	C	-0.047932	-1.415524	-1.194032
C85	C	-0.104705	-1.330166	-1.149681
H86	H	-0.021758	-1.454744	-1.141255
H87	H	-0.093656	-1.440581	-1.235761
H88	H	0.010144	-1.409146	-1.235161
H89	H	-0.162787	-1.336544	-1.108564
H90	H	-0.058989	-1.305112	-1.107942
O91	O	-0.911890	-1.278021	-0.836329
C92	C	-0.919704	-1.367759	-0.830630
H93	H	-0.992853	-1.367163	-0.781131
H94	H	-0.845256	-1.410178	-0.794853
C95	C	-0.840152	-1.410018	-1.000393
C96	C	-0.930000	-1.409286	-0.939604
H97	H	-0.846498	-1.435637	-1.067613
H98	H	-0.834883	-1.349561	-1.004232
H99	H	-0.778121	-1.445366	-0.970566
H100	H	-0.992027	-1.373929	-0.969424
H101	H	-0.935279	-1.469738	-0.935773
O102	O	-0.492886	-1.073533	-1.098161
C103	C	-0.589875	-1.086562	-1.061859
H104	H	-0.574669	-1.130353	-0.993321
H105	H	-0.626026	-1.122023	-1.125791
C106	C	-0.686205	-0.939955	-1.112607
C107	C	-0.667530	-0.993733	-1.028421
H108	H	-0.734109	-0.882694	-1.091985
H109	H	-0.620862	-0.931178	-1.137068
H110	H	-0.716325	-0.969517	-1.165876
H111	H	-0.637397	-0.964176	-0.975159
H112	H	-0.732869	-1.002503	-1.003950
O113	O	-0.299179	-0.850741	-0.768444
C114	C	-0.341287	-0.813149	-0.859652
H115	H	-0.393498	-0.741096	-0.840644
H116	H	-0.391115	-0.856616	-0.897145
C117	C	-0.185318	-0.899198	-0.957661
C118	C	-0.249437	-0.810699	-0.934315
H119	H	-0.128663	-0.897690	-1.003720
H120	H	-0.156950	-0.924528	-0.896214
H121	H	-0.226854	-0.935411	-0.988900
H122	H	-0.207905	-0.774491	-0.903066
H123	H	-0.277796	-0.785363	-0.995760
H124	H	-0.251261	-0.786076	-0.830279
H125	H	-0.786595	-1.108087	-0.571659
O126	O	-0.152151	-0.704719	-0.958548
C127	C	-0.112420	-0.641665	-1.010045
H128	H	-0.114012	-0.580372	-0.954745
H129	H	-0.164070	-0.618543	-1.078135
C130	C	0.004859	-0.762100	-1.116939
C131	C	0.002911	-0.686823	-1.049017
H132	H	0.075998	-0.789956	-1.140984
H133	H	-0.021912	-0.804581	-1.082248
H134	H	-0.038189	-0.742821	-1.173672
H135	H	0.045947	-0.706105	-0.992280
H136	H	0.029692	-0.644346	-1.083700
O137	O	-0.966895	-1.130220	-0.606386
C138	C	-0.959031	-1.040493	-0.612056
H139	H	-0.941847	-1.028611	-0.695296
H140	H	-0.891656	-1.029697	-0.562331
C141	C	-1.085774	-0.987710	-0.470744
C142	C	-1.064677	-0.973114	-0.572981
H143	H	-1.150938	-0.946146	-0.446636
H144	H	-1.091069	-1.048161	-0.466920
H145	H	-1.029620	-0.978714	-0.429319
H146	H	-1.120823	-0.982121	-0.614407
H147	H	-1.059393	-0.912662	-0.576811
O148	O	-0.523018	-0.530857	-0.478769
C149	C	-0.608584	-0.463148	-0.513675
H150	H	-0.622270	-0.480850	-0.597778
H151	H	-0.589026	-0.394716	-0.506080
C152	C	-0.693174	-0.435972	-0.345159
C153	C	-0.709990	-0.457718	-0.448453
H154	H	-0.755726	-0.432619	-0.304925
H155	H	-0.635525	-0.481586	-0.321640
H156	H	-0.676873	-0.378948	-0.338845
H157	H	-0.726277	-0.514746	-0.454768
H158	H	-0.767645	-0.412113	-0.471972
O159	O	-0.740021	-1.246960	-0.788424
C160	C	-0.695511	-1.193517	-0.850730
H161	H	-0.685665	-1.131501	-0.802578
H162	H	-0.750469	-1.170376	-0.916572
C163	C	-0.598043	-1.326344	-0.954034
C164	C	-0.585943	-1.250178	-0.894890
H165	H	-0.530459	-1.361295	-0.981278
H166	H	-0.628033	-1.362350	-0.912060
H167	H	-0.643845	-1.307048	-1.008895
H168	H	-0.540153	-1.269475	-0.840024
H169	H	-0.555942	-1.214176	-0.936856
H170	H	-0.423828	-0.449699	-0.606922
H171	H	-0.516219	-0.850377	-0.487203
