data_functionalizedCrystal
_audit_creation_method	'MofGen! by Chris Wilmer'
_symmetry_space_group_name_H-M	'P1'
_symmetry_Int_Tables_number	1
_symmetry_cell_setting	triclinic
loop_
_symmetry_equiv_pos_as_xyz
  x,y,z
_cell_length_a	27.732048
_cell_length_b	22.010155
_cell_length_c	23.532357
_cell_angle_alpha	90.017067
_cell_angle_beta	82.735474
_cell_angle_gamma	89.987713
loop_
_atom_site_label
_atom_site_type_symbol
_atom_site_fract_x
_atom_site_fract_y
_atom_site_fract_z
O1	O	0.641012	0.050454	0.067775
O2	O	0.500233	0.050473	0.078079
O3	O	0.574881	0.050451	-0.010016
O4	O	0.566365	0.050477	0.155869
O5	O	0.574892	-0.050600	-0.010033
O6	O	0.500244	-0.050577	0.078062
O7	O	0.641023	-0.050596	0.067758
Cu8	Cu	0.570635	-0.059813	0.072909
Cu9	Cu	0.570622	0.059690	0.072928
O10	O	0.566376	-0.050574	0.155853
C11	C	0.482231	-0.000049	0.077854
C12	C	0.428576	-0.000043	0.077203
N13	N	0.570647	-0.143866	0.072895
C14	C	0.574673	-0.000076	-0.031241
C15	C	0.574033	-0.000082	-0.094458
C16	C	0.089827	-0.000061	0.125161
C17	C	-0.111836	-0.000067	0.122744
O18	O	-0.143031	-0.000087	0.166598
N19	N	-0.131032	-0.000074	0.070508
C20	C	-0.099809	-0.000084	0.018871
O21	O	-0.120764	-0.000096	-0.025614
C22	C	0.101853	-0.000082	0.021289
C23	C	0.121046	-0.000069	0.073529
C24	C	0.109021	-0.000049	0.177397
C25	C	0.159434	-0.000044	0.178000
C26	C	0.190653	-0.000052	0.126368
C27	C	0.171459	-0.000064	0.074132
C28	C	0.133075	-0.000097	-0.030347
C29	C	0.183493	-0.000098	-0.029738
C30	C	0.202686	-0.000084	0.022502
C31	C	0.253091	-0.000068	0.023104
N32	N	0.272287	-0.000060	0.075340
C33	C	0.241068	-0.000053	0.126972
C34	C	-0.205685	-0.000084	0.017606
C35	C	-0.256100	-0.000083	0.017002
C36	C	-0.268124	-0.000067	0.120875
C37	C	-0.217707	-0.000063	0.121479
C38	C	-0.186489	-0.000076	0.069843
C39	C	0.346939	-0.000042	0.128236
C40	C	0.397357	-0.000035	0.128835
C41	C	0.409376	-0.000054	0.024962
C42	C	0.358962	-0.000058	0.024363
C43	C	0.327745	-0.000054	0.076004
O44	O	0.284314	-0.000055	-0.020727
O45	O	0.262032	-0.000054	0.171452
C46	C	0.039414	-0.000066	0.124557
C47	C	0.020221	-0.000079	0.072321
C48	C	0.051440	-0.000087	0.020689
C49	C	-0.030195	-0.000078	0.071717
C50	C	-0.061414	-0.000070	0.123349
C51	C	-0.042218	-0.000063	0.175586
C52	C	0.008195	-0.000058	0.176189
C53	C	0.032244	-0.000094	-0.031547
C54	C	-0.018170	-0.000098	-0.032147
C55	C	-0.049389	-0.000090	0.019486
C56	C	0.659025	-0.000072	0.067983
C57	C	0.712681	-0.000075	0.068634
N58	N	0.570613	0.143743	0.072938
C59	C	0.537514	0.436365	0.111861
C60	C	0.537512	0.372757	0.111865
O61	O	0.509360	0.339875	0.144987
N62	N	0.570625	0.340927	0.072934
C63	C	0.603745	0.372708	0.034000
O64	O	0.631910	0.339793	0.000888
C65	C	0.603749	0.436314	0.034000
C66	C	0.570631	0.468141	0.072929
C67	C	0.504399	0.468192	0.150787
C68	C	0.504401	0.531795	0.150782
C69	C	0.537517	0.563571	0.111851
C70	C	0.570632	0.531744	0.072924
C71	C	0.636871	0.468094	-0.004931
C72	C	0.636873	0.531705	-0.004928
C73	C	0.603754	0.563531	0.034001
C74	C	0.603751	0.627124	0.033988
N75	N	0.570638	0.658954	0.072918
C76	C	0.537521	0.627178	0.111850
C77	C	0.603734	0.239130	0.034006
C78	C	0.603728	0.175525	0.034004
C79	C	0.537496	0.175579	0.111869
C80	C	0.537500	0.239185	0.111868
C81	C	0.570622	0.270960	0.072937
C82	C	0.537527	0.760749	0.111836
C83	C	0.537531	0.824358	0.111826
C84	C	0.603765	0.824298	0.033963
C85	C	0.603760	0.760695	0.033971
C86	C	0.570639	0.728922	0.072912
O87	O	0.631890	0.660047	0.000884
O88	O	0.509365	0.660100	0.144962
C89	C	0.570006	0.055034	-0.486452
C90	C	0.569398	0.055037	-0.545850
O91	O	0.569061	0.101883	-0.576558
N92	N	0.569102	-0.000044	-0.575569
C93	C	0.569410	-0.055133	-0.545887
O94	O	0.569102	-0.101984	-0.576619
C95	C	0.570015	-0.055136	-0.486489
C96	C	0.570316	-0.000051	-0.456773
C97	C	0.570307	0.110115	-0.456736
C98	C	0.570916	0.110111	-0.397342
C99	C	0.571226	0.055026	-0.367664
C100	C	0.570925	-0.000055	-0.397380
C101	C	0.570319	-0.110224	-0.456807
C102	C	0.570924	-0.110223	-0.397405
C103	C	0.571225	-0.055137	-0.367690
C104	C	0.571844	-0.055143	-0.308307
N105	N	0.572140	-0.000061	-0.278588
C106	C	0.571831	0.055023	-0.308266
C107	C	0.568138	-0.055123	-0.670626
C108	C	0.567536	-0.055121	-0.730023
C109	C	0.567523	0.055050	-0.729981
C110	C	0.568128	0.055047	-0.670584
C111	C	0.568434	-0.000041	-0.640906
C112	C	0.573112	0.055011	-0.183535
C113	C	0.573723	0.055003	-0.124136
C114	C	0.573734	-0.055168	-0.124182
C115	C	0.573124	-0.055160	-0.183576
C116	C	0.572812	-0.000065	-0.213251
O117	O	0.572179	-0.101965	-0.277561
O118	O	0.572133	0.101867	-0.277525
C119	C	0.566583	-0.000045	0.177077
C120	C	0.567224	-0.000036	0.240294
H121	H	0.321527	-0.000041	0.170287
O122	O	0.567169	0.114464	-0.761998
H123	H	0.567475	0.152770	-0.731358
H124	H	0.630726	0.850181	0.002264
O125	O	-0.197007	-0.000053	0.177822
H126	H	-0.174317	-0.041239	0.180575
H127	H	0.663846	0.557573	-0.036630
O128	O	0.572769	0.114435	-0.215533
H129	H	0.605835	0.140841	-0.209496
H130	H	-0.293551	-0.000061	0.162916
H131	H	0.571166	-0.155083	-0.373244
H132	H	0.630691	0.149616	0.002298
O133	O	0.501805	0.726483	0.153835
H134	H	0.521964	0.697514	0.181409
H135	H	0.567298	-0.099977	-0.754213
H136	H	-0.271722	-0.000084	-0.025537
O137	O	0.574047	0.114419	-0.092085
H138	H	0.541375	0.117055	-0.059649
H139	H	0.208910	-0.000109	-0.071787
O140	O	0.571228	0.169524	-0.365292
H141	H	0.570903	0.207823	-0.395915
O142	O	-0.038869	-0.000118	-0.088495
H143	H	-0.008686	-0.000131	-0.124293
H144	H	0.572884	-0.100014	-0.207772
H145	H	0.570053	0.154974	-0.480893
H146	H	0.477431	0.442325	0.182493
O147	O	0.574067	-0.114580	-0.092167
H148	H	0.574535	-0.105322	-0.045873
H149	H	0.057658	-0.000102	-0.073594
H150	H	0.083607	-0.000044	0.219444
H151	H	0.023817	-0.000048	0.218729
H152	H	0.477434	0.557705	0.182483
H153	H	0.630723	0.734781	0.002266
H154	H	-0.180270	-0.000094	-0.024444
O155	O	-0.075895	-0.000055	0.231276
H156	H	-0.069091	-0.041236	0.256290
H157	H	0.343335	-0.000060	-0.018175
H158	H	0.412980	-0.000023	0.171377
O159	O	0.112381	-0.000124	-0.086692
H160	H	0.142566	-0.000141	-0.122487
H161	H	0.434803	-0.000058	-0.017075
H162	H	0.510560	0.850270	0.143527
O163	O	0.501785	0.273512	0.153860
H164	H	0.478760	0.240724	0.180931
H165	H	0.568372	0.099903	-0.646393
O166	O	0.501780	0.141301	0.153868
H167	H	0.507348	0.091725	0.147330
H168	H	0.630705	0.264998	0.002299
O169	O	0.180133	-0.000048	0.234345
H170	H	0.149948	-0.000053	0.270141
H171	H	0.663839	0.442189	-0.036630
O172	O	0.568480	-0.114543	-0.638618
H173	H	0.568179	-0.152840	-0.669268
H174	H	0.570075	-0.155081	-0.480991
