data_functionalizedCrystal
_audit_creation_method	'MofGen! by Chris Wilmer'
_symmetry_space_group_name_H-M	'P1'
_symmetry_Int_Tables_number	1
_symmetry_cell_setting	triclinic
loop_
_symmetry_equiv_pos_as_xyz
  x,y,z
_cell_length_a	10.489716
_cell_length_b	9.565339
_cell_length_c	10.489741
_cell_angle_alpha	90.001269
_cell_angle_beta	95.465845
_cell_angle_gamma	90.003468
loop_
_atom_site_label
_atom_site_type_symbol
_atom_site_fract_x
_atom_site_fract_y
_atom_site_fract_z
O1	O	1.694072	0.116248	-0.179808
O2	O	1.322872	0.116253	-0.196734
O3	O	1.516918	0.116242	-0.002672
O4	O	1.500025	0.116259	-0.373870
O5	O	1.516902	-0.116278	-0.002687
O6	O	1.322855	-0.116267	-0.196749
O7	O	1.694055	-0.116272	-0.179823
Zn8	Zn	1.508453	-0.153187	-0.188288
Zn9	Zn	1.508474	0.153168	-0.188269
O10	O	1.500009	-0.116261	-0.373885
C11	C	1.275332	-0.000006	-0.195470
C12	C	1.133701	-0.000005	-0.191665
N13	N	1.508447	-0.362267	-0.188301
C14	C	1.036027	0.000004	-0.310669
C15	C	0.958673	-0.114650	-0.247792
C16	C	0.958695	0.114597	-0.247749
C17	C	1.058212	-0.114753	-0.128838
C18	C	1.058240	0.114597	-0.128812
C19	C	0.980935	-0.000085	-0.065848
C20	C	1.419454	-0.546634	-0.278748
C21	C	1.392598	-0.453413	-0.163606
C22	C	1.535246	-0.453418	-0.303433
C23	C	1.481576	-0.546583	-0.073046
C24	C	1.624275	-0.546597	-0.212948
C25	C	1.597467	-0.453417	-0.097724
C26	C	1.741596	-0.000010	-0.181087
C27	C	1.883227	-0.000002	-0.184892
C28	C	1.515634	-0.000017	0.044852
C29	C	1.511817	-0.000015	0.186481
N30	N	1.508490	0.362247	-0.188246
C31	C	1.501293	0.000001	-0.421409
C32	C	1.505110	0.000008	-0.563038
C33	C	1.388351	-0.000003	0.254610
C34	C	1.446667	-0.114648	0.346730
C35	C	1.446712	0.114599	0.346720
C36	C	1.570184	-0.114754	0.276736
C37	C	1.570212	0.114595	0.276716
C38	C	1.628618	-0.000078	0.368808
H39	H	1.060696	-0.000098	-0.414185
N40	N	1.112509	-0.236483	-0.065856
N41	N	1.098496	-0.257491	0.049591
H42	H	1.136843	-0.343464	0.094069
H43	H	0.915219	0.211514	-0.298004
H44	H	0.956505	-0.000156	0.037744
H45	H	1.344125	-0.587563	-0.355170
N46	N	1.452983	-0.597689	0.049147
N47	N	1.349025	-0.566829	0.091189
H48	H	1.328824	-0.602923	0.177485
H49	H	0.915183	-0.211574	-0.298035
H50	H	1.730222	-0.000143	0.418241
N51	N	1.261001	-0.000149	0.192323
N52	N	1.186478	-0.098436	0.210995
H53	H	1.096539	-0.098546	0.167004
N54	N	1.381185	0.236191	0.385611
N55	N	1.368592	0.256182	0.501502
H56	H	1.322307	0.342052	0.528968
N57	N	1.112815	0.236202	-0.065845
N58	N	1.080677	0.355156	-0.106449
H59	H	1.119220	0.441052	-0.061988
N60	N	1.269753	-0.402053	-0.137384
N61	N	1.225232	-0.433579	-0.034812
H62	H	1.138470	-0.397310	-0.016297
H63	H	1.394419	-0.211571	0.377731
N64	N	1.691901	-0.402405	-0.001631
N65	N	1.684651	-0.432543	0.113403
H66	H	1.751340	-0.396514	0.181272
N67	N	1.747098	-0.597975	-0.239196
N68	N	1.790743	-0.568180	-0.342620
H69	H	1.877487	-0.604467	-0.361172
N70	N	1.563646	-0.402083	-0.425610
N71	N	1.491910	-0.431978	-0.523861
H72	H	1.511957	-0.395727	-0.610153
H73	H	1.622373	-0.211787	0.245902
H74	H	1.622416	0.211523	0.245682
