data_functionalizedCrystal
_audit_creation_method	'MofGen! by Chris Wilmer'
_symmetry_space_group_name_H-M	'P1'
_symmetry_Int_Tables_number	1
_symmetry_cell_setting	triclinic
loop_
_symmetry_equiv_pos_as_xyz
  x,y,z
_cell_length_a	12.759395
_cell_length_b	13.897448
_cell_length_c	13.897441
_cell_angle_alpha	90.029627
_cell_angle_beta	90.017364
_cell_angle_gamma	90.019229
loop_
_atom_site_label
_atom_site_type_symbol
_atom_site_fract_x
_atom_site_fract_y
_atom_site_fract_z
Zn1	Zn	1.606214	-0.383954	0.545349
Zn2	Zn	2.106214	0.116046	1.045349
Zn3	Zn	1.606105	-0.545273	0.384051
Zn4	Zn	2.106105	-0.045273	0.884051
Zn5	Zn	1.430522	-0.383998	0.384071
Zn6	Zn	1.930522	0.116002	0.884071
Zn7	Zn	1.430496	-0.545213	0.545307
Zn8	Zn	1.930496	-0.045213	1.045307
O9	O	1.518334	-0.464609	0.464695
O10	O	2.018334	0.035391	0.964695
O11	O	1.753221	-0.405360	0.523962
O12	O	2.253221	0.094640	1.023962
O13	O	1.582779	-0.523923	0.249072
O14	O	2.082779	-0.023923	0.749072
O15	O	1.453885	-0.249010	0.405492
O16	O	1.953885	0.250990	0.905492
O17	O	1.753141	-0.523880	0.405457
O18	O	2.253141	-0.023880	0.905457
O19	O	1.582965	-0.248978	0.523982
O20	O	2.082965	0.251022	1.023982
O21	O	1.453779	-0.405435	0.249087
O22	O	1.953779	0.094565	0.749087
O23	O	1.283497	-0.405377	0.405450
O24	O	1.783497	0.094623	0.905450
O25	O	1.453840	-0.523778	0.680294
O26	O	1.953840	-0.023778	1.180294
O27	O	1.283478	-0.523821	0.523909
O28	O	1.783478	-0.023821	1.023909
O29	O	1.582939	-0.405302	0.680326
O30	O	2.082939	0.094698	1.180326
O31	O	1.582754	-0.680247	0.405415
O32	O	2.082754	-0.180247	0.905415
O33	O	1.453734	-0.680202	0.523890
O34	O	1.953734	-0.180202	1.023890
C35	C	1.245367	-0.464598	0.464678
C36	C	1.745367	0.035402	0.964678
C37	C	1.128590	-0.464616	0.464694
C38	C	1.628590	0.035384	0.964694
C39	C	1.518258	-0.715224	0.464667
C40	C	2.018258	-0.215224	0.964667
C41	C	1.518321	-0.822438	0.464687
C42	C	2.018321	-0.322438	0.964687
C43	C	1.128608	-0.588151	0.587846
C44	C	1.628608	-0.088151	1.087846
C45	C	1.073757	-0.649926	0.649424
C46	C	1.573757	-0.149926	1.149424
C47	C	0.964035	-0.649938	0.649436
C48	C	1.464035	-0.149938	1.149436
C49	C	0.909163	-0.588166	0.587865
C50	C	1.409163	-0.088166	1.087865
C51	C	0.964014	-0.526391	0.526286
C52	C	1.464014	-0.026391	1.026286
C53	C	1.073738	-0.526388	0.526279
C54	C	1.573738	-0.026388	1.026279
C55	C	0.963996	-0.402852	0.403141
C56	C	1.463996	0.097148	0.903141
C57	C	1.073718	-0.402844	0.403122
C58	C	1.573718	0.097156	0.903122
C59	C	0.909123	-0.341080	0.341569
C60	C	1.409123	0.158920	0.841569
C61	C	0.963975	-0.279308	0.279984
C62	C	1.463975	0.220692	0.779984
C63	C	1.073703	-0.279299	0.279974
C64	C	1.573703	0.220701	0.779974
C65	C	1.128569	-0.341068	0.341544
C66	C	1.628569	0.158932	0.841544
C67	C	1.518431	-1.018733	0.464748
C68	C	2.018431	-0.518733	0.964748
C69	C	1.518367	-0.909500	0.464717
C70	C	2.018367	-0.409500	0.964717
C71	C	1.792368	-0.464622	0.464712
C72	C	2.292368	0.035378	0.964712
C73	C	1.909144	-0.464627	0.464719
C74	C	2.409144	0.035373	0.964719
C75	C	1.518399	-0.464528	0.716288
C76	C	2.018399	0.035472	1.216288
C77	C	1.518426	-0.464494	0.823502
C78	C	2.018426	0.035506	1.323502
C79	C	1.518440	-0.213016	0.464744
C80	C	2.018440	0.286984	0.964744
C81	C	1.518485	-0.105802	0.464765
C82	C	2.018485	0.394198	0.964765
C83	C	1.518331	-0.464620	0.214080
C84	C	2.018331	0.035380	0.714080
C85	C	1.518507	-0.464383	0.106867
C86	C	2.018507	0.035617	0.606867
C87	C	1.518448	-0.464467	0.910572
C88	C	2.018448	0.035533	1.410572
C89	C	1.518478	-0.464423	1.019804
C90	C	2.018478	0.035577	1.519804
H91	H	1.217950	-0.588155	0.587835
H92	H	1.717950	-0.088155	1.087835
H93	H	0.919375	-0.700236	0.699584
H94	H	1.419375	-0.200236	1.199584
Cl95	Cl	0.894989	-0.201654	0.202596
Cl96	Cl	1.394989	0.298346	0.702596
Cl97	Cl	1.142744	-0.727585	0.726818
Cl98	Cl	1.642744	-0.227585	1.226818
H99	H	1.118357	-0.228988	0.229836
H100	H	1.618357	0.271012	0.729836
Cl101	Cl	0.771226	-0.588169	0.587895
Cl102	Cl	1.271226	-0.088169	1.087895
H103	H	0.819782	-0.341090	0.341587
H104	H	1.319782	0.158910	0.841587
H105	H	1.217910	-0.341070	0.341539
H106	H	1.717910	0.158930	0.841539
