data_functionalizedCrystal
_audit_creation_method	'MofGen! by Chris Wilmer'
_symmetry_space_group_name_H-M	'P1'
_symmetry_Int_Tables_number	1
_symmetry_cell_setting	triclinic
loop_
_symmetry_equiv_pos_as_xyz
  x,y,z
_cell_length_a	14.971486
_cell_length_b	10.065875
_cell_length_c	14.971486
_cell_angle_alpha	81.200355
_cell_angle_beta	83.614129
_cell_angle_gamma	98.752868
loop_
_atom_site_label
_atom_site_type_symbol
_atom_site_fract_x
_atom_site_fract_y
_atom_site_fract_z
O1	O	1.199999	0.113335	0.103447
O2	O	0.939604	0.113372	0.117402
O3	O	1.076780	0.113343	-0.019774
O4	O	1.062823	0.113365	0.240623
O5	O	1.050622	-0.113640	0.006488
O6	O	0.913446	-0.113611	0.143664
O7	O	1.173842	-0.113648	0.129710
Zn8	Zn	1.039491	-0.149668	0.140857
Zn9	Zn	1.073955	0.149392	0.106255
O10	O	1.036666	-0.113619	0.266886
C11	C	0.893201	-0.000114	0.129908
C12	C	0.793905	-0.000100	0.128036
N13	N	1.015977	-0.353768	0.164472
C14	C	0.736680	-0.000096	0.208625
C15	C	0.643379	-0.000116	0.206864
C16	C	0.607305	-0.000132	0.124512
C17	C	0.664536	-0.000140	0.043918
C18	C	0.757835	-0.000130	0.045681
C19	C	0.470072	-0.000160	0.040249
C20	C	0.376767	-0.000168	0.038486
C21	C	0.355615	-0.000146	0.201432
C22	C	0.448914	-0.000135	0.203195
C23	C	0.506140	-0.000142	0.122600
C24	C	1.065768	-0.421558	0.114465
C25	C	1.047678	-0.578721	0.132647
C26	C	1.220245	-0.000158	0.117203
C27	C	1.319542	-0.000163	0.119074
C28	C	1.063077	-0.000148	-0.039968
C29	C	1.061206	-0.000146	-0.139265
N30	N	1.097476	0.353493	0.082633
C31	C	1.141794	-0.000159	-0.196489
C32	C	1.140033	-0.000145	-0.289790
C33	C	1.057681	-0.000128	-0.325864
C34	C	0.977088	-0.000112	-0.268633
C35	C	0.978851	-0.000116	-0.175335
C36	C	0.973417	-0.000106	-0.463097
C37	C	0.971653	-0.000105	-0.556401
C38	C	1.134599	-0.000135	-0.577551
C39	C	1.136362	-0.000140	-0.484253
C40	C	1.055768	-0.000125	-0.427028
C41	C	1.050369	-0.000125	0.287079
C42	C	1.052241	-0.000117	0.386375
H43	H	0.766044	-0.000082	0.275685
H44	H	1.208853	-0.000181	-0.167124
H45	H	0.635155	-0.000173	-0.023132
H46	H	0.309016	-0.000147	0.267056
H47	H	0.478284	-0.000110	0.270251
H48	H	0.910037	-0.000089	-0.298013
Cl49	Cl	0.571443	-0.000102	0.308179
Cl50	Cl	1.235918	-0.000146	-0.649491
H51	H	0.347398	-0.000182	-0.028572
Cl52	Cl	1.239892	-0.000154	-0.438904
H53	H	0.516663	-0.000167	-0.025380
H54	H	0.804427	-0.000133	-0.019943
H55	H	0.913228	-0.000105	-0.128744
H56	H	1.121785	-0.363246	0.058189
H57	H	0.991650	-0.637030	0.188920
H58	H	1.153497	-0.588198	0.026354
Cl59	Cl	0.868124	-0.000085	-0.601750
Cl60	Cl	0.929479	-0.443791	0.251350
H61	H	1.205655	-0.000158	-0.336378
H62	H	0.907789	-0.000091	-0.416506
