data_functionalizedCrystal
_audit_creation_method	'MofGen! by Chris Wilmer'
_symmetry_space_group_name_H-M	'P1'
_symmetry_Int_Tables_number	1
_symmetry_cell_setting	triclinic
loop_
_symmetry_equiv_pos_as_xyz
  x,y,z
_cell_length_a	19.288840
_cell_length_b	16.109301
_cell_length_c	18.366186
_cell_angle_alpha	89.992337
_cell_angle_beta	89.983729
_cell_angle_gamma	83.293748
loop_
_atom_site_label
_atom_site_type_symbol
_atom_site_fract_x
_atom_site_fract_y
_atom_site_fract_z
O1	O	0.921611	0.103617	-0.060674
O2	O	1.421611	0.603617	0.439326
O3	O	0.719382	0.117629	-0.060649
O4	O	1.219382	0.617629	0.439351
O5	O	0.826052	-0.010428	-0.060654
O6	O	1.326052	0.489572	0.439346
O7	O	0.814941	0.231674	-0.060668
O8	O	1.314941	0.731674	0.439332
O9	O	0.826034	-0.010434	0.060445
O10	O	1.326034	0.489566	0.560445
O11	O	0.719363	0.117623	0.060451
O12	O	1.219363	0.617623	0.560451
O13	O	0.921593	0.103610	0.060426
O14	O	1.421593	0.603610	0.560426
Zn15	Zn	0.820475	0.110616	0.079665
Zn16	Zn	1.320475	0.610616	0.579665
Zn17	Zn	0.820499	0.110624	-0.079888
Zn18	Zn	1.320499	0.610624	0.420112
O19	O	0.814923	0.231667	0.060432
O20	O	1.314923	0.731667	0.560432
C21	C	0.693495	0.117179	-0.000096
C22	C	1.193495	0.617179	0.499904
C23	C	0.616387	0.115836	-0.000086
C24	C	1.116387	0.615836	0.499914
C25	C	0.580192	0.115194	-0.066099
C26	C	1.080192	0.615194	0.433901
C27	C	0.507742	0.113923	-0.066108
C28	C	1.007742	0.613923	0.433892
C29	C	0.471492	0.113277	-0.000100
C30	C	0.971492	0.613277	0.499900
C31	C	0.507695	0.113923	0.065922
C32	C	1.007695	0.613923	0.565922
C33	C	0.580143	0.115203	0.065929
C34	C	1.080143	0.615203	0.565929
C35	C	0.362035	0.062549	0.050464
C36	C	0.862035	0.562549	0.550464
C37	C	0.289590	0.061264	0.050455
C38	C	0.789590	0.561264	0.550455
C39	C	0.248039	0.109334	-0.000119
C40	C	0.748039	0.609334	0.499881
C41	C	0.278944	0.158677	-0.050694
C42	C	0.778944	0.658677	0.449306
C43	C	0.351391	0.159957	-0.050687
C44	C	0.851391	0.659957	0.449313
C45	C	0.392934	0.111890	-0.000100
C46	C	0.892934	0.611890	0.499900
C47	C	0.133285	0.107315	-0.066146
C48	C	0.633285	0.607315	0.433854
C49	C	0.060833	0.106049	-0.066152
C50	C	0.560833	0.606049	0.433848
C51	C	0.060789	0.106041	0.065880
C52	C	0.560789	0.606041	0.565880
C53	C	0.133238	0.107315	0.065884
C54	C	0.633238	0.607315	0.565884
C55	C	0.169482	0.107948	-0.000131
C56	C	0.669482	0.607948	0.499869
C57	C	0.825593	-0.041404	-0.000104
C58	C	1.325593	0.458596	0.499896
C59	C	0.824243	-0.133694	-0.000103
C60	C	1.324243	0.366306	0.499897
C61	C	0.884402	-0.356179	-0.000122
C62	C	1.384402	0.143821	0.499878
C63	C	0.883129	-0.442895	-0.000128
C64	C	1.383129	0.057105	0.499872
C65	C	0.756568	-0.422574	-0.000109
C66	C	1.256568	0.077426	0.499891
C67	C	0.757842	-0.335860	-0.000109
C68	C	1.257842	0.164140	0.499891
C69	C	0.821761	-0.302665	-0.000111
C70	C	1.321761	0.197335	0.499889
C71	C	0.819214	-0.476095	-0.000118
C72	C	1.319214	0.023905	0.499882
C73	C	0.817833	-0.570116	-0.000124
C74	C	1.317833	-0.070116	0.499876
C75	C	0.823142	-0.208638	-0.000106
C76	C	1.323142	0.291362	0.499894
C77	C	0.947480	0.104061	-0.000129
C78	C	1.447480	0.604061	0.499871
C79	C	1.024588	0.105404	-0.000143
C80	C	1.524588	0.605404	0.499857
N81	N	0.820464	0.110610	0.188557
N82	N	1.320464	0.610610	0.688557
C83	C	0.815382	0.262644	-0.000120
C84	C	1.315382	0.762644	0.499880
C85	C	0.816731	0.354934	-0.000126
C86	C	1.316731	0.854934	0.499874
N87	N	0.820516	0.110624	-0.188779
N88	N	1.320516	0.610624	0.311221
C89	C	0.867713	0.053934	0.226654
C90	C	1.367713	0.553934	0.726654
C91	C	0.867718	0.053930	0.302882
C92	C	1.367718	0.553930	0.802882
C93	C	0.820480	0.110617	0.341009
C94	C	1.320480	0.610617	0.841009
C95	C	0.773222	0.167297	0.302902
C96	C	1.273222	0.667297	0.802902
C97	C	0.773214	0.167293	0.226676
C98	C	1.273214	0.667293	0.726676
C99	C	0.811362	0.186371	0.461766
C100	C	1.311362	0.686371	0.961766
C101	C	0.811375	0.186376	0.537991
C102	C	1.311375	0.686376	1.037991
C103	C	0.820499	0.110627	0.576117
C104	C	1.320499	0.610627	1.076117
C105	C	0.829626	0.034870	0.538008
C106	C	1.329626	0.534870	1.038008
C107	C	0.829618	0.034867	0.461782
C108	C	1.329618	0.534867	0.961782
C109	C	0.820482	0.110626	0.423664
C110	C	1.320482	0.610626	0.923664
C111	C	0.867756	0.053942	0.696870
C112	C	1.367756	0.553942	1.196870
C113	C	0.867755	0.053938	0.773099
C114	C	1.367755	0.553938	1.273099
C115	C	0.773263	0.167311	0.773117
C116	C	1.273263	0.667311	1.273117
C117	C	0.773260	0.167309	0.696890
C118	C	1.273260	0.667309	1.196890
C119	C	0.820510	0.110625	0.658770
C120	C	1.320510	0.610625	1.158770
H121	H	0.031364	0.105531	-0.119910
H122	H	0.531364	0.605531	0.380090
H123	H	0.803948	0.248061	0.569013
H124	H	1.303948	0.748061	1.069013
Cl125	Cl	0.676217	-0.464311	-0.000106
Cl126	Cl	1.176217	0.035689	0.499894
H127	H	0.706829	-0.292286	-0.000102
H128	H	1.206829	0.207714	0.499898
H129	H	0.934137	-0.486463	-0.000138
H130	H	1.434137	0.013537	0.499862
Cl131	Cl	0.799955	0.281610	0.413845
Cl132	Cl	1.299955	0.781610	0.913845
H133	H	0.478175	0.113399	0.119666
H134	H	0.978175	0.613399	0.619666
Cl135	Cl	0.015223	0.105237	0.148862
Cl136	Cl	0.515223	0.605237	0.648862
H137	H	0.936449	-0.329155	-0.000126
H138	H	1.436449	0.170845	0.499874
H139	H	0.906185	0.007777	0.195620
H140	H	1.406185	0.507777	0.695620
Cl141	Cl	0.927123	-0.017325	0.350785
Cl142	Cl	1.427123	0.482675	0.850785
H143	H	0.837048	-0.026817	0.430757
H144	H	1.337048	0.473183	0.930757
Cl145	Cl	0.462230	0.113115	-0.149102
Cl146	Cl	0.962230	0.613115	0.350898
Cl147	Cl	0.178744	0.108117	0.148877
Cl148	Cl	0.678744	0.608117	0.648877
H149	H	0.837056	-0.026812	0.569049
H150	H	1.337056	0.473188	1.069049
Cl151	Cl	0.713811	0.238550	0.178778
Cl152	Cl	1.213811	0.738550	0.678778
H153	H	0.906228	0.007784	0.665832
H154	H	1.406228	0.507784	1.165832
H155	H	0.609612	0.115726	0.119686
H156	H	1.109612	0.615726	0.619686
H157	H	0.734759	0.213450	0.333949
H158	H	1.234759	0.713450	0.833949
H159	H	0.395861	0.023403	0.091650
H160	H	0.895861	0.523403	0.591650
H161	H	0.906229	0.007781	0.804119
H162	H	1.406229	0.507781	1.304119
H163	H	0.245113	0.197823	-0.091873
H164	H	0.745113	0.697823	0.408127
H165	H	0.734798	0.213463	0.804160
H166	H	1.234798	0.713463	1.304160
H167	H	0.734788	0.213463	0.665868
H168	H	1.234788	0.713463	1.165868
H169	H	0.609697	0.115710	-0.119854
H170	H	1.109697	0.615710	0.380146
Cl171	Cl	0.250743	-0.000746	0.114049
Cl172	Cl	0.750743	0.499254	0.614049
H173	H	0.162795	0.107839	-0.119899
H174	H	0.662795	0.607839	0.380101
Cl175	Cl	0.390241	0.221989	-0.114262
Cl176	Cl	0.890241	0.721989	0.385738
