data_functionalizedCrystal
_audit_creation_method	'MofGen! by Chris Wilmer'
_symmetry_space_group_name_H-M	'P1'
_symmetry_Int_Tables_number	1
_symmetry_cell_setting	triclinic
loop_
_symmetry_equiv_pos_as_xyz
  x,y,z
_cell_length_a	8.497374
_cell_length_b	12.759399
_cell_length_c	12.759401
_cell_angle_alpha	89.984225
_cell_angle_beta	90.001753
_cell_angle_gamma	89.995664
loop_
_atom_site_label
_atom_site_type_symbol
_atom_site_fract_x
_atom_site_fract_y
_atom_site_fract_z
Zn1	Zn	0.892002	0.418406	1.606071
Zn2	Zn	0.628224	0.594052	1.606022
Zn3	Zn	0.628230	0.418393	1.430428
Zn4	Zn	0.891955	0.594048	1.430363
O5	O	0.760103	0.506225	1.518221
O6	O	0.857029	0.441713	1.753085
O7	O	0.407463	0.570747	1.582736
O8	O	0.663242	0.271373	1.453775
O9	O	0.663232	0.570760	1.753049
O10	O	0.857035	0.271383	1.582819
O11	O	0.407467	0.441691	1.453728
O12	O	0.663196	0.441686	1.283399
O13	O	1.112724	0.570752	1.453664
O14	O	0.856954	0.570740	1.283350
O15	O	1.112759	0.441709	1.582756
O16	O	0.663187	0.741073	1.582673
O17	O	0.856949	0.741070	1.453616
C18	C	0.760072	0.506212	1.245254
C19	C	0.760096	0.506232	1.128477
C20	C	0.760096	0.779192	1.518161
C21	C	0.760146	0.895969	1.518231
C22	C	0.860827	0.573532	1.073617
C23	C	0.860858	0.573536	0.963893
C24	C	0.659414	0.438937	0.963898
C25	C	0.659391	0.438928	1.073620
C26	C	1.171583	0.506226	1.518213
C27	C	1.350227	0.506237	1.518215
C28	C	0.760135	0.506238	1.792254
C29	C	0.760149	0.506244	1.909031
C30	C	0.659375	0.950797	1.585508
C31	C	0.659440	1.060521	1.585577
C32	C	0.861052	1.060578	1.451083
C33	C	0.860994	0.950856	1.451020
C34	C	0.760171	1.232191	1.518314
C35	C	0.760269	1.115415	1.518363
H36	H	0.942831	0.628332	1.118279
O37	O	0.959076	1.114015	1.385938
C38	C	1.061105	1.177387	1.445731
H39	H	1.005580	1.193772	1.525392
H40	H	1.178010	1.135061	1.457183
C41	C	1.157836	1.261528	1.290127
C42	C	1.089634	1.281660	1.387965
H43	H	1.175442	1.325847	1.254493
H44	H	1.089103	1.218831	1.249842
H45	H	1.255250	1.226254	1.299684
H46	H	0.992214	1.316921	1.378406
H47	H	1.158352	1.324365	1.428247
H48	H	0.577261	0.906111	1.640237
O49	O	0.561626	1.113634	1.651101
C50	C	0.596298	1.086692	1.755760
H51	H	0.656936	1.007017	1.757805
H52	H	0.677471	1.148387	1.791158
C53	C	0.368130	1.179408	1.816990
C54	C	0.442595	1.081546	1.819503
H55	H	0.273321	1.176238	1.856313
H56	H	0.344773	1.197563	1.746481
H57	H	0.435791	1.230810	1.846487
H58	H	0.374943	1.030148	1.789995
H59	H	0.465937	1.063382	1.890010
O60	O	0.959108	0.897704	1.385714
C61	C	1.116386	0.924430	1.408620
H62	H	1.119753	1.004063	1.449047
H63	H	1.169555	0.862618	1.462575
C64	C	1.207684	0.831745	1.256496
C65	C	1.211820	0.929556	1.306140
H66	H	1.266555	0.834903	1.193283
H67	H	1.101723	0.813736	1.241065
H68	H	1.251988	0.780246	1.301468
H69	H	1.167498	0.981051	1.261173
H70	H	1.317776	0.947574	1.321561
O71	O	0.958755	0.639012	0.910766
C72	C	1.047658	0.698389	0.982717
H73	H	0.983010	0.701952	1.060921
H74	H	1.167568	0.660045	0.994412
C75	C	1.149524	0.805858	0.843823
C76	C	1.070115	0.810242	0.939872
H77	H	1.163384	0.874853	0.817394
H78	H	1.089634	0.765853	0.795347
H79	H	1.249440	0.773900	0.853582
H80	H	0.970194	0.842187	0.930109
H81	H	1.129990	0.850255	0.988345
H82	H	0.577421	0.384142	0.919220
O83	O	0.561384	0.373516	1.126755
C84	C	0.472523	0.314102	1.054812
H85	H	0.466960	0.357133	0.976587
H86	H	0.530498	0.234372	1.043165
C87	C	0.311487	0.245926	1.193701
C88	C	0.304644	0.298781	1.097628
H89	H	0.207934	0.236470	1.220113
H90	H	0.371358	0.285951	1.242172
H91	H	0.359807	0.179490	1.183983
H92	H	0.256344	0.365220	1.107350
H93	H	0.244761	0.258767	1.049159
