data_functionalizedCrystal
_audit_creation_method	'MofGen! by Chris Wilmer'
_symmetry_space_group_name_H-M	'P1'
_symmetry_Int_Tables_number	1
_symmetry_cell_setting	triclinic
loop_
_symmetry_equiv_pos_as_xyz
  x,y,z
_cell_length_a	12.759401
_cell_length_b	29.839131
_cell_length_c	12.759393
_cell_angle_alpha	89.963184
_cell_angle_beta	89.979062
_cell_angle_gamma	90.042945
loop_
_atom_site_label
_atom_site_type_symbol
_atom_site_fract_x
_atom_site_fract_y
_atom_site_fract_z
Zn1	Zn	1.606071	-0.178813	-0.593974
Zn2	Zn	1.605880	-0.253950	-0.418275
Zn3	Zn	1.430370	-0.178837	-0.418309
Zn4	Zn	1.430280	-0.253919	-0.593912
O5	O	1.518150	-0.216380	-0.506117
O6	O	1.753067	-0.188784	-0.570679
O7	O	1.582556	-0.244010	-0.271258
O8	O	1.453795	-0.115967	-0.441652
O9	O	1.752927	-0.243986	-0.441593
O10	O	1.582882	-0.115949	-0.570712
O11	O	1.453610	-0.188824	-0.271283
O12	O	1.283337	-0.188794	-0.441592
O13	O	1.453641	-0.243933	-0.740941
O14	O	1.283271	-0.243956	-0.570606
O15	O	1.582794	-0.188753	-0.740987
O16	O	1.582469	-0.316813	-0.441533
O17	O	1.453456	-0.316790	-0.570573
C18	C	1.245183	-0.216375	-0.506097
C19	C	1.128406	-0.216383	-0.506113
C20	C	1.517961	-0.333103	-0.506065
C21	C	1.517976	-0.383037	-0.506078
C22	C	1.073538	-0.245150	-0.573185
C23	C	0.963813	-0.245151	-0.573206
C24	C	0.963837	-0.187618	-0.439073
C25	C	1.073559	-0.187615	-0.439058
C26	C	0.813900	-0.261272	-0.697062
C27	C	0.759027	-0.290045	-0.764125
C28	C	0.794577	-0.333888	-0.780061
C29	C	0.884998	-0.348966	-0.728920
C30	C	0.939865	-0.320195	-0.661849
C31	C	0.904317	-0.276346	-0.645932
C32	C	1.223475	-0.171499	-0.315200
C33	C	1.278344	-0.142730	-0.248124
C34	C	1.242796	-0.098886	-0.232176
C35	C	1.152371	-0.083810	-0.283300
C36	C	1.097502	-0.112579	-0.350376
C37	C	1.133058	-0.156422	-0.366325
C38	C	1.585450	-0.692680	-0.439024
C39	C	1.585579	-0.880353	-0.439065
O40	O	1.642798	-0.904617	-0.382014
N41	N	1.518368	-0.903822	-0.506197
C42	C	1.451125	-0.880370	-0.573327
O43	O	1.393969	-0.904638	-0.630435
C44	C	1.451001	-0.692698	-0.573291
C45	C	1.518209	-0.669231	-0.506148
C46	C	1.652653	-0.669213	-0.371888
C47	C	1.652616	-0.622297	-0.371874
C48	C	1.585375	-0.598849	-0.438997
C49	C	1.518172	-0.622316	-0.506134
C50	C	1.383764	-0.669247	-0.640427
C51	C	1.383741	-0.622326	-0.640413
C52	C	1.450949	-0.598859	-0.573270
C53	C	1.450895	-0.551952	-0.573244
N54	N	1.518106	-0.528482	-0.506113
C55	C	1.585346	-0.551931	-0.438989
C56	C	1.451193	-0.978901	-0.573340
C57	C	1.451223	-1.025819	-0.573348
C58	C	1.585679	-1.025798	-0.439087
C59	C	1.585643	-0.978879	-0.439075
C60	C	1.518404	-0.955431	-0.506209
C61	C	1.585262	-0.453405	-0.438965
C62	C	1.585216	-0.406486	-0.438955
C63	C	1.450764	-0.406510	-0.573219
C64	C	1.450806	-0.453426	-0.573226
C65	C	1.518064	-0.476872	-0.506096
O66	O	1.393715	-0.527659	-0.630274
O67	O	1.642510	-0.527655	-0.381907
C68	C	1.585487	-0.739595	-0.439038
C69	C	1.518284	-0.763062	-0.506175
C70	C	1.451043	-0.739613	-0.573298
C71	C	1.518313	-0.809980	-0.506183
C72	C	1.585553	-0.833428	-0.439060
C73	C	1.652764	-0.809959	-0.371928
C74	C	1.652727	-0.763044	-0.371915
C75	C	1.383832	-0.763083	-0.640430
C76	C	1.383874	-0.809998	-0.640437
C77	C	1.451114	-0.833447	-0.573314
C78	C	1.792184	-0.216386	-0.506139
C79	C	1.908960	-0.216388	-0.506148
C80	C	1.518229	-0.216337	-0.780151
C81	C	1.518263	-0.216318	-0.896928
C82	C	1.518370	-0.099202	-0.506193
C83	C	1.518463	-0.049267	-0.506225
C84	C	1.585518	-0.187582	-0.951815
C85	C	1.585535	-0.187562	-1.061539
C86	C	1.451040	-0.245020	-1.061479
C87	C	1.451018	-0.245037	-0.951757
C88	C	1.623205	-0.134558	-1.211531
C89	C	1.690477	-0.105825	-1.266422
C90	C	1.792997	-0.098936	-1.230832
C91	C	1.828267	-0.120786	-1.140353
C92	C	1.761001	-0.149522	-1.085468
C93	C	1.658466	-0.156403	-1.121056
C94	C	1.413359	-0.298042	-0.801763
C95	C	1.346098	-0.326781	-0.746875
C96	C	1.243576	-0.333675	-0.782463
C97	C	1.208310	-0.311832	-0.872945
C98	C	1.275571	-0.283093	-0.927833
C99	C	1.378092	-0.276199	-0.892238
C100	C	1.518133	-0.216391	-0.233150
C101	C	1.518303	-0.216282	-0.116374
H102	H	1.118191	-0.268573	-0.627787
O103	O	1.650937	-0.159746	-0.898504
C104	C	1.718719	-0.185331	-0.835008
H105	H	1.725157	-0.220709	-0.868049
H106	H	1.799600	-0.169082	-0.833785
H107	H	1.686213	-0.186891	-0.751846
O108	O	1.027691	-0.334904	-0.612277
C109	C	1.047282	-0.379778	-0.640687
H110	H	1.008110	-0.387230	-0.719053
H111	H	1.135389	-0.385291	-0.647921
H112	H	1.014191	-0.403101	-0.578060
O113	O	1.380512	-0.348022	-0.659071
C114	C	1.467186	-0.375233	-0.684369
H115	H	1.505891	-0.362136	-0.758888
H116	H	1.526130	-0.374415	-0.617274
H117	H	1.439627	-0.411152	-0.697401
O118	O	1.178377	-0.361650	-0.729138
C119	C	1.222019	-0.405032	-0.726496
H120	H	1.310457	-0.402732	-0.738067
H121	H	1.204513	-0.421262	-0.647493
H122	H	1.186378	-0.426182	-0.791791
O123	O	0.779519	-0.218651	-0.681698
C124	C	0.857810	-0.188147	-0.713403
H125	H	0.912177	-0.205079	-0.772181
H126	H	0.819616	-0.157702	-0.751525
H127	H	0.904946	-0.176992	-0.642142
O128	O	0.919407	-0.391565	-0.744546
C129	C	0.851577	-0.413730	-0.814689
H130	H	0.808348	-0.387917	-0.864368
H131	H	0.899151	-0.436697	-0.867878
H132	H	0.792384	-0.434499	-0.768543
O133	O	0.910506	-0.159741	-0.373826
C134	C	0.846944	-0.185284	-0.305883
H135	H	0.879952	-0.220662	-0.299230
H136	H	0.845680	-0.168992	-0.225102
H137	H	0.763802	-0.186852	-0.338374
H138	H	1.707511	-0.829059	-0.317271
O139	O	0.741180	-0.361775	-0.845278
C140	C	0.653737	-0.339070	-0.886972
H141	H	0.668083	-0.301384	-0.883680
H142	H	0.641406	-0.349745	-0.971851
H143	H	0.581016	-0.347722	-0.839103
O144	O	1.117689	-0.041248	-0.267705
C145	C	1.015646	-0.042461	-0.225354
H146	H	1.002255	-0.076067	-0.184950
H147	H	1.006274	-0.014241	-0.165905
H148	H	0.955895	-0.038053	-0.290959
H149	H	1.640370	-0.959775	-0.384402
H150	H	0.685407	-0.277764	-0.805765
H151	H	1.023879	-0.100299	-0.392011
H152	H	1.707345	-0.603193	-0.317203
O153	O	1.656399	-0.084578	-1.354351
C154	C	1.737751	-0.057734	-1.395153
H155	H	1.816500	-0.071091	-1.366847
H156	H	1.735195	-0.058671	-1.484433
H157	H	1.727343	-0.021734	-1.367172
H158	H	1.640032	-0.472490	-0.384304
O159	O	1.318729	-0.832840	-0.705718
C160	C	1.378537	-0.859917	-0.773657
H161	H	1.458176	-0.866925	-0.736667
H162	H	1.335760	-0.892923	-0.787726
H163	H	1.390038	-0.841799	-0.851511
H164	H	1.287475	-0.075464	-0.177548
O165	O	1.366071	-0.157441	-0.198369
C166	C	1.340636	-0.194485	-0.134572
H167	H	1.266137	-0.211038	-0.165153
H168	H	1.407700	-0.219696	-0.136343
H169	H	1.327503	-0.182679	-0.050633
H170	H	1.847770	-0.075541	-1.275533
O171	O	1.257829	-0.214119	-0.330665
C172	C	1.179557	-0.244626	-0.298926
H173	H	1.099879	-0.227392	-0.301097
H174	H	1.178947	-0.274604	-0.354267
H175	H	1.196550	-0.256551	-0.215751
H176	H	1.639945	-0.387380	-0.384275
O177	O	1.718007	-0.691917	-0.306576
C178	C	1.777325	-0.661134	-0.247348
H179	H	1.734263	-0.627712	-0.243686
H180	H	1.788581	-0.674703	-0.164575
H181	H	1.857097	-0.656097	-0.285887
H182	H	1.911753	-0.115178	-1.111389
O183	O	1.523544	-0.141200	-1.245954
C184	C	1.452181	-0.127705	-1.167726
H185	H	1.491746	-0.102546	-1.113384
H186	H	1.380975	-0.111455	-1.205991
H187	H	1.426115	-0.158201	-1.120550
H188	H	1.640429	-1.044898	-0.384433
O189	O	1.385895	-1.048542	-0.638662
C190	C	1.326529	-1.017779	-0.697883
H191	H	1.369544	-0.984315	-0.701544
H192	H	1.315286	-1.031311	-0.780656
H193	H	1.246753	-1.012835	-0.659338
H194	H	1.396437	-0.959813	-0.628010
O195	O	1.108673	-0.318561	-0.907354
C196	C	1.056877	-0.348618	-0.839522
H197	H	1.096538	-0.348118	-0.759486
H198	H	0.971427	-0.338131	-0.830759
H199	H	1.060780	-0.383910	-0.873469
H200	H	1.496839	-0.292428	-0.772773
O201	O	1.318406	-0.740378	-0.705665
C202	C	1.259118	-0.771159	-0.764930
H203	H	1.255547	-0.804618	-0.721897
H204	H	1.176318	-0.757643	-0.776051
H205	H	1.297546	-0.776104	-0.844762
O206	O	1.318448	-0.691966	-0.705753
C207	C	1.259090	-0.661199	-0.764973
H208	H	1.302107	-0.627736	-0.768622
H209	H	1.247855	-0.674727	-0.847751
H210	H	1.179310	-0.656256	-0.726435
O211	O	1.718117	-0.740321	-0.306662
C212	C	1.777446	-0.771086	-0.247410
H213	H	1.781074	-0.804514	-0.290464
H214	H	1.860225	-0.757502	-0.236272
H215	H	1.739018	-0.776120	-0.167585
H216	H	1.396083	-0.472534	-0.627903
O217	O	1.241133	-0.261894	-1.015683
C218	C	1.136229	-0.274149	-1.035346
H219	H	1.098117	-0.285977	-0.959377
H220	H	1.091594	-0.243981	-1.067131
H221	H	1.134147	-0.302397	-1.095428
H222	H	1.328988	-0.603237	-0.695086
O223	O	1.385826	-0.272904	-1.114904
C224	C	1.400249	-0.266720	-1.223519
H225	H	1.481360	-0.252008	-1.238527
H226	H	1.393065	-0.300365	-1.265194
H227	H	1.337984	-0.242790	-1.254662
O228	O	1.795402	-0.170696	-0.997575
C229	C	1.900329	-0.158467	-0.977948
H230	H	1.917733	-0.124944	-1.017190
H231	H	1.913195	-0.155363	-0.889840
H232	H	1.954905	-0.185205	-1.010941
H233	H	1.396015	-0.387411	-0.627867
