data_functionalizedCrystal
_audit_creation_method	'MofGen! by Chris Wilmer'
_symmetry_space_group_name_H-M	'P1'
_symmetry_Int_Tables_number	1
_symmetry_cell_setting	triclinic
loop_
_symmetry_equiv_pos_as_xyz
  x,y,z
_cell_length_a	29.839131
_cell_length_b	12.827893
_cell_length_c	12.827885
_cell_angle_alpha	90.021189
_cell_angle_beta	89.963179
_cell_angle_gamma	89.960371
loop_
_atom_site_label
_atom_site_type_symbol
_atom_site_fract_x
_atom_site_fract_y
_atom_site_fract_z
Zn1	Zn	-0.178853	-1.597481	-0.590851
Zn2	Zn	-0.253990	-1.597295	-0.416090
Zn3	Zn	-0.178873	-1.422722	-0.416119
Zn4	Zn	-0.253954	-1.422628	-0.590784
O5	O	-0.216418	-1.510031	-0.503461
O6	O	-0.188827	-1.743692	-0.567684
O7	O	-0.244049	-1.574100	-0.269857
O8	O	-0.116003	-1.446021	-0.439338
O9	O	-0.244030	-1.743556	-0.439288
O10	O	-0.115988	-1.574415	-0.567713
O11	O	-0.188860	-1.445841	-0.269879
O12	O	-0.188826	-1.276473	-0.439273
O13	O	-0.243969	-1.445861	-0.737029
O14	O	-0.243988	-1.276404	-0.567598
O15	O	-0.188792	-1.574324	-0.737078
O16	O	-0.316853	-1.574008	-0.439223
O17	O	-0.316826	-1.445681	-0.567570
C18	C	-0.216405	-1.238522	-0.503432
C19	C	-0.216411	-1.122368	-0.503444
C20	C	-0.189142	-1.070651	-0.567076
C21	C	-0.189148	-0.950600	-0.567090
C22	C	-0.333140	-1.509843	-0.503409
C23	C	-0.383075	-1.509858	-0.503422
C24	C	-0.692719	-1.576973	-0.436728
C25	C	-0.880392	-1.577102	-0.436769
O26	O	-0.904658	-1.634016	-0.380024
N27	N	-0.903860	-1.510248	-0.503540
C28	C	-0.880406	-1.443362	-0.570310
O29	O	-0.904673	-1.386509	-0.627111
C30	C	-0.692734	-1.443239	-0.570274
C31	C	-0.669269	-1.510090	-0.503491
C32	C	-0.669254	-1.643819	-0.369952
C33	C	-0.622338	-1.643782	-0.369938
C34	C	-0.598888	-1.576899	-0.436701
C35	C	-0.622353	-1.510053	-0.503478
C36	C	-0.669281	-1.376359	-0.637049
C37	C	-0.622360	-1.376336	-0.637036
C38	C	-0.598895	-1.443187	-0.570253
C39	C	-0.551988	-1.443133	-0.570227
N40	N	-0.528520	-1.509987	-0.503456
C41	C	-0.551970	-1.576870	-0.436693
C42	C	-0.978937	-1.443430	-0.570323
C43	C	-1.025854	-1.443459	-0.570331
C44	C	-1.025837	-1.577201	-0.436791
C45	C	-0.978918	-1.577165	-0.436778
C46	C	-0.955469	-1.510284	-0.503552
C47	C	-0.453444	-1.576787	-0.436669
C48	C	-0.406525	-1.576741	-0.436659
C49	C	-0.406546	-1.443003	-0.570202
C50	C	-0.453462	-1.443045	-0.570210
C51	C	-0.476910	-1.509945	-0.503440
O52	O	-0.527693	-1.386257	-0.626951
O53	O	-0.527695	-1.633731	-0.379917
C54	C	-0.739634	-1.577010	-0.436742
C55	C	-0.763100	-1.510164	-0.503518
C56	C	-0.739649	-1.443281	-0.570281
C57	C	-0.810017	-1.510193	-0.503526
C58	C	-0.833468	-1.577076	-0.436763
C59	C	-0.810000	-1.643930	-0.369992
C60	C	-0.763085	-1.643893	-0.369979
C61	C	-0.763117	-1.376427	-0.637052
C62	C	-0.810032	-1.376468	-0.637059
C63	C	-0.833483	-1.443351	-0.570296
C64	C	-0.099239	-1.510249	-0.503536
C65	C	-0.049305	-1.510342	-0.503568
C66	C	-0.216374	-1.510103	-0.776031
C67	C	-0.216356	-1.510133	-0.892184
C68	C	-0.216426	-0.782602	-0.503482
C69	C	-0.216421	-0.898755	-0.503470
C70	C	-0.189048	-1.573708	-0.943994
C71	C	-0.189028	-1.573740	-1.064044
C72	C	-0.216428	-1.510021	-0.231951
C73	C	-0.216320	-1.510193	-0.115798
H74	H	-0.165791	-1.115250	-0.621539
H75	H	-0.165803	-0.906124	-0.621571
H76	H	-0.239770	-0.943224	-0.448995
H77	H	-1.044956	-1.389013	-0.624702
C78	C	-0.247956	-1.062122	-0.429858
N79	N	-0.271717	-1.016745	-0.374433
C80	C	-0.953148	-1.369877	-0.643812
N81	N	-0.933726	-1.314485	-0.699173
H82	H	-0.165650	-1.628173	-1.108598
H83	H	-0.239718	-1.455722	-0.936706
H84	H	-0.387421	-1.631178	-0.382273
C85	C	-0.479230	-1.650374	-0.363213
N86	N	-0.498652	-1.705794	-0.307879
C87	C	-0.596533	-1.717316	-0.296463
N88	N	-0.577099	-1.772702	-0.241114
C89	C	-0.479274	-1.369503	-0.643670
N90	N	-0.498713	-1.314117	-0.699010
H91	H	-0.829134	-1.322021	-0.691441
C92	C	-0.695082	-1.302820	-0.710520
N93	N	-0.714515	-1.247427	-0.765864
C94	C	-0.157479	-1.647205	-0.883853
N95	N	-0.133702	-1.702566	-0.838556
H96	H	-0.688342	-1.698289	-0.315585
C97	C	-0.953111	-1.650709	-0.363316
N98	N	-0.933675	-1.706107	-0.307982
H99	H	-1.044938	-1.631660	-0.382430
H100	H	-0.239703	-1.455765	-1.071251
H101	H	-0.603270	-1.321874	-0.691414
C102	C	-0.380742	-1.369440	-0.643642
N103	N	-0.361305	-1.314037	-0.698964
C104	C	-0.737279	-1.717431	-0.296508
N105	N	-0.717845	-1.772823	-0.241165
H106	H	-0.744027	-1.321964	-0.691420
H107	H	-0.829101	-1.698386	-0.315628
