data_functionalizedCrystal
_audit_creation_method	'MofGen! by Chris Wilmer'
_symmetry_space_group_name_H-M	'P1'
_symmetry_Int_Tables_number	1
_symmetry_cell_setting	triclinic
loop_
_symmetry_equiv_pos_as_xyz
  x,y,z
_cell_length_a	19.121102
_cell_length_b	10.686285
_cell_length_c	10.686551
_cell_angle_alpha	99.084519
_cell_angle_beta	82.987320
_cell_angle_gamma	96.989635
loop_
_atom_site_label
_atom_site_type_symbol
_atom_site_fract_x
_atom_site_fract_y
_atom_site_fract_z
Zn1	Zn	1.128943	0.530658	-0.759317
Zn2	Zn	1.628943	1.030658	-0.259317
Zn3	Zn	1.128886	0.759233	-0.530810
Zn4	Zn	1.628886	1.259233	-0.030810
Zn5	Zn	1.002347	0.537985	-0.538073
Zn6	Zn	1.502347	1.037985	-0.038073
Zn7	Zn	1.019191	0.735029	-0.735210
Zn8	Zn	1.519191	1.235029	-0.235210
O9	O	1.069841	0.640726	-0.640852
O10	O	1.569841	1.140726	-0.140852
O11	O	1.227824	0.568041	-0.736054
O12	O	1.727824	1.068041	-0.236054
O13	O	1.105027	0.743080	-0.353640
O14	O	1.605027	1.243080	0.146360
O15	O	1.012115	0.358889	-0.580549
O16	O	1.512115	0.858889	-0.080549
O17	O	1.227782	0.735975	-0.568171
O18	O	1.727782	1.235975	-0.068171
O19	O	1.105124	0.353506	-0.743096
O20	O	1.605124	0.853506	-0.243096
O21	O	1.012059	0.580530	-0.358976
O22	O	1.512059	1.080530	0.141024
O23	O	0.905693	0.557060	-0.557174
O24	O	1.405693	1.057060	-0.057174
O25	O	1.040823	0.694723	-0.916542
O26	O	1.540823	1.194723	-0.416542
O27	O	0.918068	0.701828	-0.702011
O28	O	1.418068	1.201828	-0.202011
O29	O	1.121457	0.544572	-0.934252
O30	O	1.621457	1.044572	-0.434252
O31	O	1.121360	0.934146	-0.544796
O32	O	1.621360	1.434146	-0.044796
O33	O	1.040767	0.916364	-0.694968
O34	O	1.540767	1.416364	-0.194968
C35	C	1.082905	0.971440	-0.616507
C36	C	1.582905	1.471440	-0.116507
C37	C	1.088560	1.112922	-0.606140
C38	C	1.588560	1.612922	-0.106140
C39	C	0.886239	0.627614	-0.627765
C40	C	1.386239	1.127614	-0.127765
C41	C	0.807696	0.622033	-0.622195
C42	C	1.307696	1.122033	-0.122195
C43	C	1.083025	0.616130	-0.972876
C44	C	1.583025	1.116130	-0.472876
C45	C	1.088643	0.605649	-1.114365
C46	C	1.588643	1.105649	-0.614365
C47	C	0.777258	0.694916	-0.694849
C48	C	1.277258	1.194916	-0.194849
C49	C	0.703457	0.689654	-0.689622
C50	C	1.203457	1.189654	-0.189622
C51	C	0.660097	0.611516	-0.611733
C52	C	1.160097	1.111516	-0.111733
C53	C	0.690540	0.538625	-0.539076
C54	C	1.190540	1.038625	-0.039076
C55	C	0.764339	0.543880	-0.544311
C56	C	1.264339	1.043880	-0.044311
C57	C	0.436948	0.591865	-0.592168
C58	C	0.936948	1.091865	-0.092168
C59	C	0.363145	0.586618	-0.586936
C60	C	0.863145	1.086618	-0.086936
C61	C	0.376067	0.737646	-0.737484
C62	C	0.876067	1.237646	-0.237484
C63	C	0.449867	0.742900	-0.742706
C64	C	0.949867	1.242900	-0.242706
C65	C	0.480304	0.670004	-0.670055
C66	C	0.980304	1.170004	-0.170055
C67	C	0.584661	0.606139	-0.606385
C68	C	1.084661	1.106139	-0.106385
C69	C	0.555738	0.675375	-0.675410
C70	C	1.055738	1.175375	-0.175410
C71	C	1.254160	0.653891	-0.653991
C72	C	1.754160	1.153891	-0.153991
C73	C	1.332706	0.659501	-0.659590
C74	C	1.832706	1.159501	-0.159590
C75	C	1.056747	0.308721	-0.665322
C76	C	1.556747	0.808721	-0.165322
C77	C	1.051167	0.167240	-0.675749
C78	C	1.551167	0.667240	-0.175749
C79	C	1.056746	0.665138	-0.310130
C80	C	1.556746	1.165138	0.189870
C81	C	1.051251	0.675270	-0.168678
C82	C	1.551251	1.175270	0.331322
H83	H	0.812557	0.758549	-0.758270
H84	H	1.312557	1.258549	-0.258270
Cl85	Cl	0.995059	1.071931	-0.780013
Cl86	Cl	1.495059	1.571931	-0.280013
H87	H	0.461721	0.532518	-0.532999
H88	H	0.961721	1.032518	-0.032999
H89	H	0.485167	0.806532	-0.806129
H90	H	0.985167	1.306532	-0.306129
H91	H	1.124898	1.174663	-0.538598
H92	H	1.624898	1.674663	-0.038598
Cl93	Cl	0.995190	0.779687	-1.073353
Cl94	Cl	1.495190	1.279687	-0.573353
Cl95	Cl	0.665195	0.781283	-0.780964
Cl96	Cl	1.165195	1.281283	-0.280964
H97	H	1.124960	0.538025	-1.176116
H98	H	1.624960	1.038025	-0.676116
H99	H	0.789121	0.484524	-0.485155
H100	H	1.289121	0.984524	0.014845
H101	H	0.327842	0.522973	-0.523518
H102	H	0.827842	1.022973	-0.023518
Cl103	Cl	0.337799	0.829283	-0.828810
Cl104	Cl	0.837799	1.329283	-0.328810
Cl105	Cl	0.636030	0.440384	-0.441167
Cl106	Cl	1.136030	0.940384	0.058833
H107	H	0.591045	0.738989	-0.738833
H108	H	1.091045	1.238989	-0.238833
Cl109	Cl	0.530145	0.507911	-0.508471
Cl110	Cl	1.030145	1.007911	-0.008471
