data_functionalizedCrystal
_audit_creation_method	'MofGen! by Chris Wilmer'
_symmetry_space_group_name_H-M	'P1'
_symmetry_Int_Tables_number	1
_symmetry_cell_setting	triclinic
loop_
_symmetry_equiv_pos_as_xyz
  x,y,z
_cell_length_a	15.944551
_cell_length_b	16.776229
_cell_length_c	17.699083
_cell_angle_alpha	90.013676
_cell_angle_beta	96.609123
_cell_angle_gamma	89.997350
loop_
_atom_site_label
_atom_site_type_symbol
_atom_site_fract_x
_atom_site_fract_y
_atom_site_fract_z
O1	O	1.114322	-0.066218	-0.097616
O2	O	1.614322	0.433782	0.402384
O3	O	0.869747	-0.066239	-0.109651
O4	O	1.369747	0.433761	0.390349
O5	O	0.998944	-0.066208	0.006544
O6	O	1.498944	0.433792	0.506544
O7	O	0.985125	-0.066248	-0.213811
O8	O	1.485125	0.433752	0.286189
O9	O	0.998927	0.066368	0.006551
O10	O	1.498927	0.566368	0.506551
O11	O	0.869730	0.066337	-0.109644
O12	O	1.369730	0.566337	0.390356
O13	O	1.114305	0.066359	-0.097609
O14	O	1.614305	0.566359	0.402391
Zn15	Zn	0.992015	0.087397	-0.103625
Zn16	Zn	1.492015	0.587397	0.396375
Zn17	Zn	0.992037	-0.087278	-0.103634
Zn18	Zn	1.492037	0.412722	0.396366
O19	O	0.985107	0.066328	-0.213804
O20	O	1.485107	0.566328	0.286196
C21	C	0.838445	0.000047	-0.109147
C22	C	1.338445	0.500047	0.390853
C23	C	0.745203	0.000039	-0.107650
C24	C	1.245203	0.500039	0.392350
N25	N	0.992005	0.206609	-0.103618
N26	N	1.492005	0.706609	0.396382
N27	N	0.992053	-0.206489	-0.103635
N28	N	1.492053	0.293511	0.396365
C29	C	0.530505	0.000069	-0.032046
C30	C	1.030505	0.500069	0.467954
C31	C	0.469419	-0.065305	-0.067158
C32	C	0.969419	0.434695	0.432842
C33	C	0.574482	0.000049	-0.104940
C34	C	1.074482	0.500049	0.395060
C35	C	0.469425	0.065405	-0.067168
C36	C	0.969425	0.565405	0.432832
C37	C	0.409575	0.000062	-0.102317
C38	C	0.909575	0.500062	0.397683
C39	C	0.514625	-0.065378	-0.140071
C40	C	1.014625	0.434622	0.359929
C41	C	0.514637	0.065391	-0.140071
C42	C	1.014637	0.565391	0.359929
C43	C	0.453569	0.000001	-0.175235
C44	C	0.953569	0.500001	0.324765
C45	C	0.669481	0.000041	-0.106449
C46	C	1.169481	0.500041	0.393551
C47	C	0.314577	0.000065	-0.100814
C48	C	0.814577	0.500065	0.399186
C49	C	1.145606	0.000071	-0.098112
C50	C	1.645606	0.500071	0.401888
C51	C	1.238849	0.000073	-0.099610
C52	C	1.738849	0.500073	0.400390
C53	C	0.998440	0.000083	0.034746
C54	C	1.498440	0.500083	0.534746
C55	C	0.996955	0.000093	0.118766
C56	C	1.496955	0.500093	0.618766
C57	C	1.049231	0.248339	-0.052188
C58	C	1.549231	0.748339	0.447812
C59	C	1.049236	0.331792	-0.052187
C60	C	1.549236	0.831792	0.447813
C61	C	0.992018	0.373512	-0.103621
C62	C	1.492018	0.873512	0.396379
C63	C	0.934786	0.331775	-0.155053
C64	C	1.434786	0.831775	0.344947
C65	C	0.934778	0.248324	-0.155050
C66	C	1.434778	0.748324	0.344950
C67	C	0.934816	0.668322	-0.155068
C68	C	1.434816	1.168322	0.344932
C69	C	0.934830	0.751779	-0.155069
C70	C	1.434830	1.251779	0.344931
C71	C	1.049274	0.751789	-0.052206
C72	C	1.549274	1.251789	0.447794
C73	C	1.049266	0.668339	-0.052202
C74	C	1.549266	1.168339	0.447798
C75	C	0.992032	0.626610	-0.103632
C76	C	1.492032	1.126610	0.396368
C77	C	0.992026	0.536121	-0.103631
C78	C	1.492026	1.036121	0.396369
C79	C	0.992027	0.463998	-0.103626
C80	C	1.492027	0.963998	0.396374
C81	C	1.072791	0.000106	0.167258
C82	C	1.572791	0.500106	0.667258
C83	C	1.071390	0.000107	0.246203
C84	C	1.571390	0.500107	0.746203
C85	C	0.994152	0.000102	0.276656
C86	C	1.494152	0.500102	0.776656
C87	C	0.918310	0.000087	0.228158
C88	C	1.418310	0.500087	0.728158
C89	C	0.919712	0.000079	0.149214
C90	C	1.419712	0.500079	0.649214
C91	C	0.912656	0.000116	0.546531
C92	C	1.412656	0.500116	1.046531
C93	C	0.911260	0.000126	0.625481
C94	C	1.411260	0.500126	1.125481
C95	C	1.064334	0.000144	0.643520
C96	C	1.564334	0.500144	1.143520
C97	C	1.065735	0.000136	0.564576
C98	C	1.565735	0.500136	1.064576
C99	C	0.989894	0.000117	0.516085
C100	C	1.489894	0.500117	1.016085
C101	C	0.991414	0.000114	0.430484
C102	C	1.491414	0.500114	0.930484
C103	C	0.992632	0.000111	0.362256
C104	C	1.492632	0.500111	0.862256
C105	C	0.985611	0.000063	0.757995
C106	C	1.485611	0.500063	1.257995
C107	C	0.987097	0.000133	0.673975
C108	C	1.487097	0.500133	1.173975
H109	H	0.563965	-0.000001	0.028449
H110	H	1.063965	0.499999	0.528449
H111	H	1.133144	0.000120	0.285683
H112	H	1.633144	0.500120	0.785683
H113	H	1.126087	0.000156	0.683011
H114	H	1.626087	0.500156	1.183011
C115	C	1.150703	0.000142	0.531083
C116	C	1.650703	0.500142	1.031083
N117	N	1.214702	0.000143	0.505858
N118	N	1.714702	0.500143	1.005858
C119	C	1.112169	0.377692	0.004408
C120	C	1.612169	0.877692	0.504408
N121	N	1.159565	0.412263	0.047045
N122	N	1.659565	0.912263	0.547045
H123	H	0.848360	0.000123	0.650272
H124	H	1.348360	0.500123	1.150272
C125	C	0.871878	0.797669	-0.211648
C126	C	1.371878	1.297669	0.288352
N127	N	0.824464	0.832234	-0.254260
N128	N	1.324464	1.332234	0.245740
H129	H	0.534555	-0.120707	-0.170882
H130	H	1.034555	0.379293	0.329118
H131	H	0.420283	-0.000047	-0.235793
H132	H	0.920283	0.499953	0.264207
C133	C	0.541745	0.140046	-0.181680
C134	C	1.041745	0.640046	0.318320
N135	N	0.562166	0.196282	-0.213014
N136	N	1.062166	0.696282	0.286986
C137	C	0.442342	-0.139952	-0.025509
C138	C	0.942342	0.360048	0.474491
N139	N	0.421948	-0.196173	0.005865
N140	N	0.921948	0.303827	0.505865
H141	H	0.855422	0.000077	0.252959
H142	H	1.355422	0.500077	0.752959
C143	C	0.829227	0.000090	0.493201
C144	C	1.329227	0.500090	0.993201
N145	N	0.766385	0.000068	0.453030
N146	N	1.266385	0.500068	0.953030
H147	H	0.888178	0.214348	-0.196928
H148	H	1.388178	0.714348	0.303072
H149	H	1.095875	0.785774	-0.010327
H150	H	1.595875	1.285774	0.489673
H151	H	0.449396	0.120672	-0.036320
H152	H	0.949396	0.620672	0.463680
C153	C	1.112208	0.622451	0.004380
C154	C	1.612208	1.122451	0.504380
N155	N	1.159615	0.587890	0.047002
N156	N	1.659615	1.087890	0.547002
H157	H	0.888215	0.634353	-0.196945
H158	H	1.388215	1.134353	0.303055
C159	C	1.112176	0.202455	0.004394
C160	C	1.612176	0.702455	0.504394
N161	N	1.159586	0.167897	0.047016
N162	N	1.659586	0.667897	0.547016
C163	C	0.871838	0.377670	-0.211624
C164	C	1.371838	0.877670	0.288376
N165	N	0.824423	0.412237	-0.254234
N166	N	1.324423	0.912237	0.245766
C167	C	1.157760	0.000112	0.133768
C168	C	1.657760	0.500112	0.633768
N169	N	1.221761	0.000113	0.108546
N170	N	1.721761	0.500113	0.608546
C171	C	0.836286	0.000067	0.095873
C172	C	1.336286	0.500067	0.595873
N173	N	0.773447	0.000056	0.055698
N174	N	1.273447	0.500056	0.555698
