data_functionalizedCrystal
_audit_creation_method	'MofGen! by Chris Wilmer'
_symmetry_space_group_name_H-M	'P1'
_symmetry_Int_Tables_number	1
_symmetry_cell_setting	triclinic
loop_
_symmetry_equiv_pos_as_xyz
  x,y,z
_cell_length_a	12.759401
_cell_length_b	12.827892
_cell_length_c	12.759393
_cell_angle_alpha	90.029972
_cell_angle_beta	90.019676
_cell_angle_gamma	90.015818
loop_
_atom_site_label
_atom_site_type_symbol
_atom_site_fract_x
_atom_site_fract_y
_atom_site_fract_z
Zn1	Zn	1.606261	-0.415971	0.593989
Zn2	Zn	1.606150	-0.590748	0.418310
Zn3	Zn	1.430560	-0.416023	0.418328
Zn4	Zn	1.430550	-0.590672	0.593951
O5	O	1.518380	-0.503353	0.506144
O6	O	1.753268	-0.439165	0.570693
O7	O	1.582816	-0.567624	0.271291
O8	O	1.453918	-0.269780	0.441652
O9	O	1.753186	-0.567573	0.441623
O10	O	1.583005	-0.269741	0.570710
O11	O	1.453810	-0.439254	0.271304
O12	O	1.283538	-0.439180	0.441616
O13	O	1.453900	-0.567443	0.740977
O14	O	1.283530	-0.567494	0.570646
O15	O	1.582995	-0.439091	0.741005
O16	O	1.582806	-0.736974	0.441587
O17	O	1.453793	-0.736918	0.570629
C18	C	1.245413	-0.503335	0.506130
C19	C	1.128636	-0.503353	0.506148
C20	C	1.073817	-0.436611	0.573459
C21	C	0.964093	-0.436622	0.573466
C22	C	0.964017	-0.570124	0.438849
C23	C	1.073739	-0.570108	0.438837
C24	C	1.518315	-0.774863	0.506125
C25	C	1.518383	-0.891016	0.506152
C26	C	1.582231	-0.942699	0.570071
C27	C	1.582302	-1.062749	0.570100
C28	C	1.792414	-0.503372	0.506160
C29	C	1.909190	-0.503380	0.506167
C30	C	1.518459	-0.503253	0.780178
C31	C	1.518492	-0.503210	0.896955
C32	C	1.518475	-0.230783	0.506187
C33	C	1.518515	-0.114630	0.506205
C34	C	1.518362	-0.503378	0.233177
C35	C	1.518533	-0.503126	0.116401
C36	C	1.585717	-0.436367	0.951833
C37	C	1.585735	-0.436322	1.061557
C38	C	1.451301	-0.569973	1.061515
C39	C	1.451278	-0.570012	0.951793
H40	H	1.118512	-0.382252	0.628264
H41	H	1.118374	-0.624457	0.384019
Br42	Br	0.889507	-0.660717	0.347504
Br43	Br	1.673241	-0.868324	0.661265
H44	H	0.919465	-0.382273	0.628275
H45	H	1.463768	-0.935646	0.451455
H46	H	1.640444	-0.381970	0.907186
H47	H	1.636969	-1.107195	0.624820
Br48	Br	1.427407	-1.040565	0.414978
H49	H	1.640474	-0.381889	1.106233
H50	H	1.396580	-0.624362	1.106178
H51	H	1.396529	-0.624443	0.907110
