data_functionalizedCrystal
_audit_creation_method	'MofGen! by Chris Wilmer'
_symmetry_space_group_name_H-M	'P1'
_symmetry_Int_Tables_number	1
_symmetry_cell_setting	triclinic
loop_
_symmetry_equiv_pos_as_xyz
  x,y,z
_cell_length_a	15.944551
_cell_length_b	10.540539
_cell_length_c	9.016244
_cell_angle_alpha	90.000067
_cell_angle_beta	90.002849
_cell_angle_gamma	84.012115
loop_
_atom_site_label
_atom_site_type_symbol
_atom_site_fract_x
_atom_site_fract_y
_atom_site_fract_z
O1	O	-1.115504	-0.163707	-0.123178
O2	O	-0.871075	-0.183891	-0.123214
O3	O	-0.998866	0.010984	-0.123194
O4	O	-0.987713	-0.358581	-0.123199
O5	O	-0.998847	0.010979	0.123487
O6	O	-0.871056	-0.183895	0.123466
O7	O	-1.115485	-0.163711	0.123502
Cu8	Cu	-0.993269	-0.173804	0.146008
Cu9	Cu	-0.993291	-0.173798	-0.145720
O10	O	-0.987694	-0.358586	0.123482
C11	C	-0.998020	0.058273	0.000144
C12	C	-0.995518	0.199187	0.000135
C13	C	-0.839766	-0.183055	0.000121
C14	C	-0.746505	-0.180543	0.000107
C15	C	-1.146793	-0.164547	0.000163
C16	C	-1.240055	-0.167059	0.000168
C17	C	-0.530893	-0.053746	0.000138
C18	C	-0.470233	-0.112624	-0.121490
C19	C	-0.575752	-0.175998	0.000125
C20	C	-0.470237	-0.112658	0.121718
C21	C	-0.410813	-0.171600	0.000148
C22	C	-0.516321	-0.234910	-0.121603
C23	C	-0.516331	-0.234926	0.121714
C24	C	-0.455689	-0.293893	0.000057
C25	C	-0.670770	-0.178529	0.000110
C26	C	-0.315797	-0.169079	0.000152
C27	C	-0.988540	-0.405875	0.000141
C28	C	-0.991042	-0.546789	0.000139
N29	N	-0.993259	-0.173807	0.351194
C30	C	-0.899630	0.381308	-0.000432
C31	C	-0.902167	0.234725	0.000123
C32	C	-1.040431	0.261454	0.141009
C33	C	-1.037245	0.407955	0.141127
C34	C	-1.039165	0.408504	-0.139395
C35	C	-1.040025	0.261534	-0.141257
N36	N	-0.993307	-0.173785	-0.350907
C37	C	-0.924690	-0.277708	0.586216
C38	C	-0.924841	-0.278092	0.414325
C39	C	-1.081078	-0.202745	0.413545
C40	C	-1.080704	-0.203479	0.585490
C41	C	-0.974882	-0.040618	0.585737
C42	C	-0.972867	-0.041511	0.413782
H43	H	-0.563621	0.047713	-0.000011
H44	H	-0.449822	-0.060915	-0.224316
H45	H	-1.019533	0.039446	0.370814
H46	H	-1.106592	0.456648	-0.140332
H47	H	-1.104381	0.456837	0.147528
H48	H	-0.859234	-0.260746	0.627600
H49	H	-0.936685	-0.376914	0.373179
H50	H	-0.866826	0.191642	-0.100861
H51	H	-0.449834	-0.060929	0.224541
H52	H	-0.859590	-0.260849	0.372171
H53	H	-0.536624	-0.286577	-0.224542
H54	H	-0.423136	-0.395457	-0.000013
H55	H	-1.008961	0.439648	-0.246167
H56	H	-0.536762	-0.286593	0.224545
H57	H	-1.097552	-0.298758	0.370469
H58	H	-0.862762	0.409408	-0.101456
H59	H	-1.133400	-0.130772	0.627081
H60	H	-0.862897	0.411014	0.100014
H61	H	-0.936379	-0.375972	0.629410
H62	H	-1.133386	-0.129069	0.372649
H63	H	-0.866563	0.192482	0.101265
H64	H	-0.912197	-0.012793	0.629175
H65	H	-0.908263	-0.019550	0.373031
H66	H	-1.096818	-0.300597	0.625581
H67	H	-1.004036	0.435700	0.246423
H68	H	-1.024912	0.036717	0.626397
H69	H	-1.009216	0.218427	0.245833
H70	H	-1.108985	0.240033	0.146256
H71	H	-1.007162	0.220230	-0.245471
H72	H	-1.108086	0.238239	-0.149754
