data_functionalizedCrystal
_audit_creation_method	'MofGen! by Chris Wilmer'
_symmetry_space_group_name_H-M	'P1'
_symmetry_Int_Tables_number	1
_symmetry_cell_setting	triclinic
loop_
_symmetry_equiv_pos_as_xyz
  x,y,z
_cell_length_a	10.654546
_cell_length_b	15.944551
_cell_length_c	9.130313
_cell_angle_alpha	89.997799
_cell_angle_beta	89.998822
_cell_angle_gamma	83.991111
loop_
_atom_site_label
_atom_site_type_symbol
_atom_site_fract_x
_atom_site_fract_y
_atom_site_fract_z
O1	O	1.666310	0.117959	-0.121835
O2	O	1.300686	0.129202	-0.121831
O3	O	1.493482	0.001363	-0.121820
O4	O	1.473514	0.245797	-0.121846
O5	O	1.493480	0.001367	0.121779
O6	O	1.300683	0.129205	0.121768
O7	O	1.666308	0.117962	0.121764
Cu8	Cu	1.483495	0.123584	0.144008
Cu9	Cu	1.483498	0.123580	-0.144076
O10	O	1.473511	0.245801	0.121753
C11	C	1.253897	0.128379	-0.000031
C12	C	1.114486	0.125911	-0.000029
C13	C	1.049007	0.124741	-0.132822
C14	C	0.918017	0.122415	-0.132833
C15	C	0.917995	0.122426	0.132752
C16	C	1.048982	0.124757	0.132762
C17	C	1.049020	0.124731	-0.286155
C18	C	0.918029	0.122405	-0.286167
C19	C	1.492652	-0.029934	-0.000020
C20	C	1.490167	-0.123194	-0.000019
C21	C	1.364722	-0.338776	-0.000038
C22	C	1.422973	-0.399455	0.120070
C23	C	1.485671	-0.293946	-0.000031
C24	C	1.423004	-0.399442	-0.120099
C25	C	1.481319	-0.458884	-0.000048
C26	C	1.543955	-0.353397	0.120177
C27	C	1.543969	-0.353377	-0.120100
C28	C	1.602308	-0.414038	0.000037
C29	C	1.488174	-0.198929	-0.000019
C30	C	1.478825	-0.553899	-0.000048
C31	C	1.713097	0.118785	-0.000039
C32	C	1.852508	0.121253	-0.000051
C33	C	1.474342	0.277098	-0.000050
C34	C	1.476827	0.370358	-0.000061
N35	N	1.483503	0.123586	0.346631
N36	N	1.483501	0.123571	-0.346698
C37	C	1.568895	0.066999	0.423288
C38	C	1.568891	0.066989	0.576625
C39	C	1.398100	0.180161	0.576634
C40	C	1.398098	0.180167	0.423300
C41	C	1.667504	0.001662	0.423284
C42	C	1.667500	0.001652	0.576620
H43	H	0.893982	0.063093	-0.345032
Cl44	Cl	1.209725	-0.288247	0.000139
Cl45	Cl	1.130081	0.032376	-0.359583
H46	H	1.328555	0.226237	0.360887
H47	H	1.371833	-0.419816	-0.221649
Cl48	Cl	1.290740	0.251287	0.673027
Cl49	Cl	1.807865	0.033256	0.349840
H50	H	1.646896	-0.062899	0.381671
Cl51	Cl	1.621599	-0.092536	0.650053
H52	H	1.763826	0.016043	0.618234
H53	H	1.595083	-0.332953	-0.221649
H54	H	1.702789	-0.446616	0.000104
H55	H	0.865544	0.182223	-0.333766
Cl56	Cl	1.343994	-0.430956	0.276846
H57	H	1.595068	-0.333109	0.221830
H58	H	0.864646	0.121488	0.240865
Cl59	Cl	1.086165	0.216294	-0.377059
Cl60	Cl	1.131290	0.126247	0.299707
