data_functionalizedCrystal
_audit_creation_method	'MofGen! by Chris Wilmer'
_symmetry_space_group_name_H-M	'P1'
_symmetry_Int_Tables_number	1
_symmetry_cell_setting	triclinic
loop_
_symmetry_equiv_pos_as_xyz
  x,y,z
_cell_length_a	14.044220
_cell_length_b	17.666332
_cell_length_c	14.044220
_cell_angle_alpha	89.994273
_cell_angle_beta	86.811122
_cell_angle_gamma	90.004271
loop_
_atom_site_label
_atom_site_type_symbol
_atom_site_fract_x
_atom_site_fract_y
_atom_site_fract_z
O1	O	1.277175	0.062871	-0.230168
O2	O	1.000503	0.062890	-0.221862
O3	O	1.134686	0.062873	-0.087679
O4	O	1.142992	0.062888	-0.364351
O5	O	1.134660	-0.063024	-0.087673
O6	O	1.000477	-0.063007	-0.221856
O7	O	1.277148	-0.063026	-0.230161
Cu8	Cu	1.138810	-0.074512	-0.226008
Cu9	Cu	1.138841	0.074376	-0.226016
O10	O	1.142965	-0.063009	-0.364344
C11	C	0.964868	-0.000056	-0.218223
C12	C	0.858725	-0.000049	-0.207379
C13	C	0.664388	-0.000065	-0.187553
C14	C	0.613258	-0.000064	-0.264467
C15	C	0.505122	-0.000073	-0.253435
C16	C	0.772534	-0.000056	-0.198583
N17	N	1.138795	-0.179231	-0.226003
C18	C	1.201587	-0.218836	-0.288840
C19	C	1.201602	-0.298083	-0.288838
C20	C	1.138809	-0.337723	-0.226009
C21	C	1.076012	-0.298109	-0.163160
C22	C	1.076006	-0.218863	-0.163157
N23	N	1.054967	-0.462157	-0.216332
N24	N	1.054977	-0.537438	-0.216340
C25	C	1.138826	-0.576487	-0.226014
N26	N	1.222669	-0.537413	-0.235697
N27	N	1.222659	-0.462125	-0.235694
C28	C	1.138809	-0.423652	-0.226005
C29	C	1.201639	-0.702021	-0.288853
C30	C	1.201656	-0.781270	-0.288845
C31	C	1.076058	-0.781295	-0.163172
C32	C	1.076050	-0.702047	-0.163175
C33	C	1.138839	-0.662415	-0.226021
C34	C	1.312783	-0.000078	-0.233800
C35	C	1.418926	-0.000080	-0.244645
C36	C	1.131037	-0.000075	-0.052054
C37	C	1.120193	-0.000075	0.054088
N38	N	1.138863	0.179095	-0.226014
C39	C	1.146614	-0.000059	-0.399969
C40	C	1.157459	-0.000054	-0.506112
C41	C	1.100366	-0.000063	0.248426
C42	C	1.177281	-0.000066	0.299556
C43	C	1.166249	-0.000059	0.407692
C44	C	1.111397	-0.000070	0.140280
H45	H	0.650697	-0.000057	-0.338600
H46	H	0.626951	-0.000073	-0.113425
H47	H	1.252719	-0.186572	-0.340010
O48	O	1.002174	-0.000059	0.298014
H49	H	0.947525	-0.000055	0.243881
O50	O	1.269321	-0.340815	-0.356622
H51	H	1.312976	-0.299942	-0.400326
O52	O	1.008279	-0.340857	-0.095396
H53	H	1.018824	-0.402616	-0.105962
H54	H	1.024871	-0.186618	-0.111986
H55	H	1.252767	-0.669751	-0.340025
H56	H	1.251414	-0.000020	0.262117
O57	O	1.269384	-0.823993	-0.356622
H58	H	1.313035	-0.783117	-0.400325
H59	H	1.024931	-0.813569	-0.112014
H60	H	1.024914	-0.669801	-0.112010
