data_functionalizedCrystal
_audit_creation_method	'MofGen! by Chris Wilmer'
_symmetry_space_group_name_H-M	'P1'
_symmetry_Int_Tables_number	1
_symmetry_cell_setting	triclinic
loop_
_symmetry_equiv_pos_as_xyz
  x,y,z
_cell_length_a	17.699083
_cell_length_b	17.038272
_cell_length_c	16.176319
_cell_angle_alpha	89.993159
_cell_angle_beta	89.998611
_cell_angle_gamma	87.197286
loop_
_atom_site_label
_atom_site_type_symbol
_atom_site_fract_x
_atom_site_fract_y
_atom_site_fract_z
O1	O	1.010620	0.098861	-0.068631
O2	O	1.510620	0.598861	0.431369
O3	O	0.791093	0.111723	-0.068658
O4	O	1.291093	0.611723	0.431342
O5	O	0.899552	-0.008521	-0.068638
O6	O	1.399552	0.491479	0.431362
O7	O	0.902161	0.219105	-0.068651
O8	O	1.402161	0.719105	0.431349
O9	O	0.899535	-0.008529	0.068855
O10	O	1.399535	0.491471	0.568855
O11	O	0.791077	0.111715	0.068835
O12	O	1.291077	0.611715	0.568835
O13	O	1.010604	0.098853	0.068862
O14	O	1.510604	0.598853	0.568862
Cu15	Cu	0.900839	0.105284	0.081403
Cu16	Cu	1.400839	0.605284	0.581403
Cu17	Cu	0.900858	0.105293	-0.081199
Cu18	Cu	1.400858	0.605293	0.418801
O19	O	0.902145	0.219098	0.068842
O20	O	1.402145	0.719098	0.568842
C21	C	0.762857	0.111258	0.000085
C22	C	1.262857	0.611258	0.500085
C23	C	0.678748	0.109876	0.000075
C24	C	1.178748	0.609876	0.500075
C25	C	0.634797	0.180457	0.000071
C26	C	1.134797	0.680457	0.500071
C27	C	0.555767	0.179153	0.000082
C28	C	1.055767	0.679153	0.500082
C29	C	0.520690	0.107267	0.000091
C30	C	1.020690	0.607267	0.500091
C31	C	0.564647	0.036681	0.000097
C32	C	1.064647	0.536681	0.500097
C33	C	0.643675	0.037986	0.000092
C34	C	1.143675	0.537986	0.500092
C35	C	0.245935	0.031418	0.000118
C36	C	0.745935	0.531418	0.500118
C37	C	0.166901	0.030119	0.000120
C38	C	0.666901	0.530119	0.500120
C39	C	0.158028	0.172585	0.000108
C40	C	0.658028	0.672585	0.500108
C41	C	0.237056	0.173890	0.000103
C42	C	0.737056	0.673890	0.500103
C43	C	0.281006	0.103304	0.000113
C44	C	0.781006	0.603304	0.500113
C45	C	0.366699	0.104719	0.000103
C46	C	0.866699	0.604719	0.500103
C47	C	0.434999	0.105852	0.000095
C48	C	0.934999	0.605852	0.500095
C49	C	0.897170	-0.037649	0.000108
C50	C	1.397170	0.462351	0.500108
C51	C	0.890090	-0.124431	0.000107
C52	C	1.390090	0.375569	0.500107
C53	C	0.955100	-0.174651	0.000116
C54	C	1.455100	0.325349	0.500116
C55	C	0.948442	-0.256191	0.000107
C56	C	1.448442	0.243809	0.500107
C57	C	0.876773	-0.287509	0.000096
C58	C	1.376773	0.212491	0.500096
C59	C	0.811758	-0.237282	0.000084
C60	C	1.311758	0.262718	0.500084
C61	C	0.818417	-0.155744	0.000087
C62	C	1.318417	0.344256	0.500087
C63	C	0.853251	-0.533228	0.000081
C64	C	1.353251	-0.033228	0.500081
C65	C	0.846597	-0.614773	0.000081
C66	C	1.346597	-0.114773	0.500081
C67	C	0.983282	-0.633676	0.000103
C68	C	1.483282	-0.133676	0.500103
C69	C	0.989934	-0.552135	0.000110
C70	C	1.489934	-0.052135	0.500110
C71	C	0.924919	-0.501916	0.000095
C72	C	1.424919	-0.001916	0.500095
C73	C	0.869967	-0.370855	0.000089
C74	C	1.369967	0.129145	0.500089
C75	C	0.931726	-0.418571	0.000095
C76	C	1.431726	0.081429	0.500095
C77	C	1.038840	0.099318	0.000117
C78	C	1.538840	0.599318	0.500117
C79	C	1.122949	0.100701	0.000122
C80	C	1.622949	0.600701	0.500122
C81	C	0.904526	0.248226	0.000094
C82	C	1.404526	0.748226	0.500094
C83	C	0.911607	0.335007	0.000090
C84	C	1.411607	0.835007	0.500090
N85	N	0.900830	0.105277	0.195768
N86	N	1.400830	0.605277	0.695768
N87	N	0.900872	0.105293	-0.195564
N88	N	1.400872	0.605293	0.304436
C89	C	0.948873	0.052054	0.239041
C90	C	1.448873	0.552054	0.739041
C91	C	0.948877	0.052054	0.325588
C92	C	1.448877	0.552054	0.825588
C93	C	0.900841	0.105280	0.368861
C94	C	1.400841	0.605280	0.868861
C95	C	0.852793	0.158505	0.325582
C96	C	1.352793	0.658505	0.825582
C97	C	0.852786	0.158501	0.239036
C98	C	1.352786	0.658501	0.739036
C99	C	0.852820	0.158519	0.674610
C100	C	1.352820	0.658519	1.174610
C101	C	0.852833	0.158520	0.761162
C102	C	1.352833	0.658520	1.261162
C103	C	0.948911	0.052072	0.761162
C104	C	1.448911	0.552072	1.261162
C105	C	0.948904	0.052068	0.674617
C106	C	1.448904	0.552068	1.174617
C107	C	0.900853	0.105290	0.631345
C108	C	1.400853	0.605290	1.131345
C109	C	0.900849	0.105289	0.537501
C110	C	1.400849	0.605289	1.037501
C111	C	0.900849	0.105285	0.462703
C112	C	1.400849	0.605285	0.962703
H113	H	0.122235	0.230060	0.000104
H114	H	0.622235	0.730060	0.500104
O115	O	0.686258	-0.030649	0.000054
O116	O	1.186258	0.469351	0.500054
C117	C	0.638354	-0.094377	0.000082
C118	C	1.138354	0.405623	0.500082
H119	H	0.580718	-0.074423	-0.025947
H120	H	1.080718	0.425577	0.474053
H121	H	0.664292	-0.143819	-0.039834
H122	H	1.164292	0.356181	0.460166
H123	H	0.631316	-0.116423	0.066046
H124	H	1.131316	0.383577	0.566046
H125	H	0.988034	0.008733	0.796403
H126	H	1.488034	0.508733	1.296403
O127	O	1.024778	-0.144362	0.000089
O128	O	1.524778	0.355638	0.500089
C129	C	1.080729	-0.206177	0.000112
C130	C	1.580729	0.293823	0.500112
H131	H	1.055948	-0.261525	-0.025920
H132	H	1.555948	0.238475	0.474080
H133	H	1.130453	-0.189227	-0.039802
H134	H	1.630453	0.310773	0.460198
H135	H	1.101029	-0.217764	0.066076
H136	H	1.601029	0.282236	0.566076
H137	H	0.800310	-0.492349	0.000069
H138	H	1.300310	0.007651	0.500069
O139	O	1.011573	-0.305003	-0.000031
O140	O	1.511573	0.194997	0.499969
C141	C	1.011817	-0.352733	-0.071234
C142	C	1.511817	0.147267	0.428766
H143	H	0.975047	-0.322790	-0.121008
H144	H	1.475047	0.177210	0.378992
H145	H	1.072189	-0.362009	-0.095128
H146	H	1.572189	0.137991	0.404872
H147	H	0.988414	-0.411996	-0.055144
H148	H	1.488414	0.088004	0.444856
H149	H	0.813714	0.201865	0.796393
H150	H	1.313714	0.701865	1.296393
H151	H	0.811613	-0.396363	0.000082
H152	H	1.311613	0.103637	0.500082
O153	O	0.806261	0.210261	0.632497
O154	O	1.306261	0.710261	1.132497
C155	C	0.849891	0.258450	0.582441
C156	C	1.349891	0.758450	1.082441
H157	H	0.907099	0.227230	0.569464
H158	H	1.407099	0.727230	1.069464
H159	H	0.819092	0.270870	0.521589
H160	H	1.319092	0.770870	1.021589
H161	H	0.858764	0.316216	0.615794
H162	H	1.358764	0.816216	1.115794
O163	O	0.806226	0.210236	0.196907
O164	O	1.306226	0.710236	0.696907
C165	C	0.849851	0.258424	0.146845
C166	C	1.349851	0.758424	0.646845
H167	H	0.907064	0.227212	0.133878
H168	H	1.407064	0.727212	0.633878
H169	H	0.819054	0.270828	0.085988
H170	H	1.319054	0.770828	0.585988
H171	H	0.858711	0.316199	0.180187
H172	H	1.358711	0.816199	0.680187
H173	H	0.138344	-0.028422	0.000128
H174	H	0.638344	0.471578	0.500128
O175	O	0.776916	-0.645066	0.000024
O176	O	1.276916	-0.145066	0.500024
C177	C	0.720959	-0.583257	0.000028
C178	C	1.220959	-0.083257	0.500028
H179	H	0.745742	-0.527901	-0.025995
H180	H	1.245742	-0.027901	0.474005
H181	H	0.671250	-0.600205	-0.039905
H182	H	1.171250	-0.100205	0.460095
H183	H	0.700635	-0.571687	0.065984
H184	H	1.200635	-0.071687	0.565984
O185	O	1.059611	-0.521845	0.000088
O186	O	1.559611	-0.021845	0.500088
C187	C	1.115565	-0.583657	0.000118
C188	C	1.615565	-0.083657	0.500118
H189	H	1.090792	-0.639005	-0.025924
H190	H	1.590792	-0.139005	0.474076
H191	H	1.165295	-0.566701	-0.039785
H192	H	1.665295	-0.066701	0.460215
H193	H	1.135855	-0.595247	0.066085
H194	H	1.635855	-0.095247	0.566085
O195	O	0.288734	-0.037074	0.000151
O196	O	0.788734	0.462926	0.500151
C197	C	0.366009	-0.020516	0.000125
C198	C	0.866009	0.479484	0.500125
H199	H	0.372994	0.040878	0.026157
H200	H	0.872994	0.540878	0.526157
H201	H	0.398878	-0.065523	0.040038
H202	H	0.898878	0.434477	0.540038
H203	H	0.388642	-0.023514	-0.065840
H204	H	0.888642	0.476486	0.434160
H205	H	1.036213	-0.674572	0.000114
H206	H	1.536213	-0.174572	0.500114
O207	O	0.995559	0.000275	0.197138
O208	O	1.495559	0.500275	0.697138
C209	C	1.037976	-0.046688	0.253895
C210	C	1.537976	0.453312	0.753895
H211	H	1.006896	-0.047527	0.315592
H212	H	1.506896	0.452473	0.815592
H213	H	1.045502	-0.109138	0.228901
H214	H	1.545502	0.390862	0.728901
H215	H	1.095827	-0.021377	0.263089
H216	H	1.595827	0.478623	0.763089
H217	H	0.265612	0.232426	0.000092
H218	H	0.765612	0.732426	0.500092
H219	H	0.536080	-0.021849	0.000116
H220	H	1.036080	0.478151	0.500116
O221	O	0.742180	-0.267796	-0.000038
O222	O	1.242180	0.232204	0.499962
C223	C	0.734242	-0.314372	-0.071257
C224	C	1.234242	0.185628	0.428743
H225	H	0.792584	-0.334792	-0.094990
H226	H	1.292584	0.165208	0.405010
H227	H	0.700635	-0.367711	-0.055246
H228	H	1.200635	0.132289	0.444754
H229	H	0.703088	-0.278279	-0.121125
H230	H	1.203088	0.221721	0.378875
O231	O	0.755288	-0.106925	-0.000066
O232	O	1.255288	0.393075	0.499934
C233	C	0.755072	-0.059174	-0.071265
C234	C	1.255072	0.440826	0.428735
H235	H	0.791854	-0.089107	-0.121030
H236	H	1.291854	0.410893	0.378970
H237	H	0.694707	-0.049884	-0.095177
H238	H	1.194707	0.450116	0.404823
H239	H	0.778477	0.000080	-0.055162
H240	H	1.278477	0.500080	0.444838
H241	H	0.987996	0.008715	0.360821
H242	H	1.487996	0.508715	0.860821
O243	O	1.001384	-0.388246	0.000215
O244	O	1.501384	0.111754	0.500215
C245	C	1.041316	-0.413908	0.071442
C246	C	1.541316	0.086092	0.571442
H247	H	1.017051	-0.470427	0.095179
H248	H	1.517051	0.029573	0.595179
H249	H	1.103612	-0.425339	0.055438
H250	H	1.603612	0.074661	0.555438
H251	H	1.035576	-0.366712	0.121303
H252	H	1.535576	0.133288	0.621303
O253	O	0.995588	0.000289	0.632711
O254	O	1.495588	0.500289	1.132711
C255	C	1.038007	-0.046677	0.689464
C256	C	1.538007	0.453323	1.189464
H257	H	1.006930	-0.047517	0.751162
H258	H	1.506930	0.452483	1.251162
H259	H	1.045531	-0.109125	0.664468
H260	H	1.545531	0.390875	1.164468
H261	H	1.095859	-0.021367	0.698655
H262	H	1.595859	0.478633	1.198655
O263	O	0.806020	0.210128	0.367579
O264	O	1.306020	0.710128	0.867579
C265	C	0.730290	0.197524	0.346429
C266	C	1.230290	0.697524	0.846429
H267	H	0.725894	0.134933	0.322648
H268	H	1.225894	0.634933	0.822648
H269	H	0.692895	0.206564	0.403350
H270	H	1.192895	0.706564	0.903350
H271	H	0.710842	0.240883	0.296190
H272	H	1.210842	0.740883	0.796190
O273	O	0.668902	0.250268	-0.000086
O274	O	1.168902	0.750268	0.499914
C275	C	0.714360	0.255283	-0.071289
C276	C	1.214360	0.755283	0.428711
H277	H	0.693063	0.214467	-0.121055
H278	H	1.193063	0.714467	0.378945
H279	H	0.711326	0.318302	-0.095196
H280	H	1.211326	0.818302	0.404804
H281	H	0.775448	0.237136	-0.055193
H282	H	1.275448	0.737136	0.444807
O283	O	0.513187	0.247787	0.000041
O284	O	1.013187	0.747787	0.500041
C285	C	0.561093	0.311514	0.000048
C286	C	1.061093	0.811514	0.500048
H287	H	0.618726	0.291560	-0.025987
H288	H	1.118726	0.791560	0.474013
H289	H	0.535152	0.360960	-0.039872
H290	H	1.035152	0.860960	0.460128
H291	H	0.568139	0.333555	0.066007
H292	H	1.068139	0.833555	0.566007
