data_functionalizedCrystal
_audit_creation_method	'MofGen! by Chris Wilmer'
_symmetry_space_group_name_H-M	'P1'
_symmetry_Int_Tables_number	1
_symmetry_cell_setting	triclinic
loop_
_symmetry_equiv_pos_as_xyz
  x,y,z
_cell_length_a	10.654541
_cell_length_b	16.992694
_cell_length_c	16.053802
_cell_angle_alpha	92.750953
_cell_angle_beta	92.590712
_cell_angle_gamma	92.423924
loop_
_atom_site_label
_atom_site_type_symbol
_atom_site_fract_x
_atom_site_fract_y
_atom_site_fract_z
O1	O	0.261481	-1.045115	-0.069324
O2	O	0.258557	-0.816815	-0.069348
O3	O	0.077733	-0.936214	-0.069330
O4	O	0.442304	-0.925715	-0.069342
O5	O	0.087643	-0.929642	0.069527
O6	O	0.268466	-0.810242	0.069510
O7	O	0.271391	-1.038542	0.069534
Zn8	Zn	0.271501	-0.923349	0.091569
Zn9	Zn	0.258446	-0.932008	-0.091383
O10	O	0.452214	-0.919143	0.069516
C11	C	0.259751	-0.784296	0.000077
C12	C	0.248531	-0.697191	0.000068
C13	C	0.035823	-0.932158	0.000098
C14	C	-0.103819	-0.929852	0.000096
C15	C	0.270196	-1.071061	0.000106
C16	C	0.281416	-1.158166	0.000110
C17	C	-0.119450	-1.072627	0.000122
C18	C	-0.192868	-1.142928	0.000137
C19	C	-0.324074	-1.140757	0.000134
C20	C	-0.381864	-1.068278	0.000114
C21	C	-0.308446	-0.997977	0.000100
C22	C	-0.177238	-1.000155	0.000105
C23	C	-0.292816	-0.855204	0.000068
C24	C	-0.161610	-0.857373	0.000076
C25	C	-0.350606	-0.782725	0.000048
C26	C	-0.277188	-0.712422	0.000039
C27	C	-0.145974	-0.714596	0.000043
C28	C	-0.088192	-0.787072	0.000062
C29	C	0.494124	-0.923199	0.000086
C30	C	0.633766	-0.925505	0.000082
N31	N	0.280412	-0.917445	0.216428
C32	C	0.356781	-0.647539	0.000065
C33	C	0.346233	-0.565694	0.000077
C34	C	0.227433	-0.533504	0.000086
C35	C	0.119174	-0.583162	0.000091
C36	C	0.129724	-0.665005	0.000085
C37	C	0.183707	-0.289668	0.000110
C38	C	0.173165	-0.207819	0.000113
C39	C	0.400226	-0.190356	0.000101
C40	C	0.410765	-0.272201	0.000090
C41	C	0.302506	-0.321852	0.000099
N42	N	0.216647	-0.449846	0.000095
N43	N	0.313293	-0.405508	0.000096
N44	N	0.249526	-0.937918	-0.216242
C45	C	0.203502	-0.968268	0.260130
C46	C	0.209748	-0.964146	0.347536
C47	C	0.292910	-0.909203	0.391239
C48	C	0.369822	-0.858374	0.347531
C49	C	0.363569	-0.862493	0.260126
C50	C	0.320186	-0.891209	0.652646
C51	C	0.326436	-0.887095	0.740056
C52	C	0.166359	-0.992866	0.740055
C53	C	0.160119	-0.996984	0.652649
C54	C	0.237026	-0.946152	0.608949
N55	N	0.299298	-0.904989	0.480582
N56	N	0.230631	-0.950363	0.519607
H57	H	-0.012615	-1.074401	0.000136
H58	H	0.095555	-0.330084	0.000118
H59	H	0.394161	-0.842351	0.775635
Cl60	Cl	0.098956	-1.037347	0.205198
Cl61	Cl	0.460256	-0.798594	0.205188
H62	H	-0.145800	-1.201939	0.000160
Cl63	Cl	-0.053688	-0.626212	0.000018
Cl64	Cl	0.023806	-0.167352	0.000143
Cl65	Cl	-0.006369	-0.727426	0.000092
Cl66	Cl	0.113059	-1.028039	0.402476
Cl67	Cl	-0.416375	-1.229136	0.000145
H68	H	0.382810	-0.849821	0.617072
H69	H	0.022444	-0.556946	0.000110
H70	H	-0.488700	-1.066517	0.000101
H71	H	0.434383	-0.525270	0.000074
H72	H	0.092402	-1.041723	0.617067
Cl73	Cl	0.069675	-1.056762	0.794996
H74	H	-0.457442	-0.780962	0.000040
Cl75	Cl	-0.349845	-0.621316	0.000004
Cl76	Cl	0.560120	-0.312663	0.000073
Cl77	Cl	0.076753	-0.789811	0.000072
H78	H	0.437530	-0.813634	0.383119
Cl79	Cl	0.506138	-0.687998	0.000049
Cl80	Cl	0.536313	-0.127933	0.000092
