data_functionalizedCrystal
_audit_creation_method	'MofGen! by Chris Wilmer'
_symmetry_space_group_name_H-M	'P1'
_symmetry_Int_Tables_number	1
_symmetry_cell_setting	triclinic
loop_
_symmetry_equiv_pos_as_xyz
  x,y,z
_cell_length_a	12.759401
_cell_length_b	16.959453
_cell_length_c	12.759393
_cell_angle_alpha	89.964753
_cell_angle_beta	89.982620
_cell_angle_gamma	90.020149
loop_
_atom_site_label
_atom_site_type_symbol
_atom_site_fract_x
_atom_site_fract_y
_atom_site_fract_z
Zn1	Zn	1.606205	-0.314630	-0.593956
Zn2	Zn	1.606087	-0.446832	-0.418265
Zn3	Zn	1.430511	-0.314672	-0.418295
Zn4	Zn	1.430480	-0.446771	-0.593907
O5	O	1.518321	-0.380726	-0.506106
O6	O	1.753210	-0.332175	-0.570658
O7	O	1.582760	-0.429344	-0.271248
O8	O	1.453879	-0.204055	-0.441630
O9	O	1.753123	-0.429303	-0.441579
O10	O	1.582961	-0.204025	-0.570687
O11	O	1.453765	-0.332246	-0.271270
O12	O	1.283485	-0.332187	-0.441583
O13	O	1.453827	-0.429199	-0.740935
O14	O	1.283463	-0.429239	-0.570604
O15	O	1.582931	-0.332116	-0.740971
O16	O	1.582730	-0.557435	-0.441532
O17	O	1.453712	-0.557390	-0.570575
C18	C	1.245353	-0.380712	-0.506092
C19	C	1.128577	-0.380724	-0.506110
C20	C	1.073730	-0.431341	-0.573181
C21	C	0.964006	-0.431351	-0.573192
C22	C	0.963984	-0.330126	-0.439054
C23	C	1.073707	-0.330113	-0.439049
C24	C	1.128600	-0.481952	-0.640242
C25	C	1.073754	-0.532573	-0.707317
C26	C	0.964030	-0.532583	-0.707328
C27	C	0.909152	-0.481972	-0.640265
C28	C	1.518233	-0.586092	-0.506067
C29	C	1.518292	-0.673949	-0.506086
C30	C	1.585620	-1.045350	-0.573433
C31	C	1.451315	-1.045499	-0.438935
C32	C	1.451276	-0.962953	-0.438911
C33	C	1.518409	-0.921602	-0.506150
C34	C	1.585580	-0.962796	-0.573413
C35	C	1.384098	-0.921752	-0.371657
C36	C	1.384055	-0.839201	-0.371631
C37	C	1.451194	-0.797849	-0.438865
C38	C	1.518370	-0.839048	-0.506130
C39	C	1.585502	-0.797697	-0.573369
C40	C	1.652684	-0.838895	-0.640629
C41	C	1.652719	-0.921444	-0.640647
C42	C	1.451159	-0.715300	-0.438847
C43	C	1.585463	-0.715144	-0.573349
C44	C	1.792354	-0.380741	-0.506121
C45	C	1.909130	-0.380748	-0.506127
C46	C	1.518389	-0.380646	-0.780139
C47	C	1.518418	-0.380611	-0.896916
C48	C	1.518437	-0.174558	-0.506168
C49	C	1.518487	-0.086701	-0.506194
C50	C	1.451279	-0.330043	-0.951796
C51	C	1.451310	-0.330020	-1.061520
C52	C	1.585630	-0.431135	-1.061475
C53	C	1.585592	-0.431161	-0.951753
C54	C	1.384105	-0.279493	-0.896959
C55	C	1.316961	-0.228920	-0.951838
C56	C	1.316992	-0.228897	-1.061562
C57	C	1.384168	-0.279446	-1.116407
C58	C	1.518313	-0.380749	-0.233139
C59	C	1.518488	-0.380561	-0.116362
H60	H	1.640135	-0.681480	-0.628100
H61	H	1.329439	-0.955427	-0.316917
C62	C	1.659521	-0.486732	-1.121804
C63	C	1.650884	-0.576593	-1.106691
C64	C	1.724776	-0.632190	-1.167021
C65	C	1.807306	-0.597927	-1.242463
C66	C	1.815946	-0.508061	-1.257579
C67	C	1.742053	-0.452464	-1.197250
H68	H	1.589788	-0.601961	-1.050841
H69	H	1.718380	-0.698715	-1.155830
H70	H	1.862005	-0.639084	-1.287122
H71	H	1.877042	-0.482693	-1.313429
H72	H	1.748450	-0.385939	-1.208441
C73	C	1.310169	-0.793889	-0.297635
C74	C	1.355724	-0.737171	-0.215174
C75	C	1.281842	-0.691859	-0.141173
C76	C	1.162405	-0.703265	-0.149634
C77	C	1.116844	-0.759985	-0.232099
C78	C	1.190726	-0.805298	-0.306100
H79	H	1.444144	-0.728726	-0.208907
H80	H	1.315570	-0.649871	-0.080127
H81	H	1.107714	-0.669722	-0.094854
H82	H	1.028425	-0.768431	-0.238365
H83	H	1.156998	-0.847286	-0.367146
H84	H	0.919294	-0.288922	-0.384454
H85	H	1.217943	-0.481951	-0.640239
C86	C	1.134113	-0.588240	-0.781087
C87	C	1.254803	-0.588233	-0.781079
C88	C	1.315160	-0.643900	-0.854853
C89	C	1.254827	-0.699574	-0.928635
C90	C	1.134130	-0.699582	-0.928646
C91	C	1.073774	-0.643915	-0.854872
H92	H	1.299472	-0.547019	-0.726459
H93	H	1.404508	-0.643894	-0.854844
H94	H	1.299507	-0.740782	-0.983247
H95	H	1.089462	-0.740797	-0.983267
H96	H	0.984426	-0.643922	-0.854881
H97	H	1.396456	-0.681761	-0.384090
H98	H	1.384186	-0.279425	-1.205752
H99	H	1.396654	-1.079172	-0.384197
H100	H	0.919377	-0.573795	-0.761951
C101	C	1.726527	-0.793403	-0.714591
C102	C	1.808998	-0.736628	-0.669119
C103	C	1.882838	-0.691132	-0.743079
C104	C	1.874208	-0.702411	-0.862511
C105	C	1.791733	-0.759188	-0.907990
C106	C	1.717893	-0.804684	-0.834030
H107	H	1.815390	-0.728277	-0.580702
H108	H	1.943892	-0.649102	-0.709411
H109	H	1.928869	-0.668732	-0.917260
H110	H	1.785341	-0.767539	-0.996407
H111	H	1.656840	-0.846714	-0.867697
H112	H	0.819807	-0.481978	-0.640289
H113	H	1.118364	-0.288891	-0.384442
H114	H	1.384073	-0.279505	-0.807616
H115	H	1.707414	-0.954995	-0.695408
H116	H	1.640320	-1.078897	-0.628192
C117	C	1.243066	-0.173322	-0.891515
C118	C	1.243027	-0.173343	-0.770825
C119	C	1.169129	-0.117744	-0.710504
C120	C	1.095271	-0.062124	-0.770874
C121	C	1.095308	-0.062100	-0.891571
C122	C	1.169205	-0.117699	-0.951891
H123	H	1.297704	-0.214518	-0.726130
H124	H	1.169103	-0.117762	-0.621156
H125	H	1.040568	-0.020966	-0.726221
H126	H	1.040631	-0.020925	-0.936266
H127	H	1.169232	-0.117682	-1.041239
H128	H	1.640277	-0.472328	-0.907069
H129	H	1.262314	-0.187723	-1.106243
