data_functionalizedCrystal
_audit_creation_method	'MofGen! by Chris Wilmer'
_symmetry_space_group_name_H-M	'P1'
_symmetry_Int_Tables_number	1
_symmetry_cell_setting	triclinic
loop_
_symmetry_equiv_pos_as_xyz
  x,y,z
_cell_length_a	12.827893
_cell_length_b	12.645330
_cell_length_c	12.827885
_cell_angle_alpha	89.971921
_cell_angle_beta	90.019272
_cell_angle_gamma	89.973843
loop_
_atom_site_label
_atom_site_type_symbol
_atom_site_fract_x
_atom_site_fract_y
_atom_site_fract_z
Zn1	Zn	1.597591	0.421989	0.590861
Zn2	Zn	2.097591	0.921989	1.090861
Zn3	Zn	1.597452	0.599290	0.416127
Zn4	Zn	2.097452	1.099290	0.916127
Zn5	Zn	1.422833	0.422040	0.416135
Zn6	Zn	1.922833	0.922040	0.916135
Zn7	Zn	1.422785	0.599211	0.590826
Zn8	Zn	1.922785	1.099211	1.090826
O9	O	1.510165	0.510632	0.503487
O10	O	2.010165	1.010632	1.003487
O11	O	1.743809	0.445520	0.567693
O12	O	2.243809	0.945520	1.067693
O13	O	1.574251	0.575832	0.269891
O14	O	2.074251	1.075832	0.769891
O15	O	1.446093	0.273686	0.439330
O16	O	1.946093	0.773686	0.939330
O17	O	1.743707	0.575782	0.439316
O18	O	2.243707	1.075782	0.939316
O19	O	1.574487	0.273648	0.567701
O20	O	2.074487	0.773648	1.067701
O21	O	1.445958	0.445608	0.269897
O22	O	1.945958	0.945608	0.769897
O23	O	1.276590	0.445531	0.439297
O24	O	1.776590	0.945531	0.939297
O25	O	1.446012	0.575647	0.737067
O26	O	1.946012	1.075647	1.237067
O27	O	1.276555	0.575697	0.567642
O28	O	1.776555	1.075697	1.067642
O29	O	1.574441	0.445443	0.737093
O30	O	2.074441	0.945443	1.237093
O31	O	1.574204	0.747626	0.439283
O32	O	2.074204	1.247626	0.939283
O33	O	1.445877	0.747568	0.567634
O34	O	1.945877	1.247568	1.067634
C35	C	1.238655	0.510612	0.503467
C36	C	1.738655	1.010612	1.003467
C37	C	1.122502	0.510629	0.503484
C38	C	1.622502	1.010629	1.003484
C39	C	1.070728	0.575140	0.566895
C40	C	1.570728	1.075140	1.066895
C41	C	0.950677	0.575159	0.566913
C42	C	1.450677	1.075159	1.066913
C43	C	1.510049	0.786062	0.503477
C44	C	2.010049	1.286062	1.003477
C45	C	1.510095	0.903892	0.503507
C46	C	2.010095	1.403892	1.003507
C47	C	1.429672	1.071464	0.584505
C48	C	1.929672	1.571464	1.084505
C49	C	1.429279	0.948904	0.584242
C50	C	1.929279	1.448904	1.084242
C51	C	1.480276	0.948494	0.393377
C52	C	1.980276	1.448494	0.893377
C53	C	1.479767	1.071093	0.393871
C54	C	1.979767	1.571093	0.893871
C55	C	1.620772	1.070980	0.531753
C56	C	2.120772	1.570980	1.031753
C57	C	1.620112	0.948372	0.534159
C58	C	2.120112	1.448372	1.034159
C59	C	1.782735	0.510654	0.503508
C60	C	2.282735	1.010654	1.003508
C61	C	1.898889	0.510663	0.503517
C62	C	2.398889	1.010663	1.003517
C63	C	1.510236	0.510531	0.776057
C64	C	2.010236	1.010531	1.276057
C65	C	1.510267	0.510487	0.892211
C66	C	2.010267	1.010487	1.392211
C67	C	1.510274	1.234127	0.503524
C68	C	2.010274	1.734127	1.003524
C69	C	1.510227	1.116297	0.503550
C70	C	2.010227	1.616297	1.003550
C71	C	1.510155	0.510657	0.231977
C72	C	2.010155	1.010657	0.731977
C73	C	1.510327	0.510402	0.115825
C74	C	2.010327	1.010402	0.615825
C75	C	1.573825	0.446045	0.944008
C76	C	2.073825	0.946045	1.444008
C77	C	1.573857	0.445999	1.064058
C78	C	2.073857	0.945999	1.564058
H79	H	1.447936	0.918744	0.665903
H80	H	1.947936	1.418744	1.165903
H81	H	1.448149	1.100870	0.666434
H82	H	1.948149	1.600870	1.166434
H83	H	1.535893	1.100754	0.331496
H84	H	2.035893	1.600754	0.831496
H85	H	1.628275	0.390832	1.108603
H86	H	2.128275	0.890832	1.608603
H87	H	0.943407	0.455433	0.449221
H88	H	1.443407	0.955433	0.949221
H89	H	1.455914	0.565580	1.071287
H90	H	1.955914	1.065580	1.571287
H91	H	1.077952	0.455408	0.449213
H92	H	1.577952	0.955408	0.949213
H93	H	1.348231	1.102366	0.566059
H94	H	1.848231	1.602366	1.066059
H95	H	1.398958	1.099786	0.369979
H96	H	1.898958	1.599786	0.869979
H97	H	1.115279	0.630352	0.621174
H98	H	1.615279	1.130352	1.121174
H99	H	0.906153	0.630392	0.621199
H100	H	1.406153	1.130392	1.121199
H101	H	1.347334	0.919671	0.565557
H102	H	1.847334	1.419671	1.065557
H103	H	1.537096	0.919340	0.331411
H104	H	2.037096	1.419340	0.831411
H105	H	1.455870	0.565617	0.936742
H106	H	1.955870	1.065617	1.436742
H107	H	1.400317	0.917885	0.369052
H108	H	1.900317	1.417885	0.869052
H109	H	1.647963	1.101818	0.610695
H110	H	2.147963	1.601818	1.110695
H111	H	1.642599	0.919216	0.615209
H112	H	2.142599	1.419216	1.115209
H113	H	1.683299	0.917726	0.479489
H114	H	2.183299	1.417726	0.979489
H115	H	1.680788	1.099972	0.472790
H116	H	2.180788	1.599972	0.972790
H117	H	1.628211	0.390905	0.899477
H118	H	2.128211	0.890905	1.399477
