data_functionalizedCrystal
_audit_creation_method	'MofGen! by Chris Wilmer'
_symmetry_space_group_name_H-M	'P1'
_symmetry_Int_Tables_number	1
_symmetry_cell_setting	triclinic
loop_
_symmetry_equiv_pos_as_xyz
  x,y,z
_cell_length_a	17.917559
_cell_length_b	17.052862
_cell_length_c	17.052862
_cell_angle_alpha	61.493325
_cell_angle_beta	90.786031
_cell_angle_gamma	67.575913
loop_
_atom_site_label
_atom_site_type_symbol
_atom_site_fract_x
_atom_site_fract_y
_atom_site_fract_z
Zr1	Zr	0.890135	0.744173	-0.153019
O2	O	0.805317	0.878977	-0.285667
O3	O	0.897462	0.592854	-0.098437
O4	O	0.938617	0.707305	-0.257056
O5	O	0.752940	0.799367	-0.017758
O6	O	1.065010	0.697009	-0.250319
O7	O	0.764161	0.764526	-0.127048
O8	O	0.991390	0.492278	0.033421
O9	O	0.826560	1.004098	-0.301499
O10	O	1.017474	0.653526	-0.086946
O11	O	0.914774	0.687212	-0.010412
O12	O	0.963229	0.821962	-0.197166
O13	O	0.860530	0.855648	-0.120632
Zr14	Zr	1.073819	0.783319	0.032030
Zr15	Zr	1.091716	0.727752	-0.142274
Zr16	Zr	0.872238	0.799740	0.021286
Zr17	Zr	0.924015	0.943727	-0.178269
Zr18	Zr	1.039939	0.583765	0.057280
O19	O	1.066492	0.934637	-0.022551
O20	O	1.091940	0.855628	-0.270390
O21	O	0.779870	0.957986	-0.037829
O22	O	1.158637	0.648515	0.164679
O23	O	1.184084	0.569506	-0.083160
O24	O	0.872014	0.671864	0.149401
O25	O	1.211014	0.728125	-0.103230
O26	O	1.025337	0.820187	0.136068
O27	O	0.898944	0.830483	0.129331
O28	O	1.199793	0.762966	0.006060
O29	O	0.986790	0.991045	-0.292959
O30	O	0.977164	0.536446	0.171970
O31	O	1.137394	0.523394	0.180511
O32	O	1.151620	0.479225	0.041962
O33	O	0.812334	1.048267	-0.162950
O34	O	0.972564	1.035214	-0.154410
O35	O	1.000725	0.705529	0.076177
O36	O	1.103424	0.671844	-0.000357
O37	O	1.049180	0.840280	-0.110576
O38	O	0.946480	0.873965	-0.034042
C39	C	0.939598	0.514134	-0.028910
C40	C	0.925216	0.429418	-0.018191
C41	C	1.099105	0.120288	-0.147787
C42	C	1.112617	0.199886	-0.157865
C43	C	1.065768	0.257273	-0.122947
C44	C	1.005404	0.235054	-0.077950
C45	C	0.991886	0.155453	-0.067878
C46	C	0.958550	0.292438	-0.043038
C47	C	0.898186	0.270219	0.001959
C48	C	0.884671	0.190625	0.012029
C49	C	0.931520	0.133239	-0.022888
C50	C	0.972067	0.372038	-0.053110
C51	C	0.864849	0.407203	0.026799
C52	C	0.851337	0.327605	0.036876
C53	C	0.729829	0.784286	-0.073934
C54	C	0.644253	0.791258	-0.078495
C55	C	0.476370	0.723512	-0.034167
C56	C	0.487590	0.803975	-0.086819
C57	C	0.574766	0.796897	-0.082186
C58	C	0.389187	0.730589	-0.038798
C59	C	1.234125	0.743205	-0.047054
C60	C	1.319701	0.736234	-0.042493
C61	C	1.004363	0.694240	-0.278522
C62	C	1.011961	0.670650	-0.352519
C63	C	1.024355	1.013358	-0.092078
C64	C	1.038738	1.098074	-0.102797
C65	C	0.920105	0.955851	-0.791244
C66	C	0.912962	0.978018	-0.721723
C67	C	0.937711	0.901178	-0.629419
C68	C	0.969605	0.802167	-0.606642
C69	C	0.976743	0.779998	-0.676171
C70	C	0.994349	0.725325	-0.514346
C71	C	1.026243	0.626314	-0.491569
C72	C	1.033380	0.604149	-0.561092
C73	C	1.008630	0.680989	-0.653396
C74	C	0.987211	0.747494	-0.444817
C75	C	1.043849	0.571641	-0.329744
C76	C	1.050992	0.549474	-0.399266
C77	C	0.959590	0.833252	0.157534
C78	C	0.951993	0.856842	0.231531
C79	C	1.191746	0.493593	-0.015470
C80	C	1.262940	0.401906	-0.000190
C81	C	0.917212	0.583640	0.189118
C82	C	0.895231	0.522514	0.273834
C83	C	1.169360	0.563100	0.202558
C84	C	1.232956	0.495002	0.291835
C85	C	0.794594	0.964392	-0.323546
C86	C	0.730998	1.032489	-0.412824
C87	C	0.772208	1.033898	-0.105518
C88	C	0.701014	1.125586	-0.120799
C89	C	1.046742	0.943852	-0.310106
C90	C	1.068722	1.004978	-0.394822
C91	C	1.251508	0.349285	-0.038220
C92	C	1.318398	0.263142	-0.023880
C93	C	1.396718	0.229617	0.028495
C94	C	1.408148	0.282247	0.066526
C95	C	1.341260	0.368392	0.052180
C96	C	0.929774	0.503372	0.358824
C97	C	0.909118	0.445951	0.438429
C98	C	0.853925	0.407667	0.433043
C99	C	0.819379	0.426814	0.348044
C100	C	0.840030	0.484240	0.268440
C101	C	1.316438	0.445439	0.293811
C102	C	1.376203	0.381462	0.377689
C103	C	1.352484	0.367045	0.459591
C104	C	1.268994	0.416617	0.457612
C105	C	1.209231	0.480597	0.373734
C106	C	0.647518	1.082063	-0.414801
C107	C	0.587757	1.146064	-0.498682
C108	C	0.611477	1.160485	-0.580584
C109	C	0.694966	1.110908	-0.578604
C110	C	0.754726	1.046914	-0.494725
C111	C	0.712448	1.178213	-0.082777
C112	C	0.645563	1.264372	-0.097138
C113	C	0.567245	1.297899	-0.149517
C114	C	0.555813	1.245266	-0.187543
C115	C	0.622698	1.159113	-0.173187
C116	C	1.123918	1.043245	-0.389407
C117	C	1.144587	1.100669	-0.468998
C118	C	1.110055	1.119832	-0.554004
C119	C	1.054856	1.081558	-0.559417
C120	C	1.034192	1.024129	-0.479826
H121	H	1.076773	0.322084	-0.131155
Cl122	Cl	0.928734	0.929047	-0.542021
Cl123	Cl	0.999164	0.551488	0.365619
Cl124	Cl	1.213975	1.148781	-0.462173
Cl125	Cl	1.074960	0.475037	-0.213708
H126	H	1.152043	1.027653	-0.320198
H127	H	0.492038	1.272577	-0.230191
Cl128	Cl	0.810899	1.136089	-0.016931
H129	H	0.835513	0.172545	0.048660
H130	H	1.137239	0.073565	-0.176220
H131	H	0.613376	1.116266	-0.204148
H132	H	0.654886	1.307213	-0.066166
Cl133	Cl	0.617677	1.063948	-0.311850
Cl134	Cl	0.952560	0.421889	0.545273
H135	H	0.826699	0.453930	0.055229
Cl136	Cl	0.401343	0.918538	-0.161792
H137	H	0.837116	0.360909	0.497868
H138	H	0.811901	0.499815	0.199242
Cl139	Cl	0.749996	0.378675	0.341289
H140	H	1.401155	0.314945	0.527883
H141	H	1.126887	1.166596	-0.618805
Cl142	Cl	1.011442	1.105668	-0.666292
Cl143	Cl	0.562615	0.608958	0.040803
Cl144	Cl	1.346278	0.463554	0.190860
Cl145	Cl	0.964791	0.976039	-0.486652
H146	H	0.822699	1.006549	-0.493125
Cl147	Cl	0.483168	1.406208	-0.167554
Cl148	Cl	1.355644	0.434530	0.100005
H149	H	0.961241	0.828111	-0.463371
H150	H	0.886995	1.058633	-0.740274
Cl151	Cl	1.481154	0.319151	0.380157
H152	H	0.899953	1.018404	-0.866399
H153	H	1.021216	0.390121	-0.089747
H154	H	1.161764	0.217975	-0.194502
H155	H	0.920526	0.068418	-0.014681
Cl156	Cl	1.017609	0.653126	-0.740802
Cl157	Cl	1.073460	0.479678	-0.532457
H158	H	1.076959	0.468858	-0.380732
H159	H	1.309075	0.220300	-0.054852
Cl160	Cl	1.239188	0.398480	0.560583
H161	H	0.562807	1.212596	-0.648878
Cl162	Cl	1.153059	0.391414	-0.104072
H163	H	0.519780	1.186420	-0.500276
Cl164	Cl	0.724771	1.129045	-0.681575
H165	H	1.141256	0.520945	0.372138
Cl166	Cl	1.480797	0.121314	0.046523
H167	H	1.471925	0.254938	0.109170
Cl168	Cl	0.775457	0.299660	0.093446
