data_functionalizedCrystal
_audit_creation_method	'MofGen! by Chris Wilmer'
_symmetry_space_group_name_H-M	'P1'
_symmetry_Int_Tables_number	1
_symmetry_cell_setting	triclinic
loop_
_symmetry_equiv_pos_as_xyz
  x,y,z
_cell_length_a	14.971487
_cell_length_b	15.455313
_cell_length_c	14.971486
_cell_angle_alpha	87.331922
_cell_angle_beta	96.385734
_cell_angle_gamma	87.321674
loop_
_atom_site_label
_atom_site_type_symbol
_atom_site_fract_x
_atom_site_fract_y
_atom_site_fract_z
O1	O	-1.190854	0.072007	0.112664
O2	O	-0.690854	0.572007	0.612664
O3	O	-0.930455	0.072036	0.126621
O4	O	-0.430455	0.572036	0.626621
O5	O	-1.067634	0.072014	-0.010557
O6	O	-0.567634	0.572014	0.489443
O7	O	-1.053676	0.072028	0.249842
O8	O	-0.553676	0.572028	0.749842
O9	O	-1.059789	-0.072247	-0.002745
O10	O	-0.559789	0.427753	0.497255
O11	O	-0.922611	-0.072225	0.134433
O12	O	-0.422611	0.427775	0.634433
O13	O	-1.183009	-0.072254	0.120476
O14	O	-0.683009	0.427746	0.620476
Cu15	Cu	-1.052094	-0.085412	0.128168
Cu16	Cu	-0.552094	0.414588	0.628168
Cu17	Cu	-1.061371	0.085193	0.118929
Cu18	Cu	-0.561371	0.585193	0.618929
O19	O	-1.045831	-0.072233	0.257654
O20	O	-0.545831	0.427767	0.757654
C21	C	-0.893209	-0.000091	0.129902
C22	C	-0.393209	0.499909	0.629902
C23	C	-0.793912	-0.000080	0.128031
C24	C	-0.293912	0.499920	0.628031
N25	N	-1.045575	-0.205406	0.134665
N26	N	-0.545575	0.294594	0.634665
C27	C	-0.736687	-0.000076	0.208619
C28	C	-0.236687	0.499924	0.708619
C29	C	-0.643387	-0.000087	0.206857
C30	C	-0.143387	0.499913	0.706857
C31	C	-0.607314	-0.000096	0.124504
C32	C	-0.107314	0.499904	0.624504
C33	C	-0.664547	-0.000103	0.043909
C34	C	-0.164547	0.499897	0.543909
C35	C	-0.757844	-0.000098	0.045673
C36	C	-0.257844	0.499902	0.545673
C37	C	-0.470084	-0.000111	0.040238
C38	C	0.029916	0.499889	0.540238
C39	C	-0.376780	-0.000114	0.038473
C40	C	0.123220	0.499886	0.538473
C41	C	-0.355626	-0.000100	0.201422
C42	C	0.144374	0.499900	0.701422
C43	C	-0.448924	-0.000095	0.203186
C44	C	0.051076	0.499905	0.703186
C45	C	-0.506150	-0.000100	0.122590
C46	C	-0.006150	0.499900	0.622590
C47	C	-1.103874	-0.250810	0.076409
C48	C	-0.603874	0.249190	0.576409
C49	C	-1.098953	-0.341617	0.081331
C50	C	-0.598953	0.158383	0.581331
C51	C	-1.035736	-0.387019	0.144514
C52	C	-0.535736	0.112981	0.644514
C53	C	-0.977432	-0.341609	0.202773
C54	C	-0.477432	0.158391	0.702773
C55	C	-0.982349	-0.250804	0.197846
C56	C	-0.482349	0.249196	0.697846
C57	C	-1.014510	-0.658597	0.165757
C58	C	-0.514510	-0.158597	0.665757
C59	C	-1.009598	-0.749409	0.170681
C60	C	-0.509598	-0.249409	0.670681
C61	C	-1.131118	-0.749410	0.049237
C62	C	-0.631118	-0.249410	0.549237
C63	C	-1.136034	-0.658603	0.044319
C64	C	-0.636034	-0.158603	0.544319
C65	C	-1.077726	-0.613201	0.102575
C66	C	-0.577726	-0.113201	0.602575
N67	N	-1.030706	-0.479838	0.149549
N68	N	-0.530706	0.020162	0.649549
N69	N	-1.082753	-0.520383	0.097535
N70	N	-0.582753	-0.020383	0.597535
C71	C	-0.220257	-0.000120	0.117194
C72	C	0.279743	0.499880	0.617194
C73	C	-0.319554	-0.000110	0.119062
C74	C	0.180446	0.499890	0.619062
C75	C	-1.063087	-0.000116	-0.039976
C76	C	-0.563087	0.499884	0.460024
C77	C	-1.061217	-0.000115	-0.139273
C78	C	-0.561217	0.499885	0.360727
N79	N	-1.067896	0.205188	0.112424
N80	N	-0.567896	0.705188	0.612424
C81	C	-1.141805	-0.000125	-0.196498
C82	C	-0.641805	0.499875	0.303502
C83	C	-1.140043	-0.000116	-0.289798
C84	C	-0.640043	0.499884	0.210202
C85	C	-1.057690	-0.000103	-0.325871
C86	C	-0.557690	0.499897	0.174129
C87	C	-0.977095	-0.000091	-0.268639
C88	C	-0.477095	0.499909	0.231361
C89	C	-0.978859	-0.000094	-0.175341
C90	C	-0.478859	0.499906	0.324659
C91	C	-0.973424	-0.000088	-0.463102
C92	C	-0.473424	0.499912	0.036898
C93	C	-0.971660	-0.000086	-0.556406
C94	C	-0.471660	0.499914	-0.056406
C95	C	-1.134608	-0.000109	-0.577558
C96	C	-0.634608	0.499891	-0.077558
C97	C	-1.136372	-0.000112	-0.484260
C98	C	-0.636372	0.499888	0.015740
C99	C	-1.055776	-0.000101	-0.427035
C100	C	-0.555776	0.499899	0.072965
C101	C	-1.050378	-0.000101	0.287073
C102	C	-0.550378	0.499899	0.787073
C103	C	-1.052249	-0.000096	0.386370
C104	C	-0.552249	0.499904	0.886370
H105	H	-0.766050	-0.000068	0.275681
H106	H	-0.266050	0.499932	0.775681
H107	H	-0.904601	-0.000090	-0.585772
H108	H	-0.404601	0.499910	-0.085772
Cl109	Cl	-1.215507	-0.601526	-0.035111
Cl110	Cl	-0.715507	-0.101526	0.464889
H111	H	-1.178589	-0.786384	0.001807
H112	H	-0.678589	-0.286384	0.501807
Cl113	Cl	-0.897954	-0.398684	0.282201
Cl114	Cl	-0.397954	0.101316	0.782201
H115	H	-0.910043	-0.000076	-0.298017
H116	H	-0.410043	0.499924	0.201983
Cl117	Cl	-1.245340	-0.000149	-0.151158
Cl118	Cl	-0.745340	0.499851	0.348842
H119	H	-0.635168	-0.000123	-0.023144
H120	H	-0.135168	0.499877	0.476856
H121	H	-1.200232	-0.000115	-0.624156
H122	H	-0.700232	0.499885	-0.124156
H123	H	-0.907795	-0.000077	-0.416511
H124	H	-0.407795	0.499923	0.083489
H125	H	-0.804437	-0.000101	-0.019951
H126	H	-0.304437	0.499899	0.480049
Cl127	Cl	-0.930120	-0.806480	0.250121
Cl128	Cl	-0.430120	-0.306480	0.750121
H129	H	-0.934876	-0.213837	0.245284
H130	H	-0.434876	0.286163	0.745284
H131	H	-1.155355	-0.213849	0.024962
H132	H	-0.655355	0.286151	0.524962
Cl133	Cl	-1.172242	-0.398697	0.008092
Cl134	Cl	-0.672242	0.101303	0.508092
Cl135	Cl	-0.941214	-0.601527	0.238994
Cl136	Cl	-0.441214	-0.101527	0.738994
Cl137	Cl	-0.877543	-0.000078	-0.103401
Cl138	Cl	-0.377543	0.499922	0.396599
H139	H	-0.516675	-0.000117	-0.025392
H140	H	-0.016675	0.499883	0.474608
H141	H	-0.596798	-0.000083	0.272480
H142	H	-0.096798	0.499917	0.772480
H143	H	-1.205666	-0.000125	-0.336387
H144	H	-0.705666	0.499875	0.163613
H145	H	-1.203430	-0.000128	-0.454893
H146	H	-0.703430	0.499872	0.045107
H147	H	-0.347412	-0.000123	-0.028585
H148	H	0.152588	0.499877	0.471415
H149	H	-0.309028	-0.000100	0.267046
H150	H	0.190972	0.499900	0.767046
Cl151	Cl	-0.494272	-0.000074	0.306716
Cl152	Cl	0.005728	0.499926	0.806716
