data_functionalizedCrystal
_audit_creation_method	'MofGen! by Chris Wilmer'
_symmetry_space_group_name_H-M	'P1'
_symmetry_Int_Tables_number	1
_symmetry_cell_setting	triclinic
loop_
_symmetry_equiv_pos_as_xyz
  x,y,z
_cell_length_a	16.109301
_cell_length_b	14.586319
_cell_length_c	16.109301
_cell_angle_alpha	89.994786
_cell_angle_beta	96.538519
_cell_angle_gamma	90.000787
loop_
_atom_site_label
_atom_site_type_symbol
_atom_site_fract_x
_atom_site_fract_y
_atom_site_fract_z
O1	O	-1.103131	-0.076185	0.106866
O2	O	-0.603131	0.423815	0.606866
O3	O	-0.861069	-0.076200	0.120165
O4	O	-0.361069	0.423800	0.620165
O5	O	-0.988749	-0.076183	-0.007515
O6	O	-0.488749	0.423817	0.492485
O7	O	-0.975450	-0.076203	0.234547
O8	O	-0.475450	0.423797	0.734547
O9	O	-0.988741	0.076298	-0.007517
O10	O	-0.488741	0.576298	0.492483
O11	O	-0.861060	0.076281	0.120164
O12	O	-0.361060	0.576281	0.620164
O13	O	-1.103122	0.076295	0.106864
O14	O	-0.603122	0.576295	0.606864
Cu15	Cu	-0.982090	0.090211	0.113514
Cu16	Cu	-0.482090	0.590211	0.613514
Cu17	Cu	-0.982101	-0.090115	0.113516
Cu18	Cu	-0.482101	0.409885	0.613516
O19	O	-0.975441	0.076278	0.234545
O20	O	-0.475441	0.576278	0.734545
C21	C	-0.830090	0.000038	0.119626
C22	C	-0.330090	0.500038	0.619626
C23	C	-0.737794	0.000033	0.118011
C24	C	-0.237794	0.500033	0.618011
C25	C	-0.988206	0.000058	-0.038491
C26	C	-0.488206	0.500058	0.461509
C27	C	-0.986591	0.000059	-0.130786
C28	C	-0.486591	0.500059	0.369214
N29	N	-0.982089	0.217042	0.113512
N30	N	-0.482089	0.717042	0.613512
C31	C	-1.134101	0.000055	0.107404
C32	C	-0.634101	0.500055	0.607404
C33	C	-1.226397	0.000054	0.109019
C34	C	-0.726397	0.500054	0.609019
C35	C	-0.515522	0.000038	0.190018
C36	C	-0.015522	0.500038	0.690018
C37	C	-0.428801	0.000044	0.188494
C38	C	0.071199	0.500044	0.688494
C39	C	-0.448676	0.000052	0.037006
C40	C	0.051324	0.500052	0.537006
C41	C	-0.535394	0.000053	0.038530
C42	C	-0.035394	0.500053	0.538530
C43	C	-0.568815	0.000041	0.115039
C44	C	-0.068815	0.500041	0.615039
C45	C	-0.395376	0.000046	0.111990
C46	C	0.104624	0.500046	0.611990
C47	C	-0.301350	0.000053	0.110337
C48	C	0.198650	0.500053	0.610337
C49	C	-0.662847	0.000036	0.116693
C50	C	-0.162847	0.500036	0.616693
N51	N	-0.982109	-0.216947	0.113511
N52	N	-0.482109	0.283053	0.613511
C53	C	-1.038644	0.452057	0.056994
C54	C	-0.538644	0.952057	0.556994
C55	C	-1.038647	0.548038	0.056992
C56	C	-0.538647	1.048038	0.556992
C57	C	-0.925547	0.548032	0.170032
C58	C	-0.425547	1.048032	0.670032
C59	C	-0.925541	0.452052	0.170030
C60	C	-0.425541	0.952052	0.670030
C61	C	-0.982095	0.404067	0.113511
C62	C	-0.482095	0.904067	0.613511
C63	C	-0.982103	0.596028	0.113512
C64	C	-0.482103	1.096028	0.613512
C65	C	-0.982105	0.700095	0.113510
C66	C	-0.482105	1.200095	0.613510
C67	C	-0.982092	0.299993	0.113512
C68	C	-0.482092	0.799993	0.613512
C69	C	-1.058599	0.000049	-0.353059
C70	C	-0.558599	0.500049	0.146941
C71	C	-1.057075	0.000041	-0.439779
C72	C	-0.557075	0.500041	0.060221
C73	C	-0.905586	0.000036	-0.419905
C74	C	-0.405586	0.500036	0.080095
C75	C	-0.907111	0.000037	-0.333186
C76	C	-0.407111	0.500037	0.166814
C77	C	-0.983620	0.000048	-0.299766
C78	C	-0.483620	0.500048	0.200234
C79	C	-0.980571	0.000039	-0.473205
C80	C	-0.480571	0.500039	0.026795
C81	C	-0.978918	0.000031	-0.567231
C82	C	-0.478918	0.500031	-0.067231
C83	C	-0.985273	0.000055	-0.205734
C84	C	-0.485273	0.500055	0.294266
C85	C	-0.975984	0.000035	0.265521
C86	C	-0.475984	0.500035	0.765521
C87	C	-0.977600	0.000028	0.357816
C88	C	-0.477600	0.500028	0.857816
H89	H	-0.542730	0.000035	0.252317
H90	H	-0.042730	0.500035	0.752317
H91	H	-0.846050	0.000033	-0.289792
H92	H	-0.346050	0.500033	0.210208
O93	O	-0.870574	0.405572	0.225015
O94	O	-0.370574	0.905572	0.725015
C95	C	-0.820651	0.468504	0.274891
C96	C	-0.320651	0.968504	0.774891
H97	H	-0.854738	0.536919	0.275847
H98	H	-0.354738	1.036919	0.775847
H99	H	-0.807946	0.440759	0.341283
H100	H	-0.307946	0.940759	0.841283
H101	H	-0.758901	0.478721	0.247877
H102	H	-0.258901	0.978721	0.747877
O103	O	-0.870699	0.594789	0.224905
O104	O	-0.370699	1.094789	0.724905
C105	C	-0.882817	0.689794	0.212778
C106	C	-0.382817	1.189794	0.712778
H107	H	-0.948923	0.702901	0.181721
H108	H	-0.448923	1.202901	0.681721
H109	H	-0.873554	0.726262	0.275740
H110	H	-0.373554	1.226262	0.775740
H111	H	-0.835773	0.717044	0.171067
H112	H	-0.335773	1.217044	0.671067
O113	O	-1.132937	-0.000113	-0.320632
O114	O	-0.632937	0.499887	0.179368
C115	C	-1.178648	-0.079075	-0.347878
C116	C	-0.678648	0.420925	0.152122
H117	H	-1.133908	-0.134269	-0.365898
H118	H	-0.633908	0.365731	0.134102
H119	H	-1.214007	-0.105585	-0.295354
H120	H	-0.714007	0.394415	0.204646
H121	H	-1.224991	-0.061224	-0.404412
H122	H	-0.724991	0.438776	0.095588
O123	O	-1.129888	-0.000119	-0.491581
O124	O	-0.629888	0.499881	0.008419
C125	C	-1.133535	-0.079082	-0.542341
C126	C	-0.633535	0.420918	-0.042341
H127	H	-1.091014	-0.134278	-0.510562
H128	H	-0.591014	0.365722	-0.010562
H129	H	-1.200510	-0.105587	-0.552106
H130	H	-0.700510	0.394413	-0.052106
H131	H	-1.112033	-0.061234	-0.605397
H132	H	-0.612033	0.438766	-0.105397
H133	H	-0.385413	0.000043	0.249550
H134	H	0.114587	0.500043	0.749550
O135	O	-0.831322	-0.000089	-0.452471
O136	O	-0.331322	0.499911	0.047529
C137	C	-0.825899	-0.079071	-0.502017
C138	C	-0.325899	0.420929	-0.002017
H139	H	-0.891434	-0.105399	-0.523633
H140	H	-0.391434	0.394601	-0.023633
H141	H	-0.792772	-0.061308	-0.558794
H142	H	-0.292772	0.438692	-0.058794
H143	H	-0.789108	-0.134370	-0.463690
H144	H	-0.289108	0.365630	0.036310
O145	O	-0.416168	-0.000107	-0.037290
O146	O	0.083832	0.499893	0.462710
C147	C	-0.366587	-0.079069	-0.042690
C148	C	0.133413	0.420931	0.457310
H149	H	-0.387085	-0.134265	0.000755
H150	H	0.112915	0.365735	0.500755
H151	H	-0.374392	-0.105575	-0.109696
H152	H	0.125608	0.394425	0.390304
H153	H	-0.298194	-0.061218	-0.023496
H154	H	0.201806	0.438782	0.476504
O155	O	-0.587051	0.000014	-0.034386
O156	O	-0.087051	0.500014	0.465614
C157	C	-0.538960	0.000039	-0.102241
C158	C	-0.038960	0.500039	0.397759
H159	H	-0.474231	-0.028832	-0.081127
H160	H	0.025769	0.471168	0.418873
H161	H	-0.570970	-0.044226	-0.154772
H162	H	-0.070970	0.455774	0.345228
H163	H	-0.532792	0.073193	-0.125696
H164	H	-0.032792	0.573193	0.374304
H165	H	-1.084693	0.412989	0.010972
H166	H	-0.584693	0.912989	0.510972
H167	H	-1.084694	0.587108	0.010969
H168	H	-0.584694	1.087108	0.510969
