data_functionalizedCrystal
_audit_creation_method	'MofGen! by Chris Wilmer'
_symmetry_space_group_name_H-M	'P1'
_symmetry_Int_Tables_number	1
_symmetry_cell_setting	triclinic
loop_
_symmetry_equiv_pos_as_xyz
  x,y,z
_cell_length_a	17.699077
_cell_length_b	19.188930
_cell_length_c	16.176319
_cell_angle_alpha	90.008567
_cell_angle_beta	90.005422
_cell_angle_gamma	83.212679
loop_
_atom_site_label
_atom_site_type_symbol
_atom_site_fract_x
_atom_site_fract_y
_atom_site_fract_z
O1	O	1.003964	0.088271	0.068745
O2	O	1.337298	0.421605	0.402078
O3	O	1.670631	0.754938	0.735412
O4	O	0.783570	0.099763	0.068750
O5	O	1.116903	0.433096	0.402084
O6	O	1.450237	0.766430	0.735417
O7	O	0.900127	-0.007631	0.068731
O8	O	1.233461	0.325702	0.402065
O9	O	1.566794	0.659035	0.735398
O10	O	0.887407	0.195666	0.068764
O11	O	1.220740	0.528999	0.402097
O12	O	1.554074	0.862332	0.735431
O13	O	0.900114	-0.007632	-0.068762
O14	O	1.233447	0.325702	0.264571
O15	O	1.566780	0.659035	0.597905
O16	O	0.783556	0.099763	-0.068743
O17	O	1.116890	0.433096	0.264590
O18	O	1.450223	0.766429	0.597924
O19	O	1.003951	0.088271	-0.068748
O20	O	1.337284	0.421604	0.264585
O21	O	1.670617	0.754938	0.597918
Cu22	Cu	0.893752	0.094017	-0.081300
Cu23	Cu	1.227086	0.427350	0.252033
Cu24	Cu	1.560419	0.760684	0.585367
Cu25	Cu	0.893768	0.094017	0.081302
Cu26	Cu	1.227102	0.427351	0.414635
Cu27	Cu	1.560435	0.760684	0.747968
O28	O	0.887393	0.195666	-0.068729
O29	O	1.220727	0.528999	0.264604
O30	O	1.554060	0.862332	0.597937
C31	C	0.755367	0.099352	0.000004
C32	C	1.088700	0.432685	0.333337
C33	C	1.422033	0.766018	0.666671
C34	C	0.671350	0.098119	0.000005
C35	C	1.004683	0.431452	0.333339
C36	C	1.338017	0.764785	0.666672
C37	C	0.631876	0.097537	-0.074943
C38	C	0.965209	0.430871	0.258390
C39	C	1.298543	0.764204	0.591723
C40	C	0.552935	0.096368	-0.074944
C41	C	0.886268	0.429701	0.258389
C42	C	1.219602	0.763034	0.591722
C43	C	0.513469	0.095784	0.000004
C44	C	0.846802	0.429117	0.333337
C45	C	1.180135	0.762451	0.666671
C46	C	0.552949	0.096363	0.074958
C47	C	0.886282	0.429696	0.408292
C48	C	1.219615	0.763030	0.741625
C49	C	0.631889	0.097528	0.074959
C50	C	0.965222	0.430861	0.408292
C51	C	1.298556	0.764195	0.741625
C52	C	0.234592	0.091665	0.074959
C53	C	0.567925	0.424998	0.408293
C54	C	0.901258	0.758331	0.741626
C55	C	0.155645	0.090502	0.074953
C56	C	0.488979	0.423835	0.408287
C57	C	0.822312	0.757168	0.741620
C58	C	0.155638	0.090504	-0.074944
C59	C	0.488971	0.423837	0.258390
C60	C	0.822304	0.757171	0.591723
C61	C	0.234578	0.091669	-0.074943
C62	C	0.567911	0.425002	0.258390
C63	C	0.901245	0.758336	0.591723
C64	C	0.274051	0.092244	0.000010
C65	C	0.607385	0.425578	0.333344
C66	C	0.940718	0.758911	0.666677
C67	C	0.359648	0.093512	0.000011
C68	C	0.692982	0.426845	0.333344
C69	C	1.026315	0.760178	0.666677
C70	C	0.427872	0.094522	0.000005
C71	C	0.761206	0.427855	0.333338
C72	C	1.094539	0.761188	0.666671
C73	C	0.899708	-0.033643	-0.000018
C74	C	1.233042	0.299690	0.333316
C75	C	1.566375	0.633024	0.666649
C76	C	0.898472	-0.111149	-0.000025
C77	C	1.231805	0.222184	0.333309
C78	C	1.565139	0.555518	0.666642
C79	C	0.966864	-0.155998	-0.000030
C80	C	1.300197	0.177336	0.333303
C81	C	1.633531	0.510669	0.666636
C82	C	0.965702	-0.228823	-0.000017
C83	C	1.299036	0.104511	0.333316
C84	C	1.632369	0.437844	0.666650
C85	C	0.896145	-0.256796	-0.000015
C86	C	1.229478	0.076537	0.333318
C87	C	1.562811	0.409871	0.666652
C88	C	0.827744	-0.211937	-0.000005
C89	C	1.161077	0.121396	0.333329
C90	C	1.494410	0.454729	0.666662
C91	C	0.828907	-0.139114	-0.000010
C92	C	1.162241	0.194219	0.333324
C93	C	1.495574	0.527553	0.666657
N94	N	0.842972	-0.364859	-0.046805
N95	N	1.176305	-0.031526	0.286528
N96	N	1.509638	0.301807	0.619862
N97	N	0.841871	-0.434039	-0.046802
N98	N	1.175204	-0.100706	0.286531
N99	N	1.508537	0.232627	0.619865
C100	C	0.892634	-0.476208	0.000002
C101	C	1.225968	-0.142875	0.333335
C102	C	1.559301	0.190458	0.666669
N103	N	0.944552	-0.446586	0.046793
N104	N	1.277885	-0.113252	0.380126
N105	N	1.611219	0.220081	0.713459
N106	N	0.945655	-0.377400	0.046786
N107	N	1.278988	-0.044066	0.380119
N108	N	1.612322	0.289267	0.713453
C109	C	0.894875	-0.335760	-0.000009
C110	C	1.228208	-0.002426	0.333324
C111	C	1.561542	0.330907	0.666658
C112	C	0.959771	-0.600023	0.000012
C113	C	1.293105	-0.266689	0.333345
C114	C	1.626438	0.066644	0.666679
C115	C	0.958607	-0.672849	0.000030
C116	C	1.291940	-0.339516	0.333364
C117	C	1.625274	-0.006182	0.666697
C118	C	0.820646	-0.655962	0.000035
C119	C	1.153980	-0.322629	0.333368
C120	C	1.487313	0.010705	0.666701
C121	C	0.821813	-0.583137	0.000024
C122	C	1.155146	-0.249804	0.333358
C123	C	1.488480	0.083529	0.666691
C124	C	0.891378	-0.555173	0.000009
C125	C	1.224711	-0.221839	0.333343
C126	C	1.558044	0.111494	0.666676
C127	C	1.032154	0.088682	-0.000000
C128	C	1.365487	0.422016	0.333333
C129	C	1.698821	0.755349	0.666666
C130	C	1.116171	0.089915	0.000004
C131	C	1.449504	0.423249	0.333337
C132	C	1.782837	0.756582	0.666670
C133	C	0.887812	0.221677	0.000021
C134	C	1.221145	0.555010	0.333355
C135	C	1.554479	0.888344	0.666688
C136	C	0.889049	0.299183	0.000034
C137	C	1.222382	0.632516	0.333367
C138	C	1.555715	0.965850	0.666701
N139	N	0.893746	0.094016	-0.195665
N140	N	1.227080	0.427350	0.137668
N141	N	1.560413	0.760683	0.471002
C142	C	0.939506	0.136310	-0.238920
C143	C	1.272839	0.469644	0.094414
C144	C	1.606172	0.802977	0.427747
C145	C	0.939514	0.136308	-0.325467
C146	C	1.272847	0.469641	0.007867
C147	C	1.606181	0.802974	0.341200
C148	C	0.893758	0.094014	-0.368758
C149	C	1.227091	0.427347	-0.035424
C150	C	1.560425	0.760681	0.297909
C151	C	0.847997	0.051715	-0.325497
C152	C	1.181330	0.385049	0.007836
C153	C	1.514664	0.718382	0.341170
C154	C	0.847993	0.051715	-0.238952
C155	C	1.181327	0.385048	0.094382
C156	C	1.514660	0.718381	0.427715
C157	C	0.848011	0.051716	-0.674525
C158	C	1.181344	0.385049	-0.341192
C159	C	1.514678	0.718383	-0.007859
C160	C	0.848016	0.051722	-0.761077
C161	C	1.181350	0.385055	-0.427744
C162	C	1.514683	0.718388	-0.094410
C163	C	0.939531	0.136309	-0.761040
C164	C	1.272865	0.469642	-0.427707
C165	C	1.606198	0.802976	-0.094374
C166	C	0.939528	0.136308	-0.674495
C167	C	1.272861	0.469642	-0.341162
C168	C	1.606195	0.802975	-0.007828
C169	C	0.893770	0.094007	-0.631242
C170	C	1.227103	0.427340	-0.297909
C171	C	1.560437	0.760674	0.035425
C172	C	0.893763	0.094009	-0.537398
C173	C	1.227096	0.427343	-0.204064
C174	C	1.560430	0.760676	0.129269
C175	C	0.893761	0.094015	-0.462600
C176	C	1.227094	0.427348	-0.129267
C177	C	1.560427	0.760682	0.204066
N178	N	0.893780	0.094012	0.195667
N179	N	1.227114	0.427346	0.529000
N180	N	1.560447	0.760679	0.862334
H181	H	0.123489	0.090032	-0.135975
H182	H	0.456823	0.423366	0.197359
H183	H	0.790156	0.756699	0.530692
H184	H	0.520800	0.095883	-0.135975
H185	H	0.854134	0.429216	0.197358
H186	H	1.187467	0.762549	0.530692
H187	H	0.773213	-0.102597	-0.000005
H188	H	1.106546	0.230736	0.333328
H189	H	1.439879	0.564069	0.666661
Cl190	Cl	0.790457	-0.001435	-0.620161
Cl191	Cl	1.123790	0.331898	-0.286828
Cl192	Cl	1.457123	0.665231	0.046505
H193	H	0.810755	0.017279	-0.796322
H194	H	1.144088	0.350612	-0.462989
H195	H	1.477421	0.683945	-0.129655
Cl196	Cl	0.997030	0.189483	-0.184505
Cl197	Cl	1.330363	0.522817	0.148828
Cl198	Cl	1.663696	0.856150	0.482161
H199	H	0.664028	0.098003	0.135989
H200	H	0.997361	0.431336	0.469323
H201	H	1.330694	0.764669	0.802656
Cl202	Cl	0.503338	0.095604	0.169180
Cl203	Cl	0.836671	0.428937	0.502513
Cl204	Cl	1.170004	0.762270	0.835847
Cl205	Cl	0.790476	-0.001455	-0.379920
Cl206	Cl	1.123810	0.331878	-0.046587
Cl207	Cl	1.457143	0.665211	0.286747
H208	H	1.021397	-0.265345	-0.000018
H209	H	1.354730	0.067988	0.333315
H210	H	1.688064	0.401321	0.666648
H211	H	0.976777	0.170746	-0.360681
H212	H	1.310110	0.504080	-0.027347
H213	H	1.643444	0.837413	0.305986
H214	H	0.976792	0.170751	-0.796268
H215	H	1.310125	0.504084	-0.462934
H216	H	1.643458	0.837418	-0.129601
Cl217	Cl	0.284188	0.092407	-0.169168
Cl218	Cl	0.617521	0.425740	0.164166
Cl219	Cl	0.950854	0.759073	0.497499
H220	H	0.810731	0.017275	-0.203735
H221	H	1.144065	0.350608	0.129599
H222	H	1.477398	0.683941	0.462932
H223	H	0.771109	-0.234718	-0.000001
H224	H	1.104443	0.098616	0.333332
H225	H	1.437776	0.431949	0.666666
Cl226	Cl	1.054316	-0.120845	-0.000026
Cl227	Cl	1.387650	0.212488	0.333307
Cl228	Cl	1.720983	0.545821	0.666641
Cl229	Cl	0.106032	0.089767	0.169181
Cl230	Cl	0.439365	0.423100	0.502515
Cl231	Cl	0.772698	0.756433	0.835848
Cl232	Cl	0.997042	0.189488	-0.620077
Cl233	Cl	1.330375	0.522822	-0.286743
Cl234	Cl	1.663708	0.856155	0.046590
H235	H	1.016415	-0.577253	0.000003
H236	H	1.349748	-0.243919	0.333337
H237	H	1.683082	0.089414	0.666670
H238	H	1.014302	-0.709365	0.000030
H239	H	1.347636	-0.376031	0.333364
H240	H	1.680969	-0.042698	0.666697
Cl241	Cl	0.284205	0.092389	0.169187
Cl242	Cl	0.617538	0.425723	0.502520
Cl243	Cl	0.950872	0.759056	0.835854
H244	H	0.766121	-0.546620	0.000024
H245	H	1.099454	-0.213287	0.333358
H246	H	1.432787	0.120046	0.666691
Cl247	Cl	0.681482	0.098276	-0.169170
Cl248	Cl	1.014816	0.431609	0.164164
Cl249	Cl	1.348149	0.764942	0.497497
Cl250	Cl	0.733202	-0.691121	0.000042
Cl251	Cl	1.066535	-0.357788	0.333376
Cl252	Cl	1.399868	-0.024455	0.666709
