data_functionalizedCrystal
_audit_creation_method	'MofGen! by Chris Wilmer'
_symmetry_space_group_name_H-M	'P1'
_symmetry_Int_Tables_number	1
_symmetry_cell_setting	triclinic
loop_
_symmetry_equiv_pos_as_xyz
  x,y,z
_cell_length_a	17.699077
_cell_length_b	17.699083
_cell_length_c	15.186229
_cell_angle_alpha	89.995368
_cell_angle_beta	89.997203
_cell_angle_gamma	83.281795
loop_
_atom_site_label
_atom_site_type_symbol
_atom_site_fract_x
_atom_site_fract_y
_atom_site_fract_z
O1	O	1.004078	0.095689	-0.073219
O2	O	1.504078	0.595689	0.426781
O3	O	0.783698	0.108146	-0.073223
O4	O	1.283698	0.608146	0.426777
O5	O	0.900114	-0.008272	-0.073213
O6	O	1.400114	0.491728	0.426787
O7	O	0.887662	0.212107	-0.073229
O8	O	1.387662	0.712107	0.426771
O9	O	0.900107	-0.008274	0.073244
O10	O	1.400107	0.491726	0.573244
O11	O	0.783691	0.108144	0.073234
O12	O	1.283691	0.608144	0.573234
O13	O	1.004070	0.095687	0.073239
O14	O	1.504070	0.595687	0.573239
Zn15	Zn	0.893879	0.101915	0.096490
Zn16	Zn	1.393879	0.601915	0.596490
Zn17	Zn	0.893889	0.101918	-0.096474
Zn18	Zn	1.393889	0.601918	0.403526
O19	O	0.887654	0.212105	0.073228
O20	O	1.387654	0.712105	0.573228
C21	C	0.755498	0.107700	0.000005
C22	C	1.255498	0.607700	0.500005
C23	C	0.671479	0.106363	0.000003
C24	C	1.171479	0.606363	0.500003
C25	C	0.632008	0.105732	0.079838
C26	C	1.132008	0.605732	0.579838
C27	C	0.553065	0.104464	0.079839
C28	C	1.053065	0.604464	0.579839
C29	C	0.513595	0.103832	0.000005
C30	C	1.013595	0.603832	0.500005
C31	C	0.553072	0.104460	-0.079836
C32	C	1.053072	0.604460	0.420164
C33	C	0.632014	0.105723	-0.079837
C34	C	1.132014	0.605723	0.420163
C35	C	0.234709	0.099367	-0.079838
C36	C	0.734709	0.599367	0.420162
C37	C	0.155761	0.098107	-0.079831
C38	C	0.655761	0.598107	0.420169
C39	C	0.155760	0.098108	0.079838
C40	C	0.655760	0.598108	0.579838
C41	C	0.234702	0.099370	0.079838
C42	C	0.734702	0.599370	0.579838
C43	C	0.274173	0.099995	-0.000002
C44	C	0.774173	0.599995	0.499998
C45	C	0.359772	0.101369	-0.000003
C46	C	0.859772	0.601369	0.499997
C47	C	0.427997	0.102464	0.000004
C48	C	0.927997	0.602464	0.500004
C49	C	0.899664	-0.036470	0.000016
C50	C	1.399664	0.463530	0.500016
C51	C	0.898326	-0.120488	0.000016
C52	C	1.398326	0.379512	0.500016
C53	C	0.966659	-0.169110	0.000019
C54	C	1.466659	0.330890	0.500019
C55	C	0.965397	-0.248054	0.000011
C56	C	1.465397	0.251946	0.500011
C57	C	0.895800	-0.278373	0.000007
C58	C	1.395800	0.221627	0.500007
C59	C	0.827461	-0.229744	0.000001
C60	C	1.327461	0.270256	0.500001
C61	C	0.828724	-0.150803	0.000003
C62	C	1.328724	0.349197	0.500003
C63	C	0.822366	-0.548107	-0.000006
C64	C	1.322366	-0.048107	0.499994
C65	C	0.821108	-0.627055	-0.000005
C66	C	1.321108	-0.127055	0.499995
C67	C	0.959039	-0.645358	0.000002
C68	C	1.459039	-0.145358	0.500002
C69	C	0.960302	-0.566417	0.000004
C70	C	1.460302	-0.066417	0.500004
C71	C	0.891963	-0.517795	-0.000006
C72	C	1.391963	-0.017795	0.499994
C73	C	0.893333	-0.432196	0.000001
C74	C	1.393333	0.067804	0.500001
C75	C	0.894430	-0.363971	0.000006
C76	C	1.394430	0.136029	0.500006
C77	C	1.032271	0.096133	0.000009
C78	C	1.532271	0.596133	0.500009
C79	C	1.116289	0.097470	0.000004
C80	C	1.616289	0.597470	0.500004
C81	C	0.888104	0.240303	-0.000002
C82	C	1.388104	0.740303	0.499998
C83	C	0.889443	0.324321	-0.000008
C84	C	1.389443	0.824321	0.499992
N85	N	0.893878	0.101913	0.228182
N86	N	1.393878	0.601913	0.728182
N87	N	0.893897	0.101914	-0.228167
N88	N	1.393897	0.601914	0.271833
C89	C	0.945444	0.050381	0.453910
C90	C	1.445444	0.550381	0.953910
C91	C	0.945446	0.050379	0.546099
C92	C	1.445446	0.550379	1.046099
C93	C	0.842325	0.153449	0.546099
C94	C	1.342325	0.653449	1.046099
C95	C	0.842319	0.153446	0.453911
C96	C	1.342319	0.653446	0.953911
C97	C	0.893883	0.101913	0.407819
C98	C	1.393883	0.601913	0.907819
C99	C	0.893891	0.101914	0.592197
C100	C	1.393891	0.601914	1.092197
C101	C	0.893893	0.101912	0.692153
C102	C	1.393893	0.601912	1.192153
C103	C	0.893880	0.101914	0.307856
C104	C	1.393880	0.601914	0.807856
H105	H	0.664151	0.106238	-0.144846
H106	H	1.164151	0.606238	0.355154
O107	O	0.792336	0.203542	0.409037
O108	O	1.292336	0.703542	0.909037
C109	C	0.832780	0.250192	0.355717
C110	C	1.332780	0.750192	0.855717
H111	H	0.892057	0.219968	0.341904
H112	H	1.392057	0.719968	0.841904
H113	H	0.801166	0.262205	0.290892
H114	H	1.301166	0.762205	0.790892
H115	H	0.837820	0.306125	0.391236
H116	H	1.337820	0.806125	0.891236
H117	H	0.764431	-0.651737	-0.000006
H118	H	1.264431	-0.151737	0.499994
H119	H	1.016974	-0.541735	0.000011
H120	H	1.516974	-0.041735	0.500011
H121	H	0.123614	0.097596	0.144848
H122	H	0.623614	0.597596	0.644848
H123	H	0.123627	0.097591	-0.144846
H124	H	0.623627	0.597591	0.355154
O125	O	0.792271	0.203612	0.590776
O126	O	1.292271	0.703612	1.090776
C127	C	0.804444	0.278520	0.568252
C128	C	1.304444	0.778520	1.068252
H129	H	0.833615	0.278386	0.501314
H130	H	1.333615	0.778386	1.001314
H131	H	0.747484	0.315866	0.565097
H132	H	1.247484	0.815866	1.065097
H133	H	0.842073	0.301881	0.620129
H134	H	1.342073	0.801881	1.120129
H135	H	0.520932	0.103937	0.144849
H136	H	1.020932	0.603937	0.644849
O137	O	0.670233	0.106309	0.157470
O138	O	1.170233	0.606309	0.657470
C139	C	0.618460	0.105498	0.227934
C140	C	1.118460	0.605498	0.727934
H141	H	0.565368	0.080647	0.204528
H142	H	1.065368	0.580647	0.704528
H143	H	0.646141	0.069129	0.283772
H144	H	1.146141	0.569129	0.783772
H145	H	0.602007	0.166059	0.252480
H146	H	1.102007	0.666059	0.752480
H147	H	0.773080	-0.111214	0.000001
H148	H	1.273080	0.388786	0.500001
O149	O	1.025355	-0.692699	-0.000037
O150	O	1.525355	-0.192699	0.499963
C151	C	1.009323	-0.768877	-0.000022
C152	C	1.509323	-0.268877	0.499978
H153	H	0.949882	-0.771792	-0.027754
H154	H	1.449882	-0.271792	0.472246
H155	H	1.052894	-0.804719	-0.042541
H156	H	1.552894	-0.304719	0.457459
H157	H	1.012228	-0.791721	0.070240
H158	H	1.512228	-0.291721	0.570240
H159	H	0.266834	0.099889	0.144848
H160	H	0.766834	0.599889	0.644848
H161	H	0.266837	0.099873	-0.144849
H162	H	0.766837	0.599873	0.355151
H163	H	0.520930	0.103941	-0.144839
H164	H	1.020930	0.603941	0.355161
H165	H	0.987429	0.008419	0.416383
H166	H	1.487429	0.508419	0.916383
H167	H	0.766721	-0.508528	-0.000014
H168	H	1.266721	-0.008528	0.499986
H169	H	1.023333	-0.144431	0.000028
H170	H	1.523333	0.355569	0.500028
O171	O	0.759921	-0.259320	0.000036
O172	O	1.259921	0.240680	0.500036
C173	C	0.773457	-0.339422	0.000016
C174	C	1.273457	0.160578	0.500016
H175	H	0.832554	-0.358073	0.027746
H176	H	1.332554	0.141927	0.527746
H177	H	0.728929	-0.363580	0.042536
H178	H	1.228929	0.136420	0.542536
H179	H	0.769833	-0.361387	-0.070246
H180	H	1.269833	0.138613	0.429754
O181	O	0.995461	0.000351	0.591008
O182	O	1.495461	0.500351	1.091008
C183	C	0.984424	0.011411	0.682260
C184	C	1.484424	0.511411	1.182260
H185	H	0.924200	0.039775	0.694856
H186	H	1.424200	0.539775	1.194856
H187	H	0.992954	-0.045919	0.717300
H188	H	1.492954	0.454081	1.217300
H189	H	1.027190	0.049318	0.708413
H190	H	1.527190	0.549318	1.208413
H191	H	1.021041	-0.287639	0.000015
H192	H	1.521041	0.212361	0.500015
