data_functionalizedCrystal
_audit_creation_method	'MofGen! by Chris Wilmer'
_symmetry_space_group_name_H-M	'P1'
_symmetry_Int_Tables_number	1
_symmetry_cell_setting	triclinic
loop_
_symmetry_equiv_pos_as_xyz
  x,y,z
_cell_length_a	6.817900
_cell_length_b	11.168121
_cell_length_c	14.858572
_cell_angle_alpha	93.498084
_cell_angle_beta	104.524003
_cell_angle_gamma	108.508496
loop_
_atom_site_label
_atom_site_type_symbol
_atom_site_fract_x
_atom_site_fract_y
_atom_site_fract_z
V1	V	-4.064038	-0.175499	-0.289968
O2	O	-4.024496	0.007616	-0.284440
O3	O	-4.040638	-0.347199	-0.287992
O4	O	-4.020335	-0.173159	-0.416429
O5	O	-4.044940	-0.167630	-0.155114
V6	V	-4.543818	-0.153554	-0.273837
O7	O	-4.333507	-0.223638	-0.325352
O8	O	-4.724546	-0.105416	-0.238454
O9	O	-4.344011	0.018146	-0.275813
O10	O	-4.700756	-0.336669	-0.279365
O11	O	-4.680313	-0.161424	-0.408691
O12	O	-4.364314	-0.155895	-0.147376
C13	C	-3.891568	-0.389045	-0.283420
C14	C	-3.953754	-0.529414	-0.282648
C15	C	-4.155620	-0.598118	-0.286714
C16	C	-4.219897	-0.743197	-0.285916
C17	C	-3.865669	-0.167037	-0.447253
C18	C	-3.911386	-0.166259	-0.550636
C19	C	-4.078711	-0.163417	-0.929204
C20	C	-4.032148	-0.164208	-0.823875
C21	C	-3.995050	-0.164839	-0.739924
C22	C	-3.948483	-0.165628	-0.634587
C23	C	-4.156424	0.059985	-0.280383
C24	C	-4.073476	0.200352	-0.281161
C25	C	-4.182323	-0.162021	-0.116547
C26	C	-4.115844	-0.162792	-0.013163
H27	H	-3.900539	-0.740595	-0.277677
O28	O	-4.426341	-0.813539	-0.290196
C29	C	-4.567657	-0.802706	-0.374127
H30	H	-4.487985	-0.710867	-0.400320
H31	H	-4.723468	-0.800320	-0.360197
H32	H	-4.605792	-0.888171	-0.429731
O33	O	-3.804070	-0.587194	-0.277660
C34	C	-3.634308	-0.533804	-0.194081
H35	H	-3.629101	-0.434041	-0.168945
H36	H	-3.474616	-0.527436	-0.208056
H37	H	-3.661931	-0.596760	-0.137660
H38	H	-4.280862	-0.549532	-0.290792
