data_functionalizedCrystal
_audit_creation_method	'MofGen! by Chris Wilmer'
_symmetry_space_group_name_H-M	'P1'
_symmetry_Int_Tables_number	1
_symmetry_cell_setting	triclinic
loop_
_symmetry_equiv_pos_as_xyz
  x,y,z
_cell_length_a	16.625546
_cell_length_b	13.033652
_cell_length_c	13.032268
_cell_angle_alpha	76.703346
_cell_angle_beta	97.144614
_cell_angle_gamma	82.784335
loop_
_atom_site_label
_atom_site_type_symbol
_atom_site_fract_x
_atom_site_fract_y
_atom_site_fract_z
Zn1	Zn	-0.207827	-1.547417	-0.394618
Zn2	Zn	0.125507	-1.214084	-0.061285
Zn3	Zn	0.458840	-0.880751	0.272048
Zn4	Zn	-0.323074	-1.569859	-0.217025
Zn5	Zn	0.010259	-1.236526	0.116308
Zn6	Zn	0.343592	-0.903193	0.449642
Zn7	Zn	-0.207880	-1.392371	-0.239555
Zn8	Zn	0.125453	-1.059037	0.093778
Zn9	Zn	0.458786	-0.725704	0.427112
Zn10	Zn	-0.362251	-1.369773	-0.417082
Zn11	Zn	-0.028917	-1.036440	-0.083749
Zn12	Zn	0.304416	-0.703107	0.249584
O13	O	-0.275258	-1.469855	-0.317070
O14	O	0.058075	-1.136522	0.016263
O15	O	0.391409	-0.803188	0.349597
O16	O	-0.206697	-1.699019	-0.352230
O17	O	0.126636	-1.365685	-0.018897
O18	O	0.459970	-1.032352	0.314437
O19	O	-0.291421	-1.565164	-0.071395
O20	O	0.041913	-1.231831	0.261939
O21	O	0.375246	-0.898497	0.595272
O22	O	-0.095037	-1.413003	-0.260152
O23	O	0.238296	-1.079670	0.073181
O24	O	0.571630	-0.746336	0.406515
O25	O	-0.291369	-1.715507	-0.221753
O26	O	0.041964	-1.382173	0.111580
O27	O	0.375298	-1.048840	0.444913
O28	O	-0.094998	-1.526915	-0.374076
O29	O	0.238336	-1.193582	-0.040743
O30	O	0.571669	-0.860249	0.292590
O31	O	-0.206788	-1.434764	-0.087947
O32	O	0.126545	-1.101430	0.245386
O33	O	0.459879	-0.768097	0.578720
O34	O	-0.244775	-1.240749	-0.281934
O35	O	0.088558	-0.907415	0.051399
O36	O	0.421891	-0.574082	0.384732
O37	O	-0.358139	-1.374489	-0.562721
O38	O	-0.024806	-1.041156	-0.229388
O39	O	0.308528	-0.707823	0.103945
O40	O	-0.358191	-1.224147	-0.412363
O41	O	-0.024857	-0.890813	-0.079029
O42	O	0.308476	-0.557480	0.254304
O43	O	-0.244684	-1.505004	-0.546217
O44	O	0.088649	-1.171670	-0.212884
O45	O	0.421982	-0.838337	0.120449
O46	O	-0.441107	-1.543252	-0.243535
O47	O	-0.107774	-1.209919	0.089798
O48	O	0.225559	-0.876586	0.423131
O49	O	-0.469890	-1.396250	-0.390517
O50	O	-0.136557	-1.062917	-0.057183
O51	O	0.196777	-0.729584	0.276150
C52	C	-0.305741	-1.193911	-0.352032
C53	C	0.027593	-0.860578	-0.018698
C54	C	0.360926	-0.527244	0.314635
C55	C	-0.318803	-1.075858	-0.367013
C56	C	0.014530	-0.742524	-0.033680
C57	C	0.347863	-0.409191	0.299653
C58	C	-0.268450	-1.031399	-0.309263
C59	C	0.064884	-0.698066	0.024070
C60	C	0.398217	-0.364733	0.357404
C61	C	-0.281950	-0.909385	-0.324746
C62	C	0.051384	-0.576052	0.008587
C63	C	0.384717	-0.242718	0.341921
C64	C	-0.484755	-1.469760	-0.317038
C65	C	-0.151422	-1.136427	0.016295
C66	C	0.181912	-0.803094	0.349628
C67	C	-0.574372	-1.469812	-0.317048
C68	C	-0.241039	-1.136479	0.016285
C69	C	0.092295	-0.803146	0.349619
C70	C	-0.902539	-1.469984	-0.317135
C71	C	-0.569206	-1.136650	0.016198
C72	C	-0.235873	-0.803317	0.349532
C73	C	-0.811234	-1.469932	-0.317114
C74	C	-0.477901	-1.136599	0.016219
C75	C	-0.144567	-0.803266	0.349552
C76	C	-0.738459	-1.469897	-0.317091
C77	C	-0.405125	-1.136564	0.016242
C78	C	-0.071792	-0.803231	0.349576
C79	C	-0.647147	-1.469847	-0.317071
C80	C	-0.313814	-1.136514	0.016262
C81	C	0.019519	-0.803181	0.349596
C82	C	-0.064942	-1.469976	-0.317122
C83	C	0.268391	-1.136643	0.016212
C84	C	0.601724	-0.803310	0.349545
C85	C	0.024682	-1.470028	-0.317143
C86	C	0.358015	-1.136695	0.016190
C87	C	0.691349	-0.803361	0.349523
C88	C	-0.305776	-1.434723	-0.594082
C89	C	0.027558	-1.101389	-0.260749
C90	C	0.360891	-0.768056	0.072584
C91	C	-0.318781	-1.419751	-0.712128
C92	C	0.014553	-1.086418	-0.378795
C93	C	0.347886	-0.753084	-0.045462
C94	C	-0.244650	-0.746878	-0.281966
C95	C	0.088683	-0.413544	0.051368
C96	C	0.422017	-0.080211	0.384701
C97	C	-0.231589	-0.864931	-0.266988
C98	C	0.101744	-0.531597	0.066346
C99	C	0.435078	-0.198264	0.399679
C100	C	-0.268444	-1.477652	-0.756591
C101	C	0.064890	-1.144319	-0.423258
C102	C	0.398223	-0.810986	-0.089924
C103	C	-0.281883	-1.462180	-0.878597
C104	C	0.051450	-1.128847	-0.545264
C105	C	0.384783	-0.795513	-0.211931
C106	C	-0.244794	-1.504912	-0.041128
C107	C	0.088539	-1.171579	0.292205
C108	C	0.421873	-0.838246	0.625539
C109	C	-0.231539	-1.520089	0.076944
C110	C	0.101794	-1.186756	0.410277
C111	C	0.435127	-0.853423	0.743610
H112	H	-0.178483	-0.917194	-0.206075
H113	H	0.154850	-0.583861	0.127258
H114	H	0.488183	-0.250528	0.460592
H115	H	-0.178486	-1.581114	-0.870803
H116	H	0.154847	-1.247781	-0.537470
H117	H	0.488180	-0.914447	-0.204137
H118	H	-0.215349	-1.083668	-0.248354
H119	H	0.117985	-0.750335	0.084979
H120	H	0.451318	-0.417001	0.418312
H121	H	-0.335059	-0.857121	-0.385652
H122	H	-0.001726	-0.523787	-0.052319
H123	H	0.331608	-0.190454	0.281015
O124	O	-0.382060	-1.013448	-0.439795
O125	O	-0.048726	-0.680115	-0.106461
O126	O	0.284607	-0.346782	0.226872
C127	C	-0.350848	-0.940585	-0.516561
C128	C	-0.017515	-0.607251	-0.183227
C129	C	0.315818	-0.273918	0.150106
H130	H	-0.284408	-0.973251	-0.519047
H131	H	0.048925	-0.639918	-0.185713
H132	H	0.382258	-0.306584	0.147620
H133	H	-0.389252	-0.928864	-0.598397
H134	H	-0.055918	-0.595530	-0.265064
H135	H	0.277415	-0.262197	0.068270
H136	H	-0.353647	-0.860722	-0.494315
H137	H	-0.020313	-0.527388	-0.160982
H138	H	0.313020	-0.194055	0.172351
H139	H	-0.215396	-1.538674	-0.704333
H140	H	0.117938	-1.205341	-0.370999
H141	H	0.451271	-0.872008	-0.037666
O142	O	-0.345267	-1.389437	-0.940803
O143	O	-0.011933	-1.056104	-0.607470
O144	O	0.321400	-0.722770	-0.274137
C145	C	-0.420111	-1.416024	-0.910836
C146	C	-0.086778	-1.082690	-0.577502
C147	C	0.246555	-0.749357	-0.244169
H148	H	-0.408459	-1.466997	-0.825106
H149	H	-0.075126	-1.133664	-0.491772
H150	H	0.258207	-0.800330	-0.158439
H151	H	-0.464333	-1.339817	-0.916855
H152	H	-0.131000	-1.006484	-0.583522
H153	H	0.202333	-0.673150	-0.250188
H154	H	-0.448063	-1.462754	-0.966312
H155	H	-0.114730	-1.129421	-0.632978
H156	H	0.218604	-0.796087	-0.299645
H157	H	-0.371821	-1.358718	-0.764388
H158	H	-0.038488	-1.025385	-0.431055
H159	H	0.294845	-0.692052	-0.097721
