data_functionalizedCrystal
_audit_creation_method	'MofGen! by Chris Wilmer'
_symmetry_space_group_name_H-M	'P1'
_symmetry_Int_Tables_number	1
_symmetry_cell_setting	triclinic
loop_
_symmetry_equiv_pos_as_xyz
  x,y,z
_cell_length_a	6.817900
_cell_length_b	9.514072
_cell_length_c	9.170575
_cell_angle_alpha	80.286364
_cell_angle_beta	112.461472
_cell_angle_gamma	118.843421
loop_
_atom_site_label
_atom_site_type_symbol
_atom_site_fract_x
_atom_site_fract_y
_atom_site_fract_z
V1	V	-4.167780	-0.153157	-0.487210
O2	O	-4.065297	0.078232	-0.476679
O3	O	-4.202306	-0.371848	-0.485087
O4	O	-4.142571	-0.119704	-0.699148
O5	O	-4.125445	-0.175657	-0.261136
V6	V	-4.637658	-0.129155	-0.460023
O7	O	-4.458971	-0.205809	-0.546848
O8	O	-4.796664	-0.076504	-0.400386
O9	O	-4.379925	0.089535	-0.462147
O10	O	-4.857538	-0.360545	-0.470554
O11	O	-4.797389	-0.106655	-0.686098
O12	O	-4.439660	-0.162609	-0.248085
C13	C	-4.066730	-0.426132	-0.477713
C14	C	-4.176401	-0.604714	-0.477389
C15	C	-3.990531	-0.104495	-0.750767
C16	C	-4.051752	-0.078590	-0.924036
C17	C	-4.178846	0.143810	-0.469517
C18	C	-4.048415	0.322392	-0.469851
C19	C	-4.255044	-0.177824	-0.196458
C20	C	-4.173058	-0.203721	-0.023188
H21	H	-3.994734	0.048341	-0.971705
O22	O	-4.240785	-0.355201	-0.966440
C23	C	-4.214714	-0.601729	-0.947928
C24	C	-4.137997	-0.430249	-1.012362
H25	H	-4.131604	-0.662444	-0.985002
H26	H	-4.417657	-0.673436	-0.997332
H27	H	-4.151543	-0.596210	-0.813635
H28	H	-4.201004	-0.435618	-1.146649
H29	H	-3.935054	-0.358610	-0.962837
O30	O	-3.817485	-0.588909	-0.462155
C31	C	-3.422975	-0.388651	-0.317490
C32	C	-3.684446	-0.488987	-0.326034
H33	H	-3.315327	-0.307865	-0.207428
H34	H	-3.415643	-0.311626	-0.426814
H35	H	-3.344349	-0.472284	-0.311856
H36	H	-3.763234	-0.405474	-0.331618
H37	H	-3.691618	-0.566029	-0.216712
O38	O	-4.407149	-0.693411	-0.484656
C39	C	-4.677186	-0.888690	-0.357632
C40	C	-4.415778	-0.788367	-0.349225
H41	H	-4.684244	-0.965462	-0.248135
H42	H	-4.784963	-0.969724	-0.467525
H43	H	-4.755871	-0.805054	-0.363418
H44	H	-4.336879	-0.871881	-0.343379
H45	H	-4.308169	-0.707316	-0.239350
