data_functionalizedCrystal
_audit_creation_method	'MofGen! by Chris Wilmer'
_symmetry_space_group_name_H-M	'P1'
_symmetry_Int_Tables_number	1
_symmetry_cell_setting	triclinic
loop_
_symmetry_equiv_pos_as_xyz
  x,y,z
_cell_length_a	12.811438
_cell_length_b	11.892095
_cell_length_c	16.109301
_cell_angle_alpha	93.886619
_cell_angle_beta	96.244781
_cell_angle_gamma	88.501043
loop_
_atom_site_label
_atom_site_type_symbol
_atom_site_fract_x
_atom_site_fract_y
_atom_site_fract_z
O1	O	1.389162	-0.048423	-0.114724
O2	O	1.889162	0.451577	0.385276
O3	O	1.085799	-0.017317	-0.125146
O4	O	1.585799	0.482683	0.374854
O5	O	1.245814	-0.033736	0.001016
O6	O	1.745814	0.466264	0.501016
O7	O	1.229148	-0.032004	-0.240887
O8	O	1.729148	0.467996	0.259113
O9	O	1.232472	-0.220374	-0.009487
O10	O	1.732472	0.279626	0.490513
O11	O	1.072457	-0.203955	-0.135649
O12	O	1.572457	0.296045	0.364351
O13	O	1.375821	-0.235062	-0.125227
O14	O	1.875821	0.264938	0.374773
Zn15	Zn	1.222021	-0.249141	-0.132106
Zn16	Zn	1.722021	0.250859	0.367894
Zn17	Zn	1.239599	-0.003237	-0.118268
Zn18	Zn	1.739599	0.496763	0.381732
O19	O	1.215806	-0.218643	-0.251389
O20	O	1.715806	0.281357	0.248611
C21	C	1.040309	-0.106656	-0.129491
C22	C	1.540309	0.393344	0.370509
C23	C	0.924640	-0.094796	-0.126779
C24	C	1.424640	0.405204	0.373221
C25	C	0.768879	0.023645	-0.117232
C26	C	1.268879	0.523645	0.382768
C27	C	0.877561	0.012510	-0.119779
C28	C	1.377561	0.512510	0.380221
C29	C	0.863030	-0.190975	-0.131229
C30	C	1.363030	0.309025	0.368771
C31	C	0.754347	-0.179840	-0.128682
C32	C	1.254347	0.320160	0.371318
C33	C	0.707276	-0.072527	-0.121685
C34	C	1.207276	0.427473	0.378315
C35	C	0.598591	-0.061394	-0.119143
C36	C	1.098591	0.438606	0.380857
C37	C	0.584063	-0.264878	-0.130588
C38	C	1.084063	0.235122	0.369412
C39	C	0.692745	-0.276012	-0.133135
C40	C	1.192745	0.223988	0.366865
N41	N	1.210032	-0.416965	-0.141549
N42	N	1.710032	0.083035	0.358451
C43	C	1.335022	-0.666438	-0.043057
C44	C	1.835022	-0.166438	0.456943
C45	C	1.326649	-0.783921	-0.049664
C46	C	1.826649	-0.283921	0.450336
C47	C	1.184909	-0.769415	-0.161366
C48	C	1.684909	-0.269415	0.338634
C49	C	1.193282	-0.651932	-0.154759
C50	C	1.693282	-0.151932	0.345241
C51	C	1.268342	-0.600449	-0.095603
C52	C	1.768342	-0.100449	0.404397
C53	C	1.276719	-0.482964	-0.089001
C54	C	1.776719	0.017036	0.410999
C55	C	1.134974	-0.468460	-0.200698
C56	C	1.634974	0.031540	0.299302
C57	C	1.126602	-0.585943	-0.207305
C58	C	1.626602	-0.085943	0.292695
C59	C	1.421311	-0.145720	-0.120882
C60	C	1.921311	0.354280	0.379118
C61	C	1.536980	-0.157573	-0.123594
C62	C	2.036980	0.342427	0.376406
C63	C	1.238468	-0.126987	0.026746
C64	C	1.738468	0.373013	0.526746
C65	C	1.236443	-0.126781	0.119060
C66	C	1.736443	0.373219	0.619060
N67	N	1.251596	0.164586	-0.108818
N68	N	1.751596	0.664586	0.391182
C69	C	1.223152	-0.125390	-0.277119
C70	C	1.723152	0.374610	0.222881
C71	C	1.225177	-0.125588	-0.369433
C72	C	1.725177	0.374412	0.130567
C73	C	1.326688	-0.136016	0.340478
C74	C	1.826688	0.363984	0.840478
C75	C	1.324779	-0.135811	0.427217
C76	C	1.824779	0.364189	0.927217
C77	C	1.134925	-0.116348	0.409143
C78	C	1.634925	0.383652	0.909143
C79	C	1.136836	-0.116546	0.322406
C80	C	1.636836	0.383454	0.822406
C81	C	1.232720	-0.126385	0.288076
C82	C	1.732720	0.373615	0.788076
C83	C	1.228900	-0.125983	0.461552
C84	C	1.728900	0.374017	0.961552
C85	C	1.226829	-0.125761	0.555598
C86	C	1.726829	0.374239	1.055598
C87	C	1.234792	-0.126606	0.194024
C88	C	1.734792	0.373394	0.694024
H89	H	0.927714	0.090824	-0.116153
H90	H	1.427714	0.590824	0.383847
F91	F	0.913145	-0.305175	-0.138675
F92	F	1.413145	0.194825	0.361325
F93	F	0.742853	-0.390216	-0.140583
F94	F	1.242853	0.109784	0.359417
H95	H	1.401297	-0.143651	0.469880
H96	H	1.901297	0.356349	0.969880
F97	F	0.718777	0.137853	-0.109795
F98	F	1.218777	0.637853	0.390205
H99	H	0.533893	-0.343189	-0.134218
H100	H	1.033893	0.156811	0.365782
H101	H	1.056860	-0.108339	0.437105
H102	H	1.556860	0.391661	0.937105
H103	H	0.560267	0.025986	-0.113449
H104	H	1.060267	0.525986	0.386551
F105	F	1.356606	-0.428174	-0.026046
F106	F	1.856606	0.071826	0.473954
H107	H	1.396146	-0.624520	0.005104
H108	H	1.896146	-0.124520	0.505104
F109	F	1.397618	-0.854149	0.006264
F110	F	1.897618	-0.354149	0.506264
H111	H	1.080682	-0.414717	-0.243487
H112	H	1.580682	0.085283	0.256513
F113	F	1.105020	-0.824220	-0.224312
F114	F	1.605020	-0.324220	0.275688
F115	F	1.046718	-0.640745	-0.270257
F116	F	1.546718	-0.140745	0.229743
F117	F	1.036818	-0.106286	0.266632
F118	F	1.536818	0.393714	0.766632
H119	H	1.404763	-0.144026	0.312529
H120	H	1.904763	0.355974	0.812529
