data_functionalizedCrystal
_audit_creation_method	'MofGen! by Chris Wilmer'
_symmetry_space_group_name_H-M	'P1'
_symmetry_Int_Tables_number	1
_symmetry_cell_setting	triclinic
loop_
_symmetry_equiv_pos_as_xyz
  x,y,z
_cell_length_a	16.120484
_cell_length_b	16.959455
_cell_length_c	16.959447
_cell_angle_alpha	89.985678
_cell_angle_beta	92.866538
_cell_angle_gamma	92.922454
loop_
_atom_site_label
_atom_site_type_symbol
_atom_site_fract_x
_atom_site_fract_y
_atom_site_fract_z
Zn1	Zn	-0.331957	1.192394	-0.462851
Zn2	Zn	0.001376	1.525727	-0.129518
Zn3	Zn	0.334709	1.859061	0.203816
Zn4	Zn	-0.471386	1.185600	-0.337369
Zn5	Zn	-0.138052	1.518934	-0.004035
Zn6	Zn	0.195281	1.852267	0.329298
Zn7	Zn	-0.331984	1.060221	-0.330690
Zn8	Zn	0.001350	1.393554	0.002644
Zn9	Zn	0.334683	1.726888	0.335977
Zn10	Zn	-0.471323	1.053474	-0.469504
Zn11	Zn	-0.137990	1.386807	-0.136171
Zn12	Zn	0.195343	1.720141	0.197162
O13	O	-0.401662	1.122922	-0.400103
O14	O	-0.068329	1.456256	-0.066770
O15	O	0.265004	1.789589	0.266563
O16	O	-0.350468	1.302103	-0.446216
O17	O	-0.017135	1.635436	-0.112883
O18	O	0.316199	1.968769	0.220450
O19	O	-0.452931	1.168949	-0.225874
O20	O	-0.119597	1.502282	0.107460
O21	O	0.213736	1.835616	0.440793
O22	O	-0.215315	1.083421	-0.342642
O23	O	0.118019	1.416754	-0.009309
O24	O	0.451352	1.750088	0.324025
O25	O	-0.452905	1.297112	-0.354025
O26	O	-0.119572	1.630445	-0.020692
O27	O	0.213761	1.963778	0.312642
O28	O	-0.215296	1.180528	-0.439740
O29	O	0.118038	1.513861	-0.106407
O30	O	0.451371	1.847194	0.226927
O31	O	-0.350513	1.076833	-0.220967
O32	O	-0.017179	1.410167	0.112367
O33	O	0.316154	1.743500	0.445700
O34	O	-0.350452	0.948716	-0.349093
O35	O	-0.017119	1.282049	-0.015760
O36	O	0.316215	1.615383	0.317574
O37	O	-0.452799	1.071921	-0.579231
O38	O	-0.119466	1.405255	-0.245897
O39	O	0.213868	1.738588	0.087436
O40	O	-0.452824	0.943759	-0.451079
O41	O	-0.119491	1.277092	-0.117746
O42	O	0.213842	1.610425	0.215587
O43	O	-0.350408	1.173985	-0.574343
O44	O	-0.017074	1.507319	-0.241009
O45	O	0.316259	1.840652	0.092324
O46	O	-0.588043	1.162407	-0.360476
O47	O	-0.254709	1.495740	-0.027143
O48	O	0.078624	1.829073	0.306191
O49	O	-0.587997	1.065334	-0.457556
O50	O	-0.254663	1.398667	-0.124222
O51	O	0.078670	1.732001	0.209111
C52	C	-0.401635	0.917557	-0.400084
C53	C	-0.068302	1.250891	-0.066751
C54	C	0.265032	1.584224	0.266583
C55	C	-0.401643	0.829700	-0.400095
C56	C	-0.068310	1.163034	-0.066762
C57	C	0.265023	1.496367	0.266571
C58	C	-0.618270	1.112422	-0.410480
C59	C	-0.284936	1.445756	-0.077146
C60	C	0.048397	1.779089	0.256187
C61	C	-0.710935	1.108003	-0.414945
C62	C	-0.377602	1.441336	-0.081612
C63	C	-0.044268	1.774670	0.251721
C64	C	-0.348314	0.460783	-0.347103
C65	C	-0.014980	0.794116	-0.013769
C66	C	0.318353	1.127449	0.319564
C67	C	-0.455080	0.455662	-0.453153
C68	C	-0.121747	0.788995	-0.119819
C69	C	0.211587	1.122328	0.213514
C70	C	-0.455068	0.538208	-0.453147
C71	C	-0.121735	0.871541	-0.119814
C72	C	0.211599	1.204875	0.213519
C73	C	-0.401679	0.582046	-0.400118
C74	C	-0.068346	0.915379	-0.066785
C75	C	0.264988	1.248712	0.266549
C76	C	-0.348302	0.543337	-0.347094
C77	C	-0.014968	0.876670	-0.013761
C78	C	0.318365	1.210003	0.319573
C79	C	-0.508450	0.576923	-0.506165
C80	C	-0.175117	0.910256	-0.172832
C81	C	0.158217	1.243590	0.160502
C82	C	-0.508441	0.659474	-0.506161
C83	C	-0.175108	0.992808	-0.172828
C84	C	0.158226	1.326141	0.160506
C85	C	-0.455047	0.703314	-0.453135
C86	C	-0.121714	1.036647	-0.119802
C87	C	0.211620	1.369980	0.213532
C88	C	-0.401667	0.664600	-0.400109
C89	C	-0.068334	0.997933	-0.066776
C90	C	0.265000	1.331266	0.266557
C91	C	-0.348278	0.708437	-0.347080
C92	C	-0.014945	1.041771	-0.013747
C93	C	0.318389	1.375104	0.319587
C94	C	-0.294893	0.669725	-0.294058
C95	C	0.038440	1.003059	0.039276
C96	C	0.371774	1.336392	0.372609
C97	C	-0.294908	0.587176	-0.294068
C98	C	0.038426	0.920509	0.039266
C99	C	0.371759	1.253843	0.372599
C100	C	-0.455032	0.785863	-0.453125
C101	C	-0.121699	1.119196	-0.119791
C102	C	0.211634	1.452529	0.213542
C103	C	-0.348266	0.790991	-0.347071
C104	C	-0.014933	1.124325	-0.013738
C105	C	0.318401	1.457658	0.319595
C106	C	-0.880596	1.099938	-0.423114
C107	C	-0.547263	1.433272	-0.089781
C108	C	-0.213929	1.766605	0.243552
C109	C	-0.921888	1.146048	-0.377106
C110	C	-0.588555	1.479381	-0.043772
C111	C	-0.255222	1.812714	0.289561
C112	C	-1.016293	1.141561	-0.381651
C113	C	-0.682960	1.474894	-0.048318
C114	C	-0.349627	1.808227	0.285016
C115	C	-0.786182	1.104424	-0.418570
C116	C	-0.452849	1.437758	-0.085237
C117	C	-0.119516	1.771091	0.248097
C118	C	-0.184209	1.133485	-0.389704
C119	C	0.149124	1.466818	-0.056371
C120	C	0.482457	1.800151	0.276963
C121	C	-0.091544	1.137986	-0.385272
C122	C	0.241789	1.471319	-0.051939
C123	C	0.575123	1.804652	0.281394
C124	C	-0.401593	1.122959	-0.606268
C125	C	-0.068260	1.456292	-0.272935
C126	C	0.265073	1.789625	0.060398
C127	C	-0.401564	1.122974	-0.694124
C128	C	-0.068231	1.456307	-0.360790
C129	C	0.265103	1.789641	-0.027457
C130	C	-0.401691	1.329089	-0.400123
C131	C	-0.068357	1.662422	-0.066790
C132	C	0.264976	1.995756	0.266543
C133	C	-0.401703	1.416945	-0.400132
C134	C	-0.068369	1.750278	-0.066799
C135	C	0.264964	2.083612	0.266535
C136	C	-0.454787	1.069933	-1.068143
C137	C	-0.121453	1.403266	-0.734809
C138	C	0.211880	1.736599	-0.401476
C139	C	-0.348166	1.176213	-1.063048
C140	C	-0.014832	1.509546	-0.729715
C141	C	0.318501	1.842879	-0.396381
C142	C	-0.348183	1.176191	-0.980503
C143	C	-0.014850	1.509524	-0.647169
C144	C	0.318483	1.842857	-0.313836
C145	C	-0.401504	1.123040	-0.941774
C146	C	-0.068171	1.456373	-0.608441
C147	C	0.265162	1.789706	-0.275107
C148	C	-0.454808	1.069911	-0.985590
C149	C	-0.121474	1.403244	-0.652257
C150	C	0.211859	1.736577	-0.318923
C151	C	-0.294887	1.229324	-0.936681
C152	C	0.038446	1.562658	-0.603347
C153	C	0.371780	1.895991	-0.270014
C154	C	-0.294903	1.229305	-0.854130
C155	C	0.038430	1.562638	-0.520797
C156	C	0.371764	1.895972	-0.187464
C157	C	-0.348221	1.176150	-0.815400
C158	C	-0.014887	1.509483	-0.482067
C159	C	0.318446	1.842816	-0.148733
C160	C	-0.401525	1.123018	-0.859221
C161	C	-0.068192	1.456351	-0.525888
C162	C	0.265141	1.789684	-0.192555
C163	C	-0.454846	1.069867	-0.820492
C164	C	-0.121513	1.403200	-0.487159
C165	C	0.211820	1.736533	-0.153826
C166	C	-0.508148	1.016731	-0.864312
C167	C	-0.174814	1.350064	-0.530979
C168	C	0.158519	1.683397	-0.197646
C169	C	-0.508125	1.016755	-0.946860
C170	C	-0.174792	1.350089	-0.613526
C171	C	0.158542	1.683422	-0.280193
C172	C	-0.348243	1.176125	-0.732853
C173	C	-0.014910	1.509458	-0.399519
C174	C	0.318424	1.842792	-0.066186
C175	C	-0.454867	1.069845	-0.737940
C176	C	-0.121534	1.403178	-0.404607
C177	C	0.211799	1.736512	-0.071273
C178	C	-0.401671	1.122935	-0.194738
C179	C	-0.068338	1.456268	0.138596
C180	C	0.264996	1.789601	0.471929
C181	C	-0.401466	1.123084	-0.106872
C182	C	-0.068132	1.456417	0.226462
C183	C	0.265201	1.789750	0.559795
H184	H	-0.304784	0.826679	-0.303892
H185	H	0.028549	1.160012	0.029441
H186	H	0.361882	1.493345	0.362774
H187	H	-0.886339	1.188892	-0.334302
H188	H	-0.553006	1.522226	-0.000969
H189	H	-0.219672	1.855559	0.332365
F190	F	-0.238079	0.716389	-0.237618
F191	F	0.095254	1.049723	0.095716
F192	F	0.428588	1.383056	0.429049
H193	H	-0.916143	1.057096	-0.465913
H194	H	-0.582810	1.390429	-0.132580
H195	H	-0.249476	1.723763	0.200753
F196	F	-0.511616	1.013269	-0.696728
F197	F	-0.178283	1.346602	-0.363395
F198	F	0.155051	1.679936	-0.030062
F199	F	-0.291525	1.232677	-0.686221
F200	F	0.041808	1.566010	-0.352887
F201	F	0.375141	1.899343	-0.019554
F202	F	-0.511508	1.013382	-1.114778
F203	F	-0.178175	1.346715	-0.781444
F204	F	0.155158	1.680049	-0.448111
F205	F	-0.564898	0.960169	-0.823085
F206	F	-0.231565	1.293502	-0.489751
F207	F	0.101769	1.626836	-0.156418
H208	H	-0.551523	0.973497	-0.982545
H209	H	-0.218189	1.306830	-0.649212
H210	H	0.115144	1.640164	-0.315878
F211	F	-0.511912	0.409004	-0.509574
F212	F	-0.178578	0.742338	-0.176240
F213	F	0.154755	1.075671	0.157093
F214	F	-0.291427	1.232781	-1.104268
F215	F	0.041907	1.566115	-0.770935
F216	F	0.375240	1.899448	-0.437602
H217	H	-0.251481	1.272602	-0.968220
H218	H	0.081852	1.605935	-0.634887
H219	H	0.415186	1.939268	-0.301553
H220	H	-0.251446	0.555649	-0.250899
H221	H	0.081888	0.888982	0.082434
H222	H	0.415221	1.222316	0.415768
H223	H	-0.251501	1.272571	-0.818459
H224	H	0.081832	1.605905	-0.485126
H225	H	0.415165	1.939238	-0.151793
H226	H	-0.304847	0.429260	-0.303935
H227	H	0.028487	0.762593	0.029398
H228	H	0.361820	1.095926	0.362731
F229	F	-0.511849	0.827059	-0.509547
F230	F	-0.178515	1.160393	-0.176213
F231	F	0.154818	1.493726	0.157120
H232	H	-0.551923	0.541224	-0.549333
H233	H	-0.218589	0.874558	-0.216000
H234	H	0.114744	1.207891	0.117333
H235	H	-0.551910	0.690987	-0.549336
H236	H	-0.218576	1.024320	-0.216002
H237	H	0.114757	1.357653	0.117331
