data_functionalizedCrystal
_audit_creation_method	'MofGen! by Chris Wilmer'
_symmetry_space_group_name_H-M	'P1'
_symmetry_Int_Tables_number	1
_symmetry_cell_setting	triclinic
loop_
_symmetry_equiv_pos_as_xyz
  x,y,z
_cell_length_a	19.188930
_cell_length_b	19.188925
_cell_length_c	9.730223
_cell_angle_alpha	90.000965
_cell_angle_beta	90.014074
_cell_angle_gamma	83.143665
loop_
_atom_site_label
_atom_site_type_symbol
_atom_site_fract_x
_atom_site_fract_y
_atom_site_fract_z
O1	O	-0.926139	-0.087165	-0.114731
O2	O	-0.426139	0.412835	0.385269
O3	O	-0.722828	-0.098899	-0.114636
O4	O	-0.222828	0.401101	0.385364
O5	O	-0.830352	0.008624	-0.114678
O6	O	-0.330352	0.508624	0.385322
O7	O	-0.818614	-0.194688	-0.114688
O8	O	-0.318614	0.305312	0.385312
O9	O	-0.830351	0.008621	0.113902
O10	O	-0.330351	0.508621	0.613902
O11	O	-0.722826	-0.098902	0.113944
O12	O	-0.222826	0.401098	0.613944
O13	O	-0.926138	-0.087168	0.113849
O14	O	-0.426138	0.412832	0.613849
Zn15	Zn	-0.824482	-0.093035	0.150189
Zn16	Zn	-0.324482	0.406965	0.650189
Zn17	Zn	-0.824484	-0.093032	-0.150975
Zn18	Zn	-0.324484	0.406968	0.349025
O19	O	-0.818613	-0.194691	0.113891
O20	O	-0.318613	0.305309	0.613891
C21	C	-0.696816	-0.098520	-0.000334
C22	C	-0.196816	0.401480	0.499666
C23	C	-0.619311	-0.097380	-0.000298
C24	C	-0.119311	0.402620	0.499702
C25	C	-0.829972	0.034634	-0.000389
C26	C	-0.329972	0.534634	0.499611
C27	C	-0.828833	0.112138	-0.000391
C28	C	-0.328833	0.612138	0.499609
C29	C	-0.952149	-0.087546	-0.000456
C30	C	-0.452149	0.412454	0.499544
C31	C	-1.029654	-0.088687	-0.000501
C32	C	-0.529654	0.411313	0.499499
C33	C	-0.574386	-0.160471	-0.000323
C34	C	-0.074386	0.339529	0.499677
C35	C	-0.501563	-0.159399	-0.000338
C36	C	-0.001563	0.340601	0.499662
C37	C	-0.473667	-0.095233	-0.000356
C38	C	0.026333	0.404767	0.499644
C39	C	-0.518602	-0.032134	-0.000323
C40	C	-0.018602	0.467866	0.499677
C41	C	-0.591424	-0.033207	-0.000294
C42	C	-0.091424	0.466793	0.499706
N43	N	-0.365688	-0.046185	-0.078204
N44	N	0.134312	0.453815	0.421796
N45	N	-0.296510	-0.045169	-0.078235
N46	N	0.203490	0.454831	0.421765
C47	C	-0.254259	-0.091995	-0.000440
C48	C	0.245741	0.408005	0.499560
N49	N	-0.283798	-0.139884	0.077370
N50	N	0.216202	0.360116	0.577370
N51	N	-0.352983	-0.140902	0.077394
N52	N	0.147017	0.359098	0.577394
C53	C	-0.394705	-0.094062	-0.000386
C54	C	0.105295	0.405938	0.499614
C55	C	-0.130369	-0.153928	-0.000479
C56	C	0.369631	0.346072	0.499521
C57	C	-0.057544	-0.152854	-0.000485
C58	C	0.442456	0.347146	0.499515
C59	C	-0.074586	-0.025586	-0.000485
C60	C	0.425414	0.474414	0.499515
C61	C	-0.147409	-0.026662	-0.000464
C62	C	0.352591	0.473338	0.499536
C63	C	-0.175296	-0.090835	-0.000468
C64	C	0.324704	0.409165	0.499532
C65	C	-0.818993	-0.220700	-0.000401
C66	C	-0.318993	0.279300	0.499599
C67	C	-0.820132	-0.298205	-0.000408
C68	C	-0.320132	0.201795	0.499592
C69	C	-0.884297	0.673909	-0.000452
C70	C	-0.384297	1.173909	0.499548
C71	C	-0.885374	0.601085	-0.000440
C72	C	-0.385374	1.101085	0.499560
C73	C	-0.822282	0.556151	-0.000411
C74	C	-0.322282	1.056151	0.499589
C75	C	-0.758108	0.584045	-0.000359
C76	C	-0.258108	1.084045	0.499641
C77	C	-0.757033	0.656867	-0.000357
C78	C	-0.257033	1.156867	0.499643
N79	N	-0.776606	0.435471	-0.078193
N80	N	-0.276606	0.935471	0.421807
N81	N	-0.777631	0.366294	-0.078197
N82	N	-0.277631	0.866294	0.421803
C83	C	-0.825516	0.336742	-0.000414
C84	C	-0.325516	0.836742	0.499586
N85	N	-0.872347	0.378982	0.077358
N86	N	-0.372347	0.878982	0.577358
N87	N	-0.871324	0.448166	0.077356
N88	N	-0.371324	0.948166	0.577356
C89	C	-0.823440	0.477187	-0.000412
C90	C	-0.323440	0.977187	0.499588
C91	C	-0.890852	0.229893	-0.000443
C92	C	-0.390852	0.729893	0.499557
C93	C	-0.891926	0.157068	-0.000423
C94	C	-0.391926	0.657068	0.499577
C95	C	-0.764659	0.140029	-0.000355
C96	C	-0.264659	0.640029	0.499645
C97	C	-0.763587	0.212852	-0.000362
C98	C	-0.263587	0.712852	0.499638
C99	C	-0.826685	0.257780	-0.000412
C100	C	-0.326685	0.757780	0.499588
N101	N	-0.824486	-0.093037	0.355725
N102	N	-0.324486	0.406963	0.855725
N103	N	-0.824485	-0.093024	-0.356512
N104	N	-0.324485	0.406976	0.143488
C105	C	-0.872110	-0.045442	0.427632
C106	C	-0.372110	0.454558	0.927632
C107	C	-0.872108	-0.045433	0.571515
C108	C	-0.372108	0.454567	1.071515
C109	C	-0.776856	-0.140622	0.571571
C110	C	-0.276856	0.359378	1.071571
C111	C	-0.776855	-0.140626	0.427690
C112	C	-0.276855	0.359374	0.927690
C113	C	-0.919741	0.002147	0.355667
C114	C	-0.419741	0.502147	0.855667
C115	C	-0.967369	0.049746	0.427574
C116	C	-0.467369	0.549746	0.927574
C117	C	-0.967367	0.049754	0.571457
C118	C	-0.467367	0.549754	1.071457
C119	C	-0.919737	0.002164	0.643433
C120	C	-0.419737	0.502164	1.143433
H121	H	-0.597087	-0.212725	-0.000328
H122	H	-0.097087	0.287275	0.499672
H123	H	-0.944179	0.134365	-0.000450
H124	H	-0.444179	0.634365	0.499550
N125	N	-0.160456	-0.223137	-0.000458
N126	N	0.339544	0.276863	0.499542
H127	H	-0.190306	-0.226420	-0.085185
H128	H	0.309694	0.273580	0.414815
H129	H	-0.120905	-0.262904	-0.000412
H130	H	0.379095	0.237096	0.499588
N131	N	-0.488520	0.037075	-0.000326
N132	N	0.011480	0.537075	0.499674
H133	H	-0.435570	0.028183	-0.000350
H134	H	0.064430	0.528183	0.499650
H135	H	-0.504989	0.064680	-0.085053
H136	H	-0.004989	0.564680	0.414947
H137	H	-0.020966	-0.204232	-0.000497
H138	H	0.479034	0.295768	0.499503
H139	H	-0.051874	0.026659	-0.000584
H140	H	0.448126	0.526659	0.499416
N141	N	-0.639883	0.034845	-0.000289
N142	N	-0.139883	0.534845	0.499711
H143	H	-0.690247	0.024428	-0.000275
H144	H	-0.190247	0.524428	0.499725
H145	H	-0.630858	0.062820	0.084445
H146	H	-0.130858	0.562820	0.584445
N147	N	-0.725487	-0.191948	0.649194
N148	N	-0.225487	0.308052	1.149194
H149	H	-0.732715	-0.184723	0.751253
H150	H	-0.232715	0.315277	1.251253
H151	H	-0.733395	-0.241462	0.624045
H152	H	-0.233395	0.258538	1.124045
N153	N	-0.696610	0.091569	-0.000312
N154	N	-0.196610	0.591569	0.499688
H155	H	-0.694217	0.060973	-0.085043
H156	H	-0.194217	0.560973	0.414957
H157	H	-0.655835	0.120336	-0.000235
H158	H	-0.155835	0.620336	0.499765
N159	N	-0.919738	0.002147	0.200481
N160	N	-0.419738	0.502147	0.700481
H161	H	-0.882338	-0.035225	0.165847
H162	H	-0.382338	0.464775	0.665847
H163	H	-0.967164	-0.007877	0.165909
H164	H	-0.467164	0.492123	0.665909
H165	H	-0.711337	0.235557	-0.000336
H166	H	-0.211337	0.735557	0.499664
N167	N	-0.453094	-0.227448	-0.000385
N168	N	0.046906	0.272552	0.499615
H169	H	-0.422477	-0.229846	0.084334
H170	H	0.077523	0.270154	0.584334
H171	H	-0.481858	-0.268225	-0.000435
H172	H	0.018142	0.231775	0.499565
H173	H	-0.704781	0.679571	-0.000318
H174	H	-0.204781	1.179571	0.499682
N175	N	-0.195869	0.041386	-0.000437
N176	N	0.304131	0.541386	0.499563
H177	H	-0.167150	0.082199	-0.000449
H178	H	0.332850	0.582199	0.499551
H179	H	-0.226476	0.043716	-0.085160
H180	H	0.273524	0.543716	0.414840
N181	N	-0.725488	-0.191957	0.350121
N182	N	-0.225488	0.308043	0.850121
H183	H	-0.695318	-0.222107	0.417540
H184	H	-0.195318	0.277893	0.917540
H185	H	-0.752119	-0.222760	0.290410
H186	H	-0.252119	0.277240	0.790410
N187	N	-0.952349	0.722368	-0.000485
N188	N	-0.452349	1.222368	0.499515
H189	H	-0.980356	0.713420	-0.085233
H190	H	-0.480356	1.213420	0.414767
H191	H	-0.980298	0.713393	0.084293
H192	H	-0.480298	1.213393	0.584293
H193	H	-0.937626	0.578376	-0.000476
H194	H	-0.437626	1.078376	0.499524
H195	H	-0.706738	0.547455	-0.000331
H196	H	-0.206738	1.047455	0.499669
H197	H	-0.942231	0.266475	-0.000483
H198	H	-0.442231	0.766475	0.499517
H199	H	-1.006144	0.088515	0.630003
H200	H	-0.506144	0.588515	1.130003
N201	N	-1.018725	0.101088	0.349954
N202	N	-0.518725	0.601088	0.849954
H203	H	-1.011498	0.093864	0.247895
H204	H	-0.511498	0.593864	0.747895
H205	H	-1.068231	0.093155	0.375074
H206	H	-0.568231	0.593155	0.875074
N207	N	-0.919726	0.002170	0.798621
N208	N	-0.419726	0.502170	1.298621
H209	H	-0.909717	0.049585	0.833276
H210	H	-0.409717	0.549585	1.333276
H211	H	-0.967136	-0.007900	0.833155
H212	H	-0.467136	0.492100	1.333155
