data_functionalizedCrystal
_audit_creation_method	'MofGen! by Chris Wilmer'
_symmetry_space_group_name_H-M	'P1'
_symmetry_Int_Tables_number	1
_symmetry_cell_setting	triclinic
loop_
_symmetry_equiv_pos_as_xyz
  x,y,z
_cell_length_a	10.654550
_cell_length_b	16.109302
_cell_length_c	14.586319
_cell_angle_alpha	89.994552
_cell_angle_beta	89.997374
_cell_angle_gamma	83.973342
loop_
_atom_site_label
_atom_site_type_symbol
_atom_site_fract_x
_atom_site_fract_y
_atom_site_fract_z
O1	O	0.161423	1.104090	-0.076279
O2	O	0.181511	0.862148	-0.076272
O3	O	-0.011348	0.988682	-0.076272
O4	O	0.354282	0.977556	-0.076279
O5	O	-0.011350	0.988673	0.076209
O6	O	0.181508	0.862139	0.076209
O7	O	0.161420	1.104081	0.076202
Cu8	Cu	0.171464	0.983109	0.090128
Cu9	Cu	0.171467	0.983120	-0.090198
O10	O	0.354279	0.977547	0.076202
C11	C	0.180695	0.831164	-0.000030
C12	C	0.178255	0.738854	-0.000028
C13	C	0.172612	0.526474	0.083081
C14	C	0.170306	0.439741	0.083078
C15	C	0.170316	0.439761	-0.083165
C16	C	0.172613	0.526494	-0.083161
C17	C	0.173767	0.569848	-0.000035
C18	C	0.169164	0.396381	-0.000043
C19	C	0.166664	0.302341	-0.000047
C20	C	0.176265	0.663895	-0.000031
C21	C	-0.058136	0.987860	-0.000033
C22	C	-0.197546	0.985416	-0.000036
C23	C	-0.278042	1.059918	-0.000036
C24	C	-0.409032	1.057616	-0.000042
C25	C	-0.379016	0.906306	-0.000045
C26	C	-0.248029	0.908608	-0.000046
C27	C	-0.227559	1.136726	-0.000026
C28	C	-0.308057	1.211233	-0.000025
C29	C	-0.439046	1.208932	-0.000031
C30	C	-0.489538	1.132123	-0.000039
C31	C	0.401067	0.978369	-0.000039
C32	C	0.540477	0.980813	-0.000042
C33	C	0.162236	1.135065	-0.000042
C34	C	0.164676	1.227375	-0.000051
N35	N	0.171461	0.983108	0.216960
N36	N	0.171460	0.983128	-0.217030
C37	C	0.086092	1.039156	0.451966
C38	C	0.086089	1.039158	0.547947
C39	C	0.256834	0.927073	0.547957
C40	C	0.256830	0.927068	0.451978
C41	C	0.171460	0.983114	0.403985
C42	C	0.171461	0.983122	0.595945
C43	C	0.171458	0.983124	0.700012
C44	C	0.171461	0.983111	0.299911
H45	H	0.169366	0.404430	0.150759
H46	H	0.169377	0.404451	-0.150843
C47	C	0.173890	0.574211	-0.174591
H48	H	0.175411	0.632076	-0.162681
H49	H	0.246705	0.554084	-0.208744
H50	H	0.100317	0.565923	-0.208745
C51	C	-0.633624	1.129592	-0.000051
H52	H	-0.674337	1.184964	-0.000047
H53	H	-0.657707	1.101133	-0.053224
H54	H	-0.657720	1.101129	0.053130
H55	H	0.173552	0.561771	0.150767
H56	H	-0.182487	0.847943	-0.000045
C57	C	0.350746	0.865426	0.399190
H58	H	0.338508	0.873446	0.335155
H59	H	0.434563	0.874940	0.414913
H60	H	0.337083	0.809858	0.414927
H61	H	0.016573	1.084792	0.587011
C62	C	0.350744	0.865436	0.600752
H63	H	0.338530	0.873471	0.664787
H64	H	0.337087	0.809870	0.585036
H65	H	0.434563	0.874954	0.585013
C66	C	-0.007808	1.100802	0.399172
H67	H	0.004424	1.092781	0.335138
H68	H	-0.091628	1.091297	0.414905
H69	H	0.005871	1.156367	0.414896
C70	C	-0.083476	1.139261	-0.000024
H71	H	-0.064936	1.195673	-0.000025
H72	H	-0.048304	1.111831	0.053146
H73	H	-0.048301	1.111850	-0.053207
C74	C	-0.527595	1.290881	-0.000040
H75	H	-0.612837	1.278513	-0.000053
H76	H	-0.512303	1.322342	0.053132
H77	H	-0.512283	1.322344	-0.053221
H78	H	-0.420138	0.843772	-0.000050
C79	C	-0.252520	1.295715	-0.000017
H80	H	-0.162980	1.286418	-0.000004
H81	H	-0.280145	1.326430	-0.053189
H82	H	-0.280161	1.326414	0.053164
