data_functionalizedCrystal
_audit_creation_method	'MofGen! by Chris Wilmer'
_symmetry_space_group_name_H-M	'P1'
_symmetry_Int_Tables_number	1
_symmetry_cell_setting	triclinic
loop_
_symmetry_equiv_pos_as_xyz
  x,y,z
_cell_length_a	16.109301
_cell_length_b	10.654551
_cell_length_c	15.186229
_cell_angle_alpha	89.999082
_cell_angle_beta	89.999006
_cell_angle_gamma	83.973473
loop_
_atom_site_label
_atom_site_type_symbol
_atom_site_fract_x
_atom_site_fract_y
_atom_site_fract_z
O1	O	1.104091	0.161420	-0.073175
O2	O	1.604091	0.661420	0.426825
O3	O	0.862148	0.181508	-0.073186
O4	O	1.362148	0.681508	0.426814
O5	O	0.988682	-0.011350	-0.073181
O6	O	1.488682	0.488650	0.426819
O7	O	0.977557	0.354279	-0.073180
O8	O	1.477557	0.854279	0.426820
O9	O	0.988673	-0.011353	0.073277
O10	O	1.488673	0.488647	0.573277
O11	O	0.862140	0.181506	0.073271
O12	O	1.362140	0.681506	0.573271
O13	O	1.104082	0.161418	0.073283
O14	O	1.604082	0.661418	0.573283
Zn15	Zn	0.983110	0.171461	0.096530
Zn16	Zn	1.483110	0.671461	0.596530
Zn17	Zn	0.983121	0.171465	-0.096434
Zn18	Zn	1.483121	0.671465	0.403566
O19	O	0.977549	0.354276	0.073277
O20	O	1.477549	0.854276	0.573277
C21	C	0.831164	0.180693	0.000041
C22	C	1.331164	0.680693	0.500041
C23	C	0.738854	0.178253	0.000036
C24	C	1.238854	0.678253	0.500036
C25	C	0.430489	0.284717	0.000052
C26	C	0.930489	0.784717	0.500052
C27	C	0.517223	0.287021	0.000046
C28	C	1.017223	0.787021	0.500046
C29	C	0.535736	0.058200	0.000034
C30	C	1.035736	0.558200	0.500034
C31	C	0.449003	0.055898	0.000033
C32	C	0.949003	0.555898	0.500033
C33	C	0.396382	0.169160	0.000046
C34	C	0.896382	0.669160	0.500046
C35	C	0.569848	0.173766	0.000042
C36	C	1.069848	0.673766	0.500042
C37	C	0.663889	0.176264	0.000037
C38	C	1.163889	0.676264	0.500037
C39	C	0.302335	0.166663	0.000050
C40	C	0.802335	0.666663	0.500050
C41	C	0.987860	-0.058139	0.000046
C42	C	1.487860	0.441861	0.500046
C43	C	0.985416	-0.197549	0.000040
C44	C	1.485416	0.302451	0.500040
C45	C	0.984274	-0.263043	-0.079792
C46	C	1.484274	0.236957	0.420208
C47	C	0.981970	-0.394033	-0.079789
C48	C	1.481970	0.105967	0.420211
C49	C	0.981954	-0.394021	0.079887
C50	C	1.481954	0.105979	0.579887
C51	C	0.984252	-0.263033	0.079882
C52	C	1.484252	0.236967	0.579882
C53	C	0.985438	-0.197559	-0.159635
C54	C	1.485438	0.302441	0.340365
C55	C	0.984297	-0.263054	-0.239474
C56	C	1.484297	0.236946	0.260526
C57	C	0.981993	-0.394043	-0.239470
C58	C	1.481993	0.105957	0.260530
C59	C	0.980830	-0.459537	-0.159627
C60	C	1.480830	0.040463	0.340373
C61	C	1.135066	0.162233	0.000054
C62	C	1.635066	0.662233	0.500054
C63	C	1.227376	0.164672	0.000053
C64	C	1.727376	0.664672	0.500053
C65	C	0.978370	0.401064	0.000048
C66	C	1.478370	0.901064	0.500048
C67	C	0.980814	0.540474	0.000049
C68	C	1.480814	1.040474	0.500049
N69	N	0.983108	0.171458	0.228223
N70	N	1.483108	0.671458	0.728223
N71	N	0.983129	0.171458	-0.228126
N72	N	1.483129	0.671458	0.271874
C73	C	1.039156	0.086089	0.453948
C74	C	1.539156	0.586089	0.953948
C75	C	1.039159	0.086086	0.546138
C76	C	1.539159	0.586086	1.046138
C77	C	0.927074	0.256831	0.546142
C78	C	1.427074	0.756831	1.046142
C79	C	0.927069	0.256827	0.453954
C80	C	1.427069	0.756827	0.953954
C81	C	0.983114	0.171457	0.407859
C82	C	1.483114	0.671457	0.907859
C83	C	0.983123	0.171458	0.592237
C84	C	1.483123	0.671458	1.092237
C85	C	0.983125	0.171456	0.692193
C86	C	1.483125	0.671456	1.192193
C87	C	0.983111	0.171458	0.307897
C88	C	1.483111	0.671458	0.807897
H89	H	0.987316	-0.090902	-0.159647
H90	H	1.487316	0.409098	0.340353
H91	H	0.981008	-0.447357	0.144891
H92	H	1.481008	0.052643	0.644891
Br93	Br	0.851000	0.372683	0.391397
Br94	Br	1.351000	0.872683	0.891397
H95	H	0.985236	-0.209719	-0.304479
H96	H	1.485236	0.290281	0.195521
H97	H	0.421233	-0.038208	0.000026
H98	H	0.921233	0.461792	0.500026
H99	H	0.978942	-0.566195	-0.159630
H100	H	1.478942	-0.066195	0.340370
Br101	Br	1.115216	-0.029772	0.391394
Br102	Br	1.615216	0.470228	0.891394
H103	H	0.985164	-0.209702	0.144889
H104	H	1.485164	0.290298	0.644889
H105	H	0.387647	0.376942	0.000062
H106	H	0.887647	0.876942	0.500062
H107	H	1.084793	0.016570	0.583661
H108	H	1.584793	0.516570	1.083661
Br109	Br	0.980432	-0.482925	-0.347820
Br110	Br	1.480432	0.017075	0.152180
H111	H	0.544989	0.381119	0.000050
H112	H	1.044989	0.881119	0.500050
Br113	Br	0.607154	-0.095505	0.000024
Br114	Br	1.107154	0.404495	0.500024
H115	H	0.881444	0.326339	0.583681
H116	H	1.381444	0.826339	1.083681
