data_functionalizedCrystal
_audit_creation_method	'MofGen! by Chris Wilmer'
_symmetry_space_group_name_H-M	'P1'
_symmetry_Int_Tables_number	1
_symmetry_cell_setting	triclinic
loop_
_symmetry_equiv_pos_as_xyz
  x,y,z
_cell_length_a	23.532407
_cell_length_b	17.038272
_cell_length_c	16.098571
_cell_angle_alpha	92.878119
_cell_angle_beta	86.933503
_cell_angle_gamma	93.019883
loop_
_atom_site_label
_atom_site_type_symbol
_atom_site_fract_x
_atom_site_fract_y
_atom_site_fract_z
O1	O	0.121202	-1.033347	0.069167
O2	O	0.119239	-0.805730	0.069191
O3	O	0.037650	-0.926403	0.069163
O4	O	0.202791	-0.912674	0.069195
O5	O	0.042494	-0.932609	-0.069349
O6	O	0.124083	-0.811936	-0.069321
O7	O	0.126047	-1.039553	-0.069345
Zn8	Zn	0.125834	-0.926729	-0.091325
Zn9	Zn	0.119451	-0.918553	0.091171
O10	O	0.207635	-0.918880	-0.069317
C11	C	0.119875	-0.779718	-0.000062
C12	C	0.114548	-0.692964	-0.000054
C13	C	0.018838	-0.929156	-0.000095
C14	C	-0.044434	-0.928106	-0.000101
C15	C	0.125410	-1.065565	-0.000090
C16	C	0.130737	-1.152319	-0.000093
C17	C	-0.440131	-0.992923	-0.000063
C18	C	-0.499583	-0.991946	-0.000056
O19	O	-0.533169	-1.052033	-0.000032
N20	N	-0.525981	-0.920207	-0.000049
C21	C	-0.492924	-0.849439	-0.000040
O22	O	-0.520836	-0.788329	-0.000033
C23	C	-0.433473	-0.850416	-0.000041
C24	C	-0.407078	-0.922160	-0.000056
C25	C	-0.413736	-1.064662	-0.000077
C26	C	-0.354288	-1.065638	-0.000085
C27	C	-0.321235	-0.994876	-0.000079
C28	C	-0.347631	-0.923137	-0.000064
C29	C	-0.400418	-0.779648	-0.000026
C30	C	-0.340963	-0.780632	-0.000025
C31	C	-0.314569	-0.852376	-0.000041
C32	C	-0.255130	-0.853351	-0.000066
N33	N	-0.228732	-0.925090	-0.000073
C34	C	-0.261785	-0.995853	-0.000079
C35	C	-0.617774	-0.847392	-0.000038
C36	C	-0.677223	-0.846414	-0.000043
C37	C	-0.683878	-0.988922	-0.000058
C38	C	-0.624428	-0.989899	-0.000058
C39	C	-0.591376	-0.919131	-0.000045
C40	C	-0.136940	-0.997898	-0.000097
C41	C	-0.077487	-0.998868	-0.000108
C42	C	-0.070837	-0.856360	-0.000089
C43	C	-0.130285	-0.855390	-0.000082
C44	C	-0.163336	-0.926165	-0.000083
O45	O	-0.221508	-0.793295	-0.000086
O46	O	-0.233865	-1.056952	-0.000076
C47	C	0.226447	-0.916126	-0.000057
C48	C	0.289719	-0.917177	-0.000045
N49	N	0.130189	-0.932315	-0.215873
C50	C	0.163453	-0.642487	-0.000045
C51	C	0.158445	-0.560974	-0.000057
C52	C	0.104532	-0.529939	-0.000072
C53	C	0.055624	-0.580423	-0.000084
C54	C	0.060632	-0.661934	-0.000077
C55	C	0.086837	-0.284314	-0.000098
C56	C	0.081832	-0.202795	-0.000102
C57	C	0.184654	-0.183353	-0.000077
C58	C	0.189658	-0.264866	-0.000066
C59	C	0.140750	-0.315343	-0.000081
C60	C	0.099411	-0.446620	-0.000083
C61	C	0.145871	-0.398661	-0.000077
C62	C	0.150410	-0.958150	-0.740688
C63	C	0.147359	-0.954246	-0.653500
C64	C	0.108986	-0.905171	-0.609906
C65	C	0.073666	-0.859990	-0.653505
C66	C	0.076720	-0.863890	-0.740692
C67	C	0.097923	-0.891034	-0.346659
C68	C	0.094870	-0.887139	-0.259466
C69	C	0.168565	-0.981395	-0.259467
C70	C	0.171614	-0.985294	-0.346655
C71	C	0.136296	-0.940110	-0.390246
C72	C	0.105865	-0.901181	-0.520786
C73	C	0.139420	-0.944096	-0.479365
N74	N	0.115091	-0.912974	0.215719
H75	H	-0.163843	-1.055530	-0.000094
H76	H	0.047960	-0.827101	-0.776184
H77	H	0.207354	-0.667748	-0.000032
H78	H	0.170665	-0.984049	-0.514863
O79	O	0.057580	-0.839395	-0.217246
C80	C	-0.015213	-0.746347	-0.226441
C81	C	0.027000	-0.800365	-0.274358
H82	H	-0.039957	-0.714789	-0.272595
H83	H	0.009220	-0.701092	-0.185626
H84	H	-0.046182	-0.783218	-0.185618
H85	H	0.057979	-0.763558	-0.315226
H86	H	0.002529	-0.845622	-0.315120
O87	O	-0.715934	-1.057710	0.000055
C88	C	-0.742351	-1.175965	0.071837
C89	C	-0.706006	-1.098103	0.071804
H90	H	-0.734346	-1.208637	0.129849
H91	H	-0.730281	-1.213950	0.013907
H92	H	-0.789370	-1.162920	0.071804
H93	H	-0.658978	-1.111075	0.071867
H94	H	-0.718125	-1.060141	0.129729
O95	O	-0.598729	-1.059537	0.000045
C96	C	-0.538013	-1.140158	0.071826
C97	C	-0.567069	-1.061252	0.071799
H98	H	-0.512419	-1.141577	0.129842
H99	H	-0.508286	-1.146790	0.013900
H100	H	-0.571863	-1.190550	0.071779
H101	H	-0.533259	-1.010813	0.071876
H102	H	-0.596807	-1.054688	0.129720
O103	O	0.039366	-0.333410	0.000008
C104	C	-0.017189	-0.433454	0.071793
C105	C	0.036603	-0.377903	0.071764
H106	H	-0.019447	-0.469430	0.129810
H107	H	-0.015400	-0.474761	0.013868
H108	H	-0.056569	-0.397249	0.071746
H109	H	0.076010	-0.414045	0.071840
H110	H	0.034764	-0.336594	0.129683
H111	H	-0.698708	-0.787993	-0.000045
O112	O	0.242015	-0.295029	0.000116
C113	C	0.304813	-0.372547	0.071925
C114	C	0.245501	-0.338431	0.071813
H115	H	0.307647	-0.407659	0.129877
H116	H	0.338921	-0.322484	0.071992
H117	H	0.311770	-0.412804	0.013946
H118	H	0.238489	-0.298184	0.129782
H119	H	0.211424	-0.388533	0.071703
H120	H	-0.055999	-1.057294	-0.000123
H121	H	0.074620	-0.861226	-0.485282
O122	O	0.232205	-0.134405	-0.000179
C123	C	0.321048	-0.096042	-0.071949
C124	C	0.267227	-0.151536	-0.071924
H125	H	0.349372	-0.109862	-0.129957
H126	H	0.345399	-0.104679	-0.014015
H127	H	0.308196	-0.032457	-0.071916
H128	H	0.280029	-0.215142	-0.071986
H129	H	0.242889	-0.142831	-0.129853
H130	H	0.037928	-0.177531	-0.000114
H131	H	0.042424	-0.820028	-0.618004
O132	O	-0.426116	-0.709997	0.000109
C133	C	-0.491829	-0.622940	0.071933
C134	C	-0.462779	-0.701857	0.071869
H135	H	-0.521468	-0.616326	0.129953
H136	H	-0.517516	-0.621482	0.014011
H137	H	-0.457971	-0.572558	0.071904
H138	H	-0.496599	-0.752284	0.071927
H139	H	-0.437080	-0.703248	0.129786
H140	H	0.020809	-0.703032	-0.000084
H141	H	0.011727	-0.555148	-0.000108
H142	H	-0.440642	-1.122288	-0.000080
H143	H	0.189767	-0.423933	-0.000069
H144	H	0.069163	-0.854245	-0.382140
O145	O	-0.038787	-0.787570	0.000033
C146	C	-0.017372	-0.662888	0.071852
C147	C	-0.053717	-0.740751	0.071798
H148	H	-0.029420	-0.625020	0.129876
H149	H	-0.025402	-0.630088	0.013934
H150	H	0.029649	-0.675940	0.071809
H151	H	-0.100749	-0.727769	0.071870
H152	H	-0.045638	-0.773528	0.129710
H153	H	0.202861	-1.025258	-0.382143
H154	H	0.198268	-0.519878	-0.000049
H155	H	-0.332803	-1.124060	-0.000094
O156	O	0.047033	-0.416517	-0.000235
C157	C	-0.039888	-0.411453	-0.071975
C158	C	0.019421	-0.445589	-0.071915
H159	H	-0.062235	-0.434957	-0.129913
H160	H	-0.035097	-0.344523	-0.072033
H161	H	-0.066258	-0.429650	-0.013981
H162	H	0.045823	-0.427451	-0.129898
H163	H	0.014587	-0.512513	-0.071814
H164	H	0.181656	-0.998115	-0.776176
H165	H	0.197320	-1.018180	-0.223965
O166	O	-0.585650	-0.778657	0.000111
C167	C	-0.517149	-0.693844	0.071846
C168	C	-0.553504	-0.771699	0.071789
H169	H	-0.491140	-0.688201	0.129782
H170	H	-0.546208	-0.642375	0.071903
H171	H	-0.487153	-0.693344	0.013851
H172	H	-0.583503	-0.772276	0.129774
H173	H	-0.524410	-0.823133	0.071688
O174	O	-0.308942	-0.711815	-0.000050
C175	C	-0.308623	-0.570362	0.000030
C176	C	-0.344953	-0.648237	0.000039
H177	H	-0.337723	-0.518938	0.000120
H178	H	-0.278616	-0.569792	-0.057952
H179	H	-0.282629	-0.564705	0.057982
H180	H	-0.370981	-0.653944	-0.057873
H181	H	-0.374924	-0.648772	0.058060
O182	O	-0.155999	-0.785745	0.000037
C183	C	-0.221726	-0.698702	0.071849
C184	C	-0.192660	-0.777606	0.071798
H185	H	-0.251364	-0.692089	0.129871
H186	H	-0.247417	-0.697264	0.013929
H187	H	-0.187878	-0.648308	0.071808
H188	H	-0.226471	-0.828044	0.071869
H189	H	-0.166957	-0.778975	0.129713
O190	O	0.181689	-0.998212	-0.611283
C191	C	0.255125	-1.092084	-0.620485
C192	C	0.216268	-1.042347	-0.668398
H193	H	0.283101	-1.127767	-0.666641
H194	H	0.227835	-1.133692	-0.579704
H195	H	0.283235	-1.051563	-0.579629
H196	H	0.188152	-1.082806	-0.709299
H197	H	0.243592	-1.000731	-0.709127
