data_functionalizedCrystal
_audit_creation_method	'MofGen! by Chris Wilmer'
_symmetry_space_group_name_H-M	'P1'
_symmetry_Int_Tables_number	1
_symmetry_cell_setting	triclinic
loop_
_symmetry_equiv_pos_as_xyz
  x,y,z
_cell_length_a	19.121063
_cell_length_b	19.121147
_cell_length_c	18.215399
_cell_angle_alpha	92.459497
_cell_angle_beta	92.409843
_cell_angle_gamma	89.873734
loop_
_atom_site_label
_atom_site_type_symbol
_atom_site_fract_x
_atom_site_fract_y
_atom_site_fract_z
Zn1	Zn	-0.324920	-1.059850	-0.477954
Zn2	Zn	0.008413	-0.726517	-0.144620
Zn3	Zn	0.341746	-0.393183	0.188713
Zn4	Zn	-0.442158	-1.054756	-0.359893
Zn5	Zn	-0.108824	-0.721422	-0.026559
Zn6	Zn	0.224509	-0.388089	0.306774
Zn7	Zn	-0.319932	-0.942612	-0.349442
Zn8	Zn	0.013402	-0.609279	-0.016109
Zn9	Zn	0.346735	-0.275945	0.317224
Zn10	Zn	-0.437109	-0.937575	-0.477459
Zn11	Zn	-0.103776	-0.604242	-0.144125
Zn12	Zn	0.229558	-0.270908	0.189208
O13	O	-0.381030	-0.998698	-0.416187
O14	O	-0.047696	-0.665365	-0.082853
O15	O	0.285637	-0.332032	0.250480
O16	O	-0.344673	-1.157279	-0.466873
O17	O	-0.011339	-0.823946	-0.133540
O18	O	0.321994	-0.490612	0.199793
O19	O	-0.425969	-1.039856	-0.255522
O20	O	-0.092636	-0.706522	0.077811
O21	O	0.240698	-0.373189	0.411145
O22	O	-0.222490	-0.962404	-0.362323
O23	O	0.110843	-0.629071	-0.028990
O24	O	0.444177	-0.295737	0.304343
O25	O	-0.430806	-1.153536	-0.380134
O26	O	-0.097473	-0.820203	-0.046801
O27	O	0.235860	-0.486870	0.286532
O28	O	-0.226155	-1.048538	-0.456740
O29	O	0.107178	-0.715205	-0.123407
O30	O	0.440512	-0.381871	0.209927
O31	O	-0.336170	-0.957464	-0.247844
O32	O	-0.002837	-0.624131	0.085489
O33	O	0.330497	-0.290797	0.418822
O34	O	-0.331275	-0.843839	-0.361843
O35	O	0.002059	-0.510506	-0.028510
O36	O	0.335392	-0.177172	0.304823
O37	O	-0.422202	-0.953819	-0.580509
O38	O	-0.088869	-0.620486	-0.247175
O39	O	0.244465	-0.287153	0.086158
O40	O	-0.417365	-0.840138	-0.455896
O41	O	-0.084031	-0.506805	-0.122563
O42	O	0.249302	-0.173472	0.210770
O43	O	-0.339777	-1.043654	-0.580872
O44	O	-0.006444	-0.710321	-0.247539
O45	O	0.326889	-0.376987	0.085794
O46	O	-0.539591	-1.034971	-0.379654
O47	O	-0.206258	-0.701638	-0.046321
O48	O	0.127075	-0.368305	0.287012
O49	O	-0.535882	-0.948879	-0.466029
O50	O	-0.202549	-0.615546	-0.132696
O51	O	0.130784	-0.282213	0.200637
C52	C	-0.373231	-0.816551	-0.407682
C53	C	-0.039898	-0.483218	-0.074349
C54	C	0.293436	-0.149884	0.258984
C55	C	-0.369912	-0.738627	-0.404062
C56	C	-0.036578	-0.405294	-0.070729
C57	C	0.296755	-0.071960	0.262604
C58	C	-0.348853	-0.298002	-0.381135
C59	C	-0.015520	0.035332	-0.047801
C60	C	0.317814	0.368665	0.285532
C61	C	-0.351976	-0.371219	-0.384540
C62	C	-0.018643	-0.037886	-0.051207
C63	C	0.314691	0.295447	0.282127
C64	C	-0.398434	-0.405914	-0.435138
C65	C	-0.065100	-0.072581	-0.101805
C66	C	0.268233	0.260752	0.231529
C67	C	-0.441766	-0.367388	-0.482338
C68	C	-0.108433	-0.034055	-0.149005
C69	C	0.224901	0.299279	0.184328
C70	C	-0.438639	-0.294172	-0.478936
C71	C	-0.105306	0.039162	-0.145603
C72	C	0.228027	0.372495	0.187731
C73	C	-0.410117	-0.626884	-0.447861
C74	C	-0.076784	-0.293551	-0.114527
C75	C	0.256549	0.039782	0.218806
C76	C	-0.413242	-0.700106	-0.451258
C77	C	-0.079909	-0.366773	-0.117925
C78	C	0.253424	-0.033439	0.215409
C79	C	-0.323451	-0.703932	-0.353460
C80	C	0.009882	-0.370599	-0.020127
C81	C	0.343216	-0.037266	0.313207
C82	C	-0.320331	-0.630714	-0.350059
C83	C	0.013002	-0.297381	-0.016726
C84	C	0.346335	0.035952	0.316608
C85	C	-0.363661	-0.592194	-0.397262
C86	C	-0.030328	-0.258861	-0.063929
C87	C	0.303006	0.074472	0.269405
C88	C	-0.401628	-0.480754	-0.438619
C89	C	-0.068295	-0.147421	-0.105285
C90	C	0.265038	0.185912	0.228048
C91	C	-0.360462	-0.517356	-0.393785
C92	C	-0.027129	-0.184022	-0.060451
C93	C	0.306204	0.149311	0.272882
C94	C	-0.563175	-0.990845	-0.423939
C95	C	-0.229841	-0.657512	-0.090606
C96	C	0.103492	-0.324178	0.242728
C97	C	-0.641100	-0.987550	-0.427283
C98	C	-0.307767	-0.654216	-0.093950
C99	C	0.025567	-0.320883	0.239384
C100	C	-0.679619	-1.030860	-0.383924
C101	C	-0.346285	-0.697526	-0.050590
C102	C	-0.012952	-0.364193	0.282743
C103	C	-0.752838	-1.027764	-0.387073
C104	C	-0.419504	-0.694431	-0.053740
C105	C	-0.086171	-0.361098	0.279593
C106	C	-0.787536	-0.981355	-0.433579
C107	C	-0.454203	-0.648022	-0.100246
C108	C	-0.120870	-0.314688	0.233088
C109	C	-0.749012	-0.938043	-0.476943
C110	C	-0.415679	-0.604710	-0.143610
C111	C	-0.082346	-0.271376	0.189724
C112	C	-0.675795	-0.941142	-0.473797
C113	C	-0.342462	-0.607809	-0.140464
C114	C	-0.009128	-0.274476	0.192870
C115	C	-1.008511	-0.969756	-0.445330
C116	C	-0.675177	-0.636423	-0.111997
C117	C	-0.341844	-0.303090	0.221337
C118	C	-1.081733	-0.966659	-0.448471
C119	C	-0.748400	-0.633325	-0.115138
C120	C	-0.415067	-0.299992	0.218195
C121	C	-1.085553	-1.056381	-0.358602
C122	C	-0.752220	-0.723048	-0.025269
C123	C	-0.418887	-0.389715	0.308065
C124	C	-1.012334	-1.059474	-0.355457
C125	C	-0.679001	-0.726140	-0.022123
C126	C	-0.345668	-0.392807	0.311210
C127	C	-0.973817	-1.016164	-0.398824
C128	C	-0.640483	-0.682831	-0.065490
C129	C	-0.307150	-0.349498	0.267843
C130	C	-0.862378	-0.978189	-0.436798
C131	C	-0.529045	-0.644855	-0.103464
C132	C	-0.195711	-0.311522	0.229869
C133	C	-0.898977	-1.019335	-0.395608
C134	C	-0.565643	-0.686002	-0.062275
C135	C	-0.232310	-0.352668	0.271058
C136	C	-0.198174	-1.006601	-0.408421
C137	C	0.135159	-0.673268	-0.075088
C138	C	0.468493	-0.339935	0.258246
C139	C	-0.120252	-1.009969	-0.405112
C140	C	0.213081	-0.676636	-0.071779
C141	C	0.546415	-0.343302	0.261555
C142	C	-0.380983	-0.998743	-0.608140
C143	C	-0.047650	-0.665410	-0.274806
C144	C	0.285684	-0.332076	0.058527
C145	C	-0.380963	-0.998762	-0.689939
C146	C	-0.047630	-0.665429	-0.356605
C147	C	0.285703	-0.332095	-0.023272
C148	C	-0.388856	-0.181557	-0.424716
C149	C	-0.055523	0.151777	-0.091383
C150	C	0.277810	0.485110	0.241950
C151	C	-0.392184	-0.259480	-0.428330
C152	C	-0.058851	0.073853	-0.094997
C153	C	0.274483	0.407186	0.238337
C154	C	-0.338004	-1.045557	-0.878322
C155	C	-0.004670	-0.712224	-0.544989
C156	C	0.328663	-0.378890	-0.211655
C157	C	-0.337983	-1.045566	-0.955180
C158	C	-0.004650	-0.712233	-0.621847
C159	C	0.328683	-0.378900	-0.288514
C160	C	-0.423817	-0.952021	-0.954791
C161	C	-0.090483	-0.618688	-0.621457
C162	C	0.242850	-0.285355	-0.288124
C163	C	-0.423833	-0.952009	-0.877933
C164	C	-0.090499	-0.618676	-0.544600
C165	C	0.242834	-0.285343	-0.211267
C166	C	-0.380927	-0.998781	-0.839701
C167	C	-0.047594	-0.665448	-0.506368
C168	C	0.285739	-0.332114	-0.173035
C169	C	-0.380891	-0.998802	-0.993417
C170	C	-0.047558	-0.665469	-0.660084
C171	C	0.285775	-0.332136	-0.326750
C172	C	-0.380870	-0.998812	-1.076750
C173	C	-0.047537	-0.665479	-0.743417
C174	C	0.285797	-0.332145	-0.410083
C175	C	-0.380948	-0.998771	-0.756363
C176	C	-0.047614	-0.665437	-0.423029
C177	C	0.285719	-0.332104	-0.089696
C178	C	-0.381027	-0.998696	-0.224980
C179	C	-0.047694	-0.665363	0.108353
C180	C	0.285640	-0.332029	0.441686
C181	C	-0.380855	-0.998821	-0.143180
C182	C	-0.047522	-0.665488	0.190154
C183	C	0.285811	-0.332155	0.523487
H184	H	-0.288174	-0.735303	-0.315031
H185	H	0.045160	-0.401970	0.018303
H186	H	0.378493	-0.068636	0.351636
H187	H	-0.479590	-0.395642	-0.523539
H188	H	-0.146257	-0.062309	-0.190206
H189	H	0.187077	0.271024	0.143127
Cl190	Cl	-0.284026	-1.104379	-1.003730
Cl191	Cl	0.049307	-0.771046	-0.670396
Cl192	Cl	0.382641	-0.437712	-0.337063
H193	H	-0.451074	-0.728352	-0.492465
H194	H	-0.117741	-0.395019	-0.159131
H195	H	0.215593	-0.061686	0.174202
Cl196	Cl	-0.855354	-1.077679	-0.337149
Cl197	Cl	-0.522021	-0.744345	-0.003816
Cl198	Cl	-0.188688	-0.411012	0.329517
H199	H	-0.311023	-0.269758	-0.339932
H200	H	0.022310	0.063575	-0.006598
H201	H	0.355644	0.396908	0.326735
Cl202	Cl	-0.477794	-0.893196	-0.829377
Cl203	Cl	-0.144461	-0.559863	-0.496044
Cl204	Cl	0.188872	-0.226530	-0.162711
Cl205	Cl	-0.968719	-1.117829	-0.297001
Cl206	Cl	-0.635385	-0.784496	0.036332
Cl207	Cl	-0.302052	-0.451162	0.369666
Cl208	Cl	-0.792634	-0.879704	-0.535412
Cl209	Cl	-0.459301	-0.546370	-0.202079
Cl210	Cl	-0.125968	-0.213037	0.131255
Cl211	Cl	-0.906005	-0.919846	-0.495259
Cl212	Cl	-0.572672	-0.586513	-0.161926
Cl213	Cl	-0.239339	-0.253180	0.171407
Cl214	Cl	-0.627371	-0.886695	-0.528311
Cl215	Cl	-0.294038	-0.553362	-0.194977
Cl216	Cl	0.039295	-0.220029	0.138356
H217	H	-0.282506	-0.602471	-0.308852
H218	H	0.050828	-0.269137	0.024482
H219	H	0.384161	0.064196	0.357815
H220	H	-0.473922	-0.262808	-0.517370
H221	H	-0.140589	0.070525	-0.184036
H222	H	0.192745	0.403858	0.149297
H223	H	-1.109983	-0.928875	-0.486355
H224	H	-0.776650	-0.595542	-0.153022
H225	H	-0.443317	-0.262208	0.180312
Cl226	Cl	-0.297495	-0.419643	-0.325211
Cl227	Cl	0.035838	-0.086310	0.008123
Cl228	Cl	0.369172	0.247023	0.341456
Cl229	Cl	-0.464593	-0.578469	-0.507199
Cl230	Cl	-0.131260	-0.245135	-0.173865
Cl231	Cl	0.202073	0.088198	0.159468
Cl232	Cl	-0.284063	-1.104353	-0.830261
Cl233	Cl	0.049271	-0.771019	-0.496928
Cl234	Cl	0.382604	-0.437686	-0.163595
H235	H	-0.322634	-0.489104	-0.352591
H236	H	0.010699	-0.155771	-0.019258
H237	H	0.344032	0.177563	0.314076
H238	H	-0.439456	-0.509011	-0.479814
H239	H	-0.106123	-0.175678	-0.146480
H240	H	0.227211	0.157655	0.186853
Cl241	Cl	-0.477756	-0.893230	-1.002859
Cl242	Cl	-0.144422	-0.559896	-0.669526
Cl243	Cl	0.188911	-0.226563	-0.336193
H244	H	-0.651372	-1.068648	-0.346051
H245	H	-0.318038	-0.735315	-0.012717
H246	H	0.015295	-0.401981	0.320616
H247	H	-0.784196	-1.063032	-0.351765
H248	H	-0.450863	-0.729698	-0.018432
H249	H	-0.117530	-0.396365	0.314902
H250	H	-1.116922	-1.091642	-0.323296
H251	H	-0.783589	-0.758309	0.010037
H252	H	-0.450255	-0.424976	0.343370
H253	H	-0.977155	-0.934491	-0.480640
H254	H	-0.643822	-0.601157	-0.147306
H255	H	-0.310489	-0.267824	0.186027
