data_functionalizedCrystal
_audit_creation_method	'MofGen! by Chris Wilmer'
_symmetry_space_group_name_H-M	'P1'
_symmetry_Int_Tables_number	1
_symmetry_cell_setting	triclinic
loop_
_symmetry_equiv_pos_as_xyz
  x,y,z
_cell_length_a	8.559649
_cell_length_b	14.044220
_cell_length_c	7.681481
_cell_angle_alpha	83.732834
_cell_angle_beta	94.913240
_cell_angle_gamma	81.483771
loop_
_atom_site_label
_atom_site_type_symbol
_atom_site_fract_x
_atom_site_fract_y
_atom_site_fract_z
O1	O	2.101908	-0.021858	-0.146399
O2	O	1.643608	0.026593	-0.146411
O3	O	1.865881	-0.135117	-0.146388
O4	O	1.879635	0.139853	-0.146422
O5	O	1.893233	-0.155061	0.146473
O6	O	1.670961	0.006649	0.146449
O7	O	2.129260	-0.041802	0.146461
Zn8	Zn	1.904453	-0.020743	0.192953
Zn9	Zn	1.868415	0.005534	-0.192903
O10	O	1.906988	0.119909	0.146438
C11	C	1.598278	0.020293	0.000018
C12	C	1.422455	0.031222	0.000014
C13	C	1.873534	-0.179966	0.000043
C14	C	1.855571	-0.283884	0.000045
C15	C	1.822727	-0.474153	0.000018
C16	C	1.950133	-0.541060	0.000016
C17	C	1.931858	-0.646933	0.000002
C18	C	1.840999	-0.368270	0.000033
C19	C	2.174590	-0.035501	0.000029
C20	C	2.350412	-0.046430	0.000021
C21	C	1.899334	0.164757	0.000003
C22	C	1.917296	0.268676	-0.000010
N23	N	1.929059	-0.038678	0.456290
N24	N	1.843820	0.023461	-0.456240
H25	H	2.072922	-0.518821	-0.000099
O26	O	2.032775	-0.114459	0.545816
C27	C	1.989423	-0.202380	0.500946
H28	H	1.916058	-0.188752	0.367055
H29	H	2.101038	-0.256868	0.494813
H30	H	1.916122	-0.232617	0.604687
O31	O	1.437041	-0.135786	-0.000045
C32	C	1.334767	-0.205792	0.000007
H33	H	1.209826	-0.169326	-0.055441
H34	H	1.379346	-0.263673	-0.085011
H35	H	1.332430	-0.240986	0.140510
O36	O	1.335342	0.120442	0.000074
C37	C	1.173292	0.111867	0.000019
H38	H	1.161789	0.034839	0.055474
H39	H	1.114074	0.165400	0.085031
H40	H	1.112974	0.128430	-0.140485
O41	O	1.676357	-0.500838	0.000100
C42	C	1.690468	-0.602140	0.000048
H43	H	1.815848	-0.637763	0.055478
H44	H	1.601100	-0.631311	0.085080
H45	H	1.665864	-0.619262	-0.140453
H46	H	1.756808	0.086886	0.468554
