data_functionalizedCrystal
_audit_creation_method	'MofGen! by Chris Wilmer'
_symmetry_space_group_name_H-M	'P1'
_symmetry_Int_Tables_number	1
_symmetry_cell_setting	triclinic
loop_
_symmetry_equiv_pos_as_xyz
  x,y,z
_cell_length_a	12.759401
_cell_length_b	19.120786
_cell_length_c	19.121324
_cell_angle_alpha	84.990628
_cell_angle_beta	92.426462
_cell_angle_gamma	92.464298
loop_
_atom_site_label
_atom_site_type_symbol
_atom_site_fract_x
_atom_site_fract_y
_atom_site_fract_z
Zn1	Zn	1.564724	-0.263210	-0.385825
Zn2	Zn	1.564597	-0.385901	-0.263136
Zn3	Zn	1.396223	-0.268245	-0.268180
Zn4	Zn	1.381798	-0.380845	-0.380769
O5	O	1.476836	-0.324550	-0.324477
O6	O	1.711728	-0.279494	-0.369555
O7	O	1.548245	-0.374517	-0.165340
O8	O	1.424665	-0.169106	-0.288012
O9	O	1.711634	-0.369635	-0.279416
O10	O	1.548463	-0.165408	-0.374446
O11	O	1.424542	-0.288075	-0.169046
O12	O	1.247289	-0.283172	-0.283110
O13	O	1.400080	-0.361018	-0.479904
O14	O	1.236692	-0.365900	-0.365828
O15	O	1.534475	-0.274592	-0.483619
O16	O	1.534258	-0.483701	-0.274513
O17	O	1.399957	-0.479986	-0.360938
C18	C	1.203870	-0.324534	-0.324468
C19	C	1.087092	-0.324544	-0.324480
C20	C	1.032262	-0.277689	-0.371482
C21	C	0.922537	-0.277703	-0.371486
C22	C	0.922480	-0.371430	-0.277484
C23	C	1.032204	-0.371413	-0.277477
C24	C	1.032294	-0.223578	-0.425755
C25	C	0.922569	-0.223592	-0.425759
C26	C	1.465556	-0.507375	-0.316645
C27	C	1.460825	-0.585588	-0.313318
C28	C	1.523004	-0.620344	-0.356792
C29	C	1.518555	-0.693833	-0.353667
C30	C	1.451930	-0.732564	-0.307063
C31	C	1.389744	-0.697802	-0.263587
C32	C	1.394188	-0.624315	-0.266716
C33	C	1.435283	-0.954548	-0.295366
C34	C	1.430845	-1.028041	-0.292238
C35	C	1.559655	-1.024066	-0.382320
C36	C	1.564099	-0.950577	-0.385442
C37	C	1.501908	-0.915822	-0.341968
C38	C	1.447383	-0.807681	-0.303866
C39	C	1.506451	-0.840706	-0.345169
C40	C	1.750867	-0.324567	-0.324487
C41	C	1.867643	-0.324574	-0.324491
C42	C	1.465683	-0.316679	-0.508006
C43	C	1.460931	-0.313325	-0.586215
C44	C	1.488187	-0.141011	-0.332356
C45	C	1.493025	-0.062797	-0.335713
C46	C	1.523099	-0.356753	-0.621031
C47	C	1.518634	-0.353592	-0.694518
C48	C	1.451994	-0.307008	-0.733186
C49	C	1.389824	-0.263576	-0.698365
C50	C	1.394295	-0.266733	-0.624880
C51	C	1.435277	-0.295221	-0.955158
C52	C	1.430808	-0.292068	-1.028648
C53	C	1.559620	-0.382085	-1.024796
C54	C	1.564080	-0.385241	-0.951310
C55	C	1.501914	-0.341806	-0.916495
C56	C	1.447426	-0.303778	-0.808300
C57	C	1.506489	-0.345032	-0.841382
C58	C	1.488008	-0.332340	-0.141664
C59	C	1.492976	-0.335496	-0.063464
H60	H	0.892894	-0.172626	-0.408552
H61	H	1.569257	-0.388956	-0.722862
Br62	Br	0.847984	-0.435034	-0.213696
Br63	Br	1.081805	-0.252550	-0.510572
Br64	Br	1.613436	-0.567788	-0.420038
Br65	Br	1.299309	-0.750364	-0.200347
Br66	Br	1.602926	-0.740999	-0.412683
H67	H	1.618328	-0.423186	-0.919830
H68	H	1.393140	-0.839224	-0.265919
H69	H	1.560692	-0.809169	-0.383116
Br70	Br	1.106617	-0.434980	-0.213664
H71	H	1.618350	-0.919044	-0.423390
Br72	Br	1.350907	-0.236274	-0.907919
H73	H	1.610286	-1.052372	-0.417714
H74	H	1.610234	-0.417445	-1.053150
H75	H	1.393166	-0.265851	-0.839792
Br76	Br	1.309929	-0.207789	-0.577628
H77	H	0.888590	-0.235941	-0.479604
H78	H	1.066293	-0.169674	-0.413584
Br79	Br	1.340428	-1.080605	-0.228981
Br80	Br	1.613533	-0.419983	-0.568560
H81	H	1.376546	-0.254128	-1.060130
H82	H	1.384647	-0.926256	-0.259966
H83	H	1.343554	-0.596017	-0.231315
H84	H	1.335570	-0.225643	-0.729854
Br85	Br	1.596932	-0.408247	-0.788903
