data_functionalizedCrystal
_audit_creation_method	'MofGen! by Chris Wilmer'
_symmetry_space_group_name_H-M	'P1'
_symmetry_Int_Tables_number	1
_symmetry_cell_setting	triclinic
loop_
_symmetry_equiv_pos_as_xyz
  x,y,z
_cell_length_a	18.426585
_cell_length_b	14.628931
_cell_length_c	14.628931
_cell_angle_alpha	59.999972
_cell_angle_beta	89.999874
_cell_angle_gamma	60.001356
loop_
_atom_site_label
_atom_site_type_symbol
_atom_site_fract_x
_atom_site_fract_y
_atom_site_fract_z
Zr1	Zr	0.699112	1.000616	-0.119985
O2	O	0.583235	1.191315	-0.265942
O3	O	0.734634	0.809912	-0.075241
O4	O	0.734634	1.000618	-0.265947
O5	O	0.583236	1.000610	0.075196
O6	O	0.854060	1.000624	-0.265950
O7	O	0.583235	1.000610	-0.075236
O8	O	0.854060	0.659487	0.075188
O9	O	0.583235	1.341747	-0.265942
O10	O	0.838910	0.888358	-0.056161
O11	O	0.749784	0.888353	0.056108
O12	O	0.749784	1.112884	-0.168424
O13	O	0.660658	1.112879	-0.056156
Zr14	Zr	0.889583	1.000626	0.119931
Zr15	Zr	0.889582	1.000626	-0.119991
Zr16	Zr	0.699112	1.000616	0.119937
Zr17	Zr	0.699112	1.240537	-0.119985
Zr18	Zr	0.889582	0.760704	0.119931
O19	O	0.854060	1.191330	0.075187
O20	O	0.854060	1.191330	-0.265951
O21	O	0.583236	1.191315	0.075196
O22	O	1.005459	0.809927	0.265888
O23	O	1.005458	0.809927	-0.075249
O24	O	0.734634	0.809912	0.265897
O25	O	1.005459	1.000632	-0.075250
O26	O	0.854060	1.000624	0.265893
O27	O	0.734635	1.000618	0.265897
O28	O	1.005459	1.000632	0.075182
O29	O	0.734634	1.341755	-0.265947
O30	O	0.854060	0.659487	0.265893
O31	O	1.005459	0.659495	0.265888
O32	O	1.005458	0.659495	0.075183
O33	O	0.583236	1.341747	-0.075237
O34	O	0.734634	1.341755	-0.075241
O35	O	0.838910	0.888358	0.168370
O36	O	0.928036	0.888362	0.056102
O37	O	0.838910	1.112889	-0.056161
O38	O	0.749784	1.112884	0.056107
C39	C	0.794347	0.700516	-0.000026
C40	C	0.794347	0.598663	-0.000026
C41	C	0.838559	0.553256	-0.055719
C42	C	0.838560	0.447985	-0.055720
C43	C	0.556098	1.000608	-0.000019
C44	C	0.475238	1.000604	-0.000017
C45	C	0.179123	1.000643	-0.000036
C46	C	0.261509	1.000637	-0.000034
C47	C	0.327178	1.000623	-0.000027
C48	C	0.409569	1.000618	-0.000023
C49	C	1.032597	1.000634	-0.000035
C50	C	1.113456	1.000638	-0.000037
C51	C	0.794347	1.000621	-0.300132
C52	C	0.794346	1.000621	-0.401985
C53	C	0.794347	1.300726	-0.000027
C54	C	0.794348	1.402579	-0.000027
C55	C	0.856872	1.000624	-0.447396
C56	C	0.856874	1.000624	-0.552667
C57	C	0.794348	1.000621	0.300078
C58	C	0.794348	1.000621	0.401931
C59	C	1.032596	0.700528	-0.000034
C60	C	1.113456	0.598680	-0.000037
C61	C	0.794347	0.700516	0.300079
C62	C	0.794347	0.598663	0.401932
C63	C	1.032597	0.700528	0.300071
C64	C	1.113457	0.598680	0.401922
C65	C	0.556097	1.300713	-0.300125
C66	C	0.475238	1.402562	-0.401975
C67	C	0.556098	1.300713	-0.000020
C68	C	0.475238	1.402562	-0.000017
C69	C	0.794347	1.300726	-0.300133
C70	C	0.794347	1.402579	-0.401986
C71	C	1.104905	0.550848	-0.058648
C72	C	1.180874	0.455164	-0.058672
C73	C	1.265393	0.407306	-0.000079
C74	C	1.273942	0.455147	0.058534
C75	C	1.197974	0.550836	0.058552
C76	C	1.197960	0.550853	0.391149
C77	C	1.273944	0.455169	0.486839
C78	C	1.265422	0.407306	0.593301
C79	C	1.180910	0.455142	0.604072
C80	C	1.104928	0.550832	0.508383
C81	C	0.390734	1.450400	-0.391203
C82	C	0.314751	1.546114	-0.486893
C83	C	0.323272	1.593982	-0.593355
C84	C	0.407785	1.546140	-0.604126
C85	C	0.483766	1.450434	-0.508436
C86	C	0.483789	1.450404	0.058584
C87	C	0.407820	1.546115	0.058582
C88	C	0.323301	1.593975	-0.000015
C89	C	0.314753	1.546130	-0.058623
C90	C	0.390721	1.450427	-0.058627
C91	C	0.838560	0.553256	0.503031
C92	C	0.838561	0.447985	0.608303
H93	H	0.910406	1.000620	-0.408339
C94	C	1.348952	0.302041	-0.000093
H95	H	1.400518	0.280386	0.043192
H96	H	1.348945	0.227383	0.031276
H97	H	1.348949	0.333424	-0.074765
H98	H	1.327298	0.329390	0.671208
H99	H	0.756489	0.441627	0.047650
C100	C	0.889688	0.606021	0.514692
H101	H	0.917419	0.563892	0.591772
H102	H	0.933686	0.590354	0.479755
H103	H	0.849490	0.696379	0.479760
H104	H	1.342767	0.416168	0.106239
H105	H	0.740819	1.000611	-0.441037
H106	H	0.876415	0.592309	-0.103395
C107	C	0.381347	1.397764	-0.274104
H108	H	0.438697	1.333904	-0.218647
H109	H	0.349785	1.466467	-0.265710
H110	H	0.349774	1.360431	-0.265712
H111	H	1.204948	0.589769	0.106287
H112	H	1.204916	0.589808	0.304471
H113	H	0.876408	0.408943	-0.103406
H114	H	0.910402	1.000634	-0.591722
H115	H	1.173984	0.416159	0.690766
C116	C	1.011977	0.603426	0.520241
H117	H	0.967938	0.667276	0.448011
H118	H	1.005328	0.534708	0.560014
H119	H	1.005316	0.640763	0.560005
H120	H	0.245945	1.585051	-0.478101
H121	H	1.036093	0.589813	-0.106375
H122	H	0.261396	1.671911	-0.671262
C123	C	0.722023	1.000621	-0.545331
H124	H	0.682792	1.000628	-0.587477
H125	H	0.749085	0.925646	-0.470504
H126	H	0.689559	1.075611	-0.545494
C127	C	0.417147	1.598792	-0.721237
H128	H	0.359788	1.662629	-0.776674
H129	H	0.448715	1.636132	-0.729654
H130	H	0.448702	1.530089	-0.729639
C131	C	0.576715	1.397806	-0.520300
H132	H	0.570900	1.440017	-0.597412
H133	H	0.608307	1.413475	-0.485409
H134	H	0.608278	1.307454	-0.485419
H135	H	0.552601	1.411443	0.106308
C136	C	0.889695	0.395245	0.725462
H137	H	0.882982	0.331418	0.780846
H138	H	0.950914	0.357872	0.733916
H139	H	0.866722	0.463912	0.733911
C140	C	0.417239	1.598715	0.123066
H141	H	0.478457	1.556482	0.157978
H142	H	0.389550	1.689062	0.072498
H143	H	0.389534	1.583023	0.178527
C144	C	1.171455	0.402542	-0.123135
H145	H	1.110237	0.444737	-0.158008
H146	H	1.199144	0.418233	-0.178607
H147	H	1.199160	0.312186	-0.072547
H148	H	0.261450	1.671902	-0.000002
H149	H	0.245927	1.585113	-0.106331
C150	C	0.743188	0.455339	0.480864
H151	H	0.715449	0.413197	0.488068
H152	H	0.699194	0.545691	0.441144
H153	H	0.783362	0.439665	0.441105
C154	C	0.743226	0.545889	0.064410
H155	H	0.715497	0.588015	0.099363
H156	H	0.699227	0.561550	0.013812
H157	H	0.783429	0.455531	0.119834
C158	C	1.366895	0.402554	0.474971
H159	H	1.361081	0.444751	0.397860
H160	H	1.398476	0.418246	0.509849
H161	H	1.398467	0.312198	0.509868
H162	H	0.383746	1.411477	-0.106344
H163	H	0.756492	0.559607	0.393313
