data_functionalizedCrystal
_audit_creation_method	'MofGen! by Chris Wilmer'
_symmetry_space_group_name_H-M	'P1'
_symmetry_Int_Tables_number	1
_symmetry_cell_setting	triclinic
loop_
_symmetry_equiv_pos_as_xyz
  x,y,z
_cell_length_a	17.019282
_cell_length_b	19.188925
_cell_length_c	16.098538
_cell_angle_alpha	92.713859
_cell_angle_beta	91.140572
_cell_angle_gamma	83.266030
loop_
_atom_site_label
_atom_site_type_symbol
_atom_site_fract_x
_atom_site_fract_y
_atom_site_fract_z
O1	O	1.046076	0.089163	0.005794
O2	O	1.546076	0.589163	0.505794
O3	O	0.817211	0.099776	-0.010627
O4	O	1.317211	0.599776	0.489373
O5	O	0.938250	-0.007153	-0.001938
O6	O	1.438250	0.492847	0.498062
O7	O	0.925037	0.196093	-0.002895
O8	O	1.425037	0.696093	0.497105
O9	O	0.931179	-0.000932	0.136067
O10	O	1.431179	0.499068	0.636067
O11	O	0.810141	0.105998	0.127378
O12	O	1.310141	0.605998	0.627378
O13	O	1.039005	0.095385	0.143799
O14	O	1.539005	0.595385	0.643799
Zn15	Zn	0.923450	0.101680	0.157500
Zn16	Zn	1.423450	0.601680	0.657500
Zn17	Zn	0.932766	0.093482	-0.024328
Zn18	Zn	1.432766	0.593482	0.475672
O19	O	0.917966	0.202315	0.135110
O20	O	1.417966	0.702315	0.635110
C21	C	0.784396	0.102364	0.056275
C22	C	1.284396	0.602364	0.556275
C23	C	0.697150	0.100796	0.050015
C24	C	1.197150	0.600796	0.550015
C25	C	0.652312	0.103449	0.122302
C26	C	1.152312	0.603449	0.622302
C27	C	0.570337	0.101964	0.116423
C28	C	1.070337	0.601964	0.616423
C29	C	0.533201	0.097831	0.038255
C30	C	1.033201	0.597831	0.538255
C31	C	0.578045	0.095176	-0.034038
C32	C	1.078045	0.595176	0.465962
C33	C	0.660019	0.096656	-0.028158
C34	C	1.160019	0.596656	0.471842
C35	C	0.285885	0.093190	0.016737
C36	C	0.785885	0.593190	0.516737
C37	C	0.203904	0.091713	0.010862
C38	C	0.703904	0.591713	0.510862
C39	C	0.196203	0.098499	0.161324
C40	C	0.696203	0.598499	0.661324
C41	C	0.278178	0.099983	0.167197
C42	C	0.778178	0.599983	0.667197
C43	C	0.323016	0.097324	0.094904
C44	C	0.823016	0.597324	0.594904
C45	C	0.449409	0.096316	0.032243
C46	C	0.949409	0.596316	0.532243
C47	C	0.406807	0.098834	0.100917
C48	C	0.906807	0.598834	0.600917
C49	C	0.934287	-0.030056	0.067033
C50	C	1.434287	0.469944	0.567033
C51	C	0.933005	-0.107567	0.066940
C52	C	1.433005	0.392433	0.566940
C53	C	0.995441	-0.669032	0.071399
C54	C	1.495441	-0.169032	0.571399
C55	C	0.996653	-0.596203	0.071493
C56	C	1.496653	-0.096203	0.571493
C57	C	0.925631	-0.551616	0.066397
C58	C	1.425631	-0.051616	0.566397
C59	C	0.853391	-0.579864	0.061227
C60	C	1.353391	-0.079864	0.561227
C61	C	0.852181	-0.652691	0.061141
C62	C	1.352181	-0.152691	0.561141
N63	N	0.876621	-0.433305	0.015734
N64	N	1.376621	0.066695	0.515734
N65	N	0.877775	-0.364122	0.015815
N66	N	1.377775	0.135878	0.515815
C67	C	0.929271	-0.332189	0.066658
C68	C	1.429271	0.167811	0.566658
N69	N	0.979583	-0.372054	0.117408
N70	N	1.479583	0.127946	0.617408
N71	N	0.978431	-0.441244	0.117324
N72	N	1.478431	0.058756	0.617324
C73	C	0.926935	-0.472646	0.066490
C74	C	1.426935	0.027354	0.566490
C75	C	1.002820	-0.224980	0.071935
C76	C	1.502820	0.275020	0.571935
C77	C	1.004028	-0.152148	0.072035
C78	C	1.504028	0.347852	0.572035
C79	C	0.860765	-0.135811	0.061760
C80	C	1.360765	0.364189	0.561760
C81	C	0.859558	-0.208641	0.061669
C82	C	1.359558	0.291359	0.561669
C83	C	0.930588	-0.253221	0.066753
C84	C	1.430588	0.246779	0.566753
C85	C	1.071821	0.092798	0.076896
C86	C	1.571821	0.592798	0.576896
C87	C	1.159067	0.094366	0.083150
C88	C	1.659067	0.594366	0.583150
C89	C	0.921929	0.225217	0.066137
C90	C	1.421929	0.725217	0.566137
C91	C	0.923211	0.302728	0.066225
C92	C	1.423211	0.802728	0.566225
N93	N	0.917098	0.107274	0.281593
N94	N	1.417098	0.607274	0.781593
N95	N	0.939124	0.087882	-0.148421
N96	N	1.439124	0.587882	0.351579
C97	C	0.968491	0.061905	0.328868
C98	C	1.468491	0.561905	0.828868
C99	C	0.964055	0.065825	0.415738
C100	C	1.464055	0.565825	0.915738
C101	C	0.908229	0.115117	0.455333
C102	C	1.408229	0.615117	0.955333
C103	C	0.856831	0.160489	0.408052
C104	C	1.356831	0.660489	0.908052
C105	C	0.861264	0.156565	0.321183
C106	C	1.361264	0.656565	0.821183
C107	C	0.892159	0.129330	0.717429
C108	C	1.392159	0.629330	1.217429
C109	C	0.887732	0.133252	0.804305
C110	C	1.387732	0.633252	1.304305
C111	C	0.994954	0.038586	0.811985
C112	C	1.494954	0.538586	1.311985
C113	C	0.999386	0.034670	0.725114
C114	C	1.499386	0.534670	1.225114
C115	C	0.947985	0.080038	0.677841
C116	C	1.447985	0.580038	1.177841
C117	C	0.903695	0.119127	0.544128
C118	C	1.403695	0.619127	1.044128
C119	C	0.952516	0.076025	0.589046
C120	C	1.452516	0.576025	1.089046
H121	H	0.159688	0.100663	0.220181
H122	H	0.659688	0.600663	0.720181
H123	H	1.062848	-0.129158	0.076253
H124	H	1.562848	0.370842	0.576253
H125	H	0.173670	0.088349	-0.052795
H126	H	0.673670	0.588349	0.447205
H127	H	0.802937	-0.099509	0.057618
H128	H	1.302937	0.400491	0.557618
H129	H	1.044843	-0.005469	0.692878
H130	H	1.544843	0.494531	1.192878
H131	H	0.850308	0.166272	0.678946
H132	H	1.350308	0.666272	1.178946
C133	C	1.080947	-0.274020	0.077538
C134	C	1.580947	0.225980	0.577538
H135	H	1.124139	-0.246767	0.080645
H136	H	1.624139	0.253233	0.580645
H137	H	1.085919	-0.304937	0.029591
H138	H	1.585919	0.195063	0.529591
H139	H	1.080986	-0.300602	0.125848
H140	H	1.580986	0.199398	0.625848
C141	C	0.709344	0.093739	-0.107672
C142	C	1.209344	0.593739	0.392328
H143	H	0.763484	0.095205	-0.092975
H144	H	1.263484	0.595205	0.407025
H145	H	0.691357	0.132777	-0.139991
H146	H	1.191357	0.632777	0.360009
H147	H	0.703629	0.051420	-0.139100
H148	H	1.203629	0.551420	0.360900
C149	C	0.335194	0.090273	-0.062782
C150	C	0.835194	0.590273	0.437218
H151	H	0.301333	0.087608	-0.110176
H152	H	0.801333	0.587608	0.389824
H153	H	0.373470	0.050033	-0.063179
H154	H	0.873470	0.550033	0.436821
H155	H	0.361193	0.131390	-0.064058
H156	H	0.861193	0.631390	0.435942
H157	H	0.811373	0.200622	0.440294
H158	H	1.311373	0.700622	0.940294
H159	H	0.997966	0.035888	0.556806
H160	H	1.497966	0.535888	1.056806
H161	H	0.437047	0.102195	0.164561
H162	H	0.937047	0.602195	0.664561
H163	H	0.419163	0.092951	-0.031401
H164	H	0.919163	0.592951	0.468599
H165	H	0.547802	0.091806	-0.097684
H166	H	1.047802	0.591806	0.402316
H167	H	0.795565	-0.543556	0.057080
H168	H	1.295565	-0.043556	0.557080
H169	H	1.053279	-0.705325	0.075543
H170	H	1.553279	-0.205325	0.575543
H171	H	1.005902	0.028881	0.454229
H172	H	1.505902	0.528881	0.954229
C173	C	0.772726	-0.683757	0.055440
C174	C	1.272726	-0.183757	0.555440
H175	H	0.730599	-0.646775	0.052414
H176	H	1.230599	-0.146775	0.552414
H177	H	0.766811	-0.709664	0.103315
H178	H	1.266811	-0.209664	0.603315
H179	H	0.771744	-0.713992	0.007058
H180	H	1.271744	-0.213992	0.507058
H181	H	1.055473	-0.573205	0.075706
H182	H	1.555473	-0.073205	0.575706
C183	C	0.780105	-0.239707	0.055965
C184	C	1.280105	0.260293	0.555965
H185	H	0.737979	-0.202725	0.052937
H186	H	1.237979	0.297275	0.552937
H187	H	0.774189	-0.265611	0.103842
H188	H	1.274189	0.234389	0.603842
H189	H	0.779122	-0.269944	0.007585
H190	H	1.279122	0.230056	0.507585
C191	C	0.842263	0.173325	0.587680
C192	C	1.342263	0.673325	1.087680
H193	H	0.812277	0.199777	0.547086
H194	H	1.312277	0.699777	1.047086
H195	H	0.868675	0.204003	0.623595
H196	H	1.368675	0.704003	1.123595
H197	H	0.807918	0.149616	0.619220
H198	H	1.307918	0.649616	1.119220
H199	H	1.013953	0.021768	0.296636
H200	H	1.513953	0.521768	0.796636
C201	C	1.051482	-0.011321	0.863986
C202	C	1.551482	0.488679	1.363986
H203	H	1.040845	-0.001931	0.921393
H204	H	1.540845	0.498069	1.421393
H205	H	1.104636	-0.004244	0.853498
H206	H	1.604636	0.495756	1.353498
H207	H	1.043828	-0.058586	0.849157
H208	H	1.543828	0.441414	1.349157
C209	C	0.826279	0.187439	0.847854
C210	C	1.326279	0.687439	1.347854
H211	H	0.796285	0.213882	0.807258
H212	H	1.296285	0.713882	1.307258
H213	H	0.852678	0.218126	0.883769
H214	H	1.352678	0.718126	1.383769
H215	H	0.791943	0.163721	0.879394
H216	H	1.291943	0.663721	1.379394
H217	H	0.819414	0.193508	0.282692
H218	H	1.319414	0.693508	0.782692
H219	H	0.533836	0.104113	0.175288
H220	H	1.033836	0.604113	0.675288
C221	C	0.693159	0.107996	0.208286
C222	C	1.193159	0.607996	0.708286
H223	H	0.748401	0.108504	0.201437
H224	H	1.248401	0.608504	0.701437
H225	H	0.684279	0.068471	0.238676
H226	H	1.184279	0.568471	0.738676
H227	H	0.672002	0.149828	0.237788
H228	H	1.172002	0.649828	0.737788
C229	C	0.319020	0.104546	0.253182
C230	C	0.819020	0.604546	0.753182
H231	H	0.280575	0.105914	0.295393
H232	H	0.780575	0.605914	0.795393
H233	H	0.344693	0.145945	0.258144
H234	H	0.844693	0.645945	0.758144
H235	H	0.356982	0.064589	0.259060
H236	H	0.856982	0.564589	0.759060
