data_functionalizedCrystal
_audit_creation_method	'MofGen! by Chris Wilmer'
_symmetry_space_group_name_H-M	'P1'
_symmetry_Int_Tables_number	1
_symmetry_cell_setting	triclinic
loop_
_symmetry_equiv_pos_as_xyz
  x,y,z
_cell_length_a	15.995350
_cell_length_b	15.995350
_cell_length_c	10.868271
_cell_angle_alpha	90.002904
_cell_angle_beta	90.000670
_cell_angle_gamma	83.492375
loop_
_atom_site_label
_atom_site_type_symbol
_atom_site_fract_x
_atom_site_fract_y
_atom_site_fract_z
O1	O	1.110985	0.107927	0.102212
O2	O	0.867210	0.121255	0.102236
O3	O	0.995761	-0.007297	0.102222
O4	O	0.982434	0.236478	0.102226
O5	O	0.995751	-0.007302	-0.102422
O6	O	0.867199	0.121250	-0.102408
O7	O	1.110975	0.107922	-0.102433
Zn8	Zn	0.989085	0.114585	-0.134912
Zn9	Zn	0.989099	0.114592	0.134716
O10	O	0.982423	0.236474	-0.102419
C11	C	0.836010	0.120701	-0.000083
C12	C	0.743060	0.119049	-0.000073
C13	C	0.405312	0.113117	-0.000099
C14	C	0.452746	0.021565	-0.000557
C15	C	0.549436	0.023217	-0.000087
C16	C	0.572873	0.116060	-0.000087
C17	C	0.531792	0.161219	0.116771
C18	C	0.435156	0.158919	0.116860
C19	C	0.434805	0.160805	-0.115859
C20	C	0.531750	0.160783	-0.117395
C21	C	0.667570	0.117727	-0.000076
C22	C	0.310614	0.111452	-0.000101
C23	C	0.995205	-0.038494	-0.000098
C24	C	0.993553	-0.131444	-0.000091
C25	C	0.987621	-0.469192	-0.000094
C26	C	0.896069	-0.421758	0.000374
C27	C	0.897721	-0.325068	-0.000087
C28	C	0.990564	-0.301631	-0.000092
C29	C	1.035714	-0.342712	-0.116956
C30	C	1.033414	-0.439347	-0.117054
C31	C	1.035318	-0.439700	0.115665
C32	C	1.035296	-0.342755	0.117210
C33	C	0.992231	-0.206934	-0.000094
C34	C	0.985956	-0.563890	-0.000100
C35	C	1.142175	0.108476	-0.000111
C36	C	1.235125	0.110127	-0.000113
C37	C	0.982980	0.267671	-0.000096
C38	C	0.984631	0.360621	-0.000095
N39	N	0.989082	0.114580	-0.318926
C40	C	0.989095	0.114590	-0.569932
C41	C	0.989085	0.114587	-0.430255
N42	N	0.989109	0.114590	0.318730
H43	H	0.577861	-0.012280	-0.083856
H44	H	0.547115	0.228487	-0.124453
Cl45	Cl	1.139532	-0.488737	0.116877
Cl46	Cl	0.989102	-0.471395	0.252421
H47	H	1.000482	-0.457651	-0.204408
Cl48	Cl	0.984748	-0.300192	0.250709
Cl49	Cl	1.141024	-0.320905	-0.123679
Cl50	Cl	0.842540	-0.282043	-0.129634
Cl51	Cl	0.385769	0.265020	-0.117081
Cl52	Cl	0.424138	-0.034941	-0.129943
Cl53	Cl	0.839575	-0.450364	0.129766
Cl54	Cl	0.839660	-0.452369	-0.127904
H55	H	0.577299	-0.012516	0.083827
Cl56	Cl	1.139828	-0.319034	0.128108
H57	H	0.433157	-0.014860	0.082784
H58	H	0.862230	-0.296644	0.083686
Cl59	Cl	0.406892	0.108080	0.251726
Cl60	Cl	0.385363	0.262692	0.125051
H61	H	0.560170	0.129857	0.203739
Cl62	Cl	0.553624	0.266520	0.123512
Cl63	Cl	1.137187	-0.489140	-0.125263
Cl64	Cl	0.403099	0.114588	-0.252614
H65	H	1.004346	-0.314332	-0.203919
H66	H	0.559062	0.127817	-0.203846
