data_functionalizedCrystal
_audit_creation_method	'MofGen! by Chris Wilmer'
_symmetry_space_group_name_H-M	'P1'
_symmetry_Int_Tables_number	1
_symmetry_cell_setting	triclinic
loop_
_symmetry_equiv_pos_as_xyz
  x,y,z
_cell_length_a	13.635800
_cell_length_b	11.168121
_cell_length_c	11.168136
_cell_angle_alpha	92.020174
_cell_angle_beta	108.508683
_cell_angle_gamma	108.508496
loop_
_atom_site_label
_atom_site_type_symbol
_atom_site_fract_x
_atom_site_fract_y
_atom_site_fract_z
V1	V	2.054941	0.174724	0.393710
O2	O	2.034733	-0.008377	0.386204
O3	O	2.043085	0.346429	0.391027
O4	O	2.043086	0.172045	0.565415
O5	O	2.034732	0.167215	0.210609
V6	V	2.293556	0.152822	0.371808
O7	O	2.192473	0.222767	0.441753
O8	O	2.381123	0.104778	0.323765
O9	O	2.193809	-0.018883	0.374490
O10	O	2.372462	0.335922	0.379314
O11	O	2.372463	0.160331	0.554909
O12	O	2.193807	0.155501	0.200102
V13	V	2.554941	0.174724	0.393710
O14	O	2.534733	-0.008377	0.386204
O15	O	2.543085	0.346429	0.391027
O16	O	2.543086	0.172045	0.565415
O17	O	2.534732	0.167215	0.210609
V18	V	2.793556	0.152822	0.371808
O19	O	2.692473	0.222767	0.441753
O20	O	2.881123	0.104778	0.323765
O21	O	2.693809	-0.018883	0.374490
O22	O	2.872462	0.335922	0.379314
O23	O	2.872463	0.160331	0.554909
O24	O	2.693807	0.155501	0.200102
C25	C	1.968189	0.388286	0.384819
C26	C	1.999220	0.528658	0.383771
C27	C	1.968190	0.165840	0.607267
C28	C	1.999221	0.164786	0.747637
C29	C	2.100376	-0.060735	0.380695
C30	C	2.058964	-0.201105	0.381752
C31	C	2.100375	0.161709	0.158244
C32	C	2.058962	0.162757	0.017873
C33	C	2.468189	0.388286	0.384819
C34	C	2.499220	0.528658	0.383771
C35	C	2.100475	0.597350	0.389292
C36	C	2.132550	0.742432	0.388208
C37	C	2.100475	0.170305	0.816329
C38	C	2.132549	0.169216	0.961409
C39	C	2.600475	0.597350	0.389292
C40	C	2.632550	0.742432	0.388208
C41	C	2.468190	0.165840	0.607267
C42	C	2.499221	0.164786	0.747637
C43	C	2.600376	-0.060735	0.380695
C44	C	2.558964	-0.201105	0.381752
C45	C	2.600375	0.161709	0.158244
C46	C	2.558962	0.162757	0.017873
C47	C	2.600475	0.170305	0.816329
C48	C	2.632549	0.169216	0.961409
H49	H	2.163418	0.548754	0.394828
Cl50	Cl	2.766477	0.176518	1.052573
H51	H	2.219287	0.801480	0.392921
Cl52	Cl	2.425033	0.707739	0.374446
Cl53	Cl	2.402037	0.603679	0.375243
Cl54	Cl	1.902032	0.156236	0.822654
Cl55	Cl	1.925033	0.707739	0.374446
H56	H	1.936281	0.577256	0.378248
Cl57	Cl	2.266477	0.176518	1.052573
H58	H	2.472222	0.158040	0.958832
Cl59	Cl	2.697663	0.522333	0.397838
H60	H	2.436276	0.159246	0.796233
H61	H	2.719287	0.801480	0.392921
Cl62	Cl	2.697663	0.178852	0.741311
H63	H	2.163414	0.175828	0.767731
H64	H	1.972222	0.158040	0.958832
