data_functionalizedCrystal
_audit_creation_method	'MofGen! by Chris Wilmer'
_symmetry_space_group_name_H-M	'P1'
_symmetry_Int_Tables_number	1
_symmetry_cell_setting	triclinic
loop_
_symmetry_equiv_pos_as_xyz
  x,y,z
_cell_length_a	13.897449
_cell_length_b	12.759399
_cell_length_c	12.759393
_cell_angle_alpha	90.030906
_cell_angle_beta	89.978412
_cell_angle_gamma	89.983604
loop_
_atom_site_label
_atom_site_type_symbol
_atom_site_fract_x
_atom_site_fract_y
_atom_site_fract_z
Zn1	Zn	1.474728	0.418180	-0.594035
Zn2	Zn	1.974728	0.918180	-0.094035
Zn3	Zn	1.474627	0.593895	-0.418354
Zn4	Zn	1.974627	1.093895	0.081646
Zn5	Zn	1.313415	0.418235	-0.418369
Zn6	Zn	1.813415	0.918235	0.081631
Zn7	Zn	1.313406	0.593821	-0.593989
Zn8	Zn	1.813406	1.093821	-0.093989
O9	O	1.394044	0.506033	-0.506187
O10	O	1.894044	1.006033	-0.006187
O11	O	1.609696	0.441497	-0.570744
O12	O	2.109696	0.941497	-0.070744
O13	O	1.453203	0.570648	-0.271335
O14	O	1.953203	1.070648	0.228665
O15	O	1.334859	0.271206	-0.441696
O16	O	1.834859	0.771206	0.058304
O17	O	1.609622	0.570594	-0.441672
O18	O	2.109622	1.070594	0.058328
O19	O	1.453375	0.271166	-0.570758
O20	O	1.953375	0.771166	-0.070758
O21	O	1.334761	0.441591	-0.271345
O22	O	1.834761	0.941591	0.228655
O23	O	1.178432	0.441519	-0.441652
O24	O	1.678432	0.941519	0.058348
O25	O	1.334845	0.570468	-0.741017
O26	O	1.834845	1.070468	-0.241017
O27	O	1.178426	0.570521	-0.570680
O28	O	1.678426	1.070521	-0.070680
O29	O	1.453367	0.441425	-0.741050
O30	O	1.953367	0.941425	-0.241050
O31	O	1.453195	0.740906	-0.441627
O32	O	1.953195	1.240906	0.058373
O33	O	1.334746	0.740852	-0.570666
O34	O	1.834746	1.240852	-0.070666
C35	C	1.143430	0.506019	-0.506163
C36	C	1.643430	1.006019	-0.006163
C37	C	1.036216	0.506038	-0.506178
C38	C	1.536216	1.006038	-0.006178
C39	C	1.393985	0.779000	-0.506163
C40	C	1.893985	1.279000	-0.006163
C41	C	1.394048	0.895777	-0.506188
C42	C	1.894048	1.395777	-0.006188
C43	C	1.394116	0.505932	-0.780220
C44	C	1.894116	1.005932	-0.280220
C45	C	1.394147	0.505889	-0.896997
C46	C	1.894147	1.005889	-0.396997
C47	C	0.839921	0.506042	-0.506205
C48	C	1.339921	1.006042	-0.006205
C49	C	0.949153	0.506036	-0.506187
C50	C	1.449153	1.006036	-0.006187
C51	C	1.645637	0.506047	-0.506212
C52	C	2.145637	1.006047	-0.006212
C53	C	1.752851	0.506054	-0.506222
C54	C	2.252851	1.006054	-0.006222
C55	C	1.394130	0.231999	-0.506234
C56	C	1.894130	0.731999	-0.006234
C57	C	1.394166	0.115223	-0.506254
C58	C	1.894166	0.615223	-0.006254
C59	C	1.455794	0.950632	-0.439074
C60	C	1.955794	1.450632	0.060926
C61	C	1.455856	1.060356	-0.439109
C62	C	1.955856	1.560356	0.060891
C63	C	1.332417	1.060360	-0.573375
C64	C	1.832417	1.560360	-0.073375
C65	C	1.332361	0.950638	-0.573345
C66	C	1.832361	1.450638	-0.073345
C67	C	1.455866	0.438685	-0.951878
C68	C	1.955866	0.938685	-0.451878
C69	C	1.455882	0.438640	-1.061602
C70	C	1.955882	0.938640	-0.561602
C71	C	1.332458	0.573011	-1.061554
C72	C	1.832458	1.073011	-0.561554
C73	C	1.332437	0.573050	-0.951832
C74	C	1.832437	1.073050	-0.451832
C75	C	1.394028	0.506057	-0.233219
C76	C	1.894028	1.006057	0.266781
C77	C	1.394184	0.505804	-0.116443
C78	C	1.894184	1.005804	0.383557
H79	H	1.506025	0.905967	-0.384392
H80	H	2.006025	1.405967	0.115608
H81	H	1.282192	1.105041	-0.628050
H82	H	1.782192	1.605041	-0.128050
C83	C	1.523001	0.365638	-1.120998
C84	C	2.023001	0.865638	-0.620998
C85	C	1.577052	0.306852	-1.049487
C86	C	2.077052	0.806852	-0.549487
C87	C	1.638902	0.239598	-1.104163
C88	C	2.138902	0.739598	-0.604163
H89	H	1.486235	0.319746	-1.163804
H90	H	1.986235	0.819746	-0.663804
H91	H	1.565074	0.405793	-1.163781
H92	H	2.065074	0.905793	-0.663781
H93	H	1.534984	0.266700	-1.006722
H94	H	2.034984	0.766700	-0.506722
H95	H	1.613837	0.352717	-1.006679
H96	H	2.113837	0.852717	-0.506679
H97	H	1.680975	0.279754	-1.146946
H98	H	2.180975	0.779754	-0.646946
H99	H	1.602128	0.193713	-1.146967
H100	H	2.102128	0.693713	-0.646967
H101	H	1.675589	0.199711	-1.055651
H102	H	2.175589	0.699711	-0.555651
H103	H	1.506137	1.105014	-0.384460
H104	H	2.006137	1.605014	0.115540
H105	H	1.282218	0.627693	-1.106215
H106	H	1.782218	1.127693	-0.606215
H107	H	1.282079	0.905971	-0.628002
H108	H	1.782079	1.405971	-0.128002
H109	H	1.506112	0.383996	-0.907235
H110	H	2.006112	0.883996	-0.407235
H111	H	1.282171	0.627774	-0.907147
H112	H	1.782171	1.127774	-0.407147
