data_functionalizedCrystal
_audit_creation_method	'MofGen! by Chris Wilmer'
_symmetry_space_group_name_H-M	'P1'
_symmetry_Int_Tables_number	1
_symmetry_cell_setting	triclinic
loop_
_symmetry_equiv_pos_as_xyz
  x,y,z
_cell_length_a	14.908979
_cell_length_b	14.908520
_cell_length_c	10.686551
_cell_angle_alpha	90.862058
_cell_angle_beta	90.852567
_cell_angle_gamma	96.420994
loop_
_atom_site_label
_atom_site_type_symbol
_atom_site_fract_x
_atom_site_fract_y
_atom_site_fract_z
Zn1	Zn	1.399147	-0.244260	0.620401
Zn2	Zn	1.899147	0.255740	1.120401
Zn3	Zn	1.378869	-0.407085	0.424158
Zn4	Zn	1.878869	0.092915	0.924158
Zn5	Zn	1.236344	-0.264476	0.424165
Zn6	Zn	1.736344	0.235524	0.924165
Zn7	Zn	1.240501	-0.402838	0.645916
Zn8	Zn	1.740501	0.097162	1.145916
O9	O	1.313715	-0.329665	0.528660
O10	O	1.813715	0.170335	1.028660
O11	O	1.522499	-0.259175	0.583688
O12	O	2.022499	0.240825	1.083688
O13	O	1.349737	-0.398405	0.249227
O14	O	1.849737	0.101595	0.749227
O15	O	1.264686	-0.135746	0.439521
O16	O	1.764686	0.364254	0.939521
O17	O	1.507600	-0.378802	0.439509
O18	O	2.007600	0.121198	0.939509
O19	O	1.384297	-0.120893	0.583695
O20	O	1.884297	0.379107	1.083695
O21	O	1.245024	-0.293631	0.249232
O22	O	1.745024	0.206369	0.749232
O23	O	1.110854	-0.289513	0.464262
O24	O	1.610854	0.210487	0.964262
O25	O	1.271772	-0.371565	0.817463
O26	O	1.771772	0.128435	1.317463
O27	O	1.113908	-0.391168	0.627182
O28	O	1.613908	0.108832	1.127182
O29	O	1.388329	-0.255058	0.798718
O30	O	1.888329	0.244942	1.298718
O31	O	1.353768	-0.532569	0.464250
O32	O	1.853768	-0.032569	0.964250
O33	O	1.252110	-0.529450	0.627174
O34	O	1.752110	-0.029450	1.127174
C35	C	1.079700	-0.342074	0.548492
C36	C	1.579700	0.157926	1.048492
C37	C	0.979588	-0.347403	0.557008
C38	C	1.479588	0.152597	1.057008
C39	C	0.840085	-0.407935	0.653697
C40	C	1.340085	0.092065	1.153697
C41	C	0.934150	-0.402928	0.645707
C42	C	1.434150	0.097072	1.145707
C43	C	0.930953	-0.296883	0.476291
C44	C	1.430953	0.203117	0.976291
C45	C	0.836888	-0.301890	0.484281
C46	C	1.336888	0.198110	0.984281
C47	C	0.791458	-0.357417	0.572989
C48	C	1.291458	0.142583	1.072989
C49	C	0.697392	-0.362419	0.580984
C50	C	1.197392	0.137581	1.080984
C51	C	0.694196	-0.256379	0.411563
C52	C	1.194196	0.243621	0.911563
C53	C	0.788261	-0.251371	0.403573
C54	C	1.288261	0.248629	0.903573
C55	C	1.301216	-0.563689	0.548505
C56	C	1.801216	-0.063689	1.048505
C57	C	1.295953	-0.663799	0.557030
C58	C	1.795953	-0.163799	1.057030
C59	C	1.392047	-0.855090	0.403514
C60	C	1.892047	-0.355090	0.903514
C61	C	1.387105	-0.949153	0.411519
C62	C	1.887105	-0.449153	0.911519
C63	C	1.281133	-0.945988	0.581051
C64	C	1.781133	-0.445988	1.081051
C65	C	1.286075	-0.851925	0.573046
C66	C	1.786075	-0.351925	1.073046
C67	C	1.341532	-0.806480	0.484273
C68	C	1.841532	-0.306480	0.984273
C69	C	1.346469	-0.712417	0.476262
C70	C	1.846469	-0.212417	0.976262
C71	C	1.240502	-0.709253	0.645799
C72	C	1.740502	-0.209253	1.145799
C73	C	1.235560	-0.803315	0.653805
C74	C	1.735560	-0.303315	1.153805
C75	C	1.548644	-0.317207	0.508751
C76	C	2.048644	0.182793	1.008751
C77	C	1.648757	-0.311899	0.500267
C78	C	2.148757	0.188101	1.000267
C79	C	1.332776	-0.310583	0.854717
C80	C	1.832776	0.189417	1.354717
C81	C	1.340899	-0.302451	0.993663
C82	C	1.840899	0.197549	1.493663
C83	C	1.326290	-0.094723	0.508763
C84	C	1.826290	0.405277	1.008763
C85	C	1.331649	0.005395	0.500283
C86	C	1.831649	0.505395	1.000283
C87	C	1.294784	-0.348605	0.203862
C88	C	1.794784	0.151395	0.703862
C89	C	1.286849	-0.356473	0.064880
C90	C	1.786849	0.143527	0.564880
H91	H	0.660404	-0.407628	0.653219
H92	H	1.160404	0.092372	1.153219
C93	C	1.411813	-0.231557	1.054898
C94	C	1.911813	0.268443	1.554898
N95	N	1.465223	-0.178159	1.101022
N96	N	1.965223	0.321841	1.601022
H97	H	0.803096	-0.453139	0.725937
H98	H	1.303096	0.046861	1.225937
H99	H	1.428241	-0.988728	0.345759
H100	H	1.928241	-0.488728	0.845759
H101	H	0.973739	-0.444066	0.711428
H102	H	1.473739	0.055934	1.211428
H103	H	0.967958	-0.251683	0.404061
H104	H	1.467958	0.248317	0.904061
C105	C	1.453048	-0.805099	0.305862
C106	C	1.953048	-0.305099	0.805862
N107	N	1.498996	-0.767447	0.232310
N108	N	1.998996	-0.267447	0.732310
C109	C	0.838246	-0.190285	0.306011
C110	C	1.338246	0.309715	0.806011
N111	N	0.875895	-0.144268	0.232533
N112	N	1.375895	0.355732	0.732533
H113	H	1.199367	-0.669664	0.711555
H114	H	1.699367	-0.169664	1.211555
H115	H	0.654594	-0.215239	0.345848
H116	H	1.154594	0.284761	0.845848
H117	H	1.391623	-0.675416	0.403976
H118	H	1.891623	-0.175416	0.903976
C119	C	1.220132	-0.995994	0.678691
C120	C	1.720132	-0.495994	1.178691
N121	N	1.174184	-1.033660	0.752231
N122	N	1.674184	-0.533660	1.252231
H123	H	1.190411	-0.840329	0.726084
H124	H	1.690411	-0.340329	1.226084
C125	C	1.215936	-0.427360	1.003649
C126	C	1.715936	0.072640	1.503649
N127	N	1.162522	-0.480753	0.957522
N128	N	1.662522	0.019247	1.457522
