data_functionalizedCrystal
_audit_creation_method	'MofGen! by Chris Wilmer'
_symmetry_space_group_name_H-M	'P1'
_symmetry_Int_Tables_number	1
_symmetry_cell_setting	triclinic
loop_
_symmetry_equiv_pos_as_xyz
  x,y,z
_cell_length_a	8.634740
_cell_length_b	8.597304
_cell_length_c	9.730223
_cell_angle_alpha	82.295717
_cell_angle_beta	89.997098
_cell_angle_gamma	92.879752
loop_
_atom_site_label
_atom_site_type_symbol
_atom_site_fract_x
_atom_site_fract_y
_atom_site_fract_z
O1	O	2.053791	0.512866	-0.175013
O2	O	1.604191	0.469860	-0.169923
O3	O	1.837839	0.264234	-0.145570
O4	O	1.820143	0.718493	-0.199366
O5	O	1.837824	0.264225	0.083011
O6	O	1.604176	0.469852	0.058658
O7	O	2.053776	0.512858	0.053568
Zn8	Zn	1.828973	0.491353	0.092405
Zn9	Zn	1.828994	0.491365	-0.208760
O10	O	1.820128	0.718484	0.029215
C11	C	1.546586	0.460113	-0.054479
C12	C	1.374965	0.431065	-0.051041
C13	C	1.835931	0.205471	-0.024324
C14	C	1.830249	0.030384	-0.003599
C15	C	2.111381	0.522604	-0.061879
C16	C	2.283002	0.551653	-0.065327
C17	C	1.822037	0.777247	-0.092034
C18	C	1.827719	0.952334	-0.112769
N19	N	1.828971	0.491346	0.297942
N20	N	1.829008	0.491361	-0.414296
C21	C	1.932466	0.400345	0.380646
C22	C	1.932482	0.400348	0.524528
C23	C	1.725502	0.582366	0.502990
C24	C	1.725480	0.582353	0.359111
H25	H	1.828049	-0.036748	0.105738
O26	O	1.830254	0.032155	-0.243297
C27	C	1.826802	-0.075560	-0.340636
H28	H	1.774185	-0.193762	-0.290239
H29	H	1.753520	-0.029250	-0.433216
H30	H	1.949905	-0.090769	-0.377164
H31	H	1.335564	0.677116	-0.080172
O32	O	1.312520	0.281276	-0.033249
C33	C	1.432479	0.174995	-0.020694
H34	H	1.542720	0.235506	0.015424
H35	H	1.397125	0.068864	0.058232
H36	H	1.454593	0.134671	-0.125580
O37	O	2.033039	0.311790	0.321456
C38	C	2.124413	0.231500	0.425310
H39	H	2.061036	0.220115	0.529231
H40	H	2.146097	0.109450	0.398201
H41	H	2.239992	0.300007	0.432476
H42	H	2.016755	0.326244	0.591863
O43	O	1.625134	0.670741	0.562629
C44	C	1.647320	0.651214	0.707358
H45	H	1.769313	0.611078	0.731746
H46	H	1.631925	0.767738	0.748231
H47	H	1.558666	0.559042	0.759130
O48	O	1.624884	0.670902	0.278959
C49	C	1.533527	0.751210	0.363800
H50	H	1.596929	0.762626	0.465001
H51	H	1.511826	0.873248	0.307761
H52	H	1.417956	0.682700	0.387239
