data_functionalizedCrystal
_audit_creation_method	'MofGen! by Chris Wilmer'
_symmetry_space_group_name_H-M	'P1'
_symmetry_Int_Tables_number	1
_symmetry_cell_setting	triclinic
loop_
_symmetry_equiv_pos_as_xyz
  x,y,z
_cell_length_a	18.101398
_cell_length_b	18.101395
_cell_length_c	18.101389
_cell_angle_alpha	89.980315
_cell_angle_beta	89.975673
_cell_angle_gamma	90.027218
loop_
_atom_site_label
_atom_site_type_symbol
_atom_site_fract_x
_atom_site_fract_y
_atom_site_fract_z
Zn1	Zn	1.132117	-0.295001	-0.418832
Zn2	Zn	1.132011	-0.418826	-0.294988
Zn3	Zn	1.008276	-0.294993	-0.294993
Zn4	Zn	1.008224	-0.418795	-0.418776
O5	O	1.070157	-0.356904	-0.356897
O6	O	1.235735	-0.311443	-0.402425
O7	O	1.115574	-0.402410	-0.191356
O8	O	1.024769	-0.191361	-0.311446
O9	O	1.235658	-0.402417	-0.311437
O10	O	1.115755	-0.191367	-0.402430
O11	O	1.024666	-0.311430	-0.191360
O12	O	0.904636	-0.311399	-0.311392
O13	O	1.024682	-0.402363	-0.522417
O14	O	0.904598	-0.402356	-0.402335
O15	O	1.115705	-0.311412	-0.522458
O16	O	1.115524	-0.522455	-0.311383
O17	O	1.024579	-0.522432	-0.402330
C18	C	0.877746	-0.356874	-0.356859
C19	C	0.795432	-0.356879	-0.356860
C20	C	1.070055	-0.549314	-0.356866
C21	C	1.070079	-0.631628	-0.356878
C22	C	0.496341	-0.356925	-0.356922
C23	C	0.527665	-0.299412	-0.299982
C24	C	0.613283	-0.299566	-0.299739
C25	C	0.644724	-0.356901	-0.356891
C26	C	0.613604	-0.434909	-0.335565
C27	C	0.527959	-0.434590	-0.335169
C28	C	0.527956	-0.337109	-0.435322
C29	C	0.613607	-0.335371	-0.434894
C30	C	0.728583	-0.356893	-0.356875
C31	C	0.412482	-0.356939	-0.356936
C32	C	1.070164	-0.782337	-0.356907
C33	C	1.012914	-0.813707	-0.414084
C34	C	1.013131	-0.899325	-0.414326
C35	C	1.070247	-0.930719	-0.356936
C36	C	1.148322	-0.899546	-0.377939
C37	C	1.147943	-0.813902	-0.378337
C38	C	1.050039	-0.813959	-0.278589
C39	C	1.048365	-0.899611	-0.279023
C40	C	1.070298	-1.014579	-0.356951
C41	C	1.070118	-0.698477	-0.356894
C42	C	1.263319	-0.356935	-0.356937
C43	C	1.345633	-0.356948	-0.356953
C44	C	1.070200	-0.356885	-0.550059
C45	C	1.070218	-0.356877	-0.632374
C46	C	1.070279	-0.163742	-0.356945
C47	C	1.070332	-0.081428	-0.356965
C48	C	1.070261	-0.356738	-0.931465
C49	C	1.012795	-0.413780	-0.900114
C50	C	1.012950	-0.414045	-0.814495
C51	C	1.070239	-0.356807	-0.783082
C52	C	1.148264	-0.377998	-0.814187
C53	C	1.147944	-0.378372	-0.899832
C54	C	1.050381	-0.278379	-0.899891
C55	C	1.048645	-0.278832	-0.814240
C56	C	1.070231	-0.356845	-0.699223
C57	C	1.070274	-0.356702	-1.015324
C58	C	1.070157	-0.356869	-0.164487
C59	C	1.070282	-0.356668	-0.082173
H60	H	0.634325	-0.241719	-0.313107
C61	C	1.101067	-0.218368	-0.785360
C62	C	1.107569	-0.204143	-0.701744
C63	C	1.160001	-0.143682	-0.672865
C64	C	1.205930	-0.097447	-0.727601
C65	C	1.199429	-0.111671	-0.811222
C66	C	1.146998	-0.172131	-0.840101
H67	H	1.073568	-0.238370	-0.661221
H68	H	1.164813	-0.133153	-0.610963
H69	H	1.244743	-0.052691	-0.706223
H70	H	1.233430	-0.077444	-0.851745
H71	H	1.142186	-0.182660	-0.902003
H72	H	0.633737	-0.312665	-0.241646
H73	H	0.994053	-0.792419	-0.259429
H74	H	0.633968	-0.478909	-0.375739
H75	H	0.506385	-0.281216	-0.454711
C76	C	1.170713	-0.455757	-0.926822
C77	C	1.117441	-0.501428	-0.974907
C78	C	1.140212	-0.578816	-1.001887
C79	C	1.216256	-0.610534	-0.980782
C80	C	1.269534	-0.564863	-0.932694
C81	C	1.246762	-0.487474	-0.905714
H82	H	1.061144	-0.477949	-0.990533
H83	H	1.100772	-0.612625	-1.037485
H84	H	1.233113	-0.667821	-1.000754
H85	H	1.325830	-0.588341	-0.917068
H86	H	1.286202	-0.453666	-0.870116
H87	H	0.507096	-0.241388	-0.313203
C88	C	0.642525	-0.458012	-0.258971
C89	C	0.694336	-0.406237	-0.215712
C90	C	0.723254	-0.429334	-0.139116
C91	C	0.700361	-0.504207	-0.105779
C92	C	0.648547	-0.555987	-0.149039
C93	C	0.619629	-0.532889	-0.225635
H94	H	0.711285	-0.350807	-0.240389
H95	H	0.761610	-0.391003	-0.107092
H96	H	0.721768	-0.521305	-0.049079
H97	H	0.631598	-0.611416	-0.124362
H98	H	0.581273	-0.571221	-0.257659
C99	C	0.500592	-0.393693	-0.492643
C100	C	0.556619	-0.440530	-0.536264
C101	C	0.529252	-0.497116	-0.593579
C102	C	0.445859	-0.506866	-0.607271
C103	C	0.389827	-0.460028	-0.563649
C104	C	0.417194	-0.403442	-0.506334
H105	H	0.618357	-0.433314	-0.526129
H106	H	0.570731	-0.531789	-0.625871
H107	H	0.425600	-0.548755	-0.649699
H108	H	0.328089	-0.467244	-0.573784
H109	H	0.375714	-0.368769	-0.474042
C110	C	1.207557	-0.927011	-0.323427
C111	C	1.252536	-0.871080	-0.277766
C112	C	1.311770	-0.898546	-0.223253
C113	C	1.326025	-0.981942	-0.214400
C114	C	1.281045	-1.037879	-0.260062
C115	C	1.221811	-1.010413	-0.314575
H116	H	1.241984	-0.809340	-0.284319
H117	H	1.345067	-0.857138	-0.189451
H118	H	1.369873	-1.002274	-0.174046
H119	H	1.291597	-1.099619	-0.253510
H120	H	1.188514	-1.051821	-0.348377
H121	H	0.955091	-0.400784	-0.793463
C122	C	0.498543	-0.316903	-0.221961
C123	C	0.414839	-0.316683	-0.206728
C124	C	0.385712	-0.334179	-0.128710
C125	C	0.440288	-0.351896	-0.065925
C126	C	0.523997	-0.352117	-0.081157
C127	C	0.553124	-0.334620	-0.159175
H128	H	0.374434	-0.303567	-0.253206
H129	H	0.323745	-0.334015	-0.117434
H130	H	0.418726	-0.364848	-0.008172
H131	H	0.564402	-0.365232	-0.034679
H132	H	0.615091	-0.334784	-0.170451
C133	C	1.171429	-0.454561	-0.785228
C134	C	1.187062	-0.517773	-0.839951
C135	C	1.210223	-0.594339	-0.810993
C136	C	1.217751	-0.607692	-0.727312
C137	C	1.202118	-0.544479	-0.672584
C138	C	1.178957	-0.467913	-0.701542
H139	H	1.181490	-0.507890	-0.901901
H140	H	1.221795	-0.641134	-0.851507
H141	H	1.234895	-0.664371	-0.705876
H142	H	1.207690	-0.554362	-0.610634
H143	H	1.167385	-0.421118	-0.661028
H144	H	1.026090	-0.792148	-0.471785
H145	H	1.026516	-0.919774	-0.472358
H146	H	0.633952	-0.277966	-0.450975
C147	C	1.207762	-0.324704	-0.927859
C148	C	1.255671	-0.281644	-0.872308
C149	C	1.315496	-0.227986	-0.900331
C150	C	1.327412	-0.217387	-0.983905
C151	C	1.279501	-0.260449	-1.039461
C152	C	1.219676	-0.314107	-1.011438
H153	H	1.246852	-0.289488	-0.810437
H154	H	1.350963	-0.196109	-0.859204
H155	H	1.371697	-0.177666	-1.004649
H156	H	1.288320	-0.252604	-1.101332
H157	H	1.184209	-0.345983	-1.052565
H158	H	1.087023	-0.920991	-0.234163
C159	C	1.170944	-0.786851	-0.455672
C160	C	1.189529	-0.843178	-0.516637
C161	C	1.212527	-0.816132	-0.593975
C162	C	1.216939	-0.732758	-0.610348
C163	C	1.198353	-0.676426	-0.549381
C164	C	1.175355	-0.703472	-0.472043
H165	H	1.186264	-0.904901	-0.504519
H166	H	1.226286	-0.857833	-0.639107
H167	H	1.233963	-0.712737	-0.667598
H168	H	1.201618	-0.614703	-0.561499
H169	H	1.161596	-0.661770	-0.426911
H170	H	1.192064	-0.793144	-0.338494
C171	C	0.974851	-0.252299	-0.929042
C172	C	0.930258	-0.301828	-0.981901
C173	C	0.854724	-0.275758	-1.011052
C174	C	0.823784	-0.200159	-0.987345
C175	C	0.868377	-0.150625	-0.934484
C176	C	0.943911	-0.176695	-0.905333
H177	H	0.953161	-0.357794	-0.999452
H178	H	0.821713	-0.312426	-1.050184
H179	H	0.767869	-0.180860	-1.008925
H180	H	0.845474	-0.094658	-0.916932
H181	H	0.976921	-0.140027	-0.866201
H182	H	0.507947	-0.451397	-0.277855
H183	H	0.507237	-0.478892	-0.374833
H184	H	1.165675	-0.920953	-0.434563
C185	C	0.642531	-0.387828	-0.495286
C186	C	0.695143	-0.451419	-0.474736
C187	C	0.724074	-0.503877	-0.535127
C188	C	0.700392	-0.492744	-0.616067
C189	C	0.647776	-0.429150	-0.636620
C190	C	0.618846	-0.376692	-0.576229
H191	H	0.712677	-0.459662	-0.414816
H192	H	0.763023	-0.550953	-0.519912
H193	H	0.721808	-0.531576	-0.660772
H194	H	0.630243	-0.420906	-0.696540
H195	H	0.579897	-0.329616	-0.591445
C196	C	0.971076	-0.257239	-0.786771
C197	C	0.955790	-0.250615	-0.703342
C198	C	0.878222	-0.229026	-0.675868
C199	C	0.815939	-0.214062	-0.731823
C200	C	0.831223	-0.220686	-0.815258
C201	C	0.908791	-0.242275	-0.842732
H202	H	1.001898	-0.261693	-0.661916
H203	H	0.866908	-0.224123	-0.614104
H204	H	0.758518	-0.198081	-0.711486
H205	H	0.785116	-0.209609	-0.856684
H206	H	0.920105	-0.247178	-0.904496
C207	C	1.030717	-0.492500	-0.786815
C208	C	1.044813	-0.555107	-0.842641
C209	C	1.062583	-0.633566	-0.814962
C210	C	1.066258	-0.649418	-0.731457
C211	C	1.052162	-0.586810	-0.675625
C212	C	1.034391	-0.508351	-0.703305
H213	H	1.042093	-0.543373	-0.904462
H214	H	1.073018	-0.679912	-0.856292
H215	H	1.079413	-0.707498	-0.710967
H216	H	1.054882	-0.598543	-0.613805
H217	H	1.023957	-0.462004	-0.661975
H218	H	0.955243	-0.920406	-0.401197
H219	H	0.954821	-0.793180	-0.401103
H220	H	0.990906	-0.919995	-0.263181
H221	H	1.091731	-0.793662	-0.235990
H222	H	0.954762	-0.400655	-0.920700
H223	H	1.025789	-0.471508	-0.921638
H224	H	1.192231	-0.337757	-0.793842
H225	H	1.092237	-0.235880	-0.920168
