data_functionalizedCrystal
_audit_creation_method	'MofGen! by Chris Wilmer'
_symmetry_space_group_name_H-M	'P1'
_symmetry_Int_Tables_number	1
_symmetry_cell_setting	triclinic
loop_
_symmetry_equiv_pos_as_xyz
  x,y,z
_cell_length_a	14.472310
_cell_length_b	9.065218
_cell_length_c	9.065218
_cell_angle_alpha	94.984115
_cell_angle_beta	90.013153
_cell_angle_gamma	90.000903
loop_
_atom_site_label
_atom_site_type_symbol
_atom_site_fract_x
_atom_site_fract_y
_atom_site_fract_z
O1	O	0.076839	-0.216347	1.960421
O2	O	0.076840	-0.234094	1.531136
O3	O	0.076838	-0.010578	1.754652
O4	O	0.076842	-0.439863	1.736905
O5	O	-0.076844	-0.010590	1.754593
O6	O	-0.076842	-0.234106	1.531078
O7	O	-0.076843	-0.216359	1.960363
Cu8	Cu	-0.090875	-0.225234	1.745715
Cu9	Cu	0.090872	-0.225219	1.745784
O10	O	-0.076840	-0.439875	1.736847
C11	C	-0.000001	-0.232394	1.476120
C12	C	-0.000000	-0.227294	1.312277
N13	N	-0.218706	-0.225243	1.745677
C14	C	-0.000002	0.044403	1.752917
C15	C	0.000003	0.208245	1.747817
C16	C	-0.592797	-0.225213	1.745782
C17	C	-0.553630	-0.344400	1.625771
C18	C	-0.446542	-0.344844	1.626057
C19	C	-0.407206	-0.225228	1.745729
C20	C	-0.446043	-0.260913	1.900138
C21	C	-0.553164	-0.261762	1.899466
C22	C	-0.553327	-0.070002	1.712752
C23	C	-0.446200	-0.070987	1.709234
C24	C	-0.302318	-0.225234	1.745708
C25	C	-0.697685	-0.225211	1.745812
N26	N	0.218703	-0.225198	1.745833
C27	C	0.000001	-0.494855	1.738582
C28	C	0.000003	-0.658698	1.743681
C29	C	0.000000	-0.218059	2.015378
C30	C	0.000006	-0.223158	2.179221
H31	H	-0.420286	-0.323280	1.511348
H32	H	-0.578655	0.018717	1.800246
N33	N	-0.410496	-0.409236	1.939135
H34	H	-0.369245	-0.453519	1.857011
H35	H	-0.464392	-0.477685	1.952125
H36	H	-0.580395	-0.036199	1.602489
N37	N	-0.412300	-0.149100	2.021381
H38	H	-0.371414	-0.074060	1.977275
H39	H	-0.375964	-0.201499	2.096352
N40	N	-0.587491	-0.151244	2.021401
H41	H	-0.533034	-0.102200	2.075359
H42	H	-0.626174	-0.204012	2.093192
H43	H	-0.579417	-0.323160	1.510695
H44	H	-0.420906	-0.459981	1.647364
H45	H	-0.420818	-0.043954	1.595638
H46	H	-0.419427	0.022021	1.790809
H47	H	-0.580538	-0.458886	1.646796
H48	H	-0.578139	-0.375020	1.928259
