data_functionalizedCrystal
_audit_creation_method	'MofGen! by Chris Wilmer'
_symmetry_space_group_name_H-M	'P1'
_symmetry_Int_Tables_number	1
_symmetry_cell_setting	triclinic
loop_
_symmetry_equiv_pos_as_xyz
  x,y,z
_cell_length_a	23.532407
_cell_length_b	27.731996
_cell_length_c	22.610064
_cell_angle_alpha	89.998076
_cell_angle_beta	89.994501
_cell_angle_gamma	82.735067
loop_
_atom_site_label
_atom_site_type_symbol
_atom_site_fract_x
_atom_site_fract_y
_atom_site_fract_z
O1	O	0.755125	0.058674	-0.049155
O2	O	0.589242	0.067164	-0.049165
O3	O	0.677351	-0.007471	-0.049147
O4	O	0.667016	0.133310	-0.049173
O5	O	0.677335	-0.007461	0.049222
O6	O	0.589226	0.067175	0.049204
O7	O	0.755110	0.058685	0.049214
Zn8	Zn	0.672165	0.062932	0.064827
Zn9	Zn	0.672186	0.062917	-0.064778
O10	O	0.667001	0.133321	0.049196
C11	C	0.568019	0.066954	0.000018
C12	C	0.504803	0.066303	0.000015
C13	C	0.238746	0.019455	0.000040
C14	C	0.298145	0.020059	0.000039
O15	O	0.334977	-0.017106	0.000067
N16	N	0.320666	0.064430	0.000027
C17	C	0.283786	0.108200	0.000021
O18	O	0.308396	0.145996	0.000011
C19	C	0.224388	0.107595	0.000026
C20	C	0.201870	0.063221	0.000032
C21	C	0.216227	-0.024915	0.000047
C22	C	0.156832	-0.025519	0.000046
C23	C	0.119956	0.018248	0.000038
C24	C	0.142475	0.062618	0.000031
C25	C	0.187509	0.151365	0.000024
C26	C	0.128108	0.150757	0.000029
C27	C	0.105589	0.106383	0.000035
C28	C	0.046205	0.105781	0.000022
N29	N	0.023683	0.061410	0.000035
C30	C	0.060559	0.017643	0.000042
C31	C	0.408525	0.109465	0.000013
C32	C	0.467922	0.110070	0.000004
C33	C	0.482277	0.021929	0.000023
C34	C	0.422879	0.021325	0.000028
C35	C	0.386004	0.065095	0.000025
C36	C	-0.064175	0.016379	0.000040
C37	C	-0.123576	0.015779	0.000037
C38	C	-0.137925	0.103920	0.000021
C39	C	-0.078530	0.104520	0.000021
C40	C	-0.041656	0.060745	0.000033
O41	O	0.009338	0.142926	-0.000003
O42	O	0.035940	-0.020147	0.000060
C43	C	0.677131	-0.025474	0.000040
C44	C	0.676491	-0.079131	0.000046
C45	C	0.672477	-0.411859	-0.053605
C46	C	0.670048	-0.613521	-0.053615
O47	O	0.669717	-0.639598	-0.099218
N48	N	0.669738	-0.638733	0.000005
C49	C	0.670032	-0.613526	0.053632
O50	O	0.669706	-0.639596	0.099240
C51	C	0.672456	-0.411864	0.053642
C52	C	0.672772	-0.386656	0.000018
C53	C	0.672792	-0.386651	-0.107224
C54	C	0.673402	-0.336239	-0.107221
C55	C	0.673697	-0.311035	-0.053598
C56	C	0.673382	-0.336244	0.000021
C57	C	0.672745	-0.386657	0.107269
C58	C	0.673350	-0.336238	0.107266
C59	C	0.673665	-0.311030	0.053642
C60	C	0.674287	-0.260628	0.053647
N61	N	0.674597	-0.235416	0.000027
C62	C	0.674302	-0.260620	-0.053596
C63	C	0.668760	-0.719401	0.053623
C64	C	0.668155	-0.769816	0.053621
C65	C	0.668171	-0.769808	-0.053627
C66	C	0.668780	-0.719393	-0.053624
C67	C	0.669070	-0.694189	0.000003
C68	C	0.675584	-0.154751	-0.053585
C69	C	0.676196	-0.104335	-0.053577
C70	C	0.676178	-0.104347	0.053670
C71	C	0.675568	-0.154759	0.053663
C72	C	0.675269	-0.179959	0.000030
O73	O	0.674612	-0.234520	0.099227
O74	O	0.674615	-0.234539	-0.099196
C75	C	0.671867	-0.462272	-0.053608
C76	C	0.671551	-0.487480	0.000012
C77	C	0.671846	-0.462276	0.053635
C78	C	0.670946	-0.537895	0.000010
C79	C	0.670651	-0.563099	-0.053613
C80	C	0.670961	-0.537887	-0.107234
C81	C	0.671572	-0.487475	-0.107231
C82	C	0.671536	-0.487488	0.107255
C83	C	0.670927	-0.537900	0.107248
C84	C	0.670632	-0.563104	0.053625
C85	C	0.776333	0.058896	0.000030
C86	C	0.839548	0.059546	0.000029
C87	C	0.667221	0.151323	0.000008
C88	C	0.667860	0.204980	-0.000002
N89	N	0.672156	0.062941	0.153280
N90	N	0.672200	0.062904	-0.153231
C91	C	0.711202	0.029874	0.561929
C92	C	0.711205	0.029870	0.623849
O93	O	0.744380	0.001762	0.655875
N94	N	0.672186	0.062907	0.654817
C95	C	0.633157	0.095947	0.623862
O96	O	0.599967	0.124047	0.655888
C97	C	0.633151	0.095948	0.561943
C98	C	0.672178	0.062912	0.530978
C99	C	0.750225	-0.003160	0.530965
C100	C	0.750223	-0.003156	0.469049
C101	C	0.711198	0.029882	0.438098
C102	C	0.672175	0.062916	0.469063
C103	C	0.594120	0.128985	0.530989
C104	C	0.594118	0.128982	0.469066
C105	C	0.633144	0.095946	0.438101
C106	C	0.633148	0.095958	0.376196
N107	N	0.672168	0.062921	0.345228
C108	C	0.711192	0.029883	0.376179
C109	C	0.633170	0.095942	0.753895
C110	C	0.633177	0.095944	0.815813
C111	C	0.711225	0.029866	0.815796
C112	C	0.711220	0.029867	0.753877
C113	C	0.672189	0.062905	0.722927
C114	C	0.711185	0.029895	0.246152
C115	C	0.711181	0.029903	0.184231
C116	C	0.633131	0.095979	0.184253
C117	C	0.633137	0.095972	0.246169
C118	C	0.672166	0.062926	0.277117
O119	O	0.599989	0.124051	0.344131
O120	O	0.744371	0.001783	0.344146
H121	H	0.378504	0.145110	0.000006
H122	H	0.675338	-0.175263	-0.097258
H123	H	0.781999	-0.030058	0.443841
Cl124	Cl	0.081753	0.205785	0.000027
Cl125	Cl	0.667769	-0.801502	0.121037
Cl126	Cl	0.760284	-0.011668	0.854719
Cl127	Cl	0.676595	-0.072647	-0.120995
H128	H	0.601359	0.122879	0.159043
Cl129	Cl	0.799291	-0.044699	0.569865
Cl130	Cl	0.545046	0.170518	0.430162
Cl131	Cl	0.669122	-0.687724	0.121047
H132	H	-0.060195	0.140653	0.000015
H133	H	0.512312	-0.013708	0.000030
Cl134	Cl	-0.151880	-0.040009	0.000041
H135	H	0.601405	0.122850	0.841020
Cl136	Cl	0.675182	-0.186451	0.121076
H137	H	-0.167960	0.139553	0.000011
H138	H	0.676420	-0.083817	0.097329
Cl139	Cl	0.669175	-0.687707	-0.121039
Cl140	Cl	0.262576	-0.079944	0.000057
H141	H	0.742998	0.002966	0.728670
Cl142	Cl	0.584102	0.137483	0.714992
H143	H	0.670674	-0.558421	0.150918
Cl144	Cl	0.671903	-0.455811	0.174674
Cl145	Cl	0.672422	-0.418326	-0.174645
Cl146	Cl	0.394577	-0.034461	0.000039
H147	H	0.486250	0.146204	-0.000010
Cl148	Cl	0.670593	-0.569582	-0.174645
Cl149	Cl	0.760246	-0.011630	0.145307
H150	H	0.673577	-0.315720	0.150937
Cl151	Cl	0.672344	-0.418335	0.174686
Cl152	Cl	0.671967	-0.455792	-0.174648
Cl153	Cl	0.673794	-0.304555	-0.174638
Cl154	Cl	0.667797	-0.801502	-0.121038
Cl155	Cl	0.760252	-0.011649	0.285048
H156	H	0.562341	0.155885	0.556191
H157	H	-0.034158	-0.019267	0.000050
Cl158	Cl	0.128533	-0.081306	0.000048
H159	H	0.205832	0.187499	0.000016
Cl160	Cl	0.584080	0.137510	0.285094
