data_functionalizedCrystal
_audit_creation_method	'MofGen! by Chris Wilmer'
_symmetry_space_group_name_H-M	'P1'
_symmetry_Int_Tables_number	1
_symmetry_cell_setting	triclinic
loop_
_symmetry_equiv_pos_as_xyz
  x,y,z
_cell_length_a	13.897448
_cell_length_b	19.805407
_cell_length_c	19.805399
_cell_angle_alpha	89.980427
_cell_angle_beta	90.025019
_cell_angle_gamma	89.982308
loop_
_atom_site_label
_atom_site_type_symbol
_atom_site_fract_x
_atom_site_fract_y
_atom_site_fract_z
Zn1	Zn	-0.384037	-1.034777	0.382732
Zn2	Zn	0.115963	-0.534777	0.882732
Zn3	Zn	-0.545343	-1.034709	0.269549
Zn4	Zn	-0.045343	-0.534709	0.769549
Zn5	Zn	-0.384064	-0.921591	0.269556
Zn6	Zn	0.115936	-0.421591	0.769556
Zn7	Zn	-0.545292	-0.921572	0.382695
Zn8	Zn	-0.045292	-0.421572	0.882695
O9	O	-0.464684	-0.978162	0.326133
O10	O	0.035316	-0.478162	0.826133
O11	O	-0.405445	-1.129484	0.367730
O12	O	0.094555	-0.629484	0.867730
O13	O	-0.523982	-1.019683	0.174833
O14	O	-0.023982	-0.519683	0.674833
O15	O	-0.249079	-0.936642	0.284588
O16	O	0.250921	-0.436642	0.784588
O17	O	-0.523956	-1.129434	0.284575
O18	O	-0.023956	-0.629434	0.784575
O19	O	-0.249059	-1.019799	0.367737
O20	O	0.250941	-0.519799	0.867737
O21	O	-0.405490	-0.936576	0.174839
O22	O	0.094510	-0.436576	0.674839
O23	O	-0.405441	-0.826872	0.284552
O24	O	0.094559	-0.326872	0.784552
O25	O	-0.523869	-0.936609	0.477417
O26	O	-0.023869	-0.436609	0.977417
O27	O	-0.523894	-0.826858	0.367675
O28	O	-0.023894	-0.326858	0.867675
O29	O	-0.405395	-1.019780	0.477443
O30	O	0.094605	-0.519780	0.977443
O31	O	-0.680318	-1.019664	0.284539
O32	O	-0.180318	-0.519664	0.784539
O33	O	-0.680280	-0.936543	0.367668
O34	O	-0.180280	-0.436543	0.867668
C35	C	-0.464666	-0.802306	0.326111
C36	C	0.035334	-0.302306	0.826111
C37	C	-0.464681	-0.727074	0.326118
C38	C	0.035319	-0.227074	0.826118
C39	C	-0.715298	-0.978113	0.326113
C40	C	-0.215298	-0.478113	0.826113
C41	C	-0.822512	-0.978154	0.326128
C42	C	-0.322512	-0.478154	0.826128
C43	C	-0.464623	-0.978200	0.502676
C44	C	0.035377	-0.478200	1.002676
C45	C	-0.464597	-0.978216	0.577908
C46	C	0.035403	-0.478216	1.077908
C47	C	-1.018807	-0.978225	0.326170
C48	C	-0.518807	-0.478225	0.826170
C49	C	-0.909575	-0.978183	0.326149
C50	C	-0.409575	-0.478183	0.826149
C51	C	-0.213091	-0.978230	0.326167
C52	C	0.286909	-0.478230	0.826167
C53	C	-0.105877	-0.978259	0.326182
C54	C	0.394123	-0.478259	0.826182
C55	C	-0.464703	-1.154705	0.326155
C56	C	0.035297	-0.654705	0.826155
C57	C	-0.464711	-1.229937	0.326165
C58	C	0.035289	-0.729937	0.826165
C59	C	-0.526453	-0.691740	0.369330
C60	C	-0.026453	-0.191740	0.869330
C61	C	-0.526454	-0.621052	0.369339
C62	C	-0.026454	-0.121052	0.869339
C63	C	-0.464688	-0.585699	0.326133
C64	C	0.035312	-0.085699	0.826133
C65	C	-0.402910	-0.621037	0.282919
C66	C	0.097090	-0.121037	0.782919
C67	C	-0.402904	-0.691725	0.282913
C68	C	0.097096	-0.191725	0.782913
C69	C	-0.402931	-0.335964	0.282941
C70	C	0.097069	0.164036	0.782941
C71	C	-0.402944	-0.265272	0.282949
C72	C	0.097056	0.234728	0.782949
C73	C	-0.526481	-0.265292	0.369367
C74	C	-0.026481	0.234708	0.869367
C75	C	-0.526476	-0.335979	0.369362
C76	C	-0.026476	0.164021	0.869362
C77	C	-0.464694	-0.371311	0.326151
C78	C	0.035306	0.128689	0.826151
C79	C	-0.464692	-0.447960	0.326142
C80	C	0.035308	0.052040	0.826142
C81	C	-0.464695	-0.509051	0.326138
C82	C	0.035305	-0.009051	0.826138
C83	C	-0.464675	-0.978163	0.150277
C84	C	0.035325	-0.478163	0.650277
C85	C	-0.464429	-0.978278	0.075045
C86	C	0.035571	-0.478278	0.575045
C87	C	-0.402905	-1.021524	0.613267
C88	C	0.097095	-0.521524	1.113267
C89	C	-0.402877	-1.021531	0.683955
C90	C	0.097123	-0.521531	1.183955
C91	C	-0.464547	-0.978233	0.719283
C92	C	0.035453	-0.478233	1.219283
C93	C	-0.526242	-0.934920	0.683919
C94	C	-0.026242	-0.434920	1.183919
C95	C	-0.526264	-0.934910	0.613232
C96	C	-0.026264	-0.434910	1.113232
C97	C	-0.526152	-0.934958	0.968993
C98	C	-0.026152	-0.434958	1.468993
C99	C	-0.526127	-0.934973	1.039685
C100	C	-0.026127	-0.434973	1.539685
C101	C	-0.402765	-1.021579	1.039716
C102	C	0.097235	-0.521579	1.539716
C103	C	-0.402787	-1.021570	0.969029
C104	C	0.097213	-0.521570	1.469029
C105	C	-0.464478	-0.978255	0.933671
C106	C	0.035522	-0.478255	1.433671
C107	C	-0.464507	-0.978247	0.857022
C108	C	0.035493	-0.478247	1.357022
C109	C	-0.464524	-0.978244	0.795931
C110	C	0.035476	-0.478244	1.295931
H111	H	-0.576753	-0.720520	0.404511
H112	H	-0.076753	-0.220520	0.904511
H113	H	-0.576756	-0.592286	0.404526
H114	H	-0.076756	-0.092286	0.904526
H115	H	-0.352690	-1.056785	0.584508
H116	H	0.147310	-0.556785	1.084508
C117	C	-0.334972	-0.582151	0.235391
C118	C	0.165028	-0.082151	0.735391
H119	H	-0.343829	-0.534991	0.241577
H120	H	0.156171	-0.034991	0.741577
H121	H	-0.270178	-0.593748	0.245372
H122	H	0.229822	-0.093748	0.745372
H123	H	-0.349012	-0.593716	0.189894
H124	H	0.150988	-0.093716	0.689894
H125	H	-0.576451	-0.899664	0.712689
H126	H	-0.076451	-0.399664	1.212689
C127	C	-0.335021	-1.069174	0.722848
C128	C	0.164979	-0.569174	1.222848
H129	H	-0.298306	-1.094965	0.691684
H130	H	0.201694	-0.594965	1.191684
H131	H	-0.292977	-1.043301	0.750424
H132	H	0.207023	-0.543301	1.250424
H133	H	-0.371923	-1.098659	0.750423
H134	H	0.128077	-0.598659	1.250423
C135	C	-0.594124	-0.887273	0.574334
C136	C	-0.094124	-0.387273	1.074334
H137	H	-0.585298	-0.893463	0.527176
H138	H	-0.085298	-0.393463	1.027176
H139	H	-0.658933	-0.897159	0.585909
H140	H	-0.158933	-0.397159	1.085909
H141	H	-0.579988	-0.841800	0.585913
H142	H	-0.079988	-0.341800	1.085913
C143	C	-0.334991	-0.374821	0.235400
C144	C	0.165009	0.125179	0.735400
H145	H	-0.298220	-0.343640	0.209662
H146	H	0.201780	0.156360	0.709662
H147	H	-0.293003	-0.402418	0.261331
H148	H	0.206997	0.097582	0.761331
H149	H	-0.371846	-0.402373	0.205860
H150	H	0.128154	0.097627	0.705860
H151	H	-0.576775	-0.364760	0.404542
H152	H	-0.076775	0.135240	0.904542
H153	H	-0.576783	-0.236515	0.404554
H154	H	-0.076783	0.263485	0.904554
H155	H	-0.352641	-0.236489	0.247765
H156	H	0.147359	0.263511	0.747765
H157	H	-0.352598	-0.720492	0.247729
H158	H	0.147402	-0.220492	0.747729
C159	C	-0.334948	-1.069195	0.930172
C160	C	0.165052	-0.569195	1.430172
H161	H	-0.298194	-1.094985	0.961355
H162	H	0.201806	-0.594985	1.461355
H163	H	-0.371854	-1.098672	0.902595
H164	H	0.128146	-0.598672	1.402595
H165	H	-0.292924	-1.043303	0.902600
H166	H	0.207076	-0.543303	1.402600
H167	H	-0.352530	-1.056846	1.068513
H168	H	0.147470	-0.556846	1.568513
H169	H	-0.576347	-0.899712	1.068447
H170	H	-0.076347	-0.399712	1.568447
C171	C	-0.593989	-0.887300	0.930108
C172	C	-0.093989	-0.387300	1.430108
H173	H	-0.630711	-0.861516	0.961274
H174	H	-0.130711	-0.361516	1.461274
H175	H	-0.557074	-0.857819	0.902543
H176	H	-0.057074	-0.357819	1.402543
H177	H	-0.636043	-0.913162	0.902522
H178	H	-0.136043	-0.413162	1.402522
