data_functionalizedCrystal
_audit_creation_method	'MofGen! by Chris Wilmer'
_symmetry_space_group_name_H-M	'P1'
_symmetry_Int_Tables_number	1
_symmetry_cell_setting	triclinic
loop_
_symmetry_equiv_pos_as_xyz
  x,y,z
_cell_length_a	12.759395
_cell_length_b	12.645330
_cell_length_c	12.645323
_cell_angle_alpha	90.028979
_cell_angle_beta	90.018136
_cell_angle_gamma	90.012491
loop_
_atom_site_label
_atom_site_type_symbol
_atom_site_fract_x
_atom_site_fract_y
_atom_site_fract_z
Zn1	Zn	1.606270	-0.422015	0.599327
Zn2	Zn	2.106270	0.077985	1.099327
Zn3	Zn	1.606171	-0.599309	0.422061
Zn4	Zn	2.106171	-0.099309	0.922061
Zn5	Zn	1.430572	-0.422059	0.422083
Zn6	Zn	1.930572	0.077941	0.922083
Zn7	Zn	1.430567	-0.599236	0.599287
Zn8	Zn	1.930567	-0.099236	1.099287
O9	O	1.518395	-0.510655	0.510689
O10	O	2.018395	-0.010655	1.010689
O11	O	1.753278	-0.445545	0.575820
O12	O	2.253278	0.054455	1.075820
O13	O	1.582838	-0.575845	0.273716
O14	O	2.082838	-0.075845	0.773716
O15	O	1.453923	-0.273706	0.445621
O16	O	1.953923	0.226294	0.945621
O17	O	1.753205	-0.575802	0.445583
O18	O	2.253205	-0.075802	0.945583
O19	O	1.583007	-0.273673	0.575841
O20	O	2.083007	0.226327	1.075841
O21	O	1.453827	-0.445621	0.273733
O22	O	1.953827	0.054379	0.773733
O23	O	1.283551	-0.445550	0.445582
O24	O	1.783551	0.054450	0.945582
O25	O	1.453914	-0.575678	0.747640
O26	O	1.953914	-0.075678	1.247640
O27	O	1.283547	-0.575721	0.575773
O28	O	1.783547	-0.075721	1.075773
O29	O	1.583002	-0.445474	0.747669
O30	O	2.083002	0.054526	1.247669
O31	O	1.582833	-0.747646	0.445544
O32	O	2.082833	-0.247646	0.945544
O33	O	1.453818	-0.747593	0.575752
O34	O	1.953818	-0.247593	1.075752
C35	C	1.245428	-0.510634	0.510676
C36	C	1.745428	-0.010634	1.010676
C37	C	1.128651	-0.510650	0.510696
C38	C	1.628651	-0.010650	1.010696
C39	C	1.128708	-0.375233	0.646531
C40	C	1.628708	0.124767	1.146531
C41	C	1.073875	-0.307537	0.714457
C42	C	1.573875	0.192463	1.214457
C43	C	0.964153	-0.307556	0.714470
C44	C	1.464153	0.192444	1.214470
C45	C	0.909262	-0.375275	0.646548
C46	C	1.409262	0.124725	1.146548
C47	C	0.964094	-0.442971	0.578622
C48	C	1.464094	0.057029	1.078622
C49	C	1.073818	-0.442947	0.578618
C50	C	1.573818	0.057053	1.078618
C51	C	0.964038	-0.578382	0.442783
C52	C	1.464038	-0.078382	0.942783
C53	C	1.073759	-0.578370	0.442774
C54	C	1.573759	-0.078370	0.942774
C55	C	0.909146	-0.646102	0.374861
C56	C	1.409146	-0.146102	0.874861
C57	C	0.963979	-0.713805	0.306939
C58	C	1.463979	-0.213805	0.806939
C59	C	1.073707	-0.713784	0.306929
C60	C	1.573707	-0.213784	0.806929
C61	C	1.128592	-0.646066	0.374848
C62	C	1.628592	-0.146066	0.874848
C63	C	1.518343	-0.786084	0.510664
C64	C	2.018343	-0.286084	1.010664
C65	C	1.518416	-0.903914	0.510689
C66	C	2.018416	-0.403914	1.010689
C67	C	1.599450	-1.071468	0.428609
C68	C	2.099450	-0.571468	0.928609
C69	C	1.599714	-0.948908	0.428810
C70	C	2.099714	-0.448908	0.928810
C71	C	1.548444	-0.948293	0.622432
C72	C	2.048444	-0.448293	1.122432
C73	C	1.549087	-1.070891	0.621997
C74	C	2.049087	-0.570891	1.121997
C75	C	1.407324	-1.071243	0.482127
C76	C	1.907324	-0.571243	0.982127
C77	C	1.407856	-0.948638	0.479621
C78	C	1.907856	-0.448638	0.979621
C79	C	1.792429	-0.510677	0.510703
C80	C	2.292429	-0.010677	1.010703
C81	C	1.909205	-0.510686	0.510709
C82	C	2.409205	-0.010686	1.010709
C83	C	1.518468	-0.510563	0.787195
C84	C	2.018468	-0.010563	1.287195
C85	C	1.518500	-0.510524	0.905025
C86	C	2.018500	-0.010524	1.405025
C87	C	1.518477	-0.234149	0.510738
C88	C	2.018477	0.265851	1.010738
C89	C	1.518511	-0.116319	0.510758
C90	C	2.018511	0.383681	1.010758
C91	C	1.518383	-0.510669	0.235260
C92	C	2.018383	-0.010669	0.735260
C93	C	1.518555	-0.510410	0.117430
C94	C	2.018555	-0.010410	0.617430
C95	C	1.437295	-0.592419	0.949889
C96	C	1.937295	-0.092419	1.449889
C97	C	1.437009	-0.592111	1.072449
C98	C	1.937009	-0.092111	1.572449
C99	C	1.488888	-0.398626	1.072933
C100	C	1.988888	0.101374	1.572933
C101	C	1.488266	-0.399166	0.950335
C102	C	1.988266	0.100834	1.450335
C103	C	1.629588	-0.539412	0.950208
C104	C	2.129588	-0.039412	1.450208
C105	C	1.629026	-0.541811	1.072814
C106	C	2.129026	-0.041811	1.572814
H107	H	0.819921	-0.375276	0.646556
H108	H	1.319921	0.124724	1.146556
H109	H	0.819805	-0.646109	0.374874
H110	H	1.319805	-0.146109	0.874874
F111	F	1.245483	-0.375219	0.646534
F112	F	1.745483	0.124781	1.146534
H113	H	1.492717	-1.100556	0.685312
H114	H	1.992717	-0.600556	1.185312
F115	F	1.132301	-0.235467	0.786740
F116	F	1.632301	0.264533	1.286740
F117	F	1.706516	-1.111629	0.453083
F118	F	2.206516	-0.611629	0.953083
H119	H	1.407075	-0.374722	0.921743
H120	H	1.907075	0.125278	1.421743
F121	F	1.563844	-0.316643	1.111013
F122	F	2.063844	0.183357	1.611013
H123	H	1.118345	-0.768907	0.251612
H124	H	1.618345	-0.268907	0.751612
H125	H	1.355449	-0.573503	0.919082
H126	H	1.855449	-0.073503	1.419082
F127	F	1.461197	-0.701133	0.911358
F128	F	1.961197	-0.201133	1.411358
F129	F	1.329431	-0.567071	1.110793
F130	F	1.829431	-0.067071	1.610793
H131	H	1.217933	-0.646037	0.374841
H132	H	1.717933	-0.146037	0.874841
F133	F	1.575208	-1.110104	0.319991
F134	F	2.075208	-0.610104	0.819991
H135	H	0.919277	-0.768932	0.251637
H136	H	1.419277	-0.268932	0.751637
H137	H	1.580926	-0.918907	0.345954
H138	H	2.080926	-0.418907	0.845954
H139	H	1.408604	-0.373729	1.103641
H140	H	1.908604	0.126271	1.603641
F141	F	1.707354	-0.910464	0.453567
F142	F	2.207354	-0.410464	0.953567
H143	H	1.630360	-1.099403	0.646249
H144	H	2.130360	-0.599403	1.146249
H145	H	1.544859	-0.336044	0.920656
H146	H	2.044859	0.163956	1.420656
H147	H	1.380018	-1.102254	0.402064
H148	H	1.880018	-0.602254	0.902064
F149	F	1.473730	-0.910206	0.704579
F150	F	1.973730	-0.410206	1.204579
F151	F	1.653474	-0.908053	0.654664
F152	F	2.153474	-0.408053	1.154664
F153	F	1.378256	-0.910737	0.372139
F154	F	1.878256	-0.410737	0.872139
F155	F	1.664954	-0.644195	0.909799
F156	F	2.164954	-0.144195	1.409799
H157	H	1.651401	-0.624080	1.101893
H158	H	2.151401	-0.124080	1.601893
F159	F	1.324777	-0.908622	0.552093
F160	F	1.824777	-0.408622	1.052093
F161	F	1.328498	-1.109156	0.560330
F162	F	1.828498	-0.609156	1.060330
H163	H	1.455532	-0.674990	1.102534
H164	H	1.955532	-0.174990	1.602534
F165	F	1.712326	-0.469531	1.112835
F166	F	2.212326	0.030469	1.612835
H167	H	0.919509	-0.252425	0.769775
H168	H	1.419509	0.247575	1.269775
H169	H	1.690086	-0.479760	0.921202
H170	H	2.190086	0.020240	1.421202
