data_functionalizedCrystal
_audit_creation_method	'MofGen! by Chris Wilmer'
_symmetry_space_group_name_H-M	'P1'
_symmetry_Int_Tables_number	1
_symmetry_cell_setting	triclinic
loop_
_symmetry_equiv_pos_as_xyz
  x,y,z
_cell_length_a	14.908571
_cell_length_b	14.908520
_cell_length_c	14.908775
_cell_angle_alpha	90.203352
_cell_angle_beta	90.190472
_cell_angle_gamma	90.205961
loop_
_atom_site_label
_atom_site_type_symbol
_atom_site_fract_x
_atom_site_fract_y
_atom_site_fract_z
Zn1	Zn	1.320801	-0.400516	0.609276
Zn2	Zn	1.820801	0.099484	1.109276
Zn3	Zn	1.319734	-0.559463	0.467522
Zn4	Zn	1.819734	-0.059463	0.967522
Zn5	Zn	1.179088	-0.401482	0.450324
Zn6	Zn	1.679088	0.098518	0.950324
Zn7	Zn	1.161785	-0.542202	0.608240
Zn8	Zn	1.661785	-0.042202	1.108240
O9	O	1.245352	-0.475916	0.533840
O10	O	1.745352	0.024084	1.033840
O11	O	1.446069	-0.428420	0.598102
O12	O	1.946069	0.071580	1.098102
O13	O	1.307871	-0.546135	0.339827
O14	O	1.807871	-0.046135	0.839827
O15	O	1.205574	-0.275941	0.464646
O16	O	1.705574	0.224059	0.964646
O17	O	1.445285	-0.545198	0.493956
O18	O	1.945285	-0.045198	0.993956
O19	O	1.309690	-0.275232	0.581427
O20	O	1.809690	0.224768	1.081427
O21	O	1.204539	-0.430066	0.327193
O22	O	1.704539	0.069934	0.827193
O23	O	1.051383	-0.413329	0.463642
O24	O	1.551383	0.086671	0.963642
O25	O	1.176085	-0.515779	0.733790
O26	O	1.676085	-0.015779	1.233790
O27	O	1.038671	-0.516716	0.579662
O28	O	1.538671	-0.016716	1.079662
O29	O	1.292913	-0.411683	0.734551
O30	O	1.792913	0.088317	1.234551
O31	O	1.291094	-0.682586	0.492952
O32	O	1.791094	-0.182586	0.992952
O33	O	1.175050	-0.669904	0.596337
O34	O	1.675050	-0.169904	1.096337
C35	C	1.012510	-0.463255	0.519674
C36	C	1.512510	0.036745	1.019674
C37	C	0.912896	-0.457859	0.513635
C38	C	1.412896	0.042141	1.013635
C39	C	0.712521	-0.555563	0.622956
C40	C	1.212521	-0.055563	1.122956
C41	C	0.618925	-0.550496	0.617286
C42	C	1.118925	-0.050496	1.117286
C43	C	0.632107	-0.442652	0.496630
C44	C	1.132107	0.057348	0.996630
C45	C	0.725703	-0.447720	0.502300
C46	C	1.225703	0.052280	1.002300
C47	C	0.765906	-0.504178	0.565464
C48	C	1.265906	-0.004178	1.065464
C49	C	0.859504	-0.509250	0.571130
C50	C	1.359504	-0.009250	1.071130
C51	C	0.872684	-0.401402	0.450478
C52	C	1.372684	0.098598	0.950478
C53	C	0.779088	-0.396335	0.444808
C54	C	1.279088	0.103665	0.944808
C55	C	1.231101	-0.708763	0.546419
C56	C	1.731101	-0.208763	1.046419
C57	C	1.225085	-0.808379	0.551835
C58	C	1.725085	-0.308379	1.051835
C59	C	1.334730	-1.008713	0.454458
C60	C	1.834730	-0.508713	0.954458
C61	C	1.329081	-1.102311	0.459544
C62	C	1.829081	-0.602311	0.959544
C63	C	1.208142	-1.089176	0.567098
C64	C	1.708142	-0.589176	1.067098
C65	C	1.213791	-0.995577	0.562012
C66	C	1.713791	-0.495577	1.062012
C67	C	1.277087	-0.955350	0.505689
C68	C	1.777087	-0.455350	1.005689
C69	C	1.282731	-0.861750	0.500598
C70	C	1.782731	-0.361750	1.000598
C71	C	1.161797	-0.848616	0.608157
C72	C	1.661797	-0.348616	1.108157
C73	C	1.156148	-0.942214	0.613243
C74	C	1.656148	-0.442214	1.113243
C75	C	1.479103	-0.488627	0.548063
C76	C	1.979103	0.011373	1.048063
C77	C	1.578714	-0.494043	0.554124
C78	C	2.078714	0.005957	1.054124
C79	C	1.232688	-0.461698	0.767598
C80	C	1.732688	0.038302	1.267598
C81	C	1.227291	-0.455639	0.867212
C82	C	1.727291	0.044361	1.367212
C83	C	1.259681	-0.242159	0.521234
C84	C	1.759681	0.257841	1.021234
C85	C	1.265788	-0.142546	0.515861
C86	C	1.765788	0.357454	1.015861
C87	C	1.165891	-0.386671	1.001034
C88	C	1.665891	0.113329	1.501034
C89	C	1.170959	-0.392362	0.907438
C90	C	1.670959	0.107638	1.407438
C91	C	1.278561	-0.513227	0.920589
C92	C	1.778561	-0.013227	1.420589
C93	C	1.273494	-0.507536	1.014185
C94	C	1.773494	-0.007536	1.514185
C95	C	1.217156	-0.444257	1.054404
C96	C	1.717156	0.055743	1.554404
C97	C	1.212085	-0.438571	1.148002
C98	C	1.712085	0.061429	1.648002
C99	C	1.319692	-0.559431	1.161151
C100	C	1.819692	-0.059431	1.661151
C101	C	1.324759	-0.565122	1.067555
C102	C	1.824759	-0.065122	1.567555
C103	C	1.257959	-0.490099	1.300993
C104	C	1.757959	0.009901	1.800993
C105	C	1.263355	-0.496159	1.201379
C106	C	1.763355	0.003841	1.701379
H107	H	0.599356	-0.396681	0.445210
H108	H	1.099356	0.103319	0.945210
F109	F	1.390434	-1.159102	0.405018
F110	F	1.890434	-0.659102	0.905018
F111	F	1.384719	-0.632460	1.024741
F112	F	1.884719	-0.132460	1.524741
F113	F	0.736290	-0.336247	0.377591
F114	F	1.236290	0.163753	0.877591
F115	F	1.140794	-1.132005	0.627047
F116	F	1.640794	-0.632005	1.127047
H117	H	1.104617	-0.974981	0.659103
H118	H	1.604617	-0.474981	1.159103
F119	F	1.100436	-0.791816	0.662675
F120	F	1.600436	-0.291816	1.162675
H121	H	1.166211	-0.387046	1.180747
H122	H	1.666211	0.112954	1.680747
F123	F	1.105937	-0.319323	1.043841
F124	F	1.605937	0.180677	1.543841
H125	H	1.129216	-0.345468	0.863987
H126	H	1.629216	0.154532	1.363987
H127	H	1.324435	-0.564740	0.887826
H128	H	1.824435	-0.064740	1.387826
H129	H	1.334267	-0.828997	0.454735
H130	H	1.834267	-0.328997	0.954735
H131	H	1.361440	-0.606317	1.204615
H132	H	1.861440	-0.106317	1.704615
F133	F	0.755311	-0.615658	0.690171
F134	F	1.255311	-0.115658	1.190171
H135	H	0.892236	-0.555223	0.622560
H136	H	1.392236	-0.055223	1.122560
H137	H	0.575462	-0.592337	0.664103
H138	H	1.075462	-0.092337	1.164103
H139	H	0.916161	-0.359563	0.403662
H140	H	1.416161	0.140437	0.903662
H141	H	1.386262	-0.975959	0.408590
H142	H	1.886262	-0.475959	0.908590
