data_functionalizedCrystal
_audit_creation_method	'MofGen! by Chris Wilmer'
_symmetry_space_group_name_H-M	'P1'
_symmetry_Int_Tables_number	1
_symmetry_cell_setting	triclinic
loop_
_symmetry_equiv_pos_as_xyz
  x,y,z
_cell_length_a	6.817900
_cell_length_b	14.125369
_cell_length_c	10.943881
_cell_angle_alpha	94.574219
_cell_angle_beta	108.843448
_cell_angle_gamma	100.397648
loop_
_atom_site_label
_atom_site_type_symbol
_atom_site_fract_x
_atom_site_fract_y
_atom_site_fract_z
V1	V	-4.072498	-0.133086	-0.402045
O2	O	-4.075335	0.006423	-0.394914
O3	O	-4.008128	-0.263914	-0.398793
O4	O	-4.051150	-0.131027	-0.577620
O5	O	-4.032014	-0.127384	-0.214849
V6	V	-4.554690	-0.116401	-0.379716
O7	O	-4.336676	-0.169687	-0.451026
O8	O	-4.740709	-0.079800	-0.330735
O9	O	-4.395854	0.014428	-0.382968
O10	O	-4.669251	-0.255910	-0.386847
O11	O	-4.712571	-0.122102	-0.566912
O12	O	-4.352831	-0.118460	-0.204141
C13	C	-3.848368	-0.295808	-0.392321
C14	C	-3.877205	-0.402762	-0.390832
C15	C	-4.116453	-0.650902	-0.393610
C16	C	-3.930116	-0.598585	-0.388156
C17	C	-3.900677	-0.489619	-0.389645
C18	C	-4.145899	-0.759878	-0.392121
C19	C	-3.903247	-0.126295	-0.620431
C20	C	-3.966970	-0.125477	-0.763961
C21	C	-4.194948	-0.130008	-0.854827
C22	C	-4.108245	-0.047307	-0.920878
C23	C	-4.167175	-0.206661	-0.953641
C24	C	-3.879403	-0.042721	-0.828109
C25	C	-3.938384	-0.202148	-0.860879
C26	C	-3.851517	-0.119424	-0.926883
C27	C	-4.218954	0.046316	-0.389436
C28	C	-4.169357	0.153269	-0.390933
C29	C	-4.164076	-0.123195	-0.161323
C30	C	-4.079591	-0.124008	-0.017792
H31	H	-4.339439	-0.134389	-0.822941
H32	H	-3.866036	-0.267629	-0.834075
H33	H	-3.757227	0.026624	-0.773772
H34	H	-3.706741	-0.114918	-0.958500
H35	H	-4.180654	0.018167	-0.947661
H36	H	-4.289484	-0.275933	-1.008123
H37	H	-3.792696	-0.635630	-0.382367
H38	H	-4.253860	-0.613859	-0.399396
