data_functionalizedCrystal
_audit_creation_method	'MofGen! by Chris Wilmer'
_symmetry_space_group_name_H-M	'P1'
_symmetry_Int_Tables_number	1
_symmetry_cell_setting	triclinic
loop_
_symmetry_equiv_pos_as_xyz
  x,y,z
_cell_length_a	17.640112
_cell_length_b	12.645330
_cell_length_c	12.645324
_cell_angle_alpha	89.968234
_cell_angle_beta	101.174612
_cell_angle_gamma	101.241872
loop_
_atom_site_label
_atom_site_type_symbol
_atom_site_fract_x
_atom_site_fract_y
_atom_site_fract_z
Zn1	Zn	1.208349	-0.094024	-0.272303
Zn2	Zn	1.208260	-0.271357	-0.095067
Zn3	Zn	1.076172	-0.129956	-0.130832
Zn4	Zn	1.076159	-0.307121	-0.308047
O5	O	1.142235	-0.200615	-0.201562
O6	O	1.318939	-0.087543	-0.218865
O7	O	1.190707	-0.252671	0.048527
O8	O	1.093748	0.023169	-0.149608
O9	O	1.318873	-0.217829	-0.088651
O10	O	1.190858	0.049568	-0.253545
O11	O	1.093662	-0.148784	0.022251
O12	O	0.965569	-0.183462	-0.184267
O13	O	1.093726	-0.278783	-0.451644
O14	O	0.965560	-0.313625	-0.314466
O15	O	1.190846	-0.122221	-0.425383
O16	O	1.190694	-0.424460	-0.123310
O17	O	1.093640	-0.450736	-0.279786
C18	C	0.936887	-0.256324	-0.257127
C19	C	0.849038	-0.280182	-0.280923
C20	C	0.560029	-0.019348	-0.020796
C21	C	0.477481	-0.041788	-0.043170
C22	C	0.477526	-0.177512	-0.178513
C23	C	0.560075	-0.155080	-0.156153
C24	C	0.601320	-0.075998	-0.077293
C25	C	0.601366	-0.211730	-0.212650
C26	C	0.683908	-0.189303	-0.190289
C27	C	0.725159	-0.110227	-0.111430
C28	C	0.683862	-0.053571	-0.054932
C29	C	0.560119	-0.290818	-0.291505
C30	C	0.601410	-0.347468	-0.348002
C31	C	0.683954	-0.325036	-0.325646
C32	C	0.725205	-0.245959	-0.246787
C33	C	0.725251	-0.381692	-0.382145
C34	C	0.807793	-0.359265	-0.359783
C35	C	0.807747	-0.223532	-0.224426
C36	C	1.142177	-0.476060	-0.201563
C37	C	1.142225	-0.593877	-0.201579
C38	C	1.081420	-0.777947	-0.300202
C39	C	1.081109	-0.655472	-0.300022
C40	C	1.119675	-0.644605	-0.095962
C41	C	1.119304	-0.767304	-0.096562
C42	C	1.225952	-0.738240	-0.207566
C43	C	1.225439	-0.615772	-0.210148
C44	C	1.348385	-0.144688	-0.145781
C45	C	1.436234	-0.120856	-0.122011
C46	C	1.142294	-0.200483	-0.478052
C47	C	1.142320	-0.200427	-0.595875
C48	C	1.142315	0.075912	-0.201579
C49	C	1.142348	0.193751	-0.201586
C50	C	1.203655	-0.102107	-0.746854
C51	C	1.203459	-0.101866	-0.624347
C52	C	1.059054	-0.192667	-0.662896
C53	C	1.059427	-0.191946	-0.785394
C54	C	1.163574	-0.306811	-0.757319
C55	C	1.165395	-0.305752	-0.634220
C56	C	1.142222	-0.200657	0.073864
C57	C	1.142350	-0.200372	0.191728
H58	H	0.841331	-0.159120	-0.160226
H59	H	1.019828	-0.825565	-0.298162
H60	H	1.271345	-0.754916	-0.135465
H61	H	1.019129	-0.643060	-0.297845
H62	H	0.717446	0.010842	0.009269
H63	H	0.691657	-0.446088	-0.446345
H64	H	1.058189	-0.812584	-0.088867
H65	H	1.123989	-0.381081	-0.614778
H66	H	0.492908	-0.309075	-0.309709
H67	H	1.226671	-0.312014	-0.588559
H68	H	1.265201	-0.104121	-0.577561
H69	H	0.792370	-0.091971	-0.093223
H70	H	0.593613	0.045065	0.043404
H71	H	0.443865	0.004357	0.002835
H72	H	1.273224	-0.572160	-0.141754
H73	H	1.246522	-0.763492	-0.282080
H74	H	1.161756	-0.785447	-0.021795
H75	H	0.567817	-0.411860	-0.412207
H76	H	1.041436	-0.114812	-0.818874
H77	H	1.242445	-0.581997	-0.287766
H78	H	1.118925	-0.379749	-0.798399
H79	H	0.841413	-0.405394	-0.405790
H80	H	1.223230	-0.318258	-0.772153
H81	H	1.265603	-0.104068	-0.759575
H82	H	0.443933	-0.241904	-0.242717
H83	H	1.095218	-0.621479	-0.379044
H84	H	1.095400	-0.803555	-0.379530
H85	H	1.162645	-0.603792	-0.021470
H86	H	1.189406	-0.022565	-0.598839
H87	H	1.059197	-0.630409	-0.087657
H88	H	1.189783	-0.023217	-0.781433
H89	H	1.012194	-0.261631	-0.827828
H90	H	1.012133	-0.263027	-0.646432
H91	H	1.040734	-0.116538	-0.637161
