data_functionalizedCrystal
_audit_creation_method	'MofGen! by Chris Wilmer'
_symmetry_space_group_name_H-M	'P1'
_symmetry_Int_Tables_number	1
_symmetry_cell_setting	triclinic
loop_
_symmetry_equiv_pos_as_xyz
  x,y,z
_cell_length_a	10.540558
_cell_length_b	14.853567
_cell_length_c	9.016244
_cell_angle_alpha	89.992023
_cell_angle_beta	90.001713
_cell_angle_gamma	95.915966
loop_
_atom_site_label
_atom_site_type_symbol
_atom_site_fract_x
_atom_site_fract_y
_atom_site_fract_z
O1	O	-1.684472	0.127134	-0.123304
O2	O	-1.314930	0.139087	-0.123317
O3	O	-1.509572	0.001936	-0.123293
O4	O	-1.489830	0.264285	-0.123328
O5	O	-1.509561	0.001928	0.123388
O6	O	-1.314920	0.139079	0.123364
O7	O	-1.684461	0.127126	0.123377
Cu8	Cu	-1.499689	0.133101	0.145894
Cu9	Cu	-1.499702	0.133111	-0.145834
O10	O	-1.489819	0.264277	0.123353
C11	C	-1.267632	0.138183	0.000022
C12	C	-1.126715	0.135490	0.000017
C13	C	-1.508672	-0.031662	0.000049
C14	C	-1.505992	-0.131761	0.000053
N15	N	-1.499690	0.133094	0.351080
C16	C	-0.944422	0.032564	0.000610
C17	C	-1.091009	0.035294	0.000036
C18	C	-1.064519	0.183710	-0.140849
C19	C	-0.918013	0.180283	-0.140949
C20	C	-0.917490	0.182312	0.139572
C21	C	-1.064460	0.183242	0.141417
C22	C	-0.731761	0.128018	0.000039
C23	C	-0.872685	0.130675	0.000045
C24	C	-1.490719	0.297874	0.000008
C25	C	-1.493400	0.397973	-0.000006
C26	C	-1.620353	0.811217	0.000052
C27	C	-1.389114	0.831204	0.000043
C28	C	-1.386593	0.737156	0.000028
C29	C	-1.500954	0.680135	0.000028
C30	C	-1.617836	0.717161	0.000043
C31	C	-1.269714	0.700123	0.000029
C32	C	-1.267189	0.606070	0.000017
C33	C	-1.381551	0.549046	0.000006
C34	C	-1.498437	0.586078	0.000018
C35	C	-1.612798	0.529056	0.000018
C36	C	-1.729686	0.566086	0.000020
C37	C	-1.732198	0.660137	0.000032
C38	C	-1.379039	0.454995	-0.000006
C39	C	-1.610281	0.434999	0.000009
N40	N	-1.499712	0.133111	-0.351020
C41	C	-1.603867	0.059736	0.414018
C42	C	-1.604251	0.059940	0.585908
C43	C	-1.528252	0.227479	0.586538
C44	C	-1.528987	0.227040	0.414593
C45	C	-1.366662	0.112932	0.414467
C46	C	-1.367563	0.110810	0.586424
H47	H	-1.134035	-0.002647	0.101016
Br48	Br	-0.865506	0.128257	0.317543
H49	H	-1.176608	0.746557	0.000035
Br50	Br	-0.897492	-0.033419	0.168996
Br51	Br	-1.108560	0.555823	0.000008
H52	H	-1.702980	0.072953	0.627034
H53	H	-1.283871	0.424849	0.000015
Br54	Br	-1.237454	0.202072	0.346630
Br55	Br	-1.576005	-0.056909	0.656287
H56	H	-1.827362	0.690295	0.000073
H57	H	-1.339138	0.045520	0.371125
H58	H	-0.914653	-0.006849	-0.099841
H59	H	-1.296006	0.877637	0.000052
H60	H	-1.087882	0.256292	0.149911
Br61	Br	-1.576098	-0.057514	0.345151
H62	H	-1.133179	-0.002908	-0.101110
H63	H	-1.822798	0.519646	0.000029
Br64	Br	-0.871648	0.120890	-0.316439
H65	H	-1.105805	0.148016	0.245630
H66	H	-0.869252	0.252340	-0.147352
H67	H	-1.703409	0.388577	-0.000002
Br68	Br	-1.767494	0.081116	0.341991
H69	H	-1.625992	0.244621	0.374478
Br70	Br	-0.837454	0.302930	0.141144
H71	H	-1.455766	0.283197	0.372956
Br72	Br	-1.778978	0.861468	0.000040
H73	H	-1.454380	0.283438	0.627388
H74	H	-1.624150	0.245462	0.629591
Br75	Br	-1.331425	-0.004894	0.654485
H76	H	-1.086062	0.257291	-0.146101
H77	H	-1.286438	0.160689	0.629352
H78	H	-1.107480	0.150220	-0.245678
