data_functionalizedCrystal
_audit_creation_method	'MofGen! by Chris Wilmer'
_symmetry_space_group_name_H-M	'P1'
_symmetry_Int_Tables_number	1
_symmetry_cell_setting	triclinic
loop_
_symmetry_equiv_pos_as_xyz
  x,y,z
_cell_length_a	14.853566
_cell_length_b	14.853567
_cell_length_c	13.330367
_cell_angle_alpha	90.008763
_cell_angle_beta	90.004068
_cell_angle_gamma	96.365328
loop_
_atom_site_label
_atom_site_type_symbol
_atom_site_fract_x
_atom_site_fract_y
_atom_site_fract_z
O1	O	1.196370	-0.117686	0.083349
O2	O	0.933910	-0.131708	0.083364
O3	O	1.072151	0.006533	0.083359
O4	O	1.058130	-0.255927	0.083354
O5	O	1.072130	0.006511	-0.083488
O6	O	0.933889	-0.131730	-0.083483
O7	O	1.196349	-0.117708	-0.083499
Cu8	Cu	1.065117	-0.124721	-0.098725
Cu9	Cu	1.065142	-0.124695	0.098591
O10	O	1.058108	-0.255949	-0.083493
C11	C	0.900311	-0.131084	-0.000057
C12	C	0.800227	-0.129181	-0.000051
C13	C	0.377054	-0.121118	0.090880
C14	C	0.377052	-0.121143	-0.091023
C15	C	0.471086	-0.122930	-0.091020
C16	C	0.518108	-0.123813	-0.000066
C17	C	0.471096	-0.122908	0.090886
C18	C	0.518104	-0.123844	-0.181970
C19	C	0.612144	-0.125632	-0.181971
C20	C	0.659168	-0.126509	-0.091015
C21	C	0.612151	-0.125603	-0.000060
C22	C	0.659173	-0.126486	0.090895
C23	C	0.612158	-0.125574	0.181851
C24	C	0.518121	-0.123785	0.181841
C25	C	0.753205	-0.128298	-0.091006
C26	C	0.753215	-0.128276	0.090900
C27	C	1.071505	0.040111	-0.000062
C28	C	1.069601	0.140194	-0.000053
C29	C	1.229948	-0.118332	-0.000075
C30	C	1.330032	-0.120235	-0.000075
C31	C	1.058754	-0.289526	-0.000071
C32	C	1.060658	-0.389610	-0.000073
N33	N	1.065106	-0.124739	-0.237507
C34	C	0.979435	0.552728	-0.000067
C35	C	1.143668	0.574009	-0.000076
C36	C	1.145458	0.479976	-0.000070
C37	C	1.064236	0.422313	-0.000064
C38	C	0.981223	0.458685	-0.000064
C39	C	1.228470	0.443597	-0.000081
C40	C	1.230263	0.349558	-0.000076
C41	C	1.149040	0.291894	-0.000063
C42	C	1.066023	0.328271	-0.000061
C43	C	0.984801	0.270608	-0.000055
C44	C	0.901784	0.306983	-0.000047
C45	C	0.899999	0.401021	-0.000050
C46	C	1.150824	0.197856	-0.000059
C47	C	0.986588	0.176566	-0.000052
C48	C	1.119898	-0.179458	-0.710124
C49	C	1.010414	-0.069896	-0.710104
C50	C	1.010401	-0.069910	-0.605085
C51	C	1.065138	-0.124698	-0.552581
C52	C	1.119888	-0.179471	-0.605096
C53	C	0.955658	-0.015130	-0.552563
C54	C	0.955644	-0.015141	-0.447538
C55	C	1.010377	-0.069934	-0.395032
C56	C	1.065129	-0.124711	-0.447553
C57	C	1.119866	-0.179499	-0.395049
C58	C	1.174613	-0.234282	-0.447568
C59	C	1.174621	-0.234265	-0.552590
C60	C	1.010369	-0.069951	-0.290011
C61	C	1.119856	-0.179513	-0.290021
N62	N	1.065160	-0.124670	0.237372
H63	H	0.338760	-0.120430	-0.165074
H64	H	0.965797	-0.025345	-0.247255
H65	H	0.835653	0.260023	-0.000048
O66	O	0.798950	-0.128975	0.179231
C67	C	0.863478	-0.052008	0.184668
H68	H	0.842212	0.003055	0.133053
H69	H	0.932459	-0.071013	0.160239
C70	C	0.895632	-0.084275	0.356724
C71	C	0.869508	-0.016642	0.293336
H72	H	0.899355	-0.062461	0.423755
H73	H	0.852160	-0.136131	0.353060
H74	H	0.953113	-0.100106	0.336354
H75	H	0.812023	-0.000820	0.313698
H76	H	0.912970	0.035218	0.297005
O77	O	0.898853	0.588164	0.000074
C78	C	0.892905	0.641915	0.086501
H79	H	0.963937	0.665249	0.115305
H80	H	0.853080	0.600428	0.147011
C81	C	0.757010	0.696492	0.024880
C82	C	0.844253	0.725158	0.060253
H83	H	0.726996	0.747838	0.008692
H84	H	0.761015	0.660277	-0.033346
H85	H	0.723834	0.661919	0.075311
H86	H	0.877431	0.759720	0.009818
H87	H	0.840253	0.761381	0.118470
O88	O	0.472404	-0.122834	-0.270288
C89	C	0.428103	-0.043793	-0.275725
H90	H	0.463520	0.010210	-0.224123
H91	H	0.354552	-0.060069	-0.251280
C92	C	0.387725	-0.074746	-0.447769
C93	C	0.431229	-0.008415	-0.384397
H94	H	0.389649	-0.052925	-0.514803
H95	H	0.417568	-0.127999	-0.444106
H96	H	0.326436	-0.088303	-0.427386
H97	H	0.492519	0.005133	-0.404773
H98	H	0.401396	0.044841	-0.388066
O99	O	0.819420	0.436465	0.000083
C100	C	0.813475	0.490226	0.086501
H101	H	0.884507	0.513554	0.115308
H102	H	0.773642	0.448751	0.147014
C103	C	0.677593	0.544816	0.024860
C104	C	0.764836	0.573474	0.060237
H105	H	0.647587	0.596165	0.008662
H106	H	0.681596	0.508593	-0.033360
H107	H	0.644410	0.510252	0.075294
H108	H	0.798021	0.608027	0.009800
H109	H	0.760838	0.609704	0.118448
O110	O	0.902376	0.038091	-0.396682
C111	C	0.854085	0.086468	-0.465545
H112	H	0.848882	0.049169	-0.540424
H113	H	0.891138	0.157169	-0.476680
C114	C	0.764702	0.140003	-0.332611
C115	C	0.758305	0.094187	-0.424576
H116	H	0.705622	0.144768	-0.307339
H117	H	0.797239	0.107413	-0.286216
H118	H	0.795584	0.198916	-0.341903
H119	H	0.727434	0.035271	-0.415281
H120	H	0.725761	0.126767	-0.470969
O121	O	1.231477	0.162562	0.000113
C122	C	1.281020	0.192053	0.086504
H123	H	1.232492	0.211693	0.146903
H124	H	1.331184	0.253267	0.066957
C125	C	1.392532	0.090922	0.051507
C126	C	1.332928	0.115038	0.125693
H127	H	1.424555	0.043418	0.075680
H128	H	1.359156	0.071056	-0.006699
H129	H	1.434326	0.141941	0.035225
H130	H	1.291128	0.064023	0.141966
H131	H	1.366298	0.134894	0.183903
H132	H	1.209796	0.620963	-0.000089
H133	H	0.965855	-0.025284	-0.752859
O134	O	0.657779	-0.126595	0.270227
C135	C	0.624673	-0.204154	0.325569
H136	H	0.591738	-0.258195	0.272354
H137	H	0.572387	-0.185463	0.382287
C138	C	0.744078	-0.174748	0.446650
C139	C	0.703634	-0.241125	0.381289
H140	H	0.792783	-0.197552	0.481024
H141	H	0.766381	-0.122493	0.409367
H142	H	0.700498	-0.159178	0.493905
H143	H	0.747211	-0.256685	0.334027
H144	H	0.681340	-0.293384	0.418565
H145	H	0.911102	0.029483	-0.595320
O146	O	1.307337	0.499647	0.000086
C147	C	1.311217	0.554708	0.086484
H148	H	1.265173	0.520334	0.146888
H149	H	1.287787	0.623111	0.066951
C150	C	1.465855	0.611107	0.051463
C151	C	1.409309	0.568883	0.125655
H152	H	1.526362	0.619855	0.075624
H153	H	1.463241	0.574014	-0.006747
H154	H	1.446319	0.668104	0.035193
H155	H	1.428838	0.511882	0.141915
H156	H	1.411928	0.605967	0.183870
H157	H	1.164426	-0.224133	-0.247280
H158	H	1.219184	-0.278886	-0.404806
H159	H	0.479833	-0.123041	0.255893
H160	H	0.650416	-0.126373	-0.256033
H161	H	0.338771	-0.120372	0.164934
H162	H	1.297861	0.319950	-0.000082
H163	H	1.219196	-0.278864	-0.595360
H164	H	0.791480	-0.129050	-0.165061
H165	H	0.920446	0.129622	-0.000043
H166	H	1.164469	-0.224063	-0.752889
