data_functionalizedCrystal
_audit_creation_method	'MofGen! by Chris Wilmer'
_symmetry_space_group_name_H-M	'P1'
_symmetry_Int_Tables_number	1
_symmetry_cell_setting	triclinic
loop_
_symmetry_equiv_pos_as_xyz
  x,y,z
_cell_length_a	12.759401
_cell_length_b	14.908178
_cell_length_c	12.759393
_cell_angle_alpha	93.331280
_cell_angle_beta	90.019802
_cell_angle_gamma	93.313142
loop_
_atom_site_label
_atom_site_type_symbol
_atom_site_fract_x
_atom_site_fract_y
_atom_site_fract_z
Zn1	Zn	1.582106	-0.359167	0.569817
Zn2	Zn	1.571846	-0.510064	0.383982
Zn3	Zn	1.406402	-0.359208	0.394153
Zn4	Zn	1.396250	-0.509994	0.559627
O5	O	1.489151	-0.434608	0.476895
O6	O	1.727765	-0.379195	0.545173
O7	O	1.549854	-0.490099	0.238307
O8	O	1.438251	-0.232948	0.425976
O9	O	1.720227	-0.490058	0.408641
O10	O	1.567340	-0.232917	0.555036
O11	O	1.428303	-0.379266	0.245779
O12	O	1.258035	-0.379199	0.416095
O13	O	1.420950	-0.489940	0.708003
O14	O	1.250577	-0.489980	0.537669
O15	O	1.557497	-0.379128	0.715489
O16	O	1.540011	-0.636309	0.398761
O17	O	1.411001	-0.636258	0.527807
C18	C	1.216185	-0.434587	0.476881
C19	C	1.099407	-0.434600	0.476898
C20	C	1.473320	-0.669020	0.461097
C21	C	1.466643	-0.769303	0.454374
C22	C	0.938725	-0.376999	0.548093
C23	C	1.048451	-0.376981	0.548087
C24	C	1.040633	-0.492247	0.405717
C25	C	0.930909	-0.492268	0.405729
C26	C	1.200621	-0.344843	0.674202
C27	C	1.259392	-0.287188	0.745372
C28	C	1.229710	-0.199177	0.767606
C29	C	1.141260	-0.168803	0.718658
C30	C	1.082495	-0.226453	0.647481
C31	C	1.112174	-0.314476	0.625266
C32	C	0.778738	-0.524397	0.279613
C33	C	0.719970	-0.582043	0.208430
C34	C	0.749650	-0.670056	0.186185
C35	C	0.838104	-0.700427	0.235115
C36	C	0.896871	-0.642781	0.306297
C37	C	0.867184	-0.554769	0.328545
C38	C	1.588416	-0.957563	0.576274
C39	C	1.582147	-1.051787	0.569961
C40	C	1.447830	-1.051978	0.435440
C41	C	1.454100	-0.957754	0.441753
C42	C	1.524396	-0.910549	0.512172
C43	C	1.530670	-0.816323	0.518479
C44	C	1.396349	-0.816516	0.383964
C45	C	1.390080	-0.910740	0.377650
C46	C	1.763183	-0.434630	0.476909
C47	C	1.879959	-0.434639	0.476916
C48	C	1.489235	-0.434522	0.750934
C49	C	1.489271	-0.434485	0.867713
C50	C	1.505072	-0.199281	0.492777
C51	C	1.511857	-0.098998	0.499545
C52	C	1.489132	-0.434629	0.203926
C53	C	1.489316	-0.434412	0.087164
C54	C	1.560377	-0.376776	0.926476
C55	C	1.560397	-0.376737	1.036202
C56	C	1.418203	-0.492124	1.028394
C57	C	1.418178	-0.492157	0.918670
C58	C	1.605170	-0.270290	1.193343
C59	C	1.676292	-0.212589	1.252109
C60	C	1.779735	-0.198757	1.217446
C61	C	1.812076	-0.242640	1.124019
C62	C	1.740960	-0.300348	1.065259
C63	C	1.637503	-0.314162	1.099921
C64	C	1.373416	-0.598606	0.761527
C65	C	1.302304	-0.656319	0.702764
C66	C	1.198859	-0.670159	0.737424
C67	C	1.166520	-0.626292	0.830853
C68	C	1.237632	-0.568579	0.889616
C69	C	1.341077	-0.554737	0.854949
H70	H	1.010382	-0.201769	0.607758
H71	H	1.082287	-0.637565	0.859077
H72	H	1.896314	-0.231380	1.095809
H73	H	1.328647	-0.692046	0.626695
O74	O	1.229302	-0.430400	0.652719
C75	C	1.179604	-0.588652	0.655569
C76	C	1.146992	-0.491806	0.679973
H77	H	1.113066	-0.638325	0.677573
H78	H	1.252879	-0.600517	0.702800
H79	H	1.196990	-0.598807	0.568188
H80	H	1.129550	-0.481583	0.767331
H81	H	1.073749	-0.479987	0.632672
O82	O	1.772363	-0.343116	0.974597
C83	C	1.795160	-0.485324	0.880135
C84	C	1.759584	-0.437011	0.982880
H85	H	1.784820	-0.561246	0.886789
H86	H	1.881333	-0.465608	0.865434
H87	H	1.745592	-0.464874	0.812079
H88	H	1.809076	-0.457436	1.050999
H89	H	1.673395	-0.456729	0.997489
H90	H	1.837642	-0.151775	1.265301
H91	H	1.332844	-0.949187	0.320320
O92	O	1.598926	-0.770327	0.586793
C93	C	1.668066	-0.625087	0.656191
C94	C	1.590740	-0.677061	0.578757
H95	H	1.661459	-0.549672	0.649736
H96	H	1.751592	-0.643496	0.636591
H97	H	1.648338	-0.643625	0.739634
H98	H	1.610372	-0.658551	0.495287
H99	H	1.507236	-0.658648	0.598448
H100	H	0.897245	-0.330073	0.606057
O101	O	1.644975	-0.170060	1.342959
C102	C	1.670860	-0.147045	1.529884
C103	C	1.706406	-0.195278	1.427077
H104	H	1.720525	-0.167402	1.597917
H105	H	1.584722	-0.166845	1.544648
H106	H	1.681064	-0.071122	1.523180
H107	H	1.696271	-0.271210	1.433705
H108	H	1.792531	-0.175404	1.412348
O109	O	1.090297	-0.548134	0.336603
C110	C	1.255864	-0.599219	0.273523
C111	C	1.199758	-0.535868	0.351839
H112	H	1.344371	-0.589338	0.285829
H113	H	1.235399	-0.583290	0.189891
H114	H	1.229343	-0.671984	0.286920
H115	H	1.226248	-0.463083	0.338539
H116	H	1.220223	-0.551875	0.435444
H117	H	1.211293	-0.532860	0.965692
O118	O	1.334114	-0.770986	0.321579
C119	C	1.200193	-0.781122	0.187522
C120	C	1.270621	-0.832796	0.258096
H121	H	1.148826	-0.831073	0.136194
H122	H	1.251350	-0.737040	0.135515
H123	H	1.148210	-0.736987	0.238673
H124	H	1.322615	-0.876980	0.207027
H125	H	1.219403	-0.876822	0.310110
H126	H	1.634273	-1.090062	0.622165
O127	O	1.629323	-0.320618	0.877033
C128	C	1.690736	-0.167162	0.853886
C129	C	1.612581	-0.230662	0.909927
H130	H	1.677241	-0.094420	0.880476
H131	H	1.678512	-0.177017	0.765361
H132	H	1.774374	-0.183051	0.874389
H133	H	1.528911	-0.214812	0.889509
H134	H	1.624896	-0.220795	0.998438
O135	O	1.504619	-0.283627	1.226872
C136	C	1.321158	-0.271767	1.188587
C137	C	1.434982	-0.256595	1.150493
H138	H	1.264824	-0.249937	1.126844
H139	H	1.310188	-0.230472	1.265424
H140	H	1.304197	-0.346194	1.201669
H141	H	1.452021	-0.182191	1.137349
H142	H	1.445895	-0.297947	1.073687
O143	O	1.379401	-1.097804	0.367161
C144	C	1.198794	-1.126778	0.314022
C145	C	1.276172	-1.074837	0.391430
H146	H	1.115319	-1.108214	0.333601
H147	H	1.205223	-1.202207	0.320537
H148	H	1.218573	-1.108317	0.230562
H149	H	1.256444	-1.093222	0.474923
H150	H	1.269728	-0.999421	0.384823
O151	O	0.982737	-0.672440	0.353779
C152	C	1.093747	-0.795927	0.372699
C153	C	0.996471	-0.762463	0.318871
H154	H	1.104895	-0.868708	0.344480
H155	H	1.082317	-0.791726	0.461423
H156	H	1.166096	-0.752087	0.351989
H157	H	0.924077	-0.806275	0.339498
H158	H	1.007992	-0.766643	0.230160
H159	H	0.701795	-0.716988	0.128215
H160	H	1.140962	-0.717162	0.689573
H161	H	1.117109	-0.097131	0.736758
H162	H	1.360324	-0.539081	1.069896
O163	O	1.286633	-0.143127	0.836829
C164	C	1.286688	-0.052424	0.999428
C165	C	1.222095	-0.115864	0.921104
H166	H	1.234542	-0.030379	1.067593
H167	H	1.318352	0.009269	0.958173
H168	H	1.355022	-0.089254	1.030535
H169	H	1.153714	-0.079113	0.889972
H170	H	1.190510	-0.177555	0.962409
H171	H	0.862272	-0.772093	0.216998
H172	H	1.645661	-0.919128	0.633605
H173	H	1.457648	-0.587334	0.733292
O174	O	0.633947	-0.552685	0.160930
C175	C	0.447145	-0.573509	0.132865
C176	C	0.544481	-0.606859	0.186700
H177	H	0.374784	-0.617281	0.153699
H178	H	0.458520	-0.577814	0.044135
H179	H	0.436065	-0.500689	0.160968
H180	H	0.555617	-0.679686	0.158683
H181	H	0.533061	-0.602487	0.275423
O182	O	1.345355	-0.316540	0.792989
C183	C	1.488193	-0.280209	0.914537
C184	C	1.390879	-0.246853	0.860668
H185	H	1.525014	-0.223891	0.969285
H186	H	1.547746	-0.300952	0.852451
H187	H	1.463812	-0.340511	0.961813
H188	H	1.415162	-0.186529	0.813397
H189	H	1.331350	-0.226170	0.922805
H190	H	0.754562	-0.452730	0.297724
