data_functionalizedCrystal
_audit_creation_method	'MofGen! by Chris Wilmer'
_symmetry_space_group_name_H-M	'P1'
_symmetry_Int_Tables_number	1
_symmetry_cell_setting	triclinic
loop_
_symmetry_equiv_pos_as_xyz
  x,y,z
_cell_length_a	10.654543
_cell_length_b	9.730223
_cell_length_c	10.654550
_cell_angle_alpha	90.001209
_cell_angle_beta	95.516448
_cell_angle_gamma	90.004437
loop_
_atom_site_label
_atom_site_type_symbol
_atom_site_fract_x
_atom_site_fract_y
_atom_site_fract_z
O1	O	-1.667839	0.114142	0.176353
O2	O	-1.167839	0.614142	0.676353
O3	O	-1.302359	0.114177	0.193168
O4	O	-0.802359	0.614177	0.693168
O5	O	-1.493502	0.114150	0.002021
O6	O	-0.993502	0.614150	0.502021
O7	O	-1.476696	0.114169	0.367500
O8	O	-0.976696	0.614169	0.867500
O9	O	-1.493500	-0.114430	0.002026
O10	O	-0.993500	0.385570	0.502026
O11	O	-1.302357	-0.114403	0.193173
O12	O	-0.802357	0.385597	0.693173
O13	O	-1.667837	-0.114438	0.176358
O14	O	-1.167837	0.385562	0.676358
Zn15	Zn	-1.485097	-0.150713	0.184766
Zn16	Zn	-0.985097	0.349287	0.684766
Zn17	Zn	-1.485099	0.150451	0.184760
Zn18	Zn	-0.985099	0.650451	0.684760
O19	O	-1.476694	-0.114411	0.367505
O20	O	-0.976694	0.385589	0.867505
C21	C	-1.255560	-0.000109	0.191938
C22	C	-0.755560	0.499891	0.691938
C23	C	-1.116116	-0.000095	0.188249
C24	C	-0.616116	0.499905	0.688249
C25	C	-1.036631	-0.000092	0.300793
C26	C	-0.536631	0.499908	0.800793
C27	C	-0.905609	-0.000112	0.297319
C28	C	-0.405609	0.499888	0.797319
C29	C	-0.933573	-0.000135	0.068749
C30	C	-0.433573	0.499865	0.568749
C31	C	-1.064591	-0.000124	0.072224
C32	C	-0.564591	0.499876	0.572224
N33	N	-1.485104	-0.356249	0.184770
N34	N	-0.985104	0.143751	0.684770
C35	C	-1.569764	-0.428187	0.100159
C36	C	-1.069764	0.071813	0.600159
C37	C	-1.569760	-0.572070	0.100144
C38	C	-1.069760	-0.072070	0.600144
C39	C	-1.400433	-0.572064	0.269361
C40	C	-0.900433	-0.072064	0.769361
C41	C	-1.400431	-0.428184	0.269370
C42	C	-0.900431	0.071816	0.769370
C43	C	-1.654436	-0.356252	0.015559
C44	C	-1.154436	0.143748	0.515559
C45	C	-1.739104	-0.428190	-0.069057
C46	C	-1.239104	0.071810	0.430943
C47	C	-1.739101	-0.572073	-0.069073
C48	C	-1.239101	-0.072073	0.430927
C49	C	-1.654429	-0.644018	0.015529
C50	C	-1.154429	-0.144018	0.515529
C51	C	-0.714635	-0.000143	0.177595
C52	C	-0.214635	0.499857	0.677595
C53	C	-0.854077	-0.000127	0.181301
C54	C	-0.354077	0.499873	0.681301
C55	C	-1.492267	-0.000139	-0.044774
C56	C	-0.992267	0.499861	0.455226
C57	C	-1.488575	-0.000137	-0.184217
C58	C	-0.988575	0.499863	0.315783
N59	N	-1.485102	0.355988	0.184746
N60	N	-0.985102	0.855988	0.684746
C61	C	-1.601117	-0.000147	-0.263706
C62	C	-1.101117	0.499853	0.236294
C63	C	-1.597641	-0.000130	-0.394726
C64	C	-1.097641	0.499870	0.105274
C65	C	-1.369070	-0.000098	-0.366758
C66	C	-0.869070	0.499902	0.133242
C67	C	-1.372548	-0.000105	-0.235740
C68	C	-0.872548	0.499895	0.264260
C69	C	-1.477929	-0.000119	0.414301
C70	C	-0.977929	0.499881	0.914301
C71	C	-1.481621	-0.000113	0.553744
C72	C	-0.981621	0.499887	1.053744
H73	H	-1.654449	-0.239095	0.015567
H74	H	-1.154449	0.260905	0.515567
H75	H	-1.129313	-0.000131	-0.019428
H76	H	-0.629313	0.499869	0.480572
H77	H	-1.331498	-0.630651	0.338242
H78	H	-0.831498	-0.130651	0.838242
O79	O	-0.877990	-0.000159	-0.056384
O80	O	-0.377990	0.499841	0.443616
H81	H	-0.955277	-0.000176	-0.134060
H82	H	-0.455277	0.499824	0.365940
O83	O	-1.251151	-0.000104	-0.150002
O84	O	-0.751151	0.499896	0.349998
H85	H	-1.247265	0.093066	-0.089644
H86	H	-0.747265	0.593066	0.410356
H87	H	-1.808034	-0.369605	-0.137945
H88	H	-1.308034	0.130395	0.362055
H89	H	-1.274605	-0.000075	-0.408724
H90	H	-0.774605	0.499925	0.091276
O91	O	-0.819878	-0.000116	0.418707
O92	O	-0.319878	0.499884	0.918707
H93	H	-0.759490	0.093033	0.422585
H94	H	-0.259490	0.593033	0.922585
O95	O	-1.092212	-0.000089	0.425927
O96	O	-0.592212	0.499911	0.925927
H97	H	-1.014923	-0.000108	0.503601
H98	H	-0.514923	0.499892	1.003601
H99	H	-1.808032	-0.630644	-0.137979
H100	H	-1.308032	-0.130644	0.362021
H101	H	-1.654425	-0.761177	0.015501
H102	H	-1.154425	-0.261177	0.515501
O103	O	-1.719028	-0.000161	-0.480459
O104	O	-1.219028	0.499839	0.019541
H105	H	-1.774513	0.092983	-0.462003
H106	H	-1.274513	0.592983	0.037997
O107	O	-1.309130	-0.350577	0.360632
O108	O	-0.809130	0.149423	0.860632
H109	H	-1.250267	-0.424767	0.419473
H110	H	-0.750267	0.075233	0.919473
O111	O	-1.726253	-0.000153	-0.208128
O112	O	-1.226253	0.499847	0.291872
H113	H	-1.803925	-0.000139	-0.285419
H114	H	-1.303925	0.499861	0.214581
