data_functionalizedCrystal
_audit_creation_method	'MofGen! by Chris Wilmer'
_symmetry_space_group_name_H-M	'P1'
_symmetry_Int_Tables_number	1
_symmetry_cell_setting	triclinic
loop_
_symmetry_equiv_pos_as_xyz
  x,y,z
_cell_length_a	19.077212
_cell_length_b	12.827892
_cell_length_c	19.076919
_cell_angle_alpha	92.275535
_cell_angle_beta	89.885058
_cell_angle_gamma	92.307656
loop_
_atom_site_label
_atom_site_type_symbol
_atom_site_fract_x
_atom_site_fract_y
_atom_site_fract_z
Zn1	Zn	1.058332	-0.379361	-0.440602
Zn2	Zn	1.062989	-0.546831	-0.323103
Zn3	Zn	0.945547	-0.378811	-0.318377
Zn4	Zn	0.940810	-0.560770	-0.435837
O5	O	1.001920	-0.466443	-0.379480
O6	O	1.157283	-0.395973	-0.428987
O7	O	1.051342	-0.518479	-0.224145
O8	O	0.960542	-0.232647	-0.334607
O9	O	1.160705	-0.519012	-0.342661
O10	O	1.043404	-0.233051	-0.424405
O11	O	0.965058	-0.395035	-0.220673
O12	O	0.846586	-0.408551	-0.329987
O13	O	0.952468	-0.542769	-0.534800
O14	O	0.843105	-0.542236	-0.416284
O15	O	1.038811	-0.409489	-0.538301
O16	O	1.046749	-0.694917	-0.338041
O17	O	0.956984	-0.705158	-0.420866
C18	C	0.819349	-0.476847	-0.372106
C19	C	0.741243	-0.481324	-0.368968
C20	C	0.301783	-0.513393	-0.346495
C21	C	0.375172	-0.509180	-0.349438
C22	C	0.410084	-0.443128	-0.395928
C23	C	0.371603	-0.381276	-0.439473
C24	C	0.298216	-0.385484	-0.436526
C25	C	0.629376	-0.423681	-0.409566
C26	C	0.702768	-0.419480	-0.412511
C27	C	0.706332	-0.547383	-0.322475
C28	C	0.632943	-0.551589	-0.319535
C29	C	0.594469	-0.489734	-0.363077
N30	N	0.485098	-0.438823	-0.398939
N31	N	0.519456	-0.494034	-0.360062
C32	C	1.001876	-0.737955	-0.379466
C33	C	1.001921	-0.854106	-0.379486
C34	C	1.046388	-0.900789	-0.338551
C35	C	1.046435	-1.020838	-0.338570
C36	C	1.185204	-0.455999	-0.386883
C37	C	1.263308	-0.451548	-0.390038
C38	C	0.994591	-0.477745	-0.562759
C39	C	0.991468	-0.482562	-0.640862
C40	C	1.001982	-0.193871	-0.379510
C41	C	1.002008	-0.077717	-0.379523
C42	C	1.034953	-0.415436	-0.679379
C43	C	1.032010	-0.419958	-0.752764
C44	C	0.985586	-0.491612	-0.787632
C45	C	0.942096	-0.558740	-0.749110
C46	C	0.945036	-0.554213	-0.675726
C47	C	0.971970	-0.512589	-1.006912
C48	C	0.969035	-0.517114	-1.080302
C49	C	1.058948	-0.378330	-1.083950
C50	C	1.061886	-0.373813	-1.010565
C51	C	1.018395	-0.440938	-0.972049
N52	N	0.982578	-0.496238	-0.862644
N53	N	1.021399	-0.436306	-0.897039
C54	C	1.009260	-0.455107	-0.196915
C55	C	1.012519	-0.449988	-0.118818
H56	H	0.737665	-0.597741	-0.287025
H57	H	0.266891	-0.335120	-0.471981
C58	C	0.594542	-0.624254	-0.268402
H59	H	0.545324	-0.617912	-0.272891
H60	H	0.608441	-0.605261	-0.221687
H61	H	0.606161	-0.694432	-0.279098
H62	H	0.731191	-0.365685	-0.450368
H63	H	1.084426	-0.851882	-0.303492
H64	H	1.094355	-0.323679	-1.115318
H65	H	0.963889	-0.903015	-0.414549
C66	C	0.410004	-0.308621	-0.490611
H67	H	0.459221	-0.314980	-0.486137
H68	H	0.398390	-0.238443	-0.479930
H69	H	0.396098	-0.327637	-0.537325
C70	C	1.086017	-0.336611	-0.641030
H71	H	1.111487	-0.297274	-0.674482
H72	H	1.117774	-0.373068	-0.613635
H73	H	1.060286	-0.290842	-0.611324
H74	H	1.099692	-0.315467	-0.982181
C75	C	0.950575	-1.023477	-0.426873
H76	H	0.922705	-1.074736	-0.452566
H77	H	0.976215	-0.981199	-0.458563
H78	H	0.921061	-0.981040	-0.398697
H79	H	0.273364	-0.567185	-0.308641
C80	C	1.097867	-1.075084	-0.291222
H81	H	1.125730	-1.023825	-0.265522
H82	H	1.127376	-1.117527	-0.319392
H83	H	1.072221	-1.117357	-0.259527
H84	H	0.909619	-0.608864	-0.644366
C85	C	0.417495	-0.577213	-0.301545
H86	H	0.466202	-0.565241	-0.309952
H87	H	0.405057	-0.648768	-0.311267
H88	H	0.407343	-0.559585	-0.253865
H89	H	0.598059	-0.373319	-0.445024
C90	C	1.079847	-0.346124	-0.795130
H91	H	1.107923	-0.302811	-0.763854
H92	H	1.051834	-0.303884	-0.822675
H93	H	1.109308	-0.386131	-0.824990
C94	C	0.917964	-0.595934	-1.118655
H95	H	0.892478	-0.635257	-1.085207
H96	H	0.943687	-0.641703	-1.148363
H97	H	0.886210	-0.559459	-1.146050
C98	C	0.924116	-0.586403	-0.964553
H99	H	0.896048	-0.629724	-0.995832
H100	H	0.894659	-0.546383	-0.934703
H101	H	0.952118	-0.628654	-0.936998
H102	H	0.904294	-0.617079	-0.777505
