data_functionalizedCrystal
_audit_creation_method	'MofGen! by Chris Wilmer'
_symmetry_space_group_name_H-M	'P1'
_symmetry_Int_Tables_number	1
_symmetry_cell_setting	triclinic
loop_
_symmetry_equiv_pos_as_xyz
  x,y,z
_cell_length_a	17.640112
_cell_length_b	13.897448
_cell_length_c	17.639477
_cell_angle_alpha	78.759262
_cell_angle_beta	114.276174
_cell_angle_gamma	101.242525
loop_
_atom_site_label
_atom_site_type_symbol
_atom_site_fract_x
_atom_site_fract_y
_atom_site_fract_z
Zn1	Zn	1.165549	-0.043924	-0.211674
Zn2	Zn	1.193320	-0.232378	-0.073889
Zn3	Zn	1.055609	-0.098247	-0.101698
Zn4	Zn	1.027743	-0.232359	-0.239450
O5	O	1.110555	-0.151727	-0.156678
O6	O	1.284538	-0.046196	-0.170134
O7	O	1.198337	-0.237327	0.037735
O8	O	1.070232	0.043954	-0.116300
O9	O	1.304941	-0.184652	-0.068904
O10	O	1.151005	0.083865	-0.197099
O11	O	1.097161	-0.138782	0.017304
O12	O	0.936607	-0.138764	-0.143234
O13	O	1.022738	-0.184620	-0.351079
O14	O	0.916134	-0.237295	-0.244440
O15	O	1.123984	-0.046178	-0.330671
O16	O	1.171316	-0.367370	-0.095838
O17	O	1.049667	-0.367356	-0.217475
C18	C	0.896473	-0.193923	-0.199869
C19	C	0.804884	-0.211994	-0.218366
C20	C	0.556760	-0.014425	-0.016165
C21	C	0.470696	-0.031423	-0.033557
C22	C	0.449468	-0.134230	-0.138761
C23	C	0.535532	-0.117237	-0.121381
C24	C	0.589171	-0.057335	-0.060081
C25	C	0.567943	-0.160146	-0.165297
C26	C	0.654000	-0.143158	-0.147915
C27	C	0.707645	-0.083261	-0.086617
C28	C	0.675228	-0.040347	-0.042699
C29	C	0.514303	-0.220053	-0.226592
C30	C	0.546714	-0.262962	-0.270508
C31	C	0.632771	-0.245969	-0.253130
C32	C	0.686416	-0.186072	-0.191832
C33	C	0.665188	-0.288883	-0.297048
C34	C	0.751245	-0.271896	-0.279666
C35	C	0.772473	-0.169085	-0.174450
C36	C	1.110500	-0.402358	-0.156666
C37	C	1.110546	-0.509558	-0.156673
C38	C	1.110622	-0.705826	-0.156708
C39	C	1.110577	-0.596609	-0.156692
C40	C	1.325473	-0.109367	-0.113318
C41	C	1.417058	-0.091315	-0.094841
C42	C	1.067155	-0.109338	-0.371610
C43	C	1.048661	-0.091274	-0.463202
C44	C	1.110629	0.099891	-0.156703
C45	C	1.110661	0.207115	-0.156714
C46	C	1.251231	-0.288401	-0.711221
C47	C	1.233842	-0.271418	-0.797287
C48	C	1.128495	-0.168810	-0.818560
C49	C	1.145872	-0.185787	-0.732494
C50	C	1.207241	-0.245583	-0.678831
C51	C	1.101882	-0.142970	-0.700104
C52	C	1.119261	-0.159942	-0.614046
C53	C	1.180630	-0.219732	-0.560377
C54	C	1.224620	-0.262555	-0.592772
C55	C	1.040517	-0.083169	-0.753768
C56	C	0.996528	-0.040351	-0.721378
C57	C	1.013902	-0.057329	-0.635319
C58	C	1.075271	-0.117119	-0.581650
C59	C	0.969912	-0.014506	-0.602923
C60	C	0.987291	-0.031478	-0.516865
C61	C	1.092650	-0.134092	-0.495592
C62	C	1.153834	-0.193872	0.057428
C63	C	1.172488	-0.211633	0.149051
H64	H	0.777718	-0.069433	-0.072464
H65	H	0.444311	0.003531	0.002204
C66	C	1.060991	-0.103042	-0.877593
H67	H	1.056936	-0.099070	-0.933486
H68	H	1.075911	-0.038631	-0.861063
H69	H	1.008471	-0.130867	-0.874657
C70	C	0.929024	0.025418	-0.780408
H71	H	0.905318	0.048492	-0.748789
H72	H	0.886335	-0.011939	-0.821219
H73	H	0.953780	0.080292	-0.807621
H74	H	1.026373	-0.069347	-0.823841
H75	H	1.269669	-0.306288	-0.823654
C76	C	0.902414	0.051271	-0.661953
H77	H	0.878708	0.074347	-0.630336
H78	H	0.859724	0.013920	-0.702769
H79	H	0.927178	0.106143	-0.689162
C80	C	0.390461	-0.200113	-0.206189
H81	H	0.334565	-0.204080	-0.210256
H82	H	0.407010	-0.264515	-0.191194
H83	H	0.393394	-0.172371	-0.258726
C84	C	0.938891	0.015601	-0.481235
H85	H	0.899844	0.053630	-0.525522
H86	H	0.977193	0.057225	-0.441305
H87	H	0.909760	-0.035019	-0.454909
H88	H	0.816148	-0.120290	-0.124546
H89	H	0.600435	0.034370	0.033739
C90	C	0.734235	0.025560	0.024718
H91	H	0.702608	0.048686	0.048386
H92	H	0.761434	0.080382	-0.000093
H93	H	0.775058	-0.011741	0.067462
H94	H	0.444230	-0.233883	-0.240742
H95	H	0.503030	-0.311738	-0.320416
H96	H	0.621503	-0.337663	-0.346951
H97	H	1.274601	-0.311236	-0.549075
H98	H	1.142631	-0.182773	-0.451894
H99	H	0.777634	-0.306835	-0.315427
H100	H	1.194781	-0.233547	-0.490302
C101	C	1.318728	-0.354186	-0.652188
H102	H	1.342440	-0.377260	-0.683802
H103	H	1.293968	-0.409046	-0.624973
H104	H	1.361425	-0.316827	-0.611377
