data_functionalizedCrystal
_audit_creation_method	'MofGen! by Chris Wilmer'
_symmetry_space_group_name_H-M	'P1'
_symmetry_Int_Tables_number	1
_symmetry_cell_setting	triclinic
loop_
_symmetry_equiv_pos_as_xyz
  x,y,z
_cell_length_a	23.532361
_cell_length_b	23.532407
_cell_length_c	10.868271
_cell_angle_alpha	89.990218
_cell_angle_beta	89.999961
_cell_angle_gamma	82.839173
loop_
_atom_site_label
_atom_site_type_symbol
_atom_site_fract_x
_atom_site_fract_y
_atom_site_fract_z
O1	O	0.755277	0.069009	-0.102211
O2	O	0.589409	0.079040	-0.102243
O3	O	0.677345	-0.008908	-0.102203
O4	O	0.667341	0.156957	-0.102250
O5	O	0.677338	-0.008912	0.102441
O6	O	0.589402	0.079036	0.102402
O7	O	0.755269	0.069006	0.102433
Zn8	Zn	0.672335	0.074020	0.134910
Zn9	Zn	0.672344	0.074025	-0.134719
O10	O	0.667334	0.156954	0.102394
C11	C	0.568189	0.078787	0.000076
C12	C	0.504971	0.078032	0.000065
C13	C	0.231731	0.074730	-0.111478
C14	C	0.291131	0.075445	-0.111482
O15	O	0.321860	0.075797	-0.206350
N16	N	0.320832	0.075804	0.000071
C17	C	0.291132	0.075443	0.111633
O18	O	0.321850	0.075814	0.206517
C19	C	0.231734	0.074724	0.111635
C20	C	0.202035	0.074370	0.000076
C21	C	0.202032	0.074376	-0.223029
C22	C	0.142636	0.073662	-0.223025
C23	C	0.112939	0.073302	-0.111471
C24	C	0.142639	0.073657	0.000079
C25	C	0.202035	0.074358	0.223197
C26	C	0.142633	0.073639	0.223189
C27	C	0.112934	0.073285	0.111630
C28	C	0.053547	0.072583	0.111637
N29	N	0.023845	0.072224	0.000085
C30	C	0.053541	0.072583	-0.111469
C31	C	0.415872	0.076952	0.111621
C32	C	0.475269	0.077675	0.111620
C33	C	0.475263	0.077676	-0.111495
C34	C	0.415865	0.076957	-0.111493
C35	C	0.386171	0.076593	0.000069
C36	C	-0.071194	0.071085	-0.111453
C37	C	-0.130596	0.070373	-0.111439
C38	C	-0.130585	0.070369	0.111675
C39	C	-0.071189	0.071084	0.111663
C40	C	-0.041495	0.071440	0.000088
O41	O	0.022780	0.072229	0.206457
O42	O	0.022817	0.072205	-0.206337
C43	C	0.677086	-0.030126	0.000122
C44	C	0.676320	-0.093343	0.000131
C45	C	0.723555	-0.492454	0.000073
C46	C	0.722844	-0.551854	0.000063
O47	O	0.766630	-0.588606	0.000026
N48	N	0.670566	-0.574471	0.000054
C49	C	0.618997	-0.537685	0.000042
O50	O	0.574465	-0.562377	0.000033
C51	C	0.619709	-0.478286	0.000043
C52	C	0.671990	-0.455672	0.000064
C53	C	0.775832	-0.469839	0.000093
C54	C	0.776543	-0.410443	0.000105
C55	C	0.724977	-0.373662	0.000096
C56	C	0.672701	-0.396276	0.000076
C57	C	0.568140	-0.441501	0.000022
C58	C	0.568857	-0.382099	0.000022
C59	C	0.621137	-0.359485	0.000043
C60	C	0.621847	-0.300099	0.000080
N61	N	0.674124	-0.277481	0.000089
C62	C	0.725690	-0.314263	0.000097
C63	C	0.617505	-0.662427	0.000039
C64	C	0.616793	-0.721825	0.000047
C65	C	0.720640	-0.735990	0.000066
C66	C	0.721352	-0.676591	0.000066
C67	C	0.669783	-0.639810	0.000048
C68	C	0.727179	-0.189526	0.000123
C69	C	0.727886	-0.130124	0.000140
C70	C	0.624039	-0.115965	0.000114
C71	C	0.623332	-0.175361	0.000104
C72	C	0.674907	-0.212141	0.000104
O73	O	0.578083	-0.263312	0.000112
O74	O	0.770214	-0.289562	0.000090
C75	C	0.776489	0.069258	0.000112
C76	C	0.839708	0.070014	0.000115
C77	C	0.667592	0.178171	0.000066
C78	C	0.668358	0.241388	0.000049
N79	N	0.672332	0.074017	0.318924
N80	N	0.672351	0.074024	-0.318733
C81	C	0.672341	0.074024	0.569930
C82	C	0.672334	0.074022	0.430252
H83	H	0.391698	0.076662	0.202473
C84	C	-0.038516	0.071455	0.234374
H85	H	-0.064710	0.071129	0.300811
H86	H	-0.019864	0.104939	0.239035
H87	H	-0.010822	0.038504	0.238988
H88	H	0.762627	-0.765949	0.000068
H89	H	0.575509	-0.632483	0.000034
C90	C	0.507932	0.078066	0.234335
H91	H	0.481734	0.077745	0.300767
H92	H	0.526572	0.111559	0.238974
H93	H	0.535634	0.045123	0.238982
H94	H	0.770461	-0.111716	0.000160
H95	H	0.525567	-0.459902	-0.000003
H96	H	0.226204	0.074667	-0.313874
C97	C	0.783910	-0.229976	0.000133
H98	H	0.815142	-0.207993	0.000158
H99	H	0.785802	-0.253436	-0.071231
H100	H	0.785789	-0.253447	0.071506
H101	H	0.526862	-0.352154	0.000005
C102	C	0.832559	-0.510291	0.000112
H103	H	0.863790	-0.488306	0.000133
H104	H	0.834452	-0.533755	-0.071247
H105	H	0.834437	-0.533758	0.071490
C106	C	-0.163262	0.069983	-0.234159
H107	H	-0.137064	0.070294	-0.300594
H108	H	-0.190967	0.102920	-0.238811
H109	H	-0.181899	0.036484	-0.238787
H110	H	0.763923	-0.658183	0.000083
C111	C	0.565825	-0.200238	0.000078
H112	H	0.535217	-0.169823	0.000066
H113	H	0.563380	-0.223129	0.071427
H114	H	0.563396	-0.223101	-0.071310
H115	H	-0.154774	0.070079	0.202500
H116	H	0.819115	-0.392037	0.000117
H117	H	0.574220	-0.740232	0.000051
C118	C	0.567322	-0.075498	0.000098
H119	H	0.575238	-0.036885	0.000093
H120	H	0.545862	-0.082324	0.071450
H121	H	0.545878	-0.082314	-0.071287
H122	H	0.226207	0.074644	0.314041
H123	H	-0.047025	0.071375	-0.202307
C124	C	0.507937	0.078069	-0.234204
H125	H	0.547566	0.078542	-0.218219
H126	H	0.493671	0.111167	-0.280057
H127	H	0.502740	0.044731	-0.280028
C128	C	0.109976	0.073259	-0.345741
H129	H	0.136177	0.073567	-0.412170
H130	H	0.082266	0.106191	-0.350415
H131	H	0.091346	0.039755	-0.350359
H132	H	0.391688	0.076669	-0.202335
C133	C	0.109972	0.073242	0.345910
H134	H	0.136170	0.073560	0.412342
H135	H	0.091333	0.039748	0.350564
H136	H	0.082269	0.106184	0.350542
