data_functionalizedCrystal
_audit_creation_method	'MofGen! by Chris Wilmer'
_symmetry_space_group_name_H-M	'P1'
_symmetry_Int_Tables_number	1
_symmetry_cell_setting	triclinic
loop_
_symmetry_equiv_pos_as_xyz
  x,y,z
_cell_length_a	6.817900
_cell_length_b	9.582889
_cell_length_c	17.110486
_cell_angle_alpha	94.597186
_cell_angle_beta	99.060439
_cell_angle_gamma	111.207298
loop_
_atom_site_label
_atom_site_type_symbol
_atom_site_fract_x
_atom_site_fract_y
_atom_site_fract_z
V1	V	-4.016797	-0.206610	-0.246576
O2	O	-3.963368	0.010387	-0.242031
O3	O	-4.007942	-0.410115	-0.244746
O4	O	-3.946002	-0.203231	-0.354181
O5	O	-4.025736	-0.197929	-0.131838
V6	V	-4.498203	-0.180679	-0.232869
O7	O	-4.282700	-0.263494	-0.276641
O8	O	-4.682497	-0.123796	-0.202804
O9	O	-4.283851	0.022826	-0.234699
O10	O	-4.669029	-0.397676	-0.237414
O11	O	-4.606661	-0.189360	-0.347607
O12	O	-4.345791	-0.184058	-0.125264
C13	C	-3.863288	-0.459731	-0.240819
C14	C	-3.937185	-0.626097	-0.240040
C15	C	-3.784276	-0.195828	-0.380414
C16	C	-3.807939	-0.194412	-0.468381
C17	C	-4.001794	-0.201216	-0.513734
C18	C	-4.024015	-0.199884	-0.596388
C19	C	-3.852384	-0.191759	-0.633688
C20	C	-3.658511	-0.184950	-0.588329
C21	C	-3.636287	-0.186272	-0.505675
C22	C	-3.910339	-0.187387	-0.883046
C23	C	-3.932581	-0.186071	-0.965706
C24	C	-4.298082	-0.201001	-0.973760
C25	C	-4.275845	-0.202331	-0.891105
C26	C	-4.081972	-0.195514	-0.845752
C27	C	-3.875096	-0.190402	-0.718175
C28	C	-4.059258	-0.196860	-0.761266
C29	C	-4.091850	0.072434	-0.238624
C30	C	-3.997190	0.238799	-0.239408
C31	C	-4.170861	-0.191466	-0.099027
C32	C	-4.126436	-0.192874	-0.011059
H33	H	-4.141564	-0.207842	-0.483371
C34	C	-3.697091	-0.179922	-0.833171
N35	N	-3.536468	-0.174310	-0.795604
H36	H	-4.181865	-0.205415	-0.633310
H37	H	-4.198995	-0.203471	-0.730892
H38	H	-4.415609	-0.208945	-0.860741
H39	H	-3.792805	-0.179450	-0.996073
H40	H	-4.455927	-0.206549	-1.010694
C41	C	-3.423035	-0.178793	-0.455788
N42	N	-3.262406	-0.173156	-0.418213
H43	H	-3.518764	-0.178326	-0.618705
H44	H	-3.735360	-0.183793	-0.748554
