data_functionalizedCrystal
_audit_creation_method	'MofGen! by Chris Wilmer'
_symmetry_space_group_name_H-M	'P1'
_symmetry_Int_Tables_number	1
_symmetry_cell_setting	triclinic
loop_
_symmetry_equiv_pos_as_xyz
  x,y,z
_cell_length_a	16.109302
_cell_length_b	16.109304
_cell_length_c	14.586319
_cell_angle_alpha	89.999019
_cell_angle_beta	89.994552
_cell_angle_gamma	83.462209
loop_
_atom_site_label
_atom_site_type_symbol
_atom_site_fract_x
_atom_site_fract_y
_atom_site_fract_z
O1	O	1.103131	0.106869	-0.076276
O2	O	0.861070	0.120168	-0.076268
O3	O	0.988749	-0.007513	-0.076272
O4	O	0.975452	0.234549	-0.076271
O5	O	0.988740	-0.007514	0.076208
O6	O	0.861061	0.120166	0.076213
O7	O	1.103123	0.106867	0.076205
Cu8	Cu	0.982091	0.113516	0.090132
Cu9	Cu	0.982101	0.113518	-0.090194
O10	O	0.975443	0.234547	0.076210
C11	C	0.830090	0.119628	-0.000026
C12	C	0.737795	0.118012	-0.000024
C13	C	0.525449	0.114276	0.083084
C14	C	0.438729	0.112750	0.083081
C15	C	0.438749	0.112756	-0.083162
C16	C	0.525469	0.114277	-0.083157
C17	C	0.568816	0.115041	-0.000032
C18	C	0.395377	0.111994	-0.000039
C19	C	0.301351	0.110338	-0.000043
C20	C	0.662848	0.116695	-0.000027
C21	C	0.988206	-0.038488	-0.000034
C22	C	0.986590	-0.130784	-0.000040
C23	C	0.982861	-0.343120	-0.083154
C24	C	0.981335	-0.429840	-0.083153
C25	C	0.981329	-0.429839	0.083090
C26	C	0.982849	-0.343120	0.083088
C27	C	0.983619	-0.299763	-0.000037
C28	C	0.980573	-0.473202	-0.000034
C29	C	0.978918	-0.567228	-0.000032
C30	C	0.985272	-0.205731	-0.000039
C31	C	1.134102	0.107407	-0.000038
C32	C	1.226397	0.109022	-0.000047
C33	C	0.975987	0.265523	-0.000031
C34	C	0.977603	0.357818	-0.000030
N35	N	0.982090	0.113514	0.216963
N36	N	0.982109	0.113514	-0.217026
C37	C	1.038645	0.056996	0.451968
C38	C	1.038647	0.056994	0.547949
C39	C	0.925548	0.170034	0.547963
C40	C	0.925542	0.170032	0.451983
C41	C	0.982095	0.113514	0.403988
C42	C	0.982104	0.113514	0.595949
C43	C	0.982106	0.113513	0.700016
C44	C	0.982092	0.113514	0.299915
H45	H	0.403424	0.112127	0.150763
H46	H	0.983462	-0.307817	0.150776
H47	H	0.980715	-0.465137	-0.150836
H48	H	0.560779	0.114897	-0.150845
C49	C	0.561503	0.043302	0.224771
C50	C	0.573101	0.115104	0.174453
H51	H	0.590925	0.043809	0.281176
H52	H	0.503656	0.042293	0.236661
H53	H	0.582076	-0.004894	0.190603
H54	H	0.552523	0.163299	0.208619
H55	H	0.630961	0.116120	0.162565
C56	C	1.087474	-0.086929	0.422468
C57	C	1.100798	-0.005154	0.399234
H58	H	1.125842	-0.125304	0.389916
H59	H	1.095558	-0.094989	0.486494
H60	H	1.031988	-0.095955	0.406736
H61	H	1.156283	0.003874	0.414972
H62	H	1.092721	0.002910	0.335194
C63	C	0.982702	-0.351833	-0.247477
C64	C	0.983695	-0.295460	-0.174523
H65	H	0.983210	-0.322408	-0.303884
H66	H	1.030561	-0.392007	-0.244025
H67	H	0.933652	-0.379305	-0.244003
H68	H	1.032749	-0.267992	-0.177993
H69	H	0.935832	-0.255271	-0.177977
C70	C	0.908200	-0.518009	0.179540
C71	C	0.980496	-0.477505	0.174455
H72	H	0.907693	-0.547439	0.235944
H73	H	0.860345	-0.477828	0.176098
H74	H	0.907539	-0.556239	0.130032
H75	H	0.981154	-0.439270	0.223960
H76	H	1.028363	-0.517690	0.177906
C77	C	0.402703	0.183727	-0.224851
C78	C	0.391097	0.111929	-0.174531
H79	H	0.373289	0.183216	-0.281262
H80	H	0.382134	0.231920	-0.190694
H81	H	0.460560	0.184730	-0.236739
H82	H	0.333241	0.110929	-0.162637
H83	H	0.411663	0.063724	-0.208696
H84	H	1.084694	0.010972	0.587012
C85	C	0.875345	0.220238	0.695100
C86	C	0.863395	0.232165	0.600722
H87	H	0.836978	0.258602	0.727667
H88	H	0.866328	0.164756	0.710831
H89	H	0.930832	0.229283	0.710806
H90	H	0.807910	0.223114	0.585014
H91	H	0.872406	0.287661	0.584984
C92	C	0.813751	0.281779	0.461630
C93	C	0.863381	0.232163	0.399237
H94	H	0.775380	0.320135	0.429064
H95	H	0.783858	0.247165	0.499071
H96	H	0.848359	0.311696	0.499059
H97	H	0.828773	0.202241	0.361812
H98	H	0.893276	0.266781	0.361780
