data_functionalizedCrystal
_audit_creation_method	'MofGen! by Chris Wilmer'
_symmetry_space_group_name_H-M	'P1'
_symmetry_Int_Tables_number	1
_symmetry_cell_setting	triclinic
loop_
_symmetry_equiv_pos_as_xyz
  x,y,z
_cell_length_a	14.044220
_cell_length_b	14.044202
_cell_length_c	12.503572
_cell_angle_alpha	86.143857
_cell_angle_beta	93.847148
_cell_angle_gamma	93.190790
loop_
_atom_site_label
_atom_site_type_symbol
_atom_site_fract_x
_atom_site_fract_y
_atom_site_fract_z
O1	O	-1.272126	-0.235213	0.089243
O2	O	-0.938793	0.098120	0.422577
O3	O	-0.605460	0.431453	0.755910
O4	O	-0.995453	-0.226909	0.089269
O5	O	-0.662120	0.106424	0.422603
O6	O	-0.328786	0.439758	0.755936
O7	O	-1.129634	-0.092723	0.089228
O8	O	-0.796300	0.240610	0.422561
O9	O	-0.462967	0.573943	0.755894
O10	O	-1.137945	-0.369399	0.089285
O11	O	-0.804612	-0.036066	0.422619
O12	O	-0.471279	0.297268	0.755952
O13	O	-1.139729	-0.082619	-0.089417
O14	O	-0.806395	0.250715	0.243916
O15	O	-0.473062	0.584048	0.577249
O16	O	-1.005548	-0.216804	-0.089376
O17	O	-0.672214	0.116529	0.243958
O18	O	-0.338881	0.449862	0.577291
O19	O	-1.282221	-0.225109	-0.089402
O20	O	-0.948888	0.108225	0.243932
O21	O	-0.615554	0.441558	0.577265
Cu22	Cu	-1.144806	-0.220034	-0.105700
Cu23	Cu	-0.811473	0.113299	0.227633
Cu24	Cu	-0.478139	0.446633	0.560966
Cu25	Cu	-1.132868	-0.231984	0.105568
Cu26	Cu	-0.799535	0.101350	0.438901
Cu27	Cu	-0.466201	0.434683	0.772235
O28	O	-1.148040	-0.359294	-0.089360
O29	O	-0.814707	-0.025961	0.243973
O30	O	-0.481374	0.307372	0.577307
C31	C	-0.964878	-0.218221	-0.000050
C32	C	-0.631545	0.115112	0.333283
C33	C	-0.298212	0.448445	0.666616
C34	C	-0.858735	-0.207377	-0.000042
C35	C	-0.525401	0.125956	0.333292
C36	C	-0.192068	0.459290	0.666625
C37	C	-1.131045	-0.052049	-0.000100
C38	C	-0.797711	0.281285	0.333234
C39	C	-0.464378	0.614618	0.666567
C40	C	-1.120197	0.054095	-0.000114
C41	C	-0.786864	0.387428	0.333219
C42	C	-0.453531	0.720762	0.666552
C43	C	-1.312796	-0.233797	-0.000080
C44	C	-0.979462	0.099537	0.333254
C45	C	-0.646129	0.432870	0.666587
C46	C	-1.418939	-0.244641	-0.000081
C47	C	-1.085605	0.088692	0.333252
C48	C	-0.752272	0.422026	0.666586
C49	C	-0.664398	-0.187549	-0.000067
C50	C	-0.331064	0.145784	0.333266
C51	C	0.002269	0.479117	0.666600
C52	C	-0.613270	-0.264465	-0.000056
C53	C	-0.279936	0.068869	0.333278
C54	C	0.053397	0.402202	0.666611
C55	C	-0.505134	-0.253432	-0.000070
C56	C	-0.171801	0.079901	0.333263
C57	C	0.161533	0.413234	0.666597
C58	C	-0.772543	-0.198580	-0.000053
C59	C	-0.439210	0.134753	0.333280
C60	C	-0.105877	0.468086	0.666614
C61	C	-1.177294	0.299552	-0.000092
C62	C	-0.843961	0.632886	0.333241
C63	C	-0.510628	0.966219	0.666575
C64	C	-1.100378	0.248427	-0.000089
C65	C	-0.767045	0.581760	0.333244
C66	C	-0.433712	0.915093	0.666578
C67	C	-1.111408	0.140291	-0.000103
C68	C	-0.778075	0.473624	0.333230
C69	C	-0.444742	0.806957	0.666563
C70	C	-1.166266	0.407698	-0.000078
C71	C	-0.832933	0.741031	0.333255
C72	C	-0.499599	1.074365	0.666589
C73	C	-1.146628	0.600032	-0.000045
C74	C	-0.813295	0.933365	0.333289
C75	C	-0.479961	1.266698	0.666622
C76	C	-1.157471	0.493890	-0.000067
C77	C	-0.824138	0.827223	0.333267
C78	C	-0.490805	1.160556	0.666600
N79	N	-1.124471	-0.240382	0.254163
N80	N	-0.791138	0.092951	0.587496
N81	N	-0.457804	0.426285	0.920830
N82	N	-1.153210	-0.211629	-0.254295
N83	N	-0.819876	0.121704	0.079038
N84	N	-0.486543	0.455038	0.412371
C85	C	-1.112111	-0.252735	0.473282
C86	C	-0.778778	0.080598	0.806615
C87	C	-0.445444	0.413932	1.139949
C88	C	-1.165567	-0.199279	0.526593
C89	C	-0.832234	0.134055	0.859926
C90	C	-0.498900	0.467388	1.193259
C91	C	-1.158690	-0.206152	0.648518
C92	C	-0.825356	0.127181	0.981851
C93	C	-0.492023	0.460515	1.315185
C94	C	-1.118987	-0.245863	0.351346
C95	C	-0.785654	0.087471	0.684679
C96	C	-0.452321	0.420804	1.018012
H97	H	-0.650710	-0.338600	-0.000035
H98	H	-0.317377	-0.005266	0.333298
H99	H	0.015956	0.328067	0.666632
Br100	Br	-0.976816	0.310829	-0.000076
Br101	Br	-0.643483	0.644162	0.333257
Br102	Br	-0.310150	0.977495	0.666590
H103	H	-1.061184	-0.303659	0.519205
H104	H	-0.727851	0.029675	0.852539
H105	H	-0.394517	0.363008	1.185872
H106	H	-0.626960	-0.113420	-0.000088
H107	H	-0.293626	0.219913	0.333245
H108	H	0.039707	0.553246	0.666578
Br109	Br	-1.300849	0.237149	-0.000115
Br110	Br	-0.967516	0.570482	0.333218
Br111	Br	-0.634182	0.903815	0.666552
Br112	Br	-1.250452	-0.114394	0.450045
Br113	Br	-0.917119	0.218939	0.783378
Br114	Br	-0.583786	0.552273	1.116712
