data_functionalizedCrystal
_audit_creation_method	'MofGen! by Chris Wilmer'
_symmetry_space_group_name_H-M	'P1'
_symmetry_Int_Tables_number	1
_symmetry_cell_setting	triclinic
loop_
_symmetry_equiv_pos_as_xyz
  x,y,z
_cell_length_a	14.044220
_cell_length_b	15.995350
_cell_length_c	13.101039
_cell_angle_alpha	93.364563
_cell_angle_beta	86.340132
_cell_angle_gamma	88.340626
loop_
_atom_site_label
_atom_site_type_symbol
_atom_site_fract_x
_atom_site_fract_y
_atom_site_fract_z
O1	O	1.262914	0.197637	-0.085096
O2	O	0.986946	0.190352	-0.085122
O3	O	1.132474	0.072670	-0.085107
O4	O	1.117386	0.315319	-0.085111
O5	O	1.122032	0.081129	0.085321
O6	O	0.976505	0.198810	0.085307
O7	O	1.252472	0.206096	0.085333
Zn8	Zn	1.112831	0.203796	0.112379
Zn9	Zn	1.126588	0.192651	-0.112168
O10	O	1.106945	0.323777	0.085318
C11	C	0.946411	0.191392	0.000089
C12	C	0.841186	0.181881	0.000079
C13	C	1.126629	0.045658	0.000105
C14	C	1.124760	-0.047432	0.000099
C15	C	0.648524	0.164494	0.000099
C16	C	0.590890	0.231950	0.000102
C17	C	0.483686	0.222275	0.000114
C18	C	0.755738	0.174167	0.000088
C19	C	1.118044	-0.385681	0.000102
C20	C	1.014425	-0.346007	-0.000290
C21	C	1.016272	-0.249158	0.000094
C22	C	1.121375	-0.217872	0.000100
C23	C	1.166533	-0.250301	0.097426
C24	C	1.163924	-0.347127	0.097507
C25	C	1.177939	-0.356944	-0.096302
C26	C	1.177993	-0.260065	-0.097588
C27	C	1.123263	-0.123033	0.000102
C28	C	1.116159	-0.480519	0.000106
C29	C	1.293008	0.205055	0.000120
C30	C	1.398233	0.214566	0.000123
C31	C	1.112789	0.350789	0.000103
C32	C	1.114659	0.443879	0.000103
N33	N	1.103449	0.211402	0.265626
N34	N	1.135977	0.185039	-0.265416
C35	C	1.090685	0.221758	0.474668
C36	C	1.148739	0.174686	0.525549
C37	C	1.141636	0.180448	0.641867
C38	C	1.097786	0.215997	0.358340
H39	H	0.617354	0.099482	0.000106
N40	N	1.279216	-0.391487	-0.097172
H41	H	1.279044	-0.454716	-0.099832
H42	H	1.317290	-0.372754	-0.159273
H43	H	1.203775	0.130059	0.481753
N44	N	0.968706	-0.220063	-0.092316
H45	H	0.946345	-0.270182	-0.133668
H46	H	0.912158	-0.181666	-0.068994
N47	N	1.017786	0.280870	0.532670
H48	H	1.022985	0.276658	0.608744
H49	H	1.029977	0.340162	0.513983
H50	H	0.977276	-0.371097	-0.070085
N51	N	0.632170	0.318075	0.000094
H52	H	0.704013	0.312870	0.000085
H53	H	0.613868	0.346340	-0.063088
H54	H	0.968933	-0.365237	0.069108
N55	N	0.957028	-0.211644	0.092659
H56	H	0.889092	-0.230231	0.089662
H57	H	0.984394	-0.231078	0.156997
N58	N	1.108645	-0.370284	0.193867
H59	H	1.086196	-0.317621	0.235891
H60	H	1.051628	-0.403522	0.174922
N61	N	1.264352	-0.382033	0.103369
H62	H	1.310119	-0.334511	0.105894
H63	H	1.268030	-0.414185	0.167160
H64	H	1.243527	-0.230228	0.101050
H65	H	1.254999	-0.239269	-0.103460
N66	N	1.113629	-0.211449	0.193354
H67	H	1.044448	-0.227144	0.194316
H68	H	1.143286	-0.232712	0.255517
N69	N	1.139049	-0.392352	-0.194019
H70	H	1.082205	-0.427386	-0.176782
H71	H	1.118804	-0.344898	-0.236253
N72	N	1.134393	-0.232344	-0.192968
H73	H	1.078202	-0.192618	-0.172994
H74	H	1.183707	-0.203003	-0.236155
