data_functionalizedCrystal
_audit_creation_method	'MofGen! by Chris Wilmer'
_symmetry_space_group_name_H-M	'P1'
_symmetry_Int_Tables_number	1
_symmetry_cell_setting	triclinic
loop_
_symmetry_equiv_pos_as_xyz
  x,y,z
_cell_length_a	15.995350
_cell_length_b	19.188930
_cell_length_c	15.072220
_cell_angle_alpha	89.993728
_cell_angle_beta	89.991149
_cell_angle_gamma	83.318578
loop_
_atom_site_label
_atom_site_type_symbol
_atom_site_fract_x
_atom_site_fract_y
_atom_site_fract_z
O1	O	1.110666	0.089991	-0.073718
O2	O	1.610666	0.589991	0.426282
O3	O	0.866850	0.101105	-0.073737
O4	O	1.366850	0.601105	0.426263
O5	O	0.995794	-0.006090	-0.073709
O6	O	1.495794	0.493910	0.426291
O7	O	0.981722	0.197186	-0.073745
O8	O	1.481722	0.697186	0.426255
O9	O	0.995763	-0.006084	0.073856
O10	O	1.495763	0.493916	0.573856
O11	O	0.866819	0.101111	0.073828
O12	O	1.366819	0.601111	0.573828
O13	O	1.110634	0.089997	0.073848
O14	O	1.610634	0.589997	0.573848
Zn15	Zn	0.988721	0.095555	0.097267
Zn16	Zn	1.488721	0.595555	0.597267
Zn17	Zn	0.988763	0.095547	-0.097156
Zn18	Zn	1.488763	0.595547	0.402844
O19	O	0.981690	0.197192	0.073820
O20	O	1.481690	0.697192	0.573820
C21	C	0.835641	0.100648	0.000043
C22	C	1.335641	0.600648	0.500043
C23	C	0.742696	0.099271	0.000037
C24	C	1.242696	0.599271	0.500037
C25	C	0.404967	0.094324	0.000056
C26	C	0.904967	0.594324	0.500056
C27	C	0.452680	0.017982	0.000398
C28	C	0.952680	0.517982	0.500398
C29	C	0.549365	0.019360	0.000059
C30	C	1.049365	0.519360	0.500059
C31	C	0.572518	0.096778	0.000047
C32	C	1.072518	0.596778	0.500047
C33	C	0.531311	0.134429	-0.084223
C34	C	1.031311	0.634429	0.415777
C35	C	0.434683	0.132511	-0.084287
C36	C	0.934683	0.632511	0.415713
C37	C	0.434302	0.134095	0.083522
C38	C	0.934302	0.634095	0.583522
C39	C	0.531247	0.134077	0.084629
C40	C	1.031247	0.634077	0.584629
C41	C	0.667211	0.098169	0.000039
C42	C	1.167211	0.598169	0.500039
C43	C	0.310274	0.092936	0.000058
C44	C	0.810274	0.592936	0.500058
C45	C	0.995323	-0.032099	0.000076
C46	C	1.495323	0.467901	0.500076
C47	C	0.993955	-0.109607	0.000083
C48	C	1.493955	0.390393	0.500083
C49	C	1.069615	-0.154338	0.000093
C50	C	1.569615	0.345662	0.500093
C51	C	1.068330	-0.227165	0.000079
C52	C	1.568330	0.272835	0.500079
C53	C	0.991380	-0.255258	0.000072
C54	C	1.491380	0.244742	0.500072
C55	C	0.915710	-0.210517	0.000057
C56	C	1.415710	0.289483	0.500057
C57	C	0.916997	-0.137691	0.000062
C58	C	1.416997	0.362309	0.500062
N59	N	0.932550	-0.363410	0.050287
N60	N	1.432550	0.136590	0.550287
N61	N	0.931333	-0.432592	0.050284
N62	N	1.431333	0.067408	0.550284
C63	C	0.987497	-0.474676	0.000054
C64	C	1.487497	0.025324	0.500054
N65	N	1.044937	-0.444966	-0.050161
N66	N	1.544937	0.055034	0.449839
N67	N	1.046158	-0.375779	-0.050154
N68	N	1.546158	0.124221	0.449846
C69	C	0.989976	-0.334224	0.000066
C70	C	1.489976	0.165776	0.500066
C71	C	1.061769	-0.598375	0.000048
C72	C	1.561769	-0.098375	0.500048
C73	C	1.060480	-0.671204	0.000028
C74	C	1.560480	-0.171204	0.500028
C75	C	0.907859	-0.654553	0.000015
C76	C	1.407859	-0.154553	0.500015
C77	C	0.909149	-0.581727	0.000025
C78	C	1.409149	-0.081727	0.500025
C79	C	0.986106	-0.553643	0.000046
C80	C	1.486106	-0.053643	0.500046
C81	C	1.141843	0.090454	0.000065
C82	C	1.641843	0.590454	0.500065
C83	C	1.234789	0.091831	0.000066
C84	C	1.734789	0.591831	0.500066
C85	C	0.982162	0.223201	0.000033
C86	C	1.482162	0.723201	0.500033
C87	C	0.983530	0.300709	0.000019
C88	C	1.483530	0.800709	0.500019
N89	N	0.988699	0.095560	0.229956
N90	N	1.488699	0.595560	0.729956
N91	N	0.988792	0.095537	-0.229845
N92	N	1.488792	0.595537	0.270155
C93	C	0.988762	0.095544	0.589157
C94	C	1.488762	0.595544	1.089157
C95	C	0.919536	0.152710	0.551535
C96	C	1.419536	0.652710	1.051535
C97	C	0.919693	0.152918	0.448710
C98	C	1.419693	0.652918	0.948710
C99	C	0.988730	0.095552	0.410953
C100	C	1.488730	0.595552	0.910953
C101	C	1.076036	0.111464	0.448248
C102	C	1.576036	0.611464	0.948248
C103	C	1.075648	0.111870	0.551106
C104	C	1.575648	0.611870	1.051106
C105	C	0.971460	0.022298	0.551269
C106	C	1.471460	0.522298	1.051269
C107	C	0.969454	0.022787	0.448405
C108	C	1.469454	0.522787	0.948405
C109	C	0.988717	0.095555	0.310240
C110	C	1.488717	0.595555	0.810240
C111	C	0.988780	0.095543	0.689871
C112	C	1.488780	0.595543	1.189871
H113	H	0.577890	-0.010236	0.060468
H114	H	1.077890	0.489764	0.560468
N115	N	1.142091	-0.719451	0.000046
N116	N	1.642091	-0.219451	0.500046
H117	H	1.129600	-0.769848	0.000035
H118	H	1.629600	-0.269848	0.500035
H119	H	1.175657	-0.710349	-0.054649
H120	H	1.675657	-0.210349	0.445351
H121	H	0.413844	0.109140	0.147396
H122	H	0.913844	0.609140	0.647396
H123	H	0.433211	-0.012395	-0.059692
H124	H	0.933211	0.487605	0.440308
H125	H	0.854788	0.143438	0.423496
H126	H	1.354788	0.643438	0.923496
H127	H	1.129943	-0.263592	0.000084
H128	H	1.629943	0.236408	0.500084
N129	N	0.428284	-0.022438	0.080453
N130	N	0.928284	0.477562	0.580453
H131	H	0.386062	0.008342	0.117275
H132	H	0.886062	0.508342	0.617275
H133	H	0.402506	-0.065364	0.060288
H134	H	0.902506	0.434636	0.560288
N135	N	0.549754	0.209765	-0.088400
N136	N	1.049754	0.709765	0.411600
H137	H	0.522666	0.232942	-0.143086
H138	H	1.022666	0.732942	0.356914
H139	H	0.526335	0.235567	-0.033781
H140	H	1.026335	0.735567	0.466219
N141	N	1.096785	0.181417	0.414119
N142	N	1.596785	0.681417	0.914119
H143	H	1.150990	0.174445	0.379163
H144	H	1.650990	0.674445	0.879163
H145	H	1.049713	0.202860	0.374543
H146	H	1.549713	0.702860	0.874543
H147	H	0.853057	-0.233394	0.000050
H148	H	1.353057	0.266606	0.500050
N149	N	0.567540	0.097675	0.167214
N150	N	1.067540	0.597675	0.667214
H151	H	0.610537	0.057191	0.149921
H152	H	1.110537	0.557191	0.649921
H153	H	0.595407	0.132066	0.204583
H154	H	1.095407	0.632066	0.704583
H155	H	0.546404	0.190533	0.089710
H156	H	1.046404	0.690533	0.589710
N157	N	1.095877	0.182632	0.582867
N158	N	1.595877	0.682632	1.082867
H159	H	1.095823	0.183605	0.649866
H160	H	1.595823	0.683605	1.149866
H161	H	1.153225	0.191195	0.560212
H162	H	1.653225	0.691195	1.060212
N163	N	0.824861	-0.684842	-0.000003
N164	N	1.324861	-0.184842	0.499997
H165	H	0.835524	-0.737765	-0.000008
H166	H	1.335524	-0.237765	0.499992
H167	H	0.791749	-0.668485	0.054699
H168	H	1.291749	-0.168485	0.554699
N169	N	1.145886	0.057779	0.415854
N170	N	1.645886	0.557779	0.915854
H171	H	1.148034	0.058806	0.348900
H172	H	1.648034	0.558806	0.848900
H173	H	1.201385	0.069063	0.440700
H174	H	1.701385	0.569063	0.940700
N175	N	0.586433	-0.020100	-0.080094
N176	N	1.086433	0.479900	0.419906
H177	H	0.649466	-0.019368	-0.080647
H178	H	1.149466	0.480632	0.419353
H179	H	0.573205	-0.070256	-0.077450
H180	H	1.073205	0.429744	0.422550
N181	N	0.410573	0.096134	-0.167713
N182	N	0.910573	0.596134	0.332287
H183	H	0.462692	0.081493	-0.204100
H184	H	0.962692	0.581493	0.295900
H185	H	0.382777	0.053283	-0.151300
H186	H	0.882777	0.553283	0.348700
N187	N	0.934066	0.224967	0.416084
N188	N	1.434066	0.724967	0.916084
H189	H	0.940353	0.256708	0.468520
H190	H	1.440353	0.756708	0.968520
H191	H	0.986932	0.221387	0.378913
H192	H	1.486932	0.721387	0.878913
N193	N	0.835390	-0.089440	0.000051
N194	N	1.335390	0.410560	0.500051
H195	H	0.786445	-0.118284	0.000041
H196	H	1.286445	0.381716	0.500041
H197	H	0.832587	-0.058869	0.054759
H198	H	1.332587	0.441131	0.554759
H199	H	1.132280	-0.131477	0.000107
H200	H	1.632280	0.368523	0.500107
H201	H	0.847538	-0.545305	0.000022
H202	H	1.347538	-0.045305	0.500022
N203	N	0.833279	0.140367	0.584329
N204	N	1.333279	0.640367	1.084329
H205	H	0.838234	0.097602	0.623894
H206	H	1.338234	0.597602	1.123894
H207	H	0.807873	0.182661	0.618991
H208	H	1.307873	0.682661	1.118991
H209	H	1.021947	-0.020242	0.575598
H210	H	1.521947	0.479758	1.075598
N211	N	1.144767	-0.568077	0.000066
N212	N	1.644767	-0.068077	0.500066
H213	H	1.192504	-0.607469	0.000063
H214	H	1.692504	-0.107469	0.500063
H215	H	1.148637	-0.538215	-0.054633
H216	H	1.648637	-0.038215	0.445367
N217	N	1.031932	-0.036206	0.414378
N218	N	1.531932	0.463794	0.914378
H219	H	1.062663	-0.060947	0.466084
H220	H	1.562663	0.439053	0.966084
H221	H	1.001134	-0.070633	0.380222
H222	H	1.501134	0.429367	0.880222
N223	N	0.933959	0.224305	0.585719
N224	N	1.433959	0.724305	1.085719
H225	H	0.931044	0.224586	0.652659
H226	H	1.431044	0.724586	1.152659
H227	H	0.991272	0.235522	0.566097
H228	H	1.491272	0.735522	1.066097
N229	N	1.145885	0.058795	0.584079
N230	N	1.645885	0.558795	1.084079
H231	H	1.176967	0.035244	0.531795
H232	H	1.676967	0.535244	1.031795
H233	H	1.186140	0.083314	0.621221
H234	H	1.686140	0.583314	1.121221
N235	N	0.888969	0.002037	0.585663
N236	N	1.388969	0.502037	1.085663
H237	H	0.861975	0.040139	0.626161
H238	H	1.361975	0.540139	1.126161
H239	H	0.850209	-0.004145	0.534087
H240	H	1.350209	0.495855	1.034087
H241	H	0.559795	0.108273	-0.146930
H242	H	1.059795	0.608273	0.353070
N243	N	0.391686	0.206751	-0.089330
N244	N	0.891686	0.706751	0.410670
H245	H	0.435529	0.240577	-0.091510
H246	H	0.935529	0.740577	0.408490
H247	H	0.355774	0.212358	-0.144551
H248	H	0.855774	0.712358	0.355449
N249	N	0.391963	0.208653	0.084270
N250	N	0.891963	0.708653	0.584270
H251	H	0.353962	0.216660	0.030836
H252	H	0.853962	0.716660	0.530836
H253	H	0.357484	0.216995	0.140210
H254	H	0.857484	0.716995	0.640210
H255	H	0.905232	0.010712	0.424030
H256	H	1.405232	0.510712	0.924030
