data_functionalizedCrystal
_audit_creation_method	'MofGen! by Chris Wilmer'
_symmetry_space_group_name_H-M	'P1'
_symmetry_Int_Tables_number	1
_symmetry_cell_setting	triclinic
loop_
_symmetry_equiv_pos_as_xyz
  x,y,z
_cell_length_a	13.032831
_cell_length_b	12.759394
_cell_length_c	13.033109
_cell_angle_alpha	97.153824
_cell_angle_beta	76.665514
_cell_angle_gamma	82.819699
loop_
_atom_site_label
_atom_site_type_symbol
_atom_site_fract_x
_atom_site_fract_y
_atom_site_fract_z
Zn1	Zn	1.700152	-0.738596	-0.806419
Zn2	Zn	1.677492	-0.888729	-0.628805
Zn3	Zn	1.499974	-0.687494	-0.606312
Zn4	Zn	1.522507	-0.888636	-0.783849
O5	O	1.600031	-0.800864	-0.706346
O6	O	1.845783	-0.779936	-0.801718
O7	O	1.635030	-0.840687	-0.477189
O8	O	1.526581	-0.547263	-0.632889
O9	O	1.829135	-0.890238	-0.671225
O10	O	1.673651	-0.584807	-0.779907
O11	O	1.504608	-0.692841	-0.460663
O12	O	1.354325	-0.692751	-0.611003
O13	O	1.564985	-0.890081	-0.935475
O14	O	1.370880	-0.840530	-0.741439
O15	O	1.695501	-0.779846	-0.952057
O16	O	1.656879	-1.035727	-0.649339
O17	O	1.543013	-1.035659	-0.763249
C18	C	1.324063	-0.761086	-0.671332
C19	C	1.206006	-0.744098	-0.656377
C20	C	1.161579	-0.809730	-0.714151
C21	C	1.039561	-0.792174	-0.698696
C22	C	1.599964	-1.073818	-0.706312
C23	C	1.600037	-1.190609	-0.706346
C24	C	1.718721	-1.190655	-0.587846
C25	C	1.778093	-1.245545	-0.528612
C26	C	1.778159	-1.355280	-0.528649
C27	C	1.718849	-1.410128	-0.587928
C28	C	1.659478	-1.355238	-0.647162
C29	C	1.659416	-1.245500	-0.647116
C30	C	1.540801	-1.355193	-0.765667
C31	C	1.540728	-1.245457	-0.765625
C32	C	1.481492	-1.410041	-0.824946
C33	C	1.422113	-1.355149	-0.884176
C34	C	1.422048	-1.245408	-0.884136
C35	C	1.481356	-1.190567	-0.824859
C36	C	1.877077	-0.840798	-0.741498
C37	C	1.995137	-0.857815	-0.756478
C38	C	1.635284	-0.840653	-0.983382
C39	C	1.650307	-0.857609	-1.101439
C40	C	1.600130	-0.526851	-0.706407
C41	C	1.600172	-0.410083	-0.706433
C42	C	1.592474	-0.792017	-1.145895
C43	C	1.608000	-0.809541	-1.267913
C44	C	1.564976	-0.761162	-0.430395
C45	C	1.550159	-0.743940	-0.312366
H46	H	1.213877	-0.878915	-0.775058
H47	H	1.711312	-0.926739	-1.153710
C48	C	0.968917	-0.698695	-0.616413
N49	N	0.915707	-0.628290	-0.554438
C50	C	1.065779	-0.951293	-0.838762
N51	N	1.118986	-1.021701	-0.900737
C52	C	1.135359	-0.650624	-0.574099
N53	N	1.082148	-0.580219	-0.512123
C54	C	1.843327	-1.185204	-0.463404
N55	N	1.892461	-1.139757	-0.414289
C56	C	1.718644	-1.069941	-0.587789
N57	N	1.718586	-0.979018	-0.587744
C58	C	1.843469	-1.415660	-0.463488
N59	N	1.892660	-1.461138	-0.414408
H60	H	1.481555	-1.499394	-0.824977
C61	C	1.356877	-1.415488	-0.949374
N62	N	1.307738	-1.460938	-0.998479
C63	C	1.718932	-1.530841	-0.587971
N64	N	1.718991	-1.621763	-0.588002
C65	C	1.356743	-1.185040	-0.949308
N66	N	1.307555	-1.139575	-0.998400
C67	C	1.481297	-1.069857	-0.824815
N68	N	1.481260	-0.978938	-0.824785
H69	H	1.531464	-0.722893	-1.093623
C70	C	1.690331	-0.903016	-1.338510
N71	N	1.752310	-0.973446	-1.391681
H72	H	1.489146	-0.674808	-1.260099
