data_functionalizedCrystal
_audit_creation_method	'MofGen! by Chris Wilmer'
_symmetry_space_group_name_H-M	'P1'
_symmetry_Int_Tables_number	1
_symmetry_cell_setting	triclinic
loop_
_symmetry_equiv_pos_as_xyz
  x,y,z
_cell_length_a	12.759401
_cell_length_b	15.297327
_cell_length_c	12.759393
_cell_angle_alpha	99.642973
_cell_angle_beta	89.979062
_cell_angle_gamma	99.708126
loop_
_atom_site_label
_atom_site_type_symbol
_atom_site_fract_x
_atom_site_fract_y
_atom_site_fract_z
Zn1	Zn	1.533815	-0.359082	-0.666329
Zn2	Zn	1.503263	-0.509967	-0.521034
Zn3	Zn	1.358104	-0.359130	-0.490674
Zn4	Zn	1.327675	-0.509904	-0.696658
O5	O	1.430714	-0.434521	-0.593674
O6	O	1.676782	-0.379103	-0.647069
O7	O	1.483956	-0.490005	-0.369995
O8	O	1.406934	-0.232878	-0.488577
O9	O	1.654335	-0.489958	-0.540320
O10	O	1.536028	-0.232842	-0.617630
O11	O	1.377308	-0.379185	-0.347690
O12	O	1.207048	-0.379124	-0.517986
O13	O	1.355072	-0.489851	-0.839647
O14	O	1.184692	-0.489898	-0.669321
O15	O	1.506522	-0.379042	-0.817364
O16	O	1.454449	-0.636205	-0.569729
O17	O	1.325446	-0.636159	-0.698760
C18	C	1.157749	-0.434510	-0.593651
C19	C	1.040969	-0.434527	-0.593670
C20	C	1.383359	-0.668916	-0.640853
C21	C	1.363196	-0.769191	-0.661071
C22	C	0.974476	-0.492294	-0.672383
C23	C	0.864751	-0.492298	-0.672404
C24	C	0.888023	-0.376764	-0.514991
C25	C	0.997747	-0.376756	-0.514975
C26	C	1.575254	-1.051821	-0.449528
C27	C	1.594198	-0.957608	-0.430526
C28	C	1.536449	-0.910499	-0.488161
C29	C	1.459753	-0.957613	-0.564800
C30	C	1.440802	-1.051836	-0.583798
C31	C	1.401997	-0.910513	-0.622431
C32	C	1.325301	-0.957627	-0.699071
C33	C	1.306354	-1.051841	-0.718065
C34	C	1.364103	-1.098950	-0.660430
C35	C	1.420948	-0.816291	-0.603434
C36	C	1.286496	-0.816305	-0.737704
C37	C	1.267553	-0.910519	-0.756705
C38	C	1.704745	-0.434533	-0.593698
C39	C	1.821521	-0.434538	-0.593708
C40	C	1.430810	-0.434434	-0.867690
C41	C	1.430851	-0.434397	-0.984459
C42	C	1.478284	-0.199211	-0.546334
C43	C	1.498555	-0.098935	-0.526160
C44	C	1.509719	-0.376690	-1.027719
C45	C	1.509744	-0.376651	-1.137435
C46	C	1.352031	-0.492035	-1.160625
C47	C	1.352002	-0.492068	-1.050909
C48	C	1.430692	-0.434542	-0.320711
C49	C	1.430906	-0.434325	-0.203891
H50	H	0.810617	-0.539337	-0.736501
C51	C	1.677548	-0.906340	-0.347475
C52	C	1.755737	-0.852143	-0.396091
C53	C	1.832532	-0.804890	-0.319612
H54	H	1.709351	-0.947781	-0.315824
H55	H	1.644796	-0.869593	-0.294272
H56	H	1.788485	-0.888886	-0.449275
H57	H	1.723965	-0.810685	-0.427736
H58	H	1.799781	-0.768144	-0.266409
H59	H	1.864328	-0.846338	-0.287966
H60	H	1.885588	-0.768106	-0.352585
H61	H	1.348686	-1.175666	-0.675900
H62	H	1.622258	-1.090186	-0.402604
H63	H	0.852817	-0.329730	-0.450919
C64	C	1.556821	-0.808210	-0.467424
C65	C	1.463067	-0.777125	-0.434247
C66	C	1.481803	-0.682898	-0.415118
H67	H	1.579215	-0.786723	-0.530868
H68	H	1.610726	-0.786863	-0.413489
H69	H	1.409179	-0.798462	-0.488178
H70	H	1.440658	-0.798587	-0.370797
H71	H	1.535709	-0.661551	-0.361182
H72	H	1.504199	-0.661420	-0.478566
H73	H	1.418198	-0.661795	-0.392596
C74	C	1.266312	-0.554689	-1.232591
C75	C	1.197221	-0.605217	-1.171216
C76	C	1.118237	-0.662938	-1.237471
H77	H	1.298435	-0.594066	-1.283324
H78	H	1.227464	-0.520184	-1.268425
H79	H	1.236064	-0.639719	-1.135400
H80	H	1.165073	-0.565863	-1.120486
H81	H	1.079388	-0.628433	-1.273305
H82	H	1.150369	-0.702309	-1.288200
H83	H	1.071343	-0.697222	-1.195837
C84	C	1.070026	-0.313923	-0.429662
C85	C	1.144698	-0.256143	-0.477628
C86	C	1.211290	-0.198242	-0.399077
H87	H	1.105953	-0.348279	-0.390709
H88	H	1.028614	-0.279470	-0.382800
H89	H	1.186105	-0.290593	-0.524471
H90	H	1.108801	-0.221767	-0.516573
H91	H	1.169878	-0.163789	-0.352215
H92	H	1.247209	-0.232606	-0.360129
H93	H	1.261956	-0.159027	-0.431610
C94	C	1.223071	-1.102832	-0.801347
C95	C	1.176571	-1.041416	-0.847776
C96	C	1.099856	-1.088354	-0.924508
H97	H	1.169817	-1.139648	-0.768657
H98	H	1.255838	-1.139510	-0.854610
H99	H	1.143804	-1.004754	-0.794522
H100	H	1.229797	-1.004598	-0.880487
H101	H	1.132623	-1.125031	-0.977771
H102	H	1.046609	-1.125168	-0.891808
H103	H	1.068303	-1.046690	-0.956026
H104	H	1.483394	-0.777939	-0.541033
H105	H	1.573964	-0.329659	-1.172650
H106	H	1.009664	-0.539333	-0.736464
C107	C	1.266430	-0.554629	-1.003725
C108	C	1.283265	-0.542294	-0.893415
C109	C	1.204452	-0.599894	-0.849911
H110	H	1.269478	-0.615278	-1.033780
H111	H	1.198493	-0.541406	-1.018974
H112	H	1.351185	-0.555523	-0.878175
H113	H	1.280207	-0.481657	-0.863332
H114	H	1.136515	-0.586672	-0.865160
H115	H	1.207507	-0.660540	-0.879973
H116	H	1.215858	-0.591527	-0.775061
H117	H	1.205106	-0.948892	-0.819105
C118	C	1.223647	-0.765332	-0.800361
C119	C	1.152399	-0.826756	-0.871517
C120	C	1.094478	-0.779827	-0.929237
H121	H	1.271102	-0.728517	-0.838842
H122	H	1.185212	-0.728654	-0.752759
H123	H	1.190831	-0.863418	-0.919113
H124	H	1.104922	-0.863573	-0.833064
H125	H	1.056043	-0.743149	-0.881635
H126	H	1.141942	-0.743013	-0.967712
H127	H	1.046123	-0.821496	-0.977516
H128	H	1.573921	-0.329728	-0.973617
