data_functionalizedCrystal
_audit_creation_method	'MofGen! by Chris Wilmer'
_symmetry_space_group_name_H-M	'P1'
_symmetry_Int_Tables_number	1
_symmetry_cell_setting	triclinic
loop_
_symmetry_equiv_pos_as_xyz
  x,y,z
_cell_length_a	19.851628
_cell_length_b	14.560438
_cell_length_c	19.851628
_cell_angle_alpha	60.005725
_cell_angle_beta	90.003773
_cell_angle_gamma	59.997980
loop_
_atom_site_label
_atom_site_type_symbol
_atom_site_fract_x
_atom_site_fract_y
_atom_site_fract_z
Zr1	Zr	0.648973	1.005179	-0.088328
O2	O	0.541411	1.196776	-0.195888
O3	O	0.681946	0.813580	-0.055356
O4	O	0.681951	1.005158	-0.195879
O5	O	0.541403	1.005216	0.055483
O6	O	0.792811	1.005144	-0.195870
O7	O	0.541407	1.005198	-0.055365
O8	O	0.792803	0.662446	0.055500
O9	O	0.541411	1.347914	-0.195886
O10	O	0.778743	0.892378	-0.041285
O11	O	0.696007	0.892402	0.041433
O12	O	0.696012	1.117960	-0.124014
O13	O	0.613276	1.117984	-0.041296
Zr14	Zr	0.825777	1.005185	0.088478
Zr15	Zr	0.825782	1.005157	-0.088313
Zr16	Zr	0.648968	1.005208	0.088463
Zr17	Zr	0.648973	1.246227	-0.088324
Zr18	Zr	0.825777	0.764138	0.088475
O19	O	0.792804	1.196785	0.055507
O20	O	0.792811	1.196745	-0.195867
O21	O	0.541403	1.196816	0.055486
O22	O	0.933339	0.813588	0.196039
O23	O	0.933347	0.813548	-0.055335
O24	O	0.681939	0.813620	0.196018
O25	O	0.933347	1.005149	-0.055333
O26	O	0.792799	1.005207	0.196030
O27	O	0.681939	1.005221	0.196020
O28	O	0.933344	1.005167	0.055516
O29	O	0.681951	1.347897	-0.195874
O30	O	0.792799	0.662468	0.196025
O31	O	0.933339	0.662450	0.196037
O32	O	0.933343	0.662428	0.055511
O33	O	0.541407	1.347937	-0.055361
O34	O	0.681947	1.347919	-0.055349
O35	O	0.778738	0.892404	0.124165
O36	O	0.861474	0.892381	0.041447
O37	O	0.778743	1.117963	-0.041282
O38	O	0.696007	1.117987	0.041436
C39	C	0.737375	0.703668	0.000071
C40	C	0.737374	0.601337	0.000070
C41	C	0.780560	0.553249	-0.043108
C42	C	0.780564	0.457090	-0.043101
C43	C	0.694188	0.457120	0.043264
C44	C	0.694191	0.553271	0.043261
C45	C	0.516213	1.005210	0.000057
C46	C	0.441153	1.005219	0.000051
C47	C	0.169804	1.128188	-0.045036
C48	C	0.237262	1.066736	0.032743
C49	C	0.171008	1.005169	0.000085
C50	C	0.237264	1.066685	-0.077699
C51	C	0.303737	1.005200	0.000065
C52	C	0.237477	0.943715	0.077910
C53	C	0.237469	0.943682	-0.032588
C54	C	0.304940	0.882139	0.045237
C55	C	0.094544	1.005154	0.000096
C56	C	0.380202	1.005205	0.000062
C57	C	0.958537	1.005155	0.000094
C58	C	1.033597	1.005145	0.000100
C59	C	0.737382	1.005147	-0.221063
C60	C	0.737384	1.005135	-0.296116
C61	C	0.737375	1.306696	0.000080
C62	C	0.737376	1.409027	0.000081
C63	C	0.782490	0.882167	-0.432374
C64	C	0.704697	0.943656	-0.499833
C65	C	0.737376	1.005169	-0.433547
C66	C	0.815152	0.943671	-0.499823
C67	C	0.737375	1.005192	-0.566296
C68	C	0.659538	1.066658	-0.500017
C69	C	0.770049	1.066656	-0.499997
C70	C	0.692210	1.128235	-0.567468
C71	C	0.737378	1.005151	-0.357072
C72	C	0.737365	1.005219	-0.642773
C73	C	0.737368	1.005218	0.221214
C74	C	0.737366	1.005230	0.296266
C75	C	0.958536	0.703641	0.000090
C76	C	1.033596	0.601300	0.000095
C77	C	0.737368	0.703704	0.221210
C78	C	0.737365	0.601385	0.296261
C79	C	0.958530	0.703676	0.221228
C80	C	1.033587	0.601348	0.296286
C81	C	0.516220	1.306688	-0.221078
C82	C	0.441163	1.409017	-0.296135
C83	C	0.516214	1.306724	0.000061
C84	C	0.441154	1.409064	0.000056
C85	C	0.737382	1.306661	-0.221059
C86	C	0.737385	1.408980	-0.296110
C87	C	1.025661	0.553239	-0.043096
C88	C	1.096181	0.457092	-0.043108
C89	C	1.174636	0.409003	0.000076
C90	C	1.182570	0.457074	0.043268
C91	C	1.112051	0.553225	0.043274
C92	C	0.780549	0.553336	0.374698
C93	C	0.780544	0.457210	0.445223
C94	C	0.737359	0.409128	0.437309
C95	C	0.694170	0.457186	0.358864
C96	C	0.694171	0.553317	0.288340
C97	C	1.112030	0.553281	0.288355
C98	C	1.182562	0.457146	0.358873
C99	C	1.174649	0.409073	0.437320
C100	C	1.096198	0.457149	0.445249
C101	C	1.025668	0.553289	0.374732
C102	C	0.362720	1.457095	-0.288204
C103	C	0.292188	1.553260	-0.358722
C104	C	0.300101	1.601338	-0.437169
C105	C	0.378552	1.553256	-0.445098
C106	C	0.449082	1.457099	-0.374581
C107	C	0.449089	1.457136	0.043239
C108	C	0.378569	1.553309	0.043232
C109	C	0.300114	1.601402	0.000046
C110	C	0.292180	1.553326	-0.043143
C111	C	0.362699	1.457162	-0.043140
C112	C	0.780578	1.457032	-0.288170
C113	C	0.780596	1.553158	-0.358681
C114	C	0.737416	1.601238	-0.437133
C115	C	0.694222	1.553177	-0.445071
C116	C	0.694208	1.457045	-0.374561
H117	H	0.111951	1.232183	-0.083121
H118	H	0.659065	1.592338	-0.508956
Br119	Br	0.737441	1.731706	-0.532819
H120	H	0.242665	1.679635	-0.494582
H121	H	0.659032	1.417932	-0.381038
H122	H	1.089704	0.417964	-0.078280
Br123	Br	0.839169	0.618477	-0.101722
Br124	Br	0.839218	1.618369	-0.347887
Br125	Br	0.555556	1.391892	0.101854
H126	H	0.384986	1.592413	-0.508978
Br127	Br	0.185730	1.618492	-0.347942
H128	H	1.118489	0.592408	0.224486
Br129	Br	0.351957	1.391864	-0.181749
H130	H	0.385046	1.592436	0.078404
Br131	Br	0.816146	1.153225	-0.498817
Br132	Br	0.839186	1.391803	-0.181709
Br133	Br	0.236311	0.857081	-0.078673
Br134	Br	0.204416	1.731913	0.000050
Br135	Br	0.635562	0.618509	0.181892
Br136	Br	0.555538	1.391855	-0.385359
H137	H	0.815730	0.417937	-0.078259
H138	H	0.961799	0.592413	0.381200
H139	H	0.659029	0.417973	0.078428
Br140	Br	1.270377	0.278596	0.533014
Br141	Br	0.635586	0.618527	0.101874
Br142	Br	0.236514	0.857126	0.187589
H143	H	0.228292	1.592498	-0.078304
H144	H	1.246458	0.417905	0.078426
Br145	Br	0.238342	1.153365	-0.187323
Br146	Br	0.845976	0.708825	-0.335976
Br147	Br	0.238359	1.153399	0.078806
H148	H	0.362700	0.778059	0.083439
Br149	Br	0.658625	0.857028	-0.500965
Br150	Br	0.549855	1.153254	-0.499038
H151	H	1.246434	0.418012	0.352402
H152	H	0.654005	1.232324	-0.625211
H153	H	0.737365	0.330852	0.494741
H154	H	0.880930	0.891661	-0.500470
H155	H	0.356226	1.418024	-0.078302
H156	H	0.961785	0.592392	-0.078271
Br157	Br	1.270334	0.278510	0.000058
H158	H	1.118524	0.592345	0.078450
H159	H	0.815716	0.592474	0.381158
Br160	Br	0.635566	0.391917	0.348137
Br161	Br	0.839163	0.392007	0.551674
H162	H	1.089767	0.417994	0.509130
