data_functionalizedCrystal
_audit_creation_method	'MofGen! by Chris Wilmer'
_symmetry_space_group_name_H-M	'P1'
_symmetry_Int_Tables_number	1
_symmetry_cell_setting	triclinic
loop_
_symmetry_equiv_pos_as_xyz
  x,y,z
_cell_length_a	21.395362
_cell_length_b	21.395364
_cell_length_c	21.395355
_cell_angle_alpha	89.974702
_cell_angle_beta	90.019906
_cell_angle_gamma	89.955800
loop_
_atom_site_label
_atom_site_type_symbol
_atom_site_fract_x
_atom_site_fract_y
_atom_site_fract_z
Zn1	Zn	-0.249232	-0.957873	0.354268
Zn2	Zn	0.000768	-0.707873	0.604268
Zn3	Zn	0.250768	-0.457873	0.854268
Zn4	Zn	0.500768	-0.207873	1.104268
Zn5	Zn	-0.353992	-0.957782	0.249488
Zn6	Zn	-0.103992	-0.707782	0.499488
Zn7	Zn	0.146008	-0.457782	0.749488
Zn8	Zn	0.396008	-0.207782	0.999488
Zn9	Zn	-0.249263	-0.853088	0.249503
Zn10	Zn	0.000737	-0.603088	0.499503
Zn11	Zn	0.250737	-0.353088	0.749503
Zn12	Zn	0.500737	-0.103088	0.999503
Zn13	Zn	-0.354006	-0.853063	0.354227
Zn14	Zn	-0.104006	-0.603063	0.604227
Zn15	Zn	0.145994	-0.353063	0.854227
Zn16	Zn	0.395994	-0.103063	1.104227
O17	O	-0.301623	-0.905452	0.301871
O18	O	-0.051623	-0.655452	0.551871
O19	O	0.198377	-0.405452	0.801871
O20	O	0.448377	-0.155452	1.051871
O21	O	-0.263110	-1.045539	0.340379
O22	O	-0.013110	-0.795539	0.590379
O23	O	0.236890	-0.545539	0.840379
O24	O	0.486890	-0.295539	1.090379
O25	O	-0.340106	-0.943866	0.161812
O26	O	-0.090106	-0.693866	0.411812
O27	O	0.159894	-0.443866	0.661812
O28	O	0.409894	-0.193866	0.911812
O29	O	-0.161581	-0.867037	0.263424
O30	O	0.088419	-0.617037	0.513424
O31	O	0.338419	-0.367037	0.763424
O32	O	0.588419	-0.117037	1.013424
O33	O	-0.340076	-1.045472	0.263398
O34	O	-0.090076	-0.795472	0.513398
O35	O	0.159924	-0.545472	0.763398
O36	O	0.409924	-0.295472	1.013398
O37	O	-0.161558	-0.944022	0.340394
O38	O	0.088442	-0.694022	0.590394
O39	O	0.338442	-0.444022	0.840394
O40	O	0.588442	-0.194022	1.090394
O41	O	-0.263162	-0.866948	0.161823
O42	O	-0.013162	-0.616948	0.411823
O43	O	0.236838	-0.366948	0.661823
O44	O	0.486838	-0.116948	0.911823
O45	O	-0.263176	-0.765407	0.263384
O46	O	-0.013176	-0.515407	0.513384
O47	O	0.236824	-0.265407	0.763384
O48	O	0.486824	-0.015407	1.013384
O49	O	-0.340101	-0.866994	0.441910
O50	O	-0.090101	-0.616994	0.691910
O51	O	0.159899	-0.366994	0.941910
O52	O	0.409899	-0.116994	1.191910
O53	O	-0.340131	-0.765389	0.340324
O54	O	-0.090131	-0.515389	0.590324
O55	O	0.159869	-0.265389	0.840324
O56	O	0.409869	-0.015389	1.090324
O57	O	-0.263124	-0.943998	0.441940
O58	O	-0.013124	-0.693998	0.691940
O59	O	0.236876	-0.443998	0.941940
O60	O	0.486876	-0.193998	1.191940
O61	O	-0.441672	-0.943842	0.263358
O62	O	-0.191672	-0.693842	0.513358
O63	O	0.058328	-0.443842	0.763358
O64	O	0.308328	-0.193842	1.013358
O65	O	-0.441682	-0.866906	0.340309
O66	O	-0.191682	-0.616906	0.590309
O67	O	0.058318	-0.366906	0.840309
O68	O	0.308318	-0.116906	1.090309
C69	C	-0.301659	-0.742664	0.301852
C70	C	-0.051659	-0.492664	0.551852
C71	C	0.198341	-0.242664	0.801852
C72	C	0.448341	0.007336	1.051852
C73	C	-0.301689	-0.673023	0.301858
C74	C	-0.051689	-0.423023	0.551858
C75	C	0.198311	-0.173023	0.801858
C76	C	0.448311	0.076977	1.051858
C77	C	-0.261679	-0.640367	0.342004
C78	C	-0.011679	-0.390367	0.592004
C79	C	0.238321	-0.140367	0.842004
C80	C	0.488321	0.109633	1.092004
C81	C	-0.261664	-0.574932	0.342005
C82	C	-0.011664	-0.324932	0.592005
C83	C	0.238336	-0.074932	0.842005
C84	C	0.488336	0.175068	1.092005
C85	C	-0.301671	-0.542154	0.301868
C86	C	-0.051671	-0.292154	0.551868
C87	C	0.198329	-0.042154	0.801868
C88	C	0.448329	0.207846	1.051868
C89	C	-0.341683	-0.574818	0.261714
C90	C	-0.091683	-0.324818	0.511714
C91	C	0.158317	-0.074818	0.761714
C92	C	0.408317	0.175182	1.011714
C93	C	-0.341692	-0.640252	0.261709
C94	C	-0.091692	-0.390252	0.511709
C95	C	0.158308	-0.140252	0.761709
C96	C	0.408308	0.109748	1.011709
C97	C	-0.358098	-0.438433	0.296828
C98	C	-0.108098	-0.188433	0.546828
C99	C	0.141902	0.061567	0.796828
C100	C	0.391902	0.311567	1.046828
C101	C	-0.358090	-0.373000	0.296837
C102	C	-0.108090	-0.123000	0.546837
C103	C	0.141910	0.127000	0.796837
C104	C	0.391910	0.377000	1.046837
C105	C	-0.301642	-0.340334	0.301879
C106	C	-0.051642	-0.090334	0.551879
C107	C	0.198358	0.159666	0.801879
C108	C	0.448358	0.409666	1.051879
C109	C	-0.245200	-0.373108	0.306925
C110	C	0.004800	-0.123108	0.556925
C111	C	0.254800	0.126892	0.806925
C112	C	0.504800	0.376892	1.056925
C113	C	-0.245210	-0.438542	0.306921
C114	C	0.004790	-0.188542	0.556921
C115	C	0.254790	0.061458	0.806921
C116	C	0.504790	0.311458	1.056921
C117	C	-0.301665	-0.471202	0.301868
C118	C	-0.051665	-0.221202	0.551868
C119	C	0.198335	0.028798	0.801868
C120	C	0.448335	0.278798	1.051868
C121	C	-0.261613	-0.236725	0.342029
C122	C	-0.011613	0.013275	0.592029
C123	C	0.238387	0.263275	0.842029
C124	C	0.488387	0.513275	1.092029
C125	C	-0.261597	-0.171289	0.342026
C126	C	-0.011597	0.078711	0.592026
C127	C	0.238403	0.328711	0.842026
C128	C	0.488403	0.578711	1.092026
C129	C	-0.341622	-0.171176	0.261738
C130	C	-0.091622	0.078824	0.511738
C131	C	0.158378	0.328824	0.761738
C132	C	0.408378	0.578824	1.011738
C133	C	-0.341632	-0.236612	0.261738
C134	C	-0.091632	0.013388	0.511738
C135	C	0.158368	0.263388	0.761738
C136	C	0.408368	0.513388	1.011738
C137	C	-0.301629	-0.269382	0.301886
C138	C	-0.051629	-0.019382	0.551886
C139	C	0.198371	0.230618	0.801886
C140	C	0.448371	0.480618	1.051886
C141	C	-0.464411	-0.905378	0.301841
C142	C	-0.214411	-0.655378	0.551841
C143	C	0.035589	-0.405378	0.801841
C144	C	0.285589	-0.155378	1.051841
C145	C	-0.534052	-0.905404	0.301849
C146	C	-0.284052	-0.655404	0.551849
C147	C	-0.034052	-0.405404	0.801849
C148	C	0.215948	-0.155404	1.051849
C149	C	-1.035822	-0.945663	0.261905
C150	C	-0.785822	-0.695663	0.511905
C151	C	-0.535822	-0.445663	0.761905
C152	C	-0.285822	-0.195663	1.011905
C153	C	-0.970386	-0.945639	0.261890
C154	C	-0.720386	-0.695639	0.511890
C155	C	-0.470386	-0.445639	0.761890
C156	C	-0.220386	-0.195639	1.011890
C157	C	-0.937690	-0.905540	0.301916
C158	C	-0.687690	-0.655540	0.551916
C159	C	-0.437690	-0.405540	0.801916
C160	C	-0.187690	-0.155540	1.051916
C161	C	-0.970435	-0.865451	0.341949
C162	C	-0.720435	-0.615451	0.591949
C163	C	-0.470435	-0.365451	0.841949
C164	C	-0.220435	-0.115451	1.091949
C165	C	-1.035869	-0.865471	0.341958
C166	C	-0.785869	-0.615471	0.591958
C167	C	-0.535869	-0.365471	0.841958
C168	C	-0.285869	-0.115471	1.091958
C169	C	-0.834001	-0.900532	0.358347
C170	C	-0.584001	-0.650532	0.608347
C171	C	-0.334001	-0.400532	0.858347
C172	C	-0.084001	-0.150532	1.108347
C173	C	-0.768568	-0.900516	0.358339
C174	C	-0.518568	-0.650516	0.608339
C175	C	-0.268568	-0.400516	0.858339
C176	C	-0.018568	-0.150516	1.108339
C177	C	-0.735869	-0.905474	0.301888
C178	C	-0.485869	-0.655474	0.551888
C179	C	-0.235869	-0.405474	0.801888
C180	C	0.014131	-0.155474	1.051888
C181	C	-0.768612	-0.910460	0.245444
C182	C	-0.518612	-0.660460	0.495444
C183	C	-0.268612	-0.410460	0.745444
C184	C	-0.018612	-0.160460	0.995444
C185	C	-0.834046	-0.910481	0.245453
C186	C	-0.584046	-0.660481	0.495453
C187	C	-0.334046	-0.410481	0.745453
C188	C	-0.084046	-0.160481	0.995453
C189	C	-0.866738	-0.905513	0.301911
C190	C	-0.616738	-0.655513	0.551911
C191	C	-0.366738	-0.405513	0.801911
C192	C	-0.116738	-0.155513	1.051911
C193	C	-0.632180	-0.945532	0.261839
C194	C	-0.382180	-0.695532	0.511839
C195	C	-0.132180	-0.445532	0.761839
C196	C	0.117820	-0.195532	1.011839
C197	C	-0.566744	-0.945504	0.261823
C198	C	-0.316744	-0.695504	0.511823
C199	C	-0.066744	-0.445504	0.761823
C200	C	0.183256	-0.195504	1.011823
C201	C	-0.566793	-0.865319	0.341888
C202	C	-0.316793	-0.615319	0.591888
C203	C	-0.066793	-0.365319	0.841888
C204	C	0.183207	-0.115319	1.091888
C205	C	-0.632229	-0.865343	0.341898
C206	C	-0.382229	-0.615343	0.591898
C207	C	-0.132229	-0.365343	0.841898
C208	C	0.117771	-0.115343	1.091898
C209	C	-0.664918	-0.905453	0.301874
C210	C	-0.414918	-0.655453	0.551874
C211	C	-0.164918	-0.405453	0.801874
C212	C	0.085082	-0.155453	1.051874
C213	C	-0.138200	-0.905542	0.301916
C214	C	0.111800	-0.655542	0.551916
C215	C	0.361800	-0.405542	0.801916
C216	C	0.611800	-0.155542	1.051916
C217	C	-0.068558	-0.905581	0.301934
C218	C	0.181442	-0.655581	0.551934
C219	C	0.431442	-0.405581	0.801934
C220	C	0.681442	-0.155581	1.051934
C221	C	-0.301610	-0.905504	0.465295
C222	C	-0.051610	-0.655504	0.715295
C223	C	0.198390	-0.405504	0.965295
C224	C	0.448390	-0.155504	1.215295
C225	C	-0.301605	-0.905526	0.534936
C226	C	-0.051605	-0.655526	0.784936
C227	C	0.198395	-0.405526	1.034936
C228	C	0.448395	-0.155526	1.284936
C229	C	-0.301596	-0.068875	0.301888
C230	C	-0.051596	0.181125	0.551888
C231	C	0.198404	0.431125	0.801888
C232	C	0.448404	0.681125	1.051888
C233	C	-0.301603	-0.138516	0.301887
C234	C	-0.051603	0.111484	0.551887
C235	C	0.198397	0.361484	0.801887
C236	C	0.448397	0.611484	1.051887
C237	C	-0.301590	-0.905436	0.139084
C238	C	-0.051590	-0.655436	0.389084
C239	C	0.198410	-0.405436	0.639084
C240	C	0.448410	-0.155436	0.889084
C241	C	-0.301419	-0.905535	0.069443
C242	C	-0.051419	-0.655535	0.319443
C243	C	0.198581	-0.405535	0.569443
C244	C	0.448581	-0.155535	0.819443
C245	C	-0.261521	-0.945620	0.567666
C246	C	-0.011521	-0.695620	0.817666
C247	C	0.238479	-0.445620	1.067666
C248	C	0.488479	-0.195620	1.317666
C249	C	-0.261494	-0.945619	0.633101
C250	C	-0.011494	-0.695619	0.883101
C251	C	0.238506	-0.445619	1.133101
C252	C	0.488506	-0.195619	1.383101
C253	C	-0.301562	-0.905531	0.665804
C254	C	-0.051562	-0.655531	0.915804
C255	C	0.198438	-0.405531	1.165804
C256	C	0.448438	-0.155531	1.415804
C257	C	-0.341649	-0.865429	0.633067
C258	C	-0.091649	-0.615429	0.883067
C259	C	0.158351	-0.365429	1.133067
C260	C	0.408351	-0.115429	1.383067
C261	C	-0.341670	-0.865426	0.567632
C262	C	-0.091670	-0.615426	0.817632
C263	C	0.158330	-0.365426	1.067632
C264	C	0.408330	-0.115426	1.317632
C265	C	-0.357979	-0.900558	0.769469
C266	C	-0.107979	-0.650558	1.019469
C267	C	0.142021	-0.400558	1.269469
C268	C	0.392021	-0.150558	1.519469
C269	C	-0.357959	-0.900565	0.834902
C270	C	-0.107959	-0.650565	1.084902
C271	C	0.142041	-0.400565	1.334902
C272	C	0.392041	-0.150565	1.584902
C273	C	-0.301496	-0.905534	0.867625
C274	C	-0.051496	-0.655534	1.117625
C275	C	0.198504	-0.405534	1.367625
C276	C	0.448504	-0.155534	1.617625
C277	C	-0.245052	-0.910511	0.834908
C278	C	0.004948	-0.660511	1.084908
C279	C	0.254948	-0.410511	1.334908
C280	C	0.504948	-0.160511	1.584908
C281	C	-0.245073	-0.910508	0.769474
C282	C	0.004927	-0.660508	1.019474
C283	C	0.254927	-0.410508	1.269474
C284	C	0.504927	-0.160508	1.519474
C285	C	-0.301543	-0.905528	0.736757
C286	C	-0.051543	-0.655528	0.986757
C287	C	0.198457	-0.405528	1.236757
C288	C	0.448457	-0.155528	1.486757
C289	C	-0.261380	-0.945630	0.971308
C290	C	-0.011380	-0.695630	1.221308
C291	C	0.238620	-0.445630	1.471308
C292	C	0.488620	-0.195630	1.721308
C293	C	-0.261352	-0.945624	1.036744
C294	C	-0.011352	-0.695624	1.286744
C295	C	0.238648	-0.445624	1.536744
C296	C	0.488648	-0.195624	1.786744
C297	C	-0.341512	-0.865438	1.036708
C298	C	-0.091512	-0.615438	1.286708
C299	C	0.158488	-0.365438	1.536708
C300	C	0.408488	-0.115438	1.786708
C301	C	-0.341534	-0.865440	0.971273
C302	C	-0.091534	-0.615440	1.221273
C303	C	0.158466	-0.365440	1.471273
C304	C	0.408466	-0.115440	1.721273
C305	C	-0.301469	-0.905539	0.938577
C306	C	-0.051469	-0.655539	1.188577
C307	C	0.198531	-0.405539	1.438577
C308	C	0.448531	-0.155539	1.688577
H309	H	-0.374196	-0.144490	0.229057
H310	H	-0.124196	0.105510	0.479057
H311	H	0.125804	0.355510	0.729057
H312	H	0.375804	0.605510	0.979057
F313	F	-0.219008	-0.136534	0.384754
F314	F	0.030992	0.113466	0.634754
F315	F	0.280992	0.363466	0.884754
F316	F	0.530992	0.613466	1.134754
F317	F	-0.219102	-0.675240	0.384733
F318	F	0.030898	-0.425240	0.634733
F319	F	0.280898	-0.175240	0.884733
F320	F	0.530898	0.074760	1.134733
H321	H	-0.374215	-0.263200	0.229049
H322	H	-0.124215	-0.013200	0.479049
H323	H	0.125785	0.236800	0.729049
H324	H	0.375785	0.486800	0.979049
F325	F	-0.218878	-0.988295	0.532872
F326	F	0.031122	-0.738295	0.782872
F327	F	0.281122	-0.488295	1.032872
F328	F	0.531122	-0.238295	1.282872
F329	F	-0.935637	-0.822773	0.384546
F330	F	-0.685637	-0.572773	0.634546
F331	F	-0.435637	-0.322773	0.884546
F332	F	-0.185637	-0.072773	1.134546
H333	H	-0.229080	-0.548338	0.374696
H334	H	0.020920	-0.298338	0.624696
H335	H	0.270920	-0.048338	0.874696
H336	H	0.520920	0.201662	1.124696
F337	F	-0.384259	-0.539933	0.218995
F338	F	-0.134259	-0.289933	0.468995
F339	F	0.115741	-0.039933	0.718995
F340	F	0.365741	0.210067	0.968995
H341	H	-0.860702	-0.914539	0.199494
H342	H	-0.610702	-0.664539	0.449494
H343	H	-0.360702	-0.414539	0.699494
H344	H	-0.110702	-0.164539	0.949494
H345	H	-0.741989	-0.914498	0.199477
H346	H	-0.491989	-0.664498	0.449477
H347	H	-0.241989	-0.414498	0.699477
H348	H	0.008011	-0.164498	0.949477
F349	F	-0.418161	-0.338125	0.291475
F350	F	-0.168161	-0.088125	0.541475
F351	F	0.081839	0.161875	0.791475
F352	F	0.331839	0.411875	1.041475
H353	H	-0.658883	-0.832706	0.374496
H354	H	-0.408883	-0.582706	0.624496
H355	H	-0.158883	-0.332706	0.874496
H356	H	0.091117	-0.082706	1.124496
H357	H	-0.199235	-0.346512	0.311032
H358	H	0.050765	-0.096512	0.561032
H359	H	0.300765	0.153488	0.811032
H360	H	0.550765	0.403488	1.061032
F361	F	-1.070608	-0.988350	0.219306
F362	F	-0.820608	-0.738350	0.469306
F363	F	-0.570608	-0.488350	0.719306
F364	F	-0.320608	-0.238350	0.969306
H365	H	-0.658797	-0.978191	0.229249
H366	H	-0.408797	-0.728191	0.479249
H367	H	-0.158797	-0.478191	0.729249
H368	H	0.091203	-0.228191	0.979249
H369	H	-0.374270	-0.832787	0.659698
H370	H	-0.124270	-0.582787	0.909698
H371	H	0.125730	-0.332787	1.159698
H372	H	0.375730	-0.082787	1.409698
F373	F	-0.384200	-0.822768	0.936438
F374	F	-0.134200	-0.572768	1.186438
F375	F	0.115800	-0.322768	1.436438
F376	F	0.365800	-0.072768	1.686438
F377	F	-0.418182	-0.473193	0.291453
F378	F	-0.168182	-0.223193	0.541453
F379	F	0.081818	0.026807	0.791453
F380	F	0.331818	0.276807	1.041453
F381	F	-0.532000	-0.822636	0.384480
F382	F	-0.282000	-0.572636	0.634480
F383	F	-0.032000	-0.322636	0.884480
F384	F	0.218000	-0.072636	1.134480
F385	F	-0.384277	-0.675008	0.218977
F386	F	-0.134277	-0.425008	0.468977
F387	F	0.115723	-0.175008	0.718977
F388	F	0.365723	0.074992	0.968977
H389	H	-0.199253	-0.465224	0.311027
H390	H	0.050747	-0.215224	0.561027
H391	H	0.300747	0.034776	0.811027
H392	H	0.550747	0.284776	1.061027
H393	H	-0.943727	-0.978280	0.229292
H394	H	-0.693727	-0.728280	0.479292
H395	H	-0.443727	-0.478280	0.729292
H396	H	-0.193727	-0.228280	0.979292
H397	H	-0.741912	-0.896460	0.404298
H398	H	-0.491912	-0.646460	0.654298
H399	H	-0.241912	-0.396460	0.904298
H400	H	0.008088	-0.146460	1.154298
F401	F	-0.418031	-0.895274	0.869716
F402	F	-0.168031	-0.645274	1.119716
F403	F	0.081969	-0.395274	1.369716
F404	F	0.331969	-0.145274	1.619716
F405	F	-0.531903	-0.988166	0.219215
F406	F	-0.281903	-0.738166	0.469215
F407	F	-0.031903	-0.488166	0.719215
F408	F	0.218097	-0.238166	0.969215
F409	F	-0.868795	-0.895187	0.418427
F410	F	-0.618795	-0.645187	0.668427
F411	F	-0.368795	-0.395187	0.918427
F412	F	-0.118795	-0.145187	1.168427
H413	H	-0.403946	-0.896343	0.742830
H414	H	-0.153946	-0.646343	0.992830
H415	H	0.096054	-0.396343	1.242830
H416	H	0.346054	-0.146343	1.492830
F417	F	-0.184955	-0.915803	0.869730
F418	F	0.065045	-0.665803	1.119730
F419	F	0.315045	-0.415803	1.369730
F420	F	0.565045	-0.165803	1.619730
F421	F	-0.384335	-0.822751	0.532798
F422	F	-0.134335	-0.572751	0.782798
F423	F	0.115665	-0.322751	1.032798
F424	F	0.365665	-0.072751	1.282798
H425	H	-0.229036	-0.263409	0.374716
H426	H	0.020964	-0.013409	0.624716
H427	H	0.270964	0.236591	0.874716
H428	H	0.520964	0.486591	1.124716
F429	F	-0.218820	-0.988284	0.667942
F430	F	0.031180	-0.738284	0.917942
F431	F	0.281180	-0.488284	1.167942
F432	F	0.531180	-0.238284	1.417942
H433	H	-0.199115	-0.914558	0.742838
H434	H	0.050885	-0.664558	0.992838
H435	H	0.300885	-0.414558	1.242838
H436	H	0.550885	-0.164558	1.492838
F437	F	-1.070711	-0.822810	0.384566
F438	F	-0.820711	-0.572810	0.634566
F439	F	-0.570711	-0.322810	0.884566
F440	F	-0.320711	-0.072810	1.134566
H441	H	-0.228753	-0.978277	0.944685
H442	H	0.021247	-0.728277	1.194685
H443	H	0.271247	-0.478277	1.444685
H444	H	0.521247	-0.228277	1.694685
F445	F	-0.218694	-0.988308	1.071578
F446	F	0.031306	-0.738308	1.321578
F447	F	0.281306	-0.488308	1.571578
F448	F	0.531306	-0.238308	1.821578
H449	H	-0.374130	-0.832791	1.063335
H450	H	-0.124130	-0.582791	1.313335
H451	H	0.125870	-0.332791	1.563335
H452	H	0.375870	-0.082791	1.813335
