data_functionalizedCrystal
_audit_creation_method	'MofGen! by Chris Wilmer'
_symmetry_space_group_name_H-M	'P1'
_symmetry_Int_Tables_number	1
_symmetry_cell_setting	triclinic
loop_
_symmetry_equiv_pos_as_xyz
  x,y,z
_cell_length_a	16.109318
_cell_length_b	12.811415
_cell_length_c	15.186229
_cell_angle_alpha	84.565396
_cell_angle_beta	90.000224
_cell_angle_gamma	83.757608
loop_
_atom_site_label
_atom_site_type_symbol
_atom_site_fract_x
_atom_site_fract_y
_atom_site_fract_z
O1	O	1.103618	0.134999	-0.083934
O2	O	1.353618	0.384999	0.166066
O3	O	1.603618	0.634999	0.416066
O4	O	1.853618	0.884999	0.666066
O5	O	0.861619	0.151769	-0.085291
O6	O	1.111619	0.401769	0.164709
O7	O	1.361619	0.651769	0.414709
O8	O	1.611619	0.901769	0.664709
O9	O	0.988707	-0.009410	-0.072407
O10	O	1.238707	0.240590	0.177593
O11	O	1.488707	0.490590	0.427593
O12	O	1.738707	0.740590	0.677593
O13	O	0.976531	0.296178	-0.096819
O14	O	1.226531	0.546178	0.153181
O15	O	1.476531	0.796178	0.403181
O16	O	1.726531	1.046178	0.653181
O17	O	0.988698	-0.009412	0.074051
O18	O	1.238698	0.240588	0.324051
O19	O	1.488698	0.490588	0.574051
O20	O	1.738698	0.740588	0.824051
O21	O	0.861611	0.151767	0.061166
O22	O	1.111611	0.401767	0.311166
O23	O	1.361611	0.651767	0.561166
O24	O	1.611611	0.901767	0.811166
O25	O	1.103609	0.134997	0.062523
O26	O	1.353609	0.384997	0.312523
O27	O	1.603609	0.634997	0.562523
O28	O	1.853609	0.884997	0.812523
Zn29	Zn	0.982609	0.143381	0.085098
Zn30	Zn	1.232609	0.393381	0.335098
Zn31	Zn	1.482609	0.643381	0.585098
Zn32	Zn	1.732609	0.893381	0.835098
Zn33	Zn	0.982620	0.143384	-0.107866
Zn34	Zn	1.232620	0.393384	0.142134
Zn35	Zn	1.482620	0.643384	0.392134
Zn36	Zn	1.732620	0.893384	0.642134
O37	O	0.976522	0.296176	0.049639
O38	O	1.226522	0.546176	0.299639
O39	O	1.476522	0.796176	0.549639
O40	O	1.726522	1.046176	0.799639
C41	C	0.830638	0.151086	-0.012010
C42	C	1.080638	0.401086	0.237990
C43	C	1.330638	0.651086	0.487990
C44	C	1.580638	0.901086	0.737990
C45	C	0.738336	0.149040	-0.011853
C46	C	0.988336	0.399040	0.238147
C47	C	1.238336	0.649040	0.488147
C48	C	1.488336	0.899040	0.738147
C49	C	0.439243	0.142432	-0.091144
C50	C	0.689243	0.392432	0.158856
C51	C	0.939243	0.642432	0.408856
C52	C	1.189243	0.892432	0.658856
C53	C	0.525971	0.144348	-0.091302
C54	C	0.775971	0.394348	0.158698
C55	C	1.025971	0.644348	0.408698
C56	C	1.275971	0.894348	0.658698
C57	C	0.525980	0.144331	0.068375
C58	C	0.775980	0.394331	0.318375
C59	C	1.025980	0.644331	0.568375
C60	C	1.275980	0.894331	0.818375
C61	C	0.439254	0.142408	0.068533
C62	C	0.689254	0.392408	0.318533
C63	C	0.939254	0.642408	0.568533
C64	C	1.189254	0.892408	0.818533
C65	C	0.395887	0.141464	-0.011229
C66	C	0.645887	0.391464	0.238771
C67	C	0.895887	0.641464	0.488771
C68	C	1.145887	0.891464	0.738771
C69	C	0.569342	0.145302	-0.011546
C70	C	0.819342	0.395302	0.238454
C71	C	1.069342	0.645302	0.488454
C72	C	1.319342	0.895302	0.738454
C73	C	0.663376	0.147379	-0.011717
C74	C	0.913376	0.397379	0.238283
C75	C	1.163376	0.647379	0.488283
C76	C	1.413376	0.897379	0.738283
C77	C	0.301847	0.139384	-0.011058
C78	C	0.551847	0.389384	0.238942
C79	C	0.801847	0.639384	0.488942
C80	C	1.051847	0.889384	0.738942
C81	C	0.988020	-0.048515	0.003944
C82	C	1.238020	0.201485	0.253944
C83	C	1.488020	0.451485	0.503944
C84	C	1.738020	0.701485	0.753944
C85	C	0.985977	-0.165033	0.013246
C86	C	1.235977	0.084967	0.263246
C87	C	1.485977	0.334967	0.513246
C88	C	1.735977	0.584967	0.763246
C89	C	0.982131	-0.383968	-0.128961
C90	C	1.232131	-0.133968	0.121039
C91	C	1.482131	0.116032	0.371039
C92	C	1.732131	0.366032	0.621039
C93	C	0.980211	-0.493446	-0.120225
C94	C	1.230211	-0.243446	0.129775
C95	C	1.480211	0.006554	0.379775
C96	C	1.730211	0.256554	0.629775
C97	C	0.980211	-0.493470	0.039452
C98	C	1.230211	-0.243470	0.289452
C99	C	1.480211	0.006530	0.539452
C100	C	1.730211	0.256530	0.789452
C101	C	0.982131	-0.383991	0.030717
C102	C	1.232131	-0.133991	0.280717
C103	C	1.482131	0.116009	0.530717
C104	C	1.732131	0.366009	0.780717
C105	C	0.983092	-0.329244	-0.053493
C106	C	1.233092	-0.079244	0.196507
C107	C	1.483092	0.170756	0.446507
C108	C	1.733092	0.420756	0.696507
C109	C	0.985018	-0.219764	-0.062228
C110	C	1.235018	0.030236	0.187772
C111	C	1.485018	0.280236	0.437772
C112	C	1.735018	0.530236	0.687772
C113	C	0.985012	-0.219789	0.097449
C114	C	1.235012	0.030211	0.347449
C115	C	1.485012	0.280211	0.597449
C116	C	1.735012	0.530211	0.847449
C117	C	0.983092	-0.329267	0.106185
C118	C	1.233092	-0.079267	0.356185
C119	C	1.483092	0.170733	0.606185
C120	C	1.733092	0.420733	0.856185
C121	C	1.134591	0.135680	-0.010760
C122	C	1.384591	0.385680	0.239240
C123	C	1.634591	0.635680	0.489240
C124	C	1.884591	0.885680	0.739240
C125	C	1.226893	0.137726	-0.010922
C126	C	1.476893	0.387726	0.239078
C127	C	1.726893	0.637726	0.489078
C128	C	1.976893	0.887726	0.739078
C129	C	0.977209	0.335281	-0.026714
C130	C	1.227209	0.585281	0.223286
C131	C	1.477209	0.835281	0.473286
C132	C	1.727209	1.085281	0.723286
C133	C	0.979252	0.451799	-0.036021
C134	C	1.229252	0.701799	0.213979
C135	C	1.479252	0.951799	0.463979
C136	C	1.729252	1.201799	0.713979
N137	N	0.982607	0.143379	0.216791
N138	N	1.232607	0.393379	0.466791
N139	N	1.482607	0.643379	0.716791
N140	N	1.732607	0.893379	0.966791
N141	N	0.982628	0.143379	-0.239558
N142	N	1.232628	0.393379	0.010442
N143	N	1.482628	0.643379	0.260442
N144	N	1.732628	0.893379	0.510442
C145	C	1.038901	0.072033	0.448217
C146	C	1.288901	0.322033	0.698217
C147	C	1.538901	0.572033	0.948217
C148	C	1.788901	0.822033	1.198217
C149	C	1.038903	0.072030	0.540407
C150	C	1.288903	0.322030	0.790407
C151	C	1.538903	0.572030	1.040407
C152	C	1.788903	0.822030	1.290407
C153	C	0.926329	0.214728	0.529009
C154	C	1.176329	0.464728	0.779009
C155	C	1.426329	0.714728	1.029009
C156	C	1.676329	0.964728	1.279009
C157	C	0.926323	0.214725	0.436821
C158	C	1.176323	0.464725	0.686821
C159	C	1.426323	0.714725	0.936821
C160	C	1.676323	0.964725	1.186821
C161	C	0.982613	0.143378	0.396428
C162	C	1.232613	0.393378	0.646428
C163	C	1.482613	0.643378	0.896428
C164	C	1.732613	0.893378	1.146428
C165	C	0.982622	0.143379	0.580805
C166	C	1.232622	0.393379	0.830805
C167	C	1.482622	0.643379	1.080805
C168	C	1.732622	0.893379	1.330805
C169	C	0.982624	0.143377	0.680762
C170	C	1.232624	0.393377	0.930762
C171	C	1.482624	0.643377	1.180762
C172	C	1.732624	0.893377	1.430762
C173	C	0.982610	0.143379	0.296465
C174	C	1.232610	0.393379	0.546465
C175	C	1.482610	0.643379	0.796465
C176	C	1.732610	0.893379	1.046465
H177	H	0.561300	0.145101	0.133314
H178	H	0.811300	0.395101	0.383314
H179	H	1.061300	0.645101	0.633314
H180	H	1.311300	0.895101	0.883314
H181	H	0.561267	0.145135	-0.156377
H182	H	0.811267	0.395135	0.093623
H183	H	1.061267	0.645135	0.343623
H184	H	1.311267	0.895135	0.593623
F185	F	0.866425	0.290660	0.572005
F186	F	1.116425	0.540660	0.822005
F187	F	1.366425	0.790660	1.072005
F188	F	1.616425	1.040660	1.322005
H189	H	0.403954	0.141618	0.133613
H190	H	0.653954	0.391618	0.383613
H191	H	0.903954	0.641618	0.633613
H192	H	1.153954	0.891618	0.883613
H193	H	1.084735	0.013936	0.415331
H194	H	1.334735	0.263936	0.665331
H195	H	1.584735	0.513936	0.915331
H196	H	1.834735	0.763936	1.165331
F197	F	0.983165	-0.325701	-0.218581
F198	F	1.233165	-0.075701	0.031419
F199	F	1.483165	0.174299	0.281419
F200	F	1.733165	0.424299	0.531419
H201	H	0.985797	-0.175222	0.158901
H202	H	1.235797	0.074778	0.408901
H203	H	1.485797	0.324778	0.658901
H204	H	1.735797	0.574778	0.908901
F205	F	1.098810	-0.003908	0.595523
F206	F	1.348810	0.246092	0.845523
F207	F	1.598810	0.496092	1.095523
F208	F	1.848810	0.746092	1.345523
F209	F	0.986044	-0.161501	-0.151850
F210	F	1.236044	0.088499	0.098150
F211	F	1.486044	0.338499	0.348150
F212	F	1.736044	0.588499	0.598150
F213	F	0.982062	-0.387543	0.195801
F214	F	1.232062	-0.137543	0.445801
F215	F	1.482062	0.112457	0.695801
F216	F	1.732062	0.362457	0.945801
H217	H	0.979426	-0.537998	-0.181679
H218	H	1.229426	-0.287998	0.068321
H219	H	1.479426	-0.037998	0.318321
H220	H	1.729426	0.212002	0.568321
H221	H	0.979421	-0.538063	0.108012
H222	H	1.229421	-0.288063	0.358012
H223	H	1.479421	-0.038063	0.608012
H224	H	1.729421	0.211937	0.858012
F225	F	0.866408	0.290661	0.381699
F226	F	1.116408	0.540661	0.631699
F227	F	1.366408	0.790661	0.881699
F228	F	1.616408	1.040661	1.131699
H229	H	0.403936	0.141662	-0.156091
H230	H	0.653936	0.391662	0.093909
H231	H	0.903936	0.641662	0.343909
H232	H	1.153936	0.891662	0.593909
