data_functionalizedCrystal
_audit_creation_method	'MofGen! by Chris Wilmer'
_symmetry_space_group_name_H-M	'P1'
_symmetry_Int_Tables_number	1
_symmetry_cell_setting	triclinic
loop_
_symmetry_equiv_pos_as_xyz
  x,y,z
_cell_length_a	18.050590
_cell_length_b	19.121063
_cell_length_c	18.050582
_cell_angle_alpha	92.415032
_cell_angle_beta	90.000767
_cell_angle_gamma	92.457501
loop_
_atom_site_label
_atom_site_type_symbol
_atom_site_fract_x
_atom_site_fract_y
_atom_site_fract_z
Zn1	Zn	1.122670	-0.279861	-0.432210
Zn2	Zn	1.117284	-0.397304	-0.313312
Zn3	Zn	0.998490	-0.279849	-0.308068
Zn4	Zn	0.993143	-0.397253	-0.437492
O5	O	1.057897	-0.338567	-0.372771
O6	O	1.225879	-0.295466	-0.416422
O7	O	1.101510	-0.381740	-0.208692
O8	O	1.019455	-0.181567	-0.320131
O9	O	1.221922	-0.381751	-0.329068
O10	O	1.110690	-0.181575	-0.411338
O11	O	1.014232	-0.295447	-0.204840
O12	O	0.893857	-0.295397	-0.325252
O13	O	1.010342	-0.381664	-0.540715
O14	O	0.889929	-0.381653	-0.420339
O15	O	1.105505	-0.295416	-0.536835
O16	O	1.096325	-0.495582	-0.334189
O17	O	1.005119	-0.495544	-0.425424
C18	C	0.864947	-0.338519	-0.372800
C19	C	0.782401	-0.338515	-0.372831
C20	C	0.580830	-0.385555	-0.424428
C21	C	0.534325	-0.321516	-0.439818
C22	C	0.631269	-0.338554	-0.372797
C23	C	0.530691	-0.402631	-0.357408
C24	C	0.485282	-0.338598	-0.372765
C25	C	0.585853	-0.274481	-0.388221
C26	C	0.582221	-0.355639	-0.305781
C27	C	0.535741	-0.291555	-0.321143
C28	C	0.715369	-0.338530	-0.372817
C29	C	0.401185	-0.338615	-0.372745
C30	C	1.049577	-0.521047	-0.380965
C31	C	1.046086	-0.599112	-0.384495
C32	C	1.091969	-0.635784	-0.338692
C33	C	1.088690	-0.709135	-0.342017
C34	C	1.039524	-0.745813	-0.391142
C35	C	0.993639	-0.709136	-0.436950
C36	C	0.996922	-0.635787	-0.433628
C37	C	1.027236	-0.967282	-0.403548
C38	C	1.023954	-1.040637	-0.406865
C39	C	1.119007	-1.040631	-0.311933
C40	C	1.122282	-0.967280	-0.308612
C41	C	1.076401	-0.930609	-0.354423
C42	C	1.036169	-0.820790	-0.394539
C43	C	1.079759	-0.855634	-0.351028
C44	C	1.251600	-0.338615	-0.372741
C45	C	1.334145	-0.338636	-0.372728
C46	C	1.057928	-0.338536	-0.566475
C47	C	1.057941	-0.338522	-0.649020
C48	C	1.066269	-0.155374	-0.364560
C49	C	1.069837	-0.077309	-0.361062
C50	C	1.006232	-0.385360	-0.850578
C51	C	1.073212	-0.402540	-0.900725
C52	C	1.057980	-0.338469	-0.800148
C53	C	0.991037	-0.321269	-0.897082
C54	C	1.058011	-0.338418	-0.946131
C55	C	1.124994	-0.355683	-0.849209
C56	C	1.042775	-0.274382	-0.845561
C57	C	1.109803	-0.291538	-0.895684
C58	C	1.057960	-0.338500	-0.716051
C59	C	1.058038	-0.338387	-1.030226
C60	C	1.057912	-0.338547	-0.179818
C61	C	1.058052	-0.338363	-0.097264
H62	H	0.603300	-0.370095	-0.249138
H63	H	0.989876	-0.937431	-0.440848
O64	O	0.501772	-0.467218	-0.341927
C65	C	0.391063	-0.539400	-0.323833
C66	C	0.423713	-0.466226	-0.341382
H67	H	0.327948	-0.538618	-0.323371
H68	H	0.409466	-0.579412	-0.367928
H69	H	0.411612	-0.554330	-0.267150
H70	H	0.403178	-0.451230	-0.398045
H71	H	0.405314	-0.426257	-0.297242
H72	H	0.953610	-0.739005	-0.476951
O73	O	1.192617	-0.373074	-0.824334
C74	C	1.316509	-0.404983	-0.856938
C75	C	1.239970	-0.385279	-0.885210
H76	H	1.354810	-0.414871	-0.906142
H77	H	1.341255	-0.360277	-0.819752
H78	H	1.310104	-0.454442	-0.823982
H79	H	1.246311	-0.335838	-0.918198
H80	H	1.215251	-0.430026	-0.922357
H81	H	1.119793	-0.825769	-0.311034
H82	H	1.153627	-0.251862	-0.915421
O83	O	0.952279	-0.600270	-0.478152
C84	C	0.857695	-0.608013	-0.572702
C85	C	0.908195	-0.648321	-0.522302
H86	H	0.822051	-0.646844	-0.608421
H87	H	0.820368	-0.573730	-0.537071
H88	H	0.893324	-0.573614	-0.609965
H89	H	0.872624	-0.682757	-0.485031
H90	H	0.945526	-0.682559	-0.557977
H91	H	1.029875	-0.220222	-0.821409
O92	O	1.139793	-0.600267	-0.290951
C93	C	1.233693	-0.608011	-0.197112
C94	C	1.179576	-0.648319	-0.251157
H95	H	1.265861	-0.646843	-0.164912
H96	H	1.274091	-0.573646	-0.229639
H97	H	1.201145	-0.573695	-0.156735
H98	H	1.212062	-0.682672	-0.291545
H99	H	1.139178	-0.682639	-0.218581
O100	O	0.923426	-0.304016	-0.922117
C101	C	0.792463	-0.334023	-0.927713
C102	C	0.868985	-0.353625	-0.899302
H103	H	0.748429	-0.374129	-0.909292
H104	H	0.779000	-0.279814	-0.904087
H105	H	0.793320	-0.333639	-0.990846
H106	H	0.868185	-0.354049	-0.836173
H107	H	0.882417	-0.407822	-0.922984
O108	O	0.509066	-0.304270	-0.507355
C109	C	0.402471	-0.284437	-0.582799
C110	C	0.430975	-0.303954	-0.506274
H111	H	0.339332	-0.284190	-0.581956
H112	H	0.426022	-0.230198	-0.596348
H113	H	0.420964	-0.324528	-0.626768
H114	H	0.412493	-0.263911	-0.462255
H115	H	0.407429	-0.358211	-0.492789
H116	H	0.996136	-0.850661	-0.434535
H117	H	0.600702	-0.425233	-0.468135
O118	O	1.133205	-0.744888	-0.297592
C119	C	1.139732	-0.827890	-0.201236
C120	C	1.089195	-0.787424	-0.251448
H121	H	1.104170	-0.862279	-0.163905
H122	H	1.176925	-0.862181	-0.237009
H123	H	1.175520	-0.789124	-0.165584
H124	H	1.053360	-0.826139	-0.287109
H125	H	1.052051	-0.753122	-0.215632
O126	O	0.614654	-0.209886	-0.403838
C127	C	0.725251	-0.137384	-0.421330
C128	C	0.692732	-0.210571	-0.403649
H129	H	0.788381	-0.137909	-0.421167
H130	H	0.705162	-0.122730	-0.478279
H131	H	0.706276	-0.097313	-0.377576
H132	H	0.711693	-0.250690	-0.447355
H133	H	0.712817	-0.225165	-0.346679
H134	H	0.516012	-0.251781	-0.277465
O135	O	1.163661	-1.076282	-0.267550
C136	C	1.260210	-1.159063	-0.261382
C137	C	1.209688	-1.118722	-0.311729
H138	H	1.297425	-1.193397	-0.297080
H139	H	1.295968	-1.120277	-0.225720
H140	H	1.224596	-1.193417	-0.224063
H141	H	1.245245	-1.084366	-0.349093
H142	H	1.173926	-1.157546	-0.347340
O143	O	0.954148	-0.432820	-0.826903
C144	C	0.911351	-0.553984	-0.828282
C145	C	0.970390	-0.500312	-0.855133
H146	H	0.924453	-0.608561	-0.851107
H147	H	0.911461	-0.553270	-0.765097
H148	H	0.854395	-0.539842	-0.848808
H149	H	1.027375	-0.514417	-0.834661
H150	H	0.970214	-0.501035	-0.918317
H151	H	1.086091	-0.456716	-0.924860
O152	O	1.170115	-0.931761	-0.260880
C153	C	1.264026	-0.939498	-0.167050
C154	C	1.209902	-0.979810	-0.221085
H155	H	1.296198	-0.978328	-0.134851
H156	H	1.304421	-0.905137	-0.199586
H157	H	1.231484	-0.905179	-0.126673
H158	H	1.242383	-1.014168	-0.261475
H159	H	1.169507	-1.014127	-0.188502
O160	O	0.976178	-1.076159	-0.454657
C161	C	0.882224	-1.068429	-0.548446
C162	C	0.936305	-1.028113	-0.494372
H163	H	0.849962	-1.029602	-0.580559
H164	H	0.914732	-1.102709	-0.588895
H165	H	0.841904	-1.102830	-0.515873
H166	H	0.976638	-0.993674	-0.526883
H167	H	0.903750	-0.993878	-0.453923
