data_functionalizedCrystal
_audit_creation_method	'MofGen! by Chris Wilmer'
_symmetry_space_group_name_H-M	'P1'
_symmetry_Int_Tables_number	1
_symmetry_cell_setting	triclinic
loop_
_symmetry_equiv_pos_as_xyz
  x,y,z
_cell_length_a	23.532356
_cell_length_b	11.026660
_cell_length_c	9.482900
_cell_angle_alpha	78.636107
_cell_angle_beta	80.718511
_cell_angle_gamma	84.293704
loop_
_atom_site_label
_atom_site_type_symbol
_atom_site_fract_x
_atom_site_fract_y
_atom_site_fract_z
O1	O	-0.231208	1.626179	-0.120825
O2	O	-0.204088	1.273214	-0.120834
O3	O	-0.135836	1.460376	-0.120850
O4	O	-0.299460	1.439017	-0.120809
O5	O	-0.149770	1.422358	0.120946
O6	O	-0.218022	1.235196	0.120961
O7	O	-0.245143	1.588161	0.120971
Cu8	Cu	-0.232855	1.408207	0.143044
Cu9	Cu	-0.216375	1.453168	-0.142907
O10	O	-0.313395	1.400999	0.120986
C11	C	-0.206052	1.209057	0.000062
C12	C	-0.191136	1.074530	0.000056
C13	C	-0.216909	0.861169	0.000058
C14	C	-0.232326	1.000209	0.000065
C15	C	-0.327700	1.420541	0.000094
C16	C	-0.391089	1.422144	0.000109
C17	C	-0.776563	1.452960	-0.131764
C18	C	-0.836122	1.454488	-0.131771
O19	O	-0.860469	1.472943	-0.243863
N20	N	-0.873506	1.434522	0.000031
C21	C	-0.851329	1.413038	0.131848
O22	O	-0.888595	1.396197	0.243955
C23	C	-0.791770	1.411520	0.131854
C24	C	-0.754389	1.431475	0.000043
C25	C	-0.739182	1.472915	-0.263563
C26	C	-0.679626	1.471385	-0.263556
C27	C	-0.657452	1.449900	-0.131749
C28	C	-0.694833	1.429945	0.000051
C29	C	-0.769594	1.390046	0.263669
C30	C	-0.710031	1.388529	0.263664
C31	C	-0.672649	1.408485	0.131853
C32	C	-0.613103	1.406930	0.131866
N33	N	-0.575719	1.426896	0.000064
C34	C	-0.597894	1.448381	-0.131743
C35	C	-0.976404	1.416232	0.131826
C36	C	-1.035961	1.417741	0.131823
C37	C	-1.020751	1.459193	-0.131797
C38	C	-0.961193	1.457674	-0.131791
C39	C	-0.939020	1.436198	0.000025
C40	C	-0.472823	1.445166	-0.131717
C41	C	-0.413263	1.443629	-0.131698
C42	C	-0.428478	1.402184	0.131921
C43	C	-0.488033	1.403714	0.131902
C44	C	-0.510204	1.425211	0.000072
O45	O	-0.588716	1.388488	0.243901
O46	O	-0.560621	1.465236	-0.243831
C47	C	-0.121530	1.440834	0.000040
C48	C	-0.058141	1.439233	0.000014
C49	C	-0.243178	1.652318	0.000072
C50	C	-0.258093	1.786847	0.000067
N51	N	-0.244446	1.376593	0.344167
N52	N	-0.204781	1.484791	-0.344030
C53	C	-0.219790	1.443834	0.416360
C54	C	-0.229440	1.417540	0.583780
H55	H	-0.304766	0.826150	0.000088
H56	H	-0.176524	1.561826	0.593839
H57	H	-0.382828	1.459875	-0.239038
N58	N	-0.281866	1.274542	0.426456
H59	H	-0.283454	1.270221	0.534391
H60	H	-0.322129	1.292423	0.399937
N61	N	-0.182366	1.545869	0.334041
H62	H	-0.199159	1.627749	0.360423
H63	H	-0.142091	1.527936	0.360472
H64	H	-0.170238	0.821861	0.000068
N65	N	-0.266862	1.315483	0.666064
H66	H	-0.268449	1.311163	0.773999
H67	H	-0.307125	1.333364	0.639545
H68	H	-0.930760	1.473921	-0.239123
N69	N	-0.294155	1.052248	0.000093
H70	H	-0.296404	1.144196	0.000097
H71	H	-0.308540	1.037716	-0.089540
H72	H	-0.144455	1.035248	-0.000052
H73	H	-0.490867	1.462672	-0.239066
H74	H	-0.649195	1.487643	-0.370889
H75	H	-1.038816	1.476683	-0.239122
N76	N	-0.763092	1.496094	-0.405738
H77	H	-0.730366	1.508504	-0.489218
H78	H	-0.784386	1.422484	-0.411492
H79	H	-1.066392	1.401469	0.239156
H80	H	-0.800021	1.373808	0.371004
N81	N	-0.952492	1.393058	0.274008
H82	H	-0.985215	1.380640	0.357493
H83	H	-0.925029	1.316381	0.279758
H84	H	-0.691982	1.371041	0.371007
H85	H	-0.518469	1.387417	0.239233
H86	H	-0.410413	1.384686	0.239235
