data_functionalizedCrystal
_audit_creation_method	'MofGen! by Chris Wilmer'
_symmetry_space_group_name_H-M	'P1'
_symmetry_Int_Tables_number	1
_symmetry_cell_setting	triclinic
loop_
_symmetry_equiv_pos_as_xyz
  x,y,z
_cell_length_a	19.288864
_cell_length_b	15.944493
_cell_length_c	18.366186
_cell_angle_alpha	89.999635
_cell_angle_beta	89.977106
_cell_angle_gamma	83.305646
loop_
_atom_site_label
_atom_site_type_symbol
_atom_site_fract_x
_atom_site_fract_y
_atom_site_fract_z
O1	O	0.921611	0.104786	-0.060774
O2	O	1.421611	0.604786	0.439226
O3	O	0.719385	0.118922	-0.060723
O4	O	1.219385	0.618922	0.439277
O5	O	0.826041	-0.010445	-0.060756
O6	O	1.326041	0.489555	0.439244
O7	O	0.814954	0.234154	-0.060741
O8	O	1.314954	0.734154	0.439259
O9	O	0.826023	-0.010452	0.060344
O10	O	1.326023	0.489548	0.560344
O11	O	0.719367	0.118916	0.060377
O12	O	1.219367	0.618916	0.560377
O13	O	0.921593	0.104780	0.060326
O14	O	1.421593	0.604780	0.560326
Zn15	Zn	0.820477	0.111847	0.079578
Zn16	Zn	1.320477	0.611847	0.579578
Zn17	Zn	0.820501	0.111855	-0.079975
Zn18	Zn	1.320501	0.611855	0.420025
O19	O	0.814936	0.234147	0.060358
O20	O	1.314936	0.734147	0.560358
C21	C	0.693498	0.118464	-0.000167
C22	C	1.193498	0.618464	0.499833
C23	C	0.616391	0.117099	-0.000148
C24	C	1.116391	0.617099	0.499852
C25	C	0.571882	0.193005	-0.000155
C26	C	1.071882	0.693005	0.499845
C27	C	0.499432	0.191723	-0.000163
C28	C	0.999432	0.691723	0.499837
C29	C	0.471494	0.114529	-0.000179
C30	C	0.971494	0.614529	0.499821
C31	C	0.516013	0.038612	-0.000168
C32	C	1.016013	0.538612	0.499832
C33	C	0.588462	0.039897	-0.000152
C34	C	1.088462	0.539897	0.499848
C35	C	0.363089	0.053848	-0.042633
C36	C	0.863089	0.553848	0.457367
C37	C	0.290641	0.052566	-0.042653
C38	C	0.790641	0.552566	0.457347
C39	C	0.248039	0.110563	-0.000223
C40	C	0.748039	0.610563	0.499777
C41	C	0.277891	0.169855	0.042218
C42	C	0.777891	0.669855	0.542218
C43	C	0.350340	0.171140	0.042233
C44	C	0.850340	0.671140	0.542233
C45	C	0.392937	0.113127	-0.000195
C46	C	0.892937	0.613127	0.499805
C47	C	0.124970	0.185084	-0.000238
C48	C	0.624970	0.685084	0.499762
C49	C	0.052519	0.183798	-0.000241
C50	C	0.552519	0.683798	0.499759
C51	C	0.069102	0.030685	-0.000254
C52	C	0.569102	0.530685	0.499746
C53	C	0.141552	0.031973	-0.000243
C54	C	0.641552	0.531973	0.499757
C55	C	0.169481	0.109175	-0.000238
C56	C	0.669481	0.609175	0.499762
C57	C	0.825579	-0.041742	-0.000209
C58	C	1.325579	0.458258	0.499791
C59	C	0.824220	-0.134985	-0.000218
C60	C	1.324220	0.365015	0.499782
C61	C	0.887001	-0.370987	-0.000220
C62	C	1.387001	0.129013	0.499780
C63	C	0.853155	-0.421421	-0.059919
C64	C	1.353155	0.078579	0.440081
C65	C	0.821703	-0.305696	-0.000208
C66	C	1.321703	0.194304	0.499792
C67	C	0.853122	-0.421403	0.059475
C68	C	1.353122	0.078597	0.559475
C69	C	0.819277	-0.470596	-0.000196
C70	C	1.319277	0.029404	0.499804
C71	C	0.787875	-0.354903	-0.059957
C72	C	1.287875	0.145097	0.440043
C73	C	0.787851	-0.354881	0.059491
C74	C	1.287851	0.145119	0.559491
C75	C	0.753957	-0.405283	-0.000223
C76	C	1.253957	0.094717	0.499777
C77	C	0.823103	-0.210702	-0.000216
C78	C	1.323103	0.289298	0.499784
C79	C	0.817872	-0.565588	-0.000194
C80	C	1.317872	-0.065588	0.499806
C81	C	0.947479	0.105238	-0.000232
C82	C	1.447479	0.605238	0.499768
C83	C	1.024586	0.106603	-0.000256
C84	C	1.524586	0.606603	0.499744
C85	C	0.815399	0.265444	-0.000190
C86	C	1.315399	0.765444	0.499810
C87	C	0.816757	0.358687	-0.000186
C88	C	1.316757	0.858687	0.499814
N89	N	0.820466	0.111841	0.188469
N90	N	1.320466	0.611841	0.688469
N91	N	0.820517	0.111855	-0.188867
N92	N	1.320517	0.611855	0.311133
C93	C	0.867708	0.054585	0.226555
C94	C	1.367708	0.554585	0.726555
C95	C	0.867713	0.054581	0.302783
C96	C	1.367713	0.554581	0.802783
C97	C	0.820481	0.111848	0.340922
C98	C	1.320481	0.611848	0.840922
C99	C	0.773229	0.169108	0.302827
C100	C	1.273229	0.669108	0.802827
C101	C	0.773221	0.169104	0.226601
C102	C	1.273221	0.669104	0.726601
C103	C	0.811371	0.188383	0.461688
C104	C	1.311371	0.688383	0.961688
C105	C	0.811384	0.188388	0.537913
C106	C	1.311384	0.688388	1.037913
C107	C	0.820501	0.111858	0.576030
C108	C	1.320501	0.611858	1.076030
C109	C	0.829620	0.035321	0.537911
C110	C	1.329620	0.535321	1.037911
C111	C	0.829612	0.035317	0.461685
C112	C	1.329612	0.535317	0.961685
C113	C	0.820484	0.111857	0.423577
C114	C	1.320484	0.611857	0.923577
C115	C	0.867751	0.054594	0.696770
C116	C	1.367751	0.554594	1.196770
C117	C	0.867751	0.054589	0.773000
C118	C	1.367751	0.554589	1.273000
C119	C	0.773270	0.169123	0.773042
C120	C	1.273270	0.669123	1.273042
C121	C	0.773267	0.169120	0.696814
C122	C	1.273267	0.669120	1.196814
C123	C	0.820511	0.111857	0.658683
C124	C	1.320511	0.611857	1.158683
H125	H	0.243205	0.217081	0.076769
H126	H	0.743205	0.717081	0.576769
H127	H	0.837035	-0.027002	0.430652
H128	H	1.337035	0.472998	0.930652
C129	C	0.890374	-0.460632	0.127656
C130	C	1.390374	0.039368	0.627656
H131	H	0.858460	-0.488243	0.155784
H132	H	1.358460	0.011757	0.655784
H133	H	0.907215	-0.417432	0.155954
H134	H	1.407215	0.082568	0.655954
H135	H	0.928429	-0.500437	0.113287
H136	H	1.428429	-0.000437	0.613287
H137	H	0.760291	-0.325817	0.109979
H138	H	1.260291	0.174183	0.609979
C139	C	0.602604	0.277921	-0.000146
C140	C	1.102604	0.777921	0.499854
H141	H	0.652127	0.267818	-0.000142
H142	H	1.152127	0.767818	0.499858
H143	H	0.587300	0.309168	0.042081
H144	H	1.087300	0.809168	0.542081
H145	H	0.587348	0.309161	-0.042384
H146	H	1.087348	0.809161	0.457616
C147	C	0.409949	-0.009952	-0.089307
C148	C	0.909949	0.490048	0.410693
H149	H	0.457372	-0.000702	-0.083214
H150	H	0.957372	0.499298	0.416786
H151	H	0.397305	-0.002779	-0.139094
H152	H	0.897305	0.497221	0.360906
H153	H	0.404085	-0.065740	-0.074391
H154	H	0.904085	0.434260	0.425609
H155	H	0.880738	-0.450470	-0.110406
H156	H	1.380738	0.049530	0.389594
C157	C	0.919667	-0.008411	0.184615
C158	C	1.419667	0.491589	0.684615
H159	H	0.947800	-0.042517	0.218219
H160	H	1.447800	0.457483	0.718219
H161	H	0.948571	0.021711	0.154858
H162	H	1.448571	0.521711	0.654858
H163	H	0.894680	-0.043307	0.154898
H164	H	1.394680	0.456693	0.654898
C165	C	0.637424	-0.043604	-0.000153
C166	C	1.137424	0.456396	0.499847
H167	H	0.610412	-0.089764	-0.000168
H168	H	1.110412	0.410236	0.499832
H169	H	0.666012	-0.046289	0.042079
H170	H	1.166012	0.453711	0.542079
H171	H	0.666050	-0.046279	-0.042387
H172	H	1.166050	0.453721	0.457613
C173	C	0.485285	-0.046299	-0.000190
C174	C	0.985285	0.453701	0.499810
H175	H	0.435762	-0.036193	-0.000208
H176	H	0.935762	0.463807	0.499792
H177	H	0.500538	-0.077548	0.042040
H178	H	1.000538	0.422452	0.542040
H179	H	0.500591	-0.077537	-0.042425
H180	H	1.000591	0.422463	0.457575
C181	C	0.839643	-0.048867	0.579828
C182	C	1.339643	0.451133	1.079828
H183	H	0.838333	-0.037907	0.630685
H184	H	1.338333	0.462093	1.130685
H185	H	0.883451	-0.078960	0.567318
H186	H	1.383451	0.421040	1.067318
H187	H	0.803318	-0.081665	0.567352
H188	H	1.303318	0.418335	1.067352
H189	H	0.943246	-0.355575	-0.000294
H190	H	1.443246	0.144425	0.499706
H191	H	0.906185	0.007955	0.333798
H192	H	1.406185	0.507955	0.833798
C193	C	0.750666	-0.315832	-0.128221
C194	C	1.250666	0.184168	0.371779
H195	H	0.751794	-0.256424	-0.127822
H196	H	1.251794	0.243576	0.372178
H197	H	0.703554	-0.327767	-0.128385
H198	H	1.203554	0.172233	0.371615
H199	H	0.773711	-0.339192	-0.170573
H200	H	1.273711	0.160808	0.329427
C201	C	0.003555	0.267298	-0.000249
C202	C	0.503555	0.767298	0.499751
H203	H	-0.043594	0.255478	-0.000251
H204	H	0.456406	0.755478	0.499749
H205	H	0.012044	0.298960	-0.042478
H206	H	0.512044	0.798960	0.457522
H207	H	0.011999	0.298964	0.041988
H208	H	0.511999	0.798964	0.541988
C209	C	0.919709	-0.008401	0.654823
C210	C	1.419709	0.491599	1.154823
H211	H	0.947839	-0.042511	0.688426
H212	H	1.447839	0.457489	1.188426
H213	H	0.948615	0.021724	0.625071
H214	H	1.448615	0.521724	1.125071
H215	H	0.894722	-0.043293	0.625102
H216	H	1.394722	0.456707	1.125102
C217	C	0.721314	0.232116	0.814983
C218	C	1.221314	0.732116	1.314983
H219	H	0.693175	0.266215	0.781379
H220	H	1.193175	0.766215	1.281379
H221	H	0.746295	0.267007	0.844705
H222	H	1.246295	0.767007	1.344705
H223	H	0.692407	0.201984	0.844733
H224	H	1.192407	0.701984	1.344733
C225	C	0.919722	-0.008395	0.814894
C226	C	1.419722	0.491605	1.314894
H227	H	0.947860	-0.042491	0.781264
H228	H	1.447860	0.457509	1.281264
H229	H	0.894751	-0.043289	0.844645
H230	H	1.394751	0.456711	1.344645
H231	H	0.948630	0.021746	0.844613
H232	H	1.448630	0.521746	1.344613
C233	C	0.677919	-0.425893	-0.000246
C234	C	1.177919	0.074107	0.499754
H235	H	0.654840	-0.402898	-0.042693
H236	H	1.154840	0.097102	0.457307
H237	H	0.654560	-0.402099	0.041772
H238	H	1.154560	0.097901	0.541772
H239	H	0.677452	-0.485404	0.000151
H240	H	1.177452	0.014596	0.500151
C241	C	0.721307	0.232111	0.654918
C242	C	1.221307	0.732111	1.154918
H243	H	0.693181	0.266223	0.688548
H244	H	1.193181	0.766223	1.188548
H245	H	0.692397	0.201985	0.625197
H246	H	1.192397	0.701985	1.125197
H247	H	0.746290	0.267003	0.625170
H248	H	1.246290	0.767003	1.125170
C249	C	0.801354	0.272572	0.579840
C250	C	1.301354	0.772572	1.079840
H251	H	0.802673	0.261615	0.630696
H252	H	1.302673	0.761615	1.130696
H253	H	0.757541	0.302655	0.567371
H254	H	1.257541	0.802655	1.067371
H255	H	0.837673	0.305377	0.567325
H256	H	1.337673	0.805377	1.067325
C257	C	0.450459	0.275221	-0.000174
C258	C	0.950459	0.775221	0.499826
H259	H	0.403312	0.263397	-0.000179
H260	H	0.903312	0.763397	0.499821
H261	H	0.458950	0.306885	-0.042401
H262	H	0.958950	0.806885	0.457599
H263	H	0.458899	0.306888	0.042065
H264	H	0.958899	0.806888	0.542065
C265	C	0.383176	0.236348	0.088921
C266	C	0.883176	0.736348	0.588921
H267	H	0.347433	0.270703	0.114194
H268	H	0.847433	0.770703	0.614194
H269	H	0.407786	0.270767	0.058345
H270	H	0.907786	0.770767	0.558345
H271	H	0.414562	0.207796	0.123041
H272	H	0.914562	0.707796	0.623041
C273	C	0.155696	0.270000	-0.000225
C274	C	0.655696	0.770000	0.499775
H275	H	0.118808	0.315026	-0.000220
H276	H	0.618808	0.815026	0.499780
H277	H	0.183635	0.273687	-0.042451
H278	H	0.683635	0.773687	0.457549
H279	H	0.183591	0.273680	0.042015
H280	H	0.683591	0.773680	0.542015
C281	C	0.801347	0.272571	0.419768
C282	C	1.301347	0.772571	0.919768
H283	H	0.795929	0.318153	0.453385
H284	H	1.295929	0.818153	0.953385
H285	H	0.760903	0.274401	0.390051
H286	H	1.260903	0.774401	0.890051
H287	H	0.841037	0.277102	0.390014
H288	H	1.341037	0.777102	0.890014
C289	C	0.721278	0.232101	0.344777
C290	C	1.221278	0.732101	0.844777
H291	H	0.728053	0.223910	0.395630
H292	H	1.228053	0.723910	0.895630
H293	H	0.674923	0.223122	0.332312
H294	H	1.174923	0.723122	0.832312
H295	H	0.728814	0.288142	0.332275
H296	H	1.228814	0.788142	0.832275
C297	C	0.038383	-0.054229	-0.000268
C298	C	0.538383	0.445771	0.499732
H299	H	0.075271	-0.099254	-0.000258
H300	H	0.575271	0.400746	0.499742
H301	H	0.010486	-0.057914	-0.042501
H302	H	0.510486	0.442086	0.457499
H303	H	0.010445	-0.057912	0.041964
H304	H	0.510445	0.442088	0.541964
C305	C	0.190514	-0.051525	-0.000246
C306	C	0.690514	0.448475	0.499754
H307	H	0.163501	-0.097684	-0.000263
H308	H	0.663501	0.402316	0.499737
H309	H	0.219099	-0.054211	0.041988
H310	H	0.719099	0.445789	0.541988
H311	H	0.219142	-0.054201	-0.042478
H312	H	0.719142	0.445799	0.457522
C313	C	0.257806	-0.012645	-0.089338
C314	C	0.757806	0.487355	0.410662
H315	H	0.208557	-0.005097	-0.083280
H316	H	0.708557	0.494903	0.416720
H317	H	0.275686	-0.068010	-0.074423
H318	H	0.775686	0.431990	0.425577
H319	H	0.268911	-0.005045	-0.139123
H320	H	0.768911	0.494955	0.360877
H321	H	0.734750	0.215730	0.195591
H322	H	1.234750	0.715730	0.695591
