data_functionalizedCrystal
_audit_creation_method	'MofGen! by Chris Wilmer'
_symmetry_space_group_name_H-M	'P1'
_symmetry_Int_Tables_number	1
_symmetry_cell_setting	triclinic
loop_
_symmetry_equiv_pos_as_xyz
  x,y,z
_cell_length_a	12.759395
_cell_length_b	18.101397
_cell_length_c	12.759387
_cell_angle_alpha	89.961826
_cell_angle_beta	89.982262
_cell_angle_gamma	90.020311
loop_
_atom_site_label
_atom_site_type_symbol
_atom_site_fract_x
_atom_site_fract_y
_atom_site_fract_z
Zn1	Zn	1.606209	-0.294785	-0.593929
Zn2	Zn	2.106209	0.205215	-0.093929
Zn3	Zn	1.606087	-0.418648	-0.418231
Zn4	Zn	2.106087	0.081352	0.081769
Zn5	Zn	1.430512	-0.294824	-0.418270
Zn6	Zn	1.930512	0.205176	0.081730
Zn7	Zn	1.430482	-0.418589	-0.593873
Zn8	Zn	1.930482	0.081411	-0.093873
O9	O	1.518323	-0.356712	-0.506076
O10	O	2.018323	0.143288	-0.006076
O11	O	1.753214	-0.311224	-0.570630
O12	O	2.253214	0.188776	-0.070630
O13	O	1.582759	-0.402263	-0.271215
O14	O	2.082759	0.097737	0.228785
O15	O	1.453883	-0.191186	-0.441611
O16	O	1.953883	0.308814	0.058389
O17	O	1.753124	-0.402225	-0.441545
O18	O	2.253124	0.097775	0.058455
O19	O	1.582966	-0.191157	-0.570668
O20	O	2.082966	0.308843	-0.070668
O21	O	1.453765	-0.311291	-0.271243
O22	O	1.953765	0.188709	0.228757
O23	O	1.283487	-0.311234	-0.441557
O24	O	1.783487	0.188766	0.058443
O25	O	1.453831	-0.402125	-0.740902
O26	O	1.953831	0.097875	-0.240902
O27	O	1.283465	-0.402163	-0.570572
O28	O	1.783465	0.097837	-0.070572
O29	O	1.582937	-0.311167	-0.740943
O30	O	2.082937	0.188833	-0.240943
O31	O	1.582729	-0.522273	-0.441490
O32	O	2.082729	-0.022273	0.058510
O33	O	1.453713	-0.522230	-0.570534
O34	O	1.953713	-0.022230	-0.070534
C35	C	1.245355	-0.356697	-0.506063
C36	C	1.745355	0.143303	-0.006063
C37	C	1.128578	-0.356708	-0.506082
C38	C	1.628578	0.143292	-0.006082
C39	C	1.128652	-0.262102	-0.640716
C40	C	1.628652	0.237898	-0.140716
C41	C	1.073828	-0.214808	-0.708041
C42	C	1.573828	0.285192	-0.208041
C43	C	0.964107	-0.214821	-0.708054
C44	C	1.464107	0.285179	-0.208054
C45	C	0.909207	-0.262132	-0.640732
C46	C	1.409207	0.237868	-0.140732
C47	C	0.964030	-0.309426	-0.573407
C48	C	1.464030	0.190574	-0.073407
C49	C	1.073755	-0.309409	-0.573404
C50	C	1.573755	0.190591	-0.073404
C51	C	0.963956	-0.404028	-0.438770
C52	C	1.463956	0.095972	0.061230
C53	C	1.073678	-0.404019	-0.438761
C54	C	1.573678	0.095981	0.061239
C55	C	0.909056	-0.451339	-0.371449
C56	C	1.409056	0.048661	0.128551
C57	C	0.963880	-0.498638	-0.304127
C58	C	1.463880	0.001362	0.195873
C59	C	1.073608	-0.498623	-0.304118
C60	C	1.573608	0.001377	0.195882
C61	C	1.128502	-0.451314	-0.371436
C62	C	1.628502	0.048686	0.128564
C63	C	1.518233	-0.549122	-0.506025
C64	C	2.018233	-0.049122	-0.006025
C65	C	1.518290	-0.631436	-0.506038
C66	C	2.018290	-0.131436	-0.006038
C67	C	1.518424	-0.930527	-0.506134
C68	C	2.018424	-0.430527	-0.006134
C69	C	1.599372	-0.899198	-0.424726
C70	C	2.099372	-0.399198	0.075274
C71	C	1.599652	-0.813580	-0.424937
C72	C	2.099652	-0.313580	0.075063
C73	C	1.518358	-0.782145	-0.506086
C74	C	2.018358	-0.282145	-0.006086
C75	C	1.548376	-0.813142	-0.616826
C76	C	2.048376	-0.313142	-0.116826
C77	C	1.549002	-0.898787	-0.616383
C78	C	2.049002	-0.398787	-0.116383
C79	C	1.407244	-0.899039	-0.477760
C80	C	1.907244	-0.399039	0.022240
C81	C	1.407793	-0.813389	-0.475288
C82	C	1.907793	-0.313389	0.024712
C83	C	1.518319	-0.698285	-0.506065
C84	C	2.018319	-0.198285	-0.006065
C85	C	1.518466	-1.014387	-0.506162
C86	C	2.018466	-0.514387	-0.006162
C87	C	1.792356	-0.356727	-0.506089
C88	C	2.292356	0.143273	-0.006089
C89	C	1.909133	-0.356733	-0.506095
C90	C	2.409133	0.143267	-0.006095
C91	C	1.518394	-0.356635	-0.780109
C92	C	2.018394	0.143365	-0.280109
C93	C	1.518424	-0.356603	-0.896886
C94	C	2.018424	0.143397	-0.396886
C95	C	1.518441	-0.163550	-0.506150
C96	C	2.018441	0.336450	-0.006150
C97	C	1.518492	-0.081236	-0.506181
C98	C	2.018492	0.418764	-0.006181
C99	C	1.384112	-0.261866	-0.896935
C100	C	1.884112	0.238134	-0.396935
C101	C	1.316974	-0.214484	-0.951820
C102	C	1.816974	0.285516	-0.451820
C103	C	1.317006	-0.214457	-1.061542
C104	C	1.817006	0.285543	-0.561542
C105	C	1.384180	-0.261820	-1.116381
C106	C	1.884180	0.238180	-0.616381
C107	C	1.451317	-0.309202	-1.061496
C108	C	1.951317	0.190798	-0.561496
C109	C	1.451280	-0.309222	-0.951771
C110	C	1.951280	0.190778	-0.451771
C111	C	1.585622	-0.403941	-1.061447
C112	C	2.085622	0.096059	-0.561447
C113	C	1.585598	-0.403965	-0.951725
C114	C	2.085598	0.096035	-0.451725
C115	C	1.652796	-0.451304	-1.116286
C116	C	2.152796	0.048696	-0.616286
C117	C	1.719940	-0.498684	-1.061401
C118	C	2.219940	0.001316	-0.561401
C119	C	1.719907	-0.498708	-0.951673
C120	C	2.219907	0.001292	-0.451673
C121	C	1.652735	-0.451348	-0.896840
C122	C	2.152735	0.048652	-0.396840
C123	C	1.518312	-0.356734	-0.233108
C124	C	2.018312	0.143266	0.266892
C125	C	1.518485	-0.356558	-0.116332
C126	C	2.018485	0.143442	0.383668
H127	H	0.919469	-0.176305	-0.762870
H128	H	1.419469	0.323695	-0.262870
H129	H	1.681278	-0.920665	-0.443283
H130	H	2.181278	-0.420665	0.056717
H131	H	0.819865	-0.262132	-0.640740
H132	H	1.319865	0.237868	-0.140740
H133	H	1.580872	-0.792626	-0.342824
H134	H	2.080872	-0.292626	0.157176
Cl135	Cl	1.372838	-0.782119	-0.349468
Cl136	Cl	1.872838	-0.282119	0.150532
H137	H	1.118239	-0.537134	-0.249290
H138	H	1.618239	-0.037134	0.250710
Cl139	Cl	1.266439	-0.451294	-0.371433
Cl140	Cl	1.766439	0.048706	0.128567
H141	H	1.630270	-0.918704	-0.640419
H142	H	2.130270	-0.418704	-0.140419
H143	H	0.819715	-0.451344	-0.371461
H144	H	1.319715	0.048656	0.128539
H145	H	1.262281	-0.175924	-0.907158
H146	H	1.762281	0.324076	-0.407158
Cl147	Cl	1.232610	-0.154886	-1.130543
Cl148	Cl	1.732610	0.345114	-0.630543
Cl149	Cl	1.142850	-0.155333	-0.792668
Cl150	Cl	1.642850	0.344667	-0.292668
Cl151	Cl	0.894859	-0.558103	-0.219498
Cl152	Cl	1.394859	-0.058103	0.280502
Cl153	Cl	1.652691	-0.451372	-0.758903
Cl154	Cl	2.152691	0.048628	-0.258903
H155	H	1.217993	-0.262083	-0.640707
H156	H	1.717993	0.237917	-0.140707
Cl157	Cl	1.570737	-0.931086	-0.297566
Cl158	Cl	2.070737	-0.431086	0.202434
H159	H	1.682009	-0.793035	-0.443710
H160	H	2.182009	-0.293035	0.056290
H161	H	1.492626	-0.919507	-0.679128
H162	H	1.992626	-0.419507	-0.179128
H163	H	1.379936	-0.920706	-0.398409
H164	H	1.879936	-0.420706	0.101591
H165	H	1.628734	-0.791632	-0.641268
H166	H	2.128734	-0.291632	-0.141268
H167	H	1.384088	-0.261878	-0.807594
H168	H	1.884088	0.238122	-0.307594
H169	H	1.491220	-0.792776	-0.679113
H170	H	1.991220	-0.292776	-0.179113
Cl171	Cl	1.309662	-0.780367	-0.560130
Cl172	Cl	1.809662	-0.280367	-0.060130
Cl173	Cl	1.314126	-0.930320	-0.569300
Cl174	Cl	1.814126	-0.430320	-0.069300
H175	H	1.384190	-0.261800	-1.205722
H176	H	1.884190	0.238200	-0.705722
Cl177	Cl	1.652825	-0.451278	-1.254223
Cl178	Cl	2.152825	0.048722	-0.754223
H179	H	1.774623	-0.537246	-1.106060
H180	H	2.274623	-0.037246	-0.606060
Cl181	Cl	1.804307	-0.558283	-0.882684
Cl182	Cl	2.304307	-0.058283	-0.382684
