data_functionalizedCrystal
_audit_creation_method	'MofGen! by Chris Wilmer'
_symmetry_space_group_name_H-M	'P1'
_symmetry_Int_Tables_number	1
_symmetry_cell_setting	triclinic
loop_
_symmetry_equiv_pos_as_xyz
  x,y,z
_cell_length_a	12.827893
_cell_length_b	18.101397
_cell_length_c	12.827885
_cell_angle_alpha	90.036582
_cell_angle_beta	90.019082
_cell_angle_gamma	90.020627
loop_
_atom_site_label
_atom_site_type_symbol
_atom_site_fract_x
_atom_site_fract_y
_atom_site_fract_z
Zn1	Zn	1.597633	-0.294791	0.590794
Zn2	Zn	1.597511	-0.418650	0.416034
Zn3	Zn	1.422874	-0.294827	0.416068
Zn4	Zn	1.422844	-0.418595	0.590734
O5	O	1.510216	-0.356716	0.503407
O6	O	1.743853	-0.311228	0.567622
O7	O	1.574307	-0.402263	0.269802
O8	O	1.446120	-0.191189	0.439286
O9	O	1.743763	-0.402227	0.439226
O10	O	1.574514	-0.191162	0.567656
O11	O	1.446002	-0.311291	0.269827
O12	O	1.276634	-0.311237	0.439227
O13	O	1.446068	-0.402134	0.736978
O14	O	1.276612	-0.402169	0.567554
O15	O	1.574485	-0.311175	0.737022
O16	O	1.574278	-0.522275	0.439168
O17	O	1.445951	-0.522235	0.567520
C18	C	1.238706	-0.356702	0.503389
C19	C	1.122553	-0.356714	0.503405
C20	C	1.070751	-0.311658	0.440018
C21	C	0.950701	-0.311670	0.440034
C22	C	1.510126	-0.549126	0.503357
C23	C	1.510183	-0.631440	0.503370
C24	C	1.510317	-0.930531	0.503465
C25	C	1.590832	-0.899200	0.422494
C26	C	1.591111	-0.813582	0.422703
C27	C	1.510251	-0.782149	0.503417
C28	C	1.540108	-0.813148	0.613567
C29	C	1.540731	-0.898793	0.613126
C30	C	1.399730	-0.899042	0.475240
C31	C	1.400276	-0.813393	0.472782
C32	C	1.510212	-0.698289	0.503397
C33	C	1.510359	-1.014391	0.503493
C34	C	1.782786	-0.356730	0.503427
C35	C	1.898939	-0.356736	0.503436
C36	C	1.510287	-0.356645	0.775978
C37	C	1.510317	-0.356614	0.892131
C38	C	1.510334	-0.163554	0.503481
C39	C	1.510384	-0.081240	0.503513
C40	C	1.510205	-0.356733	0.231898
C41	C	1.510377	-0.356555	0.115745
C42	C	1.573868	-0.311596	0.943938
C43	C	1.573901	-0.311564	1.063988
H44	H	1.115279	-0.273079	0.385734
H45	H	1.628249	-0.273076	0.899414
C46	C	1.565939	-0.785266	0.312354
C47	C	1.561303	-0.701635	0.290921
C48	C	1.536165	-0.673324	0.180559
C49	C	1.515663	-0.728643	0.091630
C50	C	1.520299	-0.812279	0.113060
C51	C	1.545437	-0.840590	0.223422
H52	H	1.576480	-0.660680	0.356754
H53	H	1.532733	-0.611411	0.164696
H54	H	1.497054	-0.707685	0.009933
H55	H	1.505122	-0.853234	0.047227
H56	H	1.548869	-0.902503	0.239286
C57	C	1.369842	-0.786035	0.363277
C58	C	1.348843	-0.842077	0.275371
C59	C	1.318410	-0.814715	0.165867
C60	C	1.308975	-0.731310	0.144269
C61	C	1.329974	-0.675262	0.232177
C62	C	1.360408	-0.702624	0.341681
H63	H	1.355827	-0.903823	0.291358
H64	H	1.302865	-0.856205	0.100792
H65	H	1.286446	-0.711055	0.063207
H66	H	1.322990	-0.613516	0.216190
H67	H	1.375953	-0.661134	0.406756
C68	C	0.959104	-0.408852	0.576756
C69	C	0.944255	-0.402920	0.695586
C70	C	1.004429	-0.455036	0.768906
C71	C	1.079451	-0.513085	0.723398
C72	C	1.094303	-0.519020	0.604562
C73	C	1.034129	-0.466903	0.531242
H74	H	0.888716	-0.359947	0.729279
H75	H	0.993434	-0.450642	0.856876
H76	H	1.123995	-0.551664	0.777674
H77	H	1.149842	-0.561993	0.570868
H78	H	1.045124	-0.471297	0.443271
C79	C	1.464965	-0.926788	0.697422
C80	C	1.505531	-0.975432	0.787124
C81	C	1.429777	-1.003421	0.871429
C82	C	1.313457	-0.982767	0.866032
C83	C	1.272886	-0.934122	0.776326
C84	C	1.348640	-0.906132	0.692021
H85	H	1.591642	-0.990723	0.791123
H86	H	1.459811	-1.039432	0.937835
H87	H	1.257380	-1.003487	0.928439
H88	H	1.186774	-0.918830	0.772327
H89	H	1.318606	-0.870121	0.625615
H90	H	1.628314	-0.273025	1.108540
C91	C	1.463317	-0.785638	0.697270
C92	C	1.477455	-0.809181	0.811739
C93	C	1.400662	-0.781671	0.895440
C94	C	1.309731	-0.730617	0.864671
C95	C	1.295589	-0.707071	0.750196
C96	C	1.372381	-0.734581	0.666496
H97	H	1.544771	-0.846977	0.834521
H98	H	1.411132	-0.799101	0.980182
H99	H	1.252884	-0.710252	0.926631
H100	H	1.228272	-0.669275	0.727415
H101	H	1.361912	-0.717151	0.581754
H102	H	1.455969	-0.395101	1.071199
H103	H	1.455926	-0.395127	0.936654
C104	C	1.314900	-0.784500	0.546654
C105	C	1.321187	-0.800976	0.664246
C106	C	1.235830	-0.772084	0.738147
C107	C	1.144186	-0.726716	0.694457
C108	C	1.137896	-0.710238	0.576859
C109	C	1.223252	-0.739130	0.502958
H110	H	1.389031	-0.834562	0.696594
H111	H	1.240487	-0.784282	0.825201
H112	H	1.081000	-0.705328	0.749163
H113	H	1.070052	-0.676652	0.544511
H114	H	1.218595	-0.726932	0.415904
H115	H	1.078025	-0.395298	0.557682
C116	C	0.890529	-0.259555	0.366716
C117	C	0.815507	-0.201507	0.412224
C118	C	0.755333	-0.149390	0.338904
C119	C	0.770182	-0.155323	0.220074
C120	C	0.845207	-0.213374	0.174560
C121	C	0.905381	-0.265490	0.247880
H122	H	0.804513	-0.197113	0.500194
H123	H	0.699795	-0.106417	0.372597
H124	H	0.725638	-0.116743	0.165798
H125	H	0.856202	-0.217768	0.086589
H126	H	0.960920	-0.308463	0.214186
C127	C	1.565914	-0.927098	0.311821
C128	C	1.634750	-0.903424	0.219355
C129	C	1.609827	-0.931323	0.108679
C130	C	1.516068	-0.982897	0.090469
C131	C	1.447226	-1.006574	0.182938
C132	C	1.472149	-0.978675	0.293614
H133	H	1.704162	-0.865243	0.232833
H134	H	1.660789	-0.913795	0.040227
H135	H	1.497619	-1.003550	0.008539
H136	H	1.377815	-1.044755	0.169460
H137	H	1.421187	-0.996202	0.362066
C138	C	1.700897	-0.928189	0.447431
C139	C	1.717912	-0.980136	0.540917
C140	C	1.827976	-1.009125	0.565858
C141	C	1.921025	-0.986167	0.497314
C142	C	1.904013	-0.934217	0.403822
C143	C	1.793949	-0.905228	0.378880
H144	H	1.649029	-0.997134	0.591663
H145	H	1.840569	-1.047582	0.635068
H146	H	2.002501	-1.007626	0.515777
H147	H	1.972897	-0.917219	0.353076
H148	H	1.781356	-0.866771	0.309671
C149	C	1.701769	-0.785819	0.447946
C150	C	1.790159	-0.841579	0.467981
C151	C	1.900822	-0.813816	0.493231
C152	C	1.923094	-0.730294	0.498446
C153	C	1.834702	-0.674529	0.478409
C154	C	1.724040	-0.702292	0.453159
H155	H	1.773674	-0.903411	0.464122
H156	H	1.966255	-0.855098	0.508063
H157	H	2.005013	-0.709743	0.517137
H158	H	1.851187	-0.612697	0.482269
H159	H	1.658606	-0.661010	0.438327
C160	C	1.318680	-0.926419	0.554900
C161	C	1.352607	-0.977091	0.645118
C162	C	1.271567	-1.004473	0.724780
C163	C	1.156602	-0.981182	0.714224
C164	C	1.122671	-0.930506	0.624003
C165	C	1.203710	-0.903125	0.544341
H166	H	1.437716	-0.994335	0.652935
H167	H	1.296687	-1.041986	0.791568
H168	H	1.096612	-1.001451	0.773195
H169	H	1.037562	-0.913263	0.616185
H170	H	1.178590	-0.865612	0.477553
C171	C	1.648092	-0.784100	0.646417
C172	C	1.737335	-0.838755	0.668617
C173	C	1.845321	-0.809709	0.701460
C174	C	1.864064	-0.726009	0.712101
C175	C	1.774818	-0.671349	0.689899
C176	C	1.666832	-0.700395	0.657057
H177	H	1.723462	-0.900719	0.660741
H178	H	1.911386	-0.850172	0.717894
H179	H	1.944002	-0.704507	0.736413
H180	H	1.788690	-0.609385	0.697776
H181	H	1.600767	-0.659932	0.640622
H182	H	1.621565	-0.918710	0.637035
H183	H	1.372568	-0.920709	0.396312
