data_functionalizedCrystal
_audit_creation_method	'MofGen! by Chris Wilmer'
_symmetry_space_group_name_H-M	'P1'
_symmetry_Int_Tables_number	1
_symmetry_cell_setting	triclinic
loop_
_symmetry_equiv_pos_as_xyz
  x,y,z
_cell_length_a	21.395362
_cell_length_b	29.839131
_cell_length_c	21.395355
_cell_angle_alpha	90.020172
_cell_angle_beta	90.043940
_cell_angle_gamma	90.057297
loop_
_atom_site_label
_atom_site_type_symbol
_atom_site_fract_x
_atom_site_fract_y
_atom_site_fract_z
Zn1	Zn	0.957813	-0.178715	0.354578
Zn2	Zn	1.457813	0.321285	0.854578
Zn3	Zn	0.957696	-0.253830	0.249798
Zn4	Zn	1.457696	0.246170	0.749798
Zn5	Zn	0.853028	-0.178736	0.249780
Zn6	Zn	1.353028	0.321264	0.749780
Zn7	Zn	0.852977	-0.253840	0.354503
Zn8	Zn	1.352977	0.246160	0.854503
O9	O	0.905378	-0.216280	0.302165
O10	O	1.405378	0.283720	0.802165
O11	O	1.045475	-0.188667	0.340718
O12	O	1.545475	0.311333	0.840718
O13	O	0.943783	-0.243874	0.162117
O14	O	1.443783	0.256126	0.662117
O15	O	0.866998	-0.115866	0.263706
O16	O	1.366998	0.384134	0.763706
O17	O	1.045389	-0.243853	0.263737
O18	O	1.545389	0.256147	0.763737
O19	O	0.943983	-0.115851	0.340701
O20	O	1.443983	0.384149	0.840701
O21	O	0.866884	-0.188702	0.162104
O22	O	1.366884	0.311298	0.662104
O23	O	0.765343	-0.188711	0.263632
O24	O	1.265343	0.311289	0.763632
O25	O	0.866912	-0.243869	0.442191
O26	O	1.366912	0.256131	0.942191
O27	O	0.765306	-0.243889	0.340571
O28	O	1.265306	0.256111	0.840571
O29	O	0.943934	-0.188676	0.442246
O30	O	1.443934	0.311324	0.942246
O31	O	0.943735	-0.316699	0.263663
O32	O	1.443735	0.183301	0.763663
O33	O	0.866798	-0.316705	0.340589
O34	O	1.366798	0.183295	0.840589
C35	C	0.742591	-0.216304	0.302092
C36	C	1.242591	0.283696	0.802092
C37	C	0.672950	-0.216325	0.302076
C38	C	1.172950	0.283675	0.802076
C39	C	0.640233	-0.245094	0.342078
C40	C	1.140233	0.254906	0.842078
C41	C	0.574798	-0.245083	0.342106
C42	C	1.074798	0.254917	0.842106
C43	C	0.542081	-0.216308	0.302120
C44	C	1.042081	0.283692	0.802120
C45	C	0.574805	-0.187533	0.262115
C46	C	1.074805	0.312467	0.762115
C47	C	0.640239	-0.187541	0.262093
C48	C	1.140239	0.312459	0.762093
C49	C	0.438357	-0.212688	0.245715
C50	C	0.938357	0.287312	0.745715
C51	C	0.372925	-0.212683	0.245736
C52	C	0.872925	0.287317	0.745736
C53	C	0.340261	-0.216278	0.302189
C54	C	0.840261	0.283722	0.802189
C55	C	0.373038	-0.219889	0.358623
C56	C	0.873038	0.280111	0.858623
C57	C	0.438472	-0.219897	0.358601
C58	C	0.938472	0.280103	0.858601
C59	C	0.471129	-0.216295	0.302140
C60	C	0.971129	0.283705	0.802140
C61	C	0.236592	-0.245037	0.342226
C62	C	0.736592	0.254963	0.842226
C63	C	0.171155	-0.245023	0.342254
C64	C	0.671155	0.254977	0.842254
C65	C	0.171164	-0.187475	0.262258
C66	C	0.671164	0.312525	0.762258
C67	C	0.236599	-0.187487	0.262235
C68	C	0.736599	0.312513	0.762235
C69	C	0.269309	-0.216270	0.302218
C70	C	0.769309	0.283730	0.802218
C71	C	0.905265	-0.333003	0.302133
C72	C	1.405265	0.166997	0.802133
C73	C	0.905274	-0.382937	0.302141
C74	C	1.405274	0.117063	0.802141
C75	C	0.945512	-0.692564	0.262168
C76	C	1.445512	-0.192564	0.762168
C77	C	0.945589	-0.880237	0.262192
C78	C	1.445589	-0.380237	0.762192
O79	O	0.979711	-0.904488	0.228181
O80	O	1.479711	-0.404488	0.728181
N81	N	0.905508	-0.903722	0.302212
N82	N	1.405508	-0.403722	0.802212
C83	C	0.865408	-0.880286	0.342231
C84	C	1.365408	-0.380286	0.842231
O85	O	0.831323	-0.904567	0.376276
O86	O	1.331323	-0.404567	0.876276
C87	C	0.865334	-0.692614	0.342210
C88	C	1.365334	-0.192614	0.842210
C89	C	0.905414	-0.669131	0.302183
C90	C	1.405414	-0.169131	0.802183
C91	C	0.985588	-0.669082	0.222145
C92	C	1.485588	-0.169082	0.722145
C93	C	0.985566	-0.622166	0.222136
C94	C	1.485566	-0.122166	0.722136
C95	C	0.945468	-0.598733	0.262152
C96	C	1.445468	-0.098733	0.762152
C97	C	0.905391	-0.622216	0.302175
C98	C	1.405391	-0.122216	0.802175
C99	C	0.825238	-0.669178	0.382232
C100	C	1.325238	-0.169178	0.882232
C101	C	0.825224	-0.622257	0.382224
C102	C	1.325224	-0.122257	0.882224
C103	C	0.865303	-0.598775	0.342197
C104	C	1.365303	-0.098775	0.842197
C105	C	0.865271	-0.551867	0.342182
C106	C	1.365271	-0.051867	0.842182
N107	N	0.905352	-0.528383	0.302162
N108	N	1.405352	-0.028383	0.802162
C109	C	0.945450	-0.551816	0.262147
C110	C	1.445450	-0.051816	0.762147
C111	C	0.865449	-0.978816	0.342239
C112	C	1.365449	-0.478816	0.842239
C113	C	0.865466	-1.025734	0.342244
C114	C	1.365466	-0.525734	0.842244
C115	C	0.945649	-1.025683	0.262205
C116	C	1.445649	-0.525683	0.762205
C117	C	0.945627	-0.978764	0.262198
C118	C	1.445627	-0.478764	0.762198
C119	C	0.905530	-0.955332	0.302219
C120	C	1.405530	-0.455332	0.802219
C121	C	0.945400	-0.453290	0.262132
C122	C	1.445400	0.046710	0.762132
C123	C	0.945373	-0.406370	0.262126
C124	C	1.445373	0.093630	0.762126
C125	C	0.865193	-0.406426	0.342167
C126	C	1.365193	0.093574	0.842167
C127	C	0.865218	-0.453342	0.342171
C128	C	1.365218	0.046658	0.842171
C129	C	0.905327	-0.476772	0.302152
C130	C	1.405327	0.023228	0.802152
O131	O	0.831172	-0.527587	0.376180
O132	O	1.331172	-0.027587	0.876180
O133	O	0.979540	-0.527526	0.228117
O134	O	1.479540	-0.027526	0.728117
C135	C	0.945534	-0.739480	0.262176
C136	C	1.445534	-0.239480	0.762176
C137	C	0.905458	-0.762962	0.302199
C138	C	1.405458	-0.262962	0.802199
C139	C	0.865359	-0.739529	0.342214
C140	C	1.365359	-0.239529	0.842214
C141	C	0.905475	-0.809880	0.302204
C142	C	1.405475	-0.309880	0.802204
C143	C	0.945574	-0.833313	0.262189
C144	C	1.445574	-0.333313	0.762189
C145	C	0.985655	-0.809828	0.222169
C146	C	1.485655	-0.309828	0.722169
C147	C	0.985633	-0.762913	0.222161
C148	C	1.485633	-0.262913	0.722161
C149	C	0.825278	-0.763014	0.382234
C150	C	1.325278	-0.263014	0.882234
C151	C	0.825303	-0.809929	0.382238
C152	C	1.325303	-0.309929	0.882238
C153	C	0.865402	-0.833362	0.342223
C154	C	1.365402	-0.333362	0.842223
C155	C	1.068802	-0.216257	0.302238
C156	C	1.568802	0.283743	0.802238
C157	C	1.138443	-0.216247	0.302269
C158	C	1.638443	0.283753	0.802269
C159	C	0.905431	-0.216271	0.465588
C160	C	1.405431	0.283729	0.965588
C161	C	0.905453	-0.216267	0.535229
C162	C	1.405453	0.283733	1.035229
C163	C	0.905509	-0.099102	0.302210
C164	C	1.405509	0.400898	0.802210
C165	C	0.905565	-0.049167	0.302229
C166	C	1.405565	0.450833	0.802229
C167	C	0.905363	-0.216257	0.139377
C168	C	1.405363	0.283743	0.639377
C169	C	0.905462	-0.216134	0.069736
C170	C	1.405462	0.283866	0.569736
C171	C	0.945556	-0.187527	0.567972
C172	C	1.445556	0.312473	1.067972
C173	C	0.945556	-0.187507	0.633408
C174	C	1.445556	0.312493	1.133408
C175	C	0.905458	-0.216237	0.666098
C176	C	1.405458	0.283763	1.166098
C177	C	0.865346	-0.244979	0.633347
C178	C	1.365346	0.255021	1.133347
C179	C	0.865344	-0.244994	0.567912
C180	C	1.365344	0.255006	1.067912
C181	C	0.900471	-0.256689	0.769760
C182	C	1.400471	0.243311	1.269760
C183	C	0.900478	-0.256674	0.835193
C184	C	1.400478	0.243326	1.335193
C185	C	0.905461	-0.216189	0.867918
C186	C	1.405461	0.283811	1.367918
C187	C	0.910451	-0.175717	0.835203
C188	C	1.410451	0.324283	1.335203
C189	C	0.910449	-0.175733	0.769769
C190	C	1.410449	0.324267	1.269769
C191	C	0.905455	-0.216223	0.737050
C192	C	1.405455	0.283777	1.237050
C193	C	0.945566	-0.187425	0.971614
C194	C	1.445566	0.312575	1.471614
C195	C	0.945561	-0.187405	1.037051
C196	C	1.445561	0.312595	1.537051
C197	C	0.865355	-0.244881	1.036988
C198	C	1.365355	0.255119	1.536988
C199	C	0.865357	-0.244897	0.971553
C200	C	1.365357	0.255103	1.471553
C201	C	0.905466	-0.216170	0.938870
C202	C	1.405466	0.283830	1.438870
H203	H	0.548156	-0.268511	0.374683
H204	H	1.048156	0.231489	0.874683
H205	H	0.666876	-0.164112	0.229518
H206	H	1.166876	0.335888	0.729518
H207	H	0.263226	-0.268472	0.374785
H208	H	0.763226	0.231528	0.874785
Br209	Br	0.684623	-0.284156	0.396342
Br210	Br	1.184623	0.215844	0.896342
Br211	Br	1.000002	-0.148403	1.081490
Br212	Br	1.500002	0.351597	1.581490
Br213	Br	0.893715	-0.311599	0.879586
Br214	Br	1.393715	0.188401	1.379586
Br215	Br	0.999768	-0.374504	0.207799
Br216	Br	1.499768	0.125496	0.707799
H217	H	1.018245	-0.688156	0.189559
H218	H	1.518245	-0.188156	0.689559
Br219	Br	0.810922	-0.283966	0.677709
Br220	Br	1.310922	0.216034	1.177709
H221	H	0.792573	-0.603181	0.414816
H222	H	1.292573	-0.103181	0.914816
Br223	Br	0.810927	-0.283866	1.081346
Br224	Br	1.310927	0.216134	1.581346
H225	H	0.346242	-0.209746	0.199785
H226	H	0.846242	0.290254	0.699785
H227	H	0.896245	-0.289648	0.743120
H228	H	1.396245	0.210352	1.243120
Br229	Br	0.770848	-0.701035	0.436564
Br230	Br	1.270848	-0.201035	0.936564
Br231	Br	0.770903	-0.841793	0.436564
Br232	Br	1.270903	-0.341793	0.936564
Br233	Br	0.482680	-0.207809	0.169093
Br234	Br	0.982680	0.292191	0.669093
H235	H	0.832683	-0.268398	0.541253
H236	H	1.332683	0.231602	1.041253
Br237	Br	0.281003	-0.148440	0.207942
Br238	Br	0.781003	0.351560	0.707942
Br239	Br	0.126753	-0.284067	0.396554
Br240	Br	0.626753	0.215933	0.896554
Br241	Br	0.482953	-0.224795	0.435185
Br242	Br	0.982953	0.275205	0.935185
Br243	Br	0.810928	-0.283905	0.927113
Br244	Br	1.310928	0.216095	1.427113
Br245	Br	0.810810	-0.485212	0.396478
Br246	Br	1.310810	0.014788	0.896478
H247	H	0.914510	-0.142779	0.743135
H248	H	1.414510	0.357221	1.243135
H249	H	0.346444	-0.222815	0.404593
H250	H	0.846444	0.277185	0.904593
H251	H	0.548163	-0.164102	0.229560
H252	H	1.048163	0.335898	0.729560
H253	H	0.978062	-0.472362	0.229546
H254	H	1.478062	0.027638	0.729546
H255	H	0.144526	-0.164043	0.229704
H256	H	0.644526	0.335957	0.729704
H257	H	1.018269	-0.743797	0.189567
H258	H	1.518269	-0.243797	0.689567
H259	H	0.914510	-0.142751	0.861847
H260	H	1.414510	0.357249	1.361847
Br261	Br	1.040071	-0.841640	0.167861
Br262	Br	1.540071	-0.341640	0.667861
H263	H	0.978263	-0.959647	0.229605
H264	H	1.478263	-0.459647	0.729605
Br265	Br	1.039971	-0.590305	0.167820
Br266	Br	1.539971	-0.090305	0.667820
H267	H	0.978298	-1.044770	0.229623
H268	H	1.478298	-0.544770	0.729623
H269	H	0.832824	-1.044850	0.374832
H270	H	1.332824	-0.544850	0.874832
Br271	Br	0.811025	-0.947022	0.396559
Br272	Br	1.311025	-0.447022	0.896559
Br273	Br	0.810779	-0.374615	0.396473
Br274	Br	1.310779	0.125385	0.896473
Br275	Br	0.999987	-0.148538	0.523619
Br276	Br	1.499987	0.351462	1.023619
H277	H	0.978222	-0.164031	0.945002
H278	H	1.478222	0.335969	1.445002
H279	H	0.792626	-0.743938	0.414820
H280	H	1.292626	-0.243938	0.914820
Br281	Br	0.999970	-0.148488	0.677855
Br282	Br	1.499970	0.351512	1.177855
