data_functionalizedCrystal
_audit_creation_method	'MofGen! by Chris Wilmer'
_symmetry_space_group_name_H-M	'P1'
_symmetry_Int_Tables_number	1
_symmetry_cell_setting	triclinic
loop_
_symmetry_equiv_pos_as_xyz
  x,y,z
_cell_length_a	17.699083
_cell_length_b	14.971486
_cell_length_c	14.048226
_cell_angle_alpha	90.001501
_cell_angle_beta	89.992674
_cell_angle_gamma	96.551428
loop_
_atom_site_label
_atom_site_type_symbol
_atom_site_fract_x
_atom_site_fract_y
_atom_site_fract_z
O1	O	0.098633	-1.186608	-0.079053
O2	O	0.110445	-0.926167	-0.079079
O3	O	-0.005632	-1.063746	-0.079057
O4	O	0.214710	-1.049030	-0.079075
O5	O	-0.005639	-1.063729	0.079264
O6	O	0.110438	-0.926151	0.079242
O7	O	0.098626	-1.186591	0.079268
Zn8	Zn	0.104531	-1.056368	0.104392
Zn9	Zn	0.104540	-1.056390	-0.104203
O10	O	0.214703	-1.049013	0.079246
C11	C	-0.033834	-1.063210	0.000104
C12	C	-0.117856	-1.061628	0.000104
C13	C	0.109913	-0.892836	0.000078
C14	C	0.108330	-0.793544	0.000068
C15	C	0.099158	-1.219923	0.000109
C16	C	0.100741	-1.319214	0.000112
C17	C	-0.166278	-1.142384	0.000113
C18	C	-0.245225	-1.140892	0.000105
C19	C	-0.275748	-1.058644	0.000094
C20	C	-0.227320	-0.977882	0.000081
C21	C	-0.148374	-0.979375	0.000083
C22	C	-0.545698	-0.971860	0.000073
C23	C	-0.624649	-0.970374	0.000074
C24	C	-0.642548	-1.133378	0.000095
C25	C	-0.563603	-1.134871	0.000096
C26	C	-0.515181	-1.054109	0.000079
C27	C	-0.429578	-1.055728	0.000087
C28	C	-0.361350	-1.057024	0.000093
C29	C	0.242905	-1.049549	0.000083
C30	C	0.326927	-1.051131	0.000077
N31	N	0.104524	-1.056360	0.246753
C32	C	0.176522	-0.736085	0.000064
C33	C	0.175030	-0.642790	0.000078
C34	C	0.105346	-0.606958	0.000090
C35	C	0.037148	-0.664425	0.000097
C36	C	0.038641	-0.757717	0.000090
C37	C	0.034042	-0.469973	0.000111
C38	C	0.032549	-0.376674	0.000117
C39	C	0.170431	-0.355046	0.000099
C40	C	0.171924	-0.448339	0.000092
C41	C	0.103726	-0.505799	0.000097
N42	N	0.104541	-1.056406	-0.246564
C43	C	0.053147	-1.117299	0.296581
C44	C	0.053146	-1.117305	0.396238
C45	C	0.104528	-1.056376	0.446066
C46	C	0.155908	-0.995431	0.396231
C47	C	0.155904	-0.995421	0.296576
C48	C	0.155913	-0.995456	0.603946
C49	C	0.155918	-0.995467	0.703608
C50	C	0.053156	-1.117340	0.703608
C51	C	0.053152	-1.117331	0.603953
C52	C	0.104533	-1.056386	0.554125
H53	H	-0.284648	-1.206652	0.000115
H54	H	-0.506282	-0.906099	0.000059
C55	C	-0.260603	-0.888673	0.000118
C56	C	-0.340105	-0.904648	0.000147
C57	C	-0.370789	-0.822488	0.000197
H58	H	-0.244067	-0.855366	-0.055081
H59	H	-0.244033	-0.855416	0.055347
H60	H	-0.356668	-0.937891	-0.055077
H61	H	-0.356662	-0.937941	0.055341
H62	H	-0.354219	-0.789231	0.055426
H63	H	-0.354247	-0.789187	-0.055003
H64	H	-0.424733	-0.833316	0.000225
C65	C	-0.695085	-1.221094	0.000297
C66	C	-0.681306	-1.270606	0.081770
C67	C	-0.729692	-1.351406	0.081997
H68	H	-0.685861	-1.254940	-0.054843
H69	H	-0.746486	-1.208468	0.000341
H70	H	-0.629917	-1.283234	0.081717
H71	H	-0.690535	-1.236787	0.136923
H72	H	-0.781093	-1.338780	0.082042
H73	H	-0.720463	-1.385245	0.026854
H74	H	-0.720354	-1.385006	0.137280
H75	H	0.011310	-1.166925	0.436808
C76	C	-0.035420	-0.820064	-0.000107
C77	C	-0.077364	-0.803910	-0.081566
C78	C	-0.145590	-0.861334	-0.081783
H79	H	-0.064084	-0.809275	0.055042
H80	H	-0.024583	-0.880770	-0.000163
H81	H	-0.088203	-0.743218	-0.081502
H82	H	-0.048723	-0.814705	-0.136729
H83	H	-0.134752	-0.922041	-0.081839
H84	H	-0.174247	-0.850541	-0.026630
H85	H	-0.174053	-0.850388	-0.137056
C86	C	-0.002717	-1.183523	0.550023
C87	C	-0.047728	-1.236881	0.614987
C88	C	-0.099211	-1.297857	0.565343
H89	H	0.024474	-1.220772	0.511131
H90	H	-0.034311	-1.151435	0.511180
H91	H	-0.016138	-1.268966	0.653814
H92	H	-0.074936	-1.199656	0.653881
H93	H	-0.130805	-1.265770	0.526500
H94	H	-0.072013	-1.335100	0.526452
H95	H	-0.129762	-1.334062	0.609413
H96	H	-0.538756	-1.201846	0.000110
C97	C	0.211736	-0.929433	0.549721
C98	C	0.258118	-0.976971	0.492473
C99	C	0.309544	-0.916186	0.442498
H100	H	0.242414	-0.893122	0.593557
H101	H	0.184476	-0.892271	0.510802
H102	H	0.285376	-1.014117	0.531390
H103	H	0.227461	-1.013278	0.448620
H104	H	0.282284	-0.879024	0.403579
H105	H	0.340217	-0.879878	0.486341
H106	H	0.341016	-0.948431	0.403644
H107	H	0.225960	-0.308257	0.000099
H108	H	-0.649498	-0.903394	0.000067
H109	H	-0.019590	-0.635242	0.000121
C110	C	0.252259	-0.774811	0.000099
C111	C	0.311658	-0.704517	0.000125
C112	C	0.381439	-0.740153	0.000173
H113	H	0.255819	-0.810738	-0.055099
H114	H	0.255746	-0.810732	0.055328
H115	H	0.308173	-0.668611	-0.055099
H116	H	0.308123	-0.668584	0.055319
H117	H	0.384926	-0.776074	0.055402
H118	H	0.384992	-0.776080	-0.055027
H119	H	0.421750	-0.692465	0.000199
H120	H	-0.108949	-0.913615	0.000075
C121	C	-0.043185	-0.337941	0.000180
C122	C	-0.102590	-0.408227	0.000215
C123	C	-0.172367	-0.372581	0.000284
H124	H	-0.046739	-0.302011	-0.055014
H125	H	-0.046670	-0.302021	0.055414
H126	H	-0.099106	-0.444132	-0.055013
H127	H	-0.099061	-0.444163	0.055405
H128	H	-0.175852	-0.336661	0.055518
H129	H	-0.175913	-0.336651	-0.054911
H130	H	-0.212681	-0.420264	0.000317
C131	C	-0.039942	-0.532468	-0.000035
C132	C	-0.043096	-0.586669	-0.081481
C133	C	-0.111230	-0.644259	-0.081647
H134	H	-0.081721	-0.497882	-0.000079
H135	H	-0.042234	-0.569368	0.055143
H136	H	-0.040810	-0.549773	-0.136645
H137	H	-0.001332	-0.621274	-0.081453
H138	H	-0.113523	-0.681158	-0.026468
H139	H	-0.153004	-0.609665	-0.081688
H140	H	-0.113376	-0.681046	-0.136901
H141	H	0.230559	-0.596010	0.000074
C142	C	-0.002725	-1.183493	0.242658
C143	C	-0.047733	-1.236844	0.307631
C144	C	-0.099221	-1.297823	0.257996
H145	H	0.024462	-1.220747	0.203767
H146	H	-0.034321	-1.151408	0.203815
H147	H	-0.016142	-1.268927	0.346458
H148	H	-0.074937	-1.199615	0.346524
H149	H	-0.130816	-1.265738	0.219153
H150	H	-0.072027	-1.335071	0.219107
H151	H	-0.129769	-1.334024	0.302072
H152	H	0.011319	-1.166963	0.744184
H153	H	0.228667	-0.477510	0.000073
C154	C	0.211724	-0.929201	0.757538
C155	C	0.256699	-0.875800	0.692574
C156	C	0.308105	-0.814733	0.742219
H157	H	0.243355	-0.961190	0.796410
H158	H	0.184450	-0.891996	0.796401
H159	H	0.283971	-0.913000	0.653727
H160	H	0.225089	-0.843791	0.653699
H161	H	0.280831	-0.777529	0.781081
H162	H	0.339731	-0.846730	0.781089
H163	H	0.338622	-0.778488	0.698148
C164	C	0.211810	-0.929363	0.242523
C165	C	0.286208	-0.943717	0.266723
C166	C	0.337727	-0.882886	0.216940
H167	H	0.203609	-0.869652	0.258825
H168	H	0.204499	-0.938086	0.176026
H169	H	0.293515	-0.934987	0.333205
H170	H	0.294433	-1.003417	0.250418
H171	H	0.330416	-0.891608	0.150444
H172	H	0.329519	-0.823178	0.233247
H173	H	0.388211	-0.892622	0.233347
H174	H	-0.141433	-1.209360	0.000128
H175	H	0.197741	-0.945816	0.436807
