data_functionalizedCrystal
_audit_creation_method	'MofGen! by Chris Wilmer'
_symmetry_space_group_name_H-M	'P1'
_symmetry_Int_Tables_number	1
_symmetry_cell_setting	triclinic
loop_
_symmetry_equiv_pos_as_xyz
  x,y,z
_cell_length_a	29.839125
_cell_length_b	21.295418
_cell_length_c	21.295417
_cell_angle_alpha	90.046319
_cell_angle_beta	90.018987
_cell_angle_gamma	90.031451
loop_
_atom_site_label
_atom_site_type_symbol
_atom_site_fract_x
_atom_site_fract_y
_atom_site_fract_z
Zn1	Zn	-0.254235	-0.962279	0.250432
Zn2	Zn	-0.179103	-0.962204	0.355679
Zn3	Zn	-0.179092	-0.857025	0.250456
Zn4	Zn	-0.254179	-0.856972	0.355696
O5	O	-0.216652	-0.909620	0.303066
O6	O	-0.244296	-1.050359	0.264375
O7	O	-0.116234	-0.948243	0.341724
O8	O	-0.189078	-0.871041	0.162364
O9	O	-0.189097	-1.050304	0.341700
O10	O	-0.244285	-0.948371	0.162346
O11	O	-0.116226	-0.870968	0.264417
O12	O	-0.189024	-0.768929	0.264434
O13	O	-0.317053	-0.870950	0.341730
O14	O	-0.244190	-0.768890	0.341753
O15	O	-0.317094	-0.948319	0.264392
O16	O	-0.189043	-0.948191	0.443770
O17	O	-0.244201	-0.870878	0.443783
C18	C	-0.216600	-0.746069	0.303099
C19	C	-0.216589	-0.676100	0.303128
C20	C	-0.333830	-0.909637	0.303060
C21	C	-0.383765	-0.909644	0.303058
C22	C	-0.216627	-0.909538	0.466617
C23	C	-0.216632	-0.909560	0.536586
C24	C	-0.693433	-0.949973	0.262683
C25	C	-0.881106	-0.950004	0.262629
O26	O	-0.905391	-0.984246	0.228360
N27	N	-0.904550	-0.909728	0.302889
C28	C	-0.881073	-0.869438	0.343163
O29	O	-0.905320	-0.835177	0.377400
C30	C	-0.693401	-0.869404	0.343213
C31	C	-0.669959	-0.909688	0.302954
C32	C	-0.669991	-0.990252	0.222427
C33	C	-0.623075	-0.990247	0.222444
C34	C	-0.599602	-0.949961	0.262715
C35	C	-0.623044	-0.909682	0.302971
C36	C	-0.669925	-0.829112	0.383482
C37	C	-0.623004	-0.829106	0.383490
C38	C	-0.599562	-0.869389	0.343232
C39	C	-0.552655	-0.869391	0.343259
N40	N	-0.529210	-0.909667	0.302998
C41	C	-0.552684	-0.949952	0.262727
C42	C	-0.979604	-0.869460	0.343134
C43	C	-1.026522	-0.869469	0.343123
C44	C	-1.026551	-0.950034	0.262588
C45	C	-0.979632	-0.950028	0.262603
C46	C	-0.956160	-0.909736	0.302874
C47	C	-0.454158	-0.949937	0.262764
C48	C	-0.407238	-0.949930	0.262786
C49	C	-0.407213	-0.869363	0.343318
C50	C	-0.454129	-0.869372	0.343299
C51	C	-0.477600	-0.909662	0.303017
O52	O	-0.528340	-0.835162	0.377504
O53	O	-0.528429	-0.984198	0.228484
C54	C	-0.740348	-0.949979	0.262667
C55	C	-0.763790	-0.909699	0.302922
C56	C	-0.740317	-0.869414	0.343194
C57	C	-0.810708	-0.909708	0.302910
C58	C	-0.834182	-0.949994	0.262639
C59	C	-0.810737	-0.990270	0.222379
C60	C	-0.763822	-0.990264	0.222395
C61	C	-0.763761	-0.829138	0.383454
C62	C	-0.810676	-0.829147	0.383435
C63	C	-0.834150	-0.869433	0.343163
C64	C	-0.099930	-0.909639	0.303026
C65	C	-0.049995	-0.909754	0.302851
C66	C	-0.216704	-1.073811	0.303033
C67	C	-0.216726	-1.143779	0.303019
C68	C	-0.245271	-0.643230	0.343442
C69	C	-0.245291	-0.577487	0.343426
C70	C	-0.216621	-0.544618	0.303104
C71	C	-0.187937	-0.577496	0.262783
C72	C	-0.187921	-0.643238	0.262795
N73	N	-0.177328	-0.441354	0.298174
N74	N	-0.177345	-0.378902	0.298166
C75	C	-0.216669	-0.346543	0.303064
N76	N	-0.255977	-0.378995	0.307982
N77	N	-0.255960	-0.441452	0.307993
C78	C	-0.216636	-0.473333	0.303086
C79	C	-0.245375	-0.242387	0.343362
C80	C	-0.245396	-0.176644	0.343342
C81	C	-0.188038	-0.176654	0.262702
C82	C	-0.188021	-0.242396	0.262719
C83	C	-0.216689	-0.275259	0.303052
C84	C	-0.216687	-0.909720	0.138875
C85	C	-0.216702	-0.909763	0.068907
C86	C	-0.187940	-0.949853	0.569425
C87	C	-0.187950	-0.949883	0.635167
C88	C	-0.216647	-0.909608	0.668068
C89	C	-0.245344	-0.869312	0.635221
C90	C	-0.245336	-0.869288	0.569480
N91	N	-0.220055	-0.854540	0.771350
N92	N	-0.220059	-0.854564	0.833801
C93	C	-0.216673	-0.909678	0.866143
N94	N	-0.213273	-0.964768	0.833673
N95	N	-0.213266	-0.964743	0.771216
C96	C	-0.216659	-0.909629	0.739353
C97	C	-0.187991	-0.950007	0.970267
C98	C	-0.188004	-0.950037	1.036011
C99	C	-0.245395	-0.869461	1.036064
C100	C	-0.245385	-0.869436	0.970321
C101	C	-0.216680	-0.909708	0.937427
H102	H	-0.388154	-0.982736	0.230002
C103	C	-0.276808	-0.679375	0.387808
N104	N	-0.300563	-0.706601	0.421224
H105	H	-0.164587	-0.982696	0.661910
H106	H	-0.744654	-0.796333	0.416249
H107	H	-0.164568	-0.982646	0.542644
C108	C	-0.276843	-0.541323	0.387778
N109	N	-0.300608	-0.514085	0.421185
H110	H	-0.268710	-0.836521	0.662013
C111	C	-0.479916	-0.825063	0.387588
N112	N	-0.499335	-0.791684	0.420944
H113	H	-1.045671	-0.982836	0.229798
C114	C	-0.156501	-0.140501	0.218347
N115	N	-0.132747	-0.113268	0.184936
H116	H	-0.268701	-0.836476	0.542742
H117	H	-0.603993	-1.023048	0.189660
C118	C	-0.953790	-0.825133	0.387439
N119	N	-0.934349	-0.791748	0.420811
H120	H	-0.164619	-0.982801	0.943484
H121	H	-0.164595	-0.550730	0.229951
C122	C	-0.156365	-0.679396	0.218448
N123	N	-0.132595	-0.706632	0.185047
H124	H	-0.164641	-0.982853	1.062747
C125	C	-0.836457	-0.784829	0.427724
N126	N	-0.855874	-0.751444	0.461078
H127	H	-0.268763	-0.836671	1.062851
C128	C	-0.276947	-0.140486	0.387698
N129	N	-0.300709	-0.113252	0.421111
C130	C	-0.479970	-0.994261	0.218456
N131	N	-0.499411	-1.027650	0.185086
C132	C	-0.695804	-1.034576	0.178124
N133	N	-0.715244	-1.067967	0.144755
H134	H	-0.960549	-0.982829	0.229821
H135	H	-0.268746	-0.836623	0.943582
H136	H	-0.689003	-0.796309	0.416265
C137	C	-1.052303	-0.825159	0.387414
N138	N	-1.071719	-0.791780	0.420773
H139	H	-0.603895	-0.796288	0.416277
C140	C	-0.381383	-0.825048	0.387611
N141	N	-0.361927	-0.791665	0.420969
H142	H	-0.164663	-0.269160	0.229894
C143	C	-0.836567	-1.034581	0.178077
N144	N	-0.856025	-1.067950	0.144706
H145	H	-0.744740	-1.023066	0.189612
C146	C	-0.276915	-0.278539	0.387722
N147	N	-0.300673	-0.305766	0.421133
