data_functionalizedCrystal
_audit_creation_method	'MofGen! by Chris Wilmer'
_symmetry_space_group_name_H-M	'P1'
_symmetry_Int_Tables_number	1
_symmetry_cell_setting	triclinic
loop_
_symmetry_equiv_pos_as_xyz
  x,y,z
_cell_length_a	6.394984
_cell_length_b	11.792241
_cell_length_c	10.268362
_cell_angle_alpha	90.000374
_cell_angle_beta	90.003727
_cell_angle_gamma	85.344384
loop_
_atom_site_label
_atom_site_type_symbol
_atom_site_fract_x
_atom_site_fract_y
_atom_site_fract_z
O1	O	0.286339	1.510044	0.108169
O2	O	0.315849	1.180026	0.108199
O3	O	-0.002918	1.349723	0.108180
O4	O	0.605106	1.340347	0.108188
O5	O	-0.002931	1.349707	-0.108421
O6	O	0.315836	1.180011	-0.108402
O7	O	0.286326	1.510029	-0.108432
Cu8	Cu	0.301079	1.345018	-0.128194
Cu9	Cu	0.301095	1.345036	0.127961
O10	O	0.605093	1.340332	-0.108412
C11	C	0.313989	1.137707	-0.000098
C12	C	0.308440	1.011633	-0.000086
N13	N	0.301067	1.345014	-0.308360
C14	C	0.298238	0.780809	-0.000124
C15	C	0.303907	0.909256	-0.000103
C16	C	0.301091	1.345031	-0.574031
C17	C	0.301084	1.345018	-0.426193
C18	C	0.919236	1.347851	-0.000124
C19	C	0.682934	1.342201	-0.000121
C20	C	0.288186	1.552348	-0.000132
C21	C	0.293734	1.678422	-0.000135
N22	N	0.301091	1.345050	0.308127
