data_functionalizedCrystal
_audit_creation_method	'MofGen! by Chris Wilmer'
_symmetry_space_group_name_H-M	'P1'
_symmetry_Int_Tables_number	1
_symmetry_cell_setting	triclinic
loop_
_symmetry_equiv_pos_as_xyz
  x,y,z
_cell_length_a	19.288864
_cell_length_b	12.837942
_cell_length_c	17.766277
_cell_angle_alpha	89.994736
_cell_angle_beta	89.976791
_cell_angle_gamma	88.982593
loop_
_atom_site_label
_atom_site_type_symbol
_atom_site_fract_x
_atom_site_fract_y
_atom_site_fract_z
O1	O	0.930181	0.129276	-0.062838
O2	O	0.729111	0.146715	-0.062786
O3	O	0.825187	-0.012886	-0.062806
O4	O	0.834104	0.288878	-0.062818
O5	O	0.825168	-0.012894	0.062382
O6	O	0.729091	0.146707	0.062402
O7	O	0.930161	0.129268	0.062351
Cu8	Cu	0.829625	0.137987	0.073807
Cu9	Cu	0.829647	0.137996	-0.074243
O10	O	0.834085	0.288870	0.062371
C11	C	0.703186	0.146150	-0.000185
C12	C	0.625968	0.144466	-0.000166
C13	C	0.587666	0.238113	-0.000181
C14	C	0.515111	0.236530	-0.000189
C15	C	0.480860	0.141295	-0.000197
C16	C	0.519171	0.047636	-0.000178
C17	C	0.591725	0.049221	-0.000162
C18	C	0.367493	0.066433	-0.044079
C19	C	0.294941	0.064852	-0.044099
C20	C	0.257081	0.136402	-0.000243
C21	C	0.291782	0.209552	0.043625
C22	C	0.364335	0.211137	0.043640
C23	C	0.402188	0.139566	-0.000214
C24	C	0.140106	0.228340	-0.000266
C25	C	0.067550	0.226753	-0.000270
C26	C	0.071611	0.037857	-0.000265
C27	C	0.144166	0.039446	-0.000254
C28	C	0.178409	0.134690	-0.000258
C29	C	0.822165	-0.051497	-0.000212
C30	C	0.813181	-0.166532	-0.000211
C31	C	0.921187	-0.407995	-0.000254
C32	C	0.912748	-0.516081	-0.000253
C33	C	0.787867	-0.490793	-0.000213
C34	C	0.796305	-0.382707	-0.000214
C35	C	0.862967	-0.341312	-0.000233
C36	C	0.871405	-0.233223	-0.000229
C37	C	0.746524	-0.207938	-0.000195
C38	C	0.738086	-0.316024	-0.000194
C39	C	0.956086	0.129833	-0.000252
C40	C	1.033304	0.131518	-0.000276
C41	C	0.837107	0.327480	-0.000225
C42	C	0.846091	0.442515	-0.000231
N43	N	0.829614	0.137979	0.177938
N44	N	0.829663	0.137996	-0.178373
C45	C	0.872174	0.067342	0.217316
C46	C	0.872178	0.067338	0.296118
C47	C	0.829629	0.137988	0.335538
C48	C	0.787060	0.208630	0.296151
C49	C	0.787052	0.208626	0.217350
C50	C	0.826778	0.232410	0.460374
C51	C	0.826790	0.232416	0.539173
C52	C	0.829648	0.138000	0.578584
C53	C	0.832508	0.043575	0.539188
C54	C	0.832501	0.043571	0.460387
C55	C	0.829632	0.138000	0.420984
C56	C	0.872215	0.067352	0.703409
C57	C	0.872213	0.067346	0.782212
C58	C	0.787100	0.208647	0.782243
C59	C	0.787097	0.208645	0.703442
C60	C	0.829658	0.137998	0.664029
H61	H	0.398313	0.008166	-0.079797
H62	H	0.824438	0.309300	0.428291
H63	H	0.834835	-0.033307	0.571275
H64	H	0.906828	0.009816	0.185228
N65	N	0.741148	0.284827	0.174880
H66	H	0.770715	0.330611	0.142168
H67	H	0.707788	0.245268	0.142250
N68	N	0.633039	-0.051790	-0.000157
H69	H	0.684197	-0.036334	-0.000149
H70	H	0.621221	-0.093314	0.046251
N71	N	0.482235	-0.055083	-0.000177
H72	H	0.430460	-0.041878	-0.000190
H73	H	0.495829	-0.096052	-0.046579
H74	H	0.834828	-0.033313	0.428314
N75	N	0.683726	-0.136012	-0.000178
H76	H	0.640219	-0.178641	-0.000165
H77	H	0.684503	-0.090626	0.046233
N78	N	0.943301	-0.188575	-0.000250
H79	H	0.939815	-0.109983	-0.000243
H80	H	0.969085	-0.213001	0.046151
H81	H	0.683812	-0.349743	-0.000181
H82	H	0.975465	-0.374291	-0.000262
N83	N	0.026214	0.327744	-0.000277
H84	H	-0.003998	0.331270	0.046129
H85	H	0.058946	0.388281	-0.000304
H86	H	0.043725	-0.039685	-0.000319
N87	N	0.975539	-0.588011	-0.000272
H88	H	1.004311	-0.574722	-0.046687
H89	H	1.004246	-0.574702	0.046158
H90	H	0.167988	0.305893	-0.000258
N91	N	0.185483	-0.061560	-0.000238
H92	H	0.152778	-0.122133	-0.000243
H93	H	0.215702	-0.065017	-0.046638
N94	N	0.257514	-0.014039	-0.091409
H95	H	0.269966	-0.004119	-0.146135
H96	H	0.271712	-0.086638	-0.074960
H97	H	0.733594	-0.524517	-0.000206
N98	N	0.918115	-0.008843	0.660892
H99	H	0.945074	-0.053599	0.697799
H100	H	0.888499	-0.054555	0.628214
H101	H	0.906869	0.009819	0.814274
N102	N	0.918081	-0.008854	0.338603
H103	H	0.945041	-0.053610	0.301678
H104	H	0.951403	0.030713	0.371275
N105	N	0.741201	0.284843	0.824749
H106	H	0.747661	0.274126	0.880645
H107	H	0.754082	0.358331	0.810964
N108	N	0.741192	0.284832	0.660963
H109	H	0.714236	0.329588	0.697891
H110	H	0.770800	0.330545	0.628246
N111	N	0.823700	0.334253	0.581662
H112	H	0.865149	0.377325	0.567920
H113	H	0.779711	0.373650	0.567949
N114	N	0.741163	0.284827	0.338663
H115	H	0.747627	0.274113	0.394558
H116	H	0.754043	0.358314	0.324874
H117	H	0.615542	0.315668	-0.000186
H118	H	0.483920	0.312791	-0.000200
H119	H	0.392586	0.270694	0.079361
H120	H	0.260958	0.267814	0.079337
