data_functionalizedCrystal
_audit_creation_method	'MofGen! by Chris Wilmer'
_symmetry_space_group_name_H-M	'P1'
_symmetry_Int_Tables_number	1
_symmetry_cell_setting	triclinic
loop_
_symmetry_equiv_pos_as_xyz
  x,y,z
_cell_length_a	19.902436
_cell_length_b	14.560438
_cell_length_c	14.560438
_cell_angle_alpha	60.005799
_cell_angle_beta	89.996219
_cell_angle_gamma	60.001526
loop_
_atom_site_label
_atom_site_type_symbol
_atom_site_fract_x
_atom_site_fract_y
_atom_site_fract_z
Zr1	Zr	0.647274	1.005298	-0.120482
O2	O	0.539999	1.196868	-0.267086
O3	O	0.680155	0.813717	-0.075560
O4	O	0.680160	1.005306	-0.267136
O5	O	0.539994	1.005277	0.075631
O6	O	0.790726	1.005323	-0.267154
O7	O	0.539994	1.005280	-0.075510
O8	O	0.790716	0.662607	0.075541
O9	O	0.540004	1.347993	-0.267064
O10	O	0.776697	0.892534	-0.056391
O11	O	0.694183	0.892519	0.056417
O12	O	0.694190	1.118089	-0.169139
O13	O	0.611676	1.118074	-0.056332
Zr14	Zr	0.823613	1.005322	0.120541
Zr15	Zr	0.823613	1.005326	-0.120511
Zr16	Zr	0.647274	1.005294	0.120570
Zr17	Zr	0.647281	1.246325	-0.120447
Zr18	Zr	0.823606	0.764294	0.120506
O19	O	0.790732	1.196902	0.075619
O20	O	0.790732	1.196908	-0.267126
O21	O	0.540000	1.196862	0.075659
O22	O	0.930887	0.813752	0.267145
O23	O	0.930887	0.813758	-0.075600
O24	O	0.680155	0.813712	0.267185
O25	O	0.930893	1.005343	-0.075572
O26	O	0.790727	1.005314	0.267195
O27	O	0.680161	1.005296	0.267213
O28	O	0.930893	1.005340	0.075569
O29	O	0.680170	1.348016	-0.267086
O30	O	0.790717	0.662604	0.267145
O31	O	0.930883	0.662627	0.267123
O32	O	0.930883	0.662630	0.075518
O33	O	0.540004	1.347990	-0.075459
O34	O	0.680171	1.348013	-0.075482
O35	O	0.776697	0.892530	0.169198
O36	O	0.859211	0.892546	0.056390
O37	O	0.776704	1.118101	-0.056358
O38	O	0.694190	1.118086	0.056450
C39	C	0.735435	0.703821	-0.000015
C40	C	0.735432	0.601499	-0.000030
C41	C	0.674525	0.636617	-0.083242
C42	C	0.674538	0.540428	-0.083185
C43	C	0.796368	0.374003	0.083305
C44	C	0.796358	0.470192	0.083243
C45	C	0.613599	0.767924	-0.166515
C46	C	0.552687	0.803049	-0.249733
C47	C	0.552700	0.706860	-0.249676
C48	C	0.613625	0.575546	-0.166402
C49	C	0.514869	1.005274	0.000065
C50	C	0.440009	1.005262	0.000077
C51	C	0.167960	1.005326	0.000014
C52	C	0.248498	0.863042	0.070799
C53	C	0.326401	0.862952	0.071197
C54	C	0.302927	1.005294	0.000045
C55	C	0.248809	1.075953	0.051948
C56	C	0.171247	1.075044	0.052466
C57	C	0.170108	1.077969	-0.122704
C58	C	0.248985	1.075295	-0.122510
C59	C	0.379202	1.005283	0.000062
C60	C	0.091684	1.005341	0.000001
C61	C	0.956017	1.005345	-0.000006
C62	C	1.030878	1.005357	-0.000018
C63	C	0.735443	1.005315	-0.301490
C64	C	0.735443	1.005317	-0.403823
C65	C	0.735452	1.306799	0.000074
C66	C	0.735455	1.409121	0.000089
C67	C	0.692372	1.123052	-0.510753
C68	C	0.692374	1.123046	-0.606902
C69	C	0.778521	0.887559	-0.489177
C70	C	0.778522	0.887566	-0.393031
C71	C	0.649293	1.240803	-0.521545
C72	C	0.606217	1.358547	-0.628480
C73	C	0.606219	1.358541	-0.724629
C74	C	0.649297	1.240790	-0.713843
C75	C	0.735444	1.005305	0.301549
C76	C	0.735444	1.005303	0.403882
C77	C	0.956009	0.703857	-0.000050
C78	C	1.030866	0.601546	-0.000077
C79	C	0.735435	0.703816	0.301505
C80	C	0.735432	0.601492	0.403823
C81	C	0.956009	0.703851	0.301469
C82	C	1.030867	0.601539	0.403775
C83	C	0.514878	1.306768	-0.301410
C84	C	0.440020	1.409081	-0.403716
C85	C	0.514878	1.306763	0.000109
C86	C	0.440020	1.409074	0.000136
C87	C	0.735452	1.306804	-0.301446
C88	C	0.735455	1.409128	-0.403764
C89	C	1.022949	0.553494	-0.058971
C90	C	1.093279	0.457376	-0.059019
C91	C	1.171526	0.409305	-0.000166
C92	C	1.179442	0.457366	0.058730
C93	C	1.109112	0.553489	0.058770
C94	C	1.109100	0.553500	0.392935
C95	C	1.179443	0.457380	0.489053
C96	C	1.171552	0.409295	0.596010
C97	C	1.093311	0.457343	0.606849
C98	C	1.022969	0.553468	0.510732
C99	C	0.361787	1.457131	-0.392876
C100	C	0.291444	1.553281	-0.488994
C101	C	0.299335	1.601372	-0.595952
C102	C	0.377576	1.553317	-0.606790
C103	C	0.447918	1.457176	-0.510673
C104	C	0.447938	1.457136	0.059020
C105	C	0.377608	1.553281	0.059041
C106	C	0.299361	1.601355	0.000185
C107	C	0.291445	1.553289	-0.058706
C108	C	0.361774	1.457152	-0.058733
C109	C	0.778503	0.553421	0.510763
C110	C	0.778494	0.457281	0.606897
C111	C	0.692341	0.457288	0.489138
C112	C	0.692346	0.553433	0.393006
C113	C	0.821589	0.601480	0.521579
C114	C	0.864665	0.553407	0.628524
C115	C	0.864656	0.457268	0.724659
C116	C	0.821571	0.409201	0.713849
H117	H	0.845969	0.267084	0.151105
Br118	Br	1.119873	0.618685	0.138712
Br119	Br	0.249748	0.770414	0.220774
H120	H	0.227743	1.592391	-0.480147
H121	H	0.899737	0.592558	0.637317
Br122	Br	0.203861	1.731851	-0.726387
H123	H	0.613580	0.846255	-0.166567
H124	H	0.959271	0.592569	0.519574
H125	H	0.657275	0.592571	0.305929
Br126	Br	0.351055	1.391883	-0.247731
H127	H	1.086898	0.418178	0.693947
H128	H	0.355316	1.418023	-0.106680
Br129	Br	0.916766	0.618715	-0.138856
Br130	Br	0.388271	1.618594	-0.751956
Br131	Br	0.554088	1.391969	-0.525406
H132	H	1.228786	0.331034	-0.000207
Br133	Br	0.470014	0.981251	-0.362752
Br134	Br	0.470042	0.754527	-0.362621
H135	H	1.243160	0.418213	0.106645
H136	H	0.899723	0.418139	0.811734
Br137	Br	0.821608	0.731949	0.391115
Br138	Br	0.076186	1.249033	-0.027916
Br139	Br	0.836977	0.727765	-0.474544
Br140	Br	0.613651	0.445004	-0.166340
H141	H	0.227727	1.592446	-0.106625
H142	H	1.115540	0.592638	0.305853
H143	H	0.511644	1.418001	0.106955
H144	H	0.365494	0.807004	0.161732
Br145	Br	0.649282	1.240817	-0.391061
H146	H	0.821560	0.330927	0.792133
H147	H	0.657264	0.418143	0.480347
Br148	Br	1.082517	0.392167	-0.138951
H149	H	0.384069	1.592400	0.107001
H150	H	0.571150	1.454416	-0.637253
H151	H	0.242101	1.679635	0.000216
H152	H	0.171441	1.024828	0.142770
H153	H	1.243144	0.418269	0.480208
Br154	Br	0.547771	1.518333	-0.869750
Br155	Br	1.267026	0.278838	0.726446
H156	H	0.845952	0.441592	0.151003
Br157	Br	0.251329	0.769945	0.013075
H158	H	0.365787	0.807533	0.036366
H159	H	0.813593	0.791696	-0.305962
H160	H	0.286309	1.023775	-0.161284
H161	H	0.286262	1.026878	0.141396
Br162	Br	0.165126	1.002075	-0.194965
Br163	Br	0.215860	1.250398	-0.029845
Br164	Br	0.075495	1.252672	-0.211019
Br165	Br	0.218103	1.248390	-0.217816
H166	H	0.649304	1.240795	-0.792138
