data_functionalizedCrystal
_audit_creation_method	'MofGen! by Chris Wilmer'
_symmetry_space_group_name_H-M	'P1'
_symmetry_Int_Tables_number	1
_symmetry_cell_setting	triclinic
loop_
_symmetry_equiv_pos_as_xyz
  x,y,z
_cell_length_a	29.839134
_cell_length_b	29.839131
_cell_length_c	29.839125
_cell_angle_alpha	90.013540
_cell_angle_beta	90.024313
_cell_angle_gamma	90.034448
loop_
_atom_site_label
_atom_site_type_symbol
_atom_site_fract_x
_atom_site_fract_y
_atom_site_fract_z
Zn1	Zn	0.686719	-0.179003	0.254166
Zn2	Zn	0.686651	-0.254115	0.179041
Zn3	Zn	0.611602	-0.178991	0.179033
Zn4	Zn	0.611549	-0.254097	0.254127
O5	O	0.649130	-0.216552	0.216592
O6	O	0.749577	-0.188980	0.244221
O7	O	0.676689	-0.244152	0.116173
O8	O	0.621617	-0.116125	0.189012
O9	O	0.749527	-0.244164	0.189027
O10	O	0.676805	-0.116134	0.244212
O11	O	0.621550	-0.188958	0.116167
O12	O	0.548727	-0.188941	0.188974
O13	O	0.621527	-0.244134	0.316999
O14	O	0.548689	-0.244122	0.244145
O15	O	0.676754	-0.188962	0.317028
O16	O	0.676638	-0.316980	0.188989
O17	O	0.621461	-0.316967	0.244154
C18	C	0.532407	-0.216528	0.216555
C19	C	0.482473	-0.216529	0.216549
C20	C	0.649048	-0.333274	0.216578
C21	C	0.649054	-0.383209	0.216587
C22	C	0.125893	-0.187777	0.187923
C23	C	0.313566	-0.187764	0.187895
O24	O	0.337838	-0.163279	0.163514
N25	N	0.337028	-0.216536	0.216572
C26	C	0.313568	-0.245312	0.245259
O27	O	0.337830	-0.269781	0.269653
C28	C	0.125896	-0.245322	0.245289
C29	C	0.102437	-0.216551	0.216607
C30	C	0.102434	-0.159007	0.159244
C31	C	0.055519	-0.159013	0.159249
C32	C	0.032062	-0.187787	0.187933
C33	C	0.055521	-0.216556	0.216612
C34	C	0.102437	-0.274095	0.273978
C35	C	0.055516	-0.274094	0.273984
C36	C	0.032057	-0.245323	0.245302
C37	C	-0.014851	-0.245336	0.245302
N38	N	-0.038312	-0.216563	0.216625
C39	C	-0.014855	-0.187789	0.187941
C40	C	0.412099	-0.245305	0.245241
C41	C	0.459016	-0.245303	0.245234
C42	C	0.459012	-0.187755	0.187870
C43	C	0.412093	-0.187759	0.187876
C44	C	0.388637	-0.216533	0.216565
C45	C	-0.113381	-0.187802	0.187954
C46	C	-0.160301	-0.187811	0.187961
C47	C	-0.160292	-0.245358	0.245326
C48	C	-0.113376	-0.245351	0.245318
C49	C	-0.089922	-0.216569	0.216631
O50	O	-0.039151	-0.269804	0.269674
O51	O	-0.039125	-0.163316	0.163558
C52	C	0.172809	-0.187771	0.187917
C53	C	0.196268	-0.216541	0.216596
C54	C	0.172811	-0.245315	0.245281
C55	C	0.243186	-0.216539	0.216588
C56	C	0.266642	-0.187764	0.187904
C57	C	0.243181	-0.158992	0.159227
C58	C	0.196265	-0.158997	0.159233
C59	C	0.196273	-0.274087	0.273957
C60	C	0.243188	-0.274080	0.273949
C61	C	0.266645	-0.245306	0.245265
C62	C	0.620418	-0.739805	0.245314
C63	C	0.620358	-0.552132	0.245300
O64	O	0.595913	-0.527875	0.269716
N65	N	0.649102	-0.528654	0.216600
C66	C	0.677864	-0.552097	0.187904
O67	O	0.702314	-0.527822	0.163497
C68	C	0.677926	-0.739769	0.187921
C69	C	0.649177	-0.763245	0.216619
C70	C	0.591672	-0.763280	0.274010
C71	C	0.591685	-0.810195	0.274012
C72	C	0.620445	-0.833636	0.245317
C73	C	0.649190	-0.810160	0.216621
C74	C	0.706690	-0.763212	0.159228
C75	C	0.706703	-0.810133	0.159235
C76	C	0.677955	-0.833608	0.187933
C77	C	0.677963	-0.880516	0.187928
N78	N	0.649220	-0.903993	0.216627
C79	C	0.620460	-0.880553	0.245322
C80	C	0.677829	-0.453567	0.187897
C81	C	0.677814	-0.406649	0.187892
C82	C	0.620308	-0.406686	0.245289
C83	C	0.620322	-0.453605	0.245291
C84	C	0.649086	-0.477044	0.216597
C85	C	0.620490	-0.979079	0.245323
C86	C	0.620505	-1.025999	0.245320
C87	C	0.678012	-1.025957	0.187926
C88	C	0.677996	-0.979041	0.187926
C89	C	0.649234	-0.955604	0.216628
O90	O	0.702399	-0.904802	0.163528
O91	O	0.596021	-0.904837	0.269733
C92	C	0.620404	-0.692889	0.245313
C93	C	0.649150	-0.669414	0.216616
C94	C	0.677909	-0.692854	0.187922
C95	C	0.649134	-0.622496	0.216612
C96	C	0.620375	-0.599056	0.245306
C97	C	0.591632	-0.622534	0.274006
C98	C	0.591645	-0.669449	0.274007
C99	C	0.706653	-0.669376	0.159222
C100	C	0.706637	-0.622461	0.159222
C101	C	0.677877	-0.599020	0.187917
C102	C	0.766308	-0.216575	0.216629
C103	C	0.816243	-0.216586	0.216645
C104	C	0.649142	-0.216548	0.333770
C105	C	0.649147	-0.216546	0.383704
C106	C	0.649224	-0.099373	0.216615
C107	C	0.649264	-0.049439	0.216625
C108	C	0.649144	-0.216523	0.099869
C109	C	0.649226	-0.216398	0.049935
C110	C	0.677934	-0.187743	0.693366
C111	C	0.677956	-0.187705	0.881039
O112	O	0.702399	-0.163258	0.905319
N113	N	0.649207	-0.216426	0.904490
C114	C	0.620447	-0.245156	0.881019
O115	O	0.595991	-0.269581	0.905272
C116	C	0.620423	-0.245192	0.693347
C117	C	0.649178	-0.216472	0.669899
C118	C	0.706686	-0.159025	0.669918
C119	C	0.706682	-0.159037	0.623002
C120	C	0.677926	-0.187766	0.599535
C121	C	0.649174	-0.216484	0.622983
C122	C	0.591662	-0.273920	0.669877
C123	C	0.591658	-0.273925	0.622956
C124	C	0.620412	-0.245206	0.599508
C125	C	0.620414	-0.245225	0.552601
N126	N	0.649163	-0.216504	0.529150
C127	C	0.677919	-0.187774	0.552617
C128	C	0.620463	-0.245136	0.979550
C129	C	0.620469	-0.245128	1.026468
C130	C	0.677978	-0.187675	1.026484
C131	C	0.677973	-0.187686	0.979566
C132	C	0.649212	-0.216415	0.956099
C133	C	0.677909	-0.187801	0.454091
C134	C	0.677903	-0.187817	0.407172
C135	C	0.620393	-0.245267	0.407159
C136	C	0.620400	-0.245253	0.454075
C137	C	0.649159	-0.216517	0.477540
O138	O	0.595981	-0.269655	0.528292
O139	O	0.702365	-0.163346	0.528357
C140	C	0.677938	-0.187731	0.740282
C141	C	0.649186	-0.216449	0.763730
C142	C	0.620430	-0.245178	0.740263
C143	C	0.649193	-0.216441	0.810648
C144	C	0.677949	-0.187711	0.834115
C145	C	0.706699	-0.158990	0.810664
C146	C	0.706694	-0.159002	0.763749
C147	C	0.591680	-0.273899	0.763713
C148	C	0.591687	-0.273886	0.810629
C149	C	0.620443	-0.245156	0.834096
H150	H	-0.179399	-0.164382	0.164604
Br151	Br	0.716932	-0.148839	0.375352
H152	H	0.392996	-0.164329	0.164522
Br153	Br	0.581379	-0.284233	0.485898
Br154	Br	0.552628	-0.701301	0.312958
Br155	Br	0.275024	-0.119943	0.120297
Br156	Br	0.716936	-0.148798	0.485929
H157	H	0.177179	-0.297519	0.297316
Br158	Br	0.745727	-0.120003	0.842522
Br159	Br	0.581276	-0.374866	0.284230
Br160	Br	0.552621	-0.312915	0.591112
H161	H	0.596982	-0.268659	0.388044
Br162	Br	0.581486	-1.057855	0.284270
H163	H	0.262284	-0.297513	0.297304
H164	H	-0.094290	-0.164363	0.164596
H165	H	0.478118	-0.164326	0.164514
H166	H	0.597070	-0.960001	0.268695
H167	H	0.036423	-0.135584	0.135893
H168	H	0.568213	-0.603441	0.297369
H169	H	0.568275	-0.829305	0.297380
H170	H	0.597059	-0.268519	1.045555
H171	H	0.121528	-0.135573	0.135885
Br172	Br	0.745723	-0.120036	0.701757
Br173	Br	0.745706	-0.120055	0.591187
Br174	Br	-0.081538	-0.284403	0.284237
Br175	Br	0.581305	-0.485460	0.284239
H176	H	0.568253	-0.744199	0.297379
Br177	Br	0.164436	-0.119948	0.120306
Br178	Br	0.716999	-0.148708	0.947748
H179	H	0.701253	-0.472646	0.164529
Br180	Br	0.716824	-0.374795	0.148936
Br181	Br	0.717004	-0.148686	1.058342
H182	H	0.730100	-0.744105	0.135859
H183	H	-0.179399	-0.268787	0.268678
H184	H	0.730128	-0.829215	0.135870
H185	H	0.701401	-0.959927	0.164553
Br186	Br	0.581426	-0.284129	0.947709
Br187	Br	0.552638	-0.312902	0.701688
H188	H	0.730109	-0.135615	0.744661
H189	H	0.568272	-0.297277	0.829716
H190	H	0.036421	-0.297524	0.297348
H191	H	0.701425	-1.045050	0.164562
Br192	Br	0.490848	-0.284359	0.284152
Br193	Br	0.380273	-0.284360	0.284179
Br194	Br	0.745688	-0.701180	0.120276
H195	H	0.730046	-0.603350	0.135849
H196	H	0.121529	-0.297524	0.297334
H197	H	0.568264	-0.297295	0.744611
