data_functionalizedCrystal
_audit_creation_method	'MofGen! by Chris Wilmer'
_symmetry_space_group_name_H-M	'P1'
_symmetry_Int_Tables_number	1
_symmetry_cell_setting	triclinic
loop_
_symmetry_equiv_pos_as_xyz
  x,y,z
_cell_length_a	15.298068
_cell_length_b	29.839131
_cell_length_c	15.296720
_cell_angle_alpha	80.368922
_cell_angle_beta	91.645182
_cell_angle_gamma	99.692747
loop_
_atom_site_label
_atom_site_type_symbol
_atom_site_fract_x
_atom_site_fract_y
_atom_site_fract_z
Zn1	Zn	1.253329	-0.133644	0.727299
Zn2	Zn	1.753329	0.366356	1.227299
Zn3	Zn	1.278569	-0.193979	0.580800
Zn4	Zn	1.778569	0.306021	1.080800
Zn5	Zn	1.132211	-0.129279	0.555468
Zn6	Zn	1.632211	0.370721	1.055468
Zn7	Zn	1.106789	-0.219165	0.701811
Zn8	Zn	1.606789	0.280835	1.201811
O9	O	1.192725	-0.169017	0.641345
O10	O	1.692725	0.330983	1.141345
O11	O	1.379256	-0.132934	0.729134
O12	O	1.879256	0.367066	1.229134
O13	O	1.280356	-0.173030	0.454884
O14	O	1.780356	0.326970	0.954884
O15	O	1.148354	-0.066990	0.578326
O16	O	1.648354	0.433010	1.078326
O17	O	1.397800	-0.177263	0.621502
O18	O	1.897800	0.322737	1.121502
O19	O	1.237339	-0.070197	0.704570
O20	O	1.737339	0.429803	1.204570
O21	O	1.172828	-0.125494	0.436273
O22	O	1.672828	0.374506	0.936273
O23	O	1.006260	-0.149915	0.553612
O24	O	1.506260	0.350085	1.053612
O25	O	1.105026	-0.220187	0.827748
O26	O	1.605026	0.279813	1.327748
O27	O	0.987582	-0.215954	0.661130
O28	O	1.487582	0.284046	1.161130
O29	O	1.212688	-0.157355	0.846473
O30	O	1.712688	0.342645	1.346473
O31	O	1.255706	-0.260188	0.596788
O32	O	1.755706	0.239812	1.096788
O33	O	1.129500	-0.278692	0.685694
O34	O	1.629500	0.221308	1.185694
C35	C	0.965137	-0.185194	0.601857
C36	C	1.465137	0.314806	1.101857
C37	C	0.867771	-0.192128	0.584985
C38	C	1.367771	0.307872	1.084985
C39	C	0.554634	-0.119572	0.761934
C40	C	1.054634	0.380428	1.261934
C41	C	0.646113	-0.113059	0.777791
C42	C	1.146113	0.386941	1.277791
C43	C	0.701532	-0.132826	0.729591
C44	C	1.201532	0.367174	1.229591
C45	C	0.665463	-0.159107	0.665531
C46	C	1.165463	0.340893	1.165531
C47	C	0.573973	-0.165623	0.649677
C48	C	1.073973	0.334377	1.149677
C49	C	0.720872	-0.178877	0.617334
C50	C	1.220872	0.321123	1.117334
C51	C	0.684802	-0.205158	0.553274
C52	C	1.184802	0.294842	1.053274
C53	C	0.593321	-0.211673	0.537422
C54	C	1.093321	0.288327	1.037422
C55	C	0.537902	-0.191906	0.585623
C56	C	1.037902	0.308094	1.085623
C57	C	0.812361	-0.172360	0.633188
C58	C	1.312361	0.327640	1.133188
C59	C	0.831700	-0.218411	0.520931
C60	C	1.331700	0.281589	1.020931
C61	C	0.740221	-0.224924	0.505074
C62	C	1.240221	0.275076	1.005074
C63	C	1.192604	-0.285741	0.641248
C64	C	1.692604	0.214259	1.141248
C65	C	1.192627	-0.335674	0.641249
C66	C	1.692627	0.164326	1.141249
C67	C	1.239033	-0.646961	0.707157
C68	C	1.739033	-0.146961	1.207157
C69	C	1.239119	-0.834633	0.707226
C70	C	1.739119	-0.334633	1.207226
O71	O	1.278454	-0.860299	0.763186
O72	O	1.778454	-0.360299	1.263186
N73	N	1.192857	-0.856458	0.641468
N74	N	1.692857	-0.356458	1.141468
C75	C	1.146564	-0.831363	0.575690
C76	C	1.646564	-0.331363	1.075690
O77	O	1.107210	-0.854234	0.519765
O78	O	1.607210	-0.354234	1.019765
C79	C	1.146474	-0.643693	0.575625
C80	C	1.646474	-0.143693	1.075625
C81	C	1.192747	-0.621869	0.641383
C82	C	1.692747	-0.121869	1.141383
C83	C	1.285302	-0.625137	0.772911
C84	C	1.785302	-0.125137	1.272911
C85	C	1.285284	-0.578221	0.772890
C86	C	1.785284	-0.078221	1.272890
C87	C	1.238997	-0.553130	0.707116
C88	C	1.738997	-0.053130	1.207116
C89	C	1.192729	-0.574954	0.641363
C90	C	1.692729	-0.074954	1.141363
C91	C	1.100177	-0.618600	0.509852
C92	C	1.600177	-0.118600	1.009852
C93	C	1.100157	-0.571680	0.509843
C94	C	1.600157	-0.071680	1.009843
C95	C	1.146430	-0.549856	0.575601
C96	C	1.646430	-0.049856	1.075601
C97	C	1.146424	-0.502946	0.575568
C98	C	1.646424	-0.002946	1.075568
N99	N	1.192687	-0.481121	0.641327
N100	N	1.692687	0.018879	1.141327
C101	C	1.238973	-0.506213	0.707101
C102	C	1.738973	-0.006213	1.207101
C103	C	1.146617	-0.929892	0.575728
C104	C	1.646617	-0.429892	1.075728
C105	C	1.146640	-0.976809	0.575743
C106	C	1.646640	-0.476809	1.075743
C107	C	1.239194	-0.980076	0.707280
C108	C	1.739194	-0.480076	1.207280
C109	C	1.239175	-0.933157	0.707261
C110	C	1.739175	-0.433157	1.207261
C111	C	1.192879	-0.908067	0.641487
C112	C	1.692879	-0.408067	1.141487
C113	C	1.238933	-0.407686	0.707052
C114	C	1.738933	0.092314	1.207052
C115	C	1.238914	-0.360766	0.707023
C116	C	1.738914	0.139234	1.207023
C117	C	1.146357	-0.357504	0.575489
C118	C	1.646357	0.142496	1.075489
C119	C	1.146379	-0.404420	0.575514
C120	C	1.646379	0.095580	1.075514
C121	C	1.192669	-0.429510	0.641303
C122	C	1.692669	0.070490	1.141303
O123	O	1.107102	-0.477253	0.519643
O124	O	1.607102	0.022747	1.019643
O125	O	1.278306	-0.483336	0.763029
O126	O	1.778306	0.016664	1.263029
C127	C	1.239051	-0.693877	0.707178
C128	C	1.739051	-0.193877	1.207178
C129	C	1.192783	-0.715701	0.641425
C130	C	1.692783	-0.215701	1.141425
C131	C	1.146496	-0.690609	0.575651
C132	C	1.646496	-0.190609	1.075651
C133	C	1.192807	-0.762618	0.641440
C134	C	1.692807	-0.262618	1.141440
C135	C	1.239093	-0.787709	0.707214
C136	C	1.739093	-0.287709	1.207214
C137	C	1.285356	-0.765884	0.772973
C138	C	1.785356	-0.265884	1.272973
C139	C	1.285338	-0.718968	0.772952
C140	C	1.785338	-0.218968	1.272952
C141	C	1.100234	-0.712434	0.509892
C142	C	1.600234	-0.212434	1.009892
C143	C	1.100256	-0.759350	0.509918
C144	C	1.600256	-0.259350	1.009918
C145	C	1.146543	-0.784442	0.575691
C146	C	1.646543	-0.284442	1.075691
C147	C	1.421200	-0.152776	0.680987
C148	C	1.921200	0.347224	1.180987
C149	C	1.518563	-0.145855	0.697880
C150	C	2.018563	0.354145	1.197880
C151	C	1.153206	-0.192067	0.869777
C152	C	1.653206	0.307933	1.369777
C153	C	1.136366	-0.201890	0.967121
C154	C	1.636366	0.298110	1.467121
C155	C	1.192866	-0.051836	0.641465
C156	C	1.692866	0.448164	1.141465
C157	C	1.192927	-0.001901	0.641517
C158	C	1.692927	0.498099	1.141517
C159	C	1.232140	-0.146020	0.413810
C160	C	1.732140	0.353980	0.913810
C161	C	1.249150	-0.136058	0.316496
C162	C	1.749150	0.363942	0.816496
C163	C	1.313119	-0.098730	1.280516
C164	C	1.813119	0.401270	1.780516
C165	C	1.328947	-0.089501	1.189058
C166	C	1.828947	0.410499	1.689058
C167	C	1.280803	-0.117598	1.133569
C168	C	1.780803	0.382402	1.633569
C169	C	1.216828	-0.154925	1.169548
C170	C	1.716828	0.345075	1.669548
C171	C	1.201004	-0.164156	1.261016
C172	C	1.701004	0.335844	1.761016
C173	C	1.168687	-0.183024	1.114069
C174	C	1.668687	0.316976	1.614069
C175	C	1.104713	-0.220351	1.150048
C176	C	1.604713	0.279649	1.650048
C177	C	1.088891	-0.229581	1.241507
C178	C	1.588891	0.270419	1.741507
C179	C	1.137035	-0.201484	1.296996
C180	C	1.637035	0.298516	1.796996
C181	C	1.184512	-0.173792	1.022600
C182	C	1.684512	0.326208	1.522600
C183	C	1.072397	-0.239218	1.003100
C184	C	1.572397	0.260782	1.503100
C185	C	1.056569	-0.248447	1.094559
C186	C	1.556569	0.251553	1.594559
H187	H	1.276598	-0.342998	0.760572
H188	H	1.776598	0.157002	1.260572
O189	O	0.685021	-0.084708	0.846866
O190	O	1.185021	0.415292	1.346866
H191	H	0.631120	-0.072052	0.877711
H192	H	1.131120	0.427948	1.377711
O193	O	1.288864	-0.434740	0.778010
O194	O	1.788864	0.065260	1.278010
H195	H	1.241932	-0.463401	0.815751
H196	H	1.741932	0.036599	1.315751
O197	O	0.701311	-0.253268	0.435981
O198	O	1.201311	0.246732	0.935981
H199	H	0.716268	-0.288793	0.453893
H200	H	1.216268	0.211207	0.953893
O201	O	1.289107	-1.007148	0.778228
O202	O	1.789107	-0.507148	1.278228
H203	H	1.360457	-0.991725	0.775203
H204	H	1.860457	-0.491725	1.275203
H205	H	0.509503	-0.103484	0.801177
H206	H	1.009503	0.396516	1.301177
O207	O	1.019899	-0.269843	1.280319
O208	O	1.519899	0.230157	1.780319
H209	H	0.968155	-0.257107	1.314286
H210	H	1.468155	0.242893	1.814286
O211	O	0.851259	-0.144009	0.702266
O212	O	1.351259	0.355991	1.202266
H213	H	0.821817	-0.159949	0.767930
H214	H	1.321817	0.340051	1.267930
O215	O	0.891468	-0.239729	0.468935
O216	O	1.391468	0.260271	0.968935
H217	H	0.851017	-0.259103	0.421736
H218	H	1.351017	0.240897	0.921736
O219	O	0.554412	-0.240017	0.468329
O220	O	1.054412	0.259983	0.968329
H221	H	0.608315	-0.252663	0.437467
H222	H	1.108315	0.247337	0.937467
O223	O	1.335233	-0.652197	0.843855
O224	O	1.835233	-0.152197	1.343855
H225	H	1.367401	-0.629131	0.889564
H226	H	1.867401	-0.129131	1.389564
O227	O	1.335207	-0.554683	0.843804
O228	O	1.835207	-0.054683	1.343804
H229	H	1.367393	-0.580019	0.889536
H230	H	1.867393	-0.080019	1.389536
O231	O	1.335244	-0.695432	0.843878
O232	O	1.835244	-0.195432	1.343878
H233	H	1.386614	-0.666928	0.812445
H234	H	1.886614	-0.166928	1.312445
O235	O	1.365048	-0.068426	1.340351
O236	O	1.865048	0.431574	1.840351
H237	H	1.353108	-0.032462	1.320218
H238	H	1.853108	0.467538	1.820218
O239	O	1.096439	-0.330435	0.504547
O240	O	1.596439	0.169565	1.004547
H241	H	1.025093	-0.345866	0.507582
H242	H	1.525093	0.154134	1.007582
O243	O	0.987571	-0.288706	1.133375
O244	O	1.487571	0.211294	1.633375
H245	H	0.956743	-0.306692	1.079430
H246	H	1.456743	0.193308	1.579430
H247	H	1.276854	-0.915391	0.760807
H248	H	1.776854	-0.415391	1.260807
O249	O	0.800204	-0.125793	0.746673
O250	O	1.300204	0.374207	1.246673
H251	H	0.815977	-0.104192	0.799305
H252	H	1.315977	0.395808	1.299305
O253	O	1.253511	-0.133536	0.983800
O254	O	1.753511	0.366464	1.483800
H255	H	1.221550	-0.109259	0.935346
H256	H	1.721550	0.390741	1.435346
H257	H	1.033195	-0.262097	0.957921
H258	H	1.533195	0.237903	1.457921
O259	O	0.439232	-0.198927	0.568516
O260	O	0.939232	0.301073	1.068516
H261	H	0.412035	-0.236318	0.581893
H262	H	0.912035	0.263682	1.081893
O263	O	1.096739	-1.000346	0.504814
O264	O	1.596739	-0.500346	1.004814
H265	H	1.064544	-0.975012	0.459085
H266	H	1.564544	-0.475012	0.959085
O267	O	1.096698	-0.902830	0.504769
O268	O	1.596698	-0.402830	1.004769
H269	H	1.064548	-0.925892	0.459044
H270	H	1.564548	-0.425892	0.959044
H271	H	1.062578	-0.777114	0.456361
H272	H	1.562578	-0.277114	0.956361
H273	H	1.124151	-0.208996	1.371470
H274	H	1.624151	0.291004	1.871470
H275	H	1.293694	-0.110081	1.059100
H276	H	1.793694	0.389919	1.559100
H277	H	1.062497	-0.636361	0.456305
H278	H	1.562497	-0.136361	0.956305
H279	H	1.381037	-0.059111	1.159771
H280	H	1.881037	0.440889	1.659771
O281	O	1.050232	-0.544616	0.438893
O282	O	1.550232	-0.044616	0.938893
H283	H	1.018071	-0.567676	0.393171
H284	H	1.518071	-0.067676	0.893171
H285	H	1.108708	-0.422188	0.521963
H286	H	1.608708	0.077812	1.021963
H287	H	1.323047	-0.786322	0.826526
H288	H	1.823047	-0.286322	1.326526
O289	O	1.050323	-0.685371	0.438936
O290	O	1.550323	-0.185371	0.938936
H291	H	1.018170	-0.708433	0.393213
H292	H	1.518170	-0.208433	0.893213
