data_functionalizedCrystal
_audit_creation_method	'MofGen! by Chris Wilmer'
_symmetry_space_group_name_H-M	'P1'
_symmetry_Int_Tables_number	1
_symmetry_cell_setting	triclinic
loop_
_symmetry_equiv_pos_as_xyz
  x,y,z
_cell_length_a	27.732048
_cell_length_b	27.732048
_cell_length_c	14.421503
_cell_angle_alpha	90.000679
_cell_angle_beta	90.002062
_cell_angle_gamma	82.642655
loop_
_atom_site_label
_atom_site_type_symbol
_atom_site_fract_x
_atom_site_fract_y
_atom_site_fract_z
O1	O	0.640930	0.057510	0.077002
O2	O	1.140930	0.557510	0.577002
O3	O	0.500137	0.066256	0.077032
O4	O	1.000137	0.566256	0.577032
O5	O	0.574906	-0.008514	0.076998
O6	O	1.074906	0.491486	0.576998
O7	O	0.566161	0.132280	0.077035
O8	O	1.066161	0.632280	0.577035
O9	O	0.574894	-0.008503	-0.077225
O10	O	1.074894	0.491497	0.422775
O11	O	0.500124	0.066267	-0.077192
O12	O	1.000124	0.566267	0.422808
O13	O	0.640918	0.057521	-0.077221
O14	O	1.140918	0.557521	0.422779
Cu15	Cu	0.570520	0.061895	-0.091288
Cu16	Cu	1.070520	0.561895	0.408712
Cu17	Cu	0.570535	0.061882	0.091099
Cu18	Cu	1.070535	0.561882	0.591099
O19	O	0.566148	0.132291	-0.077188
O20	O	1.066148	0.632291	0.422812
C21	C	0.482124	0.066078	-0.000077
C22	C	0.982124	0.566078	0.499923
C23	C	0.428469	0.065525	-0.000066
C24	C	0.928469	0.565525	0.499934
C25	C	0.089654	0.106229	-0.000096
C26	C	0.589654	0.606229	0.499904
C27	C	-0.112006	0.104178	-0.000104
C28	C	0.387994	0.604178	0.499896
O29	O	-0.143262	0.141398	-0.000135
O30	O	0.356738	0.641398	0.499865
N31	N	-0.131130	0.059843	-0.000115
N32	N	0.368870	0.559843	0.499885
C33	C	-0.099835	0.016017	-0.000128
C34	C	0.400165	0.516017	0.499872
O35	O	-0.120728	-0.021740	-0.000147
O36	O	0.379272	0.478260	0.499853
C37	C	0.101824	0.018068	-0.000126
C38	C	0.601824	0.518068	0.499874
C39	C	0.120944	0.062407	-0.000107
C40	C	0.620944	0.562407	0.499893
C41	C	0.108775	0.150563	-0.000077
C42	C	0.608775	0.650563	0.499923
C43	C	0.159187	0.151076	-0.000070
C44	C	0.659187	0.651076	0.499930
C45	C	0.190477	0.107253	-0.000081
C46	C	0.690477	0.607253	0.499919
C47	C	0.171356	0.062919	-0.000100
C48	C	0.671356	0.562919	0.499900
C49	C	0.133117	-0.025757	-0.000147
C50	C	0.633117	0.474243	0.499853
C51	C	0.183535	-0.025240	-0.000149
C52	C	0.683535	0.474760	0.499851
C53	C	0.202655	0.019098	-0.000129
C54	C	0.702655	0.519098	0.499871
C55	C	0.253059	0.019609	-0.000103
C56	C	0.753059	0.519609	0.499897
N57	N	0.272183	0.063944	-0.000093
N58	N	0.772183	0.563944	0.499907
C59	C	0.240892	0.107766	-0.000082
C60	C	0.740892	0.607766	0.499918
C61	C	-0.205709	0.014943	-0.000128
C62	C	0.294291	0.514943	0.499872
C63	C	-0.256124	0.014430	-0.000127
C64	C	0.243876	0.514430	0.499873
C65	C	-0.268291	0.102591	-0.000104
C66	C	0.231709	0.602591	0.499896
C67	C	-0.217876	0.103104	-0.000099
C68	C	0.282124	0.603104	0.499901
C69	C	-0.186585	0.059278	-0.000118
C70	C	0.313415	0.559278	0.499882
C71	C	0.346761	0.108839	-0.000066
C72	C	0.846761	0.608839	0.499934
C73	C	0.397178	0.109347	-0.000055
C74	C	0.897178	0.609347	0.499945
C75	C	0.409341	0.021186	-0.000082
C76	C	0.909341	0.521186	0.499918
C77	C	0.358929	0.020678	-0.000088
C78	C	0.858929	0.520678	0.499912
C79	C	0.327639	0.064508	-0.000084
C80	C	0.827639	0.564508	0.499916
O81	O	0.284343	-0.017592	-0.000084
O82	O	0.784343	0.482408	0.499916
O83	O	0.261794	0.145518	-0.000085
O84	O	0.761794	0.645518	0.499915
C85	C	0.039242	0.105716	-0.000103
C86	C	0.539242	0.605716	0.499897
C87	C	0.020120	0.061382	-0.000121
C88	C	0.520120	0.561382	0.499879
C89	C	0.051411	0.017560	-0.000132
C90	C	0.551411	0.517560	0.499868
C91	C	-0.030294	0.060869	-0.000120
C92	C	0.469706	0.560869	0.499880
C93	C	-0.061585	0.104691	-0.000109
C94	C	0.438415	0.604691	0.499891
C95	C	-0.042461	0.149026	-0.000099
C96	C	0.457539	0.649026	0.499901
C97	C	0.007951	0.149539	-0.000092
C98	C	0.507951	0.649539	0.499908
C99	C	0.032287	-0.026775	-0.000143
C100	C	0.532287	0.473225	0.499857
C101	C	-0.018125	-0.027284	-0.000149
C102	C	0.481875	0.472716	0.499851
C103	C	-0.049416	0.016538	-0.000138
C104	C	0.450584	0.516538	0.499862
C105	C	0.574716	-0.026515	-0.000116
C106	C	1.074716	0.473485	0.499884
C107	C	0.574164	-0.080170	-0.000124
C108	C	1.074164	0.419830	0.499876
C109	C	0.614867	-0.418985	-0.000084
C110	C	1.114867	0.081015	0.499916
C111	C	0.612816	-0.620645	-0.000071
C112	C	1.112816	-0.120645	0.499929
O113	O	0.650037	-0.651900	-0.000038
O114	O	1.150037	-0.151900	0.499962
N115	N	0.568481	-0.639768	-0.000063
N116	N	1.068481	-0.139768	0.499937
C117	C	0.524656	-0.608474	-0.000052
C118	C	1.024656	-0.108474	0.499948
O119	O	0.486899	-0.629367	-0.000035
O120	O	0.986899	-0.129367	0.499965
C121	C	0.526707	-0.406815	-0.000058
C122	C	1.026707	0.093185	0.499942
C123	C	0.571045	-0.387694	-0.000076
C124	C	1.071045	0.112306	0.499924
C125	C	0.659202	-0.399864	-0.000101
C126	C	1.159202	0.100136	0.499899
C127	C	0.659714	-0.349452	-0.000110
C128	C	1.159714	0.150548	0.499890
C129	C	0.615892	-0.318161	-0.000101
C130	C	1.115892	0.181839	0.499899
C131	C	0.571557	-0.337282	-0.000084
C132	C	1.071557	0.162718	0.499916
C133	C	0.482882	-0.375521	-0.000040
C134	C	0.982882	0.124479	0.499960
C135	C	0.483399	-0.325104	-0.000040
C136	C	0.983399	0.174896	0.499960
C137	C	0.527737	-0.305983	-0.000058
C138	C	1.027737	0.194017	0.499942
C139	C	0.528247	-0.255580	-0.000084
C140	C	1.028247	0.244420	0.499916
N141	N	0.572583	-0.236456	-0.000093
N142	N	1.072583	0.263544	0.499907
C143	C	0.616405	-0.267747	-0.000101
C144	C	1.116405	0.232253	0.499899
C145	C	0.523582	-0.714348	-0.000050
C146	C	1.023582	-0.214348	0.499950
C147	C	0.523069	-0.764762	-0.000050
C148	C	1.023069	-0.264762	0.499950
C149	C	0.611230	-0.776930	-0.000068
C150	C	1.111230	-0.276930	0.499932
C151	C	0.611742	-0.726514	-0.000074
C152	C	1.111742	-0.226514	0.499926
C153	C	0.567917	-0.695224	-0.000058
C154	C	1.067917	-0.195224	0.499942
C155	C	0.617477	-0.161878	-0.000120
C156	C	1.117477	0.338122	0.499880
C157	C	0.617986	-0.111461	-0.000132
C158	C	1.117986	0.388539	0.499868
C159	C	0.529825	-0.099298	-0.000109
C160	C	1.029825	0.400702	0.499891
C161	C	0.529316	-0.149710	-0.000102
C162	C	1.029316	0.350290	0.499898
C163	C	0.573147	-0.180999	-0.000104
C164	C	1.073147	0.319001	0.499896
O165	O	0.491047	-0.224296	-0.000107
O166	O	0.991047	0.275704	0.499893
O167	O	0.654156	-0.246844	-0.000098
O168	O	1.154156	0.253156	0.499902
C169	C	0.614355	-0.469397	-0.000076
C170	C	1.114355	0.030603	0.499924
C171	C	0.570021	-0.488518	-0.000059
C172	C	1.070021	0.011482	0.499941
C173	C	0.526198	-0.457228	-0.000051
C174	C	1.026198	0.042772	0.499949
C175	C	0.569508	-0.538933	-0.000059
C176	C	1.069508	-0.038933	0.499941
C177	C	0.613330	-0.570223	-0.000068
C178	C	1.113330	-0.070223	0.499932
C179	C	0.657665	-0.551100	-0.000076
C180	C	1.157665	-0.051100	0.499924
C181	C	0.658177	-0.500688	-0.000084
C182	C	1.158177	-0.000688	0.499916
C183	C	0.481863	-0.476351	-0.000042
C184	C	0.981863	0.023649	0.499958
C185	C	0.481355	-0.526764	-0.000035
C186	C	0.981355	-0.026764	0.499965
C187	C	0.525177	-0.558054	-0.000044
C188	C	1.025177	-0.058054	0.499956
C189	C	0.658931	0.057699	-0.000111
C190	C	1.158931	0.557699	0.499889
C191	C	0.712586	0.058252	-0.000116
C192	C	1.212586	0.558252	0.499884
C193	C	0.566338	0.150292	-0.000072
C194	C	1.066338	0.650292	0.499928
C195	C	0.566891	0.203947	-0.000058
C196	C	1.066891	0.703947	0.499942
N197	N	0.570513	0.061904	-0.219570
N198	N	1.070513	0.561904	0.280430
C199	C	0.535934	0.096462	-0.469208
C200	C	1.035934	0.596462	0.030792
C201	C	0.579543	0.105518	-0.531017
C202	C	1.079543	0.605518	-0.031017
C203	C	0.570525	0.061892	-0.408731
C204	C	1.070525	0.561892	0.091269
C205	C	0.526927	0.052848	-0.531016
C206	C	1.026927	0.552848	-0.031016
C207	C	0.570532	0.061882	-0.591453
C208	C	1.070532	0.561882	-0.091453
C209	C	0.614156	0.070970	-0.469179
C210	C	1.114156	0.570970	0.030821
C211	C	0.561512	0.018281	-0.469173
C212	C	1.061512	0.518281	0.030827
C213	C	0.605152	0.027318	-0.530954
C214	C	1.105152	0.527318	-0.030954
C215	C	0.570520	0.061900	-0.303470
C216	C	1.070520	0.561900	0.196530
C217	C	0.570543	0.061875	-0.696711
C218	C	1.070543	0.561875	-0.196711
N219	N	0.570545	0.061869	0.219380
N220	N	1.070545	0.561869	0.719380
H221	H	-0.271687	-0.021674	-0.000128
H222	H	0.228313	0.478326	0.499872
H223	H	0.695819	-0.333889	-0.000120
H224	H	1.195819	0.166111	0.499880
H225	H	0.490054	0.045202	-0.558181
H226	H	0.990054	0.545202	-0.058181
H227	H	0.553867	-0.018584	-0.441987
H228	H	1.053867	0.481416	0.058013
C229	C	-0.171685	-0.032607	0.000008
C230	C	0.328315	0.467393	0.500008
C231	C	-0.142376	-0.034890	0.079341
C232	C	0.357624	0.465110	0.579341
C233	C	-0.111026	-0.078683	0.079497
C234	C	0.388974	0.421317	0.579497
H235	H	-0.190239	-0.059121	0.000053
H236	H	0.309761	0.440879	0.500053
H237	H	-0.151737	-0.034246	-0.053745
H238	H	0.348263	0.465754	0.446255
H239	H	-0.162322	-0.033256	0.133080
H240	H	0.337678	0.466744	0.633080
H241	H	-0.123812	-0.008386	0.079313
H242	H	0.376188	0.491614	0.579313
H243	H	-0.091078	-0.080322	0.025744
H244	H	0.408922	0.419678	0.525744
H245	H	-0.129584	-0.105193	0.079539
H246	H	0.370416	0.394807	0.579539
H247	H	-0.091133	-0.080236	0.133319
H248	H	0.408867	0.419764	0.633319
H249	H	-0.033688	-0.063392	-0.000157
H250	H	0.466312	0.436608	0.499843
H251	H	0.434827	-0.014492	-0.000088
H252	H	0.934827	0.485508	0.499912
H253	H	0.651037	0.078660	-0.442131
H254	H	1.151037	0.578660	0.057869
C255	C	0.644274	-0.011612	-0.566836
C256	C	1.144274	0.488388	-0.066836
C257	C	0.689814	-0.001916	-0.535353
C258	C	1.189814	0.498084	-0.035353
C259	C	0.725866	-0.037762	-0.568401
C260	C	1.225866	0.462238	-0.068401
H261	H	0.638198	-0.042534	-0.544745
H262	H	1.138198	0.457466	-0.044745
H263	H	0.643920	-0.011575	-0.632711
H264	H	1.143920	0.488425	-0.132711
H265	H	0.690168	-0.001958	-0.469492
H266	H	1.190168	0.498042	0.030508
H267	H	0.695906	0.028999	-0.557441
H268	H	1.195906	0.528999	-0.057441
H269	H	0.725512	-0.037725	-0.634276
H270	H	1.225512	0.462275	-0.134276
H271	H	0.719785	-0.068682	-0.546308
H272	H	1.219785	0.431318	-0.046308
H273	H	0.756770	-0.031186	-0.547051
H274	H	1.256770	0.468814	-0.047051
H275	H	0.174750	0.187180	-0.000054
H276	H	0.674750	0.687180	0.499946
H277	H	0.506711	0.125720	-0.442097
H278	H	1.006711	0.625720	0.057903
H279	H	0.412743	0.145454	-0.000039
H280	H	0.912743	0.645454	0.499961
C281	C	0.074887	0.198198	-0.000013
C282	C	0.574887	0.698198	0.499987
C283	C	0.102434	0.237128	0.000026
C284	C	0.602434	0.737128	0.500026
C285	C	0.071237	0.281020	0.000106
C286	C	0.571237	0.781020	0.500106
H287	H	0.054952	0.199911	-0.053776
H288	H	0.554952	0.699911	0.446224
H289	H	0.054978	0.199855	0.053793
H290	H	0.554978	0.699855	0.553793
H291	H	0.122335	0.235472	-0.053775
H292	H	0.622335	0.735472	0.446225
H293	H	0.122368	0.235431	0.053785
H294	H	0.622368	0.735431	0.553785
H295	H	0.051328	0.282676	0.053912
H296	H	0.551328	0.782676	0.553912
H297	H	0.051303	0.282728	-0.053658
H298	H	0.551303	0.782728	0.446342
H299	H	0.089923	0.307439	0.000140
H300	H	0.589923	0.807439	0.500140
C301	C	0.066176	-0.074409	-0.000103
C302	C	0.566176	0.425591	0.499897
C303	C	0.038632	-0.113340	-0.000090
C304	C	0.538632	0.386660	0.499910
C305	C	0.069831	-0.157231	-0.000035
C306	C	0.569831	0.342769	0.499965
H307	H	0.086109	-0.076112	-0.053865
H308	H	0.586109	0.423888	0.446135
H309	H	0.086087	-0.076073	0.053704
H310	H	0.586087	0.423927	0.553704
H311	H	0.018729	-0.111677	-0.053891
H312	H	0.518729	0.388323	0.446109
H313	H	0.018700	-0.111653	0.053669
H314	H	0.518700	0.388347	0.553669
H315	H	0.089742	-0.158895	0.053771
H316	H	0.589742	0.341105	0.553771
H317	H	0.089762	-0.158929	-0.053799
H318	H	0.589762	0.341071	0.446201
H319	H	0.051147	-0.183651	-0.000018
H320	H	0.551147	0.316349	0.499982
C321	C	0.312875	0.156477	-0.000005
C322	C	0.812875	0.656477	0.499995
C323	C	0.340420	0.195408	0.000039
C324	C	0.840420	0.695408	0.500039
C325	C	0.309221	0.239299	0.000115
C326	C	0.809221	0.739299	0.500115
H327	H	0.292942	0.158189	-0.053771
H328	H	0.792942	0.658189	0.446229
H329	H	0.292964	0.158132	0.053798
H330	H	0.792964	0.658132	0.553798
H331	H	0.360323	0.193753	-0.053759
H332	H	0.860323	0.693753	0.446241
H333	H	0.360352	0.193712	0.053801
H334	H	0.860352	0.693712	0.553801
H335	H	0.289310	0.240954	0.053918
H336	H	0.789310	0.740954	0.553918
H337	H	0.289290	0.241006	-0.053652
H338	H	0.789290	0.741006	0.446348
H339	H	0.327906	0.265718	0.000154
H340	H	0.827906	0.765718	0.500154
C341	C	0.433262	-0.547614	-0.000060
C342	C	0.933262	-0.047614	0.499940
C343	C	0.442185	-0.598462	-0.000073
C344	C	0.942185	-0.098462	0.499927
C345	C	0.397895	-0.617684	-0.000098
C346	C	0.897895	-0.117684	0.499902
H347	H	0.415207	-0.536899	0.053713
H348	H	0.915207	-0.036899	0.553713
H349	H	0.415222	-0.536880	-0.053856
H350	H	0.915222	-0.036880	0.446144
H351	H	0.460216	-0.609191	0.053718
H352	H	0.960216	-0.109191	0.553718
H353	H	0.460232	-0.609191	-0.053842
H354	H	0.960232	-0.109191	0.446158
H355	H	0.379856	-0.606950	-0.053894
H356	H	0.879856	-0.106950	0.446106
H357	H	0.379844	-0.606965	0.053676
H358	H	0.879844	-0.106965	0.553676
H359	H	0.403944	-0.652186	-0.000115
H360	H	0.903944	-0.152186	0.499885
C361	C	0.659931	-0.705851	-0.000035
C362	C	1.159931	-0.205851	0.499965
C363	C	0.698195	-0.744050	-0.000021
C364	C	1.198195	-0.244050	0.499979
C365	C	0.742595	-0.725037	0.000031
C366	C	1.242595	-0.225037	0.500031
H367	H	0.662032	-0.686444	-0.053799
H368	H	1.162032	-0.186444	0.446201
H369	H	0.661995	-0.686454	0.053770
H370	H	1.161995	-0.186454	0.553770
H371	H	0.696132	-0.763439	-0.053821
H372	H	1.196132	-0.263439	0.446179
H373	H	0.696110	-0.763461	0.053739
H374	H	1.196110	-0.263461	0.553739
H375	H	0.744659	-0.705640	0.053836
H376	H	1.244659	-0.205640	0.553836
H377	H	0.744691	-0.705630	-0.053734
H378	H	1.244691	-0.205630	0.446266
H379	H	0.768562	-0.750952	0.000049
H380	H	1.268562	-0.250952	0.500049
H381	H	0.343360	-0.015426	-0.000091
H382	H	0.843360	0.484574	0.499909
C383	C	0.217426	-0.072875	-0.000115
C384	C	0.717426	0.427125	0.499885
C385	C	0.189886	-0.111810	-0.000108
C386	C	0.689886	0.388190	0.499892
C387	C	0.221088	-0.155698	-0.000061
C388	C	0.721088	0.344302	0.499939
H389	H	0.237358	-0.074574	-0.053879
H390	H	0.737358	0.425426	0.446121
H391	H	0.237338	-0.074540	0.053690
H392	H	0.737338	0.425460	0.553690
H393	H	0.169982	-0.110146	-0.053908
H394	H	0.669982	0.389854	0.446092
H395	H	0.169955	-0.110126	0.053652
H396	H	0.669955	0.389874	0.553652
H397	H	0.241000	-0.157362	0.053745
H398	H	0.741000	0.342638	0.553745
H399	H	0.241019	-0.157392	-0.053825
H400	H	0.741019	0.342608	0.446175
H401	H	0.202407	-0.182120	-0.000047
H402	H	0.702407	0.317880	0.499953
C403	C	0.434230	-0.442463	-0.000088
C404	C	0.934230	0.057537	0.499912
C405	C	0.395298	-0.470007	-0.000103
C406	C	0.895298	0.029993	0.499897
C407	C	0.351408	-0.438808	-0.000163
C408	C	0.851408	0.061192	0.499837
H409	H	0.432526	-0.422528	0.053674
H410	H	0.932526	0.077472	0.553674
H411	H	0.432566	-0.422554	-0.053896
H412	H	0.932566	0.077446	0.446104
H413	H	0.396961	-0.489908	0.053700
H414	H	0.896961	0.010092	0.553700
H415	H	0.396986	-0.489941	-0.053860
H416	H	0.896986	0.010059	0.446140
H417	H	0.349744	-0.418899	-0.053971
H418	H	0.849744	0.081101	0.446029
H419	H	0.349709	-0.418874	0.053599
H420	H	0.849709	0.081126	0.553599
H421	H	0.324988	-0.457492	-0.000182
H422	H	0.824988	0.042508	0.499818
C423	C	0.665027	-0.195900	-0.000272
C424	C	1.165027	0.304100	0.499728
C425	C	0.667299	-0.225209	-0.079602
C426	C	1.167299	0.274791	0.420398
C427	C	0.711091	-0.256561	-0.079774
C428	C	1.211091	0.243439	0.420226
H429	H	0.691542	-0.177347	-0.000332
H430	H	1.191542	0.322653	0.499668
H431	H	0.666674	-0.215848	0.053483
H432	H	1.166674	0.284152	0.553483
H433	H	0.665658	-0.205264	-0.133343
H434	H	1.165658	0.294736	0.366657
H435	H	0.640795	-0.243773	-0.079559
H436	H	1.140795	0.256227	0.420441
H437	H	0.712738	-0.276508	-0.026019
H438	H	1.212738	0.223492	0.473981
H439	H	0.737602	-0.238003	-0.079832
H440	H	1.237602	0.261997	0.420168
H441	H	0.712637	-0.276453	-0.133594
H442	H	1.212637	0.223547	0.366406
H443	H	0.117558	-0.061861	-0.000163
H444	H	0.617558	0.438139	0.499837
H445	H	-0.067947	0.184708	-0.000086
H446	H	0.432053	0.684708	0.499914
C447	C	-0.197092	0.151228	0.000109
C448	C	0.302908	0.651228	0.500109
C449	C	-0.168512	0.154100	0.079465
C450	C	0.331488	0.654100	0.579465
C451	C	-0.149368	0.198430	0.079694
C452	C	0.350632	0.698430	0.579694
H453	H	-0.177649	0.153317	-0.053609
H454	H	0.322351	0.653317	0.446391
H455	H	-0.222940	0.177265	0.000169
H456	H	0.277060	0.677265	0.500169
H457	H	-0.142668	0.128071	0.079396
H458	H	0.357332	0.628071	0.579396
H459	H	-0.187945	0.152020	0.133196
H460	H	0.312055	0.652020	0.633196
H461	H	-0.175215	0.224467	0.079754
H462	H	0.324785	0.724467	0.579754
H463	H	-0.129926	0.200515	0.025972
H464	H	0.370074	0.700515	0.525972
H465	H	-0.129978	0.200387	0.133539
H466	H	0.370022	0.700387	0.633539
H467	H	0.493213	-0.165279	-0.000113
H468	H	0.993213	0.334721	0.499887
H469	H	0.654093	-0.095896	-0.000149
H470	H	1.154093	0.404104	0.499851
H471	H	-0.293777	0.138273	-0.000096
H472	H	0.206223	0.638273	0.499904
C473	C	0.589622	0.154728	-0.567196
C474	C	1.089622	0.654728	-0.067196
C475	C	0.553292	0.190789	-0.535937
C476	C	1.053292	0.690789	-0.035937
C477	C	0.562554	0.236127	-0.569253
C478	C	1.062554	0.736127	-0.069253
H479	H	0.620338	0.161455	-0.545135
H480	H	1.120338	0.661455	-0.045135
H481	H	0.589824	0.154296	-0.633068
H482	H	1.089824	0.654296	-0.133068
H483	H	0.553095	0.191222	-0.470079
H484	H	1.053095	0.691222	0.029921
H485	H	0.522572	0.184078	-0.557996
H486	H	1.022572	0.684078	-0.057996
H487	H	0.562756	0.235695	-0.635125
H488	H	1.062756	0.735695	-0.135125
H489	H	0.593271	0.242849	-0.547190
H490	H	1.093271	0.742849	-0.047190
H491	H	0.537903	0.260599	-0.548056
H492	H	1.037903	0.760599	-0.048056
C493	C	0.706837	-0.433752	-0.000162
C494	C	1.206837	0.066248	0.499838
C495	C	0.745767	-0.406205	-0.000200
C496	C	1.245767	0.093795	0.499800
C497	C	0.789658	-0.437402	-0.000277
C498	C	1.289658	0.062598	0.499723
H499	H	0.708550	-0.453685	0.053601
H500	H	1.208550	0.046315	0.553601
H501	H	0.708493	-0.453662	-0.053968
H502	H	1.208493	0.046338	0.446032
H503	H	0.744111	-0.386302	0.053600
H504	H	1.244111	0.113698	0.553600
H505	H	0.744069	-0.386272	-0.053959
H506	H	1.244069	0.113728	0.446041
H507	H	0.791314	-0.457313	-0.054083
H508	H	1.291314	0.042687	0.445917
H509	H	0.791367	-0.457334	0.053487
H510	H	1.291367	0.042666	0.553487
H511	H	0.816077	-0.418716	-0.000311
H512	H	1.316077	0.081284	0.499689
H513	H	0.023514	0.185643	-0.000077
H514	H	0.523514	0.685643	0.499923
H515	H	0.646911	-0.802415	-0.000075
H516	H	1.146911	-0.302415	0.499925
C517	C	0.474880	-0.785424	0.000006
C518	C	0.974880	-0.285424	0.500006
C519	C	0.436615	-0.747225	0.000040
C520	C	0.936615	-0.247225	0.500040
C521	C	0.392216	-0.766238	0.000110
C522	C	0.892216	-0.266238	0.500110
H523	H	0.472770	-0.804830	-0.053758
H524	H	0.972770	-0.304830	0.446242
H525	H	0.472824	-0.804823	0.053811
H526	H	0.972824	-0.304823	0.553811
H527	H	0.438670	-0.727835	-0.053759
H528	H	0.938670	-0.227835	0.446241
H529	H	0.438709	-0.727816	0.053801
H530	H	0.938709	-0.227816	0.553801
H531	H	0.390160	-0.785637	0.053915
H532	H	0.890160	-0.285637	0.553915
H533	H	0.390111	-0.785644	-0.053655
H534	H	0.890111	-0.285644	0.446345
H535	H	0.366248	-0.740323	0.000142
H536	H	0.866248	-0.240323	0.500142
H537	H	0.487892	-0.688875	-0.000037
H538	H	0.987892	-0.188875	0.499963
H539	H	0.446777	-0.391080	-0.000020
H540	H	0.946777	0.108920	0.499980
C541	C	0.435763	-0.291212	-0.000070
C542	C	0.935763	0.208788	0.499930
C543	C	0.396829	-0.318753	-0.000076
C544	C	0.896829	0.181247	0.499924
C545	C	0.352941	-0.287550	-0.000118
C546	C	0.852941	0.212450	0.499882
H547	H	0.434067	-0.271280	0.053695
H548	H	0.934067	0.228720	0.553695
H549	H	0.434096	-0.271301	-0.053875
H550	H	0.934096	0.228699	0.446125
H551	H	0.398495	-0.338656	0.053723
H552	H	0.898495	0.161344	0.553723
H553	H	0.398510	-0.338684	-0.053837
H554	H	0.898510	0.161316	0.446163
H555	H	0.351274	-0.267638	-0.053923
H556	H	0.851274	0.232362	0.446077
H557	H	0.351249	-0.267619	0.053647
H558	H	0.851249	0.232381	0.553647
H559	H	0.326519	-0.306232	-0.000131
H560	H	0.826519	0.193768	0.499869
C561	C	0.482197	-0.065399	-0.000138
C562	C	0.982197	0.434601	0.499862
C563	C	0.443255	-0.092930	-0.000142
C564	C	0.943255	0.407070	0.499858
C565	C	0.399373	-0.061719	-0.000171
C566	C	0.899373	0.438281	0.499829
H567	H	0.480507	-0.045469	0.053630
H568	H	0.980507	0.454531	0.553630
H569	H	0.480531	-0.045485	-0.053939
H570	H	0.980531	0.454515	0.446061
H571	H	0.444920	-0.112836	0.053654
H572	H	0.944920	0.387164	0.553654
H573	H	0.444929	-0.112859	-0.053906
H574	H	0.944929	0.387141	0.446094
H575	H	0.397707	-0.041805	-0.053972
H576	H	0.897707	0.458195	0.446028
H577	H	0.397688	-0.041791	0.053598
H578	H	0.897688	0.458209	0.553598
H579	H	0.372946	-0.080394	-0.000182
H580	H	0.872946	0.419606	0.499818
C581	C	0.705229	-0.585102	0.000110
C582	C	1.205229	-0.085102	0.500110
C583	C	0.707514	-0.614387	0.079471
C584	C	1.207514	-0.114387	0.579471
C585	C	0.751323	-0.645713	0.079686
C586	C	1.251323	-0.145713	0.579686
H587	H	0.706903	-0.605070	-0.053605
H588	H	1.206903	-0.105070	0.446395
H589	H	0.731725	-0.566515	0.000153
H590	H	1.231725	-0.066515	0.500153
H591	H	0.681026	-0.632973	0.079420
H592	H	1.181026	-0.132973	0.579420
H593	H	0.705849	-0.594432	0.133199
H594	H	1.205849	-0.094432	0.633199
H595	H	0.777819	-0.627126	0.079730
H596	H	1.277819	-0.127126	0.579730
H597	H	0.752993	-0.665678	0.025969
H598	H	1.252993	-0.165678	0.525969
H599	H	0.752881	-0.665584	0.133536
H600	H	1.252881	-0.165584	0.633536
H601	H	0.694282	-0.485125	-0.000099
H602	H	1.194282	0.014875	0.499901
