data_functionalizedCrystal
_audit_creation_method	'MofGen! by Chris Wilmer'
_symmetry_space_group_name_H-M	'P1'
_symmetry_Int_Tables_number	1
_symmetry_cell_setting	triclinic
loop_
_symmetry_equiv_pos_as_xyz
  x,y,z
_cell_length_a	16.625546
_cell_length_b	19.077236
_cell_length_c	19.076919
_cell_angle_alpha	90.112677
_cell_angle_beta	87.730083
_cell_angle_gamma	92.315185
loop_
_atom_site_label
_atom_site_type_symbol
_atom_site_fract_x
_atom_site_fract_y
_atom_site_fract_z
Zn1	Zn	-0.292690	1.058301	0.440534
Zn2	Zn	0.207310	1.558301	0.940534
Zn3	Zn	-0.421906	1.062945	0.323024
Zn4	Zn	0.078094	1.562945	0.823024
Zn5	Zn	-0.292268	0.945516	0.318314
Zn6	Zn	0.207732	1.445516	0.818314
Zn7	Zn	-0.432663	0.940764	0.435762
Zn8	Zn	0.067337	1.440764	0.935762
O9	O	-0.359882	1.001881	0.379409
O10	O	0.140118	1.501881	0.879409
O11	O	-0.305506	1.157250	0.428915
O12	O	0.194494	1.657250	0.928915
O13	O	-0.400030	1.051300	0.224069
O14	O	0.099970	1.551300	0.724069
O15	O	-0.179490	0.960522	0.334553
O16	O	0.320510	1.460522	0.834553
O17	O	-0.400440	1.160662	0.342581
O18	O	0.099560	1.660662	0.842581
O19	O	-0.179801	1.043385	0.424348
O20	O	0.320199	1.543385	0.924348
O21	O	-0.304786	0.965025	0.220609
O22	O	0.195214	1.465025	0.720609
O23	O	-0.315216	0.846552	0.329926
O24	O	0.184784	1.346552	0.829926
O25	O	-0.418774	0.952423	0.534726
O26	O	0.081226	1.452423	1.034726
O27	O	-0.418364	0.843061	0.416214
O28	O	0.081636	1.343061	0.916214
O29	O	-0.315937	1.038777	0.538232
O30	O	0.184063	1.538777	1.038232
O31	O	-0.536166	1.046692	0.337953
O32	O	-0.036166	1.546692	0.837953
O33	O	-0.544069	0.956927	0.420781
O34	O	-0.044069	1.456927	0.920781
C35	C	-0.367912	0.819310	0.372042
C36	C	0.132088	1.319310	0.872042
C37	C	-0.371368	0.741204	0.368907
C38	C	0.128632	1.241204	0.868907
C39	C	-0.323649	0.702731	0.412452
C40	C	0.176351	1.202731	0.912452
C41	C	-0.326892	0.629343	0.409500
C42	C	0.173108	1.129343	0.909500
C43	C	-0.377858	0.594429	0.363006
C44	C	0.122142	1.094429	0.863006
C45	C	-0.425579	0.632907	0.319456
C46	C	0.074421	1.132907	0.819456
C47	C	-0.422331	0.706294	0.322405
C48	C	0.077669	1.206294	0.822405
C49	C	-0.392858	0.375136	0.349356
C50	C	0.107142	0.875136	0.849356
C51	C	-0.396104	0.301744	0.346412
C52	C	0.103896	0.801744	0.846412
C53	C	-0.297416	0.298185	0.436456
C54	C	0.202584	0.798185	0.936456
C55	C	-0.294176	0.371573	0.439403
C56	C	0.205824	0.871573	0.939403
C57	C	-0.341894	0.410045	0.395851
C58	C	0.158106	0.910045	0.895851
N59	N	-0.381176	0.519414	0.359989
N60	N	0.118824	1.019414	0.859989
N61	N	-0.338571	0.485059	0.398864
N62	N	0.161429	0.985059	0.898864
C63	C	-0.569374	1.001816	0.379377
C64	C	-0.069374	1.501816	0.879377
C65	C	-0.658994	1.001851	0.379389
C66	C	-0.158994	1.501851	0.879389
C67	C	-0.987168	1.001971	0.379467
C68	C	-0.487168	1.501971	0.879467
C69	C	-0.895860	1.001935	0.379447
C70	C	-0.395860	1.501935	0.879447
C71	C	-0.823084	1.001911	0.379428
C72	C	-0.323084	1.501911	0.879428
C73	C	-0.731770	1.001876	0.379409
C74	C	-0.231770	1.501876	0.879409
C75	C	-0.149571	1.001965	0.379457
C76	C	0.350429	1.501965	0.879457
C77	C	-0.059949	1.002001	0.379478
C78	C	0.440051	1.502001	0.879478
C79	C	-0.368603	0.994552	0.562688
C80	C	0.131397	1.494552	1.062688
C81	C	-0.372319	0.991429	0.640791
C82	C	0.127681	1.491429	1.140791
C83	C	-0.351821	1.185166	0.386805
C84	C	0.148179	1.685166	0.886805
C85	C	-0.348385	1.263271	0.389957
C86	C	0.151615	1.763271	0.889957
C87	C	-0.351135	1.009223	0.196844
C88	C	0.148865	1.509223	0.696844
C89	C	-0.347186	1.012482	0.118748
C90	C	0.152814	1.512482	0.618748
C91	C	-0.320525	1.034919	0.679310
C92	C	0.179475	1.534919	1.179310
C93	C	-0.324014	1.031975	0.752695
C94	C	0.175986	1.531975	1.252695
C95	C	-0.379302	0.985545	0.787560
C96	C	0.120698	1.485545	1.287560
C97	C	-0.431097	0.942051	0.749036
C98	C	0.068903	1.442051	1.249036
C99	C	-0.427604	0.944991	0.675651
C100	C	0.072396	1.444991	1.175651
C101	C	-0.395488	0.971928	1.006839
C102	C	0.104512	1.471928	1.506839
C103	C	-0.398979	0.968992	1.080229
C104	C	0.101021	1.468992	1.580229
C105	C	-0.291895	1.058916	1.083883
C106	C	0.208105	1.558916	1.583883
C107	C	-0.288409	1.061855	1.010497
C108	C	0.211591	1.561855	1.510497
C109	C	-0.340202	1.018358	0.971979
C110	C	0.159798	1.518358	1.471979
N111	N	-0.382871	0.982537	0.862572
N112	N	0.117129	1.482537	1.362572
N113	N	-0.336628	1.021363	0.896969
N114	N	0.163372	1.521363	1.396969
H115	H	-0.258566	0.266853	0.471913
H116	H	0.241434	0.766853	0.971913
F117	F	-0.269407	0.739883	0.461941
F118	F	0.230593	1.239883	0.961941
H119	H	-0.437673	0.936519	0.975487
H120	H	0.062327	1.436519	1.475487
H121	H	-0.431714	0.406451	0.313893
H122	H	0.068286	0.906451	0.813893
F123	F	-0.276105	0.588401	0.455848
F124	F	0.223895	1.088401	0.955848
H125	H	-0.275507	1.072729	0.650928
H126	H	0.224493	1.572729	1.150928
F127	F	-0.450367	0.264586	0.296938
F128	F	0.049633	0.764586	0.796938
H129	H	-0.252677	0.399995	0.477266
H130	H	0.247323	0.899995	0.977266
F131	F	-0.479817	0.595747	0.269969
F132	F	0.020183	1.095747	0.769969
H133	H	-0.444003	0.931181	1.108613
H134	H	0.055997	1.431181	1.608613
H135	H	-0.281840	1.067391	0.784054
H136	H	0.218160	1.567391	1.284054
F137	F	-0.489935	0.892633	0.786143
F138	F	0.010065	1.392633	1.286143
F139	F	-0.473120	0.747239	0.276058
F140	F	0.026880	1.247239	0.776058
F141	F	-0.229565	1.111273	0.973397
F142	F	0.270435	1.611273	1.473397
F143	F	-0.236775	1.105204	1.124882
F144	F	0.263225	1.605204	1.624882
H145	H	-0.469772	0.909569	0.644290
H146	H	0.030228	1.409569	1.144290
