data_functionalizedCrystal
_audit_creation_method	'MofGen! by Chris Wilmer'
_symmetry_space_group_name_H-M	'P1'
_symmetry_Int_Tables_number	1
_symmetry_cell_setting	triclinic
loop_
_symmetry_equiv_pos_as_xyz
  x,y,z
_cell_length_a	19.077399
_cell_length_b	12.645330
_cell_length_c	19.077174
_cell_angle_alpha	92.274611
_cell_angle_beta	89.887093
_cell_angle_gamma	92.312055
loop_
_atom_site_label
_atom_site_type_symbol
_atom_site_fract_x
_atom_site_fract_y
_atom_site_fract_z
Zn1	Zn	1.090231	-0.377529	-0.354263
Zn2	Zn	1.085456	-0.547989	-0.236765
Zn3	Zn	0.968012	-0.378131	-0.241480
Zn4	Zn	0.972716	-0.562144	-0.358941
O5	O	1.029104	-0.466449	-0.297862
O6	O	1.187929	-0.393965	-0.334746
O7	O	1.065909	-0.519785	-0.139059
O8	O	0.984254	-0.229703	-0.256457
O9	O	1.184420	-0.519201	-0.248420
O10	O	1.074049	-0.229261	-0.339318
O11	O	0.979624	-0.394991	-0.142524
O12	O	0.870305	-0.408717	-0.260993
O13	O	0.992272	-0.543327	-0.456651
O14	O	0.873761	-0.543911	-0.347290
O15	O	1.078610	-0.407691	-0.453215
O16	O	1.070471	-0.698215	-0.252956
O17	O	0.987641	-0.708615	-0.342718
C18	C	0.846537	-0.477916	-0.305161
C19	C	0.768434	-0.482848	-0.308300
C20	C	0.729925	-0.414679	-0.264918
C21	C	0.656539	-0.419323	-0.267868
C22	C	0.621665	-0.492131	-0.314203
C23	C	0.660180	-0.560307	-0.357587
C24	C	0.733564	-0.555668	-0.354634
C25	C	0.402386	-0.513569	-0.327843
C26	C	0.328996	-0.518201	-0.330795
C27	C	0.325361	-0.377217	-0.241074
C28	C	0.398746	-0.372580	-0.238128
C29	C	0.437255	-0.440760	-0.281509
N30	N	0.546654	-0.496877	-0.317221
N31	N	0.512265	-0.436018	-0.278488
C32	C	1.029068	-0.741880	-0.297847
C33	C	1.029118	-0.859707	-0.297861
C34	C	1.081134	-1.020684	-0.241285
C35	C	1.081316	-0.898120	-0.241412
C36	C	1.052170	-0.907133	-0.371127
C37	C	1.052588	-1.029687	-0.370821
C38	C	0.954058	-1.030609	-0.281903
C39	C	0.954347	-0.907886	-0.280228
C40	C	1.212384	-0.454937	-0.290535
C41	C	1.290487	-0.450032	-0.287413
C42	C	1.036499	-0.477021	-0.481142
C43	C	1.039650	-0.481526	-0.559245
C44	C	1.029160	-0.189942	-0.297892
C45	C	1.029183	-0.072111	-0.297905
C46	C	0.996208	-0.418671	-0.597741
C47	C	0.999167	-0.422913	-0.671128
C48	C	1.045571	-0.490006	-0.706016
C49	C	1.089014	-0.552869	-0.667515
C50	C	1.086052	-0.548631	-0.594130
C51	C	1.059244	-0.509651	-0.925300
C52	C	1.062205	-0.513881	-0.998689
C53	C	0.972356	-0.383927	-1.002297
C54	C	0.969401	-0.379691	-0.928911
C55	C	1.012841	-0.442557	-0.890416
N56	N	1.048597	-0.494341	-0.781029
N57	N	1.009811	-0.438227	-0.815405
C58	C	1.021778	-0.455838	-0.115294
C59	C	1.018763	-0.451026	-0.037186
H60	H	0.300604	-0.577489	-0.368531
H61	H	0.764918	-0.611178	-0.389960
H62	H	0.433730	-0.569086	-0.363167
O63	O	0.929613	-1.065226	-0.219491
C64	C	0.834700	-1.065875	-0.135959
C65	C	0.862281	-1.026620	-0.206664
H66	H	0.780265	-1.034660	-0.125559
H67	H	0.831598	-1.156164	-0.137761
H68	H	0.871849	-1.035800	-0.092185
H69	H	0.825158	-1.056618	-0.250476
H70	H	0.865400	-0.936331	-0.204802
O71	O	0.763764	-0.344065	-0.219807
C72	C	0.781333	-0.283989	-0.099437
C73	C	0.742978	-0.364036	-0.150451
H74	H	0.764531	-0.300093	-0.043353
H75	H	0.840404	-0.292381	-0.104716
H76	H	0.767422	-0.200173	-0.112487
H77	H	0.756831	-0.447885	-0.137433
H78	H	0.683917	-0.355550	-0.145162
H79	H	0.936988	-0.332745	-1.033648
H80	H	0.915314	-1.064461	-0.323178
H81	H	1.099995	-0.568518	-1.027093
O82	O	0.626196	-0.630940	-0.402579
C83	C	0.514757	-0.700609	-0.446866
C84	C	0.553153	-0.620552	-0.395889
H85	H	0.455695	-0.692253	-0.441464
H86	H	0.531438	-0.684485	-0.502983
H87	H	0.528720	-0.784417	-0.433853
H88	H	0.539210	-0.536713	-0.408838
H89	H	0.536469	-0.636767	-0.339786
O90	O	1.101520	-0.570739	-0.888018
C91	C	1.190936	-0.700106	-0.892191
C92	C	1.143103	-0.630965	-0.934502
H93	H	1.224557	-0.748833	-0.929755
H94	H	1.226347	-0.647186	-0.856391
H95	H	1.157273	-0.755541	-0.859096
H96	H	1.176710	-0.575521	-0.967637
H97	H	1.107688	-0.683948	-0.970257
O98	O	1.134166	-0.617890	-0.701433
C99	C	1.232351	-0.630984	-0.780523
C100	C	1.181270	-0.557227	-0.742142
H101	H	1.270438	-0.581970	-0.813458
H102	H	1.262943	-0.675165	-0.740431
H103	H	1.201448	-0.690443	-0.816133
H104	H	1.212118	-0.497707	-0.706533
H105	H	1.150677	-0.513123	-0.782272
O106	O	1.147124	-1.054010	-0.253358
C107	C	1.267883	-1.045036	-0.216021
C108	C	1.193182	-1.007229	-0.202256
H109	H	1.305145	-1.007212	-0.174723
H110	H	1.267968	-1.134920	-0.213229
H111	H	1.285846	-1.020909	-0.270341
H112	H	1.175173	-1.031282	-0.147938
H113	H	1.193139	-0.917349	-0.205095
H114	H	0.963789	-0.371733	-0.702468
H115	H	1.121432	-0.599807	-0.562787
O116	O	1.147634	-0.859706	-0.253636
C117	C	1.245414	-0.749492	-0.210431
C118	C	1.170311	-0.792934	-0.196487
H119	H	1.263766	-0.695481	-0.164241
H120	H	1.282069	-0.818181	-0.217146
H121	H	1.245988	-0.702594	-0.260260
H122	H	1.169670	-0.839818	-0.146654
H123	H	1.133689	-0.724199	-0.189814
H124	H	1.106568	-0.873913	-0.385319
O125	O	0.619113	-0.353273	-0.225622
C126	C	0.532437	-0.338630	-0.134072
C127	C	0.574776	-0.413538	-0.181886
H128	H	0.496570	-0.387325	-0.098709
H129	H	0.569955	-0.285843	-0.100402
H130	H	0.499406	-0.287256	-0.167749
H131	H	0.607811	-0.464980	-0.148263
H132	H	0.537221	-0.466254	-0.215560
H133	H	0.427135	-0.313299	-0.200392
H134	H	1.066549	-0.865714	-0.186993
O135	O	0.287845	-0.311108	-0.198958
C136	C	0.173183	-0.255734	-0.163764
C137	C	0.215582	-0.330678	-0.211495
H138	H	0.114751	-0.271514	-0.173894
H139	H	0.185259	-0.270047	-0.106491
H140	H	0.188160	-0.170094	-0.175608
H141	H	0.200629	-0.416345	-0.199713
H142	H	0.203502	-0.316273	-0.268753
H143	H	1.107589	-1.055714	-0.384721
H144	H	0.958425	-0.364030	-0.569341
H145	H	0.937020	-0.876673	-0.226326
O146	O	1.063746	-1.053231	-0.176195
C147	C	1.047037	-1.201088	-0.101204
C148	C	1.066766	-1.164366	-0.174945
H149	H	1.049458	-1.290945	-0.100172
H150	H	1.085414	-1.162872	-0.061083
H151	H	0.991580	-1.176629	-0.087777
H152	H	1.122207	-1.188816	-0.188438
H153	H	1.028343	-1.202574	-0.215024
O154	O	1.009605	-1.070655	-0.422729
C155	C	0.931332	-1.034034	-0.516935
C156	C	0.979992	-0.987504	-0.458181
H157	H	0.907365	-0.966830	-0.545605
H158	H	0.962844	-1.084289	-0.555544
H159	H	0.887721	-1.085445	-0.493114
H160	H	1.023611	-0.936046	-0.481940
H161	H	0.948431	-0.937310	-0.419580
O162	O	1.008660	-0.878105	-0.422733
C163	C	0.998177	-0.787711	-0.530832
C164	C	1.047536	-0.820520	-0.472442
H165	H	1.029586	-0.741129	-0.571029
H166	H	0.972473	-0.861525	-0.557655
H167	H	0.955914	-0.736124	-0.507006
H168	H	1.089837	-0.872082	-0.496212
H169	H	1.073187	-0.746661	-0.445626
H170	H	0.913311	-0.882084	-0.318682
H171	H	0.931611	-0.325059	-0.900510
