data_functionalizedCrystal
_audit_creation_method	'MofGen! by Chris Wilmer'
_symmetry_space_group_name_H-M	'P1'
_symmetry_Int_Tables_number	1
_symmetry_cell_setting	triclinic
loop_
_symmetry_equiv_pos_as_xyz
  x,y,z
_cell_length_a	18.050589
_cell_length_b	16.120530
_cell_length_c	18.050582
_cell_angle_alpha	87.088397
_cell_angle_beta	89.981795
_cell_angle_gamma	87.123928
loop_
_atom_site_label
_atom_site_type_symbol
_atom_site_fract_x
_atom_site_fract_y
_atom_site_fract_z
Zn1	Zn	-0.353358	1.274469	-0.477436
Zn2	Zn	-0.103358	1.524469	-0.227436
Zn3	Zn	0.146642	1.774469	0.022564
Zn4	Zn	0.396642	2.024469	0.272564
Zn5	Zn	-0.477536	1.274369	-0.353251
Zn6	Zn	-0.227536	1.524369	-0.103251
Zn7	Zn	0.022464	1.774369	0.146749
Zn8	Zn	0.272464	2.024369	0.396749
Zn9	Zn	-0.347063	1.135065	-0.346971
Zn10	Zn	-0.097063	1.385065	-0.096971
Zn11	Zn	0.152937	1.635065	0.153029
Zn12	Zn	0.402937	1.885065	0.403029
Zn13	Zn	-0.471202	1.135006	-0.471112
Zn14	Zn	-0.221202	1.385006	-0.221112
Zn15	Zn	0.028798	1.635006	0.028888
Zn16	Zn	0.278798	1.885006	0.278888
O17	O	-0.412290	1.204727	-0.412192
O18	O	-0.162290	1.454727	-0.162192
O19	O	0.087710	1.704727	0.087808
O20	O	0.337710	1.954727	0.337808
O21	O	-0.375115	1.391120	-0.466238
O22	O	-0.125115	1.641120	-0.216238
O23	O	0.124885	1.891120	0.033762
O24	O	0.374885	2.141120	0.283762
O25	O	-0.460246	1.255872	-0.248492
O26	O	-0.210246	1.505872	0.001508
O27	O	0.039754	1.755872	0.251508
O28	O	0.289754	2.005872	0.501508
O29	O	-0.243977	1.153623	-0.364295
O30	O	0.006023	1.403623	-0.114295
O31	O	0.256023	1.653623	0.135705
O32	O	0.506023	1.903623	0.385705
O33	O	-0.466349	1.391047	-0.374999
O34	O	-0.216349	1.641047	-0.124999
O35	O	0.033651	1.891047	0.125001
O36	O	0.283651	2.141047	0.375001
O37	O	-0.248601	1.256043	-0.460148
O38	O	0.001399	1.506043	-0.210148
O39	O	0.251399	1.756043	0.039852
O40	O	0.501399	2.006043	0.289852
O41	O	-0.364388	1.153526	-0.243878
O42	O	-0.114388	1.403526	0.006122
O43	O	0.135612	1.653526	0.256122
O44	O	0.385612	1.903526	0.506122
O45	O	-0.358245	1.018392	-0.358163
O46	O	-0.108245	1.268392	-0.108163
O47	O	0.141755	1.518392	0.141837
O48	O	0.391755	1.768392	0.391837
O49	O	-0.455552	1.153524	-0.575876
O50	O	-0.205552	1.403524	-0.325876
O51	O	0.044448	1.653524	-0.075876
O52	O	0.294448	1.903524	0.174124
O53	O	-0.449449	1.018349	-0.449369
O54	O	-0.199449	1.268349	-0.199369
O55	O	0.050551	1.518349	0.050631
O56	O	0.300551	1.768349	0.300631
O57	O	-0.368973	1.255986	-0.580523
O58	O	-0.118973	1.505986	-0.330523
O59	O	0.131027	1.755986	-0.080523
O60	O	0.381027	2.005986	0.169477
O61	O	-0.580618	1.255816	-0.368867
O62	O	-0.330618	1.505816	-0.118867
O63	O	-0.080618	1.755816	0.131133
O64	O	0.169382	2.005816	0.381133
O65	O	-0.575964	1.153427	-0.455459
O66	O	-0.325964	1.403427	-0.205459
O67	O	-0.075964	1.653427	0.044541
O68	O	0.174036	1.903427	0.294541
C69	C	-0.402477	0.988121	-0.402399
C70	C	-0.152477	1.238121	-0.152399
C71	C	0.097523	1.488121	0.097601
C72	C	0.347523	1.738121	0.347601
C73	C	-0.398297	0.895456	-0.398227
C74	C	-0.148297	1.145456	-0.148227
C75	C	0.101703	1.395456	0.101773
C76	C	0.351703	1.645456	0.351773
C77	C	-0.390648	0.725795	-0.390616
C78	C	-0.140648	0.975795	-0.140616
C79	C	0.109352	1.225795	0.109384
C80	C	0.359352	1.475795	0.359384
C81	C	-0.433986	0.684499	-0.433823
C82	C	-0.183986	0.934499	-0.183823
C83	C	0.066014	1.184499	0.066177
C84	C	0.316014	1.434499	0.316177
C85	C	-0.429730	0.590094	-0.429588
C86	C	-0.179730	0.840094	-0.179588
C87	C	0.070270	1.090094	0.070412
C88	C	0.320270	1.340094	0.320412
C89	C	-0.394903	0.820209	-0.394849
C90	C	-0.144903	1.070209	-0.144849
C91	C	0.105097	1.320209	0.105151
C92	C	0.355097	1.570209	0.355151
C93	C	-0.605237	1.204626	-0.412175
C94	C	-0.355237	1.454626	-0.162175
C95	C	-0.105237	1.704626	0.087825
C96	C	0.144763	1.954626	0.337825
C97	C	-0.687785	1.204660	-0.412197
C98	C	-0.437785	1.454660	-0.162197
C99	C	-0.187785	1.704660	0.087803
C100	C	0.062215	1.954660	0.337803
C101	C	-0.884734	1.149035	-0.459270
C102	C	-0.634734	1.399035	-0.209270
C103	C	-0.384734	1.649035	0.040730
C104	C	-0.134734	1.899035	0.290730
C105	C	-0.933249	1.128719	-0.390586
C106	C	-0.683249	1.378719	-0.140586
C107	C	-0.433249	1.628719	0.109414
C108	C	-0.183249	1.878719	0.359414
C109	C	-0.838919	1.204742	-0.412210
C110	C	-0.588919	1.454742	-0.162210
C111	C	-0.338919	1.704742	0.087790
C112	C	-0.088919	1.954742	0.337790
C113	C	-0.937487	1.225099	-0.480903
C114	C	-0.687487	1.475099	-0.230903
C115	C	-0.437487	1.725099	0.019097
C116	C	-0.187487	1.975099	0.269097
C117	C	-0.984907	1.204819	-0.412229
C118	C	-0.734907	1.454819	-0.162229
C119	C	-0.484907	1.704819	0.087771
C120	C	-0.234907	1.954819	0.337771
C121	C	-0.886344	1.184385	-0.343488
C122	C	-0.636344	1.434385	-0.093488
C123	C	-0.386344	1.684385	0.156512
C124	C	-0.136344	1.934385	0.406512
C125	C	-0.890580	1.280801	-0.433853
C126	C	-0.640580	1.530801	-0.183853
C127	C	-0.390580	1.780801	0.066147
C128	C	-0.140580	2.030801	0.316147
C129	C	-0.939074	1.260513	-0.365123
C130	C	-0.689074	1.510513	-0.115123
C131	C	-0.439074	1.760513	0.134877
C132	C	-0.189074	2.010513	0.384877
C133	C	-0.754818	1.204695	-0.412200
C134	C	-0.504818	1.454695	-0.162200
C135	C	-0.254818	1.704695	0.087800
C136	C	-0.004818	1.954695	0.337800
C137	C	-1.069006	1.204866	-0.412231
C138	C	-0.819006	1.454866	-0.162231
C139	C	-0.569006	1.704866	0.087769
C140	C	-0.319006	1.954866	0.337769
C141	C	-0.218590	1.204851	-0.412227
C142	C	0.031410	1.454851	-0.162227
C143	C	0.281410	1.704851	0.087773
C144	C	0.531410	1.954851	0.337773
C145	C	-0.136046	1.204904	-0.412241
C146	C	0.113954	1.454904	-0.162241
C147	C	0.363954	1.704904	0.087759
C148	C	0.613954	1.954904	0.337759
C149	C	-0.412258	1.204760	-0.605899
C150	C	-0.162258	1.454760	-0.355899
C151	C	0.087742	1.704760	-0.105899
C152	C	0.337742	1.954760	0.144101
C153	C	-0.412245	1.204774	-0.688446
C154	C	-0.162245	1.454774	-0.438446
C155	C	0.087755	1.704774	-0.188446
C156	C	0.337755	1.954774	0.061554
C157	C	-0.422141	1.422179	-0.422025
C158	C	-0.172141	1.672179	-0.172025
C159	C	0.077859	1.922179	0.077975
C160	C	0.327859	2.172179	0.327975
C161	C	-0.426339	1.514844	-0.426215
C162	C	-0.176339	1.764844	-0.176215
C163	C	0.073661	2.014844	0.073785
C164	C	0.323661	2.264844	0.323785
C165	C	-0.459261	1.149097	-0.885372
C166	C	-0.209261	1.399097	-0.635372
C167	C	0.040739	1.649097	-0.385372
C168	C	0.290739	1.899097	-0.135372
C169	C	-0.480855	1.225159	-0.938196
C170	C	-0.230855	1.475159	-0.688196
C171	C	0.019145	1.725159	-0.438196
C172	C	0.269145	1.975159	-0.188196
C173	C	-0.412190	1.204815	-0.839578
C174	C	-0.162190	1.454815	-0.589578
C175	C	0.087810	1.704815	-0.339578
C176	C	0.337810	1.954815	-0.089578
C177	C	-0.390577	1.128795	-0.933837
C178	C	-0.140577	1.378795	-0.683837
C179	C	0.109423	1.628795	-0.433837
C180	C	0.359423	1.878795	-0.183837
C181	C	-0.412138	1.204848	-0.985565
C182	C	-0.162138	1.454848	-0.735565
C183	C	0.087862	1.704848	-0.485565
C184	C	0.337862	1.954848	-0.235565
C185	C	-0.433821	1.280916	-0.891317
C186	C	-0.183821	1.530916	-0.641317
C187	C	0.066179	1.780916	-0.391317
C188	C	0.316179	2.030916	-0.141317
C189	C	-0.343510	1.184501	-0.886952
C190	C	-0.093510	1.434501	-0.636952
C191	C	0.156490	1.684501	-0.386952
C192	C	0.406490	1.934501	-0.136952
C193	C	-0.365080	1.260615	-0.939756
C194	C	-0.115080	1.510615	-0.689756
C195	C	0.134920	1.760615	-0.439756
C196	C	0.384920	2.010615	-0.189756
C197	C	-0.412222	1.204795	-0.755479
C198	C	-0.162222	1.454795	-0.505479
C199	C	0.087778	1.704795	-0.255479
C200	C	0.337778	1.954795	-0.005479
C201	C	-0.412107	1.204877	-1.069663
C202	C	-0.162107	1.454877	-0.819663
C203	C	0.087893	1.704877	-0.569663
C204	C	0.337893	1.954877	-0.319663
C205	C	-0.412270	1.204743	-0.219241
C206	C	-0.162270	1.454743	0.030759
C207	C	0.087730	1.704743	0.280759
C208	C	0.337730	1.954743	0.530759
C209	C	-0.412081	1.204890	-0.136702
C210	C	-0.162081	1.454890	0.113298
C211	C	0.087919	1.704890	0.363298
C212	C	0.337919	1.954890	0.613298
H213	H	-0.474283	0.720045	-0.473995
H214	H	-0.224283	0.970045	-0.223995
H215	H	0.025717	1.220045	0.026005
H216	H	0.275717	1.470045	0.276005
Cl217	Cl	-0.851847	1.157735	-0.253777
Cl218	Cl	-0.601847	1.407735	-0.003777
Cl219	Cl	-0.351847	1.657735	0.246223
Cl220	Cl	-0.101847	1.907735	0.496223
H221	H	-0.538915	1.242360	-0.960676
H222	H	-0.288915	1.492360	-0.710676
H223	H	-0.038915	1.742360	-0.460676
H224	H	0.211085	1.992360	-0.210676
Cl225	Cl	-0.328436	0.670919	-0.328596
Cl226	Cl	-0.078436	0.920919	-0.078596
Cl227	Cl	0.171564	1.170919	0.171404
Cl228	Cl	0.421564	1.420919	0.421404
Cl229	Cl	-0.848015	1.076200	-0.520619
Cl230	Cl	-0.598015	1.326200	-0.270619
Cl231	Cl	-0.348015	1.576200	-0.020619
Cl232	Cl	-0.098015	1.826200	0.229381
Cl233	Cl	-0.520803	1.076418	-0.848632
Cl234	Cl	-0.270803	1.326418	-0.598632
Cl235	Cl	-0.020803	1.576418	-0.348632
Cl236	Cl	0.229197	1.826418	-0.098632
Cl237	Cl	-0.861441	1.380029	-0.462140
Cl238	Cl	-0.611441	1.630029	-0.212140
Cl239	Cl	-0.361441	1.880029	0.037860
Cl240	Cl	-0.111441	2.130029	0.287860
H241	H	-0.452145	1.345238	-0.872618
H242	H	-0.202145	1.595238	-0.622618
H243	H	0.047855	1.845238	-0.372618
H244	H	0.297855	2.095238	-0.122618
Cl245	Cl	-0.962359	1.029464	-0.362328
Cl246	Cl	-0.712359	1.279464	-0.112328
Cl247	Cl	-0.462359	1.529464	0.137672
Cl248	Cl	-0.212359	1.779464	0.387672
H249	H	-0.962716	1.307655	-0.325286
H250	H	-0.712716	1.557655	-0.075286
H251	H	-0.462716	1.807655	0.174714
H252	H	-0.212716	2.057655	0.424714
H253	H	-0.959920	1.242287	-0.538989
H254	H	-0.709920	1.492287	-0.288989
H255	H	-0.459920	1.742287	-0.038989
H256	H	-0.209920	1.992287	0.211011
Cl257	Cl	-0.303593	1.333465	-0.976295
Cl258	Cl	-0.053593	1.583465	-0.726295
Cl259	Cl	0.196407	1.833465	-0.476295
Cl260	Cl	0.446407	2.083465	-0.226295
Cl261	Cl	-0.253893	1.157910	-0.852215
Cl262	Cl	-0.003893	1.407910	-0.602215
Cl263	Cl	0.246107	1.657910	-0.352215
Cl264	Cl	0.496107	1.907910	-0.102215
H265	H	-0.372319	1.064493	-0.952629
H266	H	-0.122319	1.314493	-0.702629
H267	H	0.127681	1.564493	-0.452629
H268	H	0.377681	1.814493	-0.202629
