data_functionalizedCrystal
_audit_creation_method	'MofGen! by Chris Wilmer'
_symmetry_space_group_name_H-M	'P1'
_symmetry_Int_Tables_number	1
_symmetry_cell_setting	triclinic
loop_
_symmetry_equiv_pos_as_xyz
  x,y,z
_cell_length_a	19.188930
_cell_length_b	14.044220
_cell_length_c	12.503572
_cell_angle_alpha	86.156832
_cell_angle_beta	93.520160
_cell_angle_gamma	88.166828
loop_
_atom_site_label
_atom_site_type_symbol
_atom_site_fract_x
_atom_site_fract_y
_atom_site_fract_z
O1	O	-0.937478	-0.112788	-0.089673
O2	O	-0.437478	0.387212	0.410327
O3	O	-0.735191	-0.128718	-0.089600
O4	O	-0.235191	0.371282	0.410400
O5	O	-0.833298	0.017218	-0.089625
O6	O	-0.333298	0.517218	0.410375
O7	O	-0.839371	-0.258724	-0.089648
O8	O	-0.339371	0.241276	0.410352
O9	O	-0.825920	0.006225	0.089019
O10	O	-0.325920	0.506225	0.589019
O11	O	-0.727814	-0.139712	0.089044
O12	O	-0.227814	0.360288	0.589044
O13	O	-0.930100	-0.123781	0.088971
O14	O	-0.430100	0.376219	0.588971
Cu15	Cu	-0.828284	-0.132750	0.105319
Cu16	Cu	-0.328284	0.367250	0.605319
Cu17	Cu	-0.837008	-0.119749	-0.105948
Cu18	Cu	-0.337008	0.380251	0.394052
O19	O	-0.831994	-0.269718	0.088996
O20	O	-0.331994	0.230282	0.588996
C21	C	-0.705458	-0.133700	-0.000269
C22	C	-0.205458	0.366300	0.499731
C23	C	-0.627852	-0.132153	-0.000240
C24	C	-0.127852	0.367847	0.499760
C25	C	-0.826951	0.047025	-0.000302
C26	C	-0.326951	0.547025	0.499698
C27	C	-0.819022	0.152218	-0.000297
C28	C	-0.319022	0.652218	0.499703
C29	C	-0.959834	-0.118799	-0.000363
C30	C	-0.459834	0.381201	0.499637
C31	C	-1.037440	-0.120345	-0.000398
C32	C	-0.537440	0.379655	0.499602
C33	C	-0.588455	-0.217782	-0.000265
C34	C	-0.088455	0.282218	0.499735
C35	C	-0.515538	-0.216327	-0.000276
C36	C	-0.015538	0.283673	0.499724
C37	C	-0.482022	-0.129237	-0.000285
C38	C	0.017978	0.370763	0.499715
C39	C	-0.521428	-0.043597	-0.000255
C40	C	-0.021428	0.456403	0.499745
C41	C	-0.594343	-0.045056	-0.000233
C42	C	-0.094343	0.454944	0.499767
N43	N	-0.372258	-0.058924	-0.061123
N44	N	0.127742	0.441076	0.438877
N45	N	-0.302991	-0.057544	-0.061147
N46	N	0.197009	0.442456	0.438853
C47	C	-0.262332	-0.124838	-0.000351
C48	C	0.237668	0.375162	0.499649
N49	N	-0.293556	-0.193577	0.060457
N50	N	0.206444	0.306423	0.560457
N51	N	-0.362829	-0.194959	0.060475
N52	N	0.137171	0.305041	0.560475
C53	C	-0.402958	-0.127646	-0.000309
C54	C	0.097042	0.372354	0.499691
C55	C	-0.143870	-0.208894	-0.000386
C56	C	0.356130	0.291106	0.499614
C57	C	-0.070951	-0.207436	-0.000391
C58	C	0.429049	0.292564	0.499609
C59	C	-0.076843	-0.034704	-0.000381
C60	C	0.423157	0.465296	0.499619
C61	C	-0.149759	-0.036165	-0.000365
C62	C	0.350241	0.463835	0.499635
C63	C	-0.183269	-0.123263	-0.000373
C64	C	0.316731	0.376737	0.499627
C65	C	-0.838341	-0.299524	-0.000330
C66	C	-0.338341	0.200476	0.499670
C67	C	-0.846270	-0.404716	-0.000341
C68	C	-0.346270	0.095284	0.499659
N69	N	-0.822152	-0.141894	0.253913
N70	N	-0.322152	0.358106	0.753913
C71	C	-0.804527	0.344819	-0.000308
C72	C	-0.304527	0.844819	0.499692
C73	C	-0.860762	0.402687	-0.000331
C74	C	-0.360762	0.902687	0.499669
C75	C	-0.852697	0.509858	-0.000337
C76	C	-0.352697	1.009858	0.499663
C77	C	-0.812591	0.237639	-0.000302
C78	C	-0.312591	0.737639	0.499698
N79	N	-0.843144	-0.110598	-0.254542
N80	N	-0.343144	0.389402	0.245458
C81	C	-0.813134	-0.155352	0.473030
C82	C	-0.313134	0.344648	0.973030
C83	C	-0.852161	-0.097143	0.526347
C84	C	-0.352161	0.402857	1.026347
C85	C	-0.847142	-0.104631	0.648272
C86	C	-0.347142	0.395369	1.148272
C87	C	-0.818151	-0.147865	0.351095
C88	C	-0.318151	0.352135	0.851095
H89	H	-0.615734	-0.288704	-0.000273
H90	H	-0.115734	0.211296	0.499727
Cl91	Cl	-0.755735	-0.240976	0.543924
Cl92	Cl	-0.255735	0.259024	1.043924
H93	H	-0.889342	-0.041684	0.480425
H94	H	-0.389342	0.458316	0.980425
H95	H	-0.483454	-0.286058	-0.000293
H96	H	0.016546	0.213942	0.499707
H97	H	-0.494135	0.027313	-0.000277
H98	H	0.005865	0.527313	0.499723
H99	H	-0.914967	0.371747	-0.000423
H100	H	-0.414967	0.871747	0.499577
H101	H	-0.049557	0.036211	-0.000455
H102	H	0.450443	0.536211	0.499545
Cl103	Cl	-0.643874	0.062601	-0.000203
Cl104	Cl	-0.143874	0.562601	0.499797
Cl105	Cl	-0.021422	-0.315094	-0.000416
Cl106	Cl	0.478578	0.184906	0.499584
Cl107	Cl	-0.199290	0.071489	-0.000341
Cl108	Cl	0.300710	0.571489	0.499659
Cl109	Cl	-0.185998	-0.318387	-0.000385
Cl110	Cl	0.314002	0.181613	0.499615
Cl111	Cl	-0.720847	0.392594	-0.000283
Cl112	Cl	-0.220847	0.892594	0.499717
