data_functionalizedCrystal
_audit_creation_method	'MofGen! by Chris Wilmer'
_symmetry_space_group_name_H-M	'P1'
_symmetry_Int_Tables_number	1
_symmetry_cell_setting	triclinic
loop_
_symmetry_equiv_pos_as_xyz
  x,y,z
_cell_length_a	16.994726
_cell_length_b	21.395363
_cell_length_c	21.395362
_cell_angle_alpha	89.981975
_cell_angle_beta	90.069043
_cell_angle_gamma	89.922353
loop_
_atom_site_label
_atom_site_type_symbol
_atom_site_fract_x
_atom_site_fract_y
_atom_site_fract_z
Zn1	Zn	-0.446483	-0.248789	-0.958139
Zn2	Zn	-0.314608	-0.353684	-0.958048
Zn3	Zn	-0.314547	-0.248953	-0.853308
Zn4	Zn	-0.446425	-0.353562	-0.853376
O5	O	-0.380516	-0.301247	-0.905718
O6	O	-0.429039	-0.262686	-1.045805
O7	O	-0.204218	-0.339911	-0.944088
O8	O	-0.332048	-0.161254	-0.867224
O9	O	-0.332151	-0.339752	-1.045738
O10	O	-0.428980	-0.161133	-0.944243
O11	O	-0.204174	-0.262966	-0.867136
O12	O	-0.331992	-0.262847	-0.765639
O13	O	-0.556814	-0.339544	-0.867339
O14	O	-0.428881	-0.339703	-0.765689
O15	O	-0.556857	-0.262568	-0.944309
O16	O	-0.332094	-0.441346	-0.944153
O17	O	-0.428940	-0.441256	-0.867251
C18	C	-0.380424	-0.301280	-0.742930
C19	C	-0.380404	-0.301310	-0.673289
C20	C	-0.380514	-0.137824	-0.905736
C21	C	-0.380513	-0.068183	-0.905744
C22	C	-0.175575	-0.301419	-0.905629
C23	C	-0.086253	-0.301336	-0.905700
C24	C	-0.586256	-0.301021	-0.905845
C25	C	-0.675579	-0.300929	-0.905903
Zn26	Zn	0.184936	-0.353243	-0.853309
Zn27	Zn	0.184307	-0.248810	-0.958411
Zn28	Zn	0.052802	-0.353713	-0.957980
Zn29	Zn	0.052690	-0.248644	-0.853580
O30	O	0.118684	-0.301103	-0.905820
O31	O	0.295234	-0.339263	-0.867318
O32	O	0.166646	-0.262992	-1.046032
O33	O	0.070640	-0.441328	-0.943801
O34	O	0.294771	-0.262537	-0.944536
O35	O	0.167718	-0.440983	-0.866900
O36	O	0.070030	-0.340064	-1.045715
O37	O	-0.057594	-0.339902	-0.944064
O38	O	0.070449	-0.262253	-0.765867
O39	O	-0.057676	-0.262708	-0.867362
O40	O	0.167610	-0.339101	-0.765667
O41	O	0.166538	-0.161111	-0.944799
O42	O	0.069839	-0.160988	-0.867780
C43	C	-0.380535	-0.464035	-0.905716
C44	C	-0.380569	-0.533676	-0.905773
C45	C	-0.330047	-0.035531	-0.865652
C46	C	-0.330056	0.029904	-0.865651
C47	C	-0.380523	0.062686	-0.905754
C48	C	-0.431000	0.030027	-0.945849
C49	C	-0.430995	-0.035408	-0.945844
C50	C	-0.386789	0.166373	-0.962215
C51	C	-0.386789	0.231806	-0.962221
C52	C	-0.380544	0.264507	-0.905769
C53	C	-0.374283	0.231766	-0.849309
C54	C	-0.374278	0.166332	-0.849304
C55	C	-0.380535	0.133638	-0.905764
C56	C	-0.330085	0.368111	-0.865672
C57	C	-0.330100	0.433547	-0.865671
C58	C	-0.431040	0.433668	-0.945874
C59	C	-0.431029	0.368233	-0.945870
C60	C	-0.380547	0.335458	-0.905770
C61	C	-0.380608	-0.301214	-1.069141
C62	C	-0.380647	-0.301200	-1.138782
C63	C	-0.430779	-0.341381	-0.640618
C64	C	-0.430814	-0.341366	-0.575183
C65	C	-0.380460	-0.301285	-0.542421
C66	C	-0.330081	-0.261206	-0.575099
C67	C	-0.330053	-0.261218	-0.640534
C68	C	-0.309447	-0.296310	-0.438669
C69	C	-0.309474	-0.296303	-0.373236
C70	C	-0.380547	-0.301244	-0.340600
C71	C	-0.451595	-0.306207	-0.373405
C72	C	-0.451567	-0.306219	-0.438839
C73	C	-0.380485	-0.301268	-0.471468
C74	C	-0.430964	-0.341302	-0.236976
C75	C	-0.431001	-0.341282	-0.171540
C76	C	-0.330261	-0.261125	-0.171458
C77	C	-0.330232	-0.261141	-0.236893
C78	C	-0.380582	-0.301233	-0.269649
C79	C	0.118075	-0.138316	-0.906396
C80	C	0.117746	-0.068676	-0.906733
C81	C	0.119087	-0.300606	-0.742398
C82	C	0.119259	-0.300394	-0.672757
C83	C	0.119305	-0.464525	-0.905306
C84	C	0.119679	-0.534166	-0.905175
C85	C	0.118327	-0.301642	-1.068607
C86	C	0.118306	-0.302028	-1.138247
C87	C	0.167985	-0.036054	-0.946958
C88	C	0.167692	0.029381	-0.947274
C89	C	0.117156	0.062192	-0.907368
C90	C	0.066915	0.029566	-0.867138
C91	C	0.067212	-0.035867	-0.866819
C92	C	0.169927	-0.340311	-0.639945
C93	C	0.170088	-0.340125	-0.574510
C94	C	0.119586	-0.300019	-0.541888
C95	C	0.068913	-0.260100	-0.574704
C96	C	0.068748	-0.260290	-0.640138
C97	C	0.069305	-0.567053	-0.945151
C98	C	0.069641	-0.632489	-0.945028
C99	C	0.120355	-0.665035	-0.904930
C100	C	0.170732	-0.632143	-0.864949
C101	C	0.170391	-0.566709	-0.865070
C102	C	0.067627	-0.342050	-1.170759
C103	C	0.067607	-0.342425	-1.236193
C104	C	0.118263	-0.302776	-1.269114
C105	C	0.168948	-0.262752	-1.236597
C106	C	0.168971	-0.262380	-1.171164
H107	H	-0.288959	0.056494	-0.833002
H108	H	0.208604	0.055937	-0.980036
C109	C	-0.066703	0.049622	-0.836744
C110	C	0.011358	0.065640	-0.823284
H111	H	-0.101003	0.071892	-0.809671
H112	H	-0.078336	0.060125	-0.878893
H113	H	-0.073711	0.005984	-0.830785
H114	H	0.018367	0.109277	-0.829247
H115	H	0.022994	0.055140	-0.781124
C116	C	0.171597	0.155816	-0.951469
C117	C	0.116829	0.134118	-0.907728
H118	H	0.171391	0.200220	-0.951696
H119	H	0.222574	0.141158	-0.940554
H120	H	0.157960	0.140793	-0.991824
H121	H	0.130469	0.149138	-0.867372
H122	H	0.065841	0.148783	-0.918640
H123	H	-0.472134	0.460358	-0.978524
C124	C	-0.441551	-0.425677	-0.714174
C125	C	-0.486131	-0.385442	-0.676623
H126	H	-0.475727	-0.452879	-0.736400
H127	H	-0.411550	-0.401814	-0.742996
H128	H	-0.407152	-0.449635	-0.688589
H129	H	-0.520527	-0.361481	-0.702209
H130	H	-0.516146	-0.409308	-0.647798
C131	C	-0.291873	-0.155105	-0.554949
C132	C	-0.274731	-0.217150	-0.539088
H133	H	-0.257705	-0.127906	-0.532713
H134	H	-0.284642	-0.149378	-0.598590
H135	H	-0.344895	-0.145950	-0.544291
H136	H	-0.221710	-0.226306	-0.549750
H137	H	-0.281955	-0.222879	-0.495437
C138	C	0.275889	-0.349128	-0.713562
C139	C	0.225442	-0.384404	-0.675793
H140	H	0.310164	-0.376354	-0.735685
H141	H	0.245697	-0.325391	-0.742474
H142	H	0.306027	-0.321722	-0.688137
H143	H	0.195300	-0.411807	-0.701218
H144	H	0.255637	-0.408152	-0.646878
H145	H	0.212022	-0.658653	-0.832302
C146	C	0.276411	-0.348494	-0.500966
C147	C	0.225795	-0.384002	-0.538446
H148	H	0.310798	-0.375582	-0.478700
H149	H	0.306415	-0.321236	-0.526598
H150	H	0.246346	-0.324589	-0.472173
H151	H	0.255860	-0.407903	-0.567242
H152	H	0.195788	-0.411271	-0.512811
C153	C	-0.530789	0.374927	-1.025154
C154	C	-0.486492	0.332338	-0.989951
H155	H	-0.565028	0.352766	-1.052371
H156	H	-0.560951	0.400469	-0.997877
H157	H	-0.496428	0.400423	-1.049097
H158	H	-0.520854	0.306845	-0.966005
H159	H	-0.456328	0.306785	-1.017232
C160	C	-0.539939	-0.258733	-0.512559
C161	C	-0.529660	-0.311661	-0.474899
H162	H	-0.588150	-0.262093	-0.534822
H163	H	-0.541043	-0.222419	-0.487048
H164	H	-0.497601	-0.255799	-0.541354
H165	H	-0.571996	-0.314593	-0.446100
H166	H	-0.528563	-0.347985	-0.500412
H167	H	0.026297	-0.062423	-0.834065
C168	C	0.181201	-0.492977	-0.780929
C169	C	0.225775	-0.530565	-0.821128
H170	H	0.215396	-0.470669	-0.753797
H171	H	0.150961	-0.464227	-0.804823
H172	H	0.147027	-0.518546	-0.756895
H173	H	0.259945	-0.504994	-0.845165
H174	H	0.256029	-0.559318	-0.797231
H175	H	0.026331	-0.375017	-1.262659
H176	H	0.026373	-0.374338	-1.143963
H177	H	-0.289032	-0.228585	-0.667134
C178	C	0.206368	-0.056602	-1.052951
C179	C	0.223545	-0.072110	-0.990825
H180	H	0.240677	-0.078856	-1.080031
H181	H	0.153417	-0.067471	-1.062073
H182	H	0.213375	-0.012960	-1.058885
H183	H	0.216533	-0.115751	-0.984890
H184	H	0.276509	-0.061245	-0.981699
C185	C	0.099945	-0.359376	-0.447949
C186	C	0.119779	-0.299812	-0.469961
H187	H	0.100073	-0.359250	-0.403545
H188	H	0.049044	-0.370304	-0.462675
H189	H	0.137276	-0.388969	-0.462691
H190	H	0.082444	-0.270220	-0.455222
H191	H	0.170687	-0.288877	-0.455229
H192	H	0.027795	-0.227447	-0.548132
H193	H	0.028617	-0.659260	-0.977586
H194	H	0.027491	-0.227781	-0.666847
C195	C	0.193163	-0.319628	-1.362704
C196	C	0.118229	-0.303187	-1.341040
H197	H	0.193134	-0.319886	-1.407108
H198	H	0.230590	-0.290117	-1.348059
H199	H	0.206576	-0.360038	-1.347645
H200	H	0.104817	-0.262775	-1.356095
H201	H	0.080790	-0.332699	-1.355691
C202	C	0.302676	-0.232963	-1.256850
C203	C	0.224625	-0.219173	-1.272793
H204	H	0.337045	-0.206060	-1.279201
H205	H	0.309948	-0.227004	-1.213234
H206	H	0.313969	-0.275176	-1.267311
H207	H	0.213329	-0.176961	-1.262328
H208	H	0.217349	-0.225126	-1.316418
C209	C	-0.330446	0.251910	-1.063089
C210	C	-0.393671	0.267787	-1.024282
H211	H	-0.334700	0.274119	-1.101405
H212	H	-0.282421	0.262584	-1.043032
H213	H	-0.331348	0.208259	-1.071156
H214	H	-0.392766	0.311438	-1.016211
H215	H	-0.441709	0.257118	-1.044343
C216	C	-0.030600	-0.573983	-1.024276
C217	C	0.013545	-0.531288	-0.989224
H218	H	-0.065033	-0.551905	-1.051479
H219	H	0.003839	-0.599460	-1.048220
H220	H	-0.060556	-0.599534	-0.996898
H221	H	0.043504	-0.505740	-1.016602
H222	H	-0.020899	-0.505800	-0.965278
C223	C	-0.361929	0.172857	-0.737694
C224	C	-0.367408	0.130343	-0.787247
H225	H	-0.357696	0.150638	-0.699382
H226	H	-0.316729	0.198330	-0.743171
H227	H	-0.407656	0.198429	-0.736916
H228	H	-0.321679	0.104774	-0.788027
H229	H	-0.412613	0.104859	-0.781767
H230	H	0.120623	-0.718316	-0.904836
C231	C	0.275170	-0.253744	-1.097574
C232	C	0.224693	-0.218386	-1.135439
H233	H	0.309579	-0.226584	-1.075527
H234	H	0.245010	-0.277289	-1.068595
H235	H	0.305162	-0.281332	-1.122923
H236	H	0.194696	-0.190802	-1.110089
H237	H	0.254856	-0.194831	-1.164421
H238	H	-0.288942	-0.062212	-0.832999
H239	H	-0.369196	0.258390	-0.803341
C240	C	-0.464455	0.146327	-1.053843
C241	C	-0.393654	0.130431	-1.024273
H242	H	-0.468690	0.124140	-1.092155
H243	H	-0.507341	0.135638	-1.027515
H244	H	-0.465344	0.189983	-1.061924
H245	H	-0.392767	0.086776	-1.016188
H246	H	-0.350757	0.141116	-1.050607
H247	H	-0.509470	-0.310230	-0.346835
H248	H	-0.471967	-0.373944	-0.263647
C249	C	-0.230656	-0.181916	-0.230238
C250	C	-0.274849	-0.217099	-0.272810
H251	H	-0.196462	-0.154726	-0.252412
H252	H	-0.265080	-0.157950	-0.204773
H253	H	-0.200444	-0.209212	-0.204663
H254	H	-0.305065	-0.189803	-0.298381
H255	H	-0.240420	-0.241066	-0.298286
C256	C	-0.230321	0.374561	-0.786389
C257	C	-0.274608	0.332079	-0.821588
H258	H	-0.196077	0.352317	-0.759170
H259	H	-0.200165	0.400058	-0.813668
H260	H	-0.264688	0.400112	-0.762448
H261	H	-0.240241	0.306531	-0.845532
H262	H	-0.304766	0.306572	-0.794305
H263	H	-0.472093	0.056720	-0.978501
C264	C	-0.319092	0.507092	-0.781383
C265	C	-0.274624	0.469439	-0.821595
H266	H	-0.284841	0.529247	-0.754170
H267	H	-0.349146	0.535977	-0.805263
H268	H	-0.353437	0.481586	-0.757437
H269	H	-0.240282	0.494946	-0.845544
H270	H	-0.244557	0.440550	-0.797712
H271	H	-0.471838	-0.373997	-0.548577
C272	C	-0.564579	-0.055411	-0.976443
C273	C	-0.486468	-0.071302	-0.989920
H274	H	-0.598824	-0.077569	-1.003657
H275	H	-0.576090	-0.066138	-0.934357
H276	H	-0.571798	-0.011749	-0.982186
H277	H	-0.479248	-0.114963	-0.984172
H278	H	-0.474953	-0.060580	-1.032016
C279	C	-0.564515	-0.371835	-0.151551
C280	C	-0.486378	-0.385335	-0.135628
H281	H	-0.598700	-0.399036	-0.129383
H282	H	-0.576147	-0.329744	-0.140860
H283	H	-0.571689	-0.377581	-0.195211
H284	H	-0.479201	-0.379585	-0.091968
H285	H	-0.474741	-0.427436	-0.146315
C286	C	-0.285537	-0.225545	-0.071120
C287	C	-0.274886	-0.217086	-0.135454
H288	H	-0.251339	-0.198363	-0.048891
H289	H	-0.338543	-0.216361	-0.060460
H290	H	-0.273937	-0.267647	-0.060376
H291	H	-0.286491	-0.174985	-0.146198
H292	H	-0.221867	-0.226266	-0.146117
H293	H	-0.251622	-0.292266	-0.346531
H294	H	-0.251567	-0.292284	-0.465235
