data_functionalizedCrystal
_audit_creation_method	'MofGen! by Chris Wilmer'
_symmetry_space_group_name_H-M	'P1'
_symmetry_Int_Tables_number	1
_symmetry_cell_setting	triclinic
loop_
_symmetry_equiv_pos_as_xyz
  x,y,z
_cell_length_a	25.639242
_cell_length_b	10.686285
_cell_length_c	10.686551
_cell_angle_alpha	99.084519
_cell_angle_beta	85.593839
_cell_angle_gamma	94.373550
loop_
_atom_site_label
_atom_site_type_symbol
_atom_site_fract_x
_atom_site_fract_y
_atom_site_fract_z
Zn1	Zn	0.835301	0.450297	-0.679351
Zn2	Zn	1.335301	0.950297	-0.179351
Zn3	Zn	0.835259	0.678877	-0.450849
Zn4	Zn	1.335259	1.178877	0.049151
Zn5	Zn	0.741633	0.466636	-0.467075
Zn6	Zn	1.241633	0.966636	0.032925
Zn7	Zn	0.754096	0.662482	-0.663019
Zn8	Zn	1.254096	1.162482	-0.163019
O9	O	0.791572	0.564573	-0.565074
O10	O	1.291572	1.064573	-0.065074
O11	O	0.908463	0.480643	-0.649085
O12	O	1.408463	0.980643	-0.149085
O13	O	0.817606	0.664423	-0.275369
O14	O	1.317606	1.164423	0.224631
O15	O	0.748860	0.286845	-0.508859
O16	O	1.248860	0.786845	-0.008859
O17	O	0.908432	0.648579	-0.481205
O18	O	1.408432	1.148579	0.018795
O19	O	0.817678	0.274841	-0.664818
O20	O	1.317678	0.774841	-0.164818
O21	O	0.748820	0.508490	-0.287290
O22	O	1.248820	1.008490	0.212710
O23	O	0.670119	0.492592	-0.493022
O24	O	1.170119	0.992592	0.006978
O25	O	0.770101	0.620635	-0.842818
O26	O	1.270101	1.120635	-0.342818
O27	O	0.679275	0.636478	-0.636982
O28	O	1.179275	1.136478	-0.136982
O29	O	0.829763	0.464745	-0.854817
O30	O	1.329763	0.964745	-0.354817
O31	O	0.829690	0.854326	-0.465368
O32	O	1.329690	1.354326	0.034632
O33	O	0.770060	0.842280	-0.621249
O34	O	1.270060	1.342280	-0.121249
C35	C	0.801238	0.894356	-0.539803
C36	C	1.301238	1.394356	-0.039803
C37	C	0.805422	1.035436	-0.529035
C38	C	1.305422	1.535436	-0.029035
C39	C	0.655726	0.564530	-0.564991
C40	C	1.155726	1.064530	-0.064991
C41	C	0.597612	0.564539	-0.564984
C42	C	1.097612	1.064539	-0.064984
C43	C	0.801327	0.539038	-0.896164
C44	C	1.301327	1.039038	-0.396164
C45	C	0.805484	0.528157	-1.037255
C46	C	1.305484	1.028157	-0.537255
C47	C	0.242031	0.639637	-0.639946
C48	C	0.742031	1.139637	-0.139946
C49	C	0.187427	0.639643	-0.639965
C50	C	0.687427	1.139643	-0.139965
O51	O	0.163253	0.703436	-0.703633
O52	O	0.663253	1.203436	-0.203633
N53	N	0.155337	0.564602	-0.565154
N54	N	0.655337	1.064602	-0.065154
C55	C	0.177852	0.489540	-0.490327
C56	C	0.677852	0.989540	0.009673
O57	O	0.145542	0.425711	-0.426697
O58	O	0.645542	0.925711	0.073303
C59	C	0.232455	0.489527	-0.490316
C60	C	0.732455	0.989527	0.009684
C61	C	0.264543	0.564583	-0.565123
C62	C	0.764543	1.064583	-0.065123
C63	C	0.274119	0.714685	-0.714748
C64	C	0.774119	1.214685	-0.214748
C65	C	0.328719	0.714680	-0.714726
C66	C	0.828719	1.214680	-0.214726
C67	C	0.351230	0.639627	-0.639903
C68	C	0.851230	1.139627	-0.139903
C69	C	0.319142	0.564578	-0.565101
C70	C	0.819142	1.064578	-0.065101
C71	C	0.254969	0.414459	-0.415497
C72	C	0.754969	0.914459	0.084503
C73	C	0.309576	0.414453	-0.415493
C74	C	0.809576	0.914453	0.084507
C75	C	0.341664	0.489509	-0.490300
C76	C	0.841664	0.989509	0.009700
C77	C	0.396254	0.489520	-0.490256
C78	C	0.896254	0.989520	0.009744
N79	N	0.428345	0.564562	-0.565068
N80	N	0.928345	1.064562	-0.065068
C81	C	0.405833	0.639615	-0.639891
C82	C	0.905833	1.139615	-0.139891
C83	C	0.063183	0.489569	-0.490359
C84	C	0.563183	0.989569	0.009641
C85	C	0.008582	0.489588	-0.490363
C86	C	0.508582	0.989588	0.009637
C87	C	0.018161	0.639689	-0.640003
C88	C	0.518161	1.139689	-0.140003
C89	C	0.072764	0.639677	-0.639992
C90	C	0.572764	1.139677	-0.139992
C91	C	0.095274	0.564611	-0.565171
C92	C	0.595274	1.064611	-0.065171
C93	C	0.520496	0.639600	-0.639839
C94	C	1.020496	1.139600	-0.139839
C95	C	0.575100	0.639593	-0.639807
C96	C	1.075100	1.139593	-0.139807
C97	C	0.565516	0.489487	-0.490173
C98	C	1.065516	0.989487	0.009827
C99	C	0.510917	0.489499	-0.490199
C100	C	1.010917	0.989499	0.009801
C101	C	0.488408	0.564559	-0.565043
C102	C	0.988408	1.064559	-0.065043
O103	O	0.420465	0.425755	-0.426625
O104	O	0.920465	0.925755	0.073375
O105	O	0.438149	0.703420	-0.703524
O106	O	0.938149	1.203420	-0.203524
C107	C	0.927949	0.564618	-0.565157
C108	C	1.427949	1.064618	-0.065157
C109	C	0.986065	0.564636	-0.565192
C110	C	1.486065	1.064636	-0.065192
C111	C	0.781884	0.233500	-0.590470
C112	C	1.281884	0.733500	-0.090470
C113	C	0.777755	0.092416	-0.601293
C114	C	1.277755	0.592416	-0.101293
C115	C	0.781883	0.589917	-0.235278
C116	C	1.281883	1.089917	0.264722
C117	C	0.777817	0.600440	-0.094216
C118	C	1.277817	1.100440	0.405784
H119	H	0.601225	0.700717	-0.700725
H120	H	1.101225	1.200717	-0.200725
N121	N	0.742136	1.014082	-0.694153
N122	N	1.242136	1.514082	-0.194153
H123	H	0.744096	0.921023	-0.688945
H124	H	1.244096	1.421023	-0.188945
H125	H	0.753589	1.030146	-0.783093
H126	H	1.253589	1.530146	-0.283093
H127	H	0.832308	1.094590	-0.458919
H128	H	1.332308	1.594590	0.041081
H129	H	0.750952	0.670654	-1.035044
H130	H	1.250952	1.170654	-0.535044
N131	N	-0.026025	0.408648	-0.409668
N132	N	0.473975	0.908648	0.090332
H133	H	-0.048912	0.464685	-0.346817
H134	H	0.451088	0.964685	0.153183
H135	H	-0.003437	0.361118	-0.362351
H136	H	0.496563	0.861118	0.137649
H137	H	0.502177	0.700718	-0.700787
H138	H	1.002177	1.200718	-0.200787
H139	H	0.098887	0.700792	-0.700908
H140	H	0.598887	1.200792	-0.200908
N141	N	-0.006127	0.720635	-0.720713
N142	N	0.493873	1.220635	-0.220713
H143	H	0.022484	0.768182	-0.768105
H144	H	0.522484	1.268182	-0.268105
H145	H	-0.028592	0.783285	-0.664450
H146	H	0.471408	1.283285	-0.164450
H147	H	0.228851	0.353345	-0.354578
H148	H	0.728851	0.853345	0.145422
N149	N	0.363324	0.795631	-0.795413
N150	N	0.863324	1.295631	-0.295413
H151	H	0.340771	0.843169	-0.842812
H152	H	0.840771	1.343169	-0.342812
H153	H	0.386207	0.739518	-0.858192
H154	H	0.886207	1.239518	-0.358192
N155	N	0.249844	0.795650	-0.795449
N156	N	0.749844	1.295650	-0.295449
H157	H	0.278464	0.843186	-0.842823
H158	H	0.778464	1.343186	-0.342823
H159	H	0.227383	0.858311	-0.739184
H160	H	0.727383	1.358311	-0.239184
N161	N	0.841077	0.435145	-1.115618
N162	N	1.341077	0.935145	-0.615618
H163	H	0.868421	0.482539	-1.166679
H164	H	1.368421	0.982539	-0.666679
H165	H	0.819672	0.372143	-1.175048
H166	H	1.319672	0.872143	-0.675048
N167	N	0.087461	0.408599	-0.409656
N168	N	0.587461	0.908599	0.090344
H169	H	0.058842	0.361067	-0.362272
H170	H	0.558842	0.861067	0.137728
H171	H	0.109889	0.464698	-0.346864
H172	H	0.609889	0.964698	0.153136
N173	N	0.333854	0.333478	-0.334800
N174	N	0.833854	0.833478	0.165200
H175	H	0.305238	0.285936	-0.287420
H176	H	0.805238	0.785936	0.212580
H177	H	0.356281	0.389578	-0.272005
H178	H	0.856281	0.889578	0.227995
H179	H	0.484789	0.428385	-0.429283
H180	H	0.984789	0.928385	0.070717
H181	H	0.583855	0.428384	-0.429249
H182	H	1.083855	0.928384	0.070751
