data_functionalizedCrystal
_audit_creation_method	'MofGen! by Chris Wilmer'
_symmetry_space_group_name_H-M	'P1'
_symmetry_Int_Tables_number	1
_symmetry_cell_setting	triclinic
loop_
_symmetry_equiv_pos_as_xyz
  x,y,z
_cell_length_a	21.295418
_cell_length_b	12.827892
_cell_length_c	12.827885
_cell_angle_alpha	89.970024
_cell_angle_beta	89.959362
_cell_angle_gamma	90.031207
loop_
_atom_site_label
_atom_site_type_symbol
_atom_site_fract_x
_atom_site_fract_y
_atom_site_fract_z
Zn1	Zn	0.962403	-0.415539	-0.591439
Zn2	Zn	1.462403	0.084461	-0.091439
Zn3	Zn	0.962339	-0.590317	-0.416700
Zn4	Zn	1.462339	-0.090317	0.083300
Zn5	Zn	0.857132	-0.415639	-0.416648
Zn6	Zn	1.357132	0.084361	0.083352
Zn7	Zn	0.857123	-0.590287	-0.591335
Zn8	Zn	1.357123	-0.090287	-0.091335
O9	O	0.909749	-0.502946	-0.504031
O10	O	1.409749	-0.002946	-0.004031
O11	O	1.050484	-0.438695	-0.568325
O12	O	1.550484	0.061305	-0.068325
O13	O	0.948359	-0.567200	-0.270457
O14	O	1.448359	-0.067200	0.229543
O15	O	0.871126	-0.269390	-0.439857
O16	O	1.371126	0.230610	0.060143
O17	O	1.050436	-0.567103	-0.439944
O18	O	1.550436	-0.067103	0.060056
O19	O	0.948469	-0.269316	-0.568275
O20	O	1.448469	0.230684	-0.068275
O21	O	0.871064	-0.438865	-0.270419
O22	O	1.371064	0.061135	0.229581
O23	O	0.769041	-0.438836	-0.439756
O24	O	1.269041	0.061164	0.060244
O25	O	0.871112	-0.567052	-0.737585
O26	O	1.371112	-0.067052	-0.237585
O27	O	0.769035	-0.567149	-0.568097
O28	O	1.269035	-0.067149	-0.068097
O29	O	0.948460	-0.438666	-0.737662
O30	O	1.448460	0.061334	-0.237662
O31	O	0.948351	-0.736549	-0.439843
O32	O	1.448351	-0.236549	0.060157
O33	O	0.871050	-0.736527	-0.568147
O34	O	1.371050	-0.236527	-0.068147
C35	C	0.909710	-0.774456	-0.504012
C36	C	1.409710	-0.274456	-0.004012
C37	C	0.909750	-0.890609	-0.504039
C38	C	1.409750	-0.390609	-0.004039
C39	C	0.746197	-0.503001	-0.503910
C40	C	1.246197	-0.003001	-0.003910
C41	C	0.676229	-0.503049	-0.503884
C42	C	1.176229	-0.003049	-0.003884
C43	C	0.948047	-0.942370	-0.440621
C44	C	1.448047	-0.442370	0.059379
C45	C	0.948090	-1.062420	-0.440647
C46	C	1.448090	-0.562420	0.059353
C47	C	0.643376	-0.569951	-0.570611
C48	C	1.143376	-0.069951	-0.070611
C49	C	0.577633	-0.569925	-0.570658
C50	C	1.077633	-0.069925	-0.070658
C51	C	0.544747	-0.503009	-0.503959
C52	C	1.044747	-0.003009	-0.003959
C53	C	0.577608	-0.436095	-0.437227
C54	C	1.077608	0.063905	0.062773
C55	C	0.643349	-0.436115	-0.437189
C56	C	1.143349	0.063885	0.062811
N57	N	0.441472	-0.494856	-0.412557
N58	N	0.941472	0.005144	0.087443
N59	N	0.379021	-0.494843	-0.412596
N60	N	0.879021	0.005157	0.087404
C61	C	0.346672	-0.502942	-0.504070
C62	C	0.846672	-0.002942	-0.004070
N63	N	0.379134	-0.511075	-0.595505
N64	N	0.879134	-0.011075	-0.095505
N65	N	0.441591	-0.511094	-0.595465
N66	N	0.941591	-0.011094	-0.095465
C67	C	0.473461	-0.502979	-0.503993
C68	C	0.973461	-0.002979	-0.003993
C69	C	0.242533	-0.569819	-0.570854
C70	C	0.742533	-0.069819	-0.070854
C71	C	0.176789	-0.569786	-0.570902
C72	C	0.676789	-0.069786	-0.070902
C73	C	0.176765	-0.435961	-0.437462
C74	C	0.676765	0.064039	0.062538
C75	C	0.242508	-0.435989	-0.437422
C76	C	0.742508	0.064011	0.062578
C77	C	0.275388	-0.502923	-0.504117
C78	C	0.775388	-0.002923	-0.004117
C79	C	1.073939	-0.502891	-0.504152
C80	C	1.573939	-0.002891	-0.004152
C81	C	1.143907	-0.502868	-0.504204
C82	C	1.643907	-0.002868	-0.004204
C83	C	0.909792	-0.502844	-0.776601
C84	C	1.409792	-0.002844	-0.276601
C85	C	0.909811	-0.502801	-0.892754
C86	C	1.409811	-0.002801	-0.392754
C87	C	0.909806	-0.230375	-0.504072
C88	C	1.409806	0.269625	-0.004072
C89	C	0.909830	-0.114222	-0.504090
C90	C	1.409830	0.385778	-0.004090
C91	C	0.871549	-0.566305	-0.944501
C92	C	1.371549	-0.066305	-0.444501
C93	C	0.871567	-0.566262	-1.064551
C94	C	1.371567	-0.066262	-0.564551
C95	C	0.909742	-0.502971	-0.232521
C96	C	1.409742	-0.002971	0.267479
C97	C	0.909845	-0.502720	-0.116368
C98	C	1.409845	-0.002720	0.383632
H99	H	0.980805	-0.897810	-0.386310
H100	H	1.480805	-0.397810	0.113690
C101	C	0.827308	-0.639710	-1.124667
C102	C	1.327308	-0.139710	-0.624667
N103	N	0.793972	-0.695033	-1.169950
N104	N	1.293972	-0.195033	-0.669950
C105	C	0.679489	-0.362520	-0.363775
C106	C	1.179489	0.137480	0.136225
N107	N	0.706711	-0.307091	-0.308475
N108	N	1.206711	0.192909	0.191525
H109	H	0.942602	-0.448344	-1.071874
H110	H	1.442602	0.051656	-0.571874
C111	C	0.992384	-1.122552	-0.367292
C112	C	1.492384	-0.622552	0.132708
N113	N	1.025748	-1.167847	-0.312039
N114	N	1.525748	-0.667847	0.187961
H115	H	0.838780	-0.620709	-0.899927
H116	H	1.338780	-0.120709	-0.399927
H117	H	0.942584	-0.448405	-0.937329
H118	H	1.442584	0.051595	-0.437329
C119	C	0.278703	-0.643436	-0.644230
C120	C	0.778703	-0.143436	-0.144230
N121	N	0.305945	-0.698882	-0.699501
N122	N	0.805945	-0.198882	-0.199501
H123	H	0.876998	-0.935171	-0.558358
H124	H	1.376998	-0.435171	-0.058358
H125	H	0.150041	-0.624263	-0.625247
H126	H	0.650041	-0.124263	-0.125247
C127	C	0.679540	-0.643577	-0.643981
C128	C	1.179540	-0.143577	-0.143981
N129	N	0.706780	-0.699033	-0.699245
N130	N	1.206780	-0.199033	-0.199245
C131	C	0.865532	-1.054097	-0.577446
C132	C	1.365532	-0.554097	-0.077446
N133	N	0.832169	-1.008802	-0.632699
N134	N	1.332169	-0.508802	-0.132699
C135	C	0.541432	-0.362487	-0.363857
C136	C	1.041432	0.137513	0.136143
N137	N	0.514183	-0.307041	-0.308595
N138	N	1.014183	0.192959	0.191405
C139	C	0.140594	-0.362352	-0.364092
C140	C	0.640594	0.137648	0.135908
N141	N	0.113346	-0.306906	-0.308829
N142	N	0.613346	0.193094	0.191171
C143	C	0.278648	-0.362401	-0.364006
C144	C	0.778648	0.137599	0.135994
N145	N	0.305869	-0.306970	-0.308706
N146	N	0.805869	0.193030	0.191294
C147	C	0.541487	-0.643528	-0.644063
C148	C	1.041487	-0.143528	-0.144063
N149	N	0.514264	-0.698967	-0.699350
N150	N	1.014264	-0.198967	-0.199350
