data_functionalizedCrystal
_audit_creation_method	'MofGen! by Chris Wilmer'
_symmetry_space_group_name_H-M	'P1'
_symmetry_Int_Tables_number	1
_symmetry_cell_setting	triclinic
loop_
_symmetry_equiv_pos_as_xyz
  x,y,z
_cell_length_a	15.995350
_cell_length_b	15.995350
_cell_length_c	14.472310
_cell_angle_alpha	90.009379
_cell_angle_beta	90.001162
_cell_angle_gamma	96.507625
loop_
_atom_site_label
_atom_site_type_symbol
_atom_site_fract_x
_atom_site_fract_y
_atom_site_fract_z
O1	O	0.107921	-1.110997	-0.076758
O2	O	0.607921	-0.610997	0.423242
O3	O	0.121248	-0.867221	-0.076776
O4	O	0.621248	-0.367221	0.423224
O5	O	-0.007303	-0.995773	-0.076766
O6	O	0.492697	-0.495773	0.423234
O7	O	0.236472	-0.982445	-0.076769
O8	O	0.736472	-0.482445	0.423231
O9	O	-0.007296	-0.995740	0.076916
O10	O	0.492704	-0.495740	0.576916
O11	O	0.121256	-0.867188	0.076906
O12	O	0.621256	-0.367188	0.576906
O13	O	0.107928	-1.110963	0.076924
O14	O	0.607928	-0.610963	0.576924
Cu15	Cu	0.114593	-0.989073	0.090947
Cu16	Cu	0.614593	-0.489073	0.590947
Cu17	Cu	0.114584	-0.989112	-0.090800
Cu18	Cu	0.614584	-0.489112	0.409200
O19	O	0.236480	-0.982412	0.076913
O20	O	0.736480	-0.482412	0.576913
C21	C	0.120701	-0.836010	0.000062
C22	C	0.620701	-0.336010	0.500062
C23	C	0.119049	-0.743060	0.000055
C24	C	0.619049	-0.243060	0.500055
C25	C	-0.038494	-0.995205	0.000073
C26	C	0.461506	-0.495205	0.500073
C27	C	-0.131444	-0.993553	0.000068
C28	C	0.368556	-0.493553	0.500068
C29	C	0.108476	-1.142175	0.000083
C30	C	0.608476	-0.642175	0.500083
C31	C	0.110127	-1.235125	0.000084
C32	C	0.610127	-0.735125	0.500084
C33	C	-0.469192	-0.987621	0.000071
C34	C	0.030808	-0.487621	0.500071
C35	C	-0.421758	-0.896069	-0.000281
C36	C	0.078242	-0.396069	0.499719
C37	C	-0.325068	-0.897721	0.000066
C38	C	0.174932	-0.397721	0.500066
C39	C	-0.301631	-0.990564	0.000069
C40	C	0.198369	-0.490564	0.500069
C41	C	-0.342705	-1.035701	0.087831
C42	C	0.157295	-0.535701	0.587831
C43	C	-0.439340	-1.033401	0.087904
C44	C	0.060660	-0.533401	0.587904
C45	C	-0.439707	-1.035330	-0.086861
C46	C	0.060293	-0.535330	0.413139
C47	C	-0.342762	-1.035309	-0.088021
C48	C	0.157238	-0.535309	0.411979
C49	C	-0.206934	-0.992231	0.000071
C50	C	0.293066	-0.492231	0.500071
C51	C	-0.563890	-0.985956	0.000075
C52	C	-0.063890	-0.485956	0.500075
C53	C	0.267671	-0.982980	0.000072
C54	C	0.767671	-0.482980	0.500072
C55	C	0.360621	-0.984631	0.000071
C56	C	0.860621	-0.484631	0.500071
N57	N	0.114598	-0.989051	0.218778
N58	N	0.614598	-0.489051	0.718778
C59	C	0.113117	-0.405312	0.000074
C60	C	0.613117	0.094688	0.500074
C61	C	0.021565	-0.452746	0.000418
C62	C	0.521565	0.047254	0.500418
C63	C	0.023217	-0.549436	0.000065
C64	C	0.523217	-0.049436	0.500065
C65	C	0.116060	-0.572873	0.000065
C66	C	0.616060	-0.072873	0.500065
C67	C	0.161212	-0.531804	-0.087692
C68	C	0.661212	-0.031804	0.412308
C69	C	0.158912	-0.435169	-0.087759
C70	C	0.658912	0.064831	0.412241
C71	C	0.160812	-0.434792	0.087007
C72	C	0.660812	0.065208	0.587007
C73	C	0.160790	-0.531737	0.088160
C74	C	0.660790	-0.031737	0.588160
C75	C	0.117727	-0.667570	0.000057
C76	C	0.617727	-0.167570	0.500057
C77	C	0.111452	-0.310614	0.000076
C78	C	0.611452	0.189386	0.500076
N79	N	0.114572	-0.989140	-0.218631
N80	N	0.614572	-0.489140	0.281369
C81	C	0.114581	-0.989111	0.592869
C82	C	0.614581	-0.489111	1.092869
C83	C	0.183135	-0.920095	0.553698
C84	C	0.683135	-0.420095	1.053698
C85	C	0.183385	-0.920254	0.446610
C86	C	0.683385	-0.420254	0.946610
C87	C	0.114590	-0.989081	0.407278
C88	C	0.614590	-0.489081	0.907278
C89	C	0.133671	-1.076445	0.446122
C90	C	0.633671	-0.576445	0.946122
C91	C	0.134159	-1.076057	0.553243
C92	C	0.634159	-0.576057	1.053243
C93	C	0.026741	-0.971542	0.553398
C94	C	0.526741	-0.471542	1.053398
C95	C	0.027327	-0.969538	0.446270
C96	C	0.527327	-0.469538	0.946270
C97	C	0.114593	-0.989069	0.302390
C98	C	0.614593	-0.489069	0.802390
C99	C	0.114579	-0.989128	0.697757
C100	C	0.614579	-0.489128	1.197757
H101	H	-0.296649	-0.862239	-0.062846
H102	H	0.203351	-0.362239	0.437154
H103	H	-0.471468	-1.102831	-0.087449
H104	H	0.028532	-0.602831	0.412551
H105	H	-0.327400	-1.103014	-0.093317
H106	H	0.172600	-0.603014	0.406683
C107	C	-0.467451	-0.994912	-0.176722
C108	C	0.032549	-0.494912	0.323278
H109	H	-0.497278	-0.948557	-0.162060
H110	H	0.002722	-0.448557	0.337940
H111	H	-0.502927	-1.035317	-0.210988
H112	H	-0.002927	-0.535317	0.289012
H113	H	-0.419254	-0.975906	-0.212547
H114	H	0.080746	-0.475906	0.287453
H115	H	-0.014865	-0.433166	-0.062168
H116	H	0.485135	0.066834	0.437832
H117	H	-0.026079	-1.016541	0.419500
H118	H	0.473921	-0.516541	0.919500
C119	C	-0.304375	-0.993308	0.176057
C120	C	0.195625	-0.493308	0.676057
H121	H	-0.263351	-0.948108	0.159596
H122	H	0.236649	-0.448108	0.659596
H123	H	-0.278634	-1.033287	0.211568
H124	H	0.221366	-0.533287	0.711568
H125	H	-0.347498	-0.972355	0.211427
H126	H	0.152502	-0.472355	0.711427
C127	C	-0.446804	-0.846645	-0.085292
C128	C	0.053196	-0.346645	0.414708
H129	H	-0.486417	-0.881396	-0.121331
H130	H	0.013583	-0.381396	0.378669
H131	H	-0.398230	-0.829814	-0.121433
H132	H	0.101770	-0.329814	0.378567
H133	H	-0.471238	-0.798234	-0.065552
H134	H	0.028762	-0.298234	0.434448
H135	H	-0.441349	-0.859626	0.062299
H136	H	0.058651	-0.359626	0.562299
C137	C	0.120385	-0.407042	0.176870
C138	C	0.620385	0.092958	0.676870
H139	H	0.150107	-0.425457	0.228484
H140	H	0.650107	0.074543	0.728484
H141	H	0.063349	-0.431105	0.179564
H142	H	0.563349	0.068895	0.679564
H143	H	0.122766	-0.347435	0.178002
H144	H	0.622766	0.152565	0.678002
H145	H	0.229421	-0.545930	-0.090955
H146	H	0.729421	-0.045930	0.409045
H147	H	-0.457639	-1.000459	0.153505
H148	H	0.042361	-0.500459	0.653505
H149	H	-0.012275	-0.577852	0.062973
H150	H	0.487725	-0.077852	0.562973
C151	C	0.007761	-0.882720	0.411981
C152	C	0.507761	-0.382720	0.911981
H153	H	0.052577	-0.858480	0.374055
H154	H	0.552577	-0.358480	0.874055
H155	H	0.001592	-0.847103	0.463479
H156	H	0.501592	-0.347103	0.963479
H157	H	-0.042954	-0.889020	0.377234
H158	H	0.457046	-0.389020	0.877234
C159	C	-0.025047	-0.587097	-0.085070
C160	C	0.474953	-0.087097	0.414930
H161	H	-0.024206	-0.646388	-0.085574
H162	H	0.475794	-0.146388	0.414426
H163	H	0.000922	-0.563617	-0.139654
H164	H	0.500922	-0.063617	0.360346
H165	H	-0.081640	-0.574529	-0.082498
H166	H	0.418360	-0.074529	0.417502
C167	C	-0.042180	-1.039524	0.587623
C168	C	0.457820	-0.539524	1.087623
H169	H	-0.017589	-1.078430	0.625782
H170	H	0.482411	-0.578430	1.125782
H171	H	-0.068619	-1.068308	0.536109
H172	H	0.431381	-0.568308	1.036109
H173	H	-0.082841	-1.013773	0.622114
H174	H	0.417159	-0.513773	1.122114
H175	H	-0.015027	-0.434210	0.063352
H176	H	0.484973	0.065790	0.563352
C177	C	-0.287416	-0.849442	0.085197
C178	C	0.212584	-0.349442	0.585197
H179	H	-0.331224	-0.828748	0.119708
H180	H	0.168776	-0.328748	0.619708
H181	H	-0.248446	-0.803624	0.065631
H182	H	0.251554	-0.303624	0.565631
H183	H	-0.259362	-0.886179	0.122788
H184	H	0.240638	-0.386179	0.622788
C185	C	0.118837	-0.570144	-0.175922
C186	C	0.618837	-0.070144	0.324078
H187	H	0.073635	-0.611167	-0.159467
H188	H	0.573635	-0.111167	0.340533
H189	H	0.158825	-0.595886	-0.211430
H190	H	0.658825	-0.095886	0.288570
H191	H	0.097889	-0.527026	-0.211295
H192	H	0.597889	-0.027026	0.288705
H193	H	0.171953	-0.854945	0.579481
H194	H	0.671953	-0.354945	1.079481
C195	C	-0.482909	-1.124198	0.093304
C196	C	0.017091	-0.624198	0.593304
H197	H	-0.441525	-1.162324	0.095451
H198	H	0.058475	-0.662324	0.595451
H199	H	-0.517429	-1.135760	0.040388
H200	H	-0.017429	-0.635760	0.540388
H201	H	-0.516639	-1.130526	0.147426
H202	H	-0.016639	-0.630526	0.647426
H203	H	0.198219	-1.091540	0.578220
H204	H	0.698219	-0.591540	1.078220
H205	H	0.228494	-0.547101	0.093461
H206	H	0.728494	-0.047101	0.593461
H207	H	-0.328579	-1.103909	0.091097
H208	H	0.171421	-0.603909	0.591097
H209	H	0.125979	-0.416874	-0.153359
H210	H	0.625979	0.083126	0.346641
C211	C	0.001964	-0.887334	0.589920
C212	C	0.501964	-0.387334	1.089920
H213	H	-0.051223	-0.877936	0.565274
H214	H	0.448777	-0.377936	1.065274
H215	H	0.043096	-0.842907	0.571581
H216	H	0.543096	-0.342907	1.071581
H217	H	-0.001276	-0.889213	0.655445
H218	H	0.498724	-0.389213	1.155445
H219	H	-0.315516	-1.002307	-0.152945
H220	H	0.184484	-0.502307	0.347055
H221	H	0.247952	-0.931159	0.580608
H222	H	0.747952	-0.431159	1.080608
C223	C	0.249708	-0.391597	-0.093147
C224	C	0.749708	0.108403	0.406853
H225	H	0.248919	-0.332297	-0.093219
H226	H	0.748919	0.167703	0.406781
H227	H	0.275505	-0.408198	-0.148287
H228	H	0.775505	0.091802	0.351713
H229	H	0.280710	-0.407407	-0.041248
H230	H	0.780710	0.092593	0.458752
H231	H	0.197002	-1.092297	0.419285
H232	H	0.697002	-0.592297	0.919285
H233	H	0.228313	-0.403031	0.087600
H234	H	0.728313	0.096969	0.587600
H235	H	0.127830	-0.559040	0.153082
H236	H	0.627830	-0.059040	0.653082
H237	H	0.172016	-0.855314	0.420349
H238	H	0.672016	-0.355314	0.920349
C239	C	0.271440	-0.935414	0.411974
C240	C	0.771440	-0.435414	0.911974
H241	H	0.307196	-0.941508	0.463372
H242	H	0.807196	-0.441508	0.963372
H243	H	0.294188	-0.888916	0.375542
H244	H	0.794188	-0.388916	0.875542
H245	H	0.267260	-0.985189	0.375650
H246	H	0.767260	-0.485189	0.875650
C247	C	0.069272	-1.147514	0.588252
C248	C	0.569272	-0.647514	1.088252
H249	H	0.042737	-1.176656	0.537003
H250	H	0.542737	-0.676656	1.037003
H251	H	0.028127	-1.124492	0.624732
H252	H	0.528127	-0.624492	1.124732
H253	H	0.096931	-1.185490	0.624604
H254	H	0.596931	-0.685490	1.124604
H255	H	0.085068	-1.129029	0.420643
H256	H	0.585068	-0.629029	0.920643
