data_functionalizedCrystal
_audit_creation_method	'MofGen! by Chris Wilmer'
_symmetry_space_group_name_H-M	'P1'
_symmetry_Int_Tables_number	1
_symmetry_cell_setting	triclinic
loop_
_symmetry_equiv_pos_as_xyz
  x,y,z
_cell_length_a	27.440280
_cell_length_b	27.440280
_cell_length_c	18.426585
_cell_angle_alpha	60.000067
_cell_angle_beta	89.995497
_cell_angle_gamma	60.000166
loop_
_atom_site_label
_atom_site_type_symbol
_atom_site_fract_x
_atom_site_fract_y
_atom_site_fract_z
Zr1	Zr	0.469567	0.533341	-0.095251
O2	O	0.391763	0.635007	-0.211122
O3	O	0.493409	0.431678	-0.059732
O4	O	0.493423	0.533336	-0.211129
O5	O	0.391747	0.533353	0.059701
O6	O	0.573625	0.533328	-0.211133
O7	O	0.391748	0.533350	-0.059725
O8	O	0.573599	0.351481	0.059688
O9	O	0.391773	0.715200	-0.211120
O10	O	0.563442	0.473487	-0.044585
O11	O	0.503587	0.473495	0.044544
O12	O	0.503604	0.593184	-0.133706
O13	O	0.443749	0.593192	-0.044577
Zr14	Zr	0.597478	0.533334	0.095212
Zr15	Zr	0.597479	0.533329	-0.095258
Zr16	Zr	0.469565	0.533347	0.095219
Zr17	Zr	0.469583	0.661239	-0.095249
Zr18	Zr	0.597461	0.405437	0.095210
O19	O	0.573636	0.634997	0.059693
O20	O	0.573638	0.634989	-0.211132
O21	O	0.391760	0.635015	0.059703
O22	O	0.675282	0.431668	0.211083
O23	O	0.675284	0.431661	-0.059742
O24	O	0.493406	0.431686	0.211092
O25	O	0.675297	0.533322	-0.059740
O26	O	0.573621	0.533340	0.211090
O27	O	0.493419	0.533348	0.211094
O28	O	0.675296	0.533326	0.059686
O29	O	0.493447	0.715190	-0.211126
O30	O	0.573597	0.351486	0.211087
O31	O	0.675271	0.351476	0.211081
O32	O	0.675273	0.351472	0.059683
O33	O	0.391771	0.715204	-0.059722
O34	O	0.493445	0.715194	-0.059727
O35	O	0.563440	0.473492	0.133667
O36	O	0.623295	0.473484	0.044538
O37	O	0.563457	0.593180	-0.044583
O38	O	0.503602	0.593189	0.044546
C39	C	0.533501	0.373357	-0.000022
C40	C	0.533494	0.319061	-0.000023
C41	C	0.564782	-0.017685	-0.046536
C42	C	0.564788	-0.068709	-0.046534
O43	O	0.591377	-0.095119	-0.086074
N44	N	0.533544	-0.094221	-0.000011
C45	C	0.502297	-0.068711	0.046520
O46	O	0.475722	-0.095096	0.086092
C47	C	0.502295	-0.017691	0.046522
C48	C	0.533537	0.007823	-0.000011
C49	C	0.596021	0.007829	-0.093065
C50	C	0.596015	0.058850	-0.093069
C51	C	0.564769	0.084358	-0.046544
C52	C	0.533530	0.058844	-0.000015
C53	C	0.471053	0.007814	0.093057
C54	C	0.471054	0.058837	0.093056
C55	C	0.502295	0.084351	0.046523
C56	C	0.502278	0.135373	0.046507
N57	N	0.533522	0.160885	-0.000016
C58	C	0.564768	0.135377	-0.046541
C59	C	0.502304	-0.175856	0.046513
C60	C	0.502301	-0.226871	0.046506
C61	C	0.564793	-0.226867	-0.046547
C62	C	0.564791	-0.175847	-0.046544
C63	C	0.533548	-0.150344	-0.000010
C64	C	0.564751	0.242526	-0.046546
C65	C	0.564740	0.293554	-0.046548
C66	C	0.502251	0.293542	0.046508
C67	C	0.502260	0.242521	0.046507
C68	C	0.533514	0.217013	-0.000022
O69	O	0.475704	0.161813	0.086030
O70	O	0.591344	0.161762	-0.086097
C71	C	0.373522	0.533353	-0.000011
C72	C	0.319220	0.533359	-0.000008
C73	C	-0.017477	0.533321	-0.065814
C74	C	-0.068495	0.533316	-0.065814
O75	O	-0.094869	0.533288	-0.121750
N76	N	-0.094013	0.533319	-0.000022
C77	C	-0.068508	0.533320	0.065779
O78	O	-0.094898	0.533321	0.121741
C79	C	-0.017488	0.533320	0.065783
C80	C	0.008024	0.533324	-0.000019
C81	C	0.008036	0.533324	-0.131609
C82	C	0.059050	0.533330	-0.131609
C83	C	0.084551	0.533333	-0.065814
C84	C	0.059038	0.533330	-0.000019
C85	C	0.008019	0.533316	0.131587
C86	C	0.059042	0.533315	0.131585
C87	C	0.084554	0.533319	0.065784
C88	C	0.135553	0.533339	0.065776
N89	N	0.161071	0.533336	-0.000016
C90	C	0.135570	0.533333	-0.065811
C91	C	-0.175651	0.533319	0.065768
C92	C	-0.226672	0.533324	0.065762
C93	C	-0.226655	0.533318	-0.065831
C94	C	-0.175636	0.533318	-0.065828
C95	C	-0.150133	0.533315	-0.000024
C96	C	0.242702	0.533346	-0.065807
C97	C	0.293719	0.533356	-0.065803
C98	C	0.293699	0.533357	0.065792
C99	C	0.242685	0.533352	0.065786
C100	C	0.217189	0.533344	-0.000017
O101	O	0.161961	0.533364	0.121685
O102	O	0.161971	0.533322	-0.121756
C103	C	0.693522	0.533322	-0.000028
C104	C	0.747824	0.533317	-0.000031
C105	C	0.533524	0.533331	-0.238269
C106	C	0.533525	0.533329	-0.319129
C107	C	0.533543	0.693318	-0.000017
C108	C	0.533550	0.747614	-0.000016
C109	C	0.533526	0.533326	-0.384795
C110	C	0.533525	0.533329	-0.467181
C111	C	0.533523	0.533336	-0.532850
C112	C	0.533521	0.533339	-0.615242
C113	C	0.533520	0.533345	0.238230
C114	C	0.533519	0.533347	0.319090
C115	C	0.693501	0.373342	-0.000031
C116	C	0.747796	0.319040	-0.000035
C117	C	0.533499	0.373364	0.238227
C118	C	0.533491	0.319070	0.319086
C119	C	0.693499	0.373348	0.238219
C120	C	0.747793	0.319050	0.319074
C121	C	0.373545	0.693327	-0.238258
C122	C	0.319251	0.747626	-0.319113
C123	C	0.373543	0.693334	-0.000008
C124	C	0.319248	0.747635	-0.000004
C125	C	0.533545	0.693311	-0.238266
C126	C	0.533553	0.747605	-0.319125
C127	C	0.742051	0.293542	-0.046566
C128	C	0.793063	0.242527	-0.046587
C129	C	0.849819	0.217009	-0.000072
C130	C	0.855562	0.242512	0.046460
C131	C	0.804552	0.293529	0.046476
C132	C	0.564730	0.293572	0.403587
C133	C	0.564721	0.242564	0.479570
C134	C	0.533475	0.217053	0.471049
C135	C	0.502232	0.242556	0.386539
C136	C	0.502239	0.293567	0.310558
C137	C	0.804539	0.293546	0.310520
C138	C	0.855560	0.242533	0.386486
C139	C	0.849833	0.217022	0.471004
C140	C	0.793081	0.242531	0.479556
C141	C	0.742061	0.293546	0.403592
C142	C	0.262505	0.773136	-0.310560
C143	C	0.211484	0.824164	-0.386525
C144	C	0.217211	0.849678	-0.471043
C145	C	0.273964	0.824166	-0.479595
C146	C	0.324983	0.773142	-0.403631
C147	C	0.324993	0.773139	0.046519
C148	C	0.273981	0.824168	0.046519
C149	C	0.217226	0.849688	0.000001
C150	C	0.211482	0.824182	-0.046527
C151	C	0.262493	0.773158	-0.046533
C152	C	0.564804	0.773100	-0.310576
C153	C	0.564823	0.824108	-0.386544
C154	C	0.533587	0.849623	-0.471060
C155	C	0.502334	0.824123	-0.479608
C156	C	0.502319	0.773113	-0.403641
H157	H	0.621456	0.079618	-0.130957
H158	H	0.590174	0.314338	0.410542
H159	H	0.476813	0.221755	0.084386
C160	C	0.087116	0.533324	-0.203983
C161	C	0.109841	0.473810	-0.213959
C162	C	0.137905	0.473801	-0.286334
C163	C	0.143245	0.533305	-0.348733
C164	C	0.120520	0.592823	-0.338759
C165	C	0.092455	0.592832	-0.266384
H166	H	0.105888	0.429758	-0.167766
H167	H	0.154728	0.429741	-0.293717
H168	H	0.164020	0.533297	-0.402309
H169	H	0.124472	0.636875	-0.384953
H170	H	0.075632	0.636892	-0.259001
H171	H	0.590202	0.221762	-0.084432
H172	H	0.901765	0.221769	0.379507
H173	H	0.476854	-0.247633	0.084386
H174	H	0.891381	0.175482	0.532852
C175	C	0.599161	-0.147789	-0.097725
C176	C	0.649842	-0.154802	-0.047850
C177	C	0.684215	-0.126749	-0.099031
C178	C	0.667907	-0.091681	-0.200087
C179	C	0.617224	-0.084666	-0.249968
C180	C	0.582851	-0.112720	-0.198787
H181	H	0.661917	-0.180763	0.026963
H182	H	0.721735	-0.131942	-0.062105
H183	H	0.693352	-0.070914	-0.237975
H184	H	0.605149	-0.058705	-0.324782
H185	H	0.545331	-0.107526	-0.235713
H186	H	0.165279	0.844927	-0.379544
H187	H	0.788426	0.221752	0.548381
C188	C	0.810850	0.321606	0.217556
C189	C	0.754739	0.377722	0.133985
C190	C	0.761056	0.405782	0.041024
C191	C	0.823482	0.377726	0.031634
C192	C	0.879597	0.321606	0.115207
C193	C	0.873281	0.293546	0.208169
H194	H	0.708524	0.398494	0.140934
H195	H	0.719515	0.447326	-0.020843
H196	H	0.828158	0.398497	-0.037182
H197	H	0.925812	0.300834	0.108259
H198	H	0.914821	0.252002	0.270036
H199	H	0.257807	0.752394	-0.084415
H200	H	0.476855	-0.155090	0.084402
C201	C	0.905928	0.160884	-0.000088
C202	C	0.951179	0.174896	-0.037186
C203	C	1.007285	0.118770	-0.037203
C204	C	1.018140	0.048633	-0.000123
C205	C	0.972887	0.034618	0.036977
C206	C	0.916781	0.090744	0.036994
H207	H	0.943145	0.226818	-0.064637
H208	H	1.040784	0.129145	-0.064667
H209	H	1.059673	0.007085	-0.000136
H210	H	0.980921	-0.017305	0.064428
H211	H	0.883282	0.080369	0.064458
H212	H	0.590272	0.844865	-0.379567
C213	C	0.679624	0.321609	-0.097743
C214	C	0.673317	0.293557	-0.148931
C215	C	0.610892	0.321624	-0.200117
C216	C	0.554773	0.377742	-0.200115
C217	C	0.561078	0.405797	-0.148925
C218	C	0.623504	0.377730	-0.097739
H219	H	0.714861	0.252012	-0.148935
H220	H	0.606225	0.300856	-0.238011
H221	H	0.508562	0.398519	-0.238006
H222	H	0.519534	0.447342	-0.148922
H223	H	0.628170	0.398499	-0.059845
C224	C	0.599173	0.745035	-0.217614
C225	C	0.633553	0.773082	-0.208229
C226	C	0.667929	0.745017	-0.115270
C227	C	0.667923	0.688905	-0.031696
C228	C	0.633542	0.660855	-0.041078
C229	C	0.599166	0.688920	-0.134037
H230	H	0.633558	0.814622	-0.270098
H231	H	0.693380	0.765781	-0.108325
H232	H	0.693370	0.668129	0.037118
H233	H	0.633536	0.619315	0.020791
H234	H	0.573715	0.668156	-0.140982
C235	C	0.467972	0.852200	-0.572581
C236	C	0.501472	0.845190	-0.637612
C237	C	0.467106	0.873273	-0.730588
C238	C	0.399241	0.908366	-0.758534
C239	C	0.365738	0.915378	-0.693502
C240	C	0.400104	0.887295	-0.600526
H241	H	0.551713	0.819210	-0.616926
H242	H	0.491908	0.868082	-0.778729
H243	H	0.373802	0.929155	-0.827361
H244	H	0.315497	0.941358	-0.714188
H245	H	0.375302	0.892486	-0.552385
C246	C	0.436682	0.086892	0.144242
C247	C	0.452993	0.037790	0.245299
C248	C	0.418620	0.065847	0.296481
C249	C	0.367937	0.143005	0.246607
C250	C	0.351623	0.192112	0.145544
C251	C	0.385996	0.164055	0.094362
H252	H	0.490514	-0.019331	0.282225
H253	H	0.430696	0.029495	0.371295
H254	H	0.342492	0.163774	0.284495
H255	H	0.314102	0.249233	0.108618
H256	H	0.373920	0.200407	0.019548
C257	C	0.256194	0.745078	-0.217595
C258	C	0.312305	0.688952	-0.134024
C259	C	0.305989	0.660900	-0.041063
C260	C	0.243562	0.688973	-0.031673
C261	C	0.187447	0.745102	-0.115247
C262	C	0.193764	0.773154	-0.208208
H263	H	0.358520	0.668168	-0.140973
H264	H	0.347529	0.619350	0.020804
H265	H	0.238886	0.668207	0.037143
H266	H	0.141232	0.765887	-0.108298
H267	H	0.152223	0.814705	-0.270075
C268	C	-0.147572	0.533316	-0.138205
C269	C	-0.124833	0.473796	-0.148171
C270	C	-0.096771	0.473792	-0.220550
C271	C	-0.091448	0.533308	-0.282963
C272	C	-0.114188	0.592832	-0.272998
C273	C	-0.142250	0.592836	-0.200619
H274	H	-0.128772	0.429735	-0.101968
H275	H	-0.079937	0.429728	-0.227927
H276	H	-0.070675	0.533305	-0.336542
H277	H	-0.110248	0.636893	-0.319201
H278	H	-0.159083	0.636900	-0.193243
H279	H	0.533604	0.891160	-0.532911
C280	C	0.599094	0.214513	0.572523
C281	C	0.633471	0.242570	0.581887
C282	C	0.667844	0.214520	0.674838
C283	C	0.667841	0.158414	0.758424
C284	C	0.633464	0.130354	0.749063
C285	C	0.599090	0.158404	0.656113
H286	H	0.633474	0.284106	0.520009
H287	H	0.693293	0.235292	0.681767
H288	H	0.693287	0.137650	0.827231
H289	H	0.633460	0.088818	0.810941
H290	H	0.573641	0.137632	0.649183
C291	C	-0.254710	0.533308	-0.138203
C292	C	-0.260140	0.473858	-0.111956
C293	C	-0.288197	0.473849	-0.184323
C294	C	-0.310824	0.533288	-0.282936
C295	C	-0.305394	0.592742	-0.309187
C296	C	-0.277337	0.592752	-0.236821
H297	H	-0.243390	0.429854	-0.038953
H298	H	-0.292216	0.429837	-0.164890
H299	H	-0.331593	0.533281	-0.336507
H300	H	-0.322144	0.636747	-0.382191
H301	H	-0.273318	0.636764	-0.256254
H302	H	-0.154892	0.533322	0.119352
H303	H	0.476868	0.752360	-0.410614
C304	C	0.533475	0.160937	0.554634
C305	C	0.474209	0.174961	0.570856
C306	C	0.474213	0.118843	0.654444
C307	C	0.533484	0.048702	0.721810
C308	C	0.592755	0.034674	0.705589
C309	C	0.592751	0.090792	0.622002
H310	H	0.430329	0.226887	0.520987
H311	H	0.430337	0.129228	0.666451
H312	H	0.533488	0.007160	0.783686
H313	H	0.636635	-0.017252	0.755459
H314	H	0.636628	0.080408	0.609995
H315	H	0.278670	0.844926	0.084412
C316	C	-0.254737	0.533327	0.138138
C317	C	-0.217964	0.473809	0.236734
C318	C	-0.246024	0.473808	0.309116
C319	C	-0.310858	0.533325	0.282902
C320	C	-0.347635	0.592848	0.184301
C321	C	-0.319575	0.592849	0.111919
H322	H	-0.169966	0.429746	0.256143
H323	H	-0.218799	0.429745	0.382106
H324	H	-0.331630	0.533325	0.336484
H325	H	-0.395632	0.636911	0.164892
H326	H	-0.346800	0.636912	0.038929
C327	C	0.467878	0.321610	0.097678
C328	C	0.467876	0.377734	0.097670
C329	C	0.433505	0.405802	0.148843
C330	C	0.399136	0.377747	0.200024
C331	C	0.399137	0.321620	0.200035
C332	C	0.433508	0.293552	0.148862
H333	H	0.493319	0.398505	0.059780
H334	H	0.433504	0.447351	0.148835
H335	H	0.373692	0.398524	0.237906
H336	H	0.373693	0.300849	0.237924
H337	H	0.433508	0.252003	0.148870
H338	H	0.788374	0.221768	-0.084480
H339	H	0.175663	0.891225	-0.532891
H340	H	0.371187	0.752373	-0.410606
H341	H	0.590236	-0.247645	-0.084429
C342	C	0.280257	0.852233	-0.572570
C343	C	0.224133	0.908353	-0.656120
C344	C	0.230425	0.936419	-0.749097
C345	C	0.292841	0.908364	-0.758523
C346	C	0.348970	0.852241	-0.674970
C347	C	0.342678	0.824176	-0.581993
H348	H	0.177925	0.929123	-0.649145
H349	H	0.188875	0.977965	-0.810948
H350	H	0.297499	0.929140	-0.827350
H351	H	0.395178	0.831471	-0.681945
H352	H	0.384229	0.782630	-0.520142
H353	H	0.695858	0.314304	0.410569
C354	C	0.387420	0.745078	0.097688
C355	C	0.393727	0.773148	0.148849
C356	C	0.456152	0.745094	0.200015
C357	C	0.512271	0.688971	0.200020
C358	C	0.505966	0.660898	0.148858
C359	C	0.443541	0.688951	0.097691
H360	H	0.352183	0.814696	0.148846
H361	H	0.460819	0.765876	0.237889
H362	H	0.558482	0.668204	0.237897
H363	H	0.547510	0.619349	0.148860
H364	H	0.438874	0.668169	0.059817
H365	H	0.445613	-0.012952	0.130951
H366	H	0.476802	0.314321	0.241756
H367	H	0.221950	0.533339	-0.119389
H368	H	0.175694	0.891235	0.000013
C369	C	0.149047	0.852253	-0.097683
C370	C	0.105383	0.929416	-0.173140
C371	C	0.042946	0.957484	-0.224287
C372	C	0.024173	0.908389	-0.199977
C373	C	0.067837	0.831222	-0.124516
C374	C	0.130274	0.803154	-0.073369
H375	H	0.119280	0.965763	-0.191139
H376	H	0.010623	1.014608	-0.280148
H377	H	-0.022047	0.929167	-0.237839
H378	H	0.053941	0.794875	-0.106517
H379	H	0.162597	0.746029	-0.017508
H380	H	0.621468	-0.012937	-0.130950
C381	C	0.321784	0.533357	-0.138186
C382	C	0.344526	0.473838	-0.148157
C383	C	0.372590	0.473838	-0.220536
C384	C	0.377911	0.533356	-0.282943
C385	C	0.355168	0.592879	-0.272974
C386	C	0.327105	0.592879	-0.200595
H387	H	0.340588	0.429776	-0.101957
H388	H	0.389426	0.429775	-0.227915
H389	H	0.398686	0.533356	-0.336523
H390	H	0.359107	0.636941	-0.319174
H391	H	0.310269	0.636942	-0.193216
H392	H	0.476793	0.221777	0.379615
H393	H	0.590180	0.314327	-0.084444
H394	H	-0.012746	0.533312	0.185169
C395	C	0.214618	0.533353	0.138164
C396	C	0.209311	0.473825	0.200583
C397	C	0.181252	0.473819	0.272968
C398	C	0.158500	0.533341	0.282934
C399	C	0.163806	0.592874	0.220513
C400	C	0.191865	0.592880	0.148128
H401	H	0.226153	0.429760	0.193207
H402	H	0.177324	0.429749	0.319176
H403	H	0.137729	0.533337	0.336517
H404	H	0.146963	0.636940	0.227888
H405	H	0.195793	0.636950	0.101920
C406	C	0.321757	0.533358	0.138168
C407	C	0.386590	0.473836	0.200571
C408	C	0.414651	0.473829	0.272953
C409	C	0.377881	0.533345	0.282930
C410	C	0.313044	0.592872	0.220524
C411	C	0.284982	0.592878	0.148143
H412	H	0.413813	0.429775	0.193187
H413	H	0.462648	0.429764	0.319150
H414	H	0.398653	0.533341	0.336511
H415	H	0.285821	0.636933	0.227908
H416	H	0.236986	0.636943	0.101946
H417	H	-0.012721	0.533319	-0.185187
H418	H	0.901780	0.221728	0.084331
H419	H	0.809237	0.314284	0.084372
H420	H	0.079805	0.533311	0.185173
