data_functionalizedCrystal
_audit_creation_method	'MofGen! by Chris Wilmer'
_symmetry_space_group_name_H-M	'P1'
_symmetry_Int_Tables_number	1
_symmetry_cell_setting	triclinic
loop_
_symmetry_equiv_pos_as_xyz
  x,y,z
_cell_length_a	16.974848
_cell_length_b	16.053802
_cell_length_c	16.974755
_cell_angle_alpha	88.910023
_cell_angle_beta	83.159419
_cell_angle_gamma	83.770402
loop_
_atom_site_label
_atom_site_type_symbol
_atom_site_fract_x
_atom_site_fract_y
_atom_site_fract_z
O1	O	-1.056103	0.147136	-0.093771
O2	O	-0.825176	0.132447	-0.107301
O3	O	-0.946712	0.132439	0.014223
O4	O	-0.934567	0.147144	-0.215295
O5	O	-0.940022	-0.006421	0.007561
O6	O	-0.818486	-0.006413	-0.113962
O7	O	-1.049413	0.008276	-0.100433
Zn8	Zn	-0.932888	-0.021116	-0.108255
Zn9	Zn	-0.941702	0.161839	-0.099478
O10	O	-0.927877	0.008283	-0.221956
C11	C	-0.792276	0.060993	-0.110239
C12	C	-0.704211	0.054963	-0.109059
N13	N	-0.926878	-0.145977	-0.114245
C14	C	-0.208105	0.012894	-0.102836
C15	C	-0.290852	0.018562	-0.103944
C16	C	-0.335872	0.097090	-0.100861
C17	C	-0.298142	0.169955	-0.096678
C18	C	-0.215396	0.164287	-0.095575
C19	C	-0.583735	0.122160	-0.103774
C20	C	-0.666487	0.127822	-0.104874
C21	C	-0.659191	-0.023571	-0.112142
C22	C	-0.576445	-0.029233	-0.111035
C23	C	-0.538721	0.043632	-0.106855
N24	N	-0.420453	0.102885	-0.101991
N25	N	-0.454141	0.037837	-0.105731
C26	C	-0.978611	-0.189672	-0.062554
C27	C	-0.974414	-0.277078	-0.066752
C28	C	-0.918489	-0.320788	-0.122643
C29	C	-0.866751	-0.277087	-0.174336
C30	C	-0.870944	-0.189683	-0.170134
C31	C	-0.900172	-0.582195	-0.140974
C32	C	-0.895985	-0.669605	-0.145173
C33	C	-1.003648	-0.669590	-0.037587
C34	C	-1.007840	-0.582184	-0.033394
C35	C	-0.956099	-0.538491	-0.085083
N36	N	-0.914200	-0.410131	-0.126937
N37	N	-0.960384	-0.449150	-0.080786
C38	C	-0.082314	0.079728	-0.097489
C39	C	-0.170381	0.085754	-0.098651
C40	C	-0.942784	0.060985	0.040253
C41	C	-0.941035	0.054955	0.127740
N42	N	-0.947717	0.286700	-0.093483
C43	C	-0.931806	0.079739	-0.247987
C44	C	-0.933554	0.085775	-0.335474
C45	C	-0.930732	0.012913	0.619804
C46	C	-0.932383	0.018576	0.537601
C47	C	-0.936860	0.097102	0.500123
C48	C	-0.939680	0.169970	0.544852
C49	C	-0.938024	0.164306	0.627052
C50	C	-0.942199	0.122159	0.254669
C51	C	-0.943857	0.127817	0.172463
C52	C	-0.936558	-0.023578	0.165218
C53	C	-0.934907	-0.029235	0.247421
C54	C	-0.937723	0.043633	0.292141
N55	N	-0.938550	0.102893	0.416100
N56	N	-0.936028	0.037841	0.376163
H57	H	-0.171455	-0.051051	-0.105350
C58	C	-0.929277	-0.061579	0.488410
N59	N	-0.926937	-0.121956	0.451359
H60	H	-1.053379	-0.546597	0.012118
H61	H	-0.828816	-0.154108	-0.212225
H62	H	-1.045772	-0.705173	0.004497
C63	C	-0.542252	0.202313	-0.099160
N64	N	-0.511005	0.262689	-0.095679
C65	C	-0.834457	-0.717685	-0.206658
N66	N	-0.788117	-0.753898	-0.252967
H67	H	-0.858044	-0.546627	-0.183063
H68	H	-0.931265	-0.093179	0.277930
H69	H	-1.016539	-0.312654	-0.024661
H70	H	-0.703140	0.191773	-0.102369
C71	C	-0.526925	-0.115618	-0.114448
N72	N	-0.489626	-0.180685	-0.117023
C73	C	-0.805224	-0.325172	-0.235810
N74	N	-0.758881	-0.361389	-0.282114
H75	H	-0.334804	0.233894	-0.094172
C76	C	-0.925806	-0.073473	0.661021
N77	N	-0.922091	-0.138542	0.692064
H78	H	-0.321563	-0.040768	-0.107351
H79	H	-0.689914	-0.082894	-0.115546
C80	C	-0.933449	-0.103727	0.116018
N81	N	-0.931103	-0.164099	0.078959
C82	C	-1.040134	-0.141599	-0.001068
N83	N	-1.086472	-0.105394	0.045248
H84	H	-0.184682	0.223617	-0.092169
H85	H	-0.944499	0.181493	0.291071
H86	H	-0.947503	0.191766	0.141951
C87	C	-0.944611	0.256351	0.503624
N88	N	-0.948330	0.321415	0.472572
C89	C	-0.941135	0.244461	0.676247
N90	N	-0.943477	0.304837	0.713300
