data_functionalizedCrystal
_audit_creation_method	'MofGen! by Chris Wilmer'
_symmetry_space_group_name_H-M	'P1'
_symmetry_Int_Tables_number	1
_symmetry_cell_setting	triclinic
loop_
_symmetry_equiv_pos_as_xyz
  x,y,z
_cell_length_a	10.654554
_cell_length_b	10.908878
_cell_length_c	9.730223
_cell_angle_alpha	89.999679
_cell_angle_beta	89.999646
_cell_angle_gamma	72.285768
loop_
_atom_site_label
_atom_site_type_symbol
_atom_site_fract_x
_atom_site_fract_y
_atom_site_fract_z
O1	O	1.628693	0.180046	-0.114291
O2	O	1.259488	0.197192	-0.114293
O3	O	1.493033	0.002124	-0.114287
O4	O	1.395148	0.375115	-0.114297
O5	O	1.493030	0.002129	0.114293
O6	O	1.259485	0.197197	0.114287
O7	O	1.628690	0.180051	0.114289
Zn8	Zn	1.444087	0.188625	0.150580
Zn9	Zn	1.444091	0.188618	-0.150584
O10	O	1.395145	0.375119	0.114283
C11	C	1.212962	0.195934	-0.000003
C12	C	1.074339	0.192164	-0.000003
C13	C	0.839633	0.303479	-0.000009
C14	C	0.969885	0.307023	-0.000010
C15	C	1.048538	0.073755	-0.000011
C16	C	0.918289	0.070213	-0.000020
C17	C	0.794224	0.438155	-0.000003
C18	C	0.924475	0.441698	-0.000003
C19	C	1.502179	-0.045634	0.000002
C20	C	1.529422	-0.187943	-0.000003
C21	C	1.430019	-0.237839	-0.000006
C22	C	1.458173	-0.384923	-0.000010
C23	C	1.675215	0.181309	-0.000004
C24	C	1.813839	0.185079	-0.000013
C25	C	1.385998	0.422877	-0.000009
C26	C	1.358755	0.565187	-0.000013
N27	N	1.444093	0.188629	0.356116
N28	N	1.444097	0.188605	-0.356120
C29	C	1.547522	0.102282	0.428045
C30	C	1.547522	0.102266	0.571928
C31	C	1.340657	0.274955	0.571941
C32	C	1.340654	0.274964	0.428061
C33	C	1.666957	0.002585	0.428039
C34	C	1.666957	0.002569	0.571922
H35	H	1.133596	-0.019764	-0.000019
H36	H	0.942390	0.494351	0.095667
O37	O	1.653411	-0.120766	0.631045
H38	H	1.646227	-0.186144	0.546033
H39	H	0.741448	0.488904	-0.095661
H40	H	1.758695	0.024532	0.610972
O41	O	1.218401	-0.347183	0.000005
H42	H	1.166973	-0.365936	-0.093154
H43	H	1.666930	-0.095932	0.388988
O44	O	1.778761	0.043908	0.368904
H45	H	1.838042	0.065807	0.453911
O46	O	0.722016	0.492059	0.130712
H47	H	0.789066	0.523508	0.200019
O48	O	1.598527	-0.472555	-0.000009
H49	H	1.598616	-0.574328	-0.000020
O50	O	1.289675	-0.150197	0.000010
H51	H	1.238245	-0.168946	-0.093150
H52	H	1.635368	-0.254116	0.000002
H53	H	1.256425	0.345263	0.369497
O54	O	1.229101	0.368083	0.649535
H55	H	1.246481	0.353578	0.761670
H56	H	0.897296	-0.026199	-0.000040
H57	H	0.950787	0.484586	-0.098701
