data_functionalizedCrystal
_audit_creation_method	'MofGen! by Chris Wilmer'
_symmetry_space_group_name_H-M	'P1'
_symmetry_Int_Tables_number	1
_symmetry_cell_setting	triclinic
loop_
_symmetry_equiv_pos_as_xyz
  x,y,z
_cell_length_a	15.297475
_cell_length_b	12.645330
_cell_length_c	15.296720
_cell_angle_alpha	80.350659
_cell_angle_beta	88.382886
_cell_angle_gamma	80.321044
loop_
_atom_site_label
_atom_site_type_symbol
_atom_site_fract_x
_atom_site_fract_y
_atom_site_fract_z
Zn1	Zn	1.253448	-0.825067	0.726648
Zn2	Zn	1.753448	-0.325067	1.226648
Zn3	Zn	1.278720	-0.977718	0.580172
Zn4	Zn	1.778720	-0.477718	1.080172
Zn5	Zn	1.132323	-0.765511	0.554885
Zn6	Zn	1.632323	-0.265511	1.054885
Zn7	Zn	1.106946	-0.967297	0.701300
Zn8	Zn	1.606946	-0.467297	1.201300
O9	O	1.192859	-0.883898	0.640751
O10	O	1.692859	-0.383898	1.140751
O11	O	1.379380	-0.874601	0.728408
O12	O	1.879380	-0.374601	1.228408
O13	O	1.280497	-0.929005	0.454242
O14	O	1.780497	-0.429005	0.954242
O15	O	1.148435	-0.625078	0.577695
O16	O	1.648435	-0.125078	1.077695
O17	O	1.397947	-0.986754	0.620794
O18	O	1.897947	-0.486754	1.120794
O19	O	1.237425	-0.668833	0.703888
O20	O	1.737425	-0.168833	1.203888
O21	O	1.172939	-0.773098	0.435663
O22	O	1.672939	-0.273098	0.935663
O23	O	1.006377	-0.762993	0.553116
O24	O	1.506377	-0.262993	1.053116
O25	O	1.105183	-0.968993	0.827238
O26	O	1.605183	-0.468993	1.327238
O27	O	0.987732	-0.911244	0.660687
O28	O	1.487732	-0.411244	1.160687
O29	O	1.212818	-0.864497	0.845861
O30	O	1.712818	-0.364497	1.345861
O31	O	1.255889	-1.124669	0.596215
O32	O	1.755889	-0.624669	1.096215
O33	O	1.129687	-1.117013	0.685207
O34	O	1.629687	-0.617013	1.185207
C35	C	0.965271	-0.829526	0.601408
C36	C	1.465271	-0.329526	1.101408
C37	C	0.867904	-0.806295	0.584597
C38	C	1.367904	-0.306295	1.084597
C39	C	1.192797	-1.159311	0.640728
C40	C	1.692797	-0.659311	1.140728
C41	C	1.192846	-1.277157	0.640761
C42	C	1.692846	-0.777157	1.140761
C43	C	0.554772	-1.049945	0.760902
C44	C	1.054772	-0.549945	1.260902
C45	C	0.646253	-1.071780	0.776693
C46	C	1.146253	-0.571780	1.276693
C47	C	0.701670	-1.005410	0.728671
C48	C	1.201670	-0.505410	1.228671
C49	C	0.665597	-0.917203	0.664853
C50	C	1.165597	-0.417203	1.164853
C51	C	0.574108	-0.895371	0.649055
C52	C	1.074108	-0.395371	1.149055
C53	C	0.721006	-0.850836	0.616824
C54	C	1.221006	-0.350836	1.116824
C55	C	0.684933	-0.762629	0.553007
C56	C	1.184933	-0.262629	1.053007
C57	C	0.593452	-0.740801	0.537212
C58	C	1.093452	-0.240801	1.037212
C59	C	0.538035	-0.807170	0.585234
C60	C	1.038035	-0.307170	1.085234
C61	C	0.812496	-0.872668	0.632623
C62	C	1.312496	-0.372668	1.132623
C63	C	0.831831	-0.718094	0.520776
C64	C	1.331831	-0.218094	1.020776
C65	C	0.740350	-0.696259	0.504984
C66	C	1.240350	-0.196259	1.004984
C67	C	1.113695	-1.440051	0.697003
C68	C	1.613695	-0.940051	1.197003
C69	C	1.113388	-1.317372	0.696725
C70	C	1.613388	-0.817372	1.196725
C71	C	1.183843	-1.300270	0.544135
C72	C	1.683843	-0.800270	1.044135
C73	C	1.183360	-1.422840	0.544476
C74	C	1.683360	-0.922840	1.044476
C75	C	1.281541	-1.470384	0.680468
C76	C	1.781541	-0.970384	1.180468
C77	C	1.280623	-1.347981	0.682388
C78	C	1.780623	-0.847981	1.182388
C79	C	1.421336	-0.938483	0.680249
C80	C	1.921336	-0.438483	1.180249
C81	C	1.518699	-0.961744	0.697081
C82	C	2.018699	-0.461744	1.197081
C83	C	1.153351	-0.922226	0.869221
C84	C	1.653351	-0.422226	1.369221
C85	C	1.136514	-0.938559	0.966581
C86	C	1.636514	-0.438559	1.466581
C87	C	1.192942	-0.607419	0.640798
C88	C	1.692942	-0.107419	1.140798
C89	C	1.192977	-0.489600	0.640818
C90	C	1.692977	0.010400	1.140818
C91	C	1.232264	-0.845655	0.413179
C92	C	1.732264	-0.345655	0.913179
C93	C	1.249270	-0.829064	0.315849
C94	C	1.749270	-0.329064	0.815849
C95	C	1.313223	-0.766986	1.279808
C96	C	1.813223	-0.266986	1.779808
C97	C	1.329047	-0.751644	1.188334
C98	C	1.829047	-0.251644	1.688334
C99	C	1.280915	-0.798371	1.132891
C100	C	1.780915	-0.298371	1.632891
C101	C	1.216957	-0.860444	1.168931
C102	C	1.716957	-0.360444	1.668931
C103	C	1.201136	-0.875795	1.260415
C104	C	1.701136	-0.375795	1.760415
C105	C	1.168828	-0.907179	1.113499
C106	C	1.668828	-0.407179	1.613499
C107	C	1.104870	-0.969252	1.149538
C108	C	1.604870	-0.469252	1.649538
C109	C	1.089052	-0.984600	1.241013
C110	C	1.589052	-0.484600	1.741013
C111	C	1.137183	-0.937873	1.296456
C112	C	1.637183	-0.437873	1.796456
C113	C	1.184649	-0.891828	1.022015
C114	C	1.684649	-0.391828	1.522015
C115	C	1.072562	-1.000637	1.002622
C116	C	1.572562	-0.500637	1.502622
C117	C	1.056738	-1.015979	1.094096
C118	C	1.556738	-0.515979	1.594096
H119	H	0.841857	-0.944487	0.684584
H120	H	1.341857	-0.444487	1.184584
O121	O	1.257677	-1.465362	0.485991
O122	O	1.757677	-0.965362	0.985991
H123	H	1.304048	-1.531601	0.525986
H124	H	1.804048	-1.031601	1.025986
O125	O	1.296557	-1.533163	0.773337
O126	O	1.796557	-1.033163	1.273337
H127	H	1.300762	-1.621346	0.771922
H128	H	1.800762	-1.121346	1.271922
O129	O	1.118373	-1.297636	0.790978
O130	O	1.618373	-0.797636	1.290978
H131	H	1.178901	-1.262656	0.799231
H132	H	1.678901	-0.762656	1.299231
O133	O	0.987755	-1.082925	1.132975
O134	O	1.487755	-0.582925	1.632975
H135	H	1.005778	-1.166762	1.117998
H136	H	1.505778	-0.666762	1.617998
O137	O	0.439365	-0.783684	0.568183
O138	O	0.939365	-0.283684	1.068183
H139	H	0.403806	-0.767744	0.630112
H140	H	0.903806	-0.267744	1.130112
H141	H	0.710966	-0.624440	0.453023
H142	H	1.210966	-0.124440	0.953023
H143	H	1.287703	-1.334748	0.753579
H144	H	1.787703	-0.834748	1.253579
O145	O	1.120111	-0.954423	1.395120
O146	O	1.620111	-0.454423	1.895120
H147	H	1.164326	-0.911500	1.427613
H148	H	1.664326	-0.411500	1.927613
O149	O	1.253629	-0.824882	0.983153
O150	O	1.753629	-0.324882	1.483153
H151	H	1.256554	-0.822063	0.910230
H152	H	1.756554	-0.322063	1.410230
H153	H	1.036980	-1.035154	1.270355
H154	H	1.536980	-0.535154	1.770355
H155	H	1.033370	-1.038688	0.957480
H156	H	1.533370	-0.538688	1.457480
H157	H	1.240465	-1.273756	0.500427
H158	H	1.740465	-0.773756	1.000427
H159	H	1.352410	-0.728955	1.324958
H160	H	1.852410	-0.228955	1.824958
O161	O	1.297985	-0.781816	1.034231
O162	O	1.797985	-0.281816	1.534231
H163	H	1.319840	-0.861948	1.013156
H164	H	1.819840	-0.361948	1.513156
H165	H	0.564086	-0.668986	0.485238
H166	H	1.064086	-0.168986	0.985238
H167	H	0.876953	-0.664052	0.481671
H168	H	1.376953	-0.164052	0.981671
H169	H	1.120346	-1.250226	0.512165
H170	H	1.620346	-0.750226	1.012165
O171	O	1.361284	-1.313955	0.633784
O172	O	1.861284	-0.813955	1.133784
H173	H	1.362958	-1.227426	0.637566
H174	H	1.862958	-0.727426	1.137566
O175	O	0.800341	-1.028953	0.745699
O176	O	1.300341	-0.528953	1.245699
H177	H	0.816115	-1.101434	0.798146
H178	H	1.316115	-0.601434	1.298146
H179	H	1.048109	-1.452052	0.669746
H180	H	1.548109	-0.952052	1.169746
O181	O	1.118150	-1.499615	0.791378
O182	O	1.618150	-0.999615	1.291378
H183	H	1.176956	-1.565119	0.799270
H184	H	1.676956	-1.065119	1.299270
H185	H	0.509645	-1.103979	0.799989
H186	H	1.009645	-0.603979	1.299989
H187	H	0.675618	-1.143600	0.828652
H188	H	1.175618	-0.643600	1.328652
O189	O	1.359474	-1.513941	0.626576
O190	O	1.859474	-1.013941	1.126576
H191	H	1.352273	-1.471234	0.556948
H192	H	1.852273	-0.971234	1.056948
O193	O	1.026002	-1.253415	0.660237
O194	O	1.526002	-0.753415	1.160237
H195	H	0.983799	-1.310089	0.642714
H196	H	1.483799	-0.810089	1.142714
O197	O	1.398028	-0.684704	1.149464
O198	O	1.898028	-0.184704	1.649464
H199	H	1.379997	-0.600864	1.164432
H200	H	1.879997	-0.100864	1.664432
O201	O	1.098233	-1.434977	0.502455
O202	O	1.598233	-0.934977	1.002455
H203	H	1.057797	-1.353420	0.482086
H204	H	1.557797	-0.853420	0.982086
