data_functionalizedCrystal
_audit_creation_method	'MofGen! by Chris Wilmer'
_symmetry_space_group_name_H-M	'P1'
_symmetry_Int_Tables_number	1
_symmetry_cell_setting	triclinic
loop_
_symmetry_equiv_pos_as_xyz
  x,y,z
_cell_length_a	14.519709
_cell_length_b	9.065215
_cell_length_c	7.540329
_cell_angle_alpha	89.997743
_cell_angle_beta	90.004008
_cell_angle_gamma	84.347421
loop_
_atom_site_label
_atom_site_type_symbol
_atom_site_fract_x
_atom_site_fract_y
_atom_site_fract_z
O1	O	-1.225279	-0.193392	0.147248
O2	O	-0.956968	-0.216167	0.147301
O3	O	-1.096671	0.009967	0.147266
O4	O	-1.085576	-0.419526	0.147283
O5	O	-1.096666	0.009969	-0.147699
O6	O	-0.956963	-0.216165	-0.147664
O7	O	-1.225274	-0.193390	-0.147718
Cu8	Cu	-1.091118	-0.204777	-0.174623
Cu9	Cu	-1.091124	-0.204779	0.174207
O10	O	-1.085571	-0.419524	-0.147682
C11	C	-0.922598	-0.215104	-0.000174
C12	C	-0.820194	-0.211924	-0.000154
C13	C	-1.259644	-0.194452	-0.000238
C14	C	-1.362048	-0.197633	-0.000247
C15	C	-1.095603	0.064935	-0.000215
C16	C	-1.092416	0.228718	-0.000209
C17	C	-0.445212	-0.200215	-0.000235
C18	C	-0.549544	-0.203466	-0.000212
C19	C	-0.632700	-0.206069	-0.000193
C20	C	-0.737038	-0.209321	-0.000173
C21	C	-1.086639	-0.474492	-0.000198
C22	C	-1.089826	-0.638275	-0.000192
N23	N	-1.091121	-0.204775	-0.419972
N24	N	-1.091128	-0.204770	0.419556
