data_functionalizedCrystal
_audit_creation_method	'MofGen! by Chris Wilmer'
_symmetry_space_group_name_H-M	'P1'
_symmetry_Int_Tables_number	1
_symmetry_cell_setting	triclinic
loop_
_symmetry_equiv_pos_as_xyz
  x,y,z
_cell_length_a	10.540539
_cell_length_b	10.489741
_cell_length_c	9.016244
_cell_angle_alpha	89.998079
_cell_angle_beta	89.994699
_cell_angle_gamma	84.532333
loop_
_atom_site_label
_atom_site_type_symbol
_atom_site_fract_x
_atom_site_fract_y
_atom_site_fract_z
O1	O	1.685915	0.179759	-0.123270
O2	O	1.316504	0.196697	-0.123288
O3	O	1.509615	0.002629	-0.123269
O4	O	1.492803	0.373827	-0.123288
O5	O	1.509586	0.002634	0.123411
O6	O	1.316475	0.196701	0.123393
O7	O	1.685886	0.179764	0.123411
Cu8	Cu	1.501178	0.188233	0.145926
Cu9	Cu	1.501212	0.188228	-0.145803
O10	O	1.492775	0.373831	0.123393
C11	C	1.269186	0.195429	0.000050
C12	C	1.128238	0.191629	0.000044
C13	C	0.944793	0.046011	0.000627
C14	C	1.091412	0.049864	0.000055
C15	C	1.066589	0.259849	-0.140821
C16	C	0.920044	0.255011	-0.140924
C17	C	0.919524	0.257900	0.139598
C18	C	1.066506	0.259206	0.141445
C19	C	1.508331	-0.044900	0.000070
C20	C	1.504532	-0.186529	0.000067
C21	C	1.381661	-0.254654	0.000050
C22	C	1.439690	-0.346782	0.121680
C23	C	1.439747	-0.346761	-0.121528
C24	C	1.562612	-0.276791	0.121797
C25	C	1.562652	-0.276760	-0.121520
C26	C	1.620770	-0.368860	0.000139
C27	C	1.733203	0.181032	0.000070
C28	C	1.874152	0.184832	0.000067
C29	C	1.494059	0.421361	0.000050
C30	C	1.497858	0.562990	0.000043
N31	N	1.501164	0.188236	0.351112
N32	N	1.501236	0.188215	-0.350989
C33	C	1.397545	0.291701	0.586135
C34	C	1.397774	0.292088	0.414244
C35	C	1.633890	0.218515	0.413455
C36	C	1.633325	0.219248	0.585400
C37	C	1.473374	0.054153	0.585661
C38	C	1.470329	0.055022	0.413706
H39	H	0.887960	0.212023	0.246373
C40	C	1.740683	0.119473	0.358204
N41	N	1.821117	0.044872	0.316584
H42	H	1.614609	-0.245724	-0.224349
H43	H	0.872309	0.360296	0.140545
C44	C	1.245187	-0.187550	0.000211
N45	N	1.142399	-0.137003	0.000342
C46	C	1.124122	0.195816	-0.282445
N47	N	1.167453	0.147578	-0.389113
H48	H	1.299155	0.273869	0.372096
C49	C	1.369438	-0.388673	0.260586
N50	N	1.316516	-0.420222	0.365205
H51	H	1.548976	-0.022872	0.626320
C52	C	1.632766	-0.235148	0.260874
N53	N	1.685599	-0.203779	0.365628
C54	C	1.757366	-0.435660	0.000240
N55	N	1.860248	-0.485978	0.000326
C56	C	0.881940	0.186876	-0.283161
N57	N	0.853247	0.135549	-0.390294
H58	H	1.088955	0.363958	-0.146067
C59	C	1.369501	-0.388604	-0.260445
N60	N	1.316584	-0.420114	-0.365072
C61	C	1.421979	0.426456	0.358645
N62	N	1.440218	0.527667	0.316769
C63	C	1.421425	0.425311	0.644479
N64	N	1.439416	0.525946	0.688425
C65	C	1.121771	0.191839	0.282232
N66	N	1.163395	0.141086	0.388270
H67	H	1.657690	0.317055	0.625486
C68	C	1.345355	0.015248	0.644297
N69	N	1.248924	-0.014041	0.688462
C70	C	1.148962	-0.022666	0.136465
N71	N	1.192303	-0.077305	0.239210
H72	H	1.372688	0.032071	0.372961
H73	H	1.298617	0.273762	0.627525
H74	H	1.712958	0.146910	0.626990
H75	H	1.658800	0.315217	0.370374
H76	H	1.540846	-0.025687	0.370738
H77	H	0.916190	-0.009992	0.101649
H78	H	1.133163	-0.004197	-0.101092
C79	C	0.903974	-0.029344	-0.135065
N80	N	0.873222	-0.086100	-0.237268
H81	H	0.872088	0.356966	-0.147322
C82	C	1.099270	0.398830	0.152947
N83	N	1.123956	0.503997	0.161607
