data_functionalizedCrystal
_audit_creation_method	'MofGen! by Chris Wilmer'
_symmetry_space_group_name_H-M	'P1'
_symmetry_Int_Tables_number	1
_symmetry_cell_setting	triclinic
loop_
_symmetry_equiv_pos_as_xyz
  x,y,z
_cell_length_a	14.044191
_cell_length_b	14.044190
_cell_length_c	12.503572
_cell_angle_alpha	93.853158
_cell_angle_beta	93.844747
_cell_angle_gamma	86.808223
loop_
_atom_site_label
_atom_site_type_symbol
_atom_site_fract_x
_atom_site_fract_y
_atom_site_fract_z
O1	O	-1.272126	0.235248	0.089292
O2	O	-0.772126	0.735248	0.589292
O3	O	-0.995453	0.226936	0.089305
O4	O	-0.495453	0.726936	0.589305
O5	O	-1.129634	0.092755	0.089278
O6	O	-0.629634	0.592755	0.589278
O7	O	-1.137945	0.369430	0.089320
O8	O	-0.637945	0.869430	0.589320
O9	O	-1.139729	0.082651	-0.089366
O10	O	-0.639729	0.582651	0.410634
O11	O	-1.005548	0.216832	-0.089339
O12	O	-0.505548	0.716832	0.410661
O13	O	-1.282221	0.225144	-0.089352
O14	O	-0.782221	0.725144	0.410648
Cu15	Cu	-1.144806	0.220065	-0.105657
Cu16	Cu	-0.644806	0.720065	0.394343
Cu17	Cu	-1.132868	0.232015	0.105610
Cu18	Cu	-0.632868	0.732015	0.605610
O19	O	-1.148039	0.359326	-0.089324
O20	O	-0.648039	0.859326	0.410676
C21	C	-0.964878	0.218248	-0.000016
C22	C	-0.464878	0.718248	0.499984
C23	C	-0.858734	0.207401	-0.000012
C24	C	-0.358734	0.707401	0.499988
C25	C	-1.131045	0.052080	-0.000047
C26	C	-0.631045	0.552080	0.499953
C27	C	-1.120198	-0.054063	-0.000056
C28	C	-0.620198	0.445937	0.499944
C29	C	-1.177297	-0.299518	-0.000017
C30	C	-0.677297	0.200482	0.499983
C31	C	-1.100381	-0.248395	-0.000021
C32	C	-0.600381	0.251605	0.499979
C33	C	-1.111410	-0.140259	-0.000040
C34	C	-0.611410	0.359741	0.499960
C35	C	-1.166269	-0.407664	0.000003
C36	C	-0.666269	0.092336	0.500003
C37	C	-1.312795	0.233833	-0.000029
C38	C	-0.812795	0.733833	0.499971
C39	C	-1.418939	0.244680	-0.000026
C40	C	-0.918939	0.744680	0.499974
C41	C	-0.613277	0.264501	-0.000014
C42	C	-0.113277	0.764501	0.499986
C43	C	-0.664402	0.187584	-0.000023
C44	C	-0.164402	0.687584	0.499977
C45	C	-0.772538	0.198613	-0.000017
C46	C	-0.272538	0.698613	0.499983
C47	C	-0.505131	0.253474	-0.000020
C48	C	-0.005131	0.753474	0.499980
C49	C	-1.146628	0.400000	0.000003
C50	C	-0.646628	0.900000	0.500003
C51	C	-1.157475	0.506144	0.000019
C52	C	-0.657475	1.006144	0.500019
N53	N	-1.124471	0.240413	0.254204
N54	N	-0.624471	0.740413	0.754204
N55	N	-1.153210	0.211661	-0.254251
N56	N	-0.653210	0.711661	0.245749
C57	C	-1.112111	0.252766	0.473322
C58	C	-0.612111	0.752766	0.973322
C59	C	-1.165567	0.199311	0.526638
C60	C	-0.665567	0.699311	1.026638
C61	C	-1.158690	0.206184	0.648563
C62	C	-0.658690	0.706184	1.148563
C63	C	-1.118987	0.245893	0.351386
C64	C	-0.618987	0.745893	0.851386
H65	H	-1.026247	-0.285840	-0.000011
H66	H	-0.526247	0.214160	0.499989
O67	O	-1.275491	-0.249927	-0.000032
O68	O	-0.775491	0.250073	0.499968
H69	H	-1.318930	-0.275074	-0.072841
H70	H	-0.818930	0.224926	0.427159
H71	H	-0.626953	0.113455	0.000041
H72	H	-0.126953	0.613455	0.500041
O73	O	-0.662864	0.362698	0.000015
O74	O	-0.162864	0.862698	0.500015
H75	H	-0.741247	0.356059	0.000028
H76	H	-0.241247	0.856059	0.500028
O77	O	-1.233024	0.131840	0.465822
O78	O	-0.733024	0.631840	0.965822
H79	H	-1.227902	0.136949	0.378213
H80	H	-0.727902	0.636949	0.878213
O81	O	-1.044622	0.320195	0.534138
O82	O	-0.544622	0.820195	1.034138
H83	H	-1.049727	0.315059	0.621745
H84	H	-0.549727	0.815059	1.121745
