data_functionalizedCrystal
_audit_creation_method	'MofGen! by Chris Wilmer'
_symmetry_space_group_name_H-M	'P1'
_symmetry_Int_Tables_number	1
_symmetry_cell_setting	triclinic
loop_
_symmetry_equiv_pos_as_xyz
  x,y,z
_cell_length_a	10.723024
_cell_length_b	14.971486
_cell_length_c	13.448316
_cell_angle_alpha	90.006811
_cell_angle_beta	89.993562
_cell_angle_gamma	95.959001
loop_
_atom_site_label
_atom_site_type_symbol
_atom_site_fract_x
_atom_site_fract_y
_atom_site_fract_z
O1	O	1.655881	-0.125456	-0.082686
O2	O	1.292603	-0.137464	-0.082689
O3	O	1.483979	-0.001312	-0.082681
O4	O	1.464505	-0.261608	-0.082695
O5	O	1.483955	-0.001304	0.082703
O6	O	1.292579	-0.137455	0.082694
O7	O	1.655857	-0.125447	0.082698
Cu8	Cu	1.474216	-0.131451	0.097797
Cu9	Cu	1.474244	-0.131461	-0.097789
O10	O	1.464481	-0.261599	0.082689
C11	C	1.246101	-0.136586	0.000002
C12	C	1.107574	-0.133971	0.000001
C13	C	1.031795	-0.210155	-0.000004
C14	C	0.888620	-0.207454	-0.000005
C15	C	1.483096	0.032022	0.000011
C16	C	1.480486	0.131333	0.000010
C17	C	1.702360	-0.126325	0.000004
C18	C	1.840887	-0.128940	-0.000001
C19	C	1.465364	-0.294933	-0.000005
C20	C	1.467974	-0.394244	-0.000010
N21	N	1.474205	-0.131443	0.235361
C22	C	1.592914	0.187954	0.000012
C23	C	1.590455	0.281267	0.000002
C24	C	1.475566	0.317956	-0.000003
C25	C	1.363129	0.261327	-0.000008
C26	C	1.365590	0.168016	-0.000005
C27	C	1.358008	0.455817	-0.000011
C28	C	1.355546	0.549134	-0.000012
C29	C	1.582872	0.569068	-0.000005
C30	C	1.585333	0.475757	-0.000002
C31	C	1.472896	0.419134	-0.000005
N32	N	1.474265	-0.131461	-0.235353
C33	C	1.558973	-0.071180	0.287406
C34	C	1.558980	-0.071179	0.391509
C35	C	1.474226	-0.131447	0.443566
C36	C	1.389449	-0.191712	0.391514
C37	C	1.389436	-0.191708	0.287413
C38	C	1.389484	-0.191719	0.608494
C39	C	1.389498	-0.191724	0.712603
C40	C	1.559028	-0.071190	0.712590
C41	C	1.559015	-0.071186	0.608489
C42	C	1.474240	-0.131453	0.556444
H43	H	1.686470	0.158090	0.000022
H44	H	1.066454	-0.066749	-0.000021
H45	H	1.072915	-0.277377	-0.000002
H46	H	1.682005	0.327365	0.000006
H47	H	1.627995	-0.022107	0.245028
H48	H	1.628054	-0.022118	0.754971
H49	H	0.823506	-0.272673	-0.000013
H50	H	1.320480	-0.240799	0.754982
H51	H	1.320446	-0.240792	0.566123
H52	H	1.320409	-0.240779	0.245039
H53	H	1.320434	-0.240780	0.433905
H54	H	0.905993	-0.063717	-0.000003
H55	H	1.678886	0.445888	0.000009
H56	H	1.628004	-0.022108	0.433883
H57	H	1.674423	0.615175	-0.000005
H58	H	1.269584	0.291207	-0.000018
H59	H	1.628034	-0.022116	0.566104
H60	H	1.261993	0.579003	-0.000000
H61	H	1.274039	0.121915	-0.000006
H62	H	1.266449	0.409717	-0.000016
