data_functionalizedCrystal
_audit_creation_method	'MofGen! by Chris Wilmer'
_symmetry_space_group_name_H-M	'P1'
_symmetry_Int_Tables_number	1
_symmetry_cell_setting	triclinic
loop_
_symmetry_equiv_pos_as_xyz
  x,y,z
_cell_length_a	14.519709
_cell_length_b	12.811445
_cell_length_c	11.892113
_cell_angle_alpha	99.769101
_cell_angle_beta	94.362140
_cell_angle_gamma	83.863608
loop_
_atom_site_label
_atom_site_type_symbol
_atom_site_fract_x
_atom_site_fract_y
_atom_site_fract_z
O1	O	0.137641	1.408112	0.238348
O2	O	0.149370	1.100542	0.206823
O3	O	0.009333	1.262481	0.223411
O4	O	0.277678	1.246173	0.221760
O5	O	-0.001306	1.250395	0.034164
O6	O	0.138730	1.088456	0.017576
O7	O	0.127002	1.396026	0.049101
Zn8	Zn	0.131177	1.240322	0.003291
Zn9	Zn	0.145195	1.256246	0.252632
O10	O	0.267039	1.234087	0.032513
C11	C	0.143066	1.055136	0.108164
C12	C	0.140121	0.937847	0.096142
C13	C	0.146207	0.730621	0.279889
C14	C	0.143441	0.620418	0.268598
C15	C	0.131830	0.607234	0.062270
C16	C	0.134596	0.717438	0.073561
C17	C	0.141783	0.779128	0.182374
C18	C	0.144542	0.889334	0.193664
C19	C	0.132939	0.876147	-0.012663
C20	C	0.130173	0.765944	-0.023954
C21	C	-0.030353	1.255678	0.128709
C22	C	-0.132752	1.253400	0.128475
C23	C	-0.507715	1.245017	0.127645
C24	C	-0.403388	1.247345	0.127876
C25	C	-0.320237	1.249208	0.128059
C26	C	-0.215904	1.251537	0.128292
C27	C	0.306725	1.240890	0.127217
C28	C	0.409125	1.243168	0.127458
C29	C	0.133306	1.441432	0.147762
C30	C	0.136251	1.558721	0.159792
N31	N	0.121609	1.229462	-0.166877
C32	C	0.221378	1.342671	-0.391914
C33	C	0.214683	1.335089	-0.511033
C34	C	0.101518	1.206720	-0.524237
C35	C	0.108214	1.214303	-0.405117
C36	C	0.168147	1.282279	-0.338960
C37	C	0.174847	1.289856	-0.219839
C38	C	0.061677	1.161493	-0.233044
C39	C	0.054982	1.153911	-0.352163
N40	N	0.154756	1.267114	0.422801
H41	H	0.147045	0.580929	0.348005
O42	O	0.266350	1.393910	-0.562332
C43	C	0.302067	1.569470	-0.580548
C44	C	0.243511	1.502979	-0.522350
H45	H	0.283609	1.657666	-0.548263
H46	H	0.378888	1.547639	-0.559490
H47	H	0.287007	1.552322	-0.677051
H48	H	0.258490	1.520092	-0.425836
H49	H	0.166707	1.524821	-0.543500
H50	H	0.124324	0.715701	-0.112547
O51	O	0.124698	0.547272	-0.043393
C52	C	0.035164	0.426928	-0.174644
C53	C	0.043109	0.494813	-0.054957
H54	H	-0.030786	0.384479	-0.184023
H55	H	0.032416	0.480475	-0.242463
H56	H	0.098027	0.365512	-0.186024
H57	H	-0.019736	0.556236	-0.043465
H58	H	0.045901	0.441198	0.012802
O59	O	0.128593	0.923103	-0.107515
C60	C	0.116839	0.898384	-0.313357
C61	C	0.121736	0.845074	-0.206038
H62	H	0.111314	0.835319	-0.393040
H63	H	0.053413	0.959160	-0.312332
H64	H	0.182239	0.940142	-0.314142
H65	H	0.056383	0.803257	-0.205183
H66	H	0.185203	0.784355	-0.207105
H67	H	0.223651	1.345201	-0.165975
H68	H	0.006183	1.098569	-0.406044
H69	H	0.270187	1.398011	-0.338048
H70	H	0.052714	1.151388	-0.578121
O71	O	0.009834	1.102876	-0.181713
C72	C	-0.143740	1.063670	-0.149462
C73	C	-0.085151	1.130107	-0.207685
H74	H	-0.220547	1.085678	-0.170420
H75	H	-0.125440	0.975455	-0.181815
H76	H	-0.128601	1.080747	-0.052970
H77	H	-0.100258	1.113121	-0.304183
H78	H	-0.103461	1.218301	-0.175241
H79	H	0.150394	0.939561	0.282265
O80	O	0.153306	0.790649	0.385519
C81	C	0.242922	0.910862	0.516824
C82	C	0.234985	0.842948	0.397152
H83	H	0.308965	0.953146	0.526276
H84	H	0.180145	0.972398	0.528260
H85	H	0.245557	0.857252	0.584566
H86	H	0.232377	0.896473	0.329337
H87	H	0.297762	0.781403	0.385814
