data_functionalizedCrystal
_audit_creation_method	'MofGen! by Chris Wilmer'
_symmetry_space_group_name_H-M	'P1'
_symmetry_Int_Tables_number	1
_symmetry_cell_setting	triclinic
loop_
_symmetry_equiv_pos_as_xyz
  x,y,z
_cell_length_a	17.699083
_cell_length_b	19.288840
_cell_length_c	16.176319
_cell_angle_alpha	89.989074
_cell_angle_beta	90.005533
_cell_angle_gamma	83.204515
loop_
_atom_site_label
_atom_site_type_symbol
_atom_site_fract_x
_atom_site_fract_y
_atom_site_fract_z
O1	O	0.094313	0.921472	-0.068886
O2	O	0.427647	1.254805	0.264447
O3	O	0.760980	1.588138	0.597780
O4	O	0.107070	0.719224	-0.068858
O5	O	0.440403	1.052557	0.264476
O6	O	0.773737	1.385890	0.597809
O7	O	-0.009506	0.826062	-0.068866
O8	O	0.323827	1.159395	0.264468
O9	O	0.657161	1.492728	0.597801
O10	O	0.210890	0.814634	-0.068879
O11	O	0.544223	1.147967	0.264455
O12	O	0.877556	1.481300	0.597788
O13	O	-0.009485	0.826051	0.068628
O14	O	0.323848	1.159385	0.401961
O15	O	0.657182	1.492718	0.735294
O16	O	0.107091	0.719213	0.068635
O17	O	0.440424	1.052547	0.401969
O18	O	0.773758	1.385880	0.735302
O19	O	0.094335	0.921461	0.068607
O20	O	0.427668	1.254795	0.401940
O21	O	0.761001	1.588128	0.735274
Cu22	Cu	0.100715	0.820336	0.081175
Cu23	Cu	0.434048	1.153670	0.414509
Cu24	Cu	0.767381	1.487003	0.747842
Cu25	Cu	0.100690	0.820349	-0.081426
Cu26	Cu	0.434023	1.153682	0.251907
Cu27	Cu	0.767356	1.487015	0.585240
O28	O	0.210911	0.814623	0.068615
O29	O	0.544244	1.147957	0.401948
O30	O	0.877577	1.481290	0.735281
C31	C	0.106673	0.693341	-0.000108
C32	C	0.440007	1.026675	0.333226
C33	C	0.773340	1.360008	0.666559
C34	C	0.105451	0.616235	-0.000096
C35	C	0.438784	0.949569	0.333237
C36	C	0.772117	1.282902	0.666570
C37	C	0.104852	0.580037	-0.075046
C38	C	0.438185	0.913370	0.258287
C39	C	0.771518	1.246703	0.591621
C40	C	0.103695	0.507588	-0.075056
C41	C	0.437028	0.840922	0.258277
C42	C	0.770361	1.174255	0.591611
C43	C	0.103121	0.471343	-0.000112
C44	C	0.436454	0.804677	0.333221
C45	C	0.769788	1.138010	0.666554
C46	C	0.103724	0.507550	0.074847
C47	C	0.437057	0.840883	0.408181
C48	C	0.770391	1.174217	0.741514
C49	C	0.104889	0.579996	0.074855
C50	C	0.438222	0.913329	0.408188
C51	C	0.771556	1.246663	0.741522
C52	C	0.056952	0.361957	0.057296
C53	C	0.390286	0.695290	0.390630
C54	C	0.723619	1.028623	0.723963
C55	C	0.055783	0.289513	0.057285
C56	C	0.389116	0.622846	0.390619
C57	C	0.722450	0.956179	0.723952
C58	C	0.099531	0.247895	-0.000134
C59	C	0.432865	0.581229	0.333200
C60	C	0.766198	0.914562	0.666533
C61	C	0.144440	0.278732	-0.057555
C62	C	0.477773	0.612066	0.275778
C63	C	0.811106	0.945399	0.609111
C64	C	0.145605	0.351178	-0.057548
C65	C	0.478938	0.684512	0.275786
C66	C	0.812271	1.017845	0.609119
C67	C	0.101858	0.392788	-0.000113
C68	C	0.435192	0.726121	0.333221
C69	C	0.768525	1.059454	0.666554
C70	C	0.097679	0.133140	-0.075099
C71	C	0.431012	0.466473	0.258234
C72	C	0.764346	0.799807	0.591567
C73	C	0.096526	0.060690	-0.075106
C74	C	0.429860	0.394023	0.258227
C75	C	0.763193	0.727356	0.591560
C76	C	0.096548	0.060654	0.074799
C77	C	0.429882	0.393987	0.408133
C78	C	0.763215	0.727321	0.741466
C79	C	0.097708	0.133102	0.074804
C80	C	0.431042	0.466435	0.408137
C81	C	0.764375	0.799768	0.741471
C82	C	0.098270	0.169341	-0.000148
C83	C	0.431603	0.502674	0.333186
C84	C	0.764937	0.836008	0.666519
C85	C	-0.037692	0.825647	-0.000119
C86	C	0.295641	1.158980	0.333215
C87	C	0.628975	1.492314	0.666548
C88	C	-0.121708	0.824418	-0.000118
C89	C	0.211625	1.157752	0.333215
C90	C	0.544959	1.491085	0.666548
C91	C	-0.170423	0.887130	-0.000126
C92	C	0.162910	1.220463	0.333207
C93	C	0.496243	1.553797	0.666541
C94	C	-0.249365	0.885972	-0.000133
C95	C	0.083968	1.219305	0.333200
C96	C	0.417302	1.552638	0.666534
C97	C	-0.279590	0.822101	-0.000127
C98	C	0.053744	1.155434	0.333207
C99	C	0.387077	1.488768	0.666540
C100	C	-0.230868	0.759384	-0.000121
C101	C	0.102465	1.092718	0.333212
C102	C	0.435798	1.426051	0.666545
C103	C	-0.151928	0.760544	-0.000120
C104	C	0.181405	1.093877	0.333213
C105	C	0.514738	1.427210	0.666546
C106	C	-0.549224	0.754708	-0.000128
C107	C	-0.215891	1.088042	0.333206
C108	C	0.117442	1.421375	0.666539
C109	C	-0.628171	0.753554	-0.000126
C110	C	-0.294837	1.086887	0.333207
C111	C	0.038496	1.420221	0.666540
C112	C	-0.646661	0.880136	-0.000140
C113	C	-0.313328	1.213470	0.333193
C114	C	0.020006	1.546803	0.666526
C115	C	-0.567721	0.881296	-0.000139
C116	C	-0.234388	1.214629	0.333194
C117	C	0.098946	1.547962	0.666528
C118	C	-0.519006	0.818580	-0.000138
C119	C	-0.185673	1.151913	0.333195
C120	C	0.147660	1.485246	0.666528
C121	C	-0.433409	0.819836	-0.000132
C122	C	-0.100076	1.153170	0.333201
C123	C	0.233258	1.486503	0.666535
C124	C	-0.365185	0.820843	-0.000127
C125	C	-0.031852	1.154177	0.333206
C126	C	0.301481	1.487510	0.666540
C127	C	0.239096	0.815038	-0.000134
C128	C	0.572430	1.148371	0.333199
C129	C	0.905763	1.481705	0.666533
C130	C	0.323113	0.816266	-0.000140
C131	C	0.656446	1.149600	0.333193
C132	C	0.989779	1.482933	0.666527
C133	C	0.094731	0.947344	-0.000145
C134	C	0.428065	1.280677	0.333188
C135	C	0.761398	1.614010	0.666521
C136	C	0.095954	1.024450	-0.000162
C137	C	0.429287	1.357783	0.333172
C138	C	0.762621	1.691116	0.666505
N139	N	0.100732	0.820333	0.195541
N140	N	0.434065	1.153666	0.528874
N141	N	0.767398	1.487000	0.862207
N142	N	0.100667	0.820357	-0.195791
N143	N	0.434000	1.153691	0.137542
N144	N	0.767333	1.487024	0.470875
C145	C	0.054889	0.778309	0.760940
C146	C	0.388222	1.111643	1.094273
C147	C	0.721556	1.444976	1.427606
C148	C	0.054895	0.778308	0.674393
C149	C	0.388228	1.111641	1.007726
C150	C	0.721562	1.444974	1.341059
C151	C	0.100683	0.820351	0.631116
C152	C	0.434017	1.153685	0.964449
C153	C	0.767350	1.487018	1.297783
C154	C	0.146463	0.862405	0.674391
C155	C	0.479796	1.195738	1.007724
C156	C	0.813129	1.529071	1.341058
C157	C	0.146452	0.862409	0.760936
C158	C	0.479786	1.195743	1.094270
C159	C	0.813119	1.529076	1.427603
C160	C	0.146505	0.862387	0.325363
C161	C	0.479839	1.195721	0.658696
C162	C	0.813172	1.529054	0.992029
C163	C	0.146514	0.862378	0.238811
C164	C	0.479848	1.195711	0.572144
C165	C	0.813181	1.529045	0.905478
C166	C	0.054948	0.778286	0.238819
C167	C	0.388281	1.111619	0.572152
C168	C	0.721615	1.444953	0.905485
C169	C	0.054938	0.778291	0.325364
C170	C	0.388271	1.111624	0.658698
C171	C	0.721604	1.444957	0.992031
C172	C	0.100714	0.820346	0.368632
C173	C	0.434047	1.153680	0.701965
C174	C	0.767381	1.487013	1.035298
C175	C	0.100706	0.820348	0.462476
C176	C	0.434039	1.153682	0.795809
C177	C	0.767372	1.487015	1.129143
C178	C	0.100696	0.820346	0.537273
C179	C	0.434029	1.153680	0.870607
C180	C	0.767363	1.487013	1.203940
H181	H	0.180067	0.244848	-0.104309
H182	H	0.513401	0.578182	0.229024
H183	H	0.846734	0.911515	0.562358
H184	H	0.017673	0.744044	0.203580
H185	H	0.351006	1.077378	0.536913
H186	H	0.684339	1.410711	0.870247
Cl187	Cl	-0.666166	0.673253	-0.000120
Cl188	Cl	-0.332832	1.006586	0.333213
Cl189	Cl	0.000501	1.339920	0.666547
H190	H	-0.509570	0.703641	-0.000127
H191	H	-0.176236	1.036974	0.333207
H192	H	0.157097	1.370308	0.666540
H193	H	0.103259	0.478035	0.135867
H194	H	0.436592	0.811368	0.469200
H195	H	0.769926	1.144701	0.802534
Cl196	Cl	0.204059	0.915252	0.379745
Cl197	Cl	0.537392	1.248585	0.713078
Cl198	Cl	0.870726	1.581919	1.046411
H199	H	0.098144	0.162646	-0.136129
H200	H	0.431478	0.495980	0.197204
H201	H	0.764811	0.829313	0.530537
Cl202	Cl	0.102941	0.462072	-0.169286
Cl203	Cl	0.436274	0.795405	0.164048
Cl204	Cl	0.769607	1.128739	0.497381
H205	H	0.183741	0.896641	0.639148
H206	H	0.517074	1.229974	0.972482
H207	H	0.850407	1.563307	1.305815
Cl208	Cl	0.204081	0.915237	0.184407
Cl209	Cl	0.537415	1.248570	0.517740
Cl210	Cl	0.870748	1.581904	0.851074
Cl211	Cl	0.204000	0.915275	0.815332
Cl212	Cl	0.537334	1.248609	1.148665
Cl213	Cl	0.870667	1.581942	1.481999
Cl214	Cl	0.095780	0.015181	-0.169338
Cl215	Cl	0.429113	0.348515	0.163996
Cl216	Cl	0.762447	0.681848	0.497329
Cl217	Cl	0.095835	0.015095	0.169016
Cl218	Cl	0.429168	0.348428	0.502349
Cl219	Cl	0.762501	0.681761	0.835682
H220	H	0.105309	0.609538	-0.136078
H221	H	0.438642	0.942871	0.197256
H222	H	0.771976	1.276205	0.530589
Cl223	Cl	-0.002673	0.725448	0.815336
Cl224	Cl	0.330660	1.058781	1.148669
Cl225	Cl	0.663993	1.392114	1.482003
H226	H	0.098191	0.162576	0.135836
H227	H	0.431524	0.495909	0.469170
H228	H	0.764858	0.829242	0.802503
Cl229	Cl	-0.310604	0.964813	-0.000140
Cl230	Cl	0.022729	1.298146	0.333193
Cl231	Cl	0.356062	1.631480	0.666526
Cl232	Cl	-0.000654	0.250751	0.129488
Cl233	Cl	0.332679	0.584085	0.462822
Cl234	Cl	0.666013	0.917418	0.796155
Cl235	Cl	0.202062	0.389942	-0.129728
Cl236	Cl	0.535395	0.723276	0.203606
Cl237	Cl	0.868728	1.056609	0.536939
H238	H	0.021325	0.395836	0.104058
H239	H	0.354658	0.729170	0.437391
H240	H	0.687992	1.062503	0.770725
H241	H	-0.145821	0.939141	-0.000126
H242	H	0.187512	1.272474	0.333207
H243	H	0.520846	1.605808	0.666541
H244	H	0.105377	0.609469	0.135890
H245	H	0.438711	0.942802	0.469223
H246	H	0.772044	1.276135	0.802557
H247	H	0.017655	0.744052	0.360596
H248	H	0.350988	1.077385	0.693929
H249	H	0.684322	1.410718	1.027262
H250	H	-0.543117	0.933306	-0.000140
H251	H	-0.209783	1.266639	0.333193
H252	H	0.123550	1.599972	0.666526
Cl253	Cl	-0.707907	0.958981	-0.000145
Cl254	Cl	-0.374574	1.292314	0.333189
Cl255	Cl	-0.041240	1.625648	0.666522
H256	H	-0.255483	0.707380	-0.000121
H257	H	0.077850	1.040713	0.333212
H258	H	0.411183	1.374046	0.666545
H259	H	-0.112264	0.709477	-0.000114
H260	H	0.221069	1.042811	0.333219
H261	H	0.554402	1.376144	0.666552
Cl262	Cl	-0.002633	0.725422	0.620001
Cl263	Cl	0.330700	1.058756	0.953334
Cl264	Cl	0.664034	1.392089	1.286668
