data_functionalizedCrystal
_audit_creation_method	'MofGen! by Chris Wilmer'
_symmetry_space_group_name_H-M	'P1'
_symmetry_Int_Tables_number	1
_symmetry_cell_setting	triclinic
loop_
_symmetry_equiv_pos_as_xyz
  x,y,z
_cell_length_a	14.519731
_cell_length_b	10.540535
_cell_length_c	12.996460
_cell_angle_alpha	89.992517
_cell_angle_beta	89.994327
_cell_angle_gamma	84.106248
loop_
_atom_site_label
_atom_site_type_symbol
_atom_site_fract_x
_atom_site_fract_y
_atom_site_fract_z
O1	O	1.224752	0.166529	-0.085572
O2	O	1.558085	0.499862	0.247761
O3	O	1.891419	0.833196	0.581094
O4	O	0.956383	0.186096	-0.085574
O5	O	1.289716	0.519430	0.247759
O6	O	1.623050	0.852763	0.581092
O7	O	1.096692	-0.008456	-0.085563
O8	O	1.430026	0.324877	0.247770
O9	O	1.763359	0.658211	0.581104
O10	O	1.084443	0.361082	-0.085584
O11	O	1.417776	0.694415	0.247750
O12	O	1.751109	1.027748	0.581083
O13	O	1.096677	-0.008467	0.085571
O14	O	1.430011	0.324867	0.418904
O15	O	1.763344	0.658200	0.752238
O16	O	0.956368	0.186086	0.085560
O17	O	1.289701	0.519419	0.418893
O18	O	1.623035	0.852752	0.752226
O19	O	1.224737	0.166518	0.085561
O20	O	1.558070	0.499852	0.418895
O21	O	1.891404	0.833185	0.752228
Cu22	Cu	1.090551	0.176301	0.101186
Cu23	Cu	1.423885	0.509634	0.434520
Cu24	Cu	1.757218	0.842968	0.767853
Cu25	Cu	1.090569	0.176314	-0.101199
Cu26	Cu	1.423902	0.509647	0.232134
Cu27	Cu	1.757235	0.842980	0.565467
O28	O	1.084428	0.361071	0.085550
O29	O	1.417761	0.694404	0.418883
O30	O	1.751094	1.027737	0.752217
C31	C	0.922011	0.185174	-0.000008
C32	C	1.255344	0.518508	0.333326
C33	C	1.588678	0.851841	0.666659
C34	C	0.819616	0.182427	-0.000008
C35	C	1.152949	0.515760	0.333325
C36	C	1.486283	0.849094	0.666659
C37	C	0.736460	0.180194	-0.000012
C38	C	1.069793	0.513528	0.333321
C39	C	1.403127	0.846861	0.666655
C40	C	0.632136	0.177405	-0.000012
C41	C	0.965470	0.510738	0.333321
C42	C	1.298803	0.844072	0.666654
C43	C	0.548985	0.175191	-0.000012
C44	C	0.882319	0.508524	0.333321
C45	C	1.215652	0.841858	0.666655
C46	C	0.444655	0.172402	-0.000014
C47	C	0.777988	0.505735	0.333319
C48	C	1.111322	0.839069	0.666653
C49	C	1.095767	-0.055755	0.000005
C50	C	1.429100	0.277578	0.333338
C51	C	1.762434	0.610912	0.666671
C52	C	1.093021	-0.196676	0.000006
C53	C	1.426355	0.136658	0.333339
C54	C	1.759688	0.469991	0.666673
C55	C	0.990578	-0.232311	-0.000002
C56	C	1.323912	0.101022	0.333331
C57	C	1.657245	0.434355	0.666664
C58	C	0.987689	-0.378883	-0.000409
C59	C	1.321022	-0.045549	0.332924
C60	C	1.654356	0.287784	0.666258
C61	C	1.139793	-0.406467	-0.097553
C62	C	1.473127	-0.073134	0.235781
C63	C	1.806460	0.260200	0.569114
C64	C	1.141973	-0.259724	-0.097616
C65	C	1.475307	0.073610	0.235717
C66	C	1.808640	0.406943	0.569050
C67	C	1.143446	-0.259889	0.097002
C68	C	1.476780	0.073444	0.430335
C69	C	1.810113	0.406778	0.763668
C70	C	1.138709	-0.406188	0.098265
C71	C	1.472042	-0.072854	0.431599
C72	C	1.805375	0.260479	0.764932
C73	C	1.259109	0.167441	-0.000008
C74	C	1.592442	0.500774	0.333326
C75	C	1.925776	0.834107	0.666659
C76	C	1.361504	0.170188	-0.000014
C77	C	1.694837	0.503521	0.333319
C78	C	2.028171	0.836855	0.666653
C79	C	1.085353	0.408370	-0.000020
C80	C	1.418686	0.741703	0.333314
C81	C	1.752020	1.075037	0.666647
C82	C	1.088099	0.549291	-0.000028
C83	C	1.421432	0.882624	0.333306
C84	C	1.754765	1.215957	0.666639
N85	N	1.090546	0.176291	0.243533
N86	N	1.423879	0.509625	0.576867
N87	N	1.757212	0.842958	0.910200
N88	N	1.090582	0.176314	-0.243546
N89	N	1.423915	0.509647	0.089787
N90	N	1.757248	0.842980	0.423120
C91	C	1.090567	0.176315	0.663348
C92	C	1.423901	0.509648	0.996681
C93	C	1.757234	0.842982	1.330014
C94	C	1.090559	0.176313	0.546543
C95	C	1.423892	0.509646	0.879876
C96	C	1.757225	0.842979	1.213209
C97	C	1.090557	0.176304	0.453444
C98	C	1.423890	0.509638	0.786778
C99	C	1.757224	0.842971	1.120111
C100	C	1.090547	0.176300	0.336632
C101	C	1.423881	0.509633	0.669965
C102	C	1.757214	0.842967	1.003298
H103	H	0.947252	-0.407823	0.069481
H104	H	1.280586	-0.074489	0.402814
H105	H	1.613919	0.258844	0.736147
H106	H	1.211994	-0.455964	0.104448
H107	H	1.545328	-0.122631	0.437782
H108	H	1.878661	0.210702	0.771115
H109	H	0.951233	-0.189956	0.069928
H110	H	1.284566	0.143377	0.403262
H111	H	1.617900	0.476710	0.736595
H112	H	0.951904	-0.188451	-0.069838
H113	H	1.285238	0.144882	0.263496
H114	H	1.618571	0.478216	0.596829
H115	H	1.217073	-0.237451	-0.101769
H116	H	1.550406	0.095883	0.231564
H117	H	1.883739	0.429216	0.564898
H118	H	1.101090	-0.434426	0.170416
H119	H	1.434423	-0.101093	0.503749
H120	H	1.767757	0.232241	0.837083
H121	H	0.947475	-0.406917	-0.070739
H122	H	1.280808	-0.073584	0.262594
H123	H	1.614142	0.259750	0.595927
H124	H	1.218817	-0.238455	0.097953
H125	H	1.552150	0.094878	0.431287
H126	H	1.885483	0.428211	0.764620
H127	H	1.107074	-0.219187	-0.170798
H128	H	1.440407	0.114147	0.162535
H129	H	1.773741	0.447480	0.495868
H130	H	1.213724	-0.454570	-0.100906
H131	H	1.547057	-0.121236	0.232427
H132	H	1.880390	0.212097	0.565761
H133	H	1.104338	-0.436996	-0.170416
H134	H	1.437671	-0.103663	0.162918
H135	H	1.771005	0.229671	0.496251
H136	H	1.111473	-0.217120	0.170952
H137	H	1.444807	0.116213	0.504286
H138	H	1.778140	0.449547	0.837619
