data_functionalizedCrystal
_audit_creation_method	'MofGen! by Chris Wilmer'
_symmetry_space_group_name_H-M	'P1'
_symmetry_Int_Tables_number	1
_symmetry_cell_setting	triclinic
loop_
_symmetry_equiv_pos_as_xyz
  x,y,z
_cell_length_a	33.428889
_cell_length_b	33.428139
_cell_length_c	33.424847
_cell_angle_alpha	60.004234
_cell_angle_beta	60.008465
_cell_angle_gamma	59.994972
loop_
_atom_site_label
_atom_site_type_symbol
_atom_site_fract_x
_atom_site_fract_y
_atom_site_fract_z
O1	O	0.055565	-0.584504	0.488714
O2	O	0.555565	-0.084504	0.988714
O3	O	0.020982	-0.455083	0.393778
O4	O	0.520982	0.044917	0.893778
O5	O	0.102943	-0.536959	0.393689
O6	O	0.602943	-0.036959	0.893689
O7	O	-0.026396	-0.502628	0.488803
O8	O	0.473604	-0.002628	0.988803
O9	O	0.130140	-0.509767	0.420792
O10	O	0.630140	-0.009767	0.920792
O11	O	0.048179	-0.427891	0.420881
O12	O	0.548179	0.072109	0.920881
O13	O	0.082762	-0.557312	0.515817
O14	O	0.582762	-0.057312	1.015817
Cu15	Cu	0.067954	-0.490119	0.470823
Cu16	Cu	0.567954	0.009881	0.970823
Cu17	Cu	0.035790	-0.522276	0.438771
Cu18	Cu	0.535790	-0.022276	0.938771
O19	O	0.000801	-0.475436	0.515906
O20	O	0.500801	0.024564	1.015906
N21	N	0.090577	-0.467504	0.493370
N22	N	0.590577	0.032496	0.993370
N23	N	0.013171	-0.544895	0.416225
N24	N	0.513171	-0.044895	0.916225
C25	C	0.143377	-0.280390	0.546067
C26	C	0.643377	0.219610	1.046067
C27	C	0.143515	-0.414755	0.680369
C28	C	0.643515	0.085245	1.180369
C29	C	0.143392	-0.414735	0.546069
C30	C	0.643392	0.085265	1.046069
C31	C	0.277766	-0.414702	0.545966
C32	C	0.777766	0.085298	1.045966
C33	C	0.158177	-0.324719	0.560828
C34	C	0.658177	0.175281	1.060828
C35	C	0.158255	-0.399967	0.636038
C36	C	0.658255	0.100033	1.136038
C37	C	0.233434	-0.399936	0.560773
C38	C	0.733434	0.100064	1.060773
C39	C	0.158186	-0.399955	0.560829
C40	C	0.658186	0.100045	1.060829
C41	C	0.124540	-0.223964	0.527278
C42	C	0.624540	0.276036	1.027278
C43	C	0.124565	-0.433545	0.527281
C44	C	0.624565	0.066455	1.027281
C45	C	0.177014	-0.381145	0.579617
C46	C	0.677014	0.118855	1.079617
C47	C	0.359814	-0.400540	0.502735
C48	C	0.859814	0.099460	1.002735
C49	C	0.411105	-0.417624	0.485606
C50	C	0.911105	0.082376	0.985606
C51	C	0.411136	-0.500620	0.517255
C52	C	0.911136	-0.000620	1.017255
C53	C	0.359845	-0.483534	0.534385
C54	C	0.859845	0.016466	1.034385
C55	C	0.136887	-0.198305	0.476855
C56	C	0.636887	0.301695	0.976855
C57	C	0.119761	-0.147011	0.459777
C58	C	0.619761	0.352989	0.959777
C59	C	0.077945	-0.147038	0.543547
C60	C	0.577945	0.352962	1.043547
C61	C	0.095072	-0.198332	0.560625
C62	C	0.595072	0.301668	1.060625
C63	C	0.074134	-0.421169	0.539710
C64	C	0.574134	0.078831	1.039710
C65	C	0.057023	-0.438269	0.522625
C66	C	0.557023	0.061731	1.022625
C67	C	0.140770	-0.480120	0.480694
C68	C	0.640770	0.019880	0.980694
C69	C	0.157883	-0.463020	0.497773
C70	C	0.657883	0.036980	0.997773
C71	C	0.074339	-0.421208	0.762475
C72	C	0.574339	0.078792	1.262475
C73	C	0.057288	-0.438323	0.813768
C74	C	0.557288	0.061677	1.313768
C75	C	0.141075	-0.480183	0.813699
C76	C	0.641075	0.019817	1.313699
C77	C	0.158125	-0.463069	0.762404
C78	C	0.658125	0.036931	1.262404
C79	C	0.124756	-0.433580	0.736794
C80	C	0.624756	0.066420	1.236794
C81	C	0.334186	-0.433494	0.527123
C82	C	0.834186	0.066506	1.027123
C83	C	-0.173769	-0.597444	0.363037
C84	C	0.326231	-0.097444	0.863037
C85	C	-0.039302	-0.597595	0.228856
C86	C	0.460698	-0.097595	0.728856
C87	C	-0.039496	-0.597587	0.363300
C88	C	0.460504	-0.097587	0.863300
C89	C	-0.039512	-0.731889	0.363237
C90	C	0.460488	-0.231889	0.863237
C91	C	-0.129442	-0.612265	0.348329
C92	C	0.370558	-0.112265	0.848329
C93	C	-0.054138	-0.612351	0.273187
C94	C	0.445862	-0.112351	0.773187
C95	C	-0.054257	-0.687554	0.348440
C96	C	0.445743	-0.187554	0.848440
C97	C	-0.054247	-0.612346	0.348477
C98	C	0.445753	-0.112346	0.848477
C99	C	-0.230191	-0.578579	0.381758
C100	C	0.269809	-0.078579	0.881758
C101	C	-0.020722	-0.578803	0.382168
C102	C	0.479278	-0.078803	0.882168
C103	C	-0.073020	-0.631130	0.329609
C104	C	0.426980	-0.131130	0.829609
C105	C	-0.053713	-0.813916	0.406386
C106	C	0.446287	-0.313916	0.906386
C107	C	-0.036654	-0.865210	0.423504
C108	C	0.463346	-0.365210	0.923504
C109	C	0.046338	-0.865293	0.391984
C110	C	0.546338	-0.365293	0.891984
C111	C	0.029278	-0.813999	0.374865
C112	C	0.529278	-0.313999	0.874865
C113	C	-0.255900	-0.590938	0.432169
C114	C	0.244100	-0.090938	0.932169
C115	C	-0.307191	-0.573786	0.449185
C116	C	0.192809	-0.073786	0.949185
C117	C	-0.307060	-0.531922	0.365377
C118	C	0.192940	-0.031922	0.865377
C119	C	-0.255769	-0.549074	0.348360
C120	C	0.244231	-0.049074	0.848360
C121	C	-0.033081	-0.528377	0.369764
C122	C	0.466919	-0.028377	0.869764
C123	C	-0.016014	-0.511306	0.386922
C124	C	0.483986	-0.011306	0.886922
C125	C	0.025770	-0.595083	0.428877
C126	C	0.525770	-0.095083	0.928877
C127	C	0.008703	-0.612156	0.411725
C128	C	0.508703	-0.112156	0.911725
C129	C	-0.032755	-0.528393	0.146761
C130	C	0.467245	-0.028393	0.646761
C131	C	-0.015585	-0.511324	0.095468
C132	C	0.484415	-0.011324	0.595468
C133	C	0.026262	-0.595106	0.095516
C134	C	0.526262	-0.095106	0.595516
C135	C	0.009094	-0.612174	0.146811
C136	C	0.509094	-0.112174	0.646811
C137	C	-0.020417	-0.578816	0.172432
C138	C	0.479583	-0.078816	0.672432
C139	C	-0.020748	-0.788312	0.382068
C140	C	0.479252	-0.288312	0.882068
N141	N	0.436037	-0.467415	0.493101
N142	N	0.936037	0.032585	0.993101
O143	O	0.592642	-0.471896	0.376066
O144	O	1.092642	0.028104	0.876066
O145	O	0.592838	-0.567146	0.505347
O146	O	1.092838	-0.067146	1.005347
O147	O	0.592754	-0.566928	0.423360
O148	O	1.092754	-0.066928	0.923360
O149	O	0.592727	-0.472113	0.458053
O150	O	1.092727	0.027887	0.958053
O151	O	0.511269	-0.539835	0.450606
O152	O	1.011269	-0.039835	0.950606
O153	O	0.511353	-0.540052	0.532594
O154	O	1.011353	-0.040052	1.032594
O155	O	0.511157	-0.444802	0.403312
O156	O	1.011157	0.055198	0.903312
Cu157	Cu	0.503815	-0.489954	0.470441
Cu158	Cu	1.003815	0.010046	0.970441
Cu159	Cu	0.600180	-0.521995	0.438219
Cu160	Cu	1.100180	-0.021995	0.938219
O161	O	0.511242	-0.445020	0.485300
O162	O	1.011242	0.054980	0.985300
N163	N	0.667959	-0.544533	0.415554
N164	N	1.167959	-0.044533	0.915554
N165	N	0.090544	-0.122107	0.493359
N166	N	0.590544	0.377893	0.993359
O167	O	-0.026406	0.034587	0.488773
O168	O	0.473594	0.534587	0.988773
O169	O	0.102877	0.034627	0.393499
O170	O	0.602877	0.534627	0.893499
O171	O	0.020848	0.034591	0.393771
O172	O	0.520848	0.534591	0.893771
O173	O	0.055623	0.034623	0.488500
O174	O	0.555623	0.534623	0.988500
O175	O	0.048051	-0.046899	0.420925
O176	O	0.548051	0.453101	0.920925
O177	O	0.130080	-0.046864	0.420653
O178	O	0.630080	0.453136	0.920653
O179	O	0.000796	-0.046903	0.515927
O180	O	0.500796	0.453097	1.015927
Cu181	Cu	0.067922	-0.054324	0.470769
Cu182	Cu	0.567922	0.445676	0.970769
Cu183	Cu	0.035752	0.042048	0.438656
Cu184	Cu	0.535752	0.542048	0.938656
O185	O	0.082825	-0.046867	0.515655
O186	O	0.582825	0.453133	1.015655
N187	N	0.013123	0.109830	0.416068
N188	N	0.513123	0.609830	0.916068
N189	N	0.090892	-0.467554	0.838649
N190	N	0.590892	0.032446	1.338649
O191	O	0.086330	-0.584488	0.995334
O192	O	0.586330	-0.084488	1.495334
O193	O	-0.008902	-0.455160	0.995379
O194	O	0.491098	0.044840	1.495379
O195	O	-0.008679	-0.537172	0.995355
O196	O	0.491321	-0.037172	1.495355
O197	O	0.086107	-0.502475	0.995358
O198	O	0.586107	-0.002475	1.495358
O199	O	0.018452	-0.509990	0.913868
O200	O	0.518452	-0.009990	1.413868
O201	O	0.018230	-0.427978	0.913891
O202	O	0.518230	0.072022	1.413891
O203	O	0.113461	-0.557306	0.913847
O204	O	0.613461	-0.057306	1.413847
Cu205	Cu	0.068323	-0.490160	0.906429
Cu206	Cu	0.568323	0.009840	1.406429
Cu207	Cu	0.036237	-0.522306	1.002797
Cu208	Cu	0.536237	-0.022306	1.502797
O209	O	0.113239	-0.475293	0.913870
O210	O	0.613239	0.024707	1.413870
N211	N	0.013667	-0.544916	1.070577
N212	N	0.513667	-0.044916	1.570577
C213	C	0.031339	-0.425179	0.394250
C214	C	0.531339	0.074821	0.894250
C215	C	0.132837	-0.526572	0.394139
C216	C	0.632837	-0.026572	0.894139
C217	C	0.072405	-0.587216	0.515344
C218	C	0.572405	-0.087216	1.015344
C219	C	-0.029093	-0.485823	0.515455
C220	C	0.470907	0.014177	1.015455
C221	C	0.552119	-0.566716	0.535258
C222	C	1.052119	-0.066716	1.035258
C223	C	0.552016	-0.566447	0.433726
C224	C	1.052016	-0.066447	0.933726
C225	C	0.551873	-0.445232	0.373402
C226	C	1.051873	0.054768	0.873402
C227	C	0.551980	-0.445502	0.474933
C228	C	1.051980	0.054498	0.974933
C229	C	0.132731	-0.006013	0.393923
C230	C	0.632731	0.493987	0.893923
C231	C	0.031182	-0.006158	0.394293
C232	C	0.531182	0.493842	0.894293
C233	C	-0.029092	-0.006163	0.515469
C234	C	0.470908	0.493837	1.015469
C235	C	0.072491	-0.006119	0.515133
C236	C	0.572491	0.493881	1.015133
C237	C	-0.008451	-0.425276	0.954641
C238	C	0.491549	0.074724	1.454641
C239	C	-0.008170	-0.526833	0.954596
C240	C	0.491830	-0.026833	1.454596
C241	C	0.113010	-0.587190	0.954585
C242	C	0.613010	-0.087190	1.454585
C243	C	0.112735	-0.485627	0.954611
C244	C	0.612735	0.014373	1.454611
H245	H	0.016234	-0.428240	0.834672
H246	H	0.516234	0.071760	1.334672
H247	H	0.023949	-0.388000	0.364433
H248	H	0.523949	0.112000	0.864433
H249	H	0.079939	-0.006110	0.544893
H250	H	0.579939	0.493890	1.044893
C251	C	0.551942	-0.405839	0.484929
C252	C	1.051942	0.094161	0.984929
C253	C	0.551992	-0.423605	0.532753
C254	C	1.051992	0.076395	1.032753
C255	C	0.551951	-0.387080	0.541981
C256	C	1.051951	0.112920	1.041981
H257	H	0.580324	-0.396861	0.462349
H258	H	1.080324	0.103139	0.962349
H259	H	0.523489	-0.377987	0.481337
H260	H	1.023489	0.122013	0.981337
H261	H	0.580442	-0.451448	0.536341
H262	H	1.080442	0.048552	1.036341
H263	H	0.523612	-0.432579	0.555343
H264	H	1.023612	0.067421	1.055343
H265	H	0.523498	-0.359228	0.538389
H266	H	1.023498	0.140772	1.038389
H267	H	0.580333	-0.378105	0.519398
H268	H	1.080333	0.121895	1.019398
H269	H	0.551980	-0.399127	0.574431
H270	H	1.051980	0.100873	1.074431
H271	H	-0.066242	-0.478508	0.545321
H272	H	0.433758	0.021492	1.045321
C273	C	0.045941	-0.119295	0.579829
C274	C	0.545941	0.380705	1.079829
C275	C	0.038791	-0.152747	0.627645
C276	C	0.538791	0.347253	1.127645
C277	C	0.009305	-0.127210	0.661081
C278	C	0.509305	0.372790	1.161081
H279	H	0.061559	-0.099275	0.574951
H280	H	0.561559	0.400725	1.074951
H281	H	0.015164	-0.099305	0.574959
H282	H	0.515164	0.400695	1.074959
H283	H	0.069562	-0.172728	0.632514
H284	H	0.569562	0.327272	1.132514
H285	H	0.023167	-0.172768	0.632539
H286	H	0.523167	0.327232	1.132539
H287	H	-0.021472	-0.107220	0.656211
H288	H	0.478528	0.392780	1.156211
H289	H	0.024926	-0.107191	0.656198
H290	H	0.524926	0.392809	1.156198
H291	H	0.004446	-0.149903	0.693528
H292	H	0.504446	0.350097	1.193528
H293	H	0.142910	-0.624330	0.954565
H294	H	0.642910	-0.124330	1.454565
C295	C	0.182114	-0.005730	0.353888
C296	C	0.682114	0.494270	0.853888
C297	C	0.181998	-0.005661	0.312023
C298	C	0.681998	0.494339	0.812023
C299	C	0.227484	-0.005412	0.275137
C300	C	0.727484	0.494588	0.775137
H301	H	0.187982	0.022747	0.346193
H302	H	0.687982	0.522747	0.846193
H303	H	0.207180	-0.034091	0.364959
H304	H	0.707180	0.465909	0.864959
H305	H	0.156939	0.022698	0.300953
H306	H	0.656939	0.522698	0.800953
H307	H	0.176138	-0.034135	0.319702
H308	H	0.676138	0.465865	0.819702
H309	H	0.252551	-0.033774	0.286208
H310	H	0.752551	0.466226	0.786208
H311	H	0.233349	0.023065	0.267446
H312	H	0.733349	0.523065	0.767446
H313	H	0.227413	-0.005370	0.246729
H314	H	0.727413	0.494630	0.746729
C315	C	0.065136	-0.786267	0.348405
C316	C	0.565136	-0.286267	0.848405
C317	C	0.099741	-0.798789	0.306455
C318	C	0.599741	-0.298789	0.806455
C319	C	0.132788	-0.773258	0.282072
C320	C	0.632788	-0.273258	0.782072
H321	H	0.047881	-0.752031	0.339189
H322	H	0.547881	-0.252031	0.839189
H323	H	0.081343	-0.794700	0.369536
H324	H	0.581343	-0.294700	0.869536
H325	H	0.083535	-0.790353	0.285328
H326	H	0.583535	-0.290353	0.785328
H327	H	0.117008	-0.833021	0.315657
H328	H	0.617008	-0.333021	0.815657
H329	H	0.148995	-0.781690	0.303203
H330	H	0.648995	-0.281690	0.803203
H331	H	0.115528	-0.739023	0.272860
H332	H	0.615528	-0.239023	0.772860
H333	H	0.156273	-0.781753	0.253610
H334	H	0.656273	-0.281753	0.753610
C335	C	0.551955	-0.606185	0.423925
C336	C	1.051955	-0.106185	0.923925
C337	C	0.510075	-0.619294	0.457338
C338	C	1.010075	-0.119294	0.957338
C339	C	0.510005	-0.655903	0.448328
C340	C	1.010005	-0.155903	0.948328
H341	H	0.551888	-0.594261	0.391514
H342	H	1.051888	-0.094261	0.891514
H343	H	0.580381	-0.634055	0.427569
H344	H	1.080381	-0.134055	0.927569
H345	H	0.481657	-0.591428	0.453689
H346	H	0.981657	-0.091428	0.953689
H347	H	0.510133	-0.631225	0.489752
H348	H	1.010133	-0.131225	0.989752
H349	H	0.538431	-0.683773	0.451972
H350	H	1.038431	-0.183773	0.951972
H351	H	0.509940	-0.643976	0.415916
H352	H	1.009940	-0.143976	0.915916
H353	H	0.481593	-0.664805	0.471000
H354	H	0.981593	-0.164805	0.971000
C355	C	0.552216	-0.606536	0.584790
C356	C	1.052216	-0.106536	1.084790
C357	C	0.552246	-0.588976	0.615022
C358	C	1.052246	-0.088976	1.115022
C359	C	0.552341	-0.625647	0.660652
C360	C	1.052341	-0.125647	1.160652
H361	H	0.523825	-0.615491	0.599533
H362	H	1.023825	-0.115491	1.099533
H363	H	0.580660	-0.634367	0.580491
H364	H	1.080660	-0.134367	1.080491
H365	H	0.523805	-0.561154	0.619322
H366	H	1.023805	-0.061154	1.119322
H367	H	0.580634	-0.580024	0.600295
H368	H	1.080634	-0.080024	1.100295
H369	H	0.580785	-0.653478	0.656353
H370	H	1.080785	-0.153478	1.156353
H371	H	0.523950	-0.634600	0.675390
H372	H	1.023950	-0.134600	1.175390
H373	H	0.552366	-0.613739	0.681168
H374	H	1.052366	-0.113739	1.181168
C375	C	0.182407	-0.536409	0.354383
C376	C	0.682407	-0.036409	0.854383
C377	C	0.212618	-0.584219	0.372009
C378	C	0.712618	-0.084219	0.872009
C379	C	0.258288	-0.593295	0.335401
C380	C	0.758288	-0.093295	0.835401
H381	H	0.178187	-0.532764	0.326528
H382	H	0.678187	-0.032764	0.826528
H383	H	0.197119	-0.513782	0.345454
H384	H	0.697119	-0.013782	0.845454
H385	H	0.197910	-0.606839	0.380931
H386	H	0.697910	-0.106839	0.880931
H387	H	0.216852	-0.587875	0.399859
H388	H	0.716852	-0.087875	0.899859
H389	H	0.272999	-0.570669	0.326473
H390	H	0.772999	-0.070669	0.826473
H391	H	0.254063	-0.589648	0.307548
H392	H	0.754063	-0.089648	0.807548
H393	H	0.278793	-0.625733	0.347357
H394	H	0.778793	-0.125733	0.847357
C395	C	-0.078641	-0.006068	0.555300
C396	C	0.421359	0.493932	1.055300
C397	C	-0.115304	0.035856	0.538641
C398	C	0.384696	0.535856	1.038641
C399	C	-0.160955	0.035967	0.575322
C400	C	0.339045	0.535967	1.075322
H401	H	-0.084690	-0.034457	0.563052
H402	H	0.415310	0.465543	1.063052
H403	H	-0.078691	-0.006033	0.583732
H404	H	0.421309	0.493967	1.083732
H405	H	-0.115255	0.035817	0.510218
H406	H	0.384745	0.535817	1.010218
H407	H	-0.109272	0.064252	0.530893
H408	H	0.390728	0.564252	1.030893
H409	H	-0.161005	0.036001	0.603754
H410	H	0.338995	0.536001	1.103754
H411	H	-0.166998	0.007576	0.583071
H412	H	0.333002	0.507576	1.083071
H413	H	-0.185835	0.064414	0.564026
H414	H	0.314165	0.564414	1.064026
H415	H	0.023733	-0.006162	0.364531
H416	H	0.523733	0.493838	0.864531
H417	H	-0.038348	-0.388133	0.954654
H418	H	0.461652	0.111867	1.454654
H419	H	-0.037935	-0.534246	0.954563
H420	H	0.462065	-0.034246	1.454563
H421	H	0.198948	-0.473094	0.487648
H422	H	0.698948	0.026906	0.987648
C423	C	0.551715	-0.405372	0.323901
C424	C	1.051715	0.094628	0.823901
C425	C	0.509776	-0.394149	0.315256
C426	C	1.009776	0.105851	0.815256
C427	C	0.509616	-0.357437	0.269658
C428	C	1.009616	0.142563	0.769658
H429	H	0.551671	-0.376884	0.323801
H430	H	1.051671	0.123116	0.823801
H431	H	0.580100	-0.416576	0.298930
H432	H	1.080100	0.083424	0.798930
H433	H	0.481399	-0.382943	0.340220
H434	H	0.981399	0.117057	0.840220
H435	H	0.509812	-0.422625	0.315345
H436	H	1.009812	0.077375	0.815345
H437	H	0.538001	-0.368640	0.244687
H438	H	1.038001	0.131360	0.744687
H439	H	0.509573	-0.328952	0.269563
H440	H	1.009573	0.171048	0.769563
H441	H	0.481164	-0.349820	0.263784
H442	H	0.981164	0.150180	0.763784
C443	C	0.152390	-0.475627	0.954579
C444	C	0.652390	0.024373	1.454579
C445	C	0.134627	-0.427786	0.954580
C446	C	0.634627	0.072214	1.454580
C447	C	0.171145	-0.418555	0.954543
C448	C	0.671145	0.081445	1.454543
H449	H	0.161354	-0.498188	0.982980
H450	H	0.661354	0.001812	1.482980
H451	H	0.180247	-0.479247	0.926144
H452	H	0.680247	0.020753	1.426144
H453	H	0.106778	-0.424170	0.983012
H454	H	0.606778	0.075830	1.483012
H455	H	0.125666	-0.405215	0.926181
H456	H	0.625666	0.094785	1.426181
H457	H	0.199002	-0.422175	0.926108
H458	H	0.699002	0.077825	1.426108
H459	H	0.180107	-0.441119	0.982945
H460	H	0.680107	0.058881	1.482945
H461	H	0.159099	-0.386093	0.954539
H462	H	0.659099	0.113907	1.454539
H463	H	0.047163	-0.397193	0.741627
H464	H	0.547163	0.102807	1.241627
H465	H	0.199181	-0.473148	0.741498
H466	H	0.699181	0.026852	1.241498
C467	C	0.177383	-0.512212	0.841417
C468	C	0.677383	-0.012212	1.341417
C469	C	0.225186	-0.519395	0.807948
C470	C	0.725186	-0.019395	1.307948
C471	C	0.258644	-0.548908	0.833463
C472	C	0.758644	-0.048908	1.333463
H473	H	0.172537	-0.496600	0.861430
H474	H	0.672537	0.003400	1.361430
H475	H	0.172502	-0.542980	0.861410
H476	H	0.672502	-0.042980	1.361410
H477	H	0.230065	-0.488633	0.787963
H478	H	0.730065	0.011367	1.287963
H479	H	0.230047	-0.535013	0.787934
H480	H	0.730047	-0.035013	1.287934
H481	H	0.253764	-0.579676	0.853457
H482	H	0.753764	-0.079676	1.353457
H483	H	0.253794	-0.533293	0.853476
H484	H	0.753794	-0.033293	1.353476
H485	H	0.291082	-0.553789	0.810759
H486	H	0.791082	-0.053789	1.310759
H487	H	0.047002	-0.397168	0.563734
H488	H	0.547002	0.102832	1.063734
C489	C	0.022194	-0.666924	0.425223
C490	C	0.522194	-0.166924	0.925223
C491	C	0.051627	-0.692479	0.454769
C492	C	0.551627	-0.192479	0.954769
C493	C	0.064071	-0.742931	0.467207
C494	C	0.564071	-0.242931	0.967207
H495	H	-0.006782	-0.675366	0.442603
H496	H	0.493218	-0.175366	0.942603
H497	H	0.039656	-0.675373	0.396235
H498	H	0.539656	-0.175373	0.896235
H499	H	0.034165	-0.684034	0.483752
H500	H	0.534165	-0.184034	0.983752
H501	H	0.080609	-0.684052	0.437398
H502	H	0.580609	-0.184052	0.937398
H503	H	0.081533	-0.751380	0.438218
H504	H	0.581533	-0.251380	0.938218
H505	H	0.035092	-0.751368	0.484585
H506	H	0.535092	-0.251368	0.984585
H507	H	0.084046	-0.760276	0.487251
H508	H	0.584046	-0.260276	0.987251
C509	C	0.002251	-0.424807	0.536195
C510	C	0.502251	0.075193	1.036195
C511	C	-0.023267	-0.395351	0.565709
C512	C	0.476733	0.104649	1.065709
C513	C	-0.073723	-0.382948	0.578226
C514	C	0.426277	0.117052	1.078226
H515	H	-0.006260	-0.407373	0.507248
H516	H	0.493740	0.092627	1.007248
H517	H	-0.006157	-0.453814	0.553621
H518	H	0.493843	0.046186	1.053621
H519	H	-0.014863	-0.366350	0.548283
H520	H	0.485137	0.133650	1.048283
H521	H	-0.014771	-0.412776	0.594662
H522	H	0.485229	0.087224	1.094662
H523	H	-0.082130	-0.411954	0.595652
H524	H	0.417870	0.088046	1.095652
H525	H	-0.082229	-0.365515	0.549277
H526	H	0.417771	0.134485	1.049277
H527	H	-0.091043	-0.362964	0.598256
H528	H	0.408957	0.137036	1.098256
H529	H	0.167905	-0.504126	0.456671
H530	H	0.667905	-0.004126	0.956671
H531	H	0.432025	-0.541365	0.523165
H532	H	0.932025	-0.041365	1.023165
C533	C	0.332111	-0.519390	0.560832
C534	C	0.832111	-0.019390	1.060832
C535	C	0.365566	-0.566866	0.563509
C536	C	0.865566	-0.066866	1.063509
C537	C	0.340035	-0.599910	0.587862
C538	C	0.840035	-0.099910	1.087862
H539	H	0.312124	-0.518153	0.592989
H540	H	0.812124	-0.018153	1.092989
H541	H	0.312092	-0.510840	0.543370
H542	H	0.812092	-0.010840	1.043370
H543	H	0.385576	-0.575414	0.580972
H544	H	0.885576	-0.075414	1.080972
H545	H	0.385554	-0.568119	0.531359
H546	H	0.885554	-0.068119	1.031359
H547	H	0.320016	-0.591360	0.570400
H548	H	0.820016	-0.091360	1.070400
H549	H	0.320048	-0.598669	0.620018
H550	H	0.820048	-0.098669	1.120018
H551	H	0.362730	-0.632126	0.589678
H552	H	0.862730	-0.132126	1.089678
H553	H	0.431972	-0.390789	0.465748
H554	H	0.931972	0.109211	0.965748
H555	H	0.049734	-0.622248	0.452940
H556	H	0.549734	-0.122248	0.952940
C557	C	0.332042	-0.346193	0.494825
C558	C	0.832042	0.153807	0.994825
C559	C	0.365468	-0.320994	0.469812
C560	C	0.865468	0.179006	0.969812
C561	C	0.339905	-0.270931	0.462521
C562	C	0.839905	0.229069	0.962521
H563	H	0.312010	-0.334100	0.476032
H564	H	0.812010	0.165900	0.976032
H565	H	0.312064	-0.341420	0.525644
H566	H	0.812064	0.158580	1.025644
H567	H	0.385437	-0.325765	0.438998
H568	H	0.885437	0.174235	0.938998
H569	H	0.385501	-0.333073	0.488597
H570	H	0.885501	0.166927	0.988597
H571	H	0.319927	-0.266158	0.493340
H572	H	0.819927	0.233842	0.993340
H573	H	0.319874	-0.258843	0.443729
H574	H	0.819874	0.241157	0.943729
H575	H	0.362580	-0.253828	0.445553
H576	H	0.862580	0.246172	0.945553
H577	H	0.079796	-0.624394	0.545162
H578	H	0.579796	-0.124394	1.045162
H579	H	0.129813	-0.126117	0.418717
H580	H	0.629813	0.373883	0.918717
C581	C	0.168854	-0.226044	0.440571
C582	C	0.668854	0.273956	0.940571
C583	C	0.175985	-0.192592	0.392756
C584	C	0.675985	0.307408	0.892756
C585	C	0.205425	-0.218130	0.359319
C586	C	0.705425	0.281870	0.859319
H587	H	0.199639	-0.246047	0.445407
H588	H	0.699639	0.253953	0.945407
H589	H	0.153195	-0.246051	0.445484
H590	H	0.653195	0.253949	0.945484
H591	H	0.191645	-0.172594	0.387844
H592	H	0.691645	0.327406	0.887844
H593	H	0.145210	-0.172588	0.387904
H594	H	0.645210	0.327412	0.887904
H595	H	0.189767	-0.238136	0.364233
H596	H	0.689767	0.261864	0.864233
H597	H	0.236208	-0.238132	0.364160
H598	H	0.736208	0.261868	0.864160
H599	H	0.210264	-0.195437	0.326873
H600	H	0.710264	0.304563	0.826873
H601	H	-0.025639	-0.470264	0.074572
H602	H	0.474361	0.029736	0.574572
C603	C	0.081735	-0.226278	0.615353
C604	C	0.581735	0.273722	1.115353
C605	C	0.103044	-0.276687	0.623175
C606	C	0.603044	0.223313	1.123175
C607	C	0.090778	-0.302446	0.673585
C608	C	0.590778	0.197554	1.173585
H609	H	0.093559	-0.217914	0.629770
H610	H	0.593559	0.282086	1.129770
H611	H	0.047133	-0.217929	0.629824
H612	H	0.547133	0.282071	1.129824
H613	H	0.137640	-0.285033	0.608710
H614	H	0.637640	0.214967	1.108710
H615	H	0.091224	-0.285066	0.608770
H616	H	0.591224	0.214934	1.108770
H617	H	0.056175	-0.294097	0.688057
H618	H	0.556175	0.205903	1.188057
H619	H	0.102602	-0.294078	0.687998
H620	H	0.602602	0.205922	1.187998
H621	H	0.105230	-0.336651	0.678900
H622	H	0.605230	0.163349	1.178900
C623	C	-0.064774	-0.492096	0.174487
C624	C	0.435226	0.007904	0.674487
C625	C	-0.071897	-0.444284	0.141026
C626	C	0.428103	0.055716	0.641026
C627	C	-0.101383	-0.410835	0.166549
C628	C	0.398617	0.089165	0.666549
H629	H	-0.095559	-0.496926	0.194450
H630	H	0.404441	0.003074	0.694450
H631	H	-0.049154	-0.497005	0.194532
H632	H	0.450846	0.002995	0.694532
H633	H	-0.087518	-0.439377	0.120990
H634	H	0.412482	0.060623	0.620990
H635	H	-0.041121	-0.439439	0.121062
H636	H	0.458879	0.060561	0.621062
H637	H	-0.085763	-0.415744	0.186594
H638	H	0.414237	0.084256	0.686594
H639	H	-0.132165	-0.415670	0.186512
H640	H	0.367835	0.084330	0.686512
H641	H	-0.106216	-0.378391	0.143850
H642	H	0.393784	0.121609	0.643850
H643	H	0.019144	-0.653235	0.167709
H644	H	0.519144	-0.153235	0.667709
C645	C	0.058306	-0.631401	0.067788
C646	C	0.558306	-0.131401	0.567788
C647	C	0.065444	-0.679214	0.101247
C648	C	0.565444	-0.179214	0.601247
C649	C	0.094968	-0.712661	0.075722
C650	C	0.594968	-0.212661	0.575722
H651	H	0.042720	-0.626521	0.047732
H652	H	0.542720	-0.126521	0.547732
H653	H	0.089084	-0.626541	0.047836
H654	H	0.589084	-0.126541	0.547836
H655	H	0.034672	-0.684073	0.121191
H656	H	0.534672	-0.184073	0.621191
H657	H	0.081036	-0.684110	0.121304
H658	H	0.581036	-0.184110	0.621304
H659	H	0.125746	-0.707800	0.055770
H660	H	0.625746	-0.207800	0.555770
H661	H	0.079378	-0.707776	0.055667
H662	H	0.579378	-0.207776	0.555667
H663	H	0.099818	-0.745105	0.098420
H664	H	0.599818	-0.245105	0.598420
H665	H	-0.026079	-0.470245	0.376824
H666	H	0.473921	0.029755	0.876824
C667	C	-0.065047	-0.492087	0.337705
C668	C	0.434953	0.007913	0.837705
C669	C	-0.072231	-0.444273	0.330531
C670	C	0.427769	0.055727	0.830531
C671	C	-0.101682	-0.410830	0.301006
C672	C	0.398318	0.089170	0.801006
H673	H	-0.049390	-0.496964	0.306938
H674	H	0.450610	0.003036	0.806938
H675	H	-0.095816	-0.496954	0.353318
H676	H	0.404184	0.003046	0.853318
H677	H	-0.041468	-0.439408	0.314918
H678	H	0.458532	0.060592	0.814918
H679	H	-0.087894	-0.439380	0.361290
H680	H	0.412106	0.060620	0.861290
H681	H	-0.132451	-0.415697	0.316618
H682	H	0.367549	0.084303	0.816618
H683	H	-0.086021	-0.415711	0.270241
H684	H	0.413979	0.084289	0.770241
H685	H	-0.106563	-0.378384	0.296138
H686	H	0.393437	0.121616	0.796138
H687	H	0.087072	-0.886205	0.386121
H688	H	0.587072	-0.386205	0.886121
H689	H	-0.063498	-0.886058	0.443304
H690	H	0.436502	-0.386058	0.943304
H691	H	-0.235077	-0.614964	0.459366
H692	H	0.264923	-0.114964	0.959366
C693	C	-0.108018	-0.786044	0.414112
C694	C	0.391982	-0.286044	0.914112
C695	C	-0.123475	-0.798495	0.391149
C696	C	0.376525	-0.298495	0.891149
C697	C	-0.173493	-0.772823	0.398245
C698	C	0.326507	-0.272823	0.898245
H699	H	-0.126010	-0.794400	0.448192
H700	H	0.373990	-0.294400	0.948192
H701	H	-0.113469	-0.751824	0.400413
H702	H	0.386531	-0.251824	0.900413
H703	H	-0.118028	-0.832707	0.404850
H704	H	0.381972	-0.332707	0.904850
H705	H	-0.105496	-0.790138	0.357068
H706	H	0.394504	-0.290138	0.857068
H707	H	-0.178944	-0.738603	0.384546
H708	H	0.321056	-0.238603	0.884546
H709	H	-0.191481	-0.781181	0.432326
H710	H	0.308519	-0.281181	0.932326
H711	H	-0.183986	-0.781264	0.382662
H712	H	0.316014	-0.281264	0.882662
C713	C	-0.335019	-0.587283	0.503938
C714	C	0.164981	-0.087283	1.003938
C715	C	-0.301640	-0.616809	0.529543
C716	C	0.198360	-0.116809	1.029543
C717	C	-0.327255	-0.629259	0.579982
C718	C	0.172745	-0.129259	1.079982
H719	H	-0.355031	-0.558310	0.512402
H720	H	0.144969	-0.058310	1.012402
H721	H	-0.355022	-0.604682	0.512323
H722	H	0.144978	-0.104682	1.012323
H723	H	-0.281645	-0.599409	0.521162
H724	H	0.218355	-0.099409	1.021162
H725	H	-0.281628	-0.645788	0.521094
H726	H	0.218372	-0.145788	1.021094
H727	H	-0.347258	-0.646659	0.588367
H728	H	0.152742	-0.146659	1.088367
H729	H	-0.347266	-0.600284	0.588441
H730	H	0.152734	-0.100284	1.088441
H731	H	-0.304611	-0.649297	0.597361
H732	H	0.195389	-0.149297	1.097361
H733	H	-0.234840	-0.539009	0.307312
H734	H	0.265160	-0.039009	0.807312
C735	C	-0.334745	-0.499878	0.329040
C736	C	0.165255	0.000122	0.829040
C737	C	-0.301251	-0.492723	0.281249
C738	C	0.198749	0.007277	0.781249
C739	C	-0.326734	-0.463200	0.247762
C740	C	0.173266	0.036800	0.747762
H741	H	-0.354759	-0.515473	0.333865
H742	H	0.145241	-0.015473	0.833865
H743	H	-0.354735	-0.469103	0.333915
H744	H	0.145265	0.030897	0.833915
H745	H	-0.281270	-0.523492	0.276376
H746	H	0.218730	-0.023492	0.776376
H747	H	-0.281236	-0.477122	0.276408
H748	H	0.218764	0.022878	0.776408
H749	H	-0.346724	-0.432425	0.252637
H750	H	0.153276	0.067575	0.752637
H751	H	-0.346747	-0.478798	0.252592
H752	H	0.153253	0.021202	0.752592
H753	H	-0.304012	-0.458338	0.215332
H754	H	0.195988	0.041662	0.715332
