data_functionalizedCrystal
_audit_creation_method	'MofGen! by Chris Wilmer'
_symmetry_space_group_name_H-M	'P1'
_symmetry_Int_Tables_number	1
_symmetry_cell_setting	triclinic
loop_
_symmetry_equiv_pos_as_xyz
  x,y,z
_cell_length_a	16.992694
_cell_length_b	15.944551
_cell_length_c	16.053919
_cell_angle_alpha	92.876391
_cell_angle_beta	92.715508
_cell_angle_gamma	87.083481
loop_
_atom_site_label
_atom_site_type_symbol
_atom_site_fract_x
_atom_site_fract_y
_atom_site_fract_z
O1	O	1.043346	0.181444	0.069327
O2	O	1.543346	0.681444	0.569327
O3	O	0.815061	0.179491	0.069351
O4	O	1.315061	0.679491	0.569351
O5	O	0.935437	0.058610	0.069331
O6	O	1.435437	0.558610	0.569331
O7	O	0.922970	0.302325	0.069347
O8	O	1.422970	0.802325	0.569347
O9	O	0.929528	0.051924	-0.069526
O10	O	1.429528	0.551924	0.430474
O11	O	0.809152	0.172804	-0.069505
O12	O	1.309152	0.672804	0.430495
O13	O	1.037437	0.174757	-0.069530
O14	O	1.537437	0.674757	0.430470
Zn15	Zn	0.922356	0.172719	-0.091564
Zn16	Zn	1.422356	0.672719	0.408436
Zn17	Zn	0.930142	0.181529	0.091386
Zn18	Zn	1.430142	0.681529	0.591386
O19	O	0.917061	0.295638	-0.069509
O20	O	1.417061	0.795638	0.430491
C21	C	0.782894	0.173634	-0.000074
C22	C	1.282894	0.673634	0.499926
C23	C	0.695850	0.166135	-0.000065
C24	C	1.195850	0.666135	0.499935
C25	C	0.931965	0.023938	-0.000097
C26	C	1.431965	0.523938	0.499903
C27	C	0.930413	-0.069412	-0.000098
C28	C	1.430413	0.430588	0.499902
C29	C	0.645614	0.238500	-0.000061
C30	C	1.145614	0.738500	0.499939
C31	C	0.563826	0.231447	-0.000073
C32	C	1.063826	0.731447	0.499927
C33	C	0.532277	0.152029	-0.000083
C34	C	1.032277	0.652029	0.499917
C35	C	0.582520	0.079658	-0.000089
C36	C	1.082520	0.579658	0.499911
C37	C	0.664305	0.086711	-0.000083
C38	C	1.164305	0.586711	0.499917
C39	C	0.288677	0.122796	-0.000107
C40	C	0.788677	0.622796	0.499893
C41	C	0.206885	0.115749	-0.000111
C42	C	0.706885	0.615749	0.499889
C43	C	0.188196	0.267538	-0.000095
C44	C	0.688196	0.767538	0.499905
C45	C	0.269985	0.274585	-0.000084
C46	C	0.769985	0.774585	0.499916
C47	C	0.320220	0.202214	-0.000095
C48	C	0.820220	0.702214	0.499905
N49	N	0.448677	0.144818	-0.000092
N50	N	0.948677	0.644818	0.499908
N51	N	0.403818	0.209425	-0.000092
N52	N	0.903818	0.709425	0.499908
C53	C	0.852090	-0.289520	-0.000078
C54	C	1.352090	0.210480	0.499922
C55	C	0.885547	-0.351396	-0.068546
C56	C	1.385547	0.148604	0.431454
C57	C	0.927606	-0.240326	-0.000091
C58	C	1.427606	0.259674	0.499909
C59	C	0.891391	-0.344785	0.068355
C60	C	1.391391	0.155215	0.568355
C61	C	0.924889	-0.405420	-0.000081
C62	C	1.424889	0.094580	0.499919
C63	C	0.961082	-0.300974	-0.068616
C64	C	1.461082	0.199026	0.431384
C65	C	0.966918	-0.294355	0.068347
C66	C	1.466918	0.205645	0.568347
C67	C	1.000429	-0.356210	-0.000138
C68	C	1.500429	0.143790	0.499862
C69	C	0.929169	-0.145219	-0.000098
C70	C	1.429169	0.354781	0.499902
C71	C	0.923332	-0.500526	-0.000080
C72	C	1.423332	-0.000526	0.499920
C73	C	1.069604	0.180614	-0.000103
C74	C	1.569604	0.680614	0.499897
C75	C	1.156648	0.188114	-0.000106
C76	C	1.656648	0.688114	0.499894
C77	C	0.920533	0.330310	-0.000079
C78	C	1.420533	0.830310	0.499921
C79	C	0.922085	0.423660	-0.000073
C80	C	1.422085	0.923660	0.499927
N81	N	0.917048	0.166706	-0.216422
N82	N	1.417048	0.666706	0.283578
C83	C	0.889758	0.135489	-0.740044
C84	C	1.389758	0.635489	-0.240044
C85	C	0.893465	0.139727	-0.652639
C86	C	1.393465	0.639727	-0.152639
C87	C	0.942867	0.196017	-0.608947
C88	C	1.442867	0.696017	-0.108947
C89	C	0.988571	0.248066	-0.652666
C90	C	1.488571	0.748066	-0.152666
C91	C	0.984867	0.243823	-0.740070
C92	C	1.484867	0.743823	-0.240070
C93	C	0.959048	0.214512	-0.347544
C94	C	1.459048	0.714512	0.152456
C95	C	0.962747	0.218753	-0.260135
C96	C	1.462747	0.718753	0.239865
C97	C	0.867642	0.110412	-0.260113
C98	C	1.367642	0.610412	0.239887
C99	C	0.863938	0.106178	-0.347518
C100	C	1.363938	0.606178	0.152482
C101	C	0.909645	0.158224	-0.391229
C102	C	1.409645	0.658224	0.108771
N103	N	0.946657	0.200353	-0.519605
N104	N	1.446657	0.700353	-0.019605
N105	N	0.905860	0.153883	-0.480570
N106	N	1.405860	0.653883	0.019430
N107	N	0.935456	0.187536	0.216244
N108	N	1.435456	0.687536	0.716244
H109	H	0.671294	0.303171	-0.000052
H110	H	1.171294	0.803171	0.499948
H111	H	0.147286	0.326458	-0.000088
H112	H	0.647286	0.826458	0.499912
H113	H	0.705208	0.027784	-0.000086
H114	H	1.205208	0.527784	0.499914
H115	H	0.181201	0.051074	-0.000118
H116	H	0.681201	0.551074	0.499882
C117	C	1.085179	-0.395333	-0.000202
C118	C	1.585179	0.104667	0.499798
N119	N	1.149011	-0.424804	-0.000254
N120	N	1.649011	0.075196	0.499746
C121	C	0.343926	0.043185	-0.000114
C122	C	0.843926	0.543185	0.499886
N123	N	0.385542	-0.016781	-0.000118
N124	N	0.885542	0.483219	0.499882
C125	C	0.835410	0.073565	-0.788096
C126	C	1.335410	0.573565	-0.288096
N127	N	0.794477	0.026920	-0.824287
N128	N	1.294477	0.526920	-0.324287
C129	C	0.767408	-0.250199	-0.000162
C130	C	1.267408	0.249801	0.499838
N131	N	0.703628	-0.220580	-0.000231
N132	N	1.203628	0.279420	0.499769
C133	C	1.017098	0.280677	-0.212076
C134	C	1.517098	0.780677	0.287924
N135	N	1.058032	0.327316	-0.175878
N136	N	1.558032	0.827316	0.324122
C137	C	1.042921	0.309980	-0.604603
C138	C	1.542921	0.809980	-0.104603
N139	N	1.083858	0.356615	-0.568402
N140	N	1.583858	0.856615	-0.068402
H141	H	0.851144	-0.376433	-0.126424
H142	H	1.351144	0.123567	0.373576
H143	H	0.990530	-0.281634	-0.126565
H144	H	1.490530	0.218366	0.373435
H145	H	1.001294	-0.269297	0.126228
H146	H	1.501294	0.230703	0.626228
H147	H	0.861904	-0.364217	0.126244
H148	H	1.361904	0.135783	0.626244
C149	C	0.843190	0.082474	-0.604559
C150	C	1.343190	0.582474	-0.104559
N151	N	0.805319	0.039349	-0.568346
N152	N	1.305319	0.539349	-0.068346
H153	H	0.522926	0.290375	-0.000068
H154	H	1.022926	0.790375	0.499932
C155	C	0.809587	0.044259	-0.395572
C156	C	1.309587	0.544259	0.104428
N157	N	0.768644	-0.002374	-0.431766
N158	N	1.268644	0.497626	0.068234
C159	C	0.817453	0.053081	-0.212024
C160	C	1.317453	0.553081	0.287976
N161	N	0.779680	0.009864	-0.175803
N162	N	1.279680	0.509864	0.324197
H163	H	1.022080	0.286205	-0.775659
H164	H	1.522080	0.786205	-0.275659
H165	H	0.556826	0.014993	-0.000110
H166	H	1.056826	0.514993	0.499890
H167	H	0.295666	0.339256	-0.000066
H168	H	0.795666	0.839256	0.499934
H169	H	0.996265	0.256893	-0.383123
H170	H	1.496265	0.756893	0.116877
