data_functionalizedCrystal
_audit_creation_method	'MofGen! by Chris Wilmer'
_symmetry_space_group_name_H-M	'P1'
_symmetry_Int_Tables_number	1
_symmetry_cell_setting	triclinic
loop_
_symmetry_equiv_pos_as_xyz
  x,y,z
_cell_length_a	17.699077
_cell_length_b	14.853559
_cell_length_c	16.176319
_cell_angle_alpha	89.995393
_cell_angle_beta	89.993140
_cell_angle_gamma	83.456015
loop_
_atom_site_label
_atom_site_type_symbol
_atom_site_fract_x
_atom_site_fract_y
_atom_site_fract_z
O1	O	1.004375	0.113983	-0.068732
O2	O	1.504375	0.613983	0.431268
O3	O	0.784034	0.128822	-0.068735
O4	O	1.284034	0.628822	0.431265
O5	O	0.900093	-0.009850	-0.068732
O6	O	1.400093	0.490150	0.431268
O7	O	0.888315	0.252654	-0.068734
O8	O	1.388315	0.752654	0.431266
O9	O	0.900077	-0.009859	0.068761
O10	O	1.400077	0.490141	0.568761
O11	O	0.784018	0.128813	0.068758
O12	O	1.284018	0.628813	0.568758
O13	O	1.004359	0.113974	0.068762
O14	O	1.504359	0.613974	0.568762
Cu15	Cu	0.894187	0.121393	0.081314
Cu16	Cu	1.394187	0.621393	0.581314
Cu17	Cu	0.894206	0.121403	-0.081288
Cu18	Cu	1.394206	0.621403	0.418712
O19	O	0.888299	0.252646	0.068759
O20	O	1.388299	0.752646	0.568759
C21	C	0.755827	0.128286	0.000011
C22	C	1.255827	0.628286	0.500011
C23	C	0.671805	0.126694	0.000009
C24	C	1.171805	0.626694	0.500009
C25	C	0.632327	0.125939	0.074958
C26	C	1.132327	0.625939	0.574958
C27	C	0.553380	0.124428	0.074959
C28	C	1.053380	0.624428	0.574959
C29	C	0.513913	0.123679	0.000010
C30	C	1.013913	0.623679	0.500010
C31	C	0.553397	0.124432	-0.074944
C32	C	1.053397	0.624432	0.425056
C33	C	0.632342	0.125936	-0.074944
C34	C	1.132342	0.625936	0.425056
C35	C	0.235018	0.118365	-0.074945
C36	C	0.735018	0.618365	0.425055
C37	C	0.156066	0.116863	-0.074940
C38	C	0.656066	0.616863	0.425060
C39	C	0.156056	0.116857	0.074957
C40	C	0.656056	0.616857	0.574957
C41	C	0.235001	0.118361	0.074957
C42	C	0.735001	0.618361	0.574957
C43	C	0.274479	0.119109	0.000004
C44	C	0.774479	0.619109	0.500004
C45	C	0.360082	0.120745	0.000004
C46	C	0.860082	0.620745	0.500004
C47	C	0.428311	0.122050	0.000010
C48	C	0.928311	0.622050	0.500010
C49	C	0.899553	-0.043441	0.000013
C50	C	1.399553	0.456559	0.500013
C51	C	0.897957	-0.143519	0.000008
C52	C	1.397957	0.356481	0.500008
C53	C	0.891196	-0.566664	-0.074940
C54	C	1.391196	-0.066664	0.425060
C55	C	0.891178	-0.566669	0.074961
C56	C	1.391178	-0.066669	0.574961
C57	C	0.892684	-0.472641	0.074961
C58	C	1.392684	0.027359	0.574961
C59	C	0.893444	-0.425620	0.000010
C60	C	1.393444	0.074380	0.500010
C61	C	0.892699	-0.472628	-0.074941
C62	C	1.392699	0.027372	0.425059
C63	C	0.893421	-0.425626	0.149912
C64	C	1.393421	0.074374	0.649912
C65	C	0.894926	-0.331592	0.149915
C66	C	1.394926	0.168408	0.649915
C67	C	0.895692	-0.284571	0.074964
C68	C	1.395692	0.215429	0.574964
C69	C	0.894948	-0.331584	0.000009
C70	C	1.394948	0.168416	0.500009
C71	C	0.895708	-0.284563	-0.074942
C72	C	1.395708	0.215437	0.425058
C73	C	0.894969	-0.331575	-0.149898
C74	C	1.394969	0.168425	0.350102
C75	C	0.893465	-0.425606	-0.149893
C76	C	1.393465	0.074394	0.350107
C77	C	0.897196	-0.190540	0.074959
C78	C	1.397196	0.309460	0.574959
C79	C	0.897212	-0.190526	-0.074944
C80	C	1.397212	0.309474	0.425056
C81	C	1.032565	0.114509	0.000014
C82	C	1.532565	0.614509	0.500014
C83	C	1.116587	0.116102	0.000010
C84	C	1.616587	0.616102	0.500010
C85	C	0.888840	0.286237	0.000012
C86	C	1.388840	0.786237	0.500012
C87	C	0.890435	0.386315	0.000011
C88	C	1.390435	0.886315	0.500011
N89	N	0.894179	0.121385	0.195679
N90	N	1.394179	0.621385	0.695679
N91	N	0.894219	0.121404	-0.195653
N92	N	1.394219	0.621404	0.304347
C93	C	0.945585	0.060006	0.238945
C94	C	1.445585	0.560006	0.738945
C95	C	0.945589	0.060005	0.325492
C96	C	1.445589	0.560005	0.825492
C97	C	0.894190	0.121388	0.368772
C98	C	1.394190	0.621388	0.868772
C99	C	0.842777	0.182769	0.325500
C100	C	1.342777	0.682769	0.825500
C101	C	0.842771	0.182765	0.238955
C102	C	1.342771	0.682765	0.738955
C103	C	0.842803	0.182786	0.674529
C104	C	1.342803	0.682786	1.174529
C105	C	0.842816	0.182787	0.761080
C106	C	1.342816	0.682787	1.261080
C107	C	0.945622	0.060026	0.761066
C108	C	1.445622	0.560026	1.261066
C109	C	0.945615	0.060022	0.674520
C110	C	1.445615	0.560022	1.174520
C111	C	0.894201	0.121400	0.631256
C112	C	1.394201	0.621400	1.131256
C113	C	0.894196	0.121399	0.537412
C114	C	1.394196	0.621399	1.037412
C115	C	0.894197	0.121394	0.462614
C116	C	1.394197	0.621394	0.962614
H117	H	0.123934	0.116253	-0.135975
H118	H	0.623934	0.616253	0.364025
H119	H	0.897834	-0.152249	-0.135979
H120	H	1.397834	0.347751	0.364021
H121	H	0.987448	0.010026	0.360718
H122	H	1.487448	0.510026	0.860718
H123	H	0.890554	-0.604958	0.135982
H124	H	1.390554	-0.104958	0.635982
C125	C	0.895807	-0.279847	-0.232339
C126	C	1.395807	0.220153	0.267661
H127	H	0.896811	-0.217114	-0.221599
H128	H	1.396811	0.282886	0.278401
H129	H	0.851467	-0.288280	-0.263141
H130	H	1.351467	0.211720	0.236859
H131	H	0.939675	-0.302224	-0.263130
H132	H	1.439675	0.197776	0.236870
H133	H	0.800909	0.232745	0.203729
H134	H	1.300909	0.732745	0.703729
C135	C	0.278432	0.119197	-0.157391
C136	C	0.778432	0.619197	0.342609
H137	H	0.243616	0.118547	-0.202024
H138	H	0.743616	0.618547	0.297976
H139	H	0.314950	0.067232	-0.160511
H140	H	0.814950	0.567232	0.339489
H141	H	0.303506	0.172344	-0.160507
H142	H	0.803506	0.672344	0.339493
H143	H	0.987484	0.010046	0.796300
H144	H	1.487484	0.510046	1.296300
C145	C	0.675736	0.126746	0.157402
C146	C	1.175736	0.626746	0.657402
H147	H	0.640916	0.126067	0.202038
H148	H	1.140916	0.626067	0.702038
H149	H	0.700818	0.179880	0.160530
H150	H	1.200818	0.679880	0.660530
H151	H	0.712248	0.074768	0.160508
H152	H	1.212248	0.574768	0.660508
H153	H	0.987472	0.010042	0.639284
H154	H	1.487472	0.510042	1.139284
C155	C	0.786260	0.250295	0.808687
C156	C	1.286260	0.750295	1.308687
H157	H	0.755630	0.286840	0.770526
H158	H	1.255630	0.786840	1.270526
H159	H	0.813512	0.287792	0.842443
H160	H	1.313512	0.787792	1.342443
H161	H	0.754734	0.217889	0.842454
H162	H	1.254734	0.717889	1.342454
H163	H	0.892863	-0.463892	-0.210918
H164	H	1.392863	0.036108	0.289082
C165	C	0.890380	-0.618371	-0.157385
C166	C	1.390380	-0.118371	0.342615
H167	H	0.889372	-0.681107	-0.146654
H168	H	1.389372	-0.181107	0.353346
H169	H	0.934729	-0.609930	-0.188181
H170	H	1.434729	-0.109930	0.311819
H171	H	0.846521	-0.595983	-0.188177
H172	H	1.346521	-0.095983	0.311823
H173	H	0.892798	-0.463916	0.210933
H174	H	1.392798	0.036084	0.710933
H175	H	0.800923	0.232745	0.360744
H176	H	1.300923	0.732745	0.860744
H177	H	0.521242	0.123798	0.135989
H178	H	1.021242	0.623798	0.635989
C179	C	0.278412	0.119180	0.157400
C180	C	0.778412	0.619180	0.657400
H181	H	0.243594	0.118504	0.202038
H182	H	0.743594	0.618504	0.702038
H183	H	0.303491	0.172316	0.160519
H184	H	0.803491	0.672316	0.660519
H185	H	0.314928	0.067204	0.160510
H186	H	0.814928	0.567204	0.660510
H187	H	0.800941	0.232764	0.639310
H188	H	1.300941	0.732764	1.139310
H189	H	0.895531	-0.293323	0.210949
H190	H	1.395531	0.206677	0.710949
H191	H	0.123904	0.116244	0.135988
H192	H	0.623904	0.616244	0.635988
H193	H	0.521256	0.123816	-0.135968
H194	H	1.021256	0.623816	0.364032
H195	H	0.664484	0.126553	-0.135975
H196	H	1.164484	0.626553	0.364025
H197	H	0.897781	-0.152264	0.135987
H198	H	1.397781	0.347736	0.635987
H199	H	0.987444	0.010025	0.203712
H200	H	1.487444	0.510025	0.703712
