data_functionalizedCrystal
_audit_creation_method	'MofGen! by Chris Wilmer'
_symmetry_space_group_name_H-M	'P1'
_symmetry_Int_Tables_number	1
_symmetry_cell_setting	triclinic
loop_
_symmetry_equiv_pos_as_xyz
  x,y,z
_cell_length_a	14.519731
_cell_length_b	27.732064
_cell_length_c	13.596369
_cell_angle_alpha	89.998103
_cell_angle_beta	89.994584
_cell_angle_gamma	83.169138
loop_
_atom_site_label
_atom_site_type_symbol
_atom_site_fract_x
_atom_site_fract_y
_atom_site_fract_z
O1	O	1.222760	0.063411	-0.081784
O2	O	0.954157	0.070861	-0.081785
O3	O	1.096793	-0.003220	-0.081788
O4	O	1.080125	0.137492	-0.081781
O5	O	1.096779	-0.003224	0.081795
O6	O	0.954143	0.070858	0.081798
O7	O	1.222746	0.063407	0.081799
Zn8	Zn	1.088443	0.067131	0.107771
Zn9	Zn	1.088461	0.067137	-0.107757
O10	O	1.080111	0.137488	0.081802
C11	C	0.919797	0.070510	0.000007
C12	C	0.817435	0.069464	0.000006
C13	C	0.734305	0.068614	0.000002
C14	C	0.630015	0.067552	0.000002
C15	C	0.546890	0.066709	0.000002
C16	C	0.442593	0.065647	-0.000001
C17	C	1.096434	-0.021230	0.000000
C18	C	1.095373	-0.074890	-0.000009
C19	C	1.003862	-0.452404	-0.000013
C20	C	1.007766	-0.250725	-0.000014
O21	O	0.936756	-0.219814	-0.000054
N22	N	1.092346	-0.231190	-0.000014
C23	C	1.175957	-0.262078	-0.000020
O24	O	1.247987	-0.240834	-0.000031
C25	C	1.172052	-0.463756	-0.000026
C26	C	1.087466	-0.483288	-0.000016
C27	C	0.919283	-0.471936	-0.000004
C28	C	0.918308	-0.522353	0.000001
C29	C	1.001912	-0.553237	-0.000002
C30	C	1.086491	-0.533705	-0.000011
C31	C	1.255661	-0.494643	-0.000039
C32	C	1.254678	-0.545065	-0.000043
C33	C	1.170092	-0.564597	-0.000033
C34	C	1.169120	-0.615006	-0.000008
N35	N	1.084539	-0.634541	-0.000008
C36	C	1.000935	-0.603657	-0.000005
C37	C	1.178001	-0.156193	-0.000015
C38	C	1.178977	-0.105774	-0.000012
C39	C	1.010786	-0.094425	-0.000008
C40	C	1.009810	-0.144845	-0.000004
C41	C	1.093420	-0.175728	-0.000015
C42	C	0.998894	-0.709536	0.000008
C43	C	0.997927	-0.759958	0.000018
C44	C	1.166117	-0.771303	0.000008
C45	C	1.167085	-0.720886	0.000004
C46	C	1.083466	-0.690003	0.000000
O47	O	1.240092	-0.645945	0.000020
O48	O	0.928916	-0.624910	-0.000017
C49	C	1.004837	-0.401987	-0.000019
C50	C	1.089416	-0.382454	-0.000028
C51	C	1.173020	-0.413338	-0.000031
C52	C	1.090392	-0.332035	-0.000024
C53	C	1.006788	-0.301151	-0.000021
C54	C	0.922208	-0.320686	-0.000021
C55	C	0.921233	-0.371103	-0.000016
C56	C	1.257600	-0.393803	-0.000031
C57	C	1.258569	-0.343386	-0.000035
C58	C	1.174965	-0.312502	-0.000032
C59	C	1.257107	0.063758	0.000005
C60	C	1.359469	0.064804	-0.000001
C61	C	1.080470	0.155499	0.000012
C62	C	1.081530	0.209158	0.000014
N63	N	1.088437	0.067128	0.254863
N64	N	1.088474	0.067137	-0.254849
C65	C	1.088460	0.067137	0.656154
C66	C	1.088451	0.067136	0.544502
C67	C	1.088449	0.067133	0.455512
C68	C	1.088439	0.067131	0.343853
H69	H	0.929044	-0.775858	0.000030
H70	H	1.234185	-0.796458	0.000010
C71	C	1.269978	-0.190160	-0.000015
H72	H	1.320483	-0.171300	-0.000003
H73	H	1.273110	-0.210065	-0.057058
H74	H	1.273090	-0.210063	0.057039
H75	H	0.852355	-0.387001	-0.000007
C76	C	0.916767	-0.166326	-0.000008
H77	H	0.867120	-0.140707	-0.000012
H78	H	0.912879	-0.185762	0.057032
H79	H	0.912893	-0.185753	-0.057065
C80	C	1.272021	-0.084294	-0.000013
H81	H	1.321668	-0.109913	-0.000025
H82	H	1.275903	-0.064862	0.057030
H83	H	1.275902	-0.064862	-0.057067
H84	H	1.324540	-0.478749	-0.000048
C85	C	1.346651	-0.579034	-0.000051
H86	H	1.397161	-0.560177	-0.000049
H87	H	1.349771	-0.598940	-0.057093
H88	H	1.349767	-0.598937	0.057004
H89	H	0.854135	-0.295531	-0.000013
C90	C	1.260127	-0.699399	0.000004
H91	H	1.309777	-0.725016	0.000001
H92	H	1.264001	-0.679963	0.057044
H93	H	1.264007	-0.679970	-0.057053
H94	H	0.942712	-0.069270	-0.000001
H95	H	1.327454	-0.327488	-0.000036
H96	H	0.849429	-0.538251	0.000001
H97	H	1.325682	-0.418945	-0.000034
H98	H	0.851199	-0.446795	-0.000005
C99	C	0.906916	-0.675572	0.000012
H100	H	0.856410	-0.694432	0.000027
H101	H	0.903791	-0.655666	-0.057032
H102	H	0.903796	-0.655669	0.057065
