data_functionalizedCrystal
_audit_creation_method	'MofGen! by Chris Wilmer'
_symmetry_space_group_name_H-M	'P1'
_symmetry_Int_Tables_number	1
_symmetry_cell_setting	triclinic
loop_
_symmetry_equiv_pos_as_xyz
  x,y,z
_cell_length_a	21.395362
_cell_length_b	21.295417
_cell_length_c	21.395355
_cell_angle_alpha	90.020404
_cell_angle_beta	90.043940
_cell_angle_gamma	90.045579
loop_
_atom_site_label
_atom_site_type_symbol
_atom_site_fract_x
_atom_site_fract_y
_atom_site_fract_z
Zn1	Zn	0.957864	-0.250415	0.354577
Zn2	Zn	1.457864	0.249585	0.854577
Zn3	Zn	0.957768	-0.355667	0.249796
Zn4	Zn	1.457768	0.144333	0.749796
Zn5	Zn	0.853079	-0.250445	0.249779
Zn6	Zn	1.353079	0.249555	0.749779
Zn7	Zn	0.853050	-0.355680	0.354501
Zn8	Zn	1.353050	0.144320	0.854501
O9	O	0.905440	-0.303052	0.302163
O10	O	1.405440	0.196948	0.802163
O11	O	1.045529	-0.264359	0.340717
O12	O	1.545529	0.235641	0.840717
O13	O	0.943853	-0.341716	0.162116
O14	O	1.443853	0.158284	0.662116
O15	O	0.867031	-0.162351	0.263705
O16	O	1.367031	0.337649	0.763705
O17	O	1.045459	-0.341687	0.263735
O18	O	1.545459	0.158313	0.763735
O19	O	0.944016	-0.162330	0.340700
O20	O	1.444016	0.337670	0.840700
O21	O	0.866938	-0.264409	0.162103
O22	O	1.366938	0.235591	0.662103
O23	O	0.765397	-0.264422	0.263631
O24	O	1.265397	0.235578	0.763631
O25	O	0.866982	-0.341709	0.442189
O26	O	1.366982	0.158291	0.942189
O27	O	0.765376	-0.341738	0.340570
O28	O	1.265376	0.158262	0.840570
O29	O	0.943988	-0.264372	0.442245
O30	O	1.443988	0.235628	0.942245
O31	O	0.943825	-0.443758	0.263661
O32	O	1.443825	0.056242	0.763661
O33	O	0.866889	-0.443767	0.340587
O34	O	1.366889	0.056233	0.840587
C35	C	0.742652	-0.303085	0.302091
C36	C	1.242652	0.196915	0.802091
C37	C	0.673011	-0.303114	0.302074
C38	C	1.173011	0.196886	0.802074
C39	C	0.640303	-0.343426	0.342077
C40	C	1.140303	0.156574	0.842077
C41	C	0.574868	-0.343411	0.342105
C42	C	1.074868	0.156589	0.842105
C43	C	0.542143	-0.303090	0.302119
C44	C	1.042143	0.196910	0.802119
C45	C	0.574859	-0.262771	0.262114
C46	C	1.074859	0.237229	0.762114
C47	C	0.640293	-0.262783	0.262092
C48	C	1.140293	0.237217	0.762092
C49	C	0.438418	-0.298019	0.245714
C50	C	0.938418	0.201981	0.745714
C51	C	0.372985	-0.298011	0.245735
C52	C	0.872985	0.201989	0.745735
C53	C	0.340322	-0.303049	0.302188
C54	C	0.840322	0.196951	0.802188
C55	C	0.373100	-0.308108	0.358622
C56	C	0.873100	0.191892	0.858622
C57	C	0.438534	-0.308120	0.358599
C58	C	0.938534	0.191880	0.858599
C59	C	0.471191	-0.303072	0.302139
C60	C	0.971191	0.196928	0.802139
C61	C	0.236662	-0.343346	0.342224
C62	C	0.736662	0.156654	0.842224
C63	C	0.171225	-0.343326	0.342253
C64	C	0.671225	0.156674	0.842253
C65	C	0.171217	-0.262690	0.262257
C66	C	0.671217	0.237310	0.762257
C67	C	0.236653	-0.262706	0.262234
C68	C	0.736653	0.237294	0.762234
C69	C	0.269371	-0.303038	0.302216
C70	C	0.769371	0.196962	0.802216
C71	C	0.905360	-0.466603	0.302132
C72	C	1.405360	0.033397	0.802132
C73	C	0.905383	-0.536571	0.302139
C74	C	1.405383	-0.036571	0.802139
C75	C	0.945447	-0.569370	0.342259
C76	C	1.445447	-0.069370	0.842259
C77	C	0.945469	-0.635112	0.342275
C78	C	1.445469	-0.135112	0.842275
C79	C	0.905434	-0.668054	0.302159
C80	C	1.405434	-0.168054	0.802159
C81	C	0.865363	-0.635248	0.262036
C82	C	1.365363	-0.135248	0.762036
C83	C	0.865338	-0.569506	0.262026
C84	C	1.365338	-0.069506	0.762026
N85	N	0.900697	-0.771307	0.247324
N86	N	1.400697	-0.271307	0.747324
N87	N	0.900725	-0.833759	0.247335
N88	N	1.400725	-0.333759	0.747335
C89	C	0.905507	-0.866129	0.302187
C90	C	1.405507	-0.366129	0.802187
N91	N	0.910273	-0.833688	0.357029
N92	N	1.410273	-0.333688	0.857029
N93	N	0.910249	-0.771230	0.357017
N94	N	1.410249	-0.271230	0.857017
C95	C	0.905457	-0.739339	0.302165
C96	C	1.405457	-0.239339	0.802165
C97	C	0.945597	-0.970212	0.342327
C98	C	1.445597	-0.470212	0.842327
C99	C	0.945615	-1.035956	0.342344
C100	C	1.445615	-0.535956	0.842344
C101	C	0.865512	-1.036090	0.262100
C102	C	1.365512	-0.536090	0.762100
C103	C	0.865491	-0.970348	0.262089
C104	C	1.365491	-0.470348	0.762089
C105	C	0.905537	-0.937413	0.302202
C106	C	1.405537	-0.437413	0.802202
C107	C	1.068864	-0.303019	0.302237
C108	C	1.568864	0.196981	0.802237
C109	C	1.138505	-0.303005	0.302268
C110	C	1.638505	0.196995	0.802268
C111	C	0.905492	-0.303039	0.465587
C112	C	1.405492	0.196961	0.965587
C113	C	0.905514	-0.303033	0.535228
C114	C	1.405514	0.196967	1.035228
C115	C	0.905537	-0.138861	0.302209
C116	C	1.405537	0.361139	0.802209
C117	C	0.905579	-0.068893	0.302228
C118	C	1.405579	0.431107	0.802228
C119	C	0.905424	-0.303019	0.139376
C120	C	1.405424	0.196981	0.639376
C121	C	0.905524	-0.302847	0.069735
C122	C	1.405524	0.197153	0.569735
C123	C	0.945610	-0.262762	0.567971
C124	C	1.445610	0.237238	1.067971
C125	C	0.945609	-0.262735	0.633407
C126	C	1.445609	0.237265	1.133407
C127	C	0.905519	-0.302991	0.666096
C128	C	1.405519	0.197009	1.166096
C129	C	0.865416	-0.343265	0.633345
C130	C	1.365416	0.156735	1.133345
C131	C	0.865413	-0.343286	0.567911
C132	C	1.365413	0.156714	1.067911
C133	C	0.900544	-0.359672	0.769758
C134	C	1.400544	0.140328	1.269758
C135	C	0.900551	-0.359652	0.835191
C136	C	1.400551	0.140348	1.335191
C137	C	0.905523	-0.302924	0.867917
C138	C	1.405523	0.197076	1.367917
C139	C	0.910501	-0.246215	0.835202
C140	C	1.410501	0.253785	1.335202
C141	C	0.910499	-0.246237	0.769768
C142	C	1.410499	0.253763	1.269768
C143	C	0.905517	-0.302971	0.737049
C144	C	1.405517	0.197029	1.237049
C145	C	0.945620	-0.262620	0.971613
C146	C	1.445620	0.237380	1.471613
C147	C	0.945615	-0.262592	1.037050
C148	C	1.445615	0.237408	1.537050
C149	C	0.865425	-0.343127	1.036987
C150	C	1.365425	0.156873	1.536987
C151	C	0.865427	-0.343150	0.971552
C152	C	1.365427	0.156850	1.471552
C153	C	0.905528	-0.302897	0.938869
C154	C	1.405528	0.197103	1.438869
H155	H	0.144596	-0.376152	0.374832
H156	H	0.644596	0.123848	0.874832
H157	H	0.346508	-0.312209	0.404591
H158	H	0.846508	0.187791	0.904591
N159	N	0.822187	-0.386548	1.072238
N160	N	1.322187	0.113452	1.572238
H161	H	0.796788	-0.412066	1.041563
H162	H	1.296788	0.087934	1.541563
H163	H	0.793208	-0.360921	1.099365
H164	H	1.293208	0.139079	1.599365
H165	H	0.263284	-0.229883	0.229656
H166	H	0.763284	0.270117	0.729656
H167	H	0.978262	-0.229985	0.541365
H168	H	1.478262	0.270015	1.041365
N169	N	0.988684	-0.670494	0.385549
N170	N	1.488684	-0.170494	0.885549
H171	H	1.033450	-0.659005	0.375867
H172	H	1.533450	-0.159005	0.875867
H173	H	0.982571	-0.717127	0.379447
H174	H	1.482571	-0.217127	0.879447
H175	H	0.978053	-0.542556	0.374923
H176	H	1.478053	-0.042556	0.874923
N177	N	0.915866	-0.185021	0.870483
N178	N	1.415866	0.314979	1.370483
H179	H	0.954474	-0.185850	0.897662
H180	H	1.454474	0.314150	1.397662
H181	H	0.877671	-0.179146	0.897565
H182	H	1.377671	0.320854	1.397565
N183	N	0.895187	-0.420862	0.734465
N184	N	1.395187	0.079138	1.234465
H185	H	0.933353	-0.426759	0.707345
H186	H	1.433353	0.073241	1.207345
H187	H	0.856556	-0.419995	0.707323
H188	H	1.356556	0.080005	1.207323
N189	N	0.915857	-0.185079	0.734477
N190	N	1.415857	0.314921	1.234477
H191	H	0.954464	-0.185929	0.707356
H192	H	1.454464	0.314071	1.207356
H193	H	0.918981	-0.149168	0.765169
H194	H	1.418981	0.350832	1.265169
N195	N	0.473891	-0.313565	0.419460
N196	N	0.973891	0.186435	0.919460
H197	H	0.501002	-0.352359	0.418537
H198	H	1.001002	0.147641	0.918537
H199	H	0.443238	-0.316728	0.455197
H200	H	0.943238	0.183272	0.955197
N201	N	0.822189	-0.670775	0.218763
N202	N	1.322189	-0.170775	0.718763
H203	H	0.796804	-0.640019	0.193344
H204	H	1.296804	-0.140019	0.693344
H205	H	0.793192	-0.698076	0.244233
H206	H	1.293192	-0.198076	0.744233
H207	H	0.832780	-0.375947	0.944892
H208	H	1.332780	0.124053	1.444892
H209	H	0.346302	-0.293896	0.199784
H210	H	0.846302	0.206104	0.699784
H211	H	0.144573	-0.229857	0.229703
H212	H	0.644573	0.270143	0.729703
N213	N	0.539579	-0.386890	0.385252
N214	N	1.039579	0.113110	0.885252
H215	H	0.570236	-0.412440	0.410578
H216	H	1.070236	0.087560	0.910578
H217	H	0.512374	-0.415975	0.359700
H218	H	1.012374	0.084025	0.859700
H219	H	0.465007	-0.293914	0.199740
H220	H	0.965007	0.206086	0.699740
N221	N	0.822165	-0.386674	0.668599
N222	N	1.322165	0.113326	1.168599
H223	H	0.828250	-0.380548	0.715020
H224	H	1.328250	0.119452	1.215020
H225	H	0.831881	-0.431636	0.657170
H226	H	1.331881	0.068364	1.157170
H227	H	0.978258	-0.229938	0.660072
H228	H	1.478258	0.270062	1.160072
N229	N	0.895181	-0.420812	0.870475
N230	N	1.395181	0.079188	1.370475
H231	H	0.933349	-0.426703	0.897649
H232	H	1.433349	0.073297	1.397649
H233	H	0.892003	-0.456713	0.839777
H234	H	1.392003	0.043287	1.339777
N235	N	0.822127	-0.534126	0.218751
N236	N	1.322127	-0.034126	0.718751
H237	H	0.796766	-0.564968	0.193340
H238	H	1.296766	-0.064968	0.693340
H239	H	0.847637	-0.506837	0.189783
H240	H	1.347637	-0.006837	0.689783
N241	N	0.988868	-0.219212	0.936351
N242	N	1.488868	0.280788	1.436351
H243	H	0.979169	-0.174229	0.947721
H244	H	1.479169	0.325771	1.447721
H245	H	0.982761	-0.225402	0.889943
H246	H	1.482761	0.274598	1.389943
N247	N	0.539567	-0.219289	0.218979
N248	N	1.039567	0.280711	0.718979
H249	H	0.493151	-0.225403	0.225058
H250	H	0.993151	0.274597	0.725058
H251	H	0.550953	-0.229031	0.174213
H252	H	1.050953	0.270969	0.674213
H253	H	0.832760	-0.376079	0.541252
H254	H	1.332760	0.123921	1.041252
H255	H	0.978202	-0.943396	0.374992
H256	H	1.478202	-0.443396	0.874992
H257	H	0.978239	-1.062659	0.375017
H258	H	1.478239	-0.562659	0.875017
N259	N	0.675575	-0.219297	0.218950
N260	N	1.175575	0.280703	0.718950
H261	H	0.644918	-0.193748	0.193625
H262	H	1.144918	0.306252	0.693625
H263	H	0.702668	-0.244880	0.189896
H264	H	1.202668	0.255120	0.689896
H265	H	0.832871	-0.943642	0.229417
H266	H	1.332871	-0.443642	0.729417
N267	N	0.675592	-0.386924	0.385199
N268	N	1.175592	0.113076	0.885199
H269	H	0.644939	-0.412459	0.410545
H270	H	1.144939	0.087541	0.910545
H271	H	0.702798	-0.361351	0.414234
H272	H	1.202798	0.138649	0.914234
N273	N	0.271957	-0.386842	0.385347
N274	N	0.771957	0.113158	0.885347
H275	H	0.241305	-0.412374	0.410698
H276	H	0.741305	0.087626	0.910698
H277	H	0.299166	-0.361267	0.414378
H278	H	0.799166	0.138733	0.914378
H279	H	0.832911	-1.062911	0.229441
H280	H	1.332911	-0.562911	0.729441
H281	H	0.978264	-0.229795	1.063708
H282	H	1.478264	0.270205	1.563708
