data_functionalizedCrystal
_audit_creation_method	'MofGen! by Chris Wilmer'
_symmetry_space_group_name_H-M	'P1'
_symmetry_Int_Tables_number	1
_symmetry_cell_setting	triclinic
loop_
_symmetry_equiv_pos_as_xyz
  x,y,z
_cell_length_a	25.639239
_cell_length_b	12.759401
_cell_length_c	12.759393
_cell_angle_alpha	90.019442
_cell_angle_beta	89.965122
_cell_angle_gamma	89.963105
loop_
_atom_site_label
_atom_site_type_symbol
_atom_site_fract_x
_atom_site_fract_y
_atom_site_fract_z
Zn1	Zn	-0.208156	-1.606080	-0.593970
Zn2	Zn	-0.295600	-1.605901	-0.418273
Zn3	Zn	-0.208177	-1.430382	-0.418306
Zn4	Zn	-0.295560	-1.430297	-0.593911
O5	O	-0.251873	-1.518165	-0.506115
O6	O	-0.219764	-1.753077	-0.570674
O7	O	-0.284028	-1.582578	-0.271256
O8	O	-0.135009	-1.453799	-0.441646
O9	O	-0.284008	-1.752945	-0.441590
O10	O	-0.134994	-1.582883	-0.570706
O11	O	-0.219800	-1.453625	-0.271280
O12	O	-0.219761	-1.283349	-0.441590
O13	O	-0.283940	-1.453654	-0.740940
O14	O	-0.283960	-1.283287	-0.570606
O15	O	-0.219725	-1.582801	-0.740983
O16	O	-0.368760	-1.582496	-0.441533
O17	O	-0.368730	-1.453480	-0.570574
C18	C	-0.251859	-1.245197	-0.506096
C19	C	-0.251865	-1.128421	-0.506113
C20	C	-0.218473	-1.073628	-0.573429
C21	C	-0.218476	-0.963904	-0.573434
C22	C	-0.285269	-0.963775	-0.438804
C23	C	-0.285263	-1.073497	-0.438794
C24	C	-0.156846	-0.814035	-0.611212
C25	C	-0.123458	-0.759239	-0.678545
C26	C	-0.115491	-0.794902	-0.781086
C27	C	-0.140919	-0.885360	-0.816314
C28	C	-0.174311	-0.940151	-0.748987
C29	C	-0.182268	-0.904489	-0.646432
C30	C	-0.346894	-1.223367	-0.401027
C31	C	-0.380289	-1.278160	-0.333704
C32	C	-0.388261	-1.242499	-0.231161
C33	C	-0.362842	-1.152038	-0.195937
C34	C	-0.329447	-1.097245	-0.263260
C35	C	-0.321474	-1.132914	-0.365801
C36	C	-0.387716	-1.517988	-0.506067
C37	C	-0.445830	-1.518008	-0.506081
C38	C	-0.806195	-1.585518	-0.439038
C39	C	-0.860800	-1.585559	-0.439052
O40	O	-0.889039	-1.642775	-0.381996
N41	N	-0.888112	-1.518349	-0.506184
C42	C	-0.860817	-1.451102	-0.573315
O43	O	-0.889063	-1.393939	-0.630418
C44	C	-0.806214	-1.451067	-0.573305
C45	C	-0.778905	-1.518274	-0.506161
C46	C	-0.778886	-1.652720	-0.371900
C47	C	-0.724285	-1.652678	-0.371884
C48	C	-0.696994	-1.585434	-0.439008
C49	C	-0.724304	-1.518232	-0.506146
C50	C	-0.778920	-1.383826	-0.640440
C51	C	-0.724313	-1.383798	-0.640426
C52	C	-0.697004	-1.451004	-0.573281
C53	C	-0.642413	-1.450945	-0.573254
N54	N	-0.615100	-1.518155	-0.506121
C55	C	-0.642391	-1.585399	-0.438998
C56	C	-0.975488	-1.451181	-0.573331
C57	C	-1.030090	-1.451210	-0.573336
C58	C	-1.030069	-1.585668	-0.439074
C59	C	-0.975466	-1.585634	-0.439065
C60	C	-0.948176	-1.518391	-0.506199
C61	C	-0.527726	-1.585304	-0.438971
C62	C	-0.473121	-1.585253	-0.438958
C63	C	-0.473147	-1.450799	-0.573224
C64	C	-0.527747	-1.450846	-0.573232
C65	C	-0.555036	-1.518107	-0.506102
O66	O	-0.614139	-1.393761	-0.630283
O67	O	-0.614139	-1.642562	-0.381914
C68	C	-0.115500	-1.518371	-0.506186
C69	C	-0.057386	-1.518458	-0.506217
C70	C	-0.251826	-1.518238	-0.780148
C71	C	-0.251805	-1.518269	-0.896925
C72	C	-0.251883	-0.792198	-0.506131
C73	C	-0.251875	-0.908974	-0.506128
C74	C	-0.285234	-1.585418	-0.951778
C75	C	-0.285209	-1.585449	-1.061502
C76	C	-0.218323	-1.451172	-1.061511
C77	C	-0.218347	-1.451148	-0.951788
C78	C	-0.303865	-1.709359	-1.211460
C79	C	-0.337302	-1.776499	-1.266317
C80	C	-0.388327	-1.792543	-1.230690
C81	C	-0.405925	-1.741431	-1.140208
C82	C	-0.372491	-1.674283	-1.085357
C83	C	-0.321459	-1.658260	-1.120982
C84	C	-0.199696	-1.327236	-0.801829
C85	C	-0.166263	-1.260082	-0.746975
C86	C	-0.115238	-1.244028	-0.782600
C87	C	-0.097641	-1.295122	-0.873086
C88	C	-0.131073	-1.362275	-0.927939
C89	C	-0.182099	-1.378331	-0.892307
C90	C	-0.251883	-1.518152	-0.233147
C91	C	-0.251756	-1.518325	-0.116371
H92	H	-0.369336	-1.122998	-0.112440
H93	H	-0.386820	-1.632665	-1.011691
O94	O	-0.420769	-1.295582	-0.165781
C95	C	-0.498459	-1.289275	-0.059588
C96	C	-0.461697	-1.229051	-0.133638
H97	H	-0.531552	-1.235505	-0.033561
H98	H	-0.515307	-1.360032	-0.102342
H99	H	-0.475709	-1.316862	0.012025
H100	H	-0.484410	-1.201394	-0.205265
H101	H	-0.444848	-1.158345	-0.090805
O102	O	-0.697724	-1.318572	-0.705606
C103	C	-0.613616	-1.258866	-0.765054
C104	C	-0.643662	-1.332805	-0.691207
H105	H	-0.569902	-1.270332	-0.753422
H106	H	-0.624274	-1.277284	-0.849811
H107	H	-0.624435	-1.174180	-0.746546
H108	H	-0.632859	-1.417516	-0.709620
H109	H	-0.633001	-1.314298	-0.606472
O110	O	-0.446550	-1.385581	-0.638392
C111	C	-0.362433	-1.325913	-0.697826
C112	C	-0.392490	-1.399835	-0.623980
H113	H	-0.318721	-1.337396	-0.686184
H114	H	-0.373088	-1.344333	-0.782584
H115	H	-0.373245	-1.241222	-0.679327
H116	H	-0.381695	-1.484551	-0.642385
H117	H	-0.381833	-1.381325	-0.539244
H118	H	-0.801100	-1.707484	-0.317240
H119	H	-0.549984	-1.396124	-0.627910
O120	O	-0.697702	-1.718021	-0.306815
C121	C	-0.636022	-1.859892	-0.292798
C122	C	-0.666081	-1.785933	-0.366607
H123	H	-0.610458	-1.914832	-0.341112
H124	H	-0.610465	-1.811738	-0.237824
H125	H	-0.664923	-1.907909	-0.244810
H126	H	-0.637218	-1.737900	-0.414664
H127	H	-0.691646	-1.834148	-0.421513
H128	H	-0.056092	-1.282049	-0.902093
H129	H	-0.415553	-1.847204	-1.275367
O130	O	-0.446651	-1.650491	-0.373587
C131	C	-0.429966	-1.701537	-0.194911
C132	C	-0.459982	-1.627608	-0.268820
H133	H	-0.440725	-1.683048	-0.110191
H134	H	-0.440664	-1.786268	-0.213354
H135	H	-0.386253	-1.689979	-0.206477
H136	H	-0.503701	-1.639073	-0.257295
H137	H	-0.449241	-1.542905	-0.250359
H138	H	-0.953233	-1.640360	-0.384391
H139	H	-0.400979	-1.351830	-0.362387
H140	H	-0.191083	-1.396523	-1.106194
O141	O	-0.183278	-1.210496	-0.658987
C142	C	-0.171265	-1.183841	-0.473596
C143	C	-0.151934	-1.240041	-0.573163
H144	H	-0.145939	-1.207724	-0.404177
H145	H	-0.168711	-1.095416	-0.485286
H146	H	-0.213484	-1.206835	-0.457604
H147	H	-0.109710	-1.217133	-0.589211
H148	H	-0.154527	-1.328455	-0.561424
H149	H	-1.052299	-1.640426	-0.384422
O150	O	-0.317787	-1.650472	-0.898435
C151	C	-0.388384	-1.664475	-0.774485
C152	C	-0.351560	-1.590677	-0.834846
H153	H	-0.415691	-1.616161	-0.723042
H154	H	-0.412310	-1.712457	-0.832493
H155	H	-0.364382	-1.719455	-0.723176
H156	H	-0.375521	-1.535634	-0.886156
H157	H	-0.327632	-1.542769	-0.776781
H158	H	-0.322969	-1.818116	-1.339987
H159	H	-0.549938	-1.640077	-0.384309
O160	O	-0.455503	-1.757160	-1.105725
C161	C	-0.537434	-1.845012	-1.134380
C162	C	-0.481296	-1.827309	-1.173538
H163	H	-0.558307	-1.901710	-1.189201
H164	H	-0.536410	-1.879323	-1.051920
H165	H	-0.559157	-1.767035	-1.133067
H166	H	-0.459540	-1.905243	-1.174919
H167	H	-0.482357	-1.792949	-1.255975
H168	H	-0.088019	-1.189337	-0.737933
O169	O	-0.254263	-1.693890	-1.245920
C170	C	-0.162577	-1.707825	-1.206895
C171	C	-0.218724	-1.725424	-1.167743
H172	H	-0.133829	-1.733292	-1.143700
H173	H	-0.155706	-1.755911	-1.280955
H174	H	-0.156632	-1.621161	-1.224995
H175	H	-0.224708	-1.812060	-1.149583
H176	H	-0.225568	-1.677271	-1.093718
O177	O	-1.056697	-1.385953	-0.638455
C178	C	-1.140819	-1.326461	-0.698048
C179	C	-1.110755	-1.400396	-0.624221
H180	H	-1.184530	-1.338128	-0.686582
H181	H	-1.130170	-1.241725	-0.679520
H182	H	-1.130007	-1.344849	-0.782764
H183	H	-1.121551	-1.382102	-0.539482
H184	H	-1.121407	-1.485110	-0.642840
O185	O	-0.113890	-1.411869	-1.015790
C186	C	-0.042308	-1.439499	-1.135125
C187	C	-0.061696	-1.383288	-1.035610
H188	H	-0.000110	-1.416396	-1.151193
H189	H	-0.044804	-1.527924	-1.123381
H190	H	-0.067675	-1.415734	-1.204523
H191	H	-0.036345	-1.406968	-0.966164
H192	H	-0.059211	-1.294875	-1.047443
O193	O	-0.949061	-1.385748	-0.638574
C194	C	-0.954857	-1.252431	-0.771785
C195	C	-0.984846	-1.326459	-0.697934
H196	H	-0.983775	-1.204492	-0.819812
H197	H	-0.929351	-1.197431	-0.723550
H198	H	-0.929236	-1.300629	-0.826720
H199	H	-1.010495	-1.278345	-0.642984
H200	H	-1.010318	-1.381462	-0.746234
H201	H	-0.195012	-1.013804	-0.777667
O202	O	-0.133108	-0.919879	-0.915947
C203	C	-0.089429	-0.891323	-1.080744
C204	C	-0.098221	-0.852124	-0.967930
H205	H	-0.061231	-0.836550	-1.122812
H206	H	-0.072339	-0.973805	-1.078701
H207	H	-0.128243	-0.892598	-1.124263
H208	H	-0.059427	-0.850782	-0.924345
H209	H	-0.115335	-0.769666	-0.970049
O210	O	-0.083022	-0.741578	-0.846343
C211	C	-0.025550	-0.593710	-0.867385
C212	C	-0.062299	-0.654014	-0.793374
H213	H	-0.008794	-0.522890	-0.824596
H214	H	0.007609	-0.647351	-0.893347
H215	H	-0.048291	-0.566208	-0.939042
H216	H	-0.039602	-0.681524	-0.721668
H217	H	-0.095458	-0.600334	-0.767497
H218	H	-0.191277	-1.118343	-0.628241
H219	H	-0.163324	-0.784997	-0.527712
O220	O	-0.304775	-1.009416	-0.228862
C221	C	-0.291015	-0.890058	-0.085133
C222	C	-0.318978	-0.989550	-0.123943
H223	H	-0.302497	-0.873953	-0.000309
H224	H	-0.247010	-0.901857	-0.090293
H225	H	-0.302867	-0.820659	-0.136103
H226	H	-0.307170	-1.058996	-0.073004
H227	H	-0.362979	-0.977662	-0.118807
O228	O	-0.805359	-1.318511	-0.705769
C229	C	-0.799594	-1.185119	-0.838909
C230	C	-0.769588	-1.259055	-0.764989
H231	H	-0.770686	-1.137013	-0.886792
H232	H	-0.825098	-1.233292	-0.893966
H233	H	-0.825217	-1.130260	-0.790629
H234	H	-0.743937	-1.313928	-0.813184
H235	H	-0.744117	-1.210816	-0.709928
H236	H	-0.102754	-0.685587	-0.649853
H237	H	-0.312460	-0.919043	-0.383996
H238	H	-0.340401	-1.252418	-0.484523
H239	H	-0.241245	-1.340308	-0.772809
