data_functionalizedCrystal
_audit_creation_method	'MofGen! by Chris Wilmer'
_symmetry_space_group_name_H-M	'P1'
_symmetry_Int_Tables_number	1
_symmetry_cell_setting	triclinic
loop_
_symmetry_equiv_pos_as_xyz
  x,y,z
_cell_length_a	14.908571
_cell_length_b	12.759394
_cell_length_c	14.908694
_cell_angle_alpha	93.269693
_cell_angle_beta	83.592472
_cell_angle_gamma	86.711101
loop_
_atom_site_label
_atom_site_type_symbol
_atom_site_fract_x
_atom_site_fract_y
_atom_site_fract_z
Zn1	Zn	1.413387	-0.553121	-0.591519
Zn2	Zn	1.404569	-0.718063	-0.440158
Zn3	Zn	1.253288	-0.531632	-0.431454
Zn4	Zn	1.262001	-0.717981	-0.582756
O5	O	1.333311	-0.630199	-0.511472
O6	O	1.538885	-0.584029	-0.578751
O7	O	1.377164	-0.684373	-0.312337
O8	O	1.274569	-0.387466	-0.452712
O9	O	1.532407	-0.705210	-0.467546
O10	O	1.392194	-0.403254	-0.570311
O11	O	1.266018	-0.547403	-0.305943
O12	O	1.127776	-0.547324	-0.444215
O13	O	1.289420	-0.705072	-0.710584
O14	O	1.134178	-0.684234	-0.555376
O15	O	1.400643	-0.583950	-0.717022
O16	O	1.385614	-0.865068	-0.459049
O17	O	1.280869	-0.865009	-0.563815
C18	C	1.098133	-0.613439	-0.497900
C19	C	0.997524	-0.606296	-0.492116
C20	C	0.815175	-0.735635	-0.596842
C21	C	0.720644	-0.728927	-0.591410
C22	C	0.713930	-0.586167	-0.475825
C23	C	0.808461	-0.592875	-0.481257
C24	C	0.859080	-0.667613	-0.541767
C25	C	0.953612	-0.674325	-0.547193
C26	C	0.946897	-0.531561	-0.431613
C27	C	0.852366	-0.524853	-0.426181
C28	C	1.333256	-0.903161	-0.511447
C29	C	1.333317	-1.019944	-0.511471
C30	C	1.442479	-1.019965	-0.402470
C31	C	1.497084	-1.074839	-0.347981
C32	C	1.497138	-1.184566	-0.348008
C33	C	1.442584	-1.239422	-0.402533
C34	C	1.387979	-1.184548	-0.457021
C35	C	1.387928	-1.074818	-0.456986
C36	C	1.278823	-1.184528	-0.566027
C37	C	1.278762	-1.074800	-0.565995
C38	C	1.224268	-1.239384	-0.620551
C39	C	1.169657	-1.184509	-0.675036
C40	C	1.169604	-1.074775	-0.675005
C41	C	1.224157	-1.019926	-0.620484
C42	C	1.569408	-0.647026	-0.525097
C43	C	1.670018	-0.654196	-0.530903
C44	C	1.346987	-0.646899	-0.747565
C45	C	1.352815	-0.654015	-0.848173
C46	C	1.333393	-0.356174	-0.511518
C47	C	1.333428	-0.239401	-0.511538
C48	C	1.248008	-0.524761	-1.030570
C49	C	1.253480	-0.531444	-1.125100
C50	C	1.369227	-0.674067	-1.131767
C51	C	1.363754	-0.667384	-1.037236
C52	C	1.303144	-0.592728	-0.986641
C53	C	1.297677	-0.586041	-0.892109
C54	C	1.413418	-0.728668	-0.898777
C55	C	1.418890	-0.735351	-0.993307
C56	C	1.319741	-0.613493	-0.276300
C57	C	1.314089	-0.606093	-0.175702
H58	H	0.811139	-0.464001	-0.376919
H59	H	1.224113	-0.930579	-0.620448
O60	O	1.428184	-0.746451	-1.180975
C61	C	1.489810	-0.694681	-1.239071
H62	H	1.493796	-0.610324	-1.210919
H63	H	1.559517	-0.737733	-1.244180
H64	H	1.465951	-0.694124	-1.309089
H65	H	0.994825	-0.735182	-0.596462
H66	H	0.856389	-0.796494	-0.646107
H67	H	1.541607	-1.229245	-0.303644
O68	O	1.116774	-1.237764	-0.728132
C69	C	1.141686	-1.218643	-0.819488
H70	H	1.214245	-1.193871	-0.828275
H71	H	1.136489	-1.293393	-0.863771
H72	H	1.094470	-1.153204	-0.840292
H73	H	1.198665	-0.463964	-0.989374
O74	O	0.678135	-0.795113	-0.644948
C75	C	0.743089	-0.862492	-0.699535
H76	H	0.808316	-0.868228	-0.666325
H77	H	0.716325	-0.944022	-0.707508
H78	H	0.757150	-0.829714	-0.768913
H79	H	1.442427	-0.930618	-0.402429
O80	O	0.989402	-0.465426	-0.378018
C81	C	0.924451	-0.398008	-0.323467
H82	H	0.856876	-0.436026	-0.316400
H83	H	0.947615	-0.383569	-0.253734
H84	H	0.916340	-0.319913	-0.356154
O85	O	1.477885	-0.807816	-1.042368
C86	C	1.566771	-0.789624	-1.024501
H87	H	1.564684	-0.744519	-0.955980
H88	H	1.607158	-0.868105	-1.023601
H89	H	1.600348	-0.741540	-1.079473
O90	O	1.549991	-1.021385	-0.295041
C91	C	1.538254	-0.912772	-0.306712
H92	H	1.470085	-0.894953	-0.332272
H93	H	1.540494	-0.866747	-0.239261
H94	H	1.594691	-0.888788	-0.358040
O95	O	1.466887	-0.794648	-0.855959
C96	C	1.449082	-0.772724	-0.761675
H97	H	1.378487	-0.732430	-0.744733
H98	H	1.453125	-0.849314	-0.726090
H99	H	1.501234	-0.718702	-0.737961
O100	O	1.238877	-0.513556	-0.842823
C101	C	1.245851	-0.522245	-0.749966
H102	H	1.314952	-0.560708	-0.741082
H103	H	1.237646	-0.440574	-0.713696
H104	H	1.190597	-0.572477	-0.720032
H105	H	0.672700	-0.525313	-0.426567
H106	H	1.442641	-1.328769	-0.402559
H107	H	1.224320	-1.328730	-0.620574
H108	H	1.125141	-1.030103	-0.719380
O109	O	1.199887	-0.465308	-1.167632
C110	C	1.145203	-0.398005	-1.102699
H111	H	1.178379	-0.392244	-1.037455
H112	H	1.137148	-0.316473	-1.129465
H113	H	1.075865	-0.430873	-1.088671
