data_functionalizedCrystal
_audit_creation_method	'MofGen! by Chris Wilmer'
_symmetry_space_group_name_H-M	'P1'
_symmetry_Int_Tables_number	1
_symmetry_cell_setting	triclinic
loop_
_symmetry_equiv_pos_as_xyz
  x,y,z
_cell_length_a	21.395364
_cell_length_b	12.645330
_cell_length_c	21.395355
_cell_angle_alpha	89.986887
_cell_angle_beta	89.975448
_cell_angle_gamma	90.027336
loop_
_atom_site_label
_atom_site_type_symbol
_atom_site_fract_x
_atom_site_fract_y
_atom_site_fract_z
Zn1	Zn	0.957939	-0.421739	-0.354285
Zn2	Zn	0.957875	-0.598988	-0.249517
Zn3	Zn	0.853154	-0.421786	-0.249522
Zn4	Zn	0.853157	-0.599007	-0.354258
O5	O	0.905531	-0.510380	-0.301895
O6	O	1.045608	-0.445224	-0.340397
O7	O	0.943956	-0.575494	-0.161840
O8	O	0.867080	-0.273432	-0.263432
O9	O	1.045561	-0.575449	-0.263425
O10	O	0.944065	-0.273398	-0.340401
O11	O	0.867017	-0.445303	-0.161843
O12	O	0.765476	-0.445322	-0.263406
O13	O	0.867084	-0.575481	-0.441939
O14	O	0.765478	-0.575526	-0.340354
O15	O	0.944067	-0.445243	-0.441959
O16	O	0.943958	-0.747338	-0.263398
O17	O	0.867022	-0.747352	-0.340350
C18	C	0.742743	-0.510432	-0.301878
C19	C	0.673102	-0.510479	-0.301885
C20	C	0.640436	-0.442783	-0.342027
C21	C	0.575001	-0.442754	-0.342029
C22	C	0.542234	-0.510442	-0.301897
C23	C	0.574908	-0.578143	-0.261747
C24	C	0.640342	-0.578162	-0.261742
C25	C	0.438528	-0.605910	-0.296864
C26	C	0.373095	-0.605893	-0.296874
C27	C	0.340413	-0.510383	-0.301911
C28	C	0.373173	-0.414888	-0.306950
C29	C	0.438607	-0.414907	-0.306944
C30	C	0.471282	-0.510429	-0.301898
C31	C	0.236794	-0.442650	-0.342057
C32	C	0.171358	-0.442620	-0.342055
C33	C	0.171267	-0.578019	-0.261776
C34	C	0.236702	-0.578039	-0.261775
C35	C	0.269462	-0.510357	-0.301919
C36	C	0.905500	-0.785810	-0.301884
C37	C	0.905545	-0.903640	-0.301901
C38	C	0.954001	-0.948468	-0.253532
C39	C	0.953889	-1.071029	-0.253359
C40	C	0.839516	-1.071669	-0.284158
C41	C	0.839765	-0.949071	-0.283789
C42	C	0.922606	-0.948737	-0.368170
C43	C	0.924094	-1.071341	-0.367834
C44	C	1.068954	-0.510329	-0.301913
C45	C	1.138596	-0.510307	-0.301921
C46	C	0.905583	-0.510359	-0.465319
C47	C	0.905605	-0.510349	-0.534960
C48	C	0.905579	-0.233875	-0.301920
C49	C	0.905599	-0.116045	-0.301931
C50	C	0.945689	-0.442532	-0.567685
C51	C	0.945688	-0.442486	-0.633120
C52	C	0.905610	-0.510277	-0.665828
C53	C	0.865519	-0.578100	-0.633096
C54	C	0.865517	-0.578136	-0.567662
C55	C	0.900652	-0.605732	-0.769499
C56	C	0.900659	-0.605697	-0.834932
C57	C	0.905614	-0.510165	-0.867649
C58	C	0.910575	-0.414664	-0.834925
C59	C	0.910573	-0.414701	-0.769491
C60	C	0.905608	-0.510245	-0.736781
C61	C	0.945699	-0.442292	-0.971327
C62	C	0.945693	-0.442245	-1.036763
C63	C	0.865528	-0.577868	-1.036738
C64	C	0.865530	-0.577906	-0.971302
C65	C	0.905619	-0.510120	-0.938601
C66	C	0.905515	-0.510325	-0.139108
C67	C	0.905615	-0.510035	-0.069467
H68	H	0.548398	-0.387622	-0.374716
O69	O	0.675576	-0.651185	-0.218443
H70	H	0.726581	-0.639822	-0.225180
H71	H	0.465277	-0.337151	-0.311045
H72	H	0.832885	-0.633293	-0.659731
H73	H	0.891406	-1.101980	-0.405799
O74	O	0.675766	-0.369776	-0.385321
H75	H	0.726756	-0.381165	-0.378578
H76	H	0.802423	-0.919422	-0.317496
O77	O	0.820085	-1.112420	-0.220711
H78	H	0.773289	-1.080500	-0.208664
H79	H	0.887318	-0.919743	-0.404208
O80	O	0.988929	-0.369180	-0.936046
H81	H	0.978193	-0.285973	-0.948587
O82	O	0.473771	-0.708933	-0.291419
H83	H	0.524774	-0.692903	-0.292251
O84	O	0.988923	-0.369419	-0.532412
H85	H	1.016793	-0.322248	-0.566165
O86	O	0.337936	-0.311861	-0.312377
H87	H	0.286932	-0.327884	-0.311525
O88	O	1.019081	-0.909276	-0.268050
H89	H	1.032720	-0.935532	-0.315637
O90	O	0.985261	-0.907555	-0.389753
H91	H	1.017496	-0.975006	-0.397611
O92	O	0.272136	-0.369640	-0.385342
H93	H	0.238425	-0.322546	-0.413248
O94	O	0.822295	-0.650984	-1.072004
H95	H	0.850326	-0.704902	-1.101828
H96	H	0.896450	-0.683506	-0.742867
O97	O	0.790351	-1.110736	-0.329205
H98	H	0.812554	-1.162260	-0.364848
H99	H	0.972726	-1.100334	-0.381239
O100	O	0.539573	-0.651152	-0.218460
H101	H	0.488584	-0.639773	-0.225212
H102	H	0.978327	-0.387255	-0.659770
O103	O	0.820657	-0.911278	-0.219627
H104	H	0.773069	-0.940992	-0.208689
O105	O	0.136120	-0.369598	-0.385350
H106	H	0.169896	-0.322547	-0.413265
O107	O	0.938932	-1.109974	-0.188330
H108	H	0.895747	-1.158591	-0.189676
H109	H	0.832873	-0.633360	-0.541018
O110	O	0.988929	-0.369097	-1.072064
H111	H	1.016807	-0.321979	-1.038329
H112	H	0.832893	-0.633137	-0.944658
H113	H	0.144589	-0.633131	-0.229100
H114	H	0.263299	-0.633170	-0.229090
O115	O	0.337762	-0.708882	-0.291428
H116	H	0.371479	-0.775297	-0.287908
O117	O	1.018787	-1.110778	-0.268065
H118	H	1.050535	-1.042433	-0.275362
H119	H	0.942833	-0.917719	-0.204709
H120	H	0.914611	-0.336941	-0.742850
O121	O	0.915910	-0.311607	-0.870195
H122	H	0.873933	-0.300782	-0.899978
O123	O	0.895302	-0.708693	-0.870227
H124	H	0.891840	-0.775127	-0.836485
