data_functionalizedCrystal
_audit_creation_method	'MofGen! by Chris Wilmer'
_symmetry_space_group_name_H-M	'P1'
_symmetry_Int_Tables_number	1
_symmetry_cell_setting	triclinic
loop_
_symmetry_equiv_pos_as_xyz
  x,y,z
_cell_length_a	15.944551
_cell_length_b	12.837943
_cell_length_c	11.295483
_cell_angle_alpha	94.538773
_cell_angle_beta	94.094426
_cell_angle_gamma	90.836161
loop_
_atom_site_label
_atom_site_type_symbol
_atom_site_fract_x
_atom_site_fract_y
_atom_site_fract_z
O1	O	0.213265	-1.382450	-0.099009
O2	O	0.713265	-0.882450	0.400991
O3	O	0.202478	-1.080644	-0.099016
O4	O	0.702478	-0.580644	0.400984
O5	O	0.086257	-1.239788	-0.099002
O6	O	0.586257	-0.739788	0.400998
O7	O	0.329487	-1.223306	-0.099023
O8	O	0.829487	-0.723306	0.400977
O9	O	0.096448	-1.225810	0.099048
O10	O	0.596448	-0.725810	0.599048
O11	O	0.212669	-1.066666	0.099034
O12	O	0.712669	-0.566666	0.599034
O13	O	0.223456	-1.368472	0.099040
O14	O	0.723456	-0.868472	0.599040
Cu15	Cu	0.218993	-1.216293	0.117121
Cu16	Cu	0.718993	-0.716293	0.617121
Cu17	Cu	0.206941	-1.232823	-0.117096
Cu18	Cu	0.706941	-0.732823	0.382904
O19	O	0.339677	-1.209328	0.099026
O20	O	0.839677	-0.709328	0.599026
C21	C	0.203930	-1.035034	0.000008
C22	C	0.703930	-0.535034	0.500008
C23	C	0.193062	-0.919957	0.000006
C24	C	0.693062	-0.419957	0.500006
C25	C	0.060004	-1.232115	0.000023
C26	C	0.560004	-0.732115	0.500023
C27	C	-0.033407	-1.230063	0.000024
C28	C	0.466593	-0.730063	0.500024
C29	C	0.222005	-1.414082	0.000014
C30	C	0.722005	-0.914082	0.500014
C31	C	0.232872	-1.529160	0.000008
C32	C	0.732872	-1.029160	0.500008
C33	C	-0.256548	-1.126515	0.000005
C34	C	0.243452	-0.626515	0.500005
C35	C	-0.308694	-1.167708	0.097657
C36	C	0.191306	-0.667708	0.597657
C37	C	-0.204430	-1.226352	0.000015
C38	C	0.295570	-0.726352	0.500015
C39	C	-0.318722	-1.181513	-0.097604
C40	C	0.181278	-0.681513	0.402396
C41	C	-0.369631	-1.222761	0.000001
C42	C	0.130369	-0.722761	0.500001
C43	C	-0.255341	-1.267567	0.097747
C44	C	0.244659	-0.767567	0.597747
C45	C	-0.265369	-1.281364	-0.097602
C46	C	0.234631	-0.781364	0.402398
C47	C	-0.317491	-1.322627	0.000073
C48	C	0.182509	-0.822627	0.500073
C49	C	-0.109262	-1.228418	0.000024
C50	C	0.390738	-0.728418	0.500024
C51	C	-0.464796	-1.220702	0.000000
C52	C	0.035204	-0.720702	0.500000
C53	C	0.365931	-1.217002	-0.000001
C54	C	0.865931	-0.717002	0.499999
C55	C	0.459340	-1.219054	-0.000010
C56	C	0.959340	-0.719054	0.499990
N57	N	0.227469	-1.204674	0.281856
N58	N	0.727469	-0.704674	0.781856
C59	C	0.323714	-0.679007	0.000011
C60	C	0.823714	-0.179007	0.500011
C61	C	0.313507	-0.570881	0.000010
C62	C	0.813507	-0.070881	0.500010
C63	C	0.162440	-0.595575	0.000011
C64	C	0.662440	-0.095575	0.500011
C65	C	0.172648	-0.703701	0.000012
C66	C	0.672648	-0.203701	0.500012
C67	C	0.253287	-0.745413	0.000011
C68	C	0.753287	-0.245413	0.500011
C69	C	0.263494	-0.853542	0.000003
C70	C	0.763494	-0.353542	0.500003
C71	C	0.112428	-0.878234	0.000013
C72	C	0.612428	-0.378234	0.500013
C73	C	0.102221	-0.770107	0.000011
C74	C	0.602221	-0.270107	0.500011
N75	N	0.198459	-1.244451	-0.281831
N76	N	0.698459	-0.744451	0.218169
C77	C	0.137394	-1.328092	0.531156
C78	C	0.637394	-0.828092	1.031156
C79	C	0.143806	-1.319318	0.655819
C80	C	0.643806	-0.819318	1.155819
C81	C	0.246701	-1.178349	0.655847
C82	C	0.746701	-0.678349	1.155847
C83	C	0.240289	-1.187123	0.531184
C84	C	0.740289	-0.687123	1.031184
C85	C	0.185634	-1.261997	0.468843
C86	C	0.685634	-0.761997	0.968843
C87	C	0.179227	-1.270775	0.344178
C88	C	0.679227	-0.770775	0.844178
C89	C	0.282117	-1.129802	0.344208
C90	C	0.782117	-0.629802	0.844208
C91	C	0.288530	-1.121028	0.468871
C92	C	0.788530	-0.621028	0.968871
H93	H	-0.229864	-1.043639	0.000101
H94	H	0.270136	-0.543639	0.500101
H95	H	-0.227723	-1.303925	0.180394
H96	H	0.272277	-0.803925	0.680394
H97	H	-0.346426	-1.145100	-0.180167
H98	H	0.153574	-0.645100	0.319833
N99	N	0.091783	-1.390613	0.723031
N100	N	0.591783	-0.890613	1.223031
H101	H	0.056192	-1.439377	0.664618
H102	H	0.556192	-0.939377	1.164618
H103	H	0.130297	-1.432798	0.774734
H104	H	0.630297	-0.932798	1.274734
H105	H	0.096792	-0.561586	0.000111
H106	H	0.596792	-0.061586	0.500111
H107	H	0.321401	-1.075986	0.293458
H108	H	0.821401	-0.575986	0.793458
N109	N	-0.239860	-1.344970	-0.206961
N110	N	0.260140	-0.844970	0.293039
H111	H	-0.205306	-1.299658	-0.255030
H112	H	0.294694	-0.799658	0.244970
H113	H	-0.205379	-1.405949	-0.181992
H114	H	0.294621	-0.905949	0.318008
H115	H	0.329155	-0.887502	0.000004
H116	H	0.829155	-0.387502	0.500004
N117	N	0.015250	-0.725114	0.000028
N118	N	0.515250	-0.225114	0.500028
H119	H	0.019469	-0.646539	0.000033
H120	H	0.519469	-0.146539	0.500033
H121	H	-0.019727	-0.754582	-0.073390
H122	H	0.480273	-0.254582	0.426610
H123	H	0.055081	-0.932315	0.000004
H124	H	0.555081	-0.432315	0.500004
N125	N	0.410683	-0.724007	-0.000009
N126	N	0.910683	-0.224007	0.499991
H127	H	0.453750	-0.665531	-0.000016
H128	H	0.953750	-0.165531	0.499984
H129	H	0.421988	-0.763152	0.073409
H130	H	0.921988	-0.263152	0.573409
N131	N	0.120285	-1.351532	0.276934
N132	N	0.620285	-0.851532	0.776934
H133	H	0.090697	-1.392068	0.335331
H134	H	0.590697	-0.892068	0.835331
H135	H	0.077298	-1.315484	0.225220
H136	H	0.577298	-0.815484	0.725220
H137	H	-0.327932	-1.119654	0.180211
H138	H	0.172068	-0.619654	0.680211
H139	H	-0.344011	-1.405566	0.000130
H140	H	0.155989	-0.905566	0.500130
H141	H	0.291194	-1.117381	0.706621
H142	H	0.791194	-0.617381	1.206621
N143	N	0.389469	-0.499251	0.000057
N144	N	0.889469	0.000749	0.500057
H145	H	0.442100	-0.542086	0.000071
H146	H	0.942100	-0.042086	0.500071
H147	H	0.384770	-0.459013	-0.073349
H148	H	0.884770	0.040987	0.426651
H149	H	0.092898	-1.389064	0.480398
H150	H	0.592898	-0.889064	0.980398
H151	H	0.333026	-1.060064	0.519643
H152	H	0.833026	-0.560064	1.019643
