data_functionalizedCrystal
_audit_creation_method	'MofGen! by Chris Wilmer'
_symmetry_space_group_name_H-M	'P1'
_symmetry_Int_Tables_number	1
_symmetry_cell_setting	triclinic
loop_
_symmetry_equiv_pos_as_xyz
  x,y,z
_cell_length_a	14.853567
_cell_length_b	14.853567
_cell_length_c	9.730223
_cell_angle_alpha	90.002764
_cell_angle_beta	90.002458
_cell_angle_gamma	83.634930
loop_
_atom_site_label
_atom_site_type_symbol
_atom_site_fract_x
_atom_site_fract_y
_atom_site_fract_z
O1	O	0.117700	1.196360	-0.114183
O2	O	0.131722	0.933900	-0.114205
O3	O	-0.006519	1.072141	-0.114198
O4	O	0.255941	1.058119	-0.114191
O5	O	-0.006515	1.072139	0.114382
O6	O	0.131725	0.933898	0.114375
O7	O	0.117704	1.196358	0.114397
Zn8	Zn	0.124715	1.065128	0.150678
Zn9	Zn	0.124710	1.065130	-0.150486
O10	O	0.255944	1.058118	0.114389
C11	C	0.131088	0.900311	0.000082
C12	C	0.129184	0.800227	0.000073
C13	C	-0.040106	1.071504	0.000088
C14	C	-0.140189	1.069601	0.000076
C15	C	0.039019	0.387693	0.000101
C16	C	0.203251	0.366412	0.000104
C17	C	0.205042	0.460446	0.000100
C18	C	0.123819	0.518108	0.000094
C19	C	0.040806	0.481736	0.000092
C20	C	0.288053	0.496825	0.000087
C21	C	0.289846	0.590864	0.000081
C22	C	0.208623	0.648528	0.000085
C23	C	0.125607	0.612150	0.000085
C24	C	0.044384	0.669812	0.000080
C25	C	-0.038633	0.633437	0.000090
C26	C	-0.040417	0.539399	0.000096
C27	C	0.210407	0.742565	0.000078
C28	C	0.046172	0.763855	0.000071
C29	C	-0.552723	0.979435	0.000095
C30	C	-0.574004	1.143668	0.000108
C31	C	-0.479971	1.145458	0.000100
C32	C	-0.422309	1.064235	0.000092
C33	C	-0.458680	0.981223	0.000091
C34	C	-0.443591	1.228469	0.000115
C35	C	-0.349552	1.230262	0.000109
C36	C	-0.291889	1.149039	0.000090
C37	C	-0.328266	1.066023	0.000088
C38	C	-0.270604	0.984800	0.000079
C39	C	-0.306979	0.901783	0.000067
C40	C	-0.401017	0.899999	0.000072
C41	C	-0.197851	1.150823	0.000085
C42	C	-0.176561	0.986588	0.000075
C43	C	0.289531	1.058754	0.000100
C44	C	0.389615	1.060657	0.000103
C45	C	0.118337	1.229947	0.000107
C46	C	0.120241	1.330031	0.000107
N47	N	0.124718	1.065133	0.356214
N48	N	0.124701	1.065132	-0.356023
C49	C	0.063525	1.126362	0.428143
C50	C	0.063514	1.126359	0.572026
C51	C	0.185896	1.003897	0.572038
C52	C	0.185902	1.003896	0.428158
C53	C	0.002341	1.187599	0.356200
C54	C	-0.058855	1.248833	0.428129
C55	C	-0.058866	1.248831	0.572012
C56	C	0.002319	1.187594	0.643966
H57	H	-0.104764	0.680397	0.000075
H58	H	-0.108005	0.509774	0.000137
H59	H	0.002299	1.187592	0.761125
N60	N	-0.310321	1.319796	0.000122
H61	H	-0.361120	1.370977	0.000130
H62	H	-0.271775	1.324116	-0.084620
H63	H	0.235712	0.954042	0.630632
H64	H	-0.260019	0.835652	0.000069
H65	H	0.235729	0.954037	0.369592
H66	H	-0.582344	0.911844	0.000079
H67	H	-0.019971	0.810798	0.000072
H68	H	-0.028572	0.358072	0.000114
N69	N	0.290852	0.304226	0.000096
H70	H	0.277123	0.239134	0.000096
H71	H	0.327025	0.316017	0.084834
H72	H	0.354180	0.449870	0.000078
H73	H	0.357443	0.620472	0.000073
H74	H	0.277998	0.772178	0.000073
N75	N	-0.124841	1.314879	0.350528
H76	H	-0.163610	1.353665	0.417932
H77	H	-0.164759	1.280323	0.290815
H78	H	-0.129618	0.920445	0.000062
N79	N	-0.158615	1.240350	0.000112
H80	H	-0.209413	1.291533	0.000127
H81	H	-0.120068	1.244676	-0.084627
H82	H	-0.108701	1.298684	0.630576
N83	N	-0.440249	0.810466	0.000065
H84	H	-0.508571	0.821661	0.000077
H85	H	-0.419158	0.774921	0.084799
H86	H	-0.620958	1.209795	0.000126
H87	H	-0.490546	1.294596	0.000135
N88	N	0.002358	1.187595	0.201014
H89	H	0.015595	1.248858	0.166365
H90	H	-0.058930	1.174375	0.166447
