data_functionalizedCrystal
_audit_creation_method	'MofGen! by Chris Wilmer'
_symmetry_space_group_name_H-M	'P1'
_symmetry_Int_Tables_number	1
_symmetry_cell_setting	triclinic
loop_
_symmetry_equiv_pos_as_xyz
  x,y,z
_cell_length_a	16.959455
_cell_length_b	16.959453
_cell_length_c	17.077396
_cell_angle_alpha	89.970936
_cell_angle_beta	89.975476
_cell_angle_gamma	90.017008
loop_
_atom_site_label
_atom_site_type_symbol
_atom_site_fract_x
_atom_site_fract_y
_atom_site_fract_z
Zn1	Zn	1.208417	-0.314744	-0.443945
Zn2	Zn	1.208330	-0.446932	-0.312677
Zn3	Zn	1.076236	-0.314765	-0.312681
Zn4	Zn	1.076210	-0.446878	-0.443889
O5	O	1.142298	-0.380830	-0.378298
O6	O	1.319016	-0.332294	-0.426553
O7	O	1.190782	-0.429431	-0.202831
O8	O	1.093817	-0.204151	-0.330118
O9	O	1.318952	-0.429411	-0.330112
O10	O	1.190930	-0.204136	-0.426557
O11	O	1.093732	-0.332328	-0.202834
O12	O	0.965621	-0.332276	-0.330065
O13	O	1.093773	-0.429319	-0.553744
O14	O	0.965603	-0.429339	-0.426463
O15	O	1.190905	-0.332241	-0.553784
O16	O	1.190757	-0.557536	-0.330058
O17	O	1.093689	-0.557496	-0.426459
C18	C	0.936932	-0.380804	-0.378259
C19	C	0.849075	-0.380812	-0.378260
C20	C	0.477556	-0.431349	-0.328055
C21	C	0.477643	-0.330376	-0.428636
C22	C	0.560189	-0.330363	-0.428617
C23	C	0.601422	-0.380845	-0.378317
C24	C	0.560109	-0.431339	-0.328036
C25	C	0.601509	-0.279875	-0.478903
C26	C	0.684059	-0.279861	-0.478886
C27	C	0.725294	-0.330339	-0.428582
C28	C	0.683976	-0.380835	-0.378298
C29	C	0.725209	-0.431316	-0.327998
C30	C	0.683892	-0.481809	-0.277710
C31	C	0.601344	-0.481817	-0.277732
C32	C	0.807842	-0.330331	-0.428560
C33	C	0.807762	-0.431306	-0.327979
C34	C	1.142232	-0.586196	-0.378269
C35	C	1.142276	-0.674053	-0.378283
C36	C	1.192929	-1.045462	-0.428609
C37	C	1.091887	-1.045594	-0.328104
C38	C	1.091858	-0.963049	-0.328086
C39	C	1.142364	-0.921706	-0.378331
C40	C	1.192900	-0.962908	-0.428594
C41	C	1.041318	-0.921840	-0.277830
C42	C	1.041286	-0.839289	-0.277811
C43	C	1.091797	-0.797944	-0.328052
C44	C	1.142335	-0.839152	-0.378316
C45	C	1.192841	-0.797809	-0.428561
C46	C	1.243384	-0.839015	-0.478822
C47	C	1.243411	-0.921564	-0.478835
C48	C	1.091770	-0.715396	-0.328039
C49	C	1.192812	-0.715255	-0.428546
C50	C	1.348466	-0.380856	-0.378338
C51	C	1.436323	-0.380868	-0.378355
C52	C	1.142346	-0.380772	-0.583043
C53	C	1.142366	-0.380747	-0.670292
C54	C	1.142386	-0.174662	-0.378344
C55	C	1.142423	-0.086805	-0.378364
C56	C	1.192945	-0.330194	-0.711305
C57	C	1.192954	-0.330168	-0.793285
C58	C	1.142389	-0.380699	-0.834252
C59	C	1.091805	-0.431254	-0.793234
C60	C	1.091792	-0.431275	-0.711255
C61	C	1.091837	-0.431206	-0.964104
C62	C	1.091850	-0.431186	-1.046088
C63	C	1.192999	-0.330098	-1.046135
C64	C	1.192986	-0.330120	-0.964156
C65	C	1.142403	-0.380676	-0.923143
C66	C	1.142296	-0.380831	-0.174350
C67	C	1.142429	-0.380633	-0.087101
H68	H	0.717692	-0.238746	-0.519834
H69	H	1.050598	-0.472433	-0.677863
Cl70	Cl	1.256576	-0.266648	-0.844841
Cl71	Cl	0.735737	-0.545274	-0.214484
Cl72	Cl	1.256314	-0.663288	-0.491711
Cl73	Cl	0.549670	-0.216428	-0.542143
H74	H	1.284503	-0.805344	-0.519735
H75	H	1.000132	-0.805744	-0.236885
Cl76	Cl	0.859779	-0.266864	-0.491778
Cl77	Cl	1.256590	-0.266543	-1.097693
H78	H	1.234165	-0.288978	-0.930803
H79	H	1.050615	-0.681849	-0.287121
Cl80	Cl	0.977813	-0.973817	-0.214685
H81	H	1.284560	-0.955121	-0.519755
Cl82	Cl	1.256520	-0.266669	-0.659812
H83	H	1.050764	-1.079261	-0.287201
H84	H	0.841328	-0.472412	-0.287016
H85	H	1.234082	-1.079016	-0.469528
Cl86	Cl	0.549398	-0.545289	-0.214521
H87	H	0.444067	-0.289281	-0.469593
H88	H	0.443912	-0.472456	-0.287110
H89	H	1.050674	-0.472331	-1.079441
Cl90	Cl	1.028233	-0.494776	-0.844734
Cl91	Cl	1.028244	-0.494763	-0.912546
