data_functionalizedCrystal
_audit_creation_method	'MofGen! by Chris Wilmer'
_symmetry_space_group_name_H-M	'P1'
_symmetry_Int_Tables_number	1
_symmetry_cell_setting	triclinic
loop_
_symmetry_equiv_pos_as_xyz
  x,y,z
_cell_length_a	16.625546
_cell_length_b	14.908558
_cell_length_c	14.909227
_cell_angle_alpha	83.210269
_cell_angle_beta	86.672122
_cell_angle_gamma	86.717541
loop_
_atom_site_label
_atom_site_type_symbol
_atom_site_fract_x
_atom_site_fract_y
_atom_site_fract_z
Zn1	Zn	-0.363503	1.413358	-0.591490
Zn2	Zn	-0.505701	1.404511	-0.440113
Zn3	Zn	-0.363519	1.253251	-0.431423
Zn4	Zn	-0.490927	1.261951	-0.582717
O5	O	-0.430912	1.333268	-0.511436
O6	O	-0.388542	1.538851	-0.578718
O7	O	-0.493029	1.377103	-0.312291
O8	O	-0.250686	1.274551	-0.452690
O9	O	-0.493014	1.532352	-0.467502
O10	O	-0.250674	1.392180	-0.570291
O11	O	-0.388569	1.265973	-0.305906
O12	O	-0.374244	1.127738	-0.444184
O13	O	-0.467835	1.289379	-0.710550
O14	O	-0.467850	1.134130	-0.555339
O15	O	-0.374217	1.400617	-0.716996
O16	O	-0.616572	1.385539	-0.458995
O17	O	-0.605718	1.280801	-0.563766
C18	C	-0.419446	1.098091	-0.497867
C19	C	-0.414559	0.997482	-0.492084
C20	C	-0.358855	0.852330	-0.426155
C21	C	-0.363443	0.946861	-0.431585
C22	C	-0.461089	0.953567	-0.547158
C23	C	-0.456501	0.859036	-0.541728
C24	C	-0.405383	0.808421	-0.481223
C25	C	-0.400800	0.713888	-0.475789
C26	C	-0.498441	0.720597	-0.591366
C27	C	-0.503029	0.815127	-0.596796
C28	C	-0.640401	1.333180	-0.511393
C29	C	-0.730024	1.333227	-0.511410
C30	C	-1.058202	1.333390	-0.511513
C31	C	-0.966893	1.333342	-0.511487
C32	C	-0.894116	1.333308	-0.511461
C33	C	-0.802801	1.333261	-0.511436
C34	C	-0.220606	1.333382	-0.511500
C35	C	-0.130986	1.333430	-0.511527
C36	C	-0.442424	1.569363	-0.525058
C37	C	-0.447330	1.669973	-0.530863
C38	C	-0.419376	1.346955	-0.747535
C39	C	-0.414460	1.352788	-0.848147
C40	C	-0.358795	1.418917	-0.993311
C41	C	-0.363411	1.413442	-0.898778
C42	C	-0.460898	1.297607	-0.892056
C43	C	-0.456282	1.303083	-0.986589
C44	C	-0.405228	1.363739	-1.037213
C45	C	-0.400608	1.369209	-1.131748
C46	C	-0.498099	1.253380	-1.125025
C47	C	-0.502715	1.247904	-1.030492
C48	C	-0.442348	1.319686	-0.276258
C49	C	-0.447046	1.314029	-0.175657
H50	H	-0.359177	0.672679	-0.426523
H51	H	-0.317216	1.468297	-1.034530
O52	O	-0.558160	0.869715	-0.662058
H53	H	-0.540067	0.855706	-0.732083
H54	H	-0.325601	1.458374	-0.863036
H55	H	-0.502470	1.248230	-0.850822
O56	O	-0.303727	0.797728	-0.360900
H57	H	-0.272140	0.844144	-0.323520
O58	O	-0.313273	0.994224	-0.372177
H59	H	-0.276967	0.943142	-0.329187
H60	H	-0.544284	1.198522	-0.989261
H61	H	-0.535899	1.208440	-1.160779
H62	H	-0.536328	0.684836	-0.636207
O63	O	-0.516181	1.008167	-0.612454
H64	H	-0.511540	1.081276	-0.606987
O65	O	-0.345550	1.434632	-1.186357
H66	H	-0.314045	1.472088	-1.139943
