data_functionalizedCrystal
_audit_creation_method	'MofGen! by Chris Wilmer'
_symmetry_space_group_name_H-M	'P1'
_symmetry_Int_Tables_number	1
_symmetry_cell_setting	triclinic
loop_
_symmetry_equiv_pos_as_xyz
  x,y,z
_cell_length_a	15.625950
_cell_length_b	19.288865
_cell_length_c	17.766277
_cell_angle_alpha	89.988397
_cell_angle_beta	108.064049
_cell_angle_gamma	83.719661
loop_
_atom_site_label
_atom_site_type_symbol
_atom_site_fract_x
_atom_site_fract_y
_atom_site_fract_z
O1	O	1.195671	0.090738	0.263649
O2	O	1.695671	0.590738	0.763649
O3	O	0.933191	0.101529	0.192025
O4	O	1.433191	0.601529	0.692025
O5	O	1.072015	-0.004971	0.229922
O6	O	1.572015	0.495029	0.729922
O7	O	1.056847	0.197238	0.225753
O8	O	1.556847	0.697238	0.725753
O9	O	1.071991	-0.004977	0.355103
O10	O	1.571991	0.495023	0.855103
O11	O	0.933166	0.101523	0.317207
O12	O	1.433166	0.601523	0.817207
O13	O	1.195647	0.090732	0.388831
O14	O	1.695647	0.590732	0.888831
Cu15	Cu	1.064405	0.096127	0.364449
Cu16	Cu	1.564405	0.596127	0.864449
Cu17	Cu	1.064433	0.096134	0.216407
Cu18	Cu	1.564433	0.596134	0.716407
O19	O	1.056822	0.197232	0.350934
O20	O	1.556822	0.697232	0.850934
C21	C	1.071515	-0.030852	0.292382
C22	C	1.571515	0.469148	0.792382
C23	C	1.070050	-0.107961	0.291988
C24	C	1.570050	0.392039	0.791988
C25	C	0.899598	0.101035	0.245453
C26	C	1.399598	0.601035	0.745453
C27	C	0.799538	0.099564	0.218151
C28	C	1.299538	0.599564	0.718151
C29	C	1.151506	-0.152378	0.314219
C30	C	1.651506	0.347622	0.814219
C31	C	1.150130	-0.224830	0.313831
C32	C	1.650130	0.275170	0.813831
C33	C	1.067292	-0.252861	0.291227
C34	C	1.567292	0.247139	0.791227
C35	C	0.985826	-0.208433	0.268989
C36	C	1.485826	0.291567	0.768989
C37	C	0.987205	-0.135983	0.269370
C38	C	1.487205	0.364017	0.769370
C39	C	1.002164	-0.361373	0.317306
C40	C	1.502164	0.138627	0.817306
C41	C	1.000789	-0.433822	0.316931
C42	C	1.500789	0.066178	0.816931
C43	C	1.063036	-0.476321	0.290049
C44	C	1.563036	0.023679	0.790049
C45	C	1.126675	-0.446364	0.263555
C46	C	1.626675	0.053636	0.763555
C47	C	1.128053	-0.373913	0.263936
C48	C	1.628053	0.126087	0.763936
C49	C	1.065788	-0.331420	0.290812
C50	C	1.565788	0.168580	0.790812
C51	C	1.143006	-0.599300	0.311860
C52	C	1.643006	-0.099300	0.811860
C53	C	1.141626	-0.671753	0.311467
C54	C	1.641626	-0.171753	0.811467
C55	C	0.977319	-0.655354	0.266632
C56	C	1.477319	-0.155354	0.766632
C57	C	0.978702	-0.582903	0.267018
C58	C	1.478702	-0.082903	0.767018
C59	C	1.061547	-0.554881	0.289636
C60	C	1.561547	-0.054881	0.789636
C61	C	0.470293	0.094748	0.469446
C62	C	0.970293	0.594748	0.969446
C63	C	0.376270	0.093380	0.443756
C64	C	0.876270	0.593380	0.943756
C65	C	0.376343	0.093386	0.307300
C66	C	0.876343	0.593386	0.807300
C67	C	0.470368	0.094759	0.332979
C68	C	0.970368	0.594759	0.832979
C69	C	0.517336	0.095439	0.414053
C70	C	1.017336	0.595439	0.914053
C71	C	0.517411	0.095449	0.277586
C72	C	1.017411	0.595449	0.777586
C73	C	0.611428	0.096817	0.303263
C74	C	1.111428	0.596817	0.803263
C75	C	0.658403	0.097495	0.384334
C76	C	1.158403	0.597495	0.884334
C77	C	0.611354	0.096807	0.439730
C78	C	1.111354	0.596807	0.939730
C79	C	0.470442	0.094764	0.196512
C80	C	0.970442	0.594764	0.696512
C81	C	0.517484	0.095454	0.141119
C82	C	1.017484	0.595454	0.641119
C83	C	0.611503	0.096827	0.166796
C84	C	1.111503	0.596827	0.666796
C85	C	0.658478	0.097505	0.247867
C86	C	1.158478	0.597505	0.747867
C87	C	0.658552	0.097515	0.111399
C88	C	1.158552	0.597515	0.611399
C89	C	0.752570	0.098884	0.137077
C90	C	1.252570	0.598884	0.637077
C91	C	0.752495	0.098874	0.273544
C92	C	1.252495	0.598874	0.773544
C93	C	1.229240	0.091226	0.335401
C94	C	1.729240	0.591226	0.835401
C95	C	1.329300	0.092697	0.362699
C96	C	1.829300	0.592697	0.862699
C97	C	1.057323	0.223113	0.288473
C98	C	1.557323	0.723113	0.788473
C99	C	1.058788	0.300222	0.288861
C100	C	1.558788	0.800222	0.788861
N101	N	1.064391	0.096122	0.468576
N102	N	1.564391	0.596122	0.968576
N103	N	1.064454	0.096133	0.112282
N104	N	1.564454	0.596133	0.612282
C105	C	1.125882	0.048987	0.524748
C106	C	1.625882	0.548987	1.024748
C107	C	1.125887	0.048984	0.603552
C108	C	1.625887	0.548984	1.103552
C109	C	1.064410	0.096128	0.626181
C110	C	1.564410	0.596128	1.126181
C111	C	1.002907	0.143266	0.569996
C112	C	1.502907	0.643266	1.069996
C113	C	1.002898	0.143264	0.491193
C114	C	1.502898	0.643264	0.991193
C115	C	1.052343	0.159374	0.747717
C116	C	1.552343	0.659374	1.247717
C117	C	1.052358	0.159378	0.826520
C118	C	1.552358	0.659378	1.326520
C119	C	1.064434	0.096136	0.869234
C120	C	1.564434	0.596136	1.369234
C121	C	1.076513	0.032888	0.833141
C122	C	1.576513	0.532888	1.333141
C123	C	1.076503	0.032885	0.754338
C124	C	1.576503	0.532885	1.254338
C125	C	1.064413	0.096136	0.711628
C126	C	1.564413	0.596136	1.211628
C127	C	1.125934	0.048994	1.010855
C128	C	1.625934	0.548994	1.510855
C129	C	1.125933	0.048990	1.089658
C130	C	1.625933	0.548990	1.589658
C131	C	1.002957	0.143278	1.056102
C132	C	1.502957	0.643278	1.556102
C133	C	1.002954	0.143276	0.977300
C134	C	1.502954	0.643276	1.477300
C135	C	1.064447	0.096135	0.954682
C136	C	1.564447	0.596135	1.454682
H137	H	1.218965	-0.129567	0.332634
H138	H	1.718965	0.370433	0.832634
H139	H	0.952885	0.181661	0.931561
H140	H	1.452885	0.681661	1.431561
Cl141	Cl	1.037180	0.238889	0.871889
Cl142	Cl	1.537180	0.738889	1.371889
H143	H	1.175963	0.010600	0.649296
H144	H	1.675963	0.510600	1.149296
H145	H	0.620298	0.096954	0.045389
H146	H	1.120298	0.596954	0.545389
H147	H	1.210463	-0.576483	0.330274
H148	H	1.710463	-0.076483	0.830274
Cl149	Cl	1.252539	-0.280680	0.341780
Cl150	Cl	1.752539	0.219320	0.841780
Cl151	Cl	1.037245	0.238888	0.694051
Cl152	Cl	1.537245	0.738888	1.194051
Cl153	Cl	1.208046	-0.336254	0.230625
Cl154	Cl	1.708046	0.163746	0.730625
H155	H	1.207960	-0.707918	0.329566
H156	H	1.707960	-0.207918	0.829566
H157	H	0.920871	-0.099818	0.251267
H158	H	1.420871	0.400182	0.751267
H159	H	0.790872	0.099449	0.091970
H160	H	1.290872	0.599449	0.591970
H161	H	0.790738	0.099438	0.339562
H162	H	1.290738	0.599438	0.839562
H163	H	1.177362	-0.480965	0.241665
H164	H	1.677362	0.019035	0.741665
Cl165	Cl	0.458434	0.094576	0.039202
Cl166	Cl	0.958434	0.594576	0.539202
Cl167	Cl	0.923904	-0.307953	0.351108
Cl168	Cl	1.423904	0.192047	0.851108
H169	H	0.952850	0.181650	0.588425
H170	H	1.452850	0.681650	1.088425
H171	H	0.909872	-0.678176	0.248223
H172	H	1.409872	-0.178176	0.748223
Cl173	Cl	0.317135	0.092500	0.513403
Cl174	Cl	0.817135	0.592500	1.013403
H175	H	0.734959	0.098609	0.405239
H176	H	1.234959	0.598609	0.905239
Cl177	Cl	0.876294	-0.527061	0.239072
Cl178	Cl	1.376294	-0.027061	0.739072
Cl179	Cl	1.091677	-0.046622	0.708962
Cl180	Cl	1.591677	0.453378	1.208962
Cl181	Cl	1.203182	-0.010278	0.496314
Cl182	Cl	1.703182	0.489722	0.996314
H183	H	0.508536	0.095313	0.535464
H184	H	1.008536	0.595313	1.035464
H185	H	0.948967	-0.458207	0.338499
H186	H	1.448967	0.041793	0.838499
Cl187	Cl	1.091702	-0.046621	0.886831
Cl188	Cl	1.591702	0.453379	1.386831
Cl189	Cl	0.352250	0.093022	0.164234
Cl190	Cl	0.852250	0.593022	0.664234
Cl191	Cl	0.881687	-0.243671	0.240566
Cl192	Cl	1.381687	0.256329	0.740566
Cl193	Cl	1.203235	-0.010273	0.982419
Cl194	Cl	1.703235	0.489727	1.482419
H195	H	1.176004	0.010603	1.135396
H196	H	1.676004	0.510603	1.635396
Cl197	Cl	0.925664	0.202539	1.084544
Cl198	Cl	1.425664	0.702539	1.584544
H199	H	0.649596	0.097371	0.505748
H200	H	1.149596	0.597371	1.005748
H201	H	0.952823	0.181647	0.445454
H202	H	1.452823	0.681647	0.945454
H203	H	0.338089	0.092829	0.241289
H204	H	0.838089	0.592829	0.741289
