data_functionalizedCrystal
_audit_creation_method	'MofGen! by Chris Wilmer'
_symmetry_space_group_name_H-M	'P1'
_symmetry_Int_Tables_number	1
_symmetry_cell_setting	triclinic
loop_
_symmetry_equiv_pos_as_xyz
  x,y,z
_cell_length_a	27.732048
_cell_length_b	27.732064
_cell_length_c	22.010155
_cell_angle_alpha	90.006218
_cell_angle_beta	90.024055
_cell_angle_gamma	97.353960
loop_
_atom_site_label
_atom_site_type_symbol
_atom_site_fract_x
_atom_site_fract_y
_atom_site_fract_z
O1	O	0.057566	-0.640918	0.050423
O2	O	0.066303	-0.500126	0.050449
O3	O	-0.008462	-0.574895	0.050424
O4	O	0.132331	-0.566150	0.050449
O5	O	-0.008486	-0.574896	-0.050627
O6	O	0.066279	-0.500127	-0.050601
O7	O	0.057542	-0.640919	-0.050627
Cu8	Cu	0.061909	-0.570523	-0.059841
Cu9	Cu	0.061936	-0.570522	0.059663
O10	O	0.132307	-0.566150	-0.050602
C11	C	-0.026481	-0.574712	-0.000103
C12	C	-0.080136	-0.574159	-0.000108
C13	C	0.066106	-0.482120	-0.000073
C14	C	0.065550	-0.428465	-0.000064
C15	C	0.057739	-0.658925	-0.000104
C16	C	0.058295	-0.712580	-0.000109
C17	C	-0.418948	-0.614862	-0.000084
C18	C	-0.620608	-0.612811	-0.000075
O19	O	-0.651862	-0.650032	-0.000056
N20	N	-0.639735	-0.568476	-0.000068
C21	C	-0.608442	-0.524651	-0.000058
O22	O	-0.629338	-0.486895	-0.000045
C23	C	-0.406784	-0.526703	-0.000063
C24	C	-0.387660	-0.571040	-0.000077
C25	C	-0.399824	-0.659196	-0.000097
C26	C	-0.349413	-0.659709	-0.000103
C27	C	-0.318124	-0.615887	-0.000095
C28	C	-0.337248	-0.571553	-0.000082
C29	C	-0.375493	-0.482878	-0.000049
C30	C	-0.325075	-0.483395	-0.000049
C31	C	-0.305952	-0.527733	-0.000063
C32	C	-0.255548	-0.528243	-0.000080
N33	N	-0.236422	-0.572578	-0.000088
C34	C	-0.267710	-0.616400	-0.000095
C35	C	-0.714317	-0.523577	-0.000057
C36	C	-0.764731	-0.523064	-0.000057
C37	C	-0.776893	-0.611225	-0.000073
C38	C	-0.726478	-0.611737	-0.000077
C39	C	-0.695190	-0.567912	-0.000065
C40	C	-0.161841	-0.617472	-0.000107
C41	C	-0.111424	-0.617981	-0.000115
C42	C	-0.099266	-0.529821	-0.000096
C43	C	-0.149679	-0.529312	-0.000092
C44	C	-0.180965	-0.573142	-0.000095
O45	O	-0.224267	-0.491043	-0.000093
O46	O	-0.246805	-0.654151	-0.000095
C47	C	-0.469360	-0.614350	-0.000079
C48	C	-0.488484	-0.570016	-0.000066
C49	C	-0.457196	-0.526194	-0.000058
C50	C	-0.538899	-0.569503	-0.000066
C51	C	-0.570187	-0.613325	-0.000073
C52	C	-0.551060	-0.657660	-0.000081
C53	C	-0.500648	-0.658172	-0.000086
C54	C	-0.476323	-0.481859	-0.000050
C55	C	-0.526735	-0.481351	-0.000046
C56	C	-0.558023	-0.525172	-0.000053
C57	C	0.150326	-0.566333	-0.000074
C58	C	0.203981	-0.566886	-0.000065
C59	C	0.017583	-0.051392	-0.000107
C60	C	0.019630	-0.253053	-0.000090
O61	O	-0.017591	-0.284305	-0.000120
N62	N	0.063964	-0.272180	-0.000080
C63	C	0.107790	-0.240889	-0.000077
O64	O	0.145546	-0.261785	-0.000074
C65	C	0.105743	-0.039230	-0.000098
C66	C	0.061406	-0.020105	-0.000102
C67	C	-0.026750	-0.032267	-0.000112
C68	C	-0.027261	0.018145	-0.000112
C69	C	0.016561	0.049432	-0.000108
C70	C	0.060895	0.030307	-0.000103
C71	C	0.149568	-0.007940	-0.000100
C72	C	0.149053	0.042478	-0.000106
C73	C	0.104716	0.061602	-0.000111
C74	C	0.104206	0.112006	-0.000099
N75	N	0.059872	0.131133	-0.000110
C76	C	0.016049	0.099846	-0.000114
C77	C	0.108861	-0.346763	-0.000065
C78	C	0.109373	-0.397178	-0.000059
C79	C	0.021213	-0.409338	-0.000073
C80	C	0.020701	-0.358923	-0.000075
C81	C	0.064527	-0.327636	-0.000076
C82	C	0.014979	0.205716	-0.000115
C83	C	0.014472	0.256133	-0.000113
C84	C	0.102632	0.268289	-0.000103
C85	C	0.103140	0.217876	-0.000101
C86	C	0.059309	0.186590	-0.000110
O87	O	0.141407	0.143287	-0.000077
O88	O	-0.021701	0.120752	-0.000131
C89	C	0.018094	-0.101805	-0.000106
C90	C	0.062428	-0.120930	-0.000101
C91	C	0.106250	-0.089642	-0.000097
C92	C	0.062940	-0.171344	-0.000095
C93	C	0.019117	-0.202631	-0.000099
C94	C	-0.025217	-0.183504	-0.000109
C95	C	-0.025728	-0.133092	-0.000110
C96	C	0.150585	-0.108770	-0.000086
C97	C	0.151092	-0.159183	-0.000085
C98	C	0.107270	-0.190470	-0.000089
N99	N	0.061889	-0.570527	-0.143893
N100	N	0.061952	-0.570522	0.143715
C101	C	0.032726	-0.541496	0.563495
C102	C	0.032720	-0.541497	0.627102
O103	O	0.007889	-0.516820	0.659994
N104	N	0.061899	-0.570529	0.658922
C105	C	0.091083	-0.599564	0.627132
O106	O	0.115901	-0.624258	0.660038
C107	C	0.091086	-0.599565	0.563525
C108	C	0.061908	-0.570528	0.531708
C109	C	0.003550	-0.512461	0.531678
C110	C	0.003557	-0.512459	0.468075
C111	C	0.032739	-0.541492	0.436288
C112	C	0.061915	-0.570526	0.468105
C113	C	0.120267	-0.628603	0.531735
C114	C	0.120267	-0.628602	0.468125
C115	C	0.091089	-0.599565	0.436308
C116	C	0.091104	-0.599557	0.372716
N117	N	0.061925	-0.570525	0.340896
C118	C	0.032742	-0.541493	0.372682
C119	C	0.091074	-0.599561	0.760709
C120	C	0.091074	-0.599558	0.824315
C121	C	0.032710	-0.541491	0.824281
C122	C	0.032713	-0.541492	0.760675
C123	C	0.061894	-0.570529	0.728889
C124	C	0.032759	-0.541490	0.239111
C125	C	0.032770	-0.541490	0.175502
C126	C	0.091131	-0.599558	0.175541
C127	C	0.091123	-0.599557	0.239144
C128	C	0.061933	-0.570522	0.270927
O129	O	0.115921	-0.624222	0.339784
O130	O	0.007923	-0.516808	0.339768
H131	H	-0.095857	-0.654087	-0.000128
O132	O	0.004414	-0.513215	0.855134
C133	C	-0.014090	-0.432065	0.874569
C134	C	0.017993	-0.464028	0.839602
H135	H	-0.003130	-0.392292	0.862015
H136	H	-0.009077	-0.437010	0.925503
H137	H	-0.053843	-0.443239	0.862043
H138	H	0.057757	-0.452875	0.852077
H139	H	0.012938	-0.459079	0.788677
O140	O	-0.581410	-0.700260	-0.000005
C141	C	-0.607243	-0.775434	0.052359
C142	C	-0.572835	-0.727216	0.052337
H143	H	-0.600330	-0.797236	0.094679
H144	H	-0.600347	-0.797310	0.010095
H145	H	-0.646555	-0.767434	0.052335
H146	H	-0.533511	-0.735171	0.052382
H147	H	-0.579774	-0.705354	0.094597
O148	O	-0.024719	-0.484201	0.437144
C149	C	-0.027205	-0.419012	0.365292
C150	C	0.004879	-0.450971	0.400288
H151	H	-0.003290	-0.392145	0.335476
H152	H	-0.048037	-0.398215	0.398916
H153	H	-0.054049	-0.443045	0.335541
H154	H	0.031750	-0.426974	0.430040
H155	H	0.025677	-0.471773	0.366631
O156	O	-0.021370	-0.439715	0.000027
C157	C	-0.096567	-0.465519	0.052335
C158	C	-0.048359	-0.431096	0.052310
H159	H	-0.118406	-0.458555	0.094595
H160	H	-0.088610	-0.504845	0.052379
H161	H	-0.118392	-0.458618	0.010018
H162	H	-0.026511	-0.437953	0.094620
H163	H	-0.056351	-0.391781	0.052235
O164	O	-0.024812	-0.484211	0.562455
C165	C	-0.082714	-0.426632	0.555687
C166	C	-0.050611	-0.458601	0.520763
H167	H	-0.103589	-0.405926	0.521994
H168	H	-0.058826	-0.399684	0.585464
H169	H	-0.109521	-0.450650	0.585466
H170	H	-0.023799	-0.434621	0.490952
H171	H	-0.074530	-0.485552	0.491025
H172	H	0.139243	0.202304	-0.000097
O173	O	-0.192159	-0.660092	-0.000140
C174	C	-0.198888	-0.747588	-0.000128
C175	C	-0.164498	-0.699358	-0.000100
H176	H	-0.176538	-0.779347	-0.000083
H177	H	-0.222802	-0.749588	-0.042426
H178	H	-0.222789	-0.749531	0.042153
H179	H	-0.140566	-0.697383	-0.042352
H180	H	-0.140617	-0.697378	0.042226
O181	O	-0.330920	-0.702821	-0.000084
C182	C	-0.348323	-0.790209	-0.000133
C183	C	-0.369325	-0.741416	-0.000142
H184	H	-0.379363	-0.821425	-0.000192
H185	H	-0.325029	-0.792689	0.042166
H186	H	-0.325023	-0.792632	-0.042413
H187	H	-0.392647	-0.738959	0.042110
H188	H	-0.392592	-0.738957	-0.042468
O189	O	-0.070373	0.036638	-0.000152
C190	C	-0.157761	0.019237	-0.000139
C191	C	-0.108969	-0.001766	-0.000105
H192	H	-0.188978	-0.011802	-0.000088
H193	H	-0.160249	0.042508	-0.042443
H194	H	-0.160175	0.042560	0.042136
H195	H	-0.106522	-0.025111	-0.042351
H196	H	-0.106501	-0.025010	0.042227
H197	H	-0.062438	-0.057737	-0.000117
H198	H	0.008954	-0.517847	0.734774
O199	O	0.004476	-0.513254	0.270045
C200	C	0.002004	-0.448001	0.341823
C201	C	0.034085	-0.479955	0.306840
H202	H	0.025931	-0.421064	0.371570
H203	H	-0.024816	-0.471986	0.371623
H204	H	-0.018855	-0.427274	0.308136
H205	H	0.054976	-0.500687	0.340483
H206	H	0.060875	-0.455944	0.277031
H207	H	0.138311	0.293772	-0.000096
O208	O	0.119523	-0.627688	0.270084
C209	C	0.184761	-0.629877	0.341976
C210	C	0.152645	-0.597956	0.306970
H211	H	0.211542	-0.605854	0.371817
H212	H	0.205658	-0.650616	0.308358
H213	H	0.160832	-0.656803	0.371702
H214	H	0.176539	-0.571004	0.277243
H215	H	0.131745	-0.577252	0.340621
H216	H	0.114839	-0.623197	0.850215
H217	H	0.009010	-0.517842	0.149599
O218	O	0.148587	-0.656878	0.437316
C219	C	0.167047	-0.738037	0.417833
C220	C	0.134948	-0.706072	0.452770
H221	H	0.156024	-0.777818	0.430304
H222	H	0.206806	-0.726931	0.430381
H223	H	0.162051	-0.733026	0.366909
H224	H	0.139901	-0.711068	0.503702
H225	H	0.095200	-0.717186	0.440171
O226	O	-0.683877	-0.481035	-0.000130
C227	C	-0.619943	-0.430429	-0.052492
C228	C	-0.654377	-0.478631	-0.052476
H229	H	-0.596089	-0.428466	-0.094816
H230	H	-0.595988	-0.428453	-0.010231
H231	H	-0.642287	-0.398666	-0.052459
H232	H	-0.632071	-0.510422	-0.052531
H233	H	-0.678333	-0.480564	-0.094733
O234	O	0.192681	-0.026428	-0.000127
C235	C	0.280068	-0.009025	-0.000096
C236	C	0.231275	0.011977	-0.000077
H237	H	0.311284	0.022016	-0.000042
H238	H	0.282534	-0.032310	-0.042396
H239	H	0.282507	-0.032333	0.042183
H240	H	0.228803	0.035307	-0.042328
H241	H	0.228830	0.035235	0.042251
O242	O	-0.028630	0.274652	-0.000038
C243	C	-0.104112	0.279706	0.052319
C244	C	-0.055323	0.258695	0.052304
H245	H	-0.125703	0.266821	0.094640
H246	H	-0.125791	0.266774	0.010055
H247	H	-0.096942	0.321113	0.052291
H248	H	-0.062449	0.217288	0.052354
H249	H	-0.033659	0.271665	0.094564
O250	O	-0.067831	-0.213832	-0.000087
C251	C	-0.155328	-0.220590	-0.000140
C252	C	-0.107108	-0.186185	-0.000148
H253	H	-0.187096	-0.198251	-0.000203
H254	H	-0.157313	-0.244482	0.042159
H255	H	-0.157272	-0.244512	-0.042420
H256	H	-0.105133	-0.162233	0.042102
H257	H	-0.105143	-0.162326	-0.042476
H258	H	-0.061832	-0.117526	-0.000114
H259	H	0.114841	-0.623205	0.734834
H260	H	-0.542300	-0.445243	-0.000040
O261	O	-0.446002	-0.439244	-0.000074
C262	C	-0.439271	-0.351748	-0.000030
C263	C	-0.473662	-0.399977	-0.000013
H264	H	-0.461621	-0.319988	0.000032
H265	H	-0.415392	-0.349750	-0.042333
H266	H	-0.415336	-0.349804	0.042246
H267	H	-0.497628	-0.401954	-0.042260
H268	H	-0.497509	-0.401955	0.042318
O269	O	0.119448	-0.627829	0.144723
C270	C	0.137897	-0.708989	0.125221
C271	C	0.105807	-0.677024	0.160172
H272	H	0.126873	-0.748770	0.137689
H273	H	0.177659	-0.697887	0.137760
H274	H	0.132893	-0.703973	0.074299
H275	H	0.110768	-0.682024	0.211102
H276	H	0.066057	-0.688134	0.147583
O277	O	-0.294752	-0.440778	-0.000064
C278	C	-0.288014	-0.353281	-0.000000
C279	C	-0.322408	-0.401508	0.000003
H280	H	-0.310360	-0.321519	0.000066
H281	H	-0.264131	-0.351279	-0.042301
H282	H	-0.264082	-0.351345	0.042278
H283	H	-0.346371	-0.403477	-0.042247
H284	H	-0.346258	-0.403490	0.042331
O285	O	0.148678	-0.656785	0.562563
C286	C	0.229961	-0.674887	0.582077
C287	C	0.197839	-0.642941	0.547120
H288	H	0.269715	-0.663699	0.569614
H289	H	0.219018	-0.714671	0.569536
H290	H	0.224927	-0.669919	0.632998
H291	H	0.202856	-0.647867	0.496191
H292	H	0.208789	-0.603169	0.559711
H293	H	-0.425295	-0.694884	-0.000101
H294	H	-0.020712	0.180248	-0.000122
H295	H	-0.710911	-0.647841	-0.000088
O296	O	-0.168317	-0.486275	-0.000003
C297	C	-0.218129	-0.434520	0.052390
C298	C	-0.197066	-0.483282	0.052351
H299	H	-0.241369	-0.432080	0.094720
H300	H	-0.241479	-0.432069	0.010135
H301	H	-0.187097	-0.403295	0.052362
H302	H	-0.228067	-0.514535	0.052400
H303	H	-0.173703	-0.485691	0.094602
O304	O	-0.807223	-0.653838	-0.000103
C305	C	-0.813981	-0.741336	-0.000066
C306	C	-0.779576	-0.693115	-0.000052
H307	H	-0.791643	-0.773104	-0.000012
H308	H	-0.837896	-0.743335	-0.042364
H309	H	-0.837881	-0.743263	0.042215
H310	H	-0.755646	-0.691156	-0.042305
H311	H	-0.755695	-0.691136	0.042273
H312	H	0.184742	0.067950	-0.000110
H313	H	-0.015402	-0.343355	-0.000079
H314	H	0.187200	-0.174748	-0.000077
H315	H	-0.780296	-0.486960	-0.000057
H316	H	0.145477	-0.412744	-0.000047
O317	O	0.151481	-0.316443	-0.000035
C318	C	0.238977	-0.309716	-0.000052
C319	C	0.190746	-0.344105	-0.000076
H320	H	0.270735	-0.332067	-0.000098
H321	H	0.240988	-0.285810	0.042245
H322	H	0.240910	-0.285807	-0.042334
H323	H	0.188781	-0.368045	0.042177
H324	H	0.188755	-0.367978	-0.042401
H325	H	-0.391054	-0.446774	-0.000034
H326	H	-0.073782	-0.494142	-0.000092
H327	H	-0.485083	-0.694276	-0.000097
H328	H	0.186271	-0.083300	-0.000083
