data_functionalizedCrystal
_audit_creation_method	'MofGen! by Chris Wilmer'
_symmetry_space_group_name_H-M	'P1'
_symmetry_Int_Tables_number	1
_symmetry_cell_setting	triclinic
loop_
_symmetry_equiv_pos_as_xyz
  x,y,z
_cell_length_a	13.339070
_cell_length_b	14.971487
_cell_length_c	14.048226
_cell_angle_alpha	89.999714
_cell_angle_beta	90.003085
_cell_angle_gamma	80.378152
loop_
_atom_site_label
_atom_site_type_symbol
_atom_site_fract_x
_atom_site_fract_y
_atom_site_fract_z
O1	O	0.131876	-1.219550	0.079017
O2	O	0.631876	-0.719550	0.579017
O3	O	0.147668	-0.963054	0.079048
O4	O	0.647668	-0.463054	0.579048
O5	O	-0.007527	-1.061865	0.079033
O6	O	0.492473	-0.561865	0.579033
O7	O	0.287071	-1.120740	0.079032
O8	O	0.787071	-0.620740	0.579032
O9	O	-0.007536	-1.061846	-0.079288
O10	O	0.492464	-0.561846	0.420712
O11	O	0.147658	-0.963036	-0.079273
O12	O	0.647658	-0.463036	0.420727
O13	O	0.131867	-1.219532	-0.079304
O14	O	0.631867	-0.719532	0.420696
Zn15	Zn	0.139761	-1.091281	-0.104425
Zn16	Zn	0.639761	-0.591281	0.395575
Zn17	Zn	0.139773	-1.091305	0.104170
Zn18	Zn	0.639773	-0.591305	0.604170
O19	O	0.287062	-1.120721	-0.079289
O20	O	0.787062	-0.620721	0.420711
C21	C	0.146957	-0.929546	-0.000108
C22	C	0.646957	-0.429546	0.499892
C23	C	0.144840	-0.829725	-0.000096
C24	C	0.644840	-0.329725	0.499904
C25	C	0.236013	-0.795041	-0.000097
C26	C	0.736013	-0.295041	0.499903
C27	C	0.234018	-0.701248	-0.000109
C28	C	0.734018	-0.201248	0.499891
C29	C	0.140849	-0.642142	-0.000114
C30	C	0.640849	-0.142142	0.499886
C31	C	0.049669	-0.676832	-0.000116
C32	C	0.549669	-0.176832	0.499884
C33	C	0.051665	-0.770623	-0.000111
C34	C	0.551665	-0.270623	0.499889
C35	C	0.045516	-0.481343	-0.000125
C36	C	0.545516	0.018657	0.499875
C37	C	0.043519	-0.387545	-0.000128
C38	C	0.543519	0.112455	0.499872
C39	C	0.227868	-0.411968	-0.000123
C40	C	0.727868	0.088032	0.499877
C41	C	0.229864	-0.505759	-0.000118
C42	C	0.729864	-0.005759	0.499882
C43	C	0.138684	-0.540443	-0.000118
C44	C	0.638684	-0.040443	0.499882
C45	C	-0.045233	-1.051911	-0.000125
C46	C	0.454767	-0.551911	0.499875
C47	C	-0.157571	-1.022266	-0.000117
C48	C	0.342429	-0.522266	0.499883
C49	C	-0.522084	-1.252763	-0.000146
C50	C	-0.022084	-0.752763	0.499854
C51	C	-0.416538	-1.280618	-0.000158
C52	C	0.083462	-0.780618	0.499842
C53	C	-0.351791	-1.216032	-0.000147
C54	C	0.148209	-0.716032	0.499853
C55	C	-0.392601	-1.123587	-0.000125
C56	C	0.107399	-0.623587	0.499875
C57	C	-0.498158	-1.095730	-0.000120
C58	C	0.001842	-0.595730	0.499880
C59	C	-0.327864	-1.058999	-0.000122
C60	C	0.172136	-0.558999	0.499878
C61	C	-0.368674	-0.966554	-0.000100
C62	C	0.131326	-0.466554	0.499900
C63	C	-0.474221	-0.938701	-0.000094
C64	C	0.025779	-0.438701	0.499906
C65	C	-0.538968	-1.003286	-0.000105
C66	C	-0.038968	-0.503286	0.499895
C67	C	-0.222308	-1.086857	-0.000127
C68	C	0.277692	-0.586857	0.499873
C69	C	-0.198381	-0.929823	-0.000102
C70	C	0.301619	-0.429823	0.499898
C71	C	-0.303927	-0.901968	-0.000089
C72	C	0.196073	-0.401968	0.499911
C73	C	0.324768	-1.130676	-0.000129
C74	C	0.824768	-0.630676	0.499871
C75	C	0.437106	-1.160320	-0.000130
C76	C	0.937106	-0.660320	0.499870
C77	C	0.132577	-0.253040	-0.000140
C78	C	0.632577	0.246960	0.499860
C79	C	0.134692	-0.352860	-0.000129
C80	C	0.634692	0.147140	0.499871
N81	N	0.139752	-1.091270	-0.246786
N82	N	0.639752	-0.591270	0.253214
C83	C	0.071061	-1.135050	-0.296611
C84	C	0.571061	-0.635050	0.203389
C85	C	0.071060	-1.135056	-0.396268
C86	C	0.571060	-0.635056	0.103732
C87	C	0.139757	-1.091287	-0.446100
C88	C	0.639757	-0.591287	0.053900
C89	C	0.208452	-1.047502	-0.396268
C90	C	0.708452	-0.547502	0.103732
C91	C	0.208447	-1.047491	-0.296612
C92	C	0.708447	-0.547491	0.203388
C93	C	0.208459	-1.047530	-0.603982
C94	C	0.708459	-0.547530	-0.103982
C95	C	0.208466	-1.047542	-0.703645
C96	C	0.708466	-0.547542	-0.203645
C97	C	0.071072	-1.135094	-0.703638
C98	C	0.571072	-0.635094	-0.203638
C99	C	0.071067	-1.135083	-0.603983
C100	C	0.571067	-0.635083	-0.103983
C101	C	0.139764	-1.091299	-0.554158
C102	C	0.639764	-0.591299	-0.054158
N103	N	0.139774	-1.091321	0.246530
N104	N	0.639774	-0.591321	0.746530
H105	H	0.305730	-0.553882	-0.000105
H106	H	0.805730	-0.053882	0.499895
H107	H	-0.507444	-0.863426	-0.000084
H108	H	-0.007444	-0.363426	0.499916
C109	C	-0.052818	-0.611811	-0.000123
C110	C	0.447182	-0.111811	0.499877
N111	N	-0.130013	-0.562838	-0.000124
N112	N	0.369987	-0.062838	0.499876
C113	C	-0.004499	-1.183253	-0.758447
C114	C	0.495501	-0.683253	-0.258447
N115	N	-0.061415	-1.219526	-0.799734
N116	N	0.438585	-0.719526	-0.299734
H117	H	-0.189091	-1.162126	-0.000145
H118	H	0.310909	-0.662126	0.499855
H119	H	-0.265851	-1.238717	-0.000158
H120	H	0.234149	-0.738717	0.499842
H121	H	-0.337170	-0.826698	-0.000072
H122	H	0.162830	-0.326698	0.499928
H123	H	-0.028733	-0.509578	-0.000126
H124	H	0.471267	-0.009578	0.499874
H125	H	-0.383318	-1.355886	-0.000177
H126	H	0.116682	-0.855886	0.499823
C127	C	0.284010	-0.999345	-0.451086
C128	C	0.784010	-0.499345	0.048914
N129	N	0.340922	-0.963072	-0.492374
N130	N	0.840922	-0.463072	0.007626
C131	C	0.338507	-0.860051	-0.000093
C132	C	0.838507	-0.360051	0.499907
N133	N	0.415710	-0.909014	-0.000095
N134	N	0.915710	-0.409014	0.499905
H135	H	-0.574810	-1.305338	-0.000162
H136	H	-0.074810	-0.805338	0.499838
H137	H	-0.624914	-0.980611	-0.000091
H138	H	-0.124914	-0.480611	0.499909
H139	H	-0.145664	-0.877232	-0.000098
H140	H	0.354336	-0.377232	0.499902
C141	C	-0.004513	-1.183199	-0.241806
C142	C	0.495487	-0.683199	0.258194
N143	N	-0.061441	-1.219463	-0.200529
N144	N	0.438559	-0.719463	0.299471
C145	C	-0.004531	-1.183189	-0.451071
C146	C	0.495469	-0.683189	0.048929
N147	N	-0.061479	-1.219435	-0.492348
N148	N	0.438521	-0.719435	0.007652
C149	C	0.284030	-0.999387	-0.758458
C150	C	0.784030	-0.499387	-0.258458
N151	N	0.340945	-0.963115	-0.799742
N152	N	0.840945	-0.463115	-0.299742
C153	C	0.284022	-0.999339	-0.241806
C154	C	0.784022	-0.499339	0.258194
N155	N	0.340947	-0.963071	-0.200527
N156	N	0.840947	-0.463071	0.299473
H157	H	0.015134	-1.170728	-0.563410
H158	H	0.515134	-0.670728	-0.063410
C159	C	-0.058971	-0.322529	-0.000135
C160	C	0.441029	0.177471	0.499865
N161	N	-0.136168	-0.273559	-0.000140
N162	N	0.363832	0.226441	0.499860
H163	H	0.308260	-0.673013	-0.000108
H164	H	0.808260	-0.173013	0.499892
H165	H	0.302111	-0.383724	-0.000127
H166	H	0.802111	0.116276	0.499873
H167	H	-0.022577	-0.798861	-0.000110
H168	H	0.477423	-0.298861	0.499890
H169	H	0.264396	-1.011872	-0.563418
H170	H	0.764396	-0.511872	-0.063418
