data_functionalizedCrystal
_audit_creation_method	'MofGen! by Chris Wilmer'
_symmetry_space_group_name_H-M	'P1'
_symmetry_Int_Tables_number	1
_symmetry_cell_setting	triclinic
loop_
_symmetry_equiv_pos_as_xyz
  x,y,z
_cell_length_a	30.700809
_cell_length_b	30.711276
_cell_length_c	30.700862
_cell_angle_alpha	59.998386
_cell_angle_beta	89.999414
_cell_angle_gamma	60.000191
loop_
_atom_site_label
_atom_site_type_symbol
_atom_site_fract_x
_atom_site_fract_y
_atom_site_fract_z
O1	O	-0.371254	-0.311651	0.012944
O2	O	-0.307913	-0.222487	-0.012907
O3	O	-0.307911	-0.311650	0.076286
O4	O	-0.371257	-0.222488	-0.076249
O5	O	-0.235466	-0.384070	0.076286
O6	O	-0.235468	-0.294907	-0.012907
O7	O	-0.298809	-0.384071	0.012944
Cu8	Cu	-0.260524	-0.346102	0.000018
Cu9	Cu	-0.346199	-0.260456	0.000019
O10	O	-0.298812	-0.294908	-0.076249
C11	C	-0.234796	-0.137097	-0.018777
C12	C	-0.261674	-0.083360	-0.015076
C13	C	-0.182374	-0.163176	-0.019143
C14	C	-0.234798	-0.215942	-0.018783
C15	C	-0.261678	-0.246507	-0.015089
C16	C	-0.182376	-0.241901	-0.019150
C17	C	-0.155920	-0.215947	-0.018777
C18	C	-0.098463	-0.246515	-0.015075
C19	C	-0.261132	-0.163172	-0.019150
C20	C	-0.574961	-0.535511	0.039265
C21	C	-0.548506	-0.588283	0.039634
C22	C	-0.496086	-0.535509	0.039262
C23	C	-0.469751	-0.588281	0.039632
C24	C	-0.496085	-0.614360	0.039265
C25	C	-0.548507	-0.509552	0.039632
C26	C	-0.765169	-0.393516	0.024987
C27	C	-0.819034	-0.364488	0.020950
C28	C	-0.846055	-0.389406	0.018925
C29	C	-0.904462	-0.357927	0.014538
C30	C	-0.819206	-0.443357	0.020941
C31	C	-0.765344	-0.472385	0.024984
C32	C	-0.738325	-0.447463	0.027007
C33	C	-0.447920	-0.790230	0.024988
C34	C	-0.423094	-0.840041	0.020951
C35	C	-0.371150	-0.865027	0.018921
C36	C	-0.344230	-0.919028	0.014536
C37	C	-0.344030	-0.840201	0.020935
C38	C	-0.368852	-0.790399	0.024981
C39	C	-0.420803	-0.765414	0.027004
C40	C	-0.447922	-0.393510	0.024977
C41	C	-0.423099	-0.364475	0.020931
C42	C	-0.371152	-0.389391	0.018903
C43	C	-0.344235	-0.357911	0.014513
C44	C	-0.344034	-0.443338	0.020916
C45	C	-0.368860	-0.472368	0.024960
C46	C	-0.420804	-0.447452	0.026995
C47	C	-0.679920	-0.478941	0.031387
C48	C	-0.633366	-0.504032	0.034880
C49	C	-0.469171	-0.504029	0.034875
C50	C	-0.447717	-0.478936	0.031380
C51	C	-0.469170	-0.668361	0.034880
C52	C	-0.447716	-0.711408	0.031386
C53	C	-0.496432	-0.071057	-0.503890
C54	C	-0.548853	-0.018285	-0.530226
C55	C	-0.496432	-0.071056	-0.425015
C56	C	-0.548854	-0.018284	-0.451470
C57	C	-0.575308	0.007793	-0.503892
C58	C	-0.470097	-0.097014	-0.451469
C59	C	-0.368666	-0.213054	-0.552051
C60	C	-0.343664	-0.242084	-0.576877
C61	C	-0.370616	-0.217167	-0.628824
C62	C	-0.343513	-0.248647	-0.655741
C63	C	-0.422570	-0.163216	-0.655945
C64	C	-0.447565	-0.134187	-0.631122
C65	C	-0.420611	-0.159108	-0.579173
C66	C	-0.765518	0.183662	-0.631659
C67	C	-0.819384	0.233473	-0.656662
C68	C	-0.846408	0.258459	-0.629712
C69	C	-0.904813	0.312461	-0.656813
C70	C	-0.819559	0.233635	-0.577758
C71	C	-0.765694	0.183833	-0.552761
C72	C	-0.738677	0.158847	-0.579717
C73	C	-0.368668	-0.213052	-0.234803
C74	C	-0.343669	-0.242086	-0.180935
C75	C	-0.370621	-0.217169	-0.153914
C76	C	-0.343519	-0.248648	-0.095506
C77	C	-0.422573	-0.163222	-0.180762
C78	C	-0.447570	-0.134193	-0.234627
C79	C	-0.420610	-0.159111	-0.261646
C80	C	-0.447720	-0.127629	-0.552258
C81	C	-0.469327	-0.102536	-0.530805
C82	C	-0.469328	-0.102535	-0.366609
C83	C	-0.447721	-0.127627	-0.320054
C84	C	-0.633714	0.061794	-0.530997
C85	C	-0.680269	0.104841	-0.552605
O86	O	0.076277	-0.384081	0.012960
O87	O	-0.076257	-0.294916	-0.012894
O88	O	0.012931	-0.384083	0.076300
O89	O	-0.012910	-0.294914	-0.076234
O90	O	0.012933	-0.311666	0.076306
O91	O	-0.076254	-0.222499	-0.012888
O92	O	0.076280	-0.311664	0.012966
Cu93	Cu	0.000013	-0.260469	0.000040
Cu94	Cu	0.000010	-0.346111	0.000033
O95	O	-0.012908	-0.222497	-0.076228
O96	O	-0.298805	0.063292	0.012964
O97	O	-0.235462	-0.063346	-0.012888
O98	O	-0.235465	-0.063353	0.076305
O99	O	-0.298803	0.063300	-0.076229
O100	O	-0.307912	-0.063350	0.076299
O101	O	-0.307909	-0.063342	-0.012895
O102	O	-0.371252	0.063295	0.012958
Cu103	Cu	-0.346196	-0.000023	0.000031
Cu104	Cu	-0.260519	-0.000027	0.000039
O105	O	-0.371250	0.063303	-0.076236
O106	O	-1.076607	0.456783	-0.692421
O107	O	-0.924074	0.330140	-0.629074
O108	O	-1.013262	0.330138	-0.629073
O109	O	-0.987418	0.456785	-0.692422
O110	O	-1.013261	0.330136	-0.701518
O111	O	-0.924072	0.330138	-0.701518
O112	O	-1.076605	0.456781	-0.764865
Cu113	Cu	-1.000338	0.393460	-0.739807
Cu114	Cu	-1.000340	0.393461	-0.654133
O115	O	-0.987417	0.456783	-0.764866
O116	O	-0.307911	-0.311650	-0.764507
O117	O	-0.371254	-0.222491	-0.701165
O118	O	-0.371252	-0.311652	-0.701162
O119	O	-0.307912	-0.222489	-0.764510
O120	O	-0.298806	-0.384074	-0.628716
O121	O	-0.298807	-0.294912	-0.628719
O122	O	-0.235464	-0.384072	-0.692061
Cu123	Cu	-0.260521	-0.346105	-0.653775
Cu124	Cu	-0.346197	-0.260458	-0.739451
O125	O	-0.235466	-0.294910	-0.692064
C126	C	-0.155920	-0.469469	0.234827
C127	C	-0.098464	-0.523208	0.261706
C128	C	-0.182375	-0.443392	0.261162
C129	C	-0.234797	-0.390619	0.155950
C130	C	-0.261676	-0.360052	0.098494
C131	C	-0.261132	-0.364662	0.182405
C132	C	-0.234797	-0.390620	0.234826
C133	C	-0.261675	-0.360052	0.261704
C134	C	-0.182375	-0.443391	0.182406
C135	C	0.018810	-0.390643	0.234846
C136	C	0.015111	-0.360079	0.261727
C137	C	0.019176	-0.443414	0.261179
C138	C	0.018812	-0.390637	0.155967
C139	C	0.015115	-0.360067	0.098511
C140	C	0.019178	-0.443408	0.182420
C141	C	0.018807	-0.469488	0.234841
C142	C	0.015106	-0.523226	0.261717
C143	C	0.019180	-0.364683	0.182425
C144	C	-0.234799	-0.215977	0.234834
C145	C	-0.261678	-0.246545	0.261708
C146	C	-0.182376	-0.241940	0.261172
C147	C	-0.234798	-0.137119	0.155964
C148	C	-0.261676	-0.083372	0.098509
C149	C	-0.182375	-0.163202	0.182421
C150	C	-0.155921	-0.215981	0.234841
C151	C	-0.098464	-0.246554	0.261721
C152	C	-0.261134	-0.163198	0.182415
C153	C	-0.039199	0.007461	-0.503869
C154	C	-0.039568	-0.018614	-0.530207
C155	C	-0.039203	-0.071390	-0.424995
C156	C	-0.039572	-0.097344	-0.451452
C157	C	-0.039201	-0.071385	-0.503874
C158	C	-0.039570	-0.018618	-0.451448
C159	C	-0.024912	0.183325	-0.552025
C160	C	-0.020873	0.233135	-0.576849
C161	C	-0.018844	0.258123	-0.628796
C162	C	-0.014454	0.312124	-0.655711
C163	C	-0.020859	0.233301	-0.655918
C164	C	-0.024906	0.183500	-0.631097
C165	C	-0.026932	0.158512	-0.579148
C166	C	-0.024920	-0.133799	-0.631644
C167	C	-0.020882	-0.162650	-0.656647
C168	C	-0.018855	-0.216605	-0.629699
C169	C	-0.014470	-0.247897	-0.656801
C170	C	-0.020872	-0.241704	-0.577746
C171	C	-0.024919	-0.212847	-0.552747
C172	C	-0.026939	-0.158893	-0.579702
C173	C	-0.024929	-0.133823	-0.234783
C174	C	-0.020887	-0.162684	-0.180915
C175	C	-0.018862	-0.216639	-0.153896
C176	C	-0.014477	-0.247936	-0.095488
C177	C	-0.020875	-0.241733	-0.180745
C178	C	-0.024915	-0.212872	-0.234610
C179	C	-0.026947	-0.158912	-0.261627
C180	C	-0.031316	0.104507	-0.552235
C181	C	-0.034811	0.061462	-0.530782
C182	C	-0.034820	-0.102682	-0.366590
C183	C	-0.031328	-0.127624	-0.320035
C184	C	-0.034816	-0.102672	-0.530980
C185	C	-0.031322	-0.127610	-0.552588
O186	O	-0.012940	-0.294936	0.371303
O187	O	0.012923	-0.384099	0.307961
O188	O	-0.076273	-0.294935	0.307950
O189	O	0.076257	-0.384100	0.371315
O190	O	-0.076265	-0.222515	0.235508
O191	O	0.012932	-0.311679	0.235520
O192	O	-0.012931	-0.222517	0.298862
Cu193	Cu	0.000001	-0.260485	0.260576
Cu194	Cu	-0.000009	-0.346130	0.346247
O195	O	0.076266	-0.311681	0.298873
C196	C	-0.574962	0.464558	-0.503864
C197	C	-0.548506	0.490518	-0.530195
C198	C	-0.496085	0.385697	-0.424987
C199	C	-0.469749	0.411776	-0.451438
C200	C	-0.496084	0.464555	-0.503857
C201	C	-0.548507	0.411779	-0.451444
C202	C	-0.765173	0.526994	-0.552039
C203	C	-0.819039	0.555852	-0.576867
C204	C	-0.846061	0.609814	-0.628812
C205	C	-0.904469	0.641114	-0.655732
C206	C	-0.819211	0.634913	-0.655928
C207	C	-0.765348	0.606050	-0.631102
C208	C	-0.738329	0.552088	-0.579155
C209	C	-0.447916	0.606561	-0.631604
C210	C	-0.423088	0.635592	-0.656601
C211	C	-0.371143	0.610674	-0.629648
C212	C	-0.344222	0.642150	-0.656742
C213	C	-0.344023	0.556716	-0.577696
C214	C	-0.368845	0.527681	-0.552704
C215	C	-0.420798	0.552613	-0.579664
C216	C	-0.447920	0.209802	-0.234786
C217	C	-0.423096	0.159988	-0.180919
C218	C	-0.371148	0.134996	-0.153895
C219	C	-0.344230	0.080987	-0.095489
C220	C	-0.344029	0.159823	-0.180737
C221	C	-0.368856	0.209637	-0.234602
C222	C	-0.420801	0.234620	-0.261624
C223	C	-0.679923	0.520797	-0.552238
C224	C	-0.633367	0.495853	-0.530781
C225	C	-0.469169	0.331687	-0.366583
C226	C	-0.447714	0.288634	-0.320030
C227	C	-0.469167	0.496035	-0.530956
C228	C	-0.447712	0.521128	-0.552558
H229	H	-0.426680	-0.610102	0.040221
H230	H	-0.569753	0.389964	-0.430206
H231	H	-0.161137	-0.141349	-0.019737
H232	H	-0.444519	-0.142934	-0.158758
O233	O	-0.342427	0.233659	-0.260602
C234	C	-0.291259	0.200930	-0.225199
H235	H	-0.278995	0.153137	-0.191270
H236	H	-0.292064	0.226799	-0.208190
C237	C	-0.265910	0.253497	-0.297007
C238	C	-0.250844	0.194794	-0.255337
H239	H	-0.240980	0.249713	-0.315598
H240	H	-0.300383	0.275549	-0.320859
H241	H	-0.266581	0.275047	-0.282827
H242	H	-0.250180	0.173247	-0.269519
H243	H	-0.216370	0.172738	-0.231488
H244	H	-0.840890	-0.320560	0.019306
H245	H	-0.569746	0.532985	-0.573266
H246	H	-0.743179	0.483055	-0.509743
O247	O	-0.312548	-0.137051	-0.019959
C248	C	-0.344965	-0.076094	-0.066142
H249	H	-0.324787	-0.071025	-0.097833
H250	H	-0.351021	-0.042979	-0.055876
C251	C	-0.424235	-0.067314	-0.048726
C252	C	-0.399454	-0.061089	-0.087651
H253	H	-0.457847	-0.058057	-0.061993
H254	H	-0.402395	-0.108381	-0.017610
H255	H	-0.429277	-0.039717	-0.040174
H256	H	-0.394407	-0.088691	-0.096198
H257	H	-0.421294	-0.020026	-0.118769
O258	O	-0.342404	-0.237262	-0.261017
C259	C	-0.295460	-0.239346	-0.260060
H260	H	-0.282909	-0.239563	-0.224967
H261	H	-0.303207	-0.197241	-0.298862
C262	C	-0.266085	-0.297939	-0.297109
C263	C	-0.250667	-0.298211	-0.254004
H264	H	-0.238455	-0.334248	-0.293376
H265	H	-0.297712	-0.296533	-0.297756
H266	H	-0.272541	-0.262849	-0.329440
H267	H	-0.244218	-0.333297	-0.221675
H268	H	-0.219037	-0.299624	-0.253352
O269	O	-0.738851	-0.369376	0.026940
C270	C	-0.685549	-0.406572	0.030951
H271	H	-0.682707	-0.433829	0.014741
H272	H	-0.659011	-0.439786	0.074554
C273	C	-0.670504	-0.332037	0.018235
C274	C	-0.667015	-0.365511	-0.001678
H275	H	-0.659070	-0.306710	-0.001889
H276	H	-0.706414	-0.306979	0.015535
H277	H	-0.648389	-0.359722	0.054571
H278	H	-0.689135	-0.337827	-0.038010
H279	H	-0.631108	-0.390565	0.001016
H280	H	-0.444508	-0.142931	-0.698242
H281	H	-0.569747	-0.610106	0.040228
O282	O	-0.156982	-0.137249	0.157078
C283	C	-0.110997	-0.180293	0.154441
H284	H	-0.115820	-0.216247	0.157869
H285	H	-0.074663	-0.203903	0.188578
C286	C	-0.097408	-0.102689	0.096605
C287	C	-0.103334	-0.146846	0.100811
H288	H	-0.092679	-0.082059	0.063525
H289	H	-0.128388	-0.073690	0.098384
H290	H	-0.067130	-0.122371	0.125056
H291	H	-0.133615	-0.127164	0.072364
H292	H	-0.072359	-0.175842	0.099027
O293	O	-0.573766	-0.458941	0.040409
C294	C	-0.545231	-0.472711	0.086611
H295	H	-0.501940	-0.513163	0.101515
H296	H	-0.563904	-0.485295	0.118912
C297	C	-0.600485	-0.366428	0.055008
C298	C	-0.547313	-0.416108	0.073311
H299	H	-0.601772	-0.331512	0.046805
H300	H	-0.619711	-0.357151	0.023882
H301	H	-0.616040	-0.376923	0.081928
H302	H	-0.531761	-0.405616	0.046388
H303	H	-0.528084	-0.425383	0.104432
H304	H	-0.445184	-0.320548	0.019287
O305	O	-0.845490	-0.467547	0.019042
C306	C	-0.864499	-0.482107	0.062544
H307	H	-0.868445	-0.453182	0.077222
H308	H	-0.835280	-0.533044	0.096194
C309	C	-0.914556	-0.503802	0.026753
C310	C	-0.919407	-0.468272	0.044777
H311	H	-0.948424	-0.495271	0.015795
H312	H	-0.901748	-0.493995	-0.002555
H313	H	-0.890204	-0.546247	0.054797
H314	H	-0.943752	-0.425828	0.016731
H315	H	-0.932220	-0.478071	0.074080
H316	H	-0.026556	-0.233307	-0.256467
O317	O	0.019962	-0.314073	0.157058
C318	C	0.066165	-0.327847	0.142301
H319	H	0.081067	-0.368297	0.139475
H320	H	0.098465	-0.340433	0.173565
C321	C	0.034570	-0.221565	0.091239
C322	C	0.052871	-0.271244	0.087763
H323	H	0.026371	-0.186650	0.057598
H324	H	0.003443	-0.212286	0.101182
H325	H	0.061490	-0.232062	0.117294
H326	H	0.025949	-0.260749	0.061713
H327	H	0.083994	-0.280520	0.077814
H328	H	-0.840896	0.535415	-0.554785
H329	H	-0.490220	-0.373215	0.026628
O330	O	-0.574254	0.007754	-0.581591
C331	C	-0.620228	0.008024	-0.584536
H332	H	-0.633481	0.005532	-0.549151
H333	H	-0.610810	-0.033425	-0.583586
C334	C	-0.648987	0.070737	-0.680296
C335	C	-0.665267	0.067681	-0.636838
H336	H	-0.676769	0.107534	-0.712559
H337	H	-0.618013	0.070553	-0.678313
H338	H	-0.641139	0.036192	-0.679498
H339	H	-0.673108	0.102220	-0.637633
H340	H	-0.696244	0.067871	-0.638823
H341	H	-0.019210	0.253653	-0.698214
O342	O	-0.312486	-0.137201	0.157019
C343	C	-0.315405	-0.136904	0.111030
H344	H	-0.274611	-0.174245	0.115851
H345	H	-0.328128	-0.090060	0.074699
C346	C	-0.406616	-0.103556	0.097437
C347	C	-0.356513	-0.149422	0.103360
H348	H	-0.431974	-0.111275	0.092704
H349	H	-0.404650	-0.103754	0.128420
H350	H	-0.417211	-0.064524	0.067162
H351	H	-0.345915	-0.188452	0.133639
H352	H	-0.358477	-0.149231	0.072382
O353	O	-0.739351	-0.524769	0.026913
C354	C	-0.774744	-0.540548	0.024273
H355	H	-0.817555	-0.497705	0.004641
H356	H	-0.769249	-0.576430	0.066298
C357	C	-0.710418	-0.619809	0.015252
C358	C	-0.762998	-0.567187	-0.008865
H359	H	-0.703171	-0.636244	-0.005187
H360	H	-0.686572	-0.609180	0.017032
H361	H	-0.705845	-0.649704	0.050272
H362	H	-0.767568	-0.537291	-0.043881
H363	H	-0.786845	-0.577812	-0.010652
H364	H	-0.445183	0.139782	-0.159066
O365	O	-0.018820	-0.294201	-0.154497
C366	C	0.026020	-0.340173	-0.155471
H367	H	0.056943	-0.329374	-0.161840
H368	H	0.013315	-0.341513	-0.189429
C369	C	0.012407	-0.416429	-0.094240
C370	C	0.050390	-0.403168	-0.102057
H371	H	0.027439	-0.455288	-0.061293
H372	H	-0.017804	-0.385457	-0.093585
H373	H	0.001823	-0.417542	-0.122542
H374	H	0.060968	-0.402048	-0.073759
H375	H	0.080603	-0.434142	-0.102706
O376	O	-0.157115	-0.292556	0.312577
C377	C	-0.185653	-0.278796	0.345006
H378	H	-0.228946	-0.238350	0.319445
H379	H	-0.166988	-0.266207	0.364721
C380	C	-0.130386	-0.385080	0.419722
C381	C	-0.183561	-0.335408	0.388328
H382	H	-0.129094	-0.420002	0.446446
H383	H	-0.111158	-0.394351	0.397875
H384	H	-0.114838	-0.374582	0.436145
H385	H	-0.199106	-0.345904	0.371900
H386	H	-0.202792	-0.326140	0.410173
O387	O	-0.342538	-0.237276	-0.501565
C388	C	-0.371479	-0.251806	-0.467982
H389	H	-0.398095	-0.258462	-0.486098
H390	H	-0.397225	-0.212646	-0.463617
C391	C	-0.299668	-0.303411	-0.390474
C392	C	-0.332355	-0.311591	-0.412722
H393	H	-0.275536	-0.340287	-0.356386
H394	H	-0.280171	-0.293620	-0.413099
H395	H	-0.321130	-0.270775	-0.386841
H396	H	-0.310895	-0.344221	-0.416361
H397	H	-0.351849	-0.321389	-0.390096
H398	H	-0.490218	-0.769893	0.026639
H399	H	-0.427024	-0.139478	-0.430231
O400	O	-0.845390	0.257487	-0.707115
C401	C	-0.809990	0.224761	-0.725546
H402	H	-0.776053	0.176974	-0.690003
H403	H	-0.792993	0.250641	-0.750632
C404	C	-0.881805	0.277302	-0.803460
C405	C	-0.840126	0.218607	-0.759805
H406	H	-0.900394	0.273508	-0.824595
H407	H	-0.905655	0.299352	-0.791044
H408	H	-0.867635	0.298862	-0.824359
H409	H	-0.854297	0.197051	-0.738903
H410	H	-0.816278	0.196553	-0.772219
O411	O	-0.026966	-0.081337	-0.657802
C412	C	-0.075142	-0.033300	-0.662559
H413	H	-0.091021	-0.053635	-0.630176
H414	H	-0.105682	-0.004624	-0.703457
C415	C	-0.045562	0.032884	-0.696025
C416	C	-0.065062	0.007908	-0.656250
H417	H	-0.039346	0.058305	-0.692136
H418	H	-0.013106	0.000522	-0.692822
H419	H	-0.071015	0.056776	-0.730103
H420	H	-0.039607	-0.015990	-0.622173
H421	H	-0.097514	0.040268	-0.659447
O422	O	-0.418395	0.385823	-0.426092
C423	C	-0.415471	0.428868	-0.423455
H424	H	-0.456261	0.464820	-0.426882
H425	H	-0.402755	0.452480	-0.457592
C426	C	-0.324254	0.351268	-0.365620
C427	C	-0.374352	0.395423	-0.369825
H428	H	-0.298888	0.330638	-0.332540
H429	H	-0.326222	0.322268	-0.367398
H430	H	-0.313664	0.370951	-0.394071
H431	H	-0.384943	0.375738	-0.341378
H432	H	-0.372384	0.424419	-0.368040
O433	O	-0.156964	-0.469400	0.157073
C434	C	-0.111016	-0.469616	0.154400
H435	H	-0.097779	-0.467138	0.187309
H436	H	-0.120458	-0.428137	0.113895
C437	C	-0.082206	-0.532275	0.121319
C438	C	-0.065946	-0.529236	0.161742
H439	H	-0.054406	-0.569049	0.125846
H440	H	-0.113164	-0.532128	0.123118
H441	H	-0.090075	-0.497705	0.087569
H442	H	-0.058085	-0.563801	0.195490
H443	H	-0.034987	-0.529391	0.159949
H444	H	-0.445180	-0.860248	0.019309
O445	O	-0.739183	0.630332	-0.657372
C446	C	-0.685851	0.593296	-0.624314
H447	H	-0.673982	0.544792	-0.593113
H448	H	-0.681817	0.613814	-0.603530
C449	C	-0.663653	0.650217	-0.696747
C450	C	-0.649074	0.590642	-0.658428
H451	H	-0.640967	0.648581	-0.717789
H452	H	-0.699584	0.675171	-0.719019
H453	H	-0.660291	0.667309	-0.679421
H454	H	-0.652442	0.573554	-0.675754
H455	H	-0.613142	0.565685	-0.636159
H456	H	-0.490217	0.230142	-0.256784
H457	H	-0.841561	0.253985	-0.555818
H458	H	-0.161139	-0.284365	-0.019743
H459	H	-0.019230	0.253339	-0.554762
H460	H	-0.301369	-0.286012	-0.159078
O461	O	-0.040320	-0.147976	-0.426054
C462	C	-0.040553	-0.165413	-0.374010
H463	H	-0.056911	-0.123970	-0.372371
H464	H	0.001877	-0.203575	-0.344657
C465	C	-0.055937	-0.239796	-0.361038
C466	C	-0.076032	-0.188893	-0.359027
H467	H	-0.077820	-0.254282	-0.351794
H468	H	-0.055778	-0.228050	-0.396101
H469	H	-0.020578	-0.271591	-0.336577
H470	H	-0.111387	-0.157097	-0.383492
H471	H	-0.076198	-0.200634	-0.323968
O472	O	-0.739700	0.159780	-0.502288
C473	C	-0.775093	0.192522	-0.483865
H474	H	-0.817904	0.215689	-0.507088
H475	H	-0.769602	0.229043	-0.490002
C476	C	-0.710763	0.119205	-0.395556
C477	C	-0.763343	0.147654	-0.424076
H478	H	-0.703514	0.091530	-0.358675
H479	H	-0.686917	0.097147	-0.407968
H480	H	-0.706193	0.149645	-0.400676
H481	H	-0.767910	0.117215	-0.418960
H482	H	-0.787190	0.169707	-0.411661
O483	O	-0.293594	0.135550	-0.154415
C484	C	-0.293710	0.140417	-0.111112
H485	H	-0.329928	0.144249	-0.099068
H486	H	-0.295566	0.183154	-0.123321
C487	C	-0.197924	0.078119	-0.078381
C488	C	-0.242405	0.082820	-0.063585
H489	H	-0.166276	0.042592	-0.049064
H490	H	-0.197845	0.074841	-0.107556
H491	H	-0.199478	0.113737	-0.088555
H492	H	-0.240854	0.047206	-0.053418
H493	H	-0.242483	0.086090	-0.034407
O494	O	-0.845505	0.687391	-0.706347
C495	C	-0.888813	0.735417	-0.706220
H496	H	-0.881014	0.724529	-0.664526
H497	H	-0.926871	0.740127	-0.718230
C498	C	-0.904823	0.809593	-0.797389
C499	C	-0.895242	0.796224	-0.746181
H500	H	-0.908791	0.847103	-0.822040
H501	H	-0.875647	0.777238	-0.797476
H502	H	-0.936537	0.813515	-0.807390
H503	H	-0.863526	0.792295	-0.736178
H504	H	-0.924413	0.828580	-0.746093
O505	O	-0.026903	0.159148	-0.501572
C506	C	-0.024246	0.191726	-0.482953
H507	H	-0.038116	0.239566	-0.518396
H508	H	0.018636	0.165800	-0.457832
C509	C	-0.043501	0.138954	-0.405139
C510	C	-0.060540	0.197714	-0.448672
H511	H	-0.065886	0.142645	-0.383991
H512	H	-0.045288	0.117004	-0.417682
H513	H	-0.007765	0.117355	-0.384211
H514	H	-0.096273	0.219309	-0.469602
H515	H	-0.058759	0.219668	-0.436132
O516	O	-0.293204	-0.294492	-0.550452
C517	C	-0.274769	-0.310249	-0.499287
H518	H	-0.310309	-0.288600	-0.487016
H519	H	-0.249703	-0.292430	-0.500103
C520	C	-0.196830	-0.407365	-0.473943
C521	C	-0.240481	-0.380779	-0.458870
H522	H	-0.175678	-0.450871	-0.449012
H523	H	-0.209249	-0.396749	-0.508415
H524	H	-0.175948	-0.392510	-0.474623
H525	H	-0.261366	-0.395629	-0.458197
H526	H	-0.228065	-0.391400	-0.424397
O527	O	-0.040349	0.007403	-0.426072
C528	C	-0.086552	0.025060	-0.411315
H529	H	-0.101456	-0.003314	-0.408499
H530	H	-0.118851	0.076019	-0.442573
C531	C	-0.054954	0.048688	-0.360233
C532	C	-0.073256	0.013835	-0.356769
H533	H	-0.046754	0.041767	-0.326588
H534	H	-0.023826	0.036795	-0.370177
H535	H	-0.081872	0.091151	-0.386283
H536	H	-0.046336	-0.028627	-0.330724
H537	H	-0.104379	0.025721	-0.346820
H538	H	-0.489870	-0.090268	-0.256484
O539	O	-0.498037	-0.081800	-0.657534
C540	C	-0.516461	-0.066021	-0.708712
H541	H	-0.493238	-0.108865	-0.708663
H542	H	-0.510325	-0.030143	-0.739110
C543	C	-0.604769	0.013250	-0.723680
C544	C	-0.576249	-0.039374	-0.723618
H545	H	-0.641649	0.029690	-0.732876
H546	H	-0.592356	0.002621	-0.689201
H547	H	-0.599650	0.043141	-0.749011
H548	H	-0.581363	-0.069266	-0.698282
H549	H	-0.588664	-0.028749	-0.758093
H550	H	-0.040160	0.003216	-0.573279
H551	H	-0.490215	0.626864	-0.653559
H552	H	-0.301736	-0.463624	0.019263
O553	O	-0.026834	0.159446	-0.657508
C554	C	-0.024189	0.192188	-0.708684
H555	H	-0.004557	0.215357	-0.708634
H556	H	-0.066212	0.228708	-0.739085
C557	C	-0.015167	0.118867	-0.723648
C558	C	0.008950	0.147320	-0.723585
H559	H	0.005272	0.091191	-0.732842
H560	H	-0.016951	0.096809	-0.689170
H561	H	-0.050186	0.149305	-0.748982
H562	H	0.043965	0.116882	-0.698247
H563	H	0.010740	0.169371	-0.758059
O564	O	-0.293546	-0.864577	0.019035
C565	C	-0.259974	-0.927068	0.062537
H566	H	-0.284963	-0.945685	0.077217
H567	H	-0.238236	-0.931498	0.096186
C568	C	-0.188217	-0.941329	0.026742
C569	C	-0.218909	-0.964197	0.044769
H570	H	-0.162884	-0.964232	0.015783
H571	H	-0.210834	-0.899227	-0.002565
H572	H	-0.170107	-0.945022	0.054786
H573	H	-0.237023	-0.960496	0.016724
H574	H	-0.196293	-1.006299	0.074071
O575	O	0.019975	-0.469537	0.312592
C576	C	0.066161	-0.530491	0.345016
H577	H	0.097859	-0.535554	0.324848
H578	H	0.055904	-0.563612	0.351066
C579	C	0.048716	-0.539273	0.424279
C580	C	0.087650	-0.545491	0.399510
H581	H	0.061970	-0.548528	0.457894
H582	H	0.017598	-0.498208	0.402434
H583	H	0.040172	-0.566875	0.429315
H584	H	0.096188	-0.517885	0.394468
H585	H	0.118769	-0.586552	0.421355
O586	O	-0.312487	-0.313943	0.156992
C587	C	-0.315389	-0.265331	0.111035
H588	H	-0.279997	-0.284990	0.097800
H589	H	-0.314418	-0.234266	0.120467
C590	C	-0.411150	-0.203492	0.082227
C591	C	-0.367683	-0.227638	0.065969
H592	H	-0.443408	-0.180239	0.054429
H593	H	-0.409195	-0.236241	0.113190
H594	H	-0.410333	-0.177608	0.090087
H595	H	-0.368497	-0.253527	0.058116
H596	H	-0.369639	-0.194892	0.035004
O597	O	-0.342443	-0.766342	0.026907
C598	C	-0.291267	-0.799081	0.024264
H599	H	-0.291314	-0.822253	0.004633
H600	H	-0.260867	-0.835599	0.066288
C601	C	-0.276307	-0.725755	0.015238
C602	C	-0.276367	-0.754210	-0.008877
H603	H	-0.267115	-0.698078	-0.005202
H604	H	-0.310785	-0.703699	0.017021
H605	H	-0.250974	-0.756192	0.050258
H606	H	-0.301704	-0.723774	-0.043892
H607	H	-0.241893	-0.776260	-0.010666
O608	O	-0.156993	-0.469383	0.312517
C609	C	-0.111013	-0.469664	0.315452
H610	H	-0.115829	-0.432321	0.274662
H611	H	-0.074671	-0.516505	0.328184
C612	C	-0.097457	-0.503008	0.406661
C613	C	-0.103374	-0.457139	0.356563
H614	H	-0.092742	-0.495285	0.432022
H615	H	-0.128433	-0.502821	0.404685
H616	H	-0.067173	-0.542038	0.417264
H617	H	-0.133661	-0.418111	0.345958
H618	H	-0.072402	-0.457319	0.358538
H619	H	-0.570092	0.003538	-0.430229
H620	H	-0.346776	-0.516292	0.026600
O621	O	0.019978	-0.469487	0.157094
C622	C	0.066160	-0.487111	0.142299
H623	H	0.097858	-0.493564	0.168923
H624	H	0.055896	-0.449785	0.098907
C625	C	0.048720	-0.540143	0.116091
C626	C	0.087654	-0.548074	0.148794
H627	H	0.061978	-0.577746	0.120094
H628	H	0.017606	-0.528267	0.126057
H629	H	0.040171	-0.509036	0.079933
H630	H	0.096198	-0.579175	0.184951
H631	H	0.118771	-0.559956	0.138834
H632	H	-0.743523	0.163324	-0.653612
O633	O	-0.293597	0.532588	-0.551500
C634	C	-0.293712	0.575996	-0.546755
H635	H	-0.335400	0.609874	-0.549831
H636	H	-0.281710	0.602044	-0.580105
C637	C	-0.202537	0.500851	-0.488586
C638	C	-0.253737	0.542458	-0.492360
H639	H	-0.177876	0.480164	-0.455034
H640	H	-0.202458	0.471607	-0.491784
H641	H	-0.192542	0.522564	-0.516381
H642	H	-0.263733	0.520743	-0.464570
H643	H	-0.253816	0.571698	-0.489156
O644	O	-0.018962	-0.138211	-0.154922
C645	C	-0.021608	-0.084407	-0.190317
H646	H	-0.041237	-0.064830	-0.233128
H647	H	0.020414	-0.096024	-0.184822
C648	C	-0.030638	-0.060431	-0.125991
C649	C	-0.054752	-0.036384	-0.178572
H650	H	-0.051081	-0.030809	-0.118745
H651	H	-0.028854	-0.096681	-0.102144
H652	H	0.004379	-0.070111	-0.121418
H653	H	-0.089766	-0.026712	-0.183142
H654	H	-0.056543	-0.000131	-0.202420
H655	H	-0.026581	-0.089888	-0.256777
O656	O	-0.018893	-0.138212	-0.707099
C657	C	-0.021554	-0.084400	-0.725528
H658	H	-0.007690	-0.086007	-0.689984
H659	H	-0.064436	-0.042329	-0.750618
C660	C	-0.002287	-0.078306	-0.803439
C661	C	0.014745	-0.080282	-0.759783
H662	H	0.020101	-0.075763	-0.824571
H663	H	-0.000497	-0.114558	-0.791024
H664	H	-0.038023	-0.043246	-0.824341
H665	H	0.050477	-0.115345	-0.738878
H666	H	0.012961	-0.044034	-0.772195
O667	O	-0.018976	-0.294068	-0.551649
C668	C	-0.062478	-0.284136	-0.580594
H669	H	-0.077154	-0.244478	-0.624206
H670	H	-0.096128	-0.272228	-0.563290
C671	C	-0.026689	-0.391652	-0.523107
C672	C	-0.044712	-0.342947	-0.576674
H673	H	-0.015732	-0.427930	-0.520687
H674	H	0.002617	-0.398344	-0.503605
H675	H	-0.054734	-0.381721	-0.508693
H676	H	-0.016666	-0.352876	-0.591084
H677	H	-0.074014	-0.336259	-0.596178
O678	O	-0.026849	-0.237322	-0.502273
C679	C	-0.024209	-0.291121	-0.483850
H680	H	-0.004577	-0.310698	-0.507077
H681	H	-0.066233	-0.279498	-0.489984
C682	C	-0.015189	-0.315101	-0.395539
C683	C	0.008927	-0.339148	-0.424063
H684	H	0.005249	-0.344726	-0.358659
H685	H	-0.016970	-0.278854	-0.407951
H686	H	-0.050209	-0.305416	-0.400656
H687	H	0.043943	-0.348826	-0.418951
H688	H	0.010715	-0.375398	-0.411648
O689	O	-0.449520	0.688020	-0.707050
C690	C	-0.500691	0.703790	-0.725485
H691	H	-0.512949	0.682111	-0.689943
H692	H	-0.499894	0.686011	-0.750581
C693	C	-0.526048	0.800940	-0.803385
C694	C	-0.541106	0.774319	-0.759732
H695	H	-0.550977	0.844446	-0.824512
H696	H	-0.491573	0.790316	-0.790966
H697	H	-0.525384	0.786118	-0.824292
H698	H	-0.541763	0.789135	-0.738822
H699	H	-0.575582	0.784948	-0.772148
H700	H	-0.346761	0.483749	-0.510407
