data_functionalizedCrystal
_audit_creation_method	'MofGen! by Chris Wilmer'
_symmetry_space_group_name_H-M	'P1'
_symmetry_Int_Tables_number	1
_symmetry_cell_setting	triclinic
loop_
_symmetry_equiv_pos_as_xyz
  x,y,z
_cell_length_a	12.759400
_cell_length_b	12.759401
_cell_length_c	12.759401
_cell_angle_alpha	89.995619
_cell_angle_beta	90.005807
_cell_angle_gamma	89.985393
loop_
_atom_site_label
_atom_site_type_symbol
_atom_site_fract_x
_atom_site_fract_y
_atom_site_fract_z
Zn1	Zn	-0.418453	-1.606111	0.593991
Zn2	Zn	-0.594097	-1.606049	0.418316
Zn3	Zn	-0.418433	-1.430456	0.418331
Zn4	Zn	-0.594090	-1.430402	0.593957
O5	O	-0.506268	-1.518255	0.506148
O6	O	-0.441763	-1.753124	0.570695
O7	O	-0.570789	-1.582753	0.271296
O8	O	-0.271414	-1.453805	0.441653
O9	O	-0.570808	-1.753078	0.441627
O10	O	-0.271429	-1.582858	0.570710
O11	O	-0.441729	-1.453746	0.271308
O12	O	-0.441723	-1.283428	0.441620
O13	O	-0.570797	-1.453714	0.740982
O14	O	-0.570778	-1.283388	0.570652
O15	O	-0.441757	-1.582806	0.741007
O16	O	-0.741117	-1.582701	0.441594
O17	O	-0.741112	-1.453654	0.570637
C18	C	-0.506249	-1.245287	0.506134
C19	C	-0.506266	-1.128511	0.506153
C20	C	-0.779235	-1.518193	0.506133
C21	C	-0.896012	-1.518263	0.506162
C22	C	-0.506279	-1.518261	0.780182
C23	C	-0.506283	-1.518263	0.896958
C24	C	-1.060635	-1.451109	0.573321
C25	C	-0.950911	-1.451051	0.573303
C26	C	-0.950843	-1.585545	0.439041
C27	C	-1.060565	-1.585607	0.439065
C28	C	-1.115528	-1.383885	0.640459
C29	C	-1.060704	-1.316605	0.707581
C30	C	-0.950980	-1.316547	0.707563
C31	C	-0.896080	-1.383770	0.640423
C32	C	-0.232235	-1.518345	0.506187
C33	C	-0.115458	-1.518383	0.506203
C34	C	-0.506288	-1.792288	0.506163
C35	C	-0.506297	-1.909064	0.506170
C36	C	-0.573572	-1.073656	0.573229
C37	C	-0.573586	-0.963931	0.573240
C38	C	-0.438983	-0.963927	0.439091
C39	C	-0.438965	-1.073649	0.439086
C40	C	-0.640873	-1.128517	0.640296
C41	C	-0.708185	-1.073662	0.707377
C42	C	-0.708199	-0.963938	0.707388
C43	C	-0.640899	-0.909069	0.640319
C44	C	-0.439098	-1.585469	1.061560
C45	C	-0.439100	-1.585474	0.951836
C46	C	-0.573477	-1.451051	0.951811
C47	C	-0.573479	-1.451052	1.061533
C48	C	-0.371902	-1.652676	1.116432
C49	C	-0.304710	-1.719890	1.061587
C50	C	-0.304712	-1.719895	0.951863
C51	C	-0.371906	-1.652686	0.896984
C52	C	-0.506283	-1.518246	1.233181
C53	C	-0.506284	-1.518259	1.116404
H54	H	-1.204871	-1.383923	0.640479
H55	H	-1.105412	-1.261881	0.762250
H56	H	-0.806735	-1.383724	0.640421
C57	C	-0.890672	-1.242548	0.781399
C58	C	-0.951057	-1.168611	0.855248
C59	C	-0.890752	-1.094606	0.929084
C60	C	-0.770062	-1.094539	0.929071
C61	C	-0.709670	-1.168479	0.855220
C62	C	-0.769976	-1.242483	0.781384
H63	H	-1.040405	-1.168658	0.855260
H64	H	-0.935458	-1.039871	0.983753
H65	H	-0.725420	-1.039756	0.983729
H66	H	-0.620322	-1.168431	0.855208
H67	H	-0.725269	-1.297219	0.726714
C68	C	-0.364963	-0.903575	0.365315
C69	C	-0.290922	-0.963914	0.291533
C70	C	-0.216902	-0.903562	0.217753
C71	C	-0.216922	-0.782873	0.217756
C72	C	-0.290965	-0.722527	0.291541
C73	C	-0.364985	-0.782878	0.365320
H74	H	-0.290905	-1.053262	0.291528
H75	H	-0.162090	-0.948235	0.163133
H76	H	-0.162128	-0.738197	0.163140
H77	H	-0.290982	-0.633179	0.291545
H78	H	-0.419797	-0.738205	0.419941
C79	C	-0.230807	-1.793828	0.891531
C80	C	-0.276330	-1.876305	0.816104
C81	C	-0.202418	-1.950235	0.755774
C82	C	-0.082982	-1.941690	0.770870
C83	C	-0.037452	-1.859210	0.846300
C84	C	-0.111364	-1.785280	0.906630
H85	H	-0.364750	-1.882633	0.804926
H86	H	-0.236123	-2.011292	0.699936
H87	H	-0.028268	-1.996418	0.726210
H88	H	0.050967	-1.852882	0.857478
H89	H	-0.077659	-1.724223	0.962468
H90	H	-0.371911	-1.652704	0.807639
H91	H	-0.640907	-0.819724	0.640343
H92	H	-0.628182	-1.396331	0.907119
C93	C	-0.782237	-0.903595	0.781174
C94	C	-0.782259	-0.782905	0.781191
C95	C	-0.856305	-0.722565	0.854975
C96	C	-0.930329	-0.782914	0.928743
C97	C	-0.930310	-0.903611	0.928729
C98	C	-0.856264	-0.963951	0.854945
H99	H	-0.727459	-0.738224	0.726581
H100	H	-0.856318	-0.633217	0.854985
H101	H	-0.985142	-0.738247	0.983362
H102	H	-0.985110	-0.948292	0.983339
H103	H	-0.856251	-1.053299	0.854935
H104	H	-0.762971	-1.118343	0.761988
C105	C	-0.890457	-1.659478	0.365184
C106	C	-0.905436	-1.778917	0.373863
C107	C	-0.845052	-1.852849	0.300000
C108	C	-0.769688	-1.807343	0.217459
C109	C	-0.754705	-1.687898	0.208776
C110	C	-0.815089	-1.613966	0.282639
H111	H	-0.961228	-1.812609	0.434968
H112	H	-0.856143	-1.941270	0.306428
H113	H	-0.724988	-1.862072	0.162781
H114	H	-0.698913	-1.654206	0.147671
H115	H	-0.803998	-1.525545	0.276211
H116	H	-1.105203	-1.640390	0.384415
C117	C	-0.364926	-1.134005	0.365311
C118	C	-0.245507	-1.118933	0.374101
C119	C	-0.171459	-1.179292	0.300334
C120	C	-0.216831	-1.254722	0.217775
C121	C	-0.336256	-1.269797	0.208982
C122	C	-0.410304	-1.209438	0.282749
H123	H	-0.211914	-1.063092	0.435219
H124	H	-0.083053	-1.168132	0.306844
H125	H	-0.162017	-1.299403	0.163168
H126	H	-0.369849	-1.325638	0.147864
H127	H	-0.498710	-1.220598	0.276239
C128	C	-0.647402	-1.377140	1.121870
C129	C	-0.721320	-1.303220	1.061518
C130	C	-0.795257	-1.229321	1.121856
C131	C	-0.795277	-1.229342	1.242546
C132	C	-0.721356	-1.303265	1.302905
C133	C	-0.647418	-1.377164	1.242567
H134	H	-0.721308	-1.303202	0.972170
H135	H	-0.849979	-1.174598	1.077174
H136	H	-0.850010	-1.174638	1.287212
H137	H	-0.721368	-1.303283	1.392253
H138	H	-0.592697	-1.431887	1.287249
H139	H	-0.371890	-1.652677	1.205775
H140	H	-0.640871	-1.217860	0.640292
H141	H	-0.250009	-1.774615	1.106277
