data_functionalizedCrystal
_audit_creation_method	'MofGen! by Chris Wilmer'
_symmetry_space_group_name_H-M	'P1'
_symmetry_Int_Tables_number	1
_symmetry_cell_setting	triclinic
loop_
_symmetry_equiv_pos_as_xyz
  x,y,z
_cell_length_a	13.339070
_cell_length_b	17.699077
_cell_length_c	16.776229
_cell_angle_alpha	89.999352
_cell_angle_beta	89.994491
_cell_angle_gamma	99.454935
loop_
_atom_site_label
_atom_site_type_symbol
_atom_site_fract_x
_atom_site_fract_y
_atom_site_fract_z
O1	O	0.127836	1.031096	-0.066275
O2	O	0.144478	0.814235	-0.066278
O3	O	-0.011045	0.897777	-0.066274
O4	O	0.283359	0.947554	-0.066278
O5	O	-0.011059	0.897772	0.066302
O6	O	0.144464	0.814230	0.066298
O7	O	0.127822	1.031091	0.066302
Zn8	Zn	0.136141	0.922660	0.087349
Zn9	Zn	0.136159	0.922666	-0.087326
O10	O	0.283345	0.947549	0.066298
C11	C	0.143875	0.785909	0.000010
C12	C	0.142090	0.701514	0.000008
C13	C	0.141241	0.661866	0.072276
C14	C	0.139547	0.582565	0.072277
C15	C	0.138709	0.542915	0.000009
C16	C	0.139555	0.582568	-0.072265
C17	C	0.141242	0.661866	-0.072265
C18	C	0.132751	0.262766	-0.072266
C19	C	0.131067	0.183463	-0.072261
C20	C	0.131055	0.183465	0.072276
C21	C	0.132742	0.262763	0.072276
C22	C	0.133583	0.302409	0.000003
C23	C	0.135418	0.388396	0.000002
C24	C	0.136881	0.456930	0.000008
C25	C	-0.048720	0.889366	0.000013
C26	C	-0.160959	0.864303	0.000009
C27	C	-0.526237	1.059182	0.000013
C28	C	-0.420783	1.082733	0.000020
C29	C	-0.355822	1.028127	0.000017
C30	C	-0.396325	0.949967	0.000007
C31	C	-0.501790	0.926414	0.000005
C32	C	-0.331375	0.895359	0.000010
C33	C	-0.371878	0.817199	-0.000001
C34	C	-0.477333	0.793650	-0.000003
C35	C	-0.542293	0.848255	0.000000
C36	C	-0.225910	0.918912	0.000011
C37	C	-0.201463	0.786144	0.000004
C38	C	-0.306917	0.762593	-0.000004
C39	C	0.321020	0.955960	0.000009
C40	C	0.433259	0.981023	0.000008
C41	C	0.128425	1.059417	0.000012
C42	C	0.130210	1.143812	0.000008
N43	N	0.136164	0.922670	-0.206537
C44	C	0.067434	0.959786	-0.248253
C45	C	0.067431	0.959788	-0.331705
C46	C	0.136155	0.922669	-0.373440
C47	C	0.204892	0.885552	-0.331719
C48	C	0.204899	0.885555	-0.248268
C49	C	0.204868	0.885541	-0.668266
C50	C	0.204854	0.885539	-0.751722
C51	C	0.067400	0.959775	-0.751703
C52	C	0.067407	0.959778	-0.668252
C53	C	0.136148	0.922664	-0.626538
C54	C	0.136151	0.922663	-0.536050
C55	C	0.136148	0.922665	-0.463927
N56	N	0.136128	0.922661	0.206561
H57	H	0.141935	0.694147	-0.131113
H58	H	0.133432	0.295036	-0.131116
H59	H	-0.192943	0.982550	0.000020
C60	C	-0.579550	1.165094	-0.068130
C61	C	-0.597640	1.119198	0.000018
H62	H	-0.623630	1.202151	-0.068122
H63	H	-0.591807	1.133962	-0.114356
H64	H	-0.510945	1.190305	-0.068121
H65	H	-0.666243	1.093982	0.000006
H66	H	-0.585391	1.150334	0.046255
H67	H	0.138838	0.550285	0.131125
H68	H	-0.510306	0.730007	-0.000005
C69	C	-0.686724	0.778363	0.068134
C70	C	-0.658214	0.822362	-0.000012
H71	H	-0.758289	0.762375	0.068121
H72	H	-0.667404	0.808207	0.114361
H73	H	-0.653827	0.734660	0.068129
H74	H	-0.691105	0.866068	-0.000004
H75	H	-0.677545	0.792517	-0.046250
H76	H	0.011443	0.990000	-0.634274
C77	C	0.043644	0.149328	0.195488
C78	C	0.130119	0.139885	0.151724
H79	H	0.043074	0.122429	0.244536
H80	H	-0.015559	0.129727	0.165798
H81	H	0.044783	0.202233	0.205820
H82	H	0.128976	0.086980	0.141387
H83	H	0.189337	0.159483	0.181421
H84	H	0.260821	0.855312	-0.785702
H85	H	-0.339910	0.698954	-0.000012
C86	C	-0.028951	0.763292	-0.000009
C87	C	-0.130068	0.726114	-0.000006
H88	H	0.015128	0.726234	-0.000019
H89	H	-0.016701	0.794416	0.046223
H90	H	-0.016699	0.794430	-0.046242
H91	H	-0.142321	0.694981	0.046231
H92	H	-0.142322	0.694977	-0.046242
H93	H	0.011431	0.989998	-0.785675
C94	C	-0.068439	1.033166	-0.256624
C95	C	-0.008114	1.000586	-0.202381
H96	H	-0.115075	1.058359	-0.228305
H97	H	-0.104840	0.994077	-0.289167
H98	H	-0.026310	1.069169	-0.289179
H99	H	-0.050242	0.964579	-0.169830
H100	H	0.028289	1.039680	-0.169825
H101	H	0.133430	0.295044	0.131124
H102	H	0.260853	0.855332	-0.365704
H103	H	0.130384	0.151181	-0.131114
H104	H	0.260837	0.855320	-0.634309
C105	C	0.340757	0.812161	-0.256664
C106	C	0.280442	0.844748	-0.202411
H107	H	0.387391	0.786966	-0.228353
H108	H	0.377160	0.851247	-0.289216
H109	H	0.298622	0.776160	-0.289209
H110	H	0.322576	0.880753	-0.169870
H111	H	0.244036	0.805657	-0.169846
C112	C	-0.316361	1.186242	-0.068122
C113	C	-0.376264	1.168641	0.000026
H114	H	-0.288874	1.239281	-0.068116
H115	H	-0.356987	1.174301	-0.114347
H116	H	-0.262585	1.157089	-0.068114
H117	H	-0.430045	1.197791	0.000015
H118	H	-0.335636	1.180591	0.046263
C119	C	0.141046	0.653893	0.215149
C120	C	0.142156	0.705445	0.151718
H121	H	0.141602	0.680796	0.264193
H122	H	0.199325	0.629569	0.212145
H123	H	0.081447	0.616359	0.212134
H124	H	0.201760	0.742976	0.154730
H125	H	0.083872	0.729781	0.154724
C126	C	0.136984	0.461011	-0.136445
C127	C	0.138636	0.538986	-0.151705
H128	H	0.136426	0.434109	-0.185490
H129	H	0.077770	0.441415	-0.106757
H130	H	0.195648	0.454627	-0.106751
H131	H	0.079968	0.545370	-0.181395
H132	H	0.197857	0.558587	-0.181406
H133	H	-0.269957	1.047307	0.000024
C134	C	-0.070561	0.947036	-0.425144
C135	C	-0.008525	1.000344	-0.377380
H136	H	-0.117570	0.972007	-0.453290
H137	H	-0.106538	0.907869	-0.392460
H138	H	-0.029644	0.925090	-0.462083
H139	H	-0.049442	1.022287	-0.340436
H140	H	0.027455	1.039526	-0.410066
