data_functionalizedCrystal
_audit_creation_method	'MofGen! by Chris Wilmer'
_symmetry_space_group_name_H-M	'P1'
_symmetry_Int_Tables_number	1
_symmetry_cell_setting	triclinic
loop_
_symmetry_equiv_pos_as_xyz
  x,y,z
_cell_length_a	12.477989
_cell_length_b	20.875641
_cell_length_c	20.875625
_cell_angle_alpha	59.251205
_cell_angle_beta	92.958840
_cell_angle_gamma	66.703135
loop_
_atom_site_label
_atom_site_type_symbol
_atom_site_fract_x
_atom_site_fract_y
_atom_site_fract_z
Zr1	Zr	1.005726	0.780719	-0.152125
O2	O	0.843229	0.901839	-0.252641
O3	O	1.050450	0.650396	-0.117693
O4	O	1.046839	0.783935	-0.256273
O5	O	0.855479	0.768974	-0.008864
O6	O	1.213240	0.796941	-0.263253
O7	O	0.846840	0.768300	-0.114062
O8	O	1.219700	0.558064	-0.015359
O9	O	0.849020	1.007851	-0.256757
O10	O	1.199858	0.717115	-0.112589
O11	O	1.082121	0.707911	-0.028872
O12	O	1.077870	0.865136	-0.192031
O13	O	0.960133	0.855932	-0.108314
Zr14	Zr	1.284895	0.802536	0.004522
Zr15	Zr	1.271117	0.801462	-0.163257
Zr16	Zr	1.019504	0.781793	0.015654
Zr17	Zr	1.014961	0.949795	-0.158689
Zr18	Zr	1.275660	0.633461	0.011086
O19	O	1.240171	0.932860	-0.029910
O20	O	1.220581	0.931333	-0.268470
O21	O	0.862820	0.903366	-0.014081
O22	O	1.447392	0.681416	0.105038
O23	O	1.427802	0.679890	-0.133522
O24	O	1.070041	0.651922	0.120867
O25	O	1.435143	0.814282	-0.138740
O26	O	1.243783	0.799321	0.108669
O27	O	1.077381	0.786315	0.115649
O28	O	1.443781	0.814955	-0.033541
O29	O	1.059970	1.024339	-0.265606
O30	O	1.230652	0.558917	0.118002
O31	O	1.441602	0.575405	0.109154
O32	O	1.430651	0.574552	-0.024208
O33	O	0.859971	1.008704	-0.123395
O34	O	1.070922	1.025192	-0.132244
O35	O	1.212752	0.718120	0.044427
O36	O	1.330488	0.727323	-0.039290
O37	O	1.208500	0.875345	-0.118732
O38	O	1.090764	0.866141	-0.035015
C39	C	1.133759	0.580140	-0.065591
C40	C	1.129839	0.508363	-0.062805
C41	C	1.189451	0.479446	-0.105195
C42	C	1.185771	0.411999	-0.102569
C43	C	1.122471	0.373475	-0.057557
C44	C	1.062857	0.402394	-0.015161
C45	C	1.066545	0.469836	-0.017783
C46	C	1.104857	0.171254	-0.045025
C47	C	1.101171	0.103810	-0.042409
C48	C	1.224087	0.113418	-0.129815
C49	C	1.227763	0.180864	-0.132437
C50	C	1.168155	0.209775	-0.090038
N51	N	1.118704	0.304535	-0.054874
N52	N	1.171929	0.278709	-0.092717
C53	C	0.813347	0.765681	-0.059877
C54	C	0.700682	0.756876	-0.055151
C55	C	1.477274	0.817574	-0.087727
C56	C	1.589940	0.826380	-0.092453
C57	C	1.128077	0.790285	-0.283668
C58	C	1.122228	0.789829	-0.354894
C59	C	1.156862	1.003116	-0.082012
C60	C	1.160783	1.074893	-0.084799
C61	C	1.211151	0.796781	-0.392202
C62	C	1.205658	0.796344	-0.459122
C63	C	1.111236	0.788963	-0.488738
C64	C	1.022308	0.782008	-0.451424
C65	C	1.027807	0.782438	-0.384501
C66	C	1.084965	0.786902	-0.688473
C67	C	1.079471	0.786475	-0.755402
C68	C	1.262823	0.800810	-0.763095
C69	C	1.268309	0.801245	-0.696174
C70	C	1.179385	0.794286	-0.658863
N71	N	1.105617	0.788519	-0.557143
N72	N	1.185010	0.794723	-0.590456
C73	C	1.162545	0.792971	0.136064
C74	C	1.168394	0.793427	0.207291
C75	C	1.465723	0.606086	-0.079516
C76	C	1.574468	0.543115	-0.081455
C77	C	1.150994	0.581483	0.144275
C78	C	1.152922	0.510162	0.218288
C79	C	1.482957	0.607430	0.130350
C80	C	1.597551	0.544914	0.199637
C81	C	0.807665	0.975826	-0.277953
C82	C	0.693071	1.038341	-0.347240
C83	C	0.824899	0.977169	-0.068087
C84	C	0.716154	1.040141	-0.066148
C85	C	1.139628	1.001773	-0.291878
C86	C	1.137700	1.073094	-0.365891
C87	C	1.557347	0.508214	-0.120634
C88	C	1.659514	0.449055	-0.122472
C89	C	1.778800	0.424793	-0.085126
C90	C	1.795919	0.459700	-0.045946
C91	C	1.693753	0.518863	-0.044113
C92	C	1.222016	0.481998	0.291314
C93	C	1.223825	0.414993	0.360863
C94	C	1.156545	0.376150	0.357385
C95	C	1.087443	0.404320	0.284351
C96	C	1.085628	0.471328	0.214804
C97	C	1.712834	0.520362	0.188475
C98	C	1.820517	0.461632	0.253570
C99	C	1.812915	0.427452	0.329827
C100	C	1.697620	0.452010	0.340988
C101	C	1.589939	0.510743	0.275893
C102	C	0.577788	1.062902	-0.336079
C103	C	0.470106	1.121653	-0.401175
C104	C	0.477708	1.155837	-0.477432
C105	C	0.593003	1.131274	-0.488593
C106	C	0.700683	1.072529	-0.423497
C107	C	0.733274	1.075048	-0.026976
C108	C	0.631107	1.134226	-0.025158
C109	C	0.511821	1.158491	-0.062507
C110	C	0.494702	1.123581	-0.101683
C111	C	0.596868	1.064408	-0.103506
C112	C	1.204992	1.111917	-0.362388
C113	C	1.203205	1.178924	-0.431925
C114	C	1.134116	1.207110	-0.504965
C115	C	1.066821	1.168280	-0.508467
C116	C	1.068617	1.101271	-0.438930
H117	H	1.056326	0.194782	-0.010498
H118	H	1.029368	0.494250	0.155346
O119	O	1.313011	0.804718	-0.360245
H120	H	1.272313	0.863027	-0.360942
H121	H	1.240990	0.510812	-0.141852
H122	H	0.709298	0.690628	-0.019601
H123	H	1.719047	0.548183	0.126388
O124	O	0.345766	1.148118	-0.389121
H125	H	0.339360	1.178184	-0.357343
O126	O	1.288378	0.082237	-0.175543
H127	H	1.275188	0.028866	-0.166157
O128	O	0.569574	1.026043	-0.253834
H129	H	0.471312	1.053009	-0.257022
H130	H	1.278067	0.802004	-0.489498
H131	H	0.390019	1.203670	-0.530430
O132	O	1.929066	0.364096	0.400032
H133	H	1.928544	0.302863	0.437759
H134	H	1.132664	1.261675	-0.561580
O135	O	1.370163	0.809200	-0.664236
H136	H	1.365457	0.870324	-0.709940
H137	H	0.581321	0.892623	-0.128009
O138	O	0.649595	1.171858	0.017112
H139	H	0.558520	1.217089	0.012104
O140	O	1.014918	0.362400	0.280603
H141	H	1.027821	0.311062	0.341236
H142	H	0.599179	1.159114	-0.550689
O143	O	1.358740	0.808306	-0.803329
H144	H	1.339065	0.806759	-0.854837
H145	H	1.914385	0.441643	0.244469
O146	O	1.888991	0.360974	-0.087098
H147	H	1.857033	0.340778	-0.120611
O148	O	1.158537	0.303864	0.432404
H149	H	1.122310	0.326804	0.468443
H150	H	1.707711	0.547272	-0.012204
O151	O	1.689426	0.415129	0.423239
H152	H	1.783676	0.370154	0.466621
O153	O	0.977638	0.778498	-0.787340
H154	H	0.916736	0.773719	-0.750147
H155	H	1.010571	1.191240	-0.567946
H156	H	1.893055	0.439937	-0.015540
H157	H	1.012557	0.781238	-0.658101
H158	H	1.496075	0.530725	0.284993
H159	H	0.794548	1.052532	-0.432595
O160	O	0.920458	0.774051	-0.483363
H161	H	0.931563	0.774930	-0.536173
O162	O	0.931893	0.774946	-0.344260
H163	H	0.865303	0.769749	-0.376100
O164	O	0.996015	1.059408	-0.442713
H165	H	0.947666	1.090278	-0.505186
H166	H	1.279307	0.212230	-0.169089
O167	O	0.861927	1.048897	0.013296
H168	H	0.856647	1.083131	0.040825
O169	O	0.401631	1.222288	-0.060511
H170	H	0.433589	1.242466	-0.026981
H171	H	1.258003	1.210532	-0.429059
O172	O	0.366039	1.149759	-0.141967
H173	H	0.317411	1.133067	-0.097931
O174	O	0.578397	1.026750	-0.145749
H175	H	0.478284	1.053562	-0.171404
H176	H	1.261252	1.088978	-0.302922
H177	H	1.645552	0.420640	-0.154377
O178	O	1.250055	0.380821	-0.148301
H179	H	1.349950	0.358047	-0.127617
O180	O	1.032913	0.062244	0.006154
H181	H	0.992098	0.093669	0.035205
H182	H	1.460227	0.527968	-0.151057
H183	H	1.276804	0.513617	0.294161
O184	O	1.298384	0.384608	0.439626
H185	H	1.264600	0.438343	0.445797
O186	O	0.994569	0.360854	0.033382
H187	H	1.059654	0.291861	0.078819
O188	O	1.002243	0.501035	0.027932
H189	H	0.957595	0.462923	0.059666
