data_functionalizedCrystal
_audit_creation_method	'MofGen! by Chris Wilmer'
_symmetry_space_group_name_H-M	'P1'
_symmetry_Int_Tables_number	1
_symmetry_cell_setting	triclinic
loop_
_symmetry_equiv_pos_as_xyz
  x,y,z
_cell_length_a	21.395362
_cell_length_b	16.959454
_cell_length_c	21.395355
_cell_angle_alpha	90.012996
_cell_angle_beta	90.043940
_cell_angle_gamma	90.035955
loop_
_atom_site_label
_atom_site_type_symbol
_atom_site_fract_x
_atom_site_fract_y
_atom_site_fract_z
Zn1	Zn	0.957906	-0.314438	0.354610
Zn2	Zn	0.957828	-0.446599	0.249842
Zn3	Zn	0.853121	-0.314475	0.249811
Zn4	Zn	0.853109	-0.446615	0.354547
O5	O	0.905491	-0.380532	0.302202
O6	O	1.045573	-0.331947	0.340751
O7	O	0.943910	-0.429081	0.162160
O8	O	0.867058	-0.203859	0.263726
O9	O	1.045516	-0.429045	0.263779
O10	O	0.944043	-0.203832	0.340721
O11	O	0.866982	-0.332010	0.162137
O12	O	0.765441	-0.332026	0.263665
O13	O	0.867039	-0.429073	0.442233
O14	O	0.765433	-0.429109	0.340614
O15	O	0.944032	-0.331963	0.442279
O16	O	0.943899	-0.557212	0.263718
O17	O	0.866963	-0.557224	0.340645
C18	C	0.742703	-0.380574	0.302130
C19	C	0.673062	-0.380610	0.302114
C20	C	0.640361	-0.431228	0.342121
C21	C	0.574925	-0.431209	0.342149
C22	C	0.542194	-0.380580	0.302158
C23	C	0.574903	-0.329952	0.262148
C24	C	0.640337	-0.329967	0.262126
C25	C	0.438468	-0.374212	0.245752
C26	C	0.373035	-0.374203	0.245774
C27	C	0.340373	-0.380528	0.302227
C28	C	0.373152	-0.386881	0.358661
C29	C	0.438586	-0.386896	0.358639
C30	C	0.471241	-0.380557	0.302178
C31	C	0.236719	-0.431128	0.342268
C32	C	0.171283	-0.431103	0.342297
C33	C	0.171261	-0.329850	0.262291
C34	C	0.236697	-0.329871	0.262267
C35	C	0.269422	-0.380514	0.302255
C36	C	0.905438	-0.585898	0.302192
C37	C	0.905473	-0.673755	0.302208
C38	C	0.865488	-1.045266	0.342254
C39	C	0.945668	-1.045194	0.262215
C40	C	0.945646	-0.962648	0.262209
C41	C	0.905544	-0.921407	0.302226
C42	C	0.865464	-0.962713	0.342248
C43	C	0.985721	-0.921337	0.222184
C44	C	0.985700	-0.838786	0.222176
C45	C	0.945601	-0.797544	0.262196
C46	C	0.905520	-0.838854	0.302220
C47	C	0.865418	-0.797613	0.342236
C48	C	0.825339	-0.838922	0.382264
C49	C	0.825365	-0.921471	0.382268
C50	C	0.945575	-0.714995	0.262192
C51	C	0.865393	-0.715060	0.342230
C52	C	1.068914	-0.380490	0.302276
C53	C	1.138555	-0.380473	0.302307
C54	C	0.905543	-0.380516	0.465626
C55	C	0.905565	-0.380509	0.535267
C56	C	0.905561	-0.174363	0.302227
C57	C	0.905590	-0.086507	0.302237
C58	C	0.905475	-0.380491	0.139415
C59	C	0.905574	-0.380275	0.069774
C60	C	0.945654	-0.329942	0.568005
C61	C	0.945653	-0.329908	0.633441
C62	C	0.905570	-0.380455	0.666135
C63	C	0.865473	-0.431026	0.633389
C64	C	0.865471	-0.431053	0.567955
C65	C	0.900604	-0.451628	0.769805
C66	C	0.900611	-0.451602	0.835238
C67	C	0.905574	-0.380371	0.867956
C68	C	0.910543	-0.309164	0.835234
C69	C	0.910540	-0.309191	0.769800
C70	C	0.905568	-0.380431	0.737088
C71	C	0.945664	-0.329763	0.971647
C72	C	0.945659	-0.329728	1.037084
C73	C	0.865482	-0.430853	1.037031
C74	C	0.865484	-0.430881	0.971596
C75	C	0.905578	-0.380337	0.938908
H76	H	0.144659	-0.472321	0.374880
C77	C	0.538903	-0.274260	0.218159
H78	H	0.567753	-0.244110	0.194331
H79	H	0.513328	-0.304437	0.190826
H80	H	0.513427	-0.239857	0.242187
C81	C	0.989775	-1.090552	0.218198
H82	H	1.013638	-1.054128	0.194358
H83	H	1.017070	-1.122715	0.242200
H84	H	0.965824	-1.122791	0.190867
C85	C	0.989765	-0.274111	1.073099
H86	H	0.984022	-0.281329	1.116751
H87	H	1.031855	-0.285687	1.062405
H88	H	0.980620	-0.221003	1.062366
H89	H	1.018335	-0.805157	0.189584
C90	C	0.821283	-0.669698	0.386249
H91	H	0.827009	-0.614618	0.380517
H92	H	0.779193	-0.683285	0.377032
H93	H	0.830443	-0.683197	0.428361
C94	C	0.821391	-0.486512	0.935582
H95	H	0.797521	-0.516616	0.964424
H96	H	0.794101	-0.456293	0.910033
H97	H	0.845349	-0.520960	0.910078
C98	C	0.676309	-0.274290	0.218112
H99	H	0.647446	-0.244135	0.194296
H100	H	0.701887	-0.239903	0.242116
H101	H	0.701782	-0.304488	0.190760
C102	C	1.029827	-0.966697	0.178166
H103	H	1.053687	-0.930274	0.154323
H104	H	1.057125	-0.998855	0.202169
H105	H	1.005876	-0.998940	0.150840
H106	H	0.896569	-0.509584	0.861875
H107	H	0.548295	-0.472428	0.374730
H108	H	0.792685	-0.805335	0.414843
H109	H	0.896396	-0.509618	0.743171
H110	H	0.792734	-0.955112	0.414855
C111	C	0.821404	-1.090701	0.386279
H112	H	0.827157	-1.145771	0.380551
H113	H	0.830546	-1.077140	0.428387
H114	H	0.779305	-1.077229	0.377049
H115	H	0.978297	-0.288725	0.660101
C116	C	0.915995	-0.230869	0.733807
H117	H	0.918947	-0.188439	0.762660
H118	H	0.952310	-0.231894	0.708305
H119	H	0.880082	-0.223949	0.708258
H120	H	0.832835	-0.472179	0.660014
H121	H	0.465056	-0.369058	0.199778
C122	C	0.989748	-0.274339	0.532049
H123	H	0.984009	-0.281599	0.488389
H124	H	0.980597	-0.221229	0.542764
H125	H	1.031844	-0.285897	0.542803
C126	C	0.135264	-0.274149	0.218310
H127	H	0.091610	-0.281389	0.224052
H128	H	0.146037	-0.221064	0.227553
H129	H	0.145929	-0.285639	0.176188
C130	C	0.821380	-0.486690	0.531942
H131	H	0.797510	-0.516795	0.560783
H132	H	0.794090	-0.456479	0.506388
H133	H	0.845346	-0.521137	0.506443
H134	H	0.914585	-0.251161	0.861872
C135	C	0.989754	-0.274155	0.935687
H136	H	1.013622	-0.244023	0.964560
H137	H	1.017045	-0.304389	0.910183
H138	H	0.965788	-0.239733	0.910143
C139	C	0.989656	-0.669559	0.218168
H140	H	1.013543	-0.705943	0.194338
H141	H	0.965692	-0.637394	0.190838
H142	H	1.016939	-0.637316	0.242171
H143	H	0.832839	-0.472002	1.063651
H144	H	0.465272	-0.392066	0.404590
C145	C	0.676355	-0.486925	0.386113
H146	H	0.647504	-0.517063	0.409948
H147	H	0.701835	-0.521326	0.362094
H148	H	0.701927	-0.456738	0.413448
H149	H	0.263322	-0.288656	0.229686
H150	H	0.346560	-0.392030	0.404632
H151	H	0.263366	-0.472361	0.374832
H152	H	0.346351	-0.369035	0.199822
