data_functionalizedCrystal
_audit_creation_method	'MofGen! by Chris Wilmer'
_symmetry_space_group_name_H-M	'P1'
_symmetry_Int_Tables_number	1
_symmetry_cell_setting	triclinic
loop_
_symmetry_equiv_pos_as_xyz
  x,y,z
_cell_length_a	16.120530
_cell_length_b	12.759399
_cell_length_c	12.759393
_cell_angle_alpha	89.969094
_cell_angle_beta	92.920001
_cell_angle_gamma	92.889229
loop_
_atom_site_label
_atom_site_type_symbol
_atom_site_fract_x
_atom_site_fract_y
_atom_site_fract_z
Zn1	Zn	1.274633	0.499768	0.675423
Zn2	Zn	1.274545	0.675478	0.499736
Zn3	Zn	1.135207	0.490899	0.490853
Zn4	Zn	1.135200	0.666484	0.666474
O5	O	1.204896	0.583157	0.583121
O6	O	1.391288	0.530552	0.659580
O7	O	1.256028	0.651045	0.351534
O8	O	1.153742	0.345057	0.515364
O9	O	1.391224	0.659645	0.530504
O10	O	1.256177	0.351573	0.650967
O11	O	1.153657	0.515435	0.345008
O12	O	1.018539	0.506715	0.506687
O13	O	1.153729	0.644317	0.814684
O14	O	1.018534	0.635717	0.635715
O15	O	1.256170	0.521831	0.821259
O16	O	1.256021	0.821303	0.521826
O17	O	1.153644	0.814696	0.644328
C18	C	1.204845	0.856121	0.583094
C19	C	1.204900	0.972901	0.583123
C20	C	0.988286	0.569278	0.569266
C21	C	0.895619	0.563366	0.563364
C22	C	1.204959	0.583060	0.857159
C23	C	1.204985	0.583019	0.973937
C24	C	0.725956	0.552547	0.552597
C25	C	0.684677	0.613845	0.613722
C26	C	0.590271	0.607825	0.607731
C27	C	0.820371	0.558565	0.558587
C28	C	1.422352	0.597091	0.597031
C29	C	1.515019	0.603029	0.602958
C30	C	1.204970	0.309129	0.583173
C31	C	1.205002	0.192354	0.583195
C32	C	1.258268	1.031173	0.519416
C33	C	1.258322	1.140900	0.519455
C34	C	1.151631	1.134075	0.646909
C35	C	1.151582	1.024349	0.646875
C36	C	1.204882	0.583181	0.310153
C37	C	1.205017	0.582937	0.193386
C38	C	1.258330	0.519230	1.032225
C39	C	1.258344	0.519186	1.141950
C40	C	1.151666	0.646728	1.135090
C41	C	1.151648	0.646766	1.025367
H42	H	0.690396	0.495553	0.495772
O43	O	1.099777	0.967855	0.708911
C44	C	1.059259	0.931530	0.884985
C45	C	1.117960	0.995595	0.814851
H46	H	1.073950	0.953919	0.970653
H47	H	0.992036	0.948903	0.862264
H48	H	1.068373	0.844275	0.873957
H49	H	1.108920	1.082869	0.825843
H50	H	1.185162	0.978134	0.837589
O51	O	0.727005	0.681992	0.681458
C52	C	0.753883	0.862453	0.733757
C53	C	0.705875	0.785392	0.657002
H54	H	0.736830	0.946071	0.713998
H55	H	0.736851	0.843136	0.817466
H56	H	0.823563	0.855200	0.726585
H57	H	0.636184	0.792603	0.664080
H58	H	0.722976	0.804732	0.573325
O59	O	1.310140	0.981363	0.457467
C60	C	1.415933	0.999717	0.331008
C61	C	1.357242	1.056256	0.401134
H62	H	1.454018	1.060242	0.285429
H63	H	1.459541	0.951080	0.382010
H64	H	1.377642	0.945956	0.273615
H65	H	1.395466	1.110070	0.458538
H66	H	1.313632	1.104827	0.350067
H67	H	1.108243	0.698631	1.176978
O68	O	1.310296	1.197528	0.457759
C69	C	1.422968	1.328448	0.451080
C70	C	1.364138	1.264389	0.521053
H71	H	1.466503	1.382537	0.502223
H72	H	1.461124	1.272838	0.405577
H73	H	1.384784	1.377447	0.393618
H74	H	1.402258	1.215384	0.578574
H75	H	1.325980	1.320055	0.566482
H76	H	1.301758	0.467320	0.990354
O77	O	1.310244	0.457195	1.198412
C78	C	1.416020	0.330652	1.193627
C79	C	1.357299	0.400828	1.129558
H80	H	1.454066	0.285045	1.137985
H81	H	1.459662	0.381616	1.247758
H82	H	1.377755	0.273286	1.242580
H83	H	1.395496	0.458205	1.080544
H84	H	1.313655	0.349799	1.075493
H85	H	1.108203	0.698709	0.977907
H86	H	1.108221	1.175977	0.698812
