data_functionalizedCrystal
_audit_creation_method	'MofGen! by Chris Wilmer'
_symmetry_space_group_name_H-M	'P1'
_symmetry_Int_Tables_number	1
_symmetry_cell_setting	triclinic
loop_
_symmetry_equiv_pos_as_xyz
  x,y,z
_cell_length_a	10.686220
_cell_length_b	12.594516
_cell_length_c	10.685880
_cell_angle_alpha	94.341733
_cell_angle_beta	89.641569
_cell_angle_gamma	94.397503
loop_
_atom_site_label
_atom_site_type_symbol
_atom_site_fract_x
_atom_site_fract_y
_atom_site_fract_z
Zn1	Zn	1.972249	-0.332254	-0.562388
Zn2	Zn	1.956029	-0.497766	-0.352643
Zn3	Zn	1.746379	-0.334424	-0.368710
Zn4	Zn	1.762446	-0.524820	-0.578416
O5	O	1.859276	-0.422316	-0.465539
O6	O	2.145641	-0.341980	-0.521133
O7	O	1.914706	-0.465684	-0.179233
O8	O	1.776405	-0.185187	-0.394419
O9	O	2.133723	-0.463580	-0.367034
O10	O	1.942351	-0.183593	-0.536713
O11	O	1.760677	-0.345677	-0.191038
O12	O	1.572967	-0.371910	-0.409961
O13	O	1.803789	-0.509690	-0.751831
O14	O	1.584772	-0.511794	-0.564030
O15	O	1.957931	-0.368213	-0.740056
O16	O	1.930285	-0.650304	-0.382576
O17	O	1.788061	-0.670180	-0.548450
C18	C	1.533353	-0.445024	-0.490479
C19	C	1.393924	-0.454766	-0.501178
C20	C	1.859193	-0.698862	-0.465533
C21	C	1.859275	-0.817164	-0.465564
C22	C	1.781906	-0.897264	-0.555725
C23	C	1.742561	-0.963435	-0.443599
C24	C	1.898736	-0.961785	-0.577700
C25	C	1.819864	-0.881778	-0.353383
C26	C	1.976099	-0.880122	-0.487556
C27	C	1.936791	-0.946254	-0.375349
C28	C	2.186471	-0.399520	-0.440503
C29	C	2.325902	-0.389806	-0.429834
C30	C	1.884462	-0.441728	-0.792732
C31	C	1.895194	-0.450000	-0.932162
C32	C	1.859395	-0.144689	-0.465570
C33	C	1.859447	-0.026381	-0.465583
C34	C	1.834260	-0.402898	-0.139614
C35	C	1.823770	-0.394309	-0.000166
H36	H	1.345487	-0.517843	-0.570441
C37	C	1.731188	-0.322462	-0.935422
C38	C	1.645051	-0.383918	-0.866324
C39	C	1.559755	-0.317767	-0.806645
H40	H	1.687689	-0.288608	-0.996643
H41	H	1.775263	-0.269760	-0.880566
H42	H	1.600981	-0.436601	-0.921175
H43	H	1.688514	-0.417771	-0.805083
H44	H	1.603830	-0.265065	-0.751789
H45	H	1.516265	-0.283916	-0.867874
H46	H	1.501309	-0.359454	-0.759746
H47	H	1.716344	-0.875397	-0.631878
H48	H	1.964564	-0.504012	-0.980615
H49	H	2.074797	-0.843715	-0.506195
H50	H	2.002286	-0.967918	-0.299029
C51	C	1.611030	-1.012162	-0.418747
C52	C	1.613097	-1.123129	-0.417931
C53	C	1.491957	-1.168047	-0.395035
H54	H	1.555984	-0.995789	-0.482816
H55	H	1.582508	-0.983742	-0.339679
H56	H	1.641602	-1.151539	-0.496989
H57	H	1.668118	-1.139532	-0.353863
H58	H	1.463435	-1.139626	-0.315967
H59	H	1.436920	-1.151666	-0.459107
H60	H	1.493345	-1.243341	-0.394467
C61	C	1.775059	-0.835274	-0.227030
C62	C	1.667139	-0.781643	-0.244119
C63	C	1.625816	-0.738801	-0.127755
H64	H	1.839038	-0.786595	-0.189996
H65	H	1.756230	-0.891281	-0.173540
H66	H	1.685973	-0.725642	-0.297589
H67	H	1.603134	-0.830298	-0.281133
H68	H	1.606988	-0.794808	-0.074265
H69	H	1.689804	-0.690127	-0.090731
H70	H	1.552583	-0.702416	-0.139333
C71	C	1.390389	-0.305831	-0.337269
C72	C	1.349045	-0.323693	-0.215517
C73	C	1.408443	-0.246366	-0.130210
H74	H	1.370458	-0.236862	-0.357218
H75	H	1.478667	-0.310243	-0.342027
H76	H	1.260787	-0.319271	-0.210763
H77	H	1.368976	-0.392647	-0.195529
H78	H	1.496721	-0.250778	-0.134969
H79	H	1.388508	-0.177402	-0.150171
H80	H	1.380409	-0.258480	-0.047592
C81	C	1.942992	-1.008315	-0.704258
C82	C	1.861576	-0.983828	-0.798274
C83	C	1.902303	-1.026658	-0.914878
H84	H	1.943462	-1.083637	-0.703287
H85	H	2.025376	-0.978636	-0.720560
H86	H	1.779213	-1.013511	-0.781975
H87	H	1.861096	-0.908514	-0.799284
H88	H	1.984687	-0.996979	-0.931181
H89	H	1.902773	-1.101979	-0.913894
H90	H	1.847076	-1.010042	-0.978683
