data_functionalizedCrystal
_audit_creation_method	'MofGen! by Chris Wilmer'
_symmetry_space_group_name_H-M	'P1'
_symmetry_Int_Tables_number	1
_symmetry_cell_setting	triclinic
loop_
_symmetry_equiv_pos_as_xyz
  x,y,z
_cell_length_a	23.196402
_cell_length_b	23.196402
_cell_length_c	23.196401
_cell_angle_alpha	60.007332
_cell_angle_beta	90.011712
_cell_angle_gamma	60.004007
loop_
_atom_site_label
_atom_site_type_symbol
_atom_site_fract_x
_atom_site_fract_y
_atom_site_fract_z
Zr1	Zr	0.555407	0.630986	-0.075650
O2	O	0.463347	0.751247	-0.167694
O3	O	0.583620	0.510725	-0.047437
O4	O	0.583604	0.630988	-0.167703
O5	O	0.463387	0.630983	0.047443
O6	O	0.678474	0.630989	-0.167706
O7	O	0.463364	0.630984	-0.047428
O8	O	0.678503	0.415861	0.047428
O9	O	0.463357	0.846111	-0.167691
O10	O	0.666463	0.560191	-0.035403
O11	O	0.595680	0.560189	0.035401
O12	O	0.595660	0.701783	-0.106197
O13	O	0.524877	0.701781	-0.035393
Zr14	Zr	0.706750	0.630986	0.075653
Zr15	Zr	0.706714	0.630988	-0.075655
Zr16	Zr	0.555444	0.630984	0.075659
Zr17	Zr	0.555423	0.782283	-0.075645
Zr18	Zr	0.706735	0.479689	0.075648
O19	O	0.678537	0.751247	0.047440
O20	O	0.678486	0.751251	-0.167702
O21	O	0.463399	0.751244	0.047448
O22	O	0.798810	0.510725	0.167697
O23	O	0.798759	0.510728	-0.047444
O24	O	0.583672	0.510722	0.167705
O25	O	0.798771	0.630989	-0.047440
O26	O	0.678554	0.630984	0.167706
O27	O	0.583684	0.630983	0.167709
O28	O	0.798794	0.630988	0.047431
O29	O	0.583625	0.846113	-0.167695
O30	O	0.678532	0.415859	0.167698
O31	O	0.798801	0.415861	0.167694
O32	O	0.798772	0.415863	0.047423
O33	O	0.463386	0.846109	-0.047420
O34	O	0.583654	0.846111	-0.047424
O35	O	0.666497	0.560189	0.106200
O36	O	0.737281	0.560191	0.035396
O37	O	0.666478	0.701783	-0.035398
O38	O	0.595694	0.701781	0.035406
C39	C	0.631060	0.441736	-0.000005
C40	C	0.631053	0.377507	-0.000008
C41	C	0.683331	0.295078	0.052251
C42	C	0.683336	0.234718	0.052257
C43	C	0.631068	0.256791	-0.000006
C44	C	0.578781	0.339233	-0.052269
C45	C	0.578774	0.399591	-0.052270
C46	C	0.614780	0.201204	-0.063797
C47	C	0.614792	0.140845	-0.063796
C48	C	0.631087	0.070629	-0.000003
C49	C	0.647385	0.060770	0.063794
C50	C	0.647378	0.121127	0.063793
C51	C	0.631070	0.191349	-0.000010
C52	C	0.683373	-0.077253	0.052267
C53	C	0.683373	-0.137612	0.052274
C54	C	0.578821	-0.033094	-0.052258
C55	C	0.578819	0.027263	-0.052259
C56	C	0.631098	0.005178	0.000003
C57	C	0.441817	0.630983	0.000008
C58	C	0.377584	0.630982	0.000010
C59	C	0.384367	0.557075	0.036957
C60	C	0.324013	0.557074	0.036960
C61	C	0.256875	0.630984	0.000003
C62	C	0.250095	0.704901	-0.036946
C63	C	0.310449	0.704900	-0.036942
C64	C	0.132937	0.687610	-0.061906
C65	C	0.072586	0.687608	-0.061912
C66	C	0.070722	0.630990	-0.000008
C67	C	0.129223	0.574361	0.061901
C68	C	0.189577	0.574360	0.061905
C69	C	0.191427	0.630994	-0.000005
C70	C	0.012064	0.557077	0.036945
C71	C	-0.048293	0.557079	0.036950
C72	C	-0.122211	0.704908	-0.036963
C73	C	-0.061854	0.704904	-0.036961
C74	C	0.005281	0.630986	-0.000009
C75	C	0.820340	0.630989	-0.000005
C76	C	0.884574	0.630990	-0.000007
C77	C	0.631034	0.630989	-0.189263
C78	C	0.631018	0.630990	-0.253497
C79	C	0.631098	0.820236	0.000009
C80	C	0.631104	0.884466	0.000011
C81	C	0.594063	0.704897	-0.320624
C82	C	0.594081	0.704898	-0.380979
C83	C	0.631044	0.630988	-0.374204
C84	C	0.668008	0.557071	-0.307065
C85	C	0.667994	0.557072	-0.246712
C86	C	0.625789	0.574362	-0.441523
C87	C	0.625797	0.574364	-0.501876
C88	C	0.631089	0.630982	-0.560351
C89	C	0.636359	0.687611	-0.558472
C90	C	0.636346	0.687612	-0.498119
C91	C	0.631063	0.630979	-0.439642
C92	C	0.594152	0.704895	-0.692925
C93	C	0.594175	0.704893	-0.753280
C94	C	0.668096	0.557064	-0.679363
C95	C	0.668078	0.557068	-0.619010
C96	C	0.631102	0.630986	-0.625796
C97	C	0.631124	0.630983	0.189266
C98	C	0.631139	0.630982	0.253501
C99	C	0.820321	0.441739	-0.000012
C100	C	0.884548	0.377511	-0.000017
C101	C	0.631105	0.441733	0.189259
C102	C	0.631114	0.377503	0.253491
C103	C	0.820366	0.441736	0.189252
C104	C	0.884609	0.377507	0.253482
C105	C	0.441791	0.820236	-0.189249
C106	C	0.377549	0.884466	-0.253479
C107	C	0.441836	0.820233	0.000015
C108	C	0.377609	0.884462	0.000020
C109	C	0.631053	0.820239	-0.189256
C110	C	0.631044	0.884470	-0.253488
C111	C	0.877744	0.347348	-0.036982
C112	C	0.938087	0.287007	-0.037000
C113	C	1.005232	0.256825	-0.000049
C114	C	1.012035	0.286993	0.036917
C115	C	0.951693	0.347338	0.036931
C116	C	0.668084	0.347339	0.320618
C117	C	0.668090	0.286996	0.380977
C118	C	0.631129	0.256814	0.374207
C119	C	0.594154	0.286983	0.307073
C120	C	0.594145	0.347329	0.246716
C121	C	0.951732	0.347345	0.246686
C122	C	1.012101	0.287003	0.307032
C123	C	1.005344	0.256819	0.374172
C124	C	0.938214	0.286987	0.380966
C125	C	0.877847	0.347332	0.320622
C126	C	0.310425	0.914635	-0.246683
C127	C	0.250057	0.974996	-0.307028
C128	C	0.256813	1.005182	-0.374169
C129	C	0.323944	0.975011	-0.380963
C130	C	0.384311	0.914655	-0.320619
C131	C	0.384414	0.914630	0.036978
C132	C	0.324071	0.974988	0.036980
C133	C	0.256925	1.005172	0.000027
C134	C	0.250122	0.975001	-0.036936
C135	C	0.310464	0.914648	-0.036941
C136	C	0.668012	0.914633	-0.246696
C137	C	0.668017	0.974977	-0.307043
C138	C	0.631050	1.005160	-0.374182
C139	C	0.594081	0.974990	-0.380972
C140	C	0.594080	0.914643	-0.320626
H141	H	0.536200	0.466712	-0.094825
Br142	Br	0.174879	1.087095	-0.456059
H143	H	1.054505	0.207682	0.423302
H144	H	0.932723	0.262403	0.435640
Br145	Br	1.103168	0.246021	0.087064
H146	H	0.329624	0.999544	0.067083
Br147	Br	0.301242	0.805211	-0.087087
H148	H	0.564062	0.262399	0.301572
Br149	Br	0.543969	0.388254	0.155617
Br150	Br	0.960941	0.388261	0.087107
Br151	Br	0.718190	1.015911	-0.297810
Br152	Br	1.087119	0.174928	-0.000075
Br153	Br	0.158960	1.015928	-0.297791
Br154	Br	0.135455	0.764461	-0.145925
H155	H	0.698194	0.496884	-0.673845
Br156	Br	0.718220	0.456759	-0.527904
Br157	Br	0.786753	0.388255	0.329858
H158	H	0.536263	-0.015120	-0.094811
Br159	Br	0.631058	1.087061	-0.456074
H160	H	0.563984	0.999574	-0.435645
H161	H	0.932534	0.262451	-0.067102
H162	H	0.621502	0.528256	-0.503401
Br163	Br	0.960922	0.388299	0.155575
Br164	Br	0.475405	0.873714	-0.329854
H165	H	0.698104	0.496893	-0.301552
Br166	Br	0.475533	0.873682	0.087133
H167	H	0.207797	1.054315	0.000038
Br168	Br	0.718187	0.873684	-0.155586
H169	H	1.066756	0.262446	0.301487
Br170	Br	0.544023	0.805205	-0.844386
Br171	Br	0.301236	0.873678	-0.155572
H172	H	0.698182	0.371907	0.326143
Br173	Br	0.333102	1.015985	-0.472088
H174	H	0.536252	0.094382	-0.094818
H175	H	0.621474	0.528257	-0.393914
H176	H	0.195427	0.765080	-0.067037
Br177	Br	0.158990	1.015972	-0.087081
Br178	Br	0.301217	0.873709	-0.087101
H179	H	0.640665	0.733718	-0.606085
Br180	Br	0.718274	0.246064	0.472078
H181	H	0.563973	0.890091	-0.326166
H182	H	0.631142	0.207676	0.423360
H183	H	0.725907	0.167592	0.094815
Br184	Br	0.669496	0.107749	0.150370
Br185	Br	0.754276	0.265104	0.123182
H186	H	0.660649	0.003600	0.115741
Br187	Br	0.786625	0.388298	-0.087138
Br188	Br	0.754321	-0.107219	0.123193
H189	H	0.439027	0.496885	0.067042
H190	H	0.601524	0.148878	-0.115744
Br191	Br	0.754321	-0.249488	0.123210
H192	H	0.536224	0.357202	-0.094822
Br193	Br	0.333213	0.456764	0.087103
Br194	Br	0.592660	0.296498	-0.150382
H195	H	0.237206	0.528254	0.112314
Br196	Br	0.718148	0.456761	-0.155604
Br197	Br	0.126708	0.497508	0.145916
H198	H	0.066729	0.496888	0.067049
H199	H	-0.042763	0.496892	0.067041
Br200	Br	-0.071059	0.805213	-0.087109
Br201	Br	-0.006805	0.764466	-0.145928
Br202	Br	-0.213320	0.805218	-0.087113
H203	H	0.563986	0.765085	-0.435644
Br204	Br	0.643496	0.764462	-0.495568
Br205	Br	0.543863	0.805214	-0.329835
H206	H	0.564044	0.765084	-0.698450
