data_functionalizedCrystal
_audit_creation_method	'MofGen! by Chris Wilmer'
_symmetry_space_group_name_H-M	'P1'
_symmetry_Int_Tables_number	1
_symmetry_cell_setting	triclinic
loop_
_symmetry_equiv_pos_as_xyz
  x,y,z
_cell_length_a	18.215407
_cell_length_b	16.120444
_cell_length_c	18.215399
_cell_angle_alpha	92.870532
_cell_angle_beta	89.980167
_cell_angle_gamma	92.927051
loop_
_atom_site_label
_atom_site_type_symbol
_atom_site_fract_x
_atom_site_fract_y
_atom_site_fract_z
Zn1	Zn	1.110207	-0.331908	-0.430964
Zn2	Zn	1.443541	0.001426	-0.097630
Zn3	Zn	1.776874	0.334759	0.235703
Zn4	Zn	1.103872	-0.471330	-0.314134
Zn5	Zn	1.437205	-0.137997	0.019199
Zn6	Zn	1.770538	0.195337	0.352532
Zn7	Zn	0.987139	-0.331935	-0.307912
Zn8	Zn	1.320472	0.001398	0.025421
Zn9	Zn	1.653805	0.334732	0.358754
Zn10	Zn	0.980864	-0.471284	-0.437157
Zn11	Zn	1.314197	-0.137950	-0.103824
Zn12	Zn	1.647530	0.195383	0.229509
O13	O	1.045520	-0.401614	-0.372542
O14	O	1.378854	-0.068281	-0.039209
O15	O	1.712187	0.265053	0.294125
O16	O	1.212351	-0.350410	-0.415478
O17	O	1.545684	-0.017077	-0.082145
O18	O	1.879017	0.316256	0.251189
O19	O	1.088361	-0.452870	-0.210326
O20	O	1.421695	-0.119536	0.123007
O21	O	1.755028	0.213797	0.456341
O22	O	1.008741	-0.215265	-0.319039
O23	O	1.342075	0.118068	0.014294
O24	O	1.675408	0.451402	0.347627
O25	O	1.207696	-0.452843	-0.329644
O26	O	1.541029	-0.119510	0.003689
O27	O	1.874363	0.213823	0.337023
O28	O	1.099160	-0.215245	-0.409445
O29	O	1.432493	0.118088	-0.076111
O30	O	1.765826	0.451422	0.257222
O31	O	1.002598	-0.350457	-0.205755
O32	O	1.335931	-0.017124	0.127579
O33	O	1.669265	0.316210	0.460912
O34	O	0.883322	-0.350412	-0.325045
O35	O	1.216656	-0.017079	0.008288
O36	O	1.549989	0.316255	0.341622
O37	O	0.998047	-0.452764	-0.539319
O38	O	1.331380	-0.119431	-0.205985
O39	O	1.664713	0.213902	0.127348
O40	O	0.878712	-0.452791	-0.420001
O41	O	1.212045	-0.119457	-0.086667
O42	O	1.545379	0.213876	0.246666
O43	O	1.093075	-0.350365	-0.534768
O44	O	1.426408	-0.017032	-0.201435
O45	O	1.759742	0.316301	0.131898
O46	O	1.082277	-0.587990	-0.335650
O47	O	1.415610	-0.254657	-0.002316
O48	O	1.748943	0.078676	0.331017
O49	O	0.991903	-0.587956	-0.426034
O50	O	1.325237	-0.254623	-0.092701
O51	O	1.658570	0.078711	0.240633
C52	C	0.854315	-0.401600	-0.372520
C53	C	1.187648	-0.068267	-0.039187
C54	C	1.520981	0.265067	0.294147
C55	C	0.772515	-0.401614	-0.372529
C56	C	1.105848	-0.068280	-0.039196
C57	C	1.439182	0.265053	0.294137
C58	C	1.035742	-0.618223	-0.382205
C59	C	1.369075	-0.284890	-0.048872
C60	C	1.702408	0.048443	0.284462
C61	C	1.031625	-0.710890	-0.386364
C62	C	1.364959	-0.377557	-0.053030
C63	C	1.698292	-0.044223	0.280303
C64	C	0.581936	-0.455006	-0.421917
C65	C	0.915269	-0.121673	-0.088584
C66	C	1.248603	0.211660	0.244749
C67	C	0.505077	-0.455009	-0.421927
C68	C	0.838411	-0.121675	-0.088593
C69	C	1.171744	0.211658	0.244740
C70	C	0.509856	-0.348237	-0.323183
C71	C	0.843189	-0.014904	0.010150
C72	C	1.176522	0.318430	0.343483
C73	C	0.586713	-0.348231	-0.323178
C74	C	0.920047	-0.014898	0.010155
C75	C	1.253380	0.318436	0.343489
C76	C	0.622751	-0.401620	-0.372544
C77	C	0.956085	-0.068287	-0.039211
C78	C	1.289418	0.265046	0.294122
C79	C	0.469035	-0.401629	-0.372559
C80	C	0.802368	-0.068296	-0.039225
C81	C	1.135701	0.265038	0.294108
C82	C	0.385701	-0.401631	-0.372568
C83	C	0.719034	-0.068298	-0.039235
C84	C	1.052368	0.265035	0.294098
C85	C	0.706090	-0.401617	-0.372536
C86	C	1.039424	-0.068284	-0.039202
C87	C	1.372757	0.265050	0.294131
C88	C	1.067053	-0.921830	-0.351127
C89	C	1.400386	-0.588497	-0.017794
C90	C	1.733719	-0.255163	0.315539
C91	C	1.024124	-0.880547	-0.393964
C92	C	1.357458	-0.547214	-0.060631
C93	C	1.690791	-0.213880	0.272703
C94	C	1.028299	-0.786141	-0.389734
C95	C	1.361633	-0.452808	-0.056401
C96	C	1.694966	-0.119474	0.276933
C97	C	1.062879	-1.016244	-0.355356
C98	C	1.396212	-0.682911	-0.022023
C99	C	1.729545	-0.349578	0.311310
C100	C	1.237472	-0.401629	-0.372564
C101	C	1.570806	-0.068296	-0.039231
C102	C	1.904139	0.265038	0.294102
C103	C	1.319271	-0.401635	-0.372574
C104	C	1.652604	-0.068302	-0.039240
C105	C	1.985938	0.265031	0.294093
C106	C	1.045568	-0.401557	-0.564492
C107	C	1.378901	-0.068223	-0.231159
C108	C	1.712234	0.265110	0.102174
C109	C	1.045588	-0.401532	-0.646290
C110	C	1.378921	-0.068199	-0.312957
C111	C	1.712255	0.265135	0.020376
C112	C	1.055357	-0.184159	-0.362857
C113	C	1.388691	0.149174	-0.029524
C114	C	1.722024	0.482508	0.303810
C115	C	1.059549	-0.091492	-0.358730
C116	C	1.392882	0.241841	-0.025397
C117	C	1.726216	0.575174	0.307937
C118	C	1.095088	-0.348163	-0.832114
C119	C	1.428422	-0.014830	-0.498780
C120	C	1.761755	0.318503	-0.165447
C121	C	1.095098	-0.348139	-0.908971
C122	C	1.428431	-0.014806	-0.575638
C123	C	1.761765	0.318528	-0.242305
C124	C	0.996145	-0.454772	-0.913699
C125	C	1.329479	-0.121439	-0.580365
C126	C	1.662812	0.211895	-0.247032
C127	C	0.996133	-0.454792	-0.836842
C128	C	1.329466	-0.121458	-0.503509
C129	C	1.662799	0.211875	-0.170176
C130	C	1.045608	-0.401488	-0.796052
C131	C	1.378941	-0.068155	-0.462718
C132	C	1.712275	0.265178	-0.129385
C133	C	1.045631	-0.401445	-0.949766
C134	C	1.378964	-0.068111	-0.616433
C135	C	1.712297	0.265222	-0.283099
C136	C	1.045641	-0.401419	-1.033099
C137	C	1.378974	-0.068085	-0.699765
C138	C	1.712308	0.265248	-0.366432
C139	C	1.045597	-0.401513	-0.712714
C140	C	1.378930	-0.068180	-0.379381
C141	C	1.712264	0.265154	-0.046047
C142	C	1.045518	-0.401611	-0.181336
C143	C	1.378851	-0.068278	0.151998
C144	C	1.712185	0.265055	0.485331
C145	C	1.045651	-0.401401	-0.099528
C146	C	1.378984	-0.068067	0.233806
C147	C	1.712318	0.265266	0.567139
H148	H	0.611276	-0.498477	-0.462116
H149	H	0.944609	-0.165144	-0.128783
H150	H	1.277943	0.168190	0.204550
H151	H	1.135389	-0.304715	-0.938329
H152	H	1.468722	0.028618	-0.604996
H153	H	1.802055	0.361952	-0.271663
F154	F	0.971986	-0.927021	-0.446050
F155	F	1.305319	-0.593688	-0.112717
F156	F	1.638652	-0.260355	0.220616
H157	H	0.955835	-0.498215	-0.807480
H158	H	1.289168	-0.164881	-0.474147
H159	H	1.622501	0.168452	-0.140813
H160	H	1.106937	-0.886276	-0.311279
H161	H	1.440270	-0.552943	0.022054
H162	H	1.773604	-0.219609	0.355388
F163	F	0.943496	-0.511501	-0.957117
F164	F	1.276829	-0.178168	-0.623784
F165	F	1.610162	0.155166	-0.290451
H166	H	0.471849	-0.498480	-0.462132
H167	H	0.805182	-0.165147	-0.128799
H168	H	1.138515	0.168187	0.204534
F169	F	0.471495	-0.291421	-0.270646
F170	F	0.804828	0.041913	0.062687
F171	F	1.138161	0.375246	0.396020
F172	F	1.147743	-0.291431	-0.788704
F173	F	1.481076	0.041902	-0.455371
F174	F	1.814409	0.375235	-0.122037
H175	H	0.619946	-0.304752	-0.282972
H176	H	0.953280	0.028581	0.050361
H177	H	1.286613	0.361914	0.383694
