data_functionalizedCrystal
_audit_creation_method	'MofGen! by Chris Wilmer'
_symmetry_space_group_name_H-M	'P1'
_symmetry_Int_Tables_number	1
_symmetry_cell_setting	triclinic
loop_
_symmetry_equiv_pos_as_xyz
  x,y,z
_cell_length_a	16.109318
_cell_length_b	14.519731
_cell_length_c	15.186229
_cell_angle_alpha	89.995270
_cell_angle_beta	90.000224
_cell_angle_gamma	83.578708
loop_
_atom_site_label
_atom_site_type_symbol
_atom_site_fract_x
_atom_site_fract_y
_atom_site_fract_z
O1	O	1.103335	0.118615	-0.073157
O2	O	1.436668	0.451948	0.260176
O3	O	1.770002	0.785281	0.593509
O4	O	0.861302	0.133350	-0.073175
O5	O	1.194635	0.466683	0.260158
O6	O	1.527968	0.800017	0.593491
O7	O	0.988726	-0.008268	-0.073158
O8	O	1.322060	0.325065	0.260176
O9	O	1.655393	0.658399	0.593509
O10	O	0.975910	0.260233	-0.073175
O11	O	1.309244	0.593566	0.260159
O12	O	1.642577	0.926899	0.593492
O13	O	0.988718	-0.008270	0.073299
O14	O	1.322051	0.325063	0.406633
O15	O	1.655384	0.658397	0.739966
O16	O	0.861293	0.133348	0.073282
O17	O	1.194626	0.466681	0.406615
O18	O	1.527960	0.800015	0.739949
O19	O	1.103327	0.118613	0.073300
O20	O	1.436660	0.451946	0.406633
O21	O	1.769993	0.785279	0.739967
Zn22	Zn	0.982309	0.125980	0.096544
Zn23	Zn	1.315642	0.459313	0.429878
Zn24	Zn	1.648975	0.792647	0.763211
Zn25	Zn	0.982320	0.125983	-0.096420
Zn26	Zn	1.315653	0.459316	0.236914
Zn27	Zn	1.648986	0.792649	0.570247
O28	O	0.975902	0.260231	0.073282
O29	O	1.309235	0.593564	0.406616
O30	O	1.642569	0.926897	0.739949
C31	C	0.830322	0.132749	0.000051
C32	C	1.163655	0.466083	0.333384
C33	C	1.496988	0.799416	0.666718
C34	C	0.738024	0.130951	0.000044
C35	C	1.071357	0.464285	0.333378
C36	C	1.404691	0.797618	0.666711
C37	C	0.988122	-0.042627	0.000071
C38	C	1.321455	0.290706	0.333404
C39	C	1.654788	0.624040	0.666738
C40	C	0.986322	-0.145004	0.000071
C41	C	1.319655	0.188330	0.333405
C42	C	1.652989	0.521663	0.666738
C43	C	0.438944	0.125146	-0.079774
C44	C	0.772278	0.458479	0.253560
C45	C	1.105611	0.791812	0.586893
C46	C	0.525669	0.126829	-0.079779
C47	C	0.859002	0.460162	0.253554
C48	C	1.192335	0.793496	0.586888
C49	C	0.525678	0.126814	0.079897
C50	C	0.859011	0.460147	0.413230
C51	C	1.192345	0.793481	0.746563
C52	C	0.438956	0.125124	0.079901
C53	C	0.772290	0.458458	0.413235
C54	C	1.105623	0.791791	0.746568
C55	C	0.395591	0.124295	0.000064
C56	C	0.728924	0.457628	0.333397
C57	C	1.062258	0.790962	0.666730
C58	C	0.569037	0.127668	0.000053
C59	C	0.902371	0.461001	0.333387
C60	C	1.235704	0.794335	0.666720
C61	C	0.663068	0.129493	0.000048
C62	C	0.996401	0.462826	0.333381
C63	C	1.329734	0.796160	0.666715
C64	C	0.301555	0.122468	0.000069
C65	C	0.634888	0.455801	0.333402
C66	C	0.968222	0.789135	0.666735
C67	C	0.984860	-0.228145	0.000069
C68	C	1.318193	0.105189	0.333403
C69	C	1.651527	0.438522	0.666736
C70	C	0.983033	-0.332450	0.000062
C71	C	1.316366	0.000884	0.333396
C72	C	1.649700	0.334217	0.666729
C73	C	0.981583	-0.415586	0.000057
C74	C	1.314916	-0.082252	0.333390
C75	C	1.648250	0.251081	0.666723
C76	C	0.979756	-0.519897	0.000051
C77	C	1.313089	-0.186564	0.333385
C78	C	1.646423	0.146769	0.666718
C79	C	1.134307	0.119213	0.000072
C80	C	1.467640	0.452547	0.333405
C81	C	1.800973	0.785880	0.666738
C82	C	1.226604	0.121011	0.000073
C83	C	1.559938	0.454345	0.333406
C84	C	1.893271	0.787678	0.666739
C85	C	0.976507	0.294590	0.000052
C86	C	1.309840	0.627923	0.333385
C87	C	1.643173	0.961257	0.666718
C88	C	0.978306	0.396966	0.000046
C89	C	1.311639	0.730300	0.333379
C90	C	1.644973	1.063633	0.666712
N91	N	0.982307	0.125978	0.228237
N92	N	1.315640	0.459311	0.561570
N93	N	1.648974	0.792644	0.894904
N94	N	0.982328	0.125978	-0.228112
N95	N	1.315661	0.459311	0.105221
N96	N	1.648995	0.792644	0.438554
C97	C	1.038750	0.063290	0.453968
C98	C	1.372083	0.396624	0.787301
C99	C	1.705417	0.729957	1.120634
C100	C	1.038752	0.063288	0.546157
C101	C	1.372086	0.396622	0.879491
C102	C	1.705419	0.729955	1.212824
C103	C	0.925879	0.188668	0.546151
C104	C	1.259212	0.522001	0.879484
C105	C	1.592546	0.855335	1.212817
C106	C	0.925873	0.188665	0.453963
C107	C	1.259206	0.521998	0.787296
C108	C	1.592540	0.855332	1.120629
C109	C	0.982313	0.125977	0.407874
C110	C	1.315646	0.459311	0.741207
C111	C	1.648980	0.792644	1.074540
C112	C	0.982322	0.125978	0.592251
C113	C	1.315655	0.459311	0.925584
C114	C	1.648988	0.792645	1.258918
C115	C	0.982324	0.125976	0.692207
C116	C	1.315657	0.459310	1.025541
C117	C	1.648991	0.792643	1.358874
C118	C	0.982310	0.125978	0.307911
C119	C	1.315643	0.459311	0.641244
C120	C	1.648977	0.792644	0.974578
H121	H	0.560963	0.127521	-0.144790
H122	H	0.894297	0.460854	0.188543
H123	H	1.227630	0.794187	0.521876
N124	N	0.572450	0.127716	0.166004
N125	N	0.905783	0.461049	0.499337
N126	N	1.239116	0.794383	0.832671
H127	H	0.633966	0.128920	0.153888
H128	H	0.967300	0.462253	0.487221
H129	H	1.300633	0.795587	0.820555
H130	H	0.550639	0.184555	0.200864
H131	H	0.883972	0.517888	0.534198
H132	H	1.217306	0.851221	0.867531
H133	H	1.084707	0.012242	0.583684
H134	H	1.418041	0.345575	0.917018
H135	H	1.751374	0.678908	1.250351
N136	N	0.392190	0.124199	0.166016
N137	N	0.725524	0.457533	0.499349
N138	N	1.058857	0.790866	0.832682
H139	H	0.432891	0.124354	0.216590
H140	H	0.766225	0.457687	0.549923
H141	H	1.099558	0.791021	0.883256
H142	H	0.349945	0.180954	0.169757
H143	H	0.683279	0.514287	0.503090
H144	H	1.016612	0.847621	0.836424
N145	N	1.099620	-0.004320	0.404255
N146	N	1.432953	0.329013	0.737588
N147	N	1.766287	0.662346	1.070922
H148	H	1.135371	-0.044033	0.447448
H149	H	1.468705	0.289300	0.780781
H150	H	1.802038	0.622633	1.114115
H151	H	1.067727	-0.045104	0.366011
H152	H	1.401061	0.288230	0.699345
H153	H	1.734394	0.621563	1.032678
N154	N	0.865007	0.256279	0.595861
N155	N	1.198340	0.589612	0.929195
N156	N	1.531674	0.922946	1.262528
H157	H	0.873575	0.246771	0.661257
H158	H	1.206908	0.580105	0.994590
H159	H	1.540241	0.913438	1.327924
H160	H	0.874709	0.321706	0.579738
H161	H	1.208043	0.655039	0.913071
H162	H	1.541376	0.988372	1.246405
N163	N	0.864991	0.256279	0.404247
N164	N	1.198325	0.589612	0.737580
N165	N	1.531658	0.922946	1.070914
H166	H	0.874664	0.321739	0.420278
H167	H	1.207997	0.655072	0.753611
H168	H	1.541331	0.988406	1.086945
H169	H	0.873577	0.246682	0.338868
H170	H	1.206910	0.580015	0.672202
H171	H	1.540244	0.913349	1.005535
N172	N	0.392170	0.124247	-0.165880
N173	N	0.725504	0.457581	0.167454
N174	N	1.058837	0.790914	0.500787
H175	H	0.432798	0.125039	-0.216456
H176	H	0.766131	0.458373	0.116877
H177	H	1.099465	0.791706	0.450210
H178	H	0.362839	0.066411	-0.169354
H179	H	0.696173	0.399744	0.163979
H180	H	1.029506	0.733078	0.497313
