data_functionalizedCrystal
_audit_creation_method	'MofGen! by Chris Wilmer'
_symmetry_space_group_name_H-M	'P1'
_symmetry_Int_Tables_number	1
_symmetry_cell_setting	triclinic
loop_
_symmetry_equiv_pos_as_xyz
  x,y,z
_cell_length_a	11.169417
_cell_length_b	25.639239
_cell_length_c	11.169417
_cell_angle_alpha	90.014562
_cell_angle_beta	90.000863
_cell_angle_gamma	90.039565
loop_
_atom_site_label
_atom_site_type_symbol
_atom_site_fract_x
_atom_site_fract_y
_atom_site_fract_z
Zn1	Zn	1.834501	-0.208224	0.678484
Zn2	Zn	2.334501	0.291776	1.178484
Zn3	Zn	1.834358	-0.295636	0.477777
Zn4	Zn	2.334358	0.204364	0.977777
Zn5	Zn	1.633854	-0.208218	0.477819
Zn6	Zn	2.133854	0.291782	0.977819
Zn7	Zn	1.633695	-0.295631	0.678422
Zn8	Zn	2.133695	0.204369	1.178422
O9	O	1.734102	-0.251927	0.578125
O10	O	2.234102	0.248073	1.078125
O11	O	2.002432	-0.219824	0.651869
O12	O	2.502432	0.280176	1.151869
O13	O	1.807767	-0.284040	0.309833
O14	O	2.307767	0.215960	0.809833
O15	O	1.660596	-0.135053	0.504481
O16	O	2.160596	0.364947	1.004481
O17	O	2.002326	-0.284045	0.504410
O18	O	2.502326	0.215955	1.004410
O19	O	1.808011	-0.135058	0.651909
O20	O	2.308011	0.364942	1.151909
O21	O	1.660457	-0.219814	0.309863
O22	O	2.160457	0.280186	0.809863
O23	O	1.465883	-0.219809	0.504420
O24	O	1.965883	0.280191	1.004420
O25	O	1.660327	-0.284037	0.846380
O26	O	2.160327	0.215963	1.346380
O27	O	1.465767	-0.284031	0.651802
O28	O	1.965767	0.215969	1.151802
O29	O	1.807858	-0.219819	0.846425
O30	O	2.307858	0.280181	1.346425
O31	O	1.807613	-0.368801	0.504349
O32	O	2.307613	0.131199	1.004349
O33	O	1.660187	-0.368797	0.651762
O34	O	2.160187	0.131203	1.151762
C35	C	1.422277	-0.251919	0.578110
C36	C	1.922277	0.248081	1.078110
C37	C	1.288877	-0.251929	0.578132
C38	C	1.788877	0.248071	1.078132
C39	C	1.733900	-0.387770	0.578070
C40	C	2.233900	0.112230	1.078070
C41	C	1.733924	-0.445884	0.578087
C42	C	2.233924	0.054116	1.078087
C43	C	1.811067	-0.806236	0.501498
C44	C	2.311067	-0.306236	1.001498
C45	C	1.811113	-0.860841	0.501514
C46	C	2.311113	-0.360841	1.001514
O47	O	1.876494	-0.889068	0.436336
O48	O	2.376494	-0.389068	0.936336
N49	N	1.734313	-0.888166	0.578205
N50	N	2.234313	-0.388166	1.078205
C51	C	1.657470	-0.860885	0.654893
C52	C	2.157470	-0.360885	1.154893
O53	O	1.592150	-0.889142	0.720126
O54	O	2.092150	-0.389142	1.220126
C55	C	1.657430	-0.806282	0.654882
C56	C	2.157430	-0.306282	1.154882
C57	C	1.734227	-0.778959	0.578178
C58	C	2.234227	-0.278959	1.078178
C59	C	1.887858	-0.778913	0.424801
C60	C	2.387858	-0.278913	0.924801
C61	C	1.887810	-0.724313	0.424784
C62	C	2.387810	-0.224313	0.924784
C63	C	1.810970	-0.697035	0.501464
C64	C	2.310970	-0.197035	1.001464
C65	C	1.734178	-0.724358	0.578161
C66	C	2.234178	-0.224358	1.078161
C67	C	1.580594	-0.779001	0.731575
C68	C	2.080594	-0.279001	1.231575
C69	C	1.580561	-0.724394	0.731558
C70	C	2.080561	-0.224394	1.231558
C71	C	1.657358	-0.697071	0.654854
C72	C	2.157358	-0.197071	1.154854
C73	C	1.657290	-0.642480	0.654823
C74	C	2.157290	-0.142480	1.154823
N75	N	1.734090	-0.615154	0.578132
N76	N	2.234090	-0.115154	1.078132
C77	C	1.810930	-0.642432	0.501453
C78	C	2.310930	-0.142432	1.001453
C79	C	1.657560	-0.975556	0.654911
C80	C	2.157560	-0.475556	1.154911
C81	C	1.657593	-1.030158	0.654917
C82	C	2.157593	-0.530158	1.154917
C83	C	1.811238	-1.030110	0.501540
C84	C	2.311238	-0.530110	1.001540
C85	C	1.811199	-0.975506	0.501529
C86	C	2.311199	-0.475506	1.001529
C87	C	1.734360	-0.948230	0.578221
C88	C	2.234360	-0.448230	1.078221
C89	C	1.810822	-0.527767	0.501421
C90	C	2.310822	-0.027767	1.001421
C91	C	1.810764	-0.473161	0.501407
C92	C	2.310764	0.026839	1.001407
C93	C	1.657123	-0.473214	0.654789
C94	C	2.157123	0.026786	1.154789
C95	C	1.657177	-0.527815	0.654799
C96	C	2.157177	-0.027815	1.154799
C97	C	1.734036	-0.555090	0.578111
C98	C	2.234036	-0.055090	1.078111
O99	O	1.591946	-0.614218	0.719972
O100	O	2.091946	-0.114218	1.219972
O101	O	1.876250	-0.614169	0.436241
O102	O	2.376250	-0.114169	0.936241
C103	C	2.047144	-0.251936	0.578141
C104	C	2.547144	0.248064	1.078141
C105	C	2.180544	-0.251939	0.578148
C106	C	2.680544	0.248061	1.078148
C107	C	1.734090	-0.251928	0.891168
C108	C	2.234090	0.248072	1.391168
C109	C	1.734086	-0.251928	1.024568
C110	C	2.234086	0.248072	1.524568
C111	C	1.734337	-0.115554	0.578207
C112	C	2.234337	0.384446	1.078207
C113	C	1.734438	-0.057440	0.578241
C114	C	2.234438	0.442560	1.078241
C115	C	1.734099	-0.251936	1.266301
C116	C	2.234099	0.248064	1.766301
C117	C	1.734089	-0.251929	1.132901
C118	C	2.234089	0.248071	1.632901
H119	H	1.873301	-0.450917	0.438941
H120	H	2.373301	0.049083	0.938941
Cl121	Cl	1.907748	-0.941163	0.405099
Cl122	Cl	2.407748	-0.441163	0.905099
H123	H	1.518051	-0.801238	0.794030
H124	H	2.018051	-0.301238	1.294030
Cl125	Cl	1.483960	-0.690107	0.827979
Cl126	Cl	1.983960	-0.190107	1.327979
Cl127	Cl	1.560607	-0.562165	0.751203
Cl128	Cl	2.060607	-0.062165	1.251203
H129	H	1.873810	-1.052329	0.439107
H130	H	2.373810	-0.552329	0.939107
H131	H	1.950437	-0.801117	0.362359
H132	H	2.450437	-0.301117	0.862359
H133	H	1.873411	-0.549968	0.438978
H134	H	2.373411	-0.049968	0.938978
H135	H	1.595046	-1.052400	0.717366
H136	H	2.095046	-0.552400	1.217366
H137	H	1.950348	-0.702069	0.362329
H138	H	2.450348	-0.202069	0.862329
Cl139	Cl	1.560943	-0.941271	0.751324
Cl140	Cl	2.060943	-0.441271	1.251324
Cl141	Cl	1.560536	-0.438913	0.751187
Cl142	Cl	2.060536	0.061087	1.251187
