data_functionalizedCrystal
_audit_creation_method	'MofGen! by Chris Wilmer'
_symmetry_space_group_name_H-M	'P1'
_symmetry_Int_Tables_number	1
_symmetry_cell_setting	triclinic
loop_
_symmetry_equiv_pos_as_xyz
  x,y,z
_cell_length_a	13.032831
_cell_length_b	16.959447
_cell_length_c	13.034570
_cell_angle_alpha	82.840335
_cell_angle_beta	103.316534
_cell_angle_gamma	82.810409
loop_
_atom_site_label
_atom_site_type_symbol
_atom_site_fract_x
_atom_site_fract_y
_atom_site_fract_z
Zn1	Zn	1.677578	-0.668338	0.629250
Zn2	Zn	1.700027	-0.555400	0.806839
Zn3	Zn	1.499961	-0.516973	0.606706
Zn4	Zn	1.522469	-0.668331	0.784191
O5	O	1.600009	-0.602261	0.706746
O6	O	1.829198	-0.669441	0.671720
O7	O	1.673464	-0.439694	0.780334
O8	O	1.504707	-0.520972	0.461097
O9	O	1.845691	-0.586466	0.802194
O10	O	1.635201	-0.632180	0.477660
O11	O	1.526476	-0.411461	0.633298
O12	O	1.354305	-0.520966	0.611338
O13	O	1.543069	-0.778941	0.763594
O14	O	1.370841	-0.632169	0.741735
O15	O	1.657027	-0.778946	0.649760
O16	O	1.695289	-0.586460	0.952434
O17	O	1.564837	-0.669430	0.935795
C18	C	1.324032	-0.572397	0.671633
C19	C	1.205971	-0.559643	0.656637
C20	C	1.600054	-0.808425	0.706665
C21	C	1.600074	-0.896281	0.706631
C22	C	1.161558	-0.608917	0.714573
C23	C	1.039536	-0.595736	0.699076
C24	C	1.523623	-1.253061	0.629976
C25	C	1.676683	-1.282448	0.783086
C26	C	1.676668	-1.199902	0.783109
C27	C	1.600128	-1.143933	0.706564
C28	C	1.523604	-1.170508	0.629998
C29	C	1.753184	-1.173321	0.859680
C30	C	1.753171	-1.090771	0.859706
C31	C	1.676635	-1.034799	0.783157
C32	C	1.600109	-1.061379	0.706586
C33	C	1.523569	-1.005409	0.630042
C34	C	1.447046	-1.031988	0.553466
C35	C	1.447068	-1.114537	0.553448
C36	C	1.676613	-0.952250	0.783175
C37	C	1.523549	-0.922856	0.630064
C38	C	1.877063	-0.632241	0.741998
C39	C	1.995128	-0.645017	0.757019
C40	C	1.634971	-0.632135	0.982648
C41	C	1.650024	-0.644952	1.100693
C42	C	1.600015	-0.396896	0.706758
C43	C	1.600163	-0.309031	0.706520
C44	C	1.564939	-0.572290	0.429771
C45	C	1.549995	-0.559519	0.311740
C46	C	1.607785	-0.608853	1.267217
C47	C	1.592226	-0.595610	1.145212
H48	H	1.213871	-0.660863	0.775644
Cl49	Cl	1.849374	-1.057365	0.955967
H50	H	1.461225	-0.877289	0.567728
H51	H	1.738924	-0.930614	0.845516
H52	H	1.738991	-1.328022	0.845412
H53	H	1.153657	-0.507702	0.595559
Cl54	Cl	1.498052	-0.515252	1.064623
Cl55	Cl	1.849389	-1.243684	0.955910
Cl56	Cl	1.350830	-0.961617	0.457242
Cl57	Cl	1.744212	-0.725303	1.181281
H58	H	1.668785	-0.660892	1.319424
Cl59	Cl	0.958780	-0.515537	0.604768
H60	H	1.489003	-0.507475	1.259536
H61	H	1.047435	-0.696968	0.818092
H62	H	1.384766	-1.136185	0.491105
H63	H	1.461323	-1.274705	0.567627
