data_functionalizedCrystal
_audit_creation_method	'MofGen! by Chris Wilmer'
_symmetry_space_group_name_H-M	'P1'
_symmetry_Int_Tables_number	1
_symmetry_cell_setting	triclinic
loop_
_symmetry_equiv_pos_as_xyz
  x,y,z
_cell_length_a	10.489694
_cell_length_b	9.565339
_cell_length_c	10.489741
_cell_angle_alpha	90.007425
_cell_angle_beta	84.529562
_cell_angle_gamma	90.001804
loop_
_atom_site_label
_atom_site_type_symbol
_atom_site_fract_x
_atom_site_fract_y
_atom_site_fract_z
O1	O	-1.694085	-0.116224	-0.179688
O2	O	-1.322882	-0.116234	-0.196644
O3	O	-1.516930	-0.116220	-0.002567
O4	O	-1.500037	-0.116237	-0.373765
O5	O	-1.516920	0.116300	-0.002549
O6	O	-1.322872	0.116286	-0.196626
O7	O	-1.694075	0.116297	-0.179670
Zn8	Zn	-1.508472	0.153209	-0.188145
Zn9	Zn	-1.508485	-0.153146	-0.188169
O10	O	-1.500027	0.116283	-0.373747
C11	C	-1.275344	0.000025	-0.195367
C12	C	-1.133712	0.000021	-0.191574
N13	N	-1.508472	0.362288	-0.188129
C14	C	-1.515649	0.000039	0.044974
C15	C	-1.511832	0.000036	0.186603
C16	C	-1.036037	0.000011	-0.310586
C17	C	-0.958685	0.114663	-0.247699
C18	C	-0.958702	-0.114583	-0.247688
C19	C	-1.058226	0.114768	-0.128736
C20	C	-1.058247	-0.114582	-0.128743
C21	C	-0.980945	0.000099	-0.065769
C22	C	-0.741610	0.000031	-0.180967
C23	C	-0.883235	0.000015	-0.184821
C24	C	-1.597511	0.546630	-0.097667
C25	C	-1.624344	0.453388	-0.212810
C26	C	-1.481695	0.453462	-0.072995
C27	C	-1.535388	0.546583	-0.303374
C28	C	-1.392687	0.546666	-0.163483
C29	C	-1.419473	0.453465	-0.278709
N30	N	-1.508495	0.637774	-0.188173
C31	C	-1.501308	0.000021	-0.421288
C32	C	-1.505125	0.000014	-0.562917
C33	C	-1.388365	0.000023	0.254722
C34	C	-1.446684	0.114669	0.346863
C35	C	-1.446723	-0.114578	0.346820
C36	C	-1.570202	0.114777	0.276878
C37	C	-1.570224	-0.114572	0.276826
C38	C	-1.628634	0.000102	0.368939
H39	H	-1.060706	0.000113	-0.414100
H40	H	-0.915198	0.211587	-0.297932
H41	H	-1.622394	0.211810	0.246062
H42	H	-1.730239	0.000168	0.418381
H43	H	-1.286851	0.000135	0.205054
H44	H	-1.622426	-0.211500	0.245783
H45	H	-1.459036	0.412555	0.024390
H46	H	-1.558152	0.587317	-0.400784
H47	H	-1.101538	0.211795	-0.078518
H48	H	-1.722271	0.412415	-0.233683
H49	H	-0.956514	0.000170	0.037821
H50	H	-1.101748	-0.211511	-0.078549
H51	H	-0.915222	-0.211500	-0.297960
H52	H	-1.672849	0.587535	-0.021235
H53	H	-1.394438	0.211591	0.377873
H54	H	-1.344183	0.412816	-0.355311
H55	H	-1.294790	0.587668	-0.142574
H56	H	-1.394470	-0.211511	0.377768
