data_functionalizedCrystal
_audit_creation_method	'MofGen! by Chris Wilmer'
_symmetry_space_group_name_H-M	'P1'
_symmetry_Int_Tables_number	1
_symmetry_cell_setting	triclinic
loop_
_symmetry_equiv_pos_as_xyz
  x,y,z
_cell_length_a	12.759401
_cell_length_b	16.959453
_cell_length_c	12.759393
_cell_angle_alpha	89.964958
_cell_angle_beta	89.981504
_cell_angle_gamma	90.020149
loop_
_atom_site_label
_atom_site_type_symbol
_atom_site_fract_x
_atom_site_fract_y
_atom_site_fract_z
Zn1	Zn	1.606217	-0.314632	-0.593956
Zn2	Zn	1.606095	-0.446833	-0.418265
Zn3	Zn	1.430519	-0.314673	-0.418295
Zn4	Zn	1.430491	-0.446772	-0.593907
O5	O	1.518330	-0.380727	-0.506106
O6	O	1.753222	-0.332177	-0.570658
O7	O	1.582765	-0.429345	-0.271248
O8	O	1.453888	-0.204057	-0.441630
O9	O	1.753132	-0.429304	-0.441579
O10	O	1.582973	-0.204026	-0.570687
O11	O	1.453770	-0.332247	-0.271270
O12	O	1.283494	-0.332188	-0.441583
O13	O	1.453841	-0.429201	-0.740935
O14	O	1.283474	-0.429241	-0.570604
O15	O	1.582946	-0.332118	-0.740971
O16	O	1.582738	-0.557436	-0.441532
O17	O	1.453723	-0.557391	-0.570575
C18	C	1.245363	-0.380713	-0.506092
C19	C	1.128586	-0.380726	-0.506110
C20	C	1.518243	-0.586094	-0.506067
C21	C	1.518301	-0.673950	-0.506086
C22	C	1.073741	-0.431342	-0.573181
C23	C	0.964017	-0.431352	-0.573192
C24	C	0.963993	-0.330127	-0.439054
C25	C	1.073715	-0.330114	-0.439049
C26	C	1.073754	-0.489786	-0.650621
C27	C	0.964030	-0.489796	-0.650632
C28	C	1.585631	-1.045352	-0.573433
C29	C	1.451323	-1.045500	-0.438935
C30	C	1.451284	-0.962954	-0.438911
C31	C	1.518419	-0.921603	-0.506150
C32	C	1.585592	-0.962798	-0.573413
C33	C	1.384105	-0.921753	-0.371657
C34	C	1.384063	-0.839202	-0.371631
C35	C	1.451203	-0.797850	-0.438865
C36	C	1.518379	-0.839050	-0.506130
C37	C	1.585514	-0.797699	-0.573369
C38	C	1.652696	-0.838897	-0.640629
C39	C	1.652732	-0.921445	-0.640647
C40	C	1.451167	-0.715301	-0.438847
C41	C	1.585475	-0.715145	-0.573349
C42	C	1.792364	-0.380743	-0.506121
C43	C	1.909140	-0.380749	-0.506127
C44	C	1.518404	-0.380648	-0.780139
C45	C	1.518435	-0.380614	-0.896916
C46	C	1.518447	-0.174559	-0.506168
C47	C	1.518497	-0.086703	-0.506194
C48	C	1.585669	-0.330058	-0.951799
C49	C	1.585694	-0.330029	-1.061523
C50	C	1.451248	-0.431120	-1.061472
C51	C	1.451219	-0.431144	-0.951750
C52	C	1.663294	-0.271696	-0.951829
C53	C	1.663319	-0.271668	-1.061553
C54	C	1.518318	-0.380750	-0.233139
C55	C	1.518490	-0.380561	-0.116362
H56	H	1.118366	-0.288892	-0.384441
H57	H	1.396466	-0.472308	-0.907069
H58	H	1.707428	-0.954996	-0.695408
H59	H	1.744688	-0.288063	-1.091330
C60	C	0.904226	-0.275274	-0.366276
C61	C	0.796397	-0.286131	-0.380616
C62	C	0.741310	-0.235623	-0.313576
H63	H	0.922100	-0.222143	-0.381705
H64	H	0.922119	-0.286789	-0.295636
H65	H	0.778511	-0.274610	-0.451240
H66	H	0.778492	-0.339251	-0.365179
H67	H	0.759203	-0.247139	-0.242936
H68	H	0.759193	-0.182496	-0.329011
H69	H	0.668143	-0.242988	-0.323289
C70	C	1.725618	-0.794139	-0.713751
C71	C	1.784444	-0.847880	-0.772679
C72	C	1.851615	-0.806675	-0.840058
H73	H	1.771488	-0.761927	-0.673712
H74	H	1.685401	-0.761953	-0.759540
H75	H	1.824658	-0.880052	-0.726896
H76	H	1.738602	-0.880094	-0.812739
H77	H	1.811398	-0.774489	-0.885848
H78	H	1.897479	-0.774464	-0.800012
H79	H	1.891530	-0.843132	-0.880056
H80	H	1.103565	-0.473461	-0.732029
H81	H	1.641533	-0.210482	-0.922078
C82	C	1.119172	-0.567207	-0.611385
C83	C	1.180827	-0.553058	-0.522608
C84	C	1.222673	-0.624360	-0.486426
H85	H	1.161161	-0.590186	-0.664723
H86	H	1.063738	-0.602191	-0.593706
H87	H	1.236253	-0.518087	-0.540290
H88	H	1.138862	-0.530091	-0.469249
H89	H	1.167240	-0.659344	-0.468747
H90	H	1.264657	-0.647333	-0.539770
H91	H	1.264503	-0.614771	-0.426181
C92	C	1.658454	-1.090218	-0.646417
C93	C	1.644110	-1.171362	-0.632065
C94	C	1.711166	-1.212718	-0.699290
H95	H	1.729088	-1.076752	-0.631167
H96	H	1.643021	-1.076702	-0.717014
H97	H	1.659550	-1.184873	-0.561484
H98	H	1.573490	-1.184851	-0.647323
H99	H	1.695733	-1.199202	-0.769887
H100	H	1.781796	-1.199246	-0.684034
H101	H	1.701436	-1.267778	-0.689568
H102	H	1.396662	-1.079173	-0.384197
C103	C	0.918892	-0.460674	-0.753865
C104	C	1.000833	-0.441364	-0.822241
C105	C	0.959290	-0.414540	-0.917347
H106	H	0.877014	-0.415304	-0.741634
H107	H	0.877016	-0.500957	-0.784238
H108	H	1.042691	-0.401084	-0.791874
H109	H	1.042718	-0.486721	-0.834502
H110	H	0.917415	-0.454823	-0.947721
H111	H	0.917413	-0.369172	-0.905106
H112	H	1.014880	-0.401441	-0.963756
H113	H	1.329445	-0.955427	-0.316917
H114	H	0.934227	-0.550999	-0.628695
H115	H	1.640148	-0.681482	-0.628100
H116	H	1.329360	-0.805664	-0.316863
H117	H	1.396521	-0.472257	-1.106131
H118	H	1.396463	-0.681762	-0.384090
H119	H	1.634213	-0.213504	-1.095605
H120	H	1.740563	-0.293641	-0.917791
