data_functionalizedCrystal
_audit_creation_method	'MofGen! by Chris Wilmer'
_symmetry_space_group_name_H-M	'P1'
_symmetry_Int_Tables_number	1
_symmetry_cell_setting	triclinic
loop_
_symmetry_equiv_pos_as_xyz
  x,y,z
_cell_length_a	19.188930
_cell_length_b	18.266242
_cell_length_c	19.188940
_cell_angle_alpha	89.993204
_cell_angle_beta	96.853253
_cell_angle_gamma	90.022918
loop_
_atom_site_label
_atom_site_type_symbol
_atom_site_fract_x
_atom_site_fract_y
_atom_site_fract_z
O1	O	0.926152	0.061117	-0.087168
O2	O	1.426152	0.561117	0.412832
O3	O	0.722841	0.061067	-0.098903
O4	O	1.222841	0.561067	0.401097
O5	O	0.830360	0.061088	0.008620
O6	O	1.330360	0.561088	0.508620
O7	O	0.818633	0.061096	-0.194691
O8	O	1.318633	0.561096	0.305309
O9	O	0.830342	-0.060674	0.008625
O10	O	1.330342	0.439326	0.508625
O11	O	0.722823	-0.060695	-0.098897
O12	O	1.222823	0.439305	0.401103
O13	O	0.926134	-0.060645	-0.087163
O14	O	1.426134	0.439355	0.412837
Zn15	Zn	0.824476	-0.080002	-0.093029
Zn16	Zn	1.324476	0.419998	0.406971
Zn17	Zn	0.824500	0.080424	-0.093036
Zn18	Zn	1.324500	0.580424	0.406964
O19	O	0.818615	-0.060666	-0.194685
O20	O	1.318615	0.439334	0.305315
C21	C	0.696821	0.000179	-0.098520
C22	C	1.196821	0.500179	0.401480
C23	C	0.619317	0.000160	-0.097379
C24	C	1.119317	0.500160	0.402621
N25	N	0.824465	-0.189489	-0.093024
N26	N	1.324465	0.310511	0.406976
C27	C	0.574395	0.000174	-0.160470
C28	C	1.074395	0.500174	0.339530
C29	C	0.501571	0.000182	-0.159398
C30	C	1.001571	0.500182	0.340602
C31	C	0.473672	0.000191	-0.095232
C32	C	0.973672	0.500191	0.404768
C33	C	0.518604	0.000173	-0.032133
C34	C	1.018604	0.500173	0.467867
C35	C	0.591426	0.000157	-0.033207
C36	C	1.091426	0.500157	0.466793
N37	N	0.365697	0.041659	-0.046187
N38	N	0.865697	0.541659	0.453813
N39	N	0.296518	0.041675	-0.045172
N40	N	0.796518	0.541675	0.454828
C41	C	0.254264	0.000236	-0.091994
C42	C	0.754264	0.500236	0.408006
N43	N	0.283800	-0.041212	-0.139881
N44	N	0.783800	0.458788	0.360119
N45	N	0.352985	-0.041225	-0.140898
N46	N	0.852985	0.458775	0.359102
C47	C	0.394710	0.000207	-0.094061
C48	C	0.894710	0.500207	0.405939
C49	C	0.130377	0.000257	-0.153927
C50	C	0.630377	0.500257	0.346073
C51	C	0.057553	0.000261	-0.152853
C52	C	0.557553	0.500261	0.347147
C53	C	0.074587	0.000259	-0.025586
C54	C	0.574587	0.500259	0.474414
C55	C	0.147410	0.000248	-0.026662
C56	C	0.647410	0.500248	0.473338
C57	C	0.175301	0.000251	-0.090835
C58	C	0.675301	0.500251	0.409165
C59	C	0.872090	-0.227789	-0.045436
C60	C	1.372090	0.272211	0.454564
C61	C	0.872094	-0.304434	-0.045433
C62	C	1.372094	0.195566	0.454567
C63	C	0.824480	-0.342776	-0.093029
C64	C	1.324480	0.157224	0.406971
C65	C	0.776846	-0.304467	-0.140620
C66	C	1.276846	0.195533	0.359380
C67	C	0.776838	-0.227824	-0.140618
C68	C	1.276838	0.272176	0.359382
N69	N	0.815407	-0.463107	-0.154836
N70	N	1.315407	0.036893	0.345164
N71	N	0.815418	-0.535916	-0.154837
N72	N	1.315418	-0.035916	0.345163
C73	C	0.824500	-0.573699	-0.093039
C74	C	1.324500	-0.073699	0.406961
N75	N	0.833583	-0.535923	-0.031239
N76	N	1.333583	-0.035923	0.468761
N77	N	0.833575	-0.463108	-0.031240
N78	N	1.333575	0.036892	0.468760
C79	C	0.824483	-0.425883	-0.093037
C80	C	1.324483	0.074117	0.406963
C81	C	0.872132	-0.695105	-0.045444
C82	C	1.372132	-0.195105	0.454556
C83	C	0.872132	-0.771752	-0.045440
C84	C	1.372132	-0.271752	0.454560
C85	C	0.776887	-0.771784	-0.140634
C86	C	1.276887	-0.271784	0.359366
C87	C	0.776884	-0.695139	-0.140632
C88	C	1.276884	-0.195139	0.359368
C89	C	0.824510	-0.656804	-0.093038
C90	C	1.324510	-0.156804	0.406962
C91	C	0.952154	0.000244	-0.087546
C92	C	1.452154	0.500244	0.412454
C93	C	1.029659	0.000268	-0.088686
C94	C	1.529659	0.500268	0.411314
C95	C	0.829970	0.000207	0.034633
C96	C	1.329970	0.500207	0.534633
C97	C	0.828827	0.000207	0.112138
C98	C	1.328827	0.500207	0.612138
N99	N	0.824517	0.189911	-0.093036
N100	N	1.324517	0.689911	0.406964
C101	C	0.819005	0.000217	-0.220699
C102	C	1.319005	0.500217	0.279301
C103	C	0.820148	0.000221	-0.298203
C104	C	1.320148	0.500221	0.201797
C105	C	0.820683	-0.066150	0.665400
C106	C	1.320683	0.433850	1.165400
C107	C	0.821749	-0.066154	0.592575
C108	C	1.321749	0.433846	1.092575
C109	C	0.822296	0.000218	0.556153
C110	C	1.322296	0.500218	1.056153
C111	C	0.821758	0.066598	0.592558
C112	C	1.321758	0.566598	1.092558
C113	C	0.820684	0.066600	0.665380
C114	C	1.320684	0.566600	1.165380
N115	N	0.863719	0.049630	0.447127
N116	N	1.363719	0.549630	0.947127
N117	N	0.864741	0.049623	0.377949
N118	N	1.364741	0.549623	0.877949
C119	C	0.825530	0.000216	0.336744
C120	C	1.325530	0.500216	0.836744
N121	N	0.785267	-0.049196	0.367331
N122	N	1.285267	0.450804	0.867331
N123	N	0.784248	-0.049192	0.436515
N124	N	1.284248	0.450808	0.936515
C125	C	0.823460	0.000223	0.477189
C126	C	1.323460	0.500223	0.977189
C127	C	0.827219	-0.066164	0.221382
C128	C	1.327219	0.433836	0.721382
C129	C	0.828282	-0.066166	0.148555
C130	C	1.328282	0.433834	0.648555
C131	C	0.828297	0.066589	0.148541
C132	C	1.328297	0.566589	0.648541
C133	C	0.827228	0.066588	0.221365
C134	C	1.327228	0.566588	0.721365
C135	C	0.826692	0.000209	0.257781
C136	C	1.326692	0.500209	0.757781
H137	H	0.597098	0.000178	-0.212724
H138	H	1.097098	0.500178	0.287276
F139	F	0.726148	-0.187061	-0.191269
F140	F	1.226148	0.312939	0.308731
F141	F	0.044900	0.000261	0.042704
F142	F	0.544900	0.500261	0.542704
F143	F	0.639237	0.000142	0.033946
F144	F	1.139237	0.500142	0.533946
F145	F	0.822323	-0.136799	0.553831
F146	F	1.322323	0.363201	1.053831
H147	H	0.738106	-0.663953	-0.179385
H148	H	1.238106	-0.163953	0.320615
H149	H	0.020977	0.000268	-0.204231
H150	H	0.520977	0.500268	0.295769
H151	H	0.910868	-0.196579	-0.006681
H152	H	1.410868	0.303421	0.493319
H153	H	0.910910	-0.663892	-0.006688
H154	H	1.410910	-0.163892	0.493312
F155	F	0.488911	0.000178	0.036156
F156	F	0.988911	0.500178	0.536156
F157	F	0.922819	-0.812515	0.005215
F158	F	1.422819	-0.312515	0.505215
H159	H	0.910877	-0.335623	-0.006680
H160	H	1.410877	0.164377	0.493320
H161	H	0.183987	0.000240	0.024713
H162	H	0.683987	0.500240	0.524713
F163	F	0.826665	0.137231	0.260104
F164	F	1.326665	0.637231	0.760104
H165	H	0.828734	0.120630	0.118885
H166	H	1.328734	0.620630	0.618885
H167	H	0.820246	-0.120201	0.695046
H168	H	1.320246	0.379799	1.195046
F169	F	0.453753	0.000195	-0.226550
F170	F	0.953753	0.500195	0.273450
F171	F	0.726209	-0.812587	-0.191285
F172	F	1.226209	-0.312587	0.308715
F173	F	0.160063	0.000255	-0.222224
F174	F	0.660063	0.500255	0.277776
F175	F	0.726170	-0.345274	-0.191274
F176	F	1.226170	0.154726	0.308726
H177	H	0.822200	0.120638	0.562898
H178	H	1.322200	0.620638	1.062898
F179	F	0.820116	0.137245	0.704118
F180	F	1.320116	0.637245	1.204118
F181	F	0.826646	-0.136809	0.260141
F182	F	1.326646	0.363191	0.760141
H183	H	0.828715	-0.120216	0.118922
H184	H	1.328715	0.379784	0.618922
