data_functionalizedCrystal
_audit_creation_method	'MofGen! by Chris Wilmer'
_symmetry_space_group_name_H-M	'P1'
_symmetry_Int_Tables_number	1
_symmetry_cell_setting	triclinic
loop_
_symmetry_equiv_pos_as_xyz
  x,y,z
_cell_length_a	10.654550
_cell_length_b	16.109301
_cell_length_c	14.586319
_cell_angle_alpha	89.994230
_cell_angle_beta	90.003837
_cell_angle_gamma	96.026808
loop_
_atom_site_label
_atom_site_type_symbol
_atom_site_fract_x
_atom_site_fract_y
_atom_site_fract_z
O1	O	1.666256	-0.116773	0.076238
O2	O	1.300627	-0.127899	0.076241
O3	O	1.493486	-0.001365	0.076230
O4	O	1.473398	-0.243307	0.076249
O5	O	1.493470	-0.001362	-0.076251
O6	O	1.300612	-0.127896	-0.076240
O7	O	1.666241	-0.116770	-0.076243
Cu8	Cu	1.483425	-0.122333	-0.090164
Cu9	Cu	1.483443	-0.122336	0.090162
O10	O	1.473382	-0.243304	-0.076232
C11	C	1.253832	-0.127080	0.000001
C12	C	1.114422	-0.124636	0.000002
C13	C	1.492664	0.029616	-0.000011
C14	C	1.490225	0.121926	-0.000012
C15	C	1.713036	-0.117589	-0.000001
C16	C	1.852446	-0.120033	0.000004
C17	C	1.932942	-0.045532	0.000002
C18	C	2.063932	-0.047833	-0.000002
C19	C	2.033916	-0.199143	0.000002
C20	C	1.902929	-0.196841	-0.000001
C21	C	1.882459	0.031277	0.000006
C22	C	1.962957	0.105784	0.000005
C23	C	2.093947	0.103483	0.000001
C24	C	2.144438	0.026674	-0.000002
C25	C	1.474204	-0.274286	0.000011
C26	C	1.476643	-0.366595	0.000018
N27	N	1.483421	-0.122330	-0.216996
C28	C	1.598991	0.343552	0.000001
C29	C	1.596689	0.430286	0.000009
C30	C	1.367868	0.411772	0.000008
C31	C	1.370172	0.325040	0.000007
C32	C	1.485737	0.290932	-0.000001
C33	C	1.481131	0.464399	0.000007
C34	C	1.478634	0.558440	0.000016
C35	C	1.488234	0.196885	-0.000008
C36	C	1.568852	-0.066319	-0.547995
C37	C	1.568849	-0.066319	-0.452013
C38	C	1.398022	-0.178350	-0.452014
C39	C	1.398032	-0.178353	-0.547994
C40	C	1.483446	-0.122333	-0.595981
C41	C	1.483432	-0.122330	-0.404021
C42	C	1.483428	-0.122331	-0.299953
C43	C	1.483451	-0.122333	-0.700055
N44	N	1.483457	-0.122333	0.216994
H45	H	1.775803	0.033159	0.000012
H46	H	1.688912	0.473126	0.000013
C47	C	1.908215	0.189197	-0.000183
C48	C	1.949093	0.234276	-0.078645
C49	C	1.898681	0.311116	-0.078856
H50	H	1.935823	0.220002	0.052927
H51	H	1.818669	0.179935	-0.000228
H52	H	2.038619	0.243540	-0.078592
H53	H	1.921487	0.203496	-0.131767
H54	H	1.809135	0.301854	-0.078901
H55	H	1.926292	0.341913	-0.025743
H56	H	1.926400	0.341708	-0.132095
C57	C	2.181284	0.184399	0.000185
C58	C	2.158503	0.230583	0.078646
C59	C	2.238943	0.305125	0.078858
H60	H	2.166050	0.215965	-0.052925
H61	H	2.266546	0.172066	0.000233
H62	H	2.073261	0.242918	0.078590
H63	H	2.173745	0.199042	0.131769
H64	H	2.324205	0.292792	0.078906
H65	H	2.223703	0.336683	0.025745
H66	H	2.223505	0.336466	0.132097
C67	C	1.242495	0.448921	0.000149
C68	C	1.234505	0.498185	0.078583
C69	C	1.119035	0.532427	0.078735
H70	H	1.175264	0.405246	0.000196
H71	H	1.236828	0.482422	-0.052998
H72	H	1.240159	0.464687	0.131717
H73	H	1.301709	0.541873	0.078553
H74	H	1.113368	0.565928	0.025588
H75	H	1.051813	0.488747	0.078780
H76	H	1.113603	0.565863	0.131947
H77	H	2.251100	0.024806	-0.000014
C78	C	1.815732	-0.277818	0.000055
C79	C	1.887975	-0.345577	0.000085
C80	C	1.807692	-0.420187	0.000146
H81	H	1.763977	-0.280181	-0.053104
H82	H	1.764032	-0.280109	0.053250
H83	H	1.939652	-0.343287	-0.053104
H84	H	1.939726	-0.343241	0.053240
H85	H	1.755993	-0.422478	0.053341
H86	H	1.755941	-0.422541	-0.053014
H87	H	1.856697	-0.466169	0.000175
C88	C	1.661728	-0.005465	-0.599931
C89	C	1.736542	0.043575	-0.537358
C90	C	1.822126	0.099636	-0.585164
H91	H	1.616716	0.029498	-0.637384
H92	H	1.714065	-0.035670	-0.637345
H93	H	1.684212	0.073778	-0.499959
H94	H	1.781581	0.008634	-0.499903
H95	H	1.874463	0.069431	-0.622578
H96	H	1.777103	0.134594	-0.622616
H97	H	1.872905	0.132911	-0.542716
C98	C	1.661273	-0.005328	-0.399878
C99	C	1.594241	0.045949	-0.344868
C100	C	1.679298	0.102197	-0.296856
H101	H	1.712071	0.028105	-0.442168
H102	H	1.713633	-0.035394	-0.362318
H103	H	1.541902	0.076013	-0.382424
H104	H	1.543447	0.012539	-0.302561
H105	H	1.731658	0.072131	-0.259296
H106	H	1.730092	0.135625	-0.339153
H107	H	1.633829	0.136990	-0.259520
C108	C	1.305336	-0.239069	-0.399745
C109	C	1.323579	-0.227062	-0.305419
C110	C	1.238203	-0.282973	-0.257243
H111	H	1.318866	-0.294679	-0.415351
H112	H	1.221507	-0.229518	-0.415435
H113	H	1.407388	-0.236620	-0.289735
H114	H	1.310038	-0.171464	-0.289785
H115	H	1.154374	-0.273422	-0.272932
H116	H	1.251741	-0.338579	-0.272856
H117	H	1.250562	-0.274829	-0.193237
H118	H	1.328483	-0.223969	-0.587067
H119	H	2.075037	-0.261678	0.000000
H120	H	1.693091	0.315785	-0.000003
H121	H	1.277941	0.282194	0.000007
