data_functionalizedCrystal
_audit_creation_method	'MofGen! by Chris Wilmer'
_symmetry_space_group_name_H-M	'P1'
_symmetry_Int_Tables_number	1
_symmetry_cell_setting	triclinic
loop_
_symmetry_equiv_pos_as_xyz
  x,y,z
_cell_length_a	10.540539
_cell_length_b	10.654550
_cell_length_c	9.130313
_cell_angle_alpha	90.003780
_cell_angle_beta	90.000859
_cell_angle_gamma	95.494803
loop_
_atom_site_label
_atom_site_type_symbol
_atom_site_fract_x
_atom_site_fract_y
_atom_site_fract_z
O1	O	0.178295	-1.667897	-0.121912
O2	O	0.195282	-1.302424	-0.121888
O3	O	0.002079	-1.493499	-0.121899
O4	O	0.371498	-1.476823	-0.121902
O5	O	0.002084	-1.493496	0.121700
O6	O	0.195287	-1.302422	0.121711
O7	O	0.178300	-1.667894	0.121686
Cu8	Cu	0.186794	-1.485158	0.143941
Cu9	Cu	0.186788	-1.485161	-0.144143
O10	O	0.371503	-1.476820	0.121697
C11	C	-0.045221	-1.492247	-0.000102
C12	C	-0.186168	-1.488505	-0.000110
C13	C	0.194038	-1.255625	-0.000086
C14	C	0.190306	-1.116180	-0.000077
C15	C	0.179545	-1.714694	-0.000119
C16	C	0.183276	-1.854139	-0.000138
C17	C	-0.369543	-1.345134	-0.000647
C18	C	-0.222926	-1.348927	-0.000099
C19	C	-0.247846	-1.555675	0.138993
C20	C	-0.394389	-1.550912	0.139110
C21	C	-0.394914	-1.553753	-0.137907
C22	C	-0.247933	-1.555039	-0.139747
C23	C	0.418803	-1.478072	-0.000103
C24	C	0.559750	-1.481813	-0.000105
N25	N	0.186798	-1.485165	0.346564
C26	C	0.304061	-1.036734	-0.000099
C27	C	0.300547	-0.905712	-0.000124
C28	C	0.069513	-0.933595	-0.000111
C29	C	0.073028	-1.064614	-0.000075
C30	C	0.437446	-1.020636	-0.000113
C31	C	0.433932	-0.889614	-0.000138
N32	N	0.186774	-1.485163	-0.346765
C33	C	0.101277	-1.569795	0.423211
C34	C	0.101262	-1.569791	0.576548
C35	C	0.272300	-1.400525	0.576577
C36	C	0.272308	-1.400523	0.423243
C37	C	0.002533	-1.667523	0.423195
C38	C	0.002518	-1.667520	0.576532
H39	H	-0.180306	-1.296074	-0.099813
H40	H	-0.422569	-1.501268	0.243099
C41	C	0.507918	-1.060300	0.137604
H42	H	0.510311	-1.149209	0.137612
H43	H	0.464473	-1.035801	0.222559
H44	H	0.592462	-1.020372	0.137584
C45	C	-0.408146	-1.270637	-0.135398
H46	H	-0.364430	-1.188423	-0.133680
H47	H	-0.497460	-1.264579	-0.133556
H48	H	-0.386341	-1.312945	-0.222102
C49	C	-0.052101	-1.152000	-0.000035
H50	H	-0.122447	-1.102521	-0.000051
H51	H	-0.055522	-1.203668	0.084928
H52	H	-0.055544	-1.203712	-0.084979
C53	C	-0.122046	-1.626279	0.640780
H54	H	-0.177511	-1.607921	0.563286
H55	H	-0.103405	-1.553147	0.699353
H56	H	-0.162084	-1.692349	0.699323
C57	C	0.494830	-1.068834	-0.142177
H58	H	0.517958	-0.999632	-0.205463
H59	H	0.433644	-1.126433	-0.189369
H60	H	0.568310	-1.110155	-0.119340
C61	C	-0.410319	-1.270935	0.133350
H62	H	-0.367168	-1.188463	0.132173
H63	H	-0.389246	-1.313036	0.220469
H64	H	-0.499712	-1.265512	0.130054
H65	H	0.341934	-1.331600	0.360838
H66	H	0.484188	-0.847900	-0.102092
C67	C	0.366360	-1.307434	0.660928
H68	H	0.354112	-1.319558	0.763226
H69	H	0.351788	-1.223495	0.635802
H70	H	0.451219	-1.321836	0.635808
C71	C	0.031906	-1.797897	0.632763
H72	H	0.031882	-1.797891	0.736815
H73	H	0.113212	-1.815808	0.598102
H74	H	-0.031268	-1.860422	0.598077
C75	C	-0.459246	-1.686512	0.147655
H76	H	-0.395998	-1.744263	0.151051
H77	H	-0.511429	-1.703371	0.063776
H78	H	-0.510303	-1.695560	0.233441
C79	C	-0.059482	-0.876867	-0.000125
H80	H	-0.045285	-0.787458	-0.000158
H81	H	-0.106370	-0.904047	0.084827
H82	H	-0.106366	-0.904087	-0.085080
H83	H	0.474245	-0.843956	0.105030
C84	C	-0.217711	-1.694148	0.145985
H85	H	-0.255913	-1.732974	0.230903
H86	H	-0.128030	-1.697359	0.150151
H87	H	-0.250624	-1.737548	0.061210
C88	C	-0.190296	-1.492632	0.278845
H89	H	-0.128696	-1.425387	0.252761
H90	H	-0.150743	-1.552959	0.335127
H91	H	-0.255954	-1.460626	0.334915
H92	H	-0.426453	-1.508580	-0.243339
H93	H	-0.207059	-1.505891	-0.242651
H94	H	-0.223748	-1.656802	-0.148154
H95	H	-0.181149	-1.295701	0.099788
H96	H	-0.442177	-1.654570	-0.138850
C97	C	0.044286	-1.790719	0.358928
H98	H	0.062868	-1.845584	0.436414
H99	H	0.118207	-1.772233	0.300371
H100	H	-0.022476	-1.830356	0.300365
H101	H	-0.095040	-1.646046	0.381578
