data_functionalizedCrystal
_audit_creation_method	'MofGen! by Chris Wilmer'
_symmetry_space_group_name_H-M	'P1'
_symmetry_Int_Tables_number	1
_symmetry_cell_setting	triclinic
loop_
_symmetry_equiv_pos_as_xyz
  x,y,z
_cell_length_a	12.837943
_cell_length_b	10.489741
_cell_length_c	11.892095
_cell_angle_alpha	93.929268
_cell_angle_beta	85.689438
_cell_angle_gamma	89.684057
loop_
_atom_site_label
_atom_site_type_symbol
_atom_site_fract_x
_atom_site_fract_y
_atom_site_fract_z
O1	O	1.384503	0.324530	-0.093982
O2	O	1.082575	0.308135	-0.093989
O3	O	1.240409	0.131493	-0.093979
O4	O	1.226669	0.501172	-0.093992
O5	O	1.227249	0.146196	0.094028
O6	O	1.069415	0.322838	0.094018
O7	O	1.371343	0.339233	0.094024
Zn8	Zn	1.218290	0.333370	0.123871
Zn9	Zn	1.235629	0.313998	-0.123836
O10	O	1.213509	0.515875	0.094014
C11	C	1.037334	0.309948	0.000014
C12	C	0.922133	0.293430	0.000011
C13	C	0.682657	0.492006	0.000020
C14	C	0.574415	0.476492	0.000019
C15	C	0.597406	0.246889	0.000015
C16	C	0.705648	0.262403	0.000016
C17	C	0.748269	0.384966	0.000017
C18	C	0.856513	0.400478	0.000011
C19	C	0.879501	0.170877	0.000015
C20	C	0.771260	0.155363	0.000014
C21	C	1.232791	0.091198	0.000024
C22	C	1.229687	-0.050774	0.000022
C23	C	1.129262	-0.129987	0.000011
C24	C	1.170213	-0.209630	0.092709
C25	C	1.183212	-0.224098	-0.092650
C26	C	1.270674	-0.128541	0.092796
C27	C	1.283664	-0.143007	-0.092647
C28	C	1.324687	-0.222613	0.000074
C29	C	1.416585	0.337420	0.000019
C30	C	1.531786	0.353937	0.000014
C31	C	1.221127	0.556170	0.000009
C32	C	1.224233	0.698141	0.000004
N33	N	1.206464	0.346591	0.292925
N34	N	1.247463	0.300768	-0.292889
C35	C	1.329751	0.208698	0.529580
C36	C	1.321493	0.217950	0.647922
C37	C	1.181684	0.374338	0.647951
C38	C	1.189943	0.365086	0.529609
C39	C	1.263980	0.282265	0.470428
C40	C	1.272243	0.273021	0.352085
C41	C	1.132429	0.429402	0.352116
C42	C	1.124171	0.438653	0.470457
H43	H	0.562678	0.147112	0.000108
H44	H	1.063888	0.506081	0.518656
H45	H	1.332530	0.205588	0.303901
H46	H	1.331606	-0.113411	-0.171018
H47	H	0.932936	0.083716	0.000005
O48	O	0.729890	0.036301	0.000208
C49	C	0.756543	-0.022161	0.097557
H50	H	0.774809	0.054586	0.165621
H51	H	0.828083	-0.086452	0.075536
C52	C	0.641912	-0.197108	0.058102
C53	C	0.664338	-0.102846	0.141703
H54	H	0.585038	-0.246883	0.085332
H55	H	0.623958	-0.157724	-0.007486
H56	H	0.701536	-0.250670	0.039759
H57	H	0.604719	-0.049276	0.160034
H58	H	0.682280	-0.142222	0.207296
H59	H	1.390042	0.141271	0.481394
H60	H	1.046687	-0.089432	0.000103
O61	O	1.138909	-0.273798	-0.186114
C62	C	1.035872	-0.226461	-0.185744
H63	H	1.027770	-0.132543	-0.131474
H64	H	0.979018	-0.298945	-0.149568
C65	C	1.021018	-0.319059	-0.374175
C66	C	1.011069	-0.203701	-0.307527
H67	H	1.005715	-0.305024	-0.449296
H68	H	1.090435	-0.350955	-0.374423
H69	H	0.973638	-0.379451	-0.344015
H70	H	1.058458	-0.143317	-0.337678
H71	H	0.941660	-0.171793	-0.307286
H72	H	0.520997	0.563656	0.000024
O73	O	1.113074	-0.244758	0.186318
C74	C	1.158355	-0.194035	0.283901
H75	H	1.207258	-0.107424	0.262302
H76	H	1.210379	-0.269748	0.316269
C77	C	1.011421	-0.259725	0.402477
C78	C	1.071476	-0.153341	0.375951
H79	H	0.957831	-0.234628	0.459260
H80	H	0.980915	-0.293903	0.336734
H81	H	1.054785	-0.322810	0.429444
H82	H	1.028114	-0.090265	0.348971
H83	H	1.101972	-0.119151	0.441692
H84	H	0.717359	0.591801	0.000019
H85	H	1.307637	-0.086892	0.171253
H86	H	1.407327	-0.262921	0.000127
O87	O	1.385274	0.146540	0.705558
C88	C	1.362131	0.172486	0.822700
H89	H	1.278871	0.211388	0.838883
H90	H	1.418992	0.246318	0.856267
C91	C	1.474771	0.000765	0.863581
C92	C	1.372507	0.048534	0.883458
H93	H	1.481176	-0.075692	0.901061
H94	H	1.490367	-0.016713	0.784660
H95	H	1.522144	0.062303	0.891554
H96	H	1.325138	-0.012997	0.855472
H97	H	1.356904	0.065999	0.962376
O98	O	1.068590	0.500746	0.294480
C99	C	1.091776	0.474858	0.177337
H100	H	1.130913	0.376827	0.161161
H101	H	1.146708	0.550846	0.143753
C102	C	0.941960	0.596759	0.136462
C103	C	0.990022	0.476351	0.116594
H104	H	0.879195	0.597685	0.098991
H105	H	0.926341	0.614205	0.215383
H106	H	0.987748	0.660070	0.108475
H107	H	0.944240	0.413045	0.144593
H108	H	1.005631	0.458894	0.037676
O109	O	0.897806	0.519582	-0.000138
C110	C	0.871195	0.578013	-0.097518
H111	H	0.798146	0.531567	-0.129983
H112	H	0.938480	0.565510	-0.165701
C113	C	0.939632	0.778516	-0.028059
C114	C	0.849907	0.721478	-0.067927
H115	H	0.926505	0.867013	-0.009809
H116	H	0.957564	0.739150	0.037547
H117	H	0.995694	0.768084	-0.084885
H118	H	0.793851	0.731896	-0.011097
H119	H	0.831965	0.760849	-0.133523
H120	H	1.121398	0.441759	0.696151
