data_functionalizedCrystal
_audit_creation_method	'MofGen! by Chris Wilmer'
_symmetry_space_group_name_H-M	'P1'
_symmetry_Int_Tables_number	1
_symmetry_cell_setting	triclinic
loop_
_symmetry_equiv_pos_as_xyz
  x,y,z
_cell_length_a	14.519709
_cell_length_b	15.995350
_cell_length_c	12.996460
_cell_angle_alpha	89.996086
_cell_angle_beta	90.000034
_cell_angle_gamma	83.586260
loop_
_atom_site_label
_atom_site_type_symbol
_atom_site_fract_x
_atom_site_fract_y
_atom_site_fract_z
O1	O	1.223669	0.109760	-0.085428
O2	O	0.955169	0.122686	-0.085458
O3	O	1.096759	-0.005654	-0.085441
O4	O	1.082080	0.238099	-0.085445
O5	O	1.096744	-0.005661	0.085693
O6	O	0.955154	0.122678	0.085675
O7	O	1.223655	0.109753	0.085706
Cu8	Cu	1.089403	0.116215	0.101317
Cu9	Cu	1.089421	0.116224	-0.101069
O10	O	1.082065	0.238092	0.085689
C11	C	0.920803	0.122080	0.000104
C12	C	0.818425	0.120275	0.000092
C13	C	0.443541	0.113629	0.000139
C14	C	0.547846	0.115475	0.000126
C15	C	0.630980	0.116952	0.000115
C16	C	0.735291	0.118797	0.000104
C17	C	1.096145	-0.036853	0.000124
C18	C	1.094325	-0.129806	0.000118
C19	C	1.087791	-0.467563	0.000120
C20	C	0.986954	-0.420280	-0.000275
C21	C	0.988773	-0.323587	0.000111
C22	C	1.091032	-0.299998	0.000118
C23	C	1.140761	-0.341005	0.097848
C24	C	1.138227	-0.437645	0.097930
C25	C	1.140327	-0.437992	-0.096681
C26	C	1.140303	-0.341046	-0.097973
C27	C	1.092869	-0.205298	0.000121
C28	C	1.085957	-0.562264	0.000125
C29	C	1.258021	0.110359	0.000141
C30	C	1.360399	0.112164	0.000146
C31	C	1.082679	0.269292	0.000122
C32	C	1.084498	0.362245	0.000121
N33	N	1.089398	0.116209	0.243664
N34	N	1.089433	0.116223	-0.243416
C35	C	1.089419	0.116224	0.663478
C36	C	1.089411	0.116223	0.546673
C37	C	1.089409	0.116217	0.453575
C38	C	1.089399	0.116214	0.336762
H39	H	0.946656	-0.438869	-0.070359
C40	C	0.861251	-0.228723	0.062695
C41	C	0.935640	-0.286051	0.094840
H42	H	0.828447	-0.205557	0.121183
H43	H	0.884048	-0.184891	0.024282
H44	H	0.820801	-0.256849	0.020834
H45	H	0.976094	-0.257924	0.136695
H46	H	0.912843	-0.329890	0.133270
H47	H	0.946823	-0.439937	0.069410
C48	C	0.902444	-0.349435	-0.151968
C49	C	0.935992	-0.285286	-0.094453
H50	H	0.869849	-0.325789	-0.210344
H51	H	0.952913	-0.388230	-0.173956
H52	H	0.861804	-0.377782	-0.110613
H53	H	0.976637	-0.256943	-0.135806
H54	H	0.885516	-0.246476	-0.072467
C55	C	1.062458	-0.390264	0.254980
C56	C	1.089247	-0.462434	0.196534
H57	H	1.032213	-0.405566	0.315850
H58	H	1.115719	-0.363928	0.272835
H59	H	1.021259	-0.352360	0.215893
H60	H	1.130451	-0.500336	0.235617
H61	H	1.035979	-0.488783	0.178680
H62	H	1.215887	-0.326767	0.101488
C63	C	1.144087	-0.438544	-0.281386
C64	C	1.095834	-0.465778	-0.196681
H65	H	1.116614	-0.455703	-0.343116
H66	H	1.141465	-0.378953	-0.280126
H67	H	1.206906	-0.462518	-0.278368
H68	H	1.033016	-0.441798	-0.199695
H69	H	1.098446	-0.525380	-0.197942
C70	C	1.236875	-0.568438	0.104084
C71	C	1.238164	-0.481037	0.103948
H72	H	1.298570	-0.595222	0.107801
H73	H	1.202723	-0.584300	0.161860
H74	H	1.208469	-0.585068	0.042674
H75	H	1.266563	-0.464406	0.165362
H76	H	1.272329	-0.465169	0.046167
H77	H	1.106210	-0.312678	0.170570
C78	C	1.302087	-0.419198	-0.094396
C79	C	1.240692	-0.480718	-0.097567
H80	H	1.364044	-0.445581	-0.094930
H81	H	1.292176	-0.383510	-0.152691
H82	H	1.291687	-0.386791	-0.033406
H83	H	1.251087	-0.513122	-0.158562
H84	H	1.250607	-0.516421	-0.039266
H85	H	1.103946	-0.313849	-0.170271
H86	H	1.214875	-0.325572	-0.103868
