data_functionalizedCrystal
_audit_creation_method	'MofGen! by Chris Wilmer'
_symmetry_space_group_name_H-M	'P1'
_symmetry_Int_Tables_number	1
_symmetry_cell_setting	triclinic
loop_
_symmetry_equiv_pos_as_xyz
  x,y,z
_cell_length_a	13.033293
_cell_length_b	13.031981
_cell_length_c	13.032268
_cell_angle_alpha	89.068348
_cell_angle_beta	89.079182
_cell_angle_gamma	103.320033
loop_
_atom_site_label
_atom_site_type_symbol
_atom_site_fract_x
_atom_site_fract_y
_atom_site_fract_z
Zn1	Zn	1.463157	-0.323864	-0.735826
Zn2	Zn	1.963157	0.176136	-0.235826
Zn3	Zn	1.468592	-0.473460	-0.542764
Zn4	Zn	1.968592	0.026540	-0.042764
Zn5	Zn	1.313616	-0.318367	-0.542776
Zn6	Zn	1.813616	0.181633	-0.042776
Zn7	Zn	1.270112	-0.516855	-0.686686
Zn8	Zn	1.770112	-0.016855	-0.186686
O9	O	1.378869	-0.408136	-0.627013
O10	O	1.878869	0.091864	-0.127013
O11	O	1.609526	-0.327848	-0.730775
O12	O	2.109526	0.172152	-0.230775
O13	O	1.468515	-0.432425	-0.401741
O14	O	1.968515	0.067575	0.098259
O15	O	1.349385	-0.173422	-0.588955
O16	O	1.849385	0.326578	-0.088955
O17	O	1.613519	-0.437755	-0.588934
O18	O	2.113519	0.062245	-0.088934
O19	O	1.459252	-0.177461	-0.730788
O20	O	1.959252	0.322539	-0.230788
O21	O	1.354656	-0.318479	-0.401751
O22	O	1.854656	0.181521	0.098249
O23	O	1.162198	-0.360557	-0.541307
O24	O	1.662198	0.139443	-0.041307
O25	O	1.275239	-0.511716	-0.834228
O26	O	1.775239	-0.011716	-0.334228
O27	O	1.130235	-0.506385	-0.647036
O28	O	1.630235	-0.006385	-0.147036
O29	O	1.417068	-0.369927	-0.870331
O30	O	1.917068	0.130073	-0.370331
O31	O	1.426331	-0.624890	-0.541285
O32	O	1.926331	-0.124890	-0.041285
O33	O	1.280509	-0.656772	-0.647024
O34	O	1.780509	-0.156772	-0.147024
C35	C	1.108452	-0.437585	-0.588841
C36	C	1.608452	0.062415	-0.088841
C37	C	0.992759	-0.450211	-0.572531
C38	C	1.492759	0.049789	-0.072531
C39	C	0.939180	-0.401573	-0.635521
C40	C	1.439180	0.098427	-0.135521
C41	C	0.819606	-0.414622	-0.618666
C42	C	1.319606	0.085378	-0.118666
C43	C	1.349314	-0.678603	-0.588847
C44	C	1.849314	-0.178603	-0.088847
C45	C	1.336760	-0.794304	-0.572566
C46	C	1.836760	-0.294304	-0.072566
C47	C	1.385474	-0.847815	-0.635538
C48	C	1.885474	-0.347815	-0.135538
C49	C	1.372500	-0.967399	-0.618713
C50	C	1.872500	-0.467399	-0.118713
C51	C	1.650343	-0.378574	-0.665334
C52	C	2.150343	0.121426	-0.165334
C53	C	1.766029	-0.365976	-0.681665
C54	C	2.266029	0.134024	-0.181665
C55	C	1.340694	-0.446275	-0.889868
C56	C	1.840694	0.053725	-0.389868
C57	C	1.324426	-0.462527	-1.001881
C58	C	1.824426	0.037473	-0.501881
C59	C	1.408565	-0.136614	-0.665354
C60	C	1.908565	0.363386	-0.165354
C61	C	1.421220	-0.020907	-0.681693
C62	C	1.921220	0.479093	-0.181693
C63	C	1.387348	-0.399619	-1.069683
C64	C	1.887348	0.100381	-0.569683
C65	C	1.370535	-0.416415	-1.185455
C66	C	1.870535	0.083585	-0.685455
C67	C	1.416964	-0.370065	-0.365199
C68	C	1.916964	0.129935	0.134801
C69	C	1.433466	-0.353497	-0.253257
C70	C	1.933466	0.146503	0.246743
H71	H	0.808677	-0.314665	-0.748072
H72	H	1.308677	0.185335	-0.248072
H73	H	1.499781	-0.287194	-1.225602
H74	H	1.999781	0.212806	-0.725602
C75	C	0.827878	-0.518997	-0.483541
C76	C	1.327878	-0.018997	0.016459
C77	C	0.935190	-0.519474	-0.482884
C78	C	1.435190	-0.019474	0.017116
H79	H	0.792340	-0.561765	-0.428198
H80	H	1.292340	-0.061765	0.071802
H81	H	0.819879	-0.448840	-0.476282
H82	H	1.319879	0.051160	0.023718
H83	H	0.798634	-0.546082	-0.546584
H84	H	1.298634	-0.046082	-0.046584
H85	H	0.964436	-0.492381	-0.419843
H86	H	1.464436	0.007619	0.080157
H87	H	0.943195	-0.589645	-0.490134
H88	H	1.443195	-0.089645	0.009866
C89	C	1.454191	-0.682854	-0.724459
C90	C	1.954191	-0.182854	-0.224459
C91	C	1.454746	-0.790158	-0.725135
C92	C	1.954746	-0.290158	-0.225135
H93	H	1.496964	-0.647262	-0.779771
H94	H	1.996964	-0.147262	-0.279771
H95	H	1.384028	-0.674902	-0.731757
H96	H	1.884028	-0.174902	-0.231757
H97	H	1.481224	-0.653623	-0.661393
H98	H	1.981224	-0.153623	-0.161393
H99	H	1.427706	-0.819391	-0.788199
H100	H	1.927706	-0.319391	-0.288199
H101	H	1.524923	-0.798117	-0.717845
H102	H	2.024923	-0.298117	-0.217845
H103	H	1.321181	-1.010114	-0.552343
H104	H	1.821181	-0.510114	-0.052343
H105	H	1.472529	-0.978196	-0.748070
H106	H	1.972529	-0.478196	-0.248070
H107	H	1.285445	-0.837023	-0.506201
H108	H	1.785445	-0.337023	-0.006201
C109	C	1.281686	-0.505241	-1.330243
C110	C	1.781686	-0.005241	-0.830243
C111	C	1.281009	-0.505922	-1.222780
C112	C	1.781009	-0.005922	-0.722780
H113	H	1.226422	-0.560504	-1.353284
H114	H	1.726422	-0.060504	-0.853284
H115	H	1.271614	-0.439444	-1.355166
H116	H	1.771614	0.060556	-0.855166
H117	H	1.347479	-0.515331	-1.355156
H118	H	1.847479	-0.015331	-0.855156
H119	H	1.215219	-0.495824	-1.197867
H120	H	1.715219	0.004176	-0.697867
H121	H	1.291073	-0.571735	-1.197846
H122	H	1.791073	-0.071735	-0.697846
C123	C	1.249748	-0.649017	-1.002442
C124	C	1.749748	-0.149017	-0.502442
C125	C	1.234897	-0.552027	-1.039206
C126	C	1.734897	-0.052027	-0.539206
H127	H	1.194470	-0.704270	-1.025477
H128	H	1.694470	-0.204270	-0.525477
H129	H	1.315523	-0.659107	-1.027374
H130	H	1.815523	-0.159107	-0.527374
H131	H	1.249303	-0.649455	-0.929537
H132	H	1.749303	-0.149455	-0.429537
H133	H	1.235350	-0.551586	-1.112110
H134	H	1.735350	-0.051586	-0.612110
H135	H	1.169105	-0.541934	-1.014278
H136	H	1.669105	-0.041934	-0.514278
H137	H	0.981833	-0.350267	-0.701925
H138	H	1.481833	0.149733	-0.201925
H139	H	0.776958	-0.465925	-0.552253
H140	H	1.276958	0.034075	-0.052253
C141	C	1.434213	-0.240955	-0.972959
C142	C	1.934213	0.259045	-0.472959
C143	C	1.476878	-0.310126	-1.032348
C144	C	1.976878	0.189874	-0.532348
H145	H	1.489489	-0.185711	-0.949907
H146	H	1.989489	0.314289	-0.449907
H147	H	1.387315	-0.211984	-1.013257
H148	H	1.887315	0.288016	-0.513257
H149	H	1.396913	-0.278259	-0.915425
H150	H	1.896913	0.221741	-0.415425
H151	H	1.514171	-0.272824	-1.089887
H152	H	2.014171	0.227176	-0.589887
H153	H	1.523794	-0.339099	-0.992049
H154	H	2.023794	0.160901	-0.492049
