data_functionalizedCrystal
_audit_creation_method	'MofGen! by Chris Wilmer'
_symmetry_space_group_name_H-M	'P1'
_symmetry_Int_Tables_number	1
_symmetry_cell_setting	triclinic
loop_
_symmetry_equiv_pos_as_xyz
  x,y,z
_cell_length_a	10.654550
_cell_length_b	27.732025
_cell_length_c	9.730223
_cell_angle_alpha	89.988428
_cell_angle_beta	90.000242
_cell_angle_gamma	83.559200
loop_
_atom_site_label
_atom_site_type_symbol
_atom_site_fract_x
_atom_site_fract_y
_atom_site_fract_z
O1	O	1.664972	0.067885	0.114138
O2	O	1.299220	0.074353	0.114159
O3	O	1.493470	0.000793	0.114190
O4	O	1.470722	0.141446	0.114107
O5	O	1.493456	0.000793	-0.114390
O6	O	1.299206	0.074353	-0.114421
O7	O	1.664958	0.067886	-0.114442
Zn8	Zn	1.482080	0.071119	-0.150723
Zn9	Zn	1.482098	0.071119	0.150441
O10	O	1.470708	0.141446	-0.114472
C11	C	1.252435	0.073878	-0.000128
C12	C	1.113052	0.072458	-0.000117
C13	C	1.492990	-0.017217	-0.000087
C14	C	1.491565	-0.070882	-0.000046
C15	C	1.031737	0.115769	-0.000146
C16	C	0.900772	0.114431	-0.000170
C17	C	0.932452	0.026467	-0.000128
C18	C	1.063413	0.027805	-0.000115
C19	C	1.481450	-0.454110	0.124474
C20	C	1.486782	-0.252418	0.124518
O21	O	1.487528	-0.226346	0.230488
N22	N	1.487441	-0.227192	-0.000078
C23	C	1.486775	-0.252394	-0.124693
O24	O	1.487471	-0.226310	-0.230668
C25	C	1.481452	-0.454086	-0.124735
C26	C	1.480781	-0.479308	-0.000132
C27	C	1.480780	-0.479333	0.249067
C28	C	1.479440	-0.529752	0.249055
C29	C	1.478770	-0.554950	0.124449
C30	C	1.479441	-0.529728	-0.000144
C31	C	1.480796	-0.479286	-0.249349
C32	C	1.479468	-0.529713	-0.249348
C33	C	1.478796	-0.554935	-0.124745
C34	C	1.477432	-0.605345	-0.124762
N35	N	1.476773	-0.630570	-0.000166
C36	C	1.477442	-0.605373	0.124439
C37	C	1.489568	-0.146502	-0.124662
C38	C	1.490896	-0.096079	-0.124651
C39	C	1.490905	-0.096107	0.124560
C40	C	1.489567	-0.146530	0.124548
C41	C	1.488908	-0.171728	-0.000066
C42	C	1.474627	-0.711258	0.124404
C43	C	1.473282	-0.761682	0.124381
C44	C	1.473280	-0.761650	-0.124829
C45	C	1.474618	-0.711230	-0.124807
C46	C	1.475296	-0.686036	-0.000179
O47	O	1.476699	-0.631449	-0.230676
O48	O	1.476774	-0.631466	0.230398
C49	C	1.482790	-0.403690	0.124486
C50	C	1.483460	-0.378468	-0.000107
C51	C	1.482791	-0.403666	-0.124713
C52	C	1.484789	-0.328045	-0.000097
C53	C	1.485458	-0.302848	0.124509
C54	C	1.484799	-0.328073	0.249104
C55	C	1.483459	-0.378493	0.249092
C56	C	1.483450	-0.378440	-0.249308
C57	C	1.484788	-0.328020	-0.249286
C58	C	1.485458	-0.302823	-0.124680
C59	C	1.711743	0.068360	-0.000152
C60	C	1.851126	0.069781	-0.000154
C61	C	1.471188	0.159456	-0.000193
C62	C	1.472613	0.213120	-0.000225
N63	N	1.482077	0.071119	-0.356260
C64	C	1.557658	0.100707	-0.428203
C65	C	1.557679	0.100704	-0.572086
C66	C	1.406527	0.041525	-0.572069
C67	C	1.406513	0.041525	-0.428189
N68	N	1.482111	0.071116	0.355977
H69	H	1.072147	0.152128	-0.000158
H70	H	1.344965	0.017429	-0.369611
H71	H	1.619187	0.124804	-0.369643
Br72	Br	1.488655	-0.180755	0.293658
H73	H	0.834569	0.149699	-0.000196
Br74	Br	1.481688	-0.445068	-0.418465
H75	H	1.619227	0.124797	-0.630656
Br76	Br	0.865077	-0.034130	-0.000120
H77	H	1.481329	-0.458822	0.350541
Br78	Br	1.173780	-0.030979	-0.000093
Br79	Br	1.475547	-0.677073	0.293543
Br80	Br	1.472364	-0.795909	0.293497
H81	H	1.478901	-0.550284	0.350520
Br82	Br	1.491789	-0.061900	0.293667
Br83	Br	1.491772	-0.061854	-0.293763
H84	H	1.489031	-0.167013	-0.226143
H85	H	1.345004	0.017431	-0.630652
H86	H	1.475115	-0.690691	-0.226269
Br87	Br	1.472358	-0.795856	-0.293929
Br88	Br	1.478583	-0.563906	-0.418478
H89	H	1.482912	-0.399024	0.350557
Br90	Br	1.485705	-0.293866	0.418210
Br91	Br	1.485682	-0.293796	-0.418407
H92	H	1.482908	-0.398951	-0.350779
