data_functionalizedCrystal
_audit_creation_method	'MofGen! by Chris Wilmer'
_symmetry_space_group_name_H-M	'P1'
_symmetry_Int_Tables_number	1
_symmetry_cell_setting	triclinic
loop_
_symmetry_equiv_pos_as_xyz
  x,y,z
_cell_length_a	14.519709
_cell_length_b	17.019234
_cell_length_c	13.596369
_cell_angle_alpha	86.112711
_cell_angle_beta	90.000291
_cell_angle_gamma	83.533184
loop_
_atom_site_label
_atom_site_type_symbol
_atom_site_fract_x
_atom_site_fract_y
_atom_site_fract_z
O1	O	1.223524	0.103408	-0.090425
O2	O	1.556858	0.436742	0.242908
O3	O	1.890191	0.770075	0.576241
O4	O	0.955007	0.115586	-0.091487
O5	O	1.288340	0.448919	0.241846
O6	O	1.621674	0.782253	0.575180
O7	O	1.096766	-0.005327	-0.081220
O8	O	1.430099	0.328007	0.252114
O9	O	1.763433	0.661340	0.585447
O10	O	1.081766	0.224321	-0.100693
O11	O	1.415099	0.557655	0.232641
O12	O	1.748432	0.890988	0.565974
O13	O	1.096752	-0.005333	0.082364
O14	O	1.430085	0.328000	0.415697
O15	O	1.763419	0.661333	0.749030
O16	O	0.954993	0.115580	0.072096
O17	O	1.288326	0.448913	0.405430
O18	O	1.621660	0.782246	0.738763
O19	O	1.223510	0.103402	0.073158
O20	O	1.556844	0.436735	0.406492
O21	O	1.890177	0.770069	0.739825
Zn22	Zn	1.089249	0.109490	0.098600
Zn23	Zn	1.422583	0.442823	0.431933
Zn24	Zn	1.755916	0.776157	0.765266
Zn25	Zn	1.089268	0.109498	-0.116929
Zn26	Zn	1.422601	0.442832	0.216405
Zn27	Zn	1.755935	0.776165	0.549738
O28	O	1.081752	0.224315	0.062891
O29	O	1.415085	0.557648	0.396224
O30	O	1.748418	0.890982	0.729558
C31	C	0.920642	0.115015	-0.009651
C32	C	1.253976	0.448349	0.323682
C33	C	1.587309	0.781682	0.657016
C34	C	0.818267	0.113315	-0.009518
C35	C	1.151600	0.446648	0.323815
C36	C	1.484933	0.779981	0.657148
C37	C	0.443392	0.107054	-0.008943
C38	C	0.776725	0.440387	0.324391
C39	C	1.110058	0.773720	0.657724
C40	C	0.547694	0.108792	-0.009103
C41	C	0.881027	0.442126	0.324230
C42	C	1.214360	0.775459	0.657564
C43	C	0.630826	0.110184	-0.009231
C44	C	0.964159	0.443517	0.324102
C45	C	1.297492	0.776851	0.657435
C46	C	0.735135	0.111923	-0.009390
C47	C	1.068468	0.445256	0.323944
C48	C	1.401801	0.778590	0.657277
C49	C	1.096193	-0.034720	0.003062
C50	C	1.429526	0.298613	0.336395
C51	C	1.762860	0.631946	0.669728
C52	C	1.094496	-0.122295	0.010480
C53	C	1.427830	0.211039	0.343814
C54	C	1.761163	0.544372	0.677147
C55	C	1.084815	-0.617589	0.056870
C56	C	1.418148	-0.284255	0.390203
C57	C	1.751481	0.049078	0.723537
C58	C	1.086418	-0.535304	0.049904
C59	C	1.419751	-0.201971	0.383237
C60	C	1.753085	0.131362	0.716571
C61	C	1.087235	-0.494151	-0.042751
C62	C	1.420568	-0.160817	0.290583
C63	C	1.753901	0.172516	0.623916
C64	C	1.086438	-0.535285	-0.128445
C65	C	1.419772	-0.201951	0.204889
C66	C	1.753105	0.131382	0.538222
C67	C	1.084828	-0.617567	-0.121478
C68	C	1.418162	-0.284234	0.211855
C69	C	1.751495	0.049100	0.545189
C70	C	1.092090	-0.245711	-0.068247
C71	C	1.425423	0.087623	0.265086
C72	C	1.758757	0.420956	0.598420
C73	C	1.093703	-0.163423	-0.075207
C74	C	1.427036	0.169910	0.258126
C75	C	1.760369	0.503243	0.591459
C76	C	1.093681	-0.163448	0.103142
C77	C	1.427014	0.169885	0.436476
C78	C	1.760347	0.503218	0.769809
C79	C	1.092076	-0.245733	0.110101
C80	C	1.425410	0.087601	0.443434
C81	C	1.758743	0.420934	0.776768
C82	C	1.091275	-0.286859	0.024407
C83	C	1.424609	0.046475	0.357740
C84	C	1.757942	0.379808	0.691073
C85	C	1.088876	-0.410043	-0.049873
C86	C	1.422210	-0.076710	0.283460
C87	C	1.755543	0.256623	0.616794
C88	C	1.089627	-0.370964	0.031530
C89	C	1.422960	-0.037631	0.364863
C90	C	1.756294	0.295703	0.698197
C91	C	1.257875	0.103973	-0.008680
C92	C	1.591209	0.437306	0.324653
C93	C	1.924542	0.770639	0.657987
C94	C	1.360251	0.105673	-0.008819
C95	C	1.693584	0.439007	0.324514
C96	C	2.026918	0.772340	0.657848
C97	C	1.082324	0.253709	-0.021393
C98	C	1.415658	0.587042	0.311941
C99	C	1.748991	0.920375	0.645274
C100	C	1.084021	0.341283	-0.028818
C101	C	1.417355	0.674616	0.304515
C102	C	1.750688	1.007949	0.637849
N103	N	1.089244	0.109484	0.245692
N104	N	1.422577	0.442817	0.579025
N105	N	1.755910	0.776150	0.912359
N106	N	1.089281	0.109498	-0.264020
N107	N	1.422615	0.442832	0.069313
N108	N	1.755948	0.776165	0.402646
C109	C	1.089267	0.109499	0.646982
C110	C	1.422600	0.442832	0.980315
C111	C	1.755933	0.776166	1.313648
C112	C	1.089258	0.109497	0.535330
C113	C	1.422591	0.442831	0.868664
C114	C	1.755924	0.776164	1.201997
C115	C	1.089256	0.109492	0.446340
C116	C	1.422589	0.442825	0.779674
C117	C	1.755922	0.776159	1.113007
C118	C	1.089246	0.109489	0.334682
C119	C	1.422579	0.442822	0.668015
C120	C	1.755912	0.776156	1.001349
H121	H	1.084154	-0.651090	0.132319
H122	H	1.417487	-0.317757	0.465653
H123	H	1.750820	0.015576	0.798986
Cl124	Cl	1.089950	-0.358306	-0.166349
Cl125	Cl	1.423283	-0.024972	0.166984
Cl126	Cl	1.756616	0.308361	0.500317
H127	H	1.091416	-0.279235	0.185550
H128	H	1.424749	0.054099	0.518883
H129	H	1.758083	0.387432	0.852217
H130	H	1.091446	-0.279187	-0.138025
H131	H	1.424779	0.054147	0.195308
H132	H	1.758112	0.387480	0.528641
Cl133	Cl	1.087396	-0.483601	0.157631
Cl134	Cl	1.420729	-0.150268	0.490965
Cl135	Cl	1.754063	0.183066	0.824298
H136	H	1.084177	-0.651052	-0.191254
H137	H	1.417510	-0.317719	0.142079
H138	H	1.750844	0.015615	0.475412
Cl139	Cl	1.087486	-0.483551	-0.244926
Cl140	Cl	1.420819	-0.150218	0.088408
Cl141	Cl	1.754152	0.183116	0.421741
H142	H	1.088957	-0.404474	0.106969
H143	H	1.422290	-0.071141	0.440302
H144	H	1.755623	0.262193	0.773636
H145	H	1.094367	-0.129918	-0.150662
H146	H	1.427700	0.203415	0.182672
H147	H	1.761033	0.536749	0.516005
Cl148	Cl	1.094682	-0.111742	0.210865
Cl149	Cl	1.428016	0.221592	0.544198
Cl150	Cl	1.761349	0.554925	0.877531
