data_functionalizedCrystal
_audit_creation_method	'MofGen! by Chris Wilmer'
_symmetry_space_group_name_H-M	'P1'
_symmetry_Int_Tables_number	1
_symmetry_cell_setting	triclinic
loop_
_symmetry_equiv_pos_as_xyz
  x,y,z
_cell_length_a	14.044220
_cell_length_b	17.038272
_cell_length_c	13.101039
_cell_angle_alpha	93.604737
_cell_angle_beta	86.340132
_cell_angle_gamma	92.150217
loop_
_atom_site_label
_atom_site_type_symbol
_atom_site_fract_x
_atom_site_fract_y
_atom_site_fract_z
O1	O	1.277881	0.185592	-0.085106
O2	O	1.001361	0.178751	-0.085132
O3	O	1.137977	0.068241	-0.085111
O4	O	1.141265	0.296101	-0.085127
O5	O	1.128176	0.076185	0.085317
O6	O	0.991560	0.186694	0.085296
O7	O	1.268080	0.193535	0.085322
Zn8	Zn	1.128264	0.191376	0.112368
Zn9	Zn	1.141177	0.180910	-0.112178
O10	O	1.131464	0.304045	0.085301
C11	C	0.960905	0.179728	0.000079
C12	C	0.854960	0.170796	0.000069
C13	C	0.660980	0.154468	0.000091
C14	C	0.608455	0.217813	0.000090
C15	C	0.500518	0.208729	0.000102
C16	C	0.768927	0.163552	0.000079
C17	C	1.130087	0.042876	0.000103
C18	C	1.121168	-0.044541	0.000101
C19	C	1.203056	-0.088926	0.000110
C20	C	1.194670	-0.171064	0.000100
C21	C	1.104396	-0.208815	0.000088
C22	C	1.022502	-0.164424	0.000076
C23	C	1.030889	-0.082288	0.000079
C24	C	1.074767	-0.456646	0.000071
C25	C	1.066386	-0.538788	0.000071
C26	C	1.238555	-0.545423	0.000093
C27	C	1.246934	-0.463285	0.000102
C28	C	1.165040	-0.418901	0.000085
C29	C	1.095822	-0.292773	0.000080
C30	C	1.173615	-0.334945	0.000085
C31	C	1.308536	0.192558	0.000109
C32	C	1.414482	0.201490	0.000112
C33	C	1.139354	0.329410	0.000085
C34	C	1.148273	0.416827	0.000080
N35	N	1.119458	0.198518	0.265616
N36	N	1.149990	0.173762	-0.265426
C37	C	1.107478	0.208243	0.474656
C38	C	1.161967	0.164040	0.525540
C39	C	1.155301	0.169451	0.641858
C40	C	1.114143	0.202833	0.358328
H41	H	1.276567	-0.058196	0.000126
H42	H	0.624887	0.093419	0.000100
O43	O	0.656254	0.298691	0.000082
H44	H	0.638507	0.327839	-0.069379
O45	O	1.326881	-0.593291	0.000105
H46	H	1.305888	-0.656748	0.000093
H47	H	1.055826	0.250148	0.518445
H48	H	1.261352	-0.207199	0.000109
O49	O	1.344302	-0.422568	0.000090
H50	H	1.399838	-0.467233	0.000079
H51	H	1.022320	-0.323518	0.000073
O52	O	0.925134	-0.205142	0.000061
H53	H	0.869602	-0.160477	0.000045
H54	H	0.964207	-0.046151	0.000072
O55	O	0.969015	-0.579511	0.000046
H56	H	0.913477	-0.534850	0.000023
O57	O	0.986442	-0.408778	0.000079
H58	H	0.922261	-0.448830	0.000088
H59	H	1.247118	-0.304206	0.000072
O60	O	1.230397	0.108526	0.467543
H61	H	1.224968	0.112936	0.383960
