data_functionalizedCrystal
_audit_creation_method	'MofGen! by Chris Wilmer'
_symmetry_space_group_name_H-M	'P1'
_symmetry_Int_Tables_number	1
_symmetry_cell_setting	triclinic
loop_
_symmetry_equiv_pos_as_xyz
  x,y,z
_cell_length_a	10.654549
_cell_length_b	8.140239
_cell_length_c	10.654551
_cell_angle_alpha	90.001398
_cell_angle_beta	84.485103
_cell_angle_gamma	90.000456
loop_
_atom_site_label
_atom_site_type_symbol
_atom_site_fract_x
_atom_site_fract_y
_atom_site_fract_z
O1	O	1.667837	0.136569	0.176394
O2	O	1.302359	0.136580	0.193201
O3	O	1.493500	0.136570	0.002058
O4	O	1.476696	0.136578	0.367537
O5	O	1.493494	-0.136657	0.002057
O6	O	1.302352	-0.136647	0.193200
O7	O	1.667831	-0.136658	0.176393
Zn8	Zn	1.485091	-0.180034	0.184796
Zn9	Zn	1.485099	0.179955	0.184798
O10	O	1.476689	-0.136649	0.367535
C11	C	1.255557	-0.000033	0.191966
C12	C	1.116114	-0.000028	0.188275
N13	N	1.485094	-0.425716	0.184794
C14	C	0.905600	-0.000033	0.297338
C15	C	1.036621	-0.000023	0.300816
C16	C	1.064581	-0.000027	0.072247
C17	C	0.933563	-0.000025	0.068770
C18	C	1.714632	-0.000043	0.177628
C19	C	1.854075	-0.000036	0.181319
C20	C	1.492263	-0.000041	-0.044740
C21	C	1.488570	-0.000033	-0.184183
N22	N	1.485105	0.425637	0.184790
C23	C	1.486841	0.148905	-0.249686
C24	C	1.483360	0.148906	-0.380707
C25	C	1.483345	-0.148981	-0.380710
C26	C	1.486816	-0.148981	-0.249691
C27	C	1.477927	-0.000035	0.414334
C28	C	1.481619	-0.000032	0.553777
H29	H	1.078565	-0.000018	0.395290
O30	O	1.141617	0.000047	-0.037195
C31	C	1.155521	-0.000051	-0.264272
C32	C	1.068137	-0.000094	-0.140421
H33	H	1.096147	-0.000200	-0.347762
H34	H	1.217537	0.114320	-0.268444
H35	H	1.217583	-0.114371	-0.268290
H36	H	1.005996	0.114148	-0.136320
H37	H	1.006206	-0.114540	-0.136300
O38	O	0.828333	-0.000316	0.406629
C39	C	0.664129	-0.141797	0.535333
C40	C	0.751576	-0.141708	0.411524
H41	H	0.602030	-0.256082	0.539319
H42	H	0.723405	-0.141893	0.618899
H43	H	0.602151	-0.027397	0.539399
H44	H	0.813570	-0.256088	0.407334
H45	H	0.692225	-0.141526	0.328015
H46	H	0.891612	-0.000023	-0.025712
O47	O	1.481486	-0.293554	-0.444469
C48	C	1.368930	-0.466478	-0.579064
C49	C	1.370882	-0.302671	-0.506942
H50	H	1.279503	-0.473917	-0.629570
H51	H	1.454985	-0.473944	-0.651205
H52	H	1.370824	-0.572903	-0.509723
H53	H	1.368946	-0.196152	-0.576187
H54	H	1.284835	-0.295348	-0.434783
O55	O	1.488276	-0.293625	-0.185969
C56	C	1.383610	-0.466439	-0.024706
C57	C	1.381792	-0.302599	-0.096794
H58	H	1.297541	-0.473733	0.047426
H59	H	1.381690	-0.572962	-0.093963
H60	H	1.473008	-0.473865	0.025847
H61	H	1.292409	-0.295012	-0.147351
H62	H	1.383779	-0.196154	-0.027478
H63	H	1.488265	0.270188	-0.196354
H64	H	1.481949	0.270186	-0.434033
