data_functionalizedCrystal
_audit_creation_method	'MofGen! by Chris Wilmer'
_symmetry_space_group_name_H-M	'P1'
_symmetry_Int_Tables_number	1
_symmetry_cell_setting	triclinic
loop_
_symmetry_equiv_pos_as_xyz
  x,y,z
_cell_length_a	10.654550
_cell_length_b	9.130307
_cell_length_c	10.654550
_cell_angle_alpha	90.002144
_cell_angle_beta	84.484903
_cell_angle_gamma	90.005048
loop_
_atom_site_label
_atom_site_type_symbol
_atom_site_fract_x
_atom_site_fract_y
_atom_site_fract_z
O1	O	1.667836	0.121916	0.176397
O2	O	1.302358	0.121892	0.193203
O3	O	1.493500	0.121899	0.002060
O4	O	1.476694	0.121909	0.367539
O5	O	1.493494	-0.121700	0.002058
O6	O	1.302351	-0.121707	0.193201
O7	O	1.667830	-0.121683	0.176395
Cu8	Cu	1.485090	-0.143938	0.184798
Cu9	Cu	1.485097	0.144146	0.184800
O10	O	1.476687	-0.121690	0.367537
C11	C	1.255556	0.000089	0.191968
C12	C	1.116113	0.000080	0.188276
N13	N	1.485094	-0.346560	0.184795
C14	C	1.036627	0.000105	0.300817
C15	C	0.905607	0.000130	0.297341
C16	C	0.933570	0.000113	0.068771
C17	C	1.064588	0.000077	0.072249
C18	C	1.020482	0.000121	0.432780
C19	C	0.889461	0.000146	0.429304
C20	C	1.654420	-0.346544	0.015588
C21	C	1.739091	-0.423203	-0.069011
C22	C	1.739104	-0.576536	-0.069012
C23	C	1.654434	-0.653214	0.015594
C24	C	1.569762	-0.576556	0.100193
C25	C	1.569761	-0.423219	0.100187
C26	C	1.400432	-0.576572	0.269392
C27	C	1.400423	-0.423239	0.269401
C28	C	1.315761	-0.653250	0.353998
C29	C	1.231094	-0.576592	0.438605
C30	C	1.231086	-0.423249	0.438604
C31	C	1.315752	-0.346580	0.354001
C32	C	1.714631	0.000123	0.177630
C33	C	1.854074	0.000141	0.181321
C34	C	1.492263	0.000101	-0.044739
C35	C	1.488571	0.000106	-0.184182
N36	N	1.485103	0.346769	0.184792
C37	C	1.601112	0.000109	-0.263668
C38	C	1.597636	0.000119	-0.394688
C39	C	1.369066	0.000117	-0.366725
C40	C	1.372544	0.000118	-0.235707
C41	C	1.733075	0.000104	-0.279813
C42	C	1.729599	0.000114	-0.410834
C43	C	1.477925	0.000111	0.414336
C44	C	1.481616	0.000116	0.553779
H45	H	1.129302	0.000036	-0.019393
H46	H	0.843787	-0.105021	0.469184
H47	H	1.808027	-0.360758	-0.137899
H48	H	0.847731	0.102101	0.479026
Cl49	Cl	1.797928	-0.162291	-0.224796
Cl50	Cl	1.223212	0.000135	-0.431509
Cl51	Cl	0.868786	0.000108	-0.077083
Cl52	Cl	1.065773	-0.157273	0.512465
H53	H	1.315757	-0.221728	0.353996
Cl54	Cl	1.124628	-0.326892	0.544958
Cl55	Cl	1.654429	-0.153781	0.015597
H56	H	1.162156	-0.639033	0.507480
Cl57	Cl	1.075546	0.162497	0.497654
Cl58	Cl	1.845543	-0.672909	-0.175374
Cl59	Cl	1.654434	-0.845978	0.015576
H60	H	1.769482	0.105296	-0.456476
H61	H	1.315770	-0.778103	0.353988
Cl62	Cl	1.231057	0.000151	-0.135785
H63	H	1.779318	-0.101827	-0.452595
H64	H	1.784693	0.102046	-0.250454
