data_functionalizedCrystal
_audit_creation_method	'MofGen! by Chris Wilmer'
_symmetry_space_group_name_H-M	'P1'
_symmetry_Int_Tables_number	1
_symmetry_cell_setting	triclinic
loop_
_symmetry_equiv_pos_as_xyz
  x,y,z
_cell_length_a	10.489741
_cell_length_b	8.597187
_cell_length_c	7.088929
_cell_angle_alpha	88.669033
_cell_angle_beta	96.278389
_cell_angle_gamma	95.062724
loop_
_atom_site_label
_atom_site_type_symbol
_atom_site_fract_x
_atom_site_fract_y
_atom_site_fract_z
O1	O	-0.230523	2.034969	-0.494174
O2	O	-0.239120	1.585630	-0.420160
O3	O	-0.049413	1.820524	-0.458855
O4	O	-0.420230	1.800075	-0.455478
O5	O	-0.024020	1.851936	-0.146055
O6	O	-0.213727	1.617043	-0.107360
O7	O	-0.205131	2.066382	-0.181373
Cu8	Cu	-0.207110	1.844581	-0.115805
Cu9	Cu	-0.237140	1.807431	-0.485728
O10	O	-0.394838	1.831488	-0.142678
C11	C	-0.224085	1.543798	-0.254283
C12	C	-0.217103	1.372353	-0.226044
C13	C	-0.455094	1.817326	-0.299332
C14	C	-0.596809	1.821947	-0.300090
C15	C	-0.667709	1.971403	-0.324722
C16	C	-0.746007	1.916289	-0.158867
C17	C	-0.771019	1.885283	-0.467258
C18	C	-0.673229	1.766785	-0.134097
C19	C	-0.698244	1.735786	-0.442630
C20	C	-0.776509	1.680567	-0.276720
C21	C	0.010843	1.834685	-0.302206
C22	C	0.152557	1.830063	-0.301460
C23	C	-0.220166	2.108213	-0.347255
C24	C	-0.227149	2.279658	-0.375506
N25	N	-0.185988	1.870721	0.144376
N26	N	-0.258252	1.781303	-0.745912
H27	H	-0.241093	1.331466	-0.525071
H28	H	-0.111112	1.963403	0.210755
H29	H	-0.767599	1.992621	-0.038896
H30	H	-0.620317	2.094301	-0.344810
Br31	Br	-0.602243	1.683320	0.100815
H32	H	-0.823654	1.557583	-0.256377
H33	H	-0.676620	1.659506	-0.562617
H34	H	-0.813755	1.935455	-0.608061
Br35	Br	-0.383080	1.626836	0.143449
H36	H	-0.203174	1.320549	-0.076489
