data_functionalizedCrystal
_audit_creation_method	'MofGen! by Chris Wilmer'
_symmetry_space_group_name_H-M	'P1'
_symmetry_Int_Tables_number	1
_symmetry_cell_setting	triclinic
loop_
_symmetry_equiv_pos_as_xyz
  x,y,z
_cell_length_a	12.759401
_cell_length_b	13.897448
_cell_length_c	12.759393
_cell_angle_alpha	89.966654
_cell_angle_beta	89.981504
_cell_angle_gamma	90.017853
loop_
_atom_site_label
_atom_site_type_symbol
_atom_site_fract_x
_atom_site_fract_y
_atom_site_fract_z
Zn1	Zn	1.606234	-0.383954	-0.593968
Zn2	Zn	1.606119	-0.545283	-0.418283
Zn3	Zn	1.430536	-0.384004	-0.418308
Zn4	Zn	1.430515	-0.545209	-0.593924
O5	O	1.518351	-0.464613	-0.506121
O6	O	1.753239	-0.405365	-0.570671
O7	O	1.582788	-0.523942	-0.271265
O8	O	1.453899	-0.249016	-0.441638
O9	O	1.753155	-0.523893	-0.441596
O10	O	1.582983	-0.248979	-0.570695
O11	O	1.453788	-0.405451	-0.271283
O12	O	1.283512	-0.405379	-0.441596
O13	O	1.453864	-0.523766	-0.740951
O14	O	1.283497	-0.523815	-0.570621
O15	O	1.582964	-0.405293	-0.740984
O16	O	1.582768	-0.680255	-0.441554
O17	O	1.453753	-0.680201	-0.570597
C18	C	1.245383	-0.464595	-0.506107
C19	C	1.128607	-0.464611	-0.506125
C20	C	1.518274	-0.715227	-0.506090
C21	C	1.518337	-0.822441	-0.506113
C22	C	1.073764	-0.526379	-0.573198
C23	C	0.964040	-0.526391	-0.573209
C24	C	0.964011	-0.402864	-0.439067
C25	C	1.073733	-0.402847	-0.439062
C26	C	1.128638	-0.588142	-0.640261
C27	C	1.073796	-0.649917	-0.707338
C28	C	0.964072	-0.649929	-0.707349
C29	C	0.909190	-0.588167	-0.640284
C30	C	1.518448	-1.018736	-0.506178
C31	C	1.518383	-0.909503	-0.506145
C32	C	1.792384	-0.464631	-0.506136
C33	C	1.909161	-0.464639	-0.506142
C34	C	1.518424	-0.464515	-0.780154
C35	C	1.518456	-0.464474	-0.896931
C36	C	1.518456	-0.213020	-0.506174
C37	C	1.518501	-0.105806	-0.506197
C38	C	1.585687	-0.402779	-0.951812
C39	C	1.585712	-0.402744	-1.061536
C40	C	1.451271	-0.526107	-1.061489
C41	C	1.451242	-0.526137	-0.951767
C42	C	1.652901	-0.341116	-0.896976
C43	C	1.720139	-0.279417	-0.951856
C44	C	1.720164	-0.279382	-1.061580
C45	C	1.652951	-0.341046	-1.116424
C46	C	1.518338	-0.464640	-0.233154
C47	C	1.518510	-0.464410	-0.116377
H48	H	1.217981	-0.588141	-0.640258
O49	O	0.910539	-0.342973	-0.373947
C50	C	0.741491	-0.288230	-0.314536
C51	C	0.801914	-0.356115	-0.388327
H52	H	0.653657	-0.298817	-0.326152
H53	H	0.762956	-0.305082	-0.229766
H54	H	0.763140	-0.210475	-0.333114
H55	H	0.780297	-0.433893	-0.369844
H56	H	0.780444	-0.339180	-0.473076
H57	H	1.118386	-0.352543	-0.384454
O58	O	0.802604	-0.588139	-0.640500
C59	C	0.645223	-0.563352	-0.741291
C60	C	0.765927	-0.563387	-0.741195
H61	H	0.615533	-0.543323	-0.822688
H62	H	0.615306	-0.638019	-0.719423
H63	H	0.615470	-0.508619	-0.681796
H64	H	0.795769	-0.618074	-0.800691
H65	H	0.795772	-0.488686	-0.763016
H66	H	0.919422	-0.700221	-0.761974
O67	O	1.127265	-0.709875	-0.772386
C68	C	1.296310	-0.764559	-0.831870
C69	C	1.235891	-0.696625	-0.758129
H70	H	1.384145	-0.753856	-0.820385
H71	H	1.274791	-0.842342	-0.813272
H72	H	1.274712	-0.747725	-0.916609
H73	H	1.257457	-0.713372	-0.673366
H74	H	1.257415	-0.618862	-0.776818
O75	O	1.785385	-0.219604	-0.898424
C76	C	1.844877	-0.164932	-0.729413
C77	C	1.770952	-0.232738	-0.789790
H78	H	1.833217	-0.175513	-0.641571
H79	H	1.929615	-0.181868	-0.750909
H80	H	1.826473	-0.087157	-0.751071
H81	H	1.789261	-0.310536	-0.768164
H82	H	1.686235	-0.215719	-0.768288
O83	O	1.386092	-0.585980	-1.114923
C84	C	1.326523	-0.640574	-1.283938
C85	C	1.400405	-0.572730	-1.223557
H86	H	1.338054	-0.629870	-1.371779
H87	H	1.344938	-0.718380	-1.262418
H88	H	1.241818	-0.623648	-1.262307
H89	H	1.485135	-0.589569	-1.245156
H90	H	1.381900	-0.494944	-1.245083
H91	H	1.652890	-0.341139	-0.807633
H92	H	1.652964	-0.341002	-1.205769
O93	O	1.785570	-0.219417	-1.114731
C94	C	1.918872	-0.097023	-1.103190
C95	C	1.844865	-0.164898	-1.042871
H96	H	1.966816	-0.052913	-1.045118
H97	H	1.973869	-0.141254	-1.154523
H98	H	1.870658	-0.046606	-1.154598
H99	H	1.892994	-0.215329	-0.991406
H100	H	1.789865	-0.120608	-0.991605
H101	H	1.396480	-0.576359	-0.907082
