data_functionalizedCrystal
_audit_creation_method	'MofGen! by Chris Wilmer'
_symmetry_space_group_name_H-M	'P1'
_symmetry_Int_Tables_number	1
_symmetry_cell_setting	triclinic
loop_
_symmetry_equiv_pos_as_xyz
  x,y,z
_cell_length_a	16.109301
_cell_length_b	16.098538
_cell_length_c	16.109298
_cell_angle_alpha	87.272597
_cell_angle_beta	83.460834
_cell_angle_gamma	92.735164
loop_
_atom_site_label
_atom_site_type_symbol
_atom_site_fract_x
_atom_site_fract_y
_atom_site_fract_z
O1	O	1.106851	0.069194	0.103154
O2	O	1.606851	0.569194	0.603154
O3	O	0.864790	0.069206	0.116453
O4	O	1.364790	0.569206	0.616453
O5	O	0.992472	0.069205	-0.011228
O6	O	1.492472	0.569205	0.488772
O7	O	0.979169	0.069194	0.230835
O8	O	1.479169	0.569194	0.730835
O9	O	0.985013	-0.069308	-0.003799
O10	O	1.485013	0.430692	0.496201
O11	O	0.857331	-0.069307	0.123882
O12	O	1.357331	0.430693	0.623882
O13	O	1.099392	-0.069319	0.110583
O14	O	1.599392	0.430681	0.610583
Zn15	Zn	0.977178	-0.091305	0.118412
Zn16	Zn	1.477178	0.408695	0.618412
Zn17	Zn	0.987005	0.091192	0.108624
Zn18	Zn	1.487005	0.591192	0.608624
O19	O	0.971710	-0.069319	0.238264
O20	O	1.471710	0.430681	0.738264
C21	C	0.830086	-0.000049	0.119629
C22	C	1.330086	0.499951	0.619629
C23	C	0.737790	-0.000044	0.118013
C24	C	1.237790	0.499956	0.618013
N25	N	0.970477	-0.215854	0.125092
N26	N	1.470477	0.284146	0.625092
C27	C	0.515517	-0.000057	0.190022
C28	C	1.015517	0.499943	0.690022
C29	C	0.428796	-0.000062	0.188498
C30	C	0.928796	0.499938	0.688498
C31	C	0.448673	-0.000052	0.037008
C32	C	0.948673	0.499948	0.537008
C33	C	0.535391	-0.000052	0.038533
C34	C	1.035391	0.499948	0.538533
C35	C	0.568811	-0.000051	0.115042
C36	C	1.068811	0.499949	0.615042
C37	C	0.395372	-0.000055	0.111993
C38	C	0.895372	0.499945	0.611993
C39	C	0.301345	-0.000061	0.110341
C40	C	0.801345	0.499939	0.610341
C41	C	0.662843	-0.000047	0.116695
C42	C	1.162843	0.499953	0.616695
C43	C	1.024690	-0.259440	0.070918
C44	C	1.524690	0.240560	0.570918
C45	C	1.020011	-0.346629	0.075599
C46	C	1.520011	0.153371	0.575599
C47	C	0.961121	-0.390231	0.134458
C48	C	1.461121	0.109769	0.634458
C49	C	0.906902	-0.346639	0.188634
C50	C	1.406902	0.153361	0.688634
C51	C	0.911578	-0.259452	0.183949
C52	C	1.411578	0.240548	0.683949
C53	C	0.944169	-0.653481	0.151428
C54	C	1.444169	-0.153481	0.651428
C55	C	0.939499	-0.740674	0.156111
C56	C	1.439499	-0.240674	0.656111
C57	C	1.052606	-0.740657	0.043075
C58	C	1.552606	-0.240657	0.543075
C59	C	1.057281	-0.653468	0.038398
C60	C	1.557281	-0.153468	0.538398
C61	C	1.003059	-0.609884	0.092571
C62	C	1.503059	-0.109884	0.592571
C63	C	0.956338	-0.479352	0.139246
C64	C	1.456338	0.020648	0.639246
C65	C	1.007839	-0.520765	0.087779
C66	C	1.507839	-0.020765	0.587779
C67	C	1.134097	-0.000063	0.107407
C68	C	1.634097	0.499937	0.607407
C69	C	1.226392	-0.000062	0.109022
C70	C	1.726392	0.499938	0.609022
C71	C	0.988204	-0.000048	-0.038489
C72	C	1.488204	0.499952	0.461511
C73	C	0.986591	-0.000038	-0.130785
C74	C	1.486591	0.499962	0.369215
N75	N	0.993712	0.215741	0.101937
N76	N	1.493712	0.715741	0.601937
C77	C	0.985388	0.075448	-0.433902
C78	C	1.485388	0.575448	0.066098
C79	C	0.986916	0.075454	-0.347183
C80	C	1.486916	0.575454	0.152817
C81	C	0.978796	-0.075560	-0.339068
C82	C	1.478796	0.424440	0.160932
C83	C	0.977274	-0.075565	-0.425787
C84	C	1.477274	0.424435	0.074213
C85	C	0.980566	-0.000059	-0.473201
C86	C	1.480566	0.499941	0.026799
C87	C	0.983616	-0.000048	-0.299763
C88	C	1.483616	0.499952	0.200237
C89	C	0.985273	-0.000042	-0.205738
C90	C	1.485273	0.499958	0.294262
C91	C	0.978911	-0.000064	-0.567233
C92	C	1.478911	0.499936	-0.067233
C93	C	0.975978	-0.000064	0.265524
C94	C	1.475978	0.499936	0.765524
C95	C	0.977592	-0.000068	0.357820
C96	C	1.477592	0.499932	0.857820
H97	H	0.385406	-0.000069	0.249554
H98	H	0.885406	0.499931	0.749554
O99	O	0.988944	0.156884	-0.485045
O100	O	1.488944	0.656884	0.014955
H101	H	0.931806	0.160492	-0.517310
H102	H	1.431806	0.660492	-0.017310
H103	H	0.990844	0.136939	-0.315189
H104	H	1.490844	0.636939	0.184811
O105	O	0.975239	-0.156998	-0.287929
O106	O	1.475239	0.343002	0.212071
H107	H	0.977099	-0.144311	-0.221024
H108	H	1.477099	0.355689	0.278976
H109	H	0.421451	-0.000058	-0.025282
H110	H	0.921451	0.499942	0.474718
O111	O	0.592883	-0.000048	-0.042340
O112	O	1.092883	0.499952	0.457660
H113	H	0.555078	-0.000037	-0.095799
H114	H	1.055078	0.499963	0.404201
O115	O	0.551557	-0.000069	0.272543
O116	O	1.051557	0.499931	0.772543
H117	H	0.593622	0.056388	0.273846
H118	H	1.093622	0.556388	0.773846
O119	O	1.088204	-0.212412	0.007431
O120	O	1.588204	0.287588	0.507431
H121	H	1.125108	-0.257371	-0.029458
H122	H	1.625108	0.242629	0.470542
H123	H	1.064155	-0.382115	0.031486
H124	H	1.564155	0.117885	0.531486
O125	O	0.972076	-0.157007	-0.468187
O126	O	1.472076	0.342993	0.031813
H127	H	0.913785	-0.193215	-0.442181
H128	H	1.413785	0.306785	0.057819
O129	O	1.120790	-0.606439	-0.025092
O130	O	1.620790	-0.106439	0.474908
H131	H	1.157697	-0.651396	-0.061984
H132	H	1.657697	-0.151396	0.438016
H133	H	0.891541	-0.776171	0.204045
H134	H	1.391541	-0.276171	0.704045
O135	O	1.111085	-0.787661	-0.015357
O136	O	1.611085	-0.287661	0.484643
H137	H	1.073974	-0.827387	-0.053650
H138	H	1.573974	-0.327387	0.446350
O139	O	0.885698	-0.606476	0.209862
O140	O	1.385698	-0.106476	0.709862
H141	H	0.843972	-0.651446	0.251583
H142	H	1.343972	-0.151446	0.751583
H143	H	0.858949	-0.382145	0.236556
H144	H	1.358949	0.117855	0.736556
H145	H	0.867431	-0.223966	0.228062
H146	H	1.367431	0.276034	0.728062
H147	H	1.055784	-0.485262	0.039853
H148	H	1.555784	0.014738	0.539853
O149	O	0.892833	-0.526383	0.202738
O150	O	1.392833	-0.026383	0.702738
H151	H	0.850311	-0.566121	0.169864
H152	H	1.350311	-0.066121	0.669864
