data_functionalizedCrystal
_audit_creation_method	'MofGen! by Chris Wilmer'
_symmetry_space_group_name_H-M	'P1'
_symmetry_Int_Tables_number	1
_symmetry_cell_setting	triclinic
loop_
_symmetry_equiv_pos_as_xyz
  x,y,z
_cell_length_a	17.639044
_cell_length_b	17.637651
_cell_length_c	12.759393
_cell_angle_alpha	101.250165
_cell_angle_beta	78.795864
_cell_angle_gamma	92.197722
loop_
_atom_site_label
_atom_site_type_symbol
_atom_site_fract_x
_atom_site_fract_y
_atom_site_fract_z
Zn1	Zn	1.099801	-0.536948	0.153465
Zn2	Zn	1.599801	-0.036948	0.653465
Zn3	Zn	1.074044	-0.663982	-0.049458
Zn4	Zn	1.574044	-0.163982	0.450542
Zn5	Zn	0.972808	-0.511329	0.018883
Zn6	Zn	1.472808	-0.011329	0.518883
Zn7	Zn	0.947138	-0.638278	0.167261
Zn8	Zn	1.447138	-0.138278	0.667261
O9	O	1.023448	-0.587634	0.072538
O10	O	1.523448	-0.087634	0.572538
O11	O	1.202643	-0.575278	0.092173
O12	O	1.702643	-0.075278	0.592173
O13	O	1.060578	-0.643767	-0.187413
O14	O	1.560578	-0.143767	0.312587
O15	O	1.011176	-0.408434	0.059563
O16	O	1.511176	0.091566	0.559563
O17	O	1.183719	-0.668609	-0.056914
O18	O	1.683719	-0.168609	0.443086
O19	O	1.104478	-0.427256	0.158440
O20	O	1.604478	0.072744	0.658440
O21	O	0.986200	-0.531614	-0.137203
O22	O	1.486200	-0.031614	0.362797
O23	O	0.863145	-0.506690	0.072940
O24	O	1.363145	-0.006690	0.572940
O25	O	0.967426	-0.624801	0.312452
O26	O	1.467426	-0.124801	0.812452
O27	O	0.844286	-0.599959	0.181952
O28	O	1.344286	-0.099959	0.681952
O29	O	1.079587	-0.550354	0.302316
O30	O	1.579587	-0.050354	0.802316
O31	O	1.035687	-0.766865	-0.043537
O32	O	1.535687	-0.266865	0.456463
O33	O	0.942450	-0.747981	0.115685
O34	O	1.442450	-0.247981	0.615685
C35	C	0.826164	-0.547756	0.136359
C36	C	1.326164	-0.047756	0.636359
C37	C	0.741761	-0.530714	0.163684
C38	C	1.241761	-0.030714	0.663684
C39	C	0.632634	-0.458181	0.279897
C40	C	1.132634	0.041819	0.779897
C41	C	0.711942	-0.474200	0.254213
C42	C	1.211942	0.025800	0.754213
C43	C	0.692277	-0.571229	0.098798
C44	C	1.192277	-0.071229	0.598798
C45	C	0.612966	-0.555215	0.124466
C46	C	1.112966	-0.055215	0.624466
C47	C	0.583151	-0.498691	0.215018
C48	C	1.083151	0.001309	0.715018
C49	C	0.563483	-0.595725	0.059587
C50	C	1.063483	-0.095725	0.559587
C51	C	0.484178	-0.579715	0.085256
C52	C	0.984178	-0.079715	0.585256
C53	C	0.454357	-0.523195	0.175805
C54	C	0.954357	-0.023195	0.675805
C55	C	0.503847	-0.482681	0.240687
C56	C	1.003847	0.017319	0.740687
C57	C	0.593299	-0.652252	-0.030960
C58	C	1.093299	-0.152252	0.469040
C59	C	0.543816	-0.692762	-0.095839
C60	C	1.043816	-0.192762	0.404161
C61	C	0.464510	-0.676749	-0.070175
C62	C	0.964510	-0.176749	0.429825
C63	C	0.434689	-0.620229	0.020374
C64	C	0.934689	-0.120229	0.520374
C65	C	0.415021	-0.717263	-0.135057
C66	C	0.915021	-0.217263	0.364943
C67	C	0.335716	-0.701253	-0.109387
C68	C	0.835716	-0.201253	0.390613
C69	C	0.355384	-0.604219	0.046044
C70	C	0.855384	-0.104219	0.546044
C71	C	0.983509	-0.784988	0.030172
C72	C	1.483509	-0.284988	0.530172
C73	C	0.966492	-0.869431	0.012060
C74	C	1.466492	-0.369431	0.512060
C75	C	1.153215	-1.195817	0.210302
C76	C	1.653215	-0.695817	0.710302
C77	C	1.137201	-1.275159	0.193273
C78	C	1.637201	-0.775159	0.693273
C79	C	1.040110	-1.255679	0.090161
C80	C	1.540110	-0.755679	0.590161
C81	C	1.056119	-1.176334	0.107177
C82	C	1.556119	-0.676334	0.607177
C83	C	1.112671	-1.146410	0.167250
C84	C	1.612671	-0.646410	0.667250
C85	C	1.015575	-1.126928	0.064125
C86	C	1.515575	-0.626928	0.564125
C87	C	1.031579	-1.047589	0.081145
C88	C	1.531579	-0.547589	0.581145
C89	C	1.088127	-1.017658	0.141217
C90	C	1.588127	-0.517658	0.641217
C91	C	1.128675	-1.067071	0.184270
C92	C	1.628675	-0.567071	0.684270
C93	C	0.959019	-1.156853	0.004060
C94	C	1.459019	-0.656853	0.504060
C95	C	0.918475	-1.107446	-0.038993
C96	C	1.418475	-0.607446	0.461007
C97	C	0.934483	-1.028107	-0.021980
C98	C	1.434483	-0.528107	0.478020
C99	C	0.991031	-0.998176	0.038092
C100	C	1.491031	-0.498176	0.538092
C101	C	0.893935	-0.978694	-0.065032
C102	C	1.393935	-0.478694	0.434968
C103	C	0.909940	-0.899355	-0.048012
C104	C	1.409940	-0.399355	0.451988
C105	C	1.007036	-0.918837	0.055112
C106	C	1.507036	-0.418837	0.555112
C107	C	1.221502	-0.627669	0.008467
C108	C	1.721502	-0.127669	0.508467
C109	C	1.305901	-0.644729	-0.018836
C110	C	1.805901	-0.144729	0.481164
C111	C	1.023516	-0.587568	0.346570
C112	C	1.523516	-0.087568	0.846570
C113	C	1.023546	-0.587540	0.463347
C114	C	1.523546	-0.087540	0.963347
C115	C	1.063563	-0.389514	0.115086
C116	C	1.563563	0.110486	0.615086
C117	C	1.080658	-0.305087	0.133217
C118	C	1.580658	0.194913	0.633217
C119	C	1.023434	-0.587654	-0.200431
C120	C	1.523434	-0.087654	0.299569
C121	C	1.023595	-0.587498	-0.317209
C122	C	1.523595	-0.087498	0.182791
C123	C	1.081956	-0.548772	0.512932
C124	C	1.581956	-0.048772	1.012932
C125	C	1.081979	-0.548749	0.622656
C126	C	1.581979	-0.048749	1.122656
C127	C	0.965180	-0.626267	0.633200
C128	C	1.465180	-0.126267	1.133200
C129	C	0.965154	-0.626285	0.523480
C130	C	1.465154	-0.126285	1.023480
C131	C	1.149391	-0.504021	0.506844
C132	C	1.649391	-0.004021	1.006844
C133	C	1.149414	-0.503997	0.616568
C134	C	1.649414	-0.003997	1.116568
H135	H	0.752231	-0.441206	0.307050
H136	H	1.252231	0.058794	0.807050
H137	H	1.145549	-0.442013	0.494805
H138	H	1.645549	0.057987	0.994805
H139	H	0.657876	-0.665274	-0.051870
H140	H	1.157876	-0.165274	0.448130
H141	H	1.139671	-0.443849	0.669421
H142	H	1.639671	0.056151	1.169421
H143	H	0.872429	-1.131822	-0.087900
H144	H	1.372429	-0.631822	0.412100
H145	H	0.568102	-0.738786	-0.169564
H146	H	1.068102	-0.238786	0.330436
H147	H	0.994063	-1.280055	0.041254
H148	H	1.494063	-0.780055	0.541254
F149	F	0.902978	-0.667534	0.470717
F150	F	1.402978	-0.167534	0.970717
H151	H	0.917638	-0.657809	0.682174
H152	H	1.417638	-0.157809	1.182174
H153	H	1.205040	-0.531637	0.623936
H154	H	1.705040	-0.031637	1.123936
F155	F	1.188873	-1.035221	0.248192
F156	F	1.688873	-0.535221	0.748192
H157	H	0.295425	-0.734242	-0.162217
H158	H	0.795425	-0.234242	0.337783
F159	F	0.323651	-0.544051	0.142409
F160	F	0.823651	-0.044051	0.642409
F161	F	1.104972	-0.933180	0.159653
F162	F	1.604972	-0.433180	0.659653
H163	H	0.716563	-0.617252	0.025073
H164	H	1.216563	-0.117252	0.525073
F165	F	1.213412	-1.163966	0.274224
F166	F	1.713412	-0.663966	0.774224
H167	H	1.170210	-1.315382	0.228354
H168	H	1.670210	-0.815382	0.728354
H169	H	0.945983	-1.221455	-0.009784
H170	H	1.445983	-0.721455	0.490216
H171	H	0.439307	-0.763290	-0.208777
H172	H	0.939307	-0.263290	0.291223
H173	H	0.847886	-1.003070	-0.113934
H174	H	1.347886	-0.503070	0.386066
F175	F	1.216817	-0.546333	0.432817
F176	F	1.716817	-0.046333	0.932817
H177	H	0.389781	-0.510163	0.196706
H178	H	0.889781	-0.010163	0.696706
H179	H	0.479572	-0.436645	0.314413
H180	H	0.979572	0.063355	0.814413
H181	H	0.608359	-0.412145	0.353624
H182	H	1.108359	0.087855	0.853624
F183	F	1.067234	-0.886987	0.119034
F184	F	1.567234	-0.386987	0.619034
F185	F	0.866791	-0.846771	-0.093837
F186	F	1.366791	-0.346771	0.406163
