data_functionalizedCrystal
_audit_creation_method	'MofGen! by Chris Wilmer'
_symmetry_space_group_name_H-M	'P1'
_symmetry_Int_Tables_number	1
_symmetry_cell_setting	triclinic
loop_
_symmetry_equiv_pos_as_xyz
  x,y,z
_cell_length_a	16.625548
_cell_length_b	18.101395
_cell_length_c	16.625539
_cell_angle_alpha	90.027648
_cell_angle_beta	90.020568
_cell_angle_gamma	90.032172
loop_
_atom_site_label
_atom_site_type_symbol
_atom_site_fract_x
_atom_site_fract_y
_atom_site_fract_z
Zn1	Zn	1.232632	-0.294807	0.455913
Zn2	Zn	1.482632	-0.044807	0.705913
Zn3	Zn	1.732632	0.205193	0.955913
Zn4	Zn	1.982632	0.455193	1.205913
Zn5	Zn	1.232515	-0.418656	0.321082
Zn6	Zn	1.482515	-0.168656	0.571082
Zn7	Zn	1.732515	0.081344	0.821082
Zn8	Zn	1.982515	0.331344	1.071082
Zn9	Zn	1.097794	-0.294835	0.321094
Zn10	Zn	1.347794	-0.044835	0.571094
Zn11	Zn	1.597794	0.205165	0.821094
Zn12	Zn	1.847794	0.455165	1.071094
Zn13	Zn	1.097744	-0.418614	0.455872
Zn14	Zn	1.347744	-0.168614	0.705872
Zn15	Zn	1.597744	0.081386	0.955872
Zn16	Zn	1.847744	0.331386	1.205872
O17	O	1.165171	-0.356728	0.388490
O18	O	1.415171	-0.106728	0.638490
O19	O	1.665171	0.143272	0.888490
O20	O	1.915171	0.393272	1.138490
O21	O	1.345449	-0.311242	0.438040
O22	O	1.595449	-0.061242	0.688040
O23	O	1.845449	0.188758	0.938040
O24	O	2.095449	0.438758	1.188040
O25	O	1.214616	-0.402261	0.208251
O26	O	1.464616	-0.152261	0.458251
O27	O	1.714616	0.097739	0.708251
O28	O	1.964616	0.347739	0.958251
O29	O	1.115750	-0.191199	0.339000
O30	O	1.365750	0.058801	0.589000
O31	O	1.615750	0.308801	0.839000
O32	O	1.865750	0.558801	1.089000
O33	O	1.345363	-0.402233	0.338980
O34	O	1.595363	-0.152233	0.588980
O35	O	1.845363	0.097767	0.838980
O36	O	2.095363	0.347767	1.088980
O37	O	1.214815	-0.191178	0.438051
O38	O	1.464815	0.058822	0.688051
O39	O	1.714815	0.308822	0.938051
O40	O	1.964815	0.558822	1.188051
O41	O	1.115637	-0.311290	0.208260
O42	O	1.365637	-0.061290	0.458260
O43	O	1.615637	0.188710	0.708260
O44	O	1.865637	0.438710	0.958260
O45	O	0.984955	-0.311249	0.338960
O46	O	1.234955	-0.061249	0.588960
O47	O	1.484955	0.188751	0.838960
O48	O	1.734955	0.438751	1.088960
O49	O	1.115665	-0.402161	0.568710
O50	O	1.365665	-0.152161	0.818710
O51	O	1.615665	0.097839	1.068710
O52	O	1.865665	0.347839	1.318710
O53	O	0.984918	-0.402188	0.437981
O54	O	1.234918	-0.152188	0.687981
O55	O	1.484918	0.097812	0.937981
O56	O	1.734918	0.347812	1.187981
O57	O	1.214767	-0.311201	0.568740
O58	O	1.464767	-0.061201	0.818740
O59	O	1.714767	0.188799	1.068740
O60	O	1.964767	0.438799	1.318740
O61	O	1.214567	-0.522284	0.338940
O62	O	1.464567	-0.272284	0.588940
O63	O	1.714567	-0.022284	0.838940
O64	O	1.964567	0.227716	1.088940
O65	O	1.115552	-0.522252	0.437969
O66	O	1.365552	-0.272252	0.687969
O67	O	1.615552	-0.022252	0.937969
O68	O	1.865552	0.227748	1.187969
C69	C	0.955680	-0.356718	0.388467
C70	C	1.205680	-0.106718	0.638467
C71	C	1.455680	0.143282	0.888467
C72	C	1.705680	0.393282	1.138467
C73	C	0.866059	-0.356731	0.388477
C74	C	1.116059	-0.106731	0.638477
C75	C	1.366059	0.143269	0.888477
C76	C	1.616059	0.393269	1.138477
C77	C	0.537884	-0.356736	0.388511
C78	C	0.787884	-0.106736	0.638511
C79	C	1.037884	0.143264	0.888511
C80	C	1.287884	0.393264	1.138511
C81	C	0.629192	-0.356732	0.388499
C82	C	0.879192	-0.106732	0.638499
C83	C	1.129192	0.143268	0.888499
C84	C	1.379192	0.393268	1.138499
C85	C	0.701969	-0.356734	0.388494
C86	C	0.951969	-0.106734	0.638494
C87	C	1.201969	0.143266	0.888494
C88	C	1.451969	0.393266	1.138494
C89	C	0.793283	-0.356729	0.388483
C90	C	1.043283	-0.106729	0.638483
C91	C	1.293283	0.143271	0.888483
C92	C	1.543283	0.393271	1.138483
C93	C	1.165063	-0.549139	0.388466
C94	C	1.415063	-0.299139	0.638466
C95	C	1.665063	-0.049139	0.888466
C96	C	1.915063	0.200861	1.138466
C97	C	1.165091	-0.631453	0.388483
C98	C	1.415091	-0.381453	0.638483
C99	C	1.665091	-0.131453	0.888483
C100	C	1.915091	0.118547	1.138483
C101	C	1.165268	-0.930544	0.388527
C102	C	1.415268	-0.680544	0.638527
C103	C	1.665268	-0.430544	0.888527
C104	C	1.915268	-0.180544	1.138527
C105	C	1.103114	-0.899230	0.450988
C106	C	1.353114	-0.649230	0.700988
C107	C	1.603114	-0.399230	0.950988
C108	C	1.853114	-0.149230	1.200988
C109	C	1.102819	-0.813612	0.450793
C110	C	1.352819	-0.563612	0.700793
C111	C	1.602819	-0.313612	0.950793
C112	C	1.852819	-0.063612	1.200793
C113	C	1.165180	-0.782161	0.388506
C114	C	1.415180	-0.532161	0.638506
C115	C	1.665180	-0.282161	0.888506
C116	C	1.915180	-0.032161	1.138506
C117	C	1.142173	-0.813313	0.303528
C118	C	1.392173	-0.563313	0.553528
C119	C	1.642173	-0.313313	0.803528
C120	C	1.892173	-0.063313	1.053528
C121	C	1.141772	-0.898959	0.303901
C122	C	1.391772	-0.648959	0.553901
C123	C	1.641772	-0.398959	0.803901
C124	C	1.891772	-0.148959	1.053901
C125	C	1.250565	-0.898886	0.410295
C126	C	1.500565	-0.648886	0.660295
C127	C	1.750565	-0.398886	0.910295
C128	C	2.000565	-0.148886	1.160295
C129	C	1.250063	-0.813235	0.412159
C130	C	1.500063	-0.563235	0.662159
C131	C	1.750063	-0.313235	0.912159
C132	C	2.000063	-0.063235	1.162159
C133	C	1.165132	-0.698302	0.388489
C134	C	1.415132	-0.448302	0.638489
C135	C	1.665132	-0.198302	0.888489
C136	C	1.915132	0.051698	1.138489
C137	C	1.165314	-1.014403	0.388538
C138	C	1.415314	-0.764403	0.638538
C139	C	1.665314	-0.514403	0.888538
C140	C	1.915314	-0.264403	1.138538
C141	C	1.375480	-0.356739	0.388513
C142	C	1.625480	-0.106739	0.638513
C143	C	1.875480	0.143261	0.888513
C144	C	2.125480	0.393261	1.138513
C145	C	1.465101	-0.356744	0.388523
C146	C	1.715101	-0.106744	0.638523
C147	C	1.965101	0.143256	0.888523
C148	C	2.215101	0.393256	1.138523
C149	C	1.165224	-0.356673	0.598799
C150	C	1.415224	-0.106673	0.848799
C151	C	1.665224	0.143327	1.098799
C152	C	1.915224	0.393327	1.348799
C153	C	1.165246	-0.356649	0.688420
C154	C	1.415246	-0.106649	0.938420
C155	C	1.665246	0.143351	1.188420
C156	C	1.915246	0.393351	1.438420
C157	C	1.165302	-0.163566	0.388531
C158	C	1.415302	0.086434	0.638531
C159	C	1.665302	0.336434	0.888531
C160	C	1.915302	0.586434	1.138531
C161	C	1.165357	-0.081252	0.388549
C162	C	1.415357	0.168748	0.638549
C163	C	1.665357	0.418748	0.888549
C164	C	1.915357	0.668748	1.138549
C165	C	1.165165	-0.356730	0.178999
C166	C	1.415165	-0.106730	0.428999
C167	C	1.665165	0.143270	0.678999
C168	C	1.915165	0.393270	0.928999
C169	C	1.165299	-0.356545	0.089378
C170	C	1.415299	-0.106545	0.339378
C171	C	1.665299	0.143455	0.589378
C172	C	1.915299	0.393455	0.839378
C173	C	1.165283	-0.356567	1.016596
C174	C	1.415283	-0.106567	1.266596
C175	C	1.665283	0.143433	1.516596
C176	C	1.915283	0.393433	1.766596
C177	C	1.165271	-0.356592	0.925287
C178	C	1.415271	-0.106592	1.175287
C179	C	1.665271	0.143408	1.425287
C180	C	1.915271	0.393408	1.675287
C181	C	1.165265	-0.356609	0.852511
C182	C	1.415265	-0.106609	1.102511
C183	C	1.665265	0.143391	1.352511
C184	C	1.915265	0.393391	1.602511
C185	C	1.165252	-0.356633	0.761197
C186	C	1.415252	-0.106633	1.011197
C187	C	1.665252	0.143367	1.261197
C188	C	1.915252	0.393367	1.511197
H189	H	1.117214	-0.792547	0.513803
H190	H	1.367214	-0.542547	0.763803
H191	H	1.617214	-0.292547	1.013803
H192	H	1.867214	-0.042547	1.263803
H193	H	1.185078	-0.919675	0.255776
H194	H	1.435078	-0.669675	0.505776
H195	H	1.685078	-0.419675	0.755776
H196	H	1.935078	-0.169675	1.005776
H197	H	1.186018	-0.792943	0.255720
H198	H	1.436018	-0.542943	0.505720
H199	H	1.686018	-0.292943	0.755720
H200	H	1.936018	-0.042943	1.005720
H201	H	1.040275	-0.920817	0.436750
H202	H	1.290275	-0.670817	0.686750
H203	H	1.540275	-0.420817	0.936750
H204	H	1.790275	-0.170817	1.186750
Cl205	Cl	1.046924	-0.780305	0.274546
Cl206	Cl	1.296924	-0.530305	0.524546
Cl207	Cl	1.546924	-0.280305	0.774546
Cl208	Cl	1.796924	-0.030305	1.024546
Cl209	Cl	1.045507	-0.929909	0.275433
Cl210	Cl	1.295507	-0.679909	0.525433
Cl211	Cl	1.545507	-0.429909	0.775433
Cl212	Cl	1.795507	-0.179909	1.025433
H213	H	1.039595	-0.793190	0.436373
H214	H	1.289595	-0.543190	0.686373
H215	H	1.539595	-0.293190	0.936373
H216	H	1.789595	-0.043190	1.186373
H217	H	1.271540	-0.920433	0.471205
H218	H	1.521540	-0.670433	0.721205
H219	H	1.771540	-0.420433	0.971205
H220	H	2.021540	-0.170433	1.221205
Cl221	Cl	1.276854	-0.781796	0.508715
Cl222	Cl	1.526854	-0.531796	0.758715
Cl223	Cl	1.776854	-0.281796	1.008715
Cl224	Cl	2.026854	-0.031796	1.258715
Cl225	Cl	1.325346	-0.780170	0.347045
Cl226	Cl	1.575346	-0.530170	0.597045
Cl227	Cl	1.825346	-0.280170	0.847045
Cl228	Cl	2.075346	-0.030170	1.097045
H229	H	1.117366	-0.919777	0.514202
H230	H	1.367366	-0.669777	0.764202
H231	H	1.617366	-0.419777	1.014202
H232	H	1.867366	-0.169777	1.264202
Cl233	Cl	1.322063	-0.930164	0.340071
Cl234	Cl	1.572063	-0.680164	0.590071
Cl235	Cl	1.822063	-0.430164	0.840071
Cl236	Cl	2.072063	-0.180164	1.090071
