data_functionalizedCrystal
_audit_creation_method	'MofGen! by Chris Wilmer'
_symmetry_space_group_name_H-M	'P1'
_symmetry_Int_Tables_number	1
_symmetry_cell_setting	triclinic
loop_
_symmetry_equiv_pos_as_xyz
  x,y,z
_cell_length_a	16.109301
_cell_length_b	10.723023
_cell_length_c	15.186229
_cell_angle_alpha	89.997261
_cell_angle_beta	89.999362
_cell_angle_gamma	83.964514
loop_
_atom_site_label
_atom_site_type_symbol
_atom_site_fract_x
_atom_site_fract_y
_atom_site_fract_z
O1	O	1.104074	0.160391	-0.073171
O2	O	0.862130	0.180351	-0.073185
O3	O	0.988683	-0.011279	-0.073174
O4	O	0.977521	0.352021	-0.073182
O5	O	0.988674	-0.011282	0.073283
O6	O	0.862121	0.180348	0.073273
O7	O	1.104066	0.160388	0.073286
Zn8	Zn	0.983092	0.170368	0.096533
Zn9	Zn	0.983103	0.170371	-0.096431
O10	O	0.977512	0.352018	0.073276
C11	C	0.831146	0.179541	0.000042
C12	C	0.738836	0.177117	0.000037
C13	C	0.517199	0.285190	0.000045
C14	C	0.430466	0.282903	0.000051
C15	C	0.449002	0.055540	0.000052
C16	C	0.535735	0.057829	0.000052
C17	C	0.569831	0.172658	0.000044
C18	C	0.396365	0.168081	0.000050
C19	C	0.302324	0.165601	0.000056
C20	C	0.663877	0.175139	0.000040
C21	C	0.987867	-0.057770	0.000054
C22	C	0.985437	-0.196292	0.000051
C23	C	0.981837	-0.401219	0.075914
C24	C	0.984349	-0.258050	0.075918
C25	C	1.135049	0.161198	0.000058
C26	C	1.227359	0.163622	0.000057
C27	C	0.978329	0.398509	0.000046
C28	C	0.980758	0.537031	0.000043
N29	N	0.983090	0.170365	0.228225
N30	N	0.983111	0.170365	-0.228124
C31	C	1.039148	0.085539	0.453953
C32	C	1.039150	0.085536	0.546143
C33	C	0.927048	0.255194	0.546142
C34	C	0.927042	0.255190	0.453954
C35	C	0.983097	0.170364	0.407862
C36	C	0.983105	0.170365	0.592240
C37	C	0.983107	0.170363	0.692196
C38	C	0.983093	0.170365	0.307900
H39	H	0.421231	-0.037950	0.000064
H40	H	1.084791	0.016463	0.583667
H41	H	0.881411	0.324259	0.583680
F42	F	0.980605	-0.470651	0.160814
H43	H	0.984513	-0.249388	-0.064908
F44	F	0.867379	0.345472	0.404897
F45	F	0.591752	-0.061951	0.000058
H46	H	0.544957	0.378691	0.000045
F47	F	0.374455	0.402676	0.000052
H48	H	0.985281	-0.204947	0.140874
H49	H	0.981687	-0.409842	-0.064909
H50	H	1.084789	0.016467	0.416427
