data_functionalizedCrystal
_audit_creation_method	'MofGen! by Chris Wilmer'
_symmetry_space_group_name_H-M	'P1'
_symmetry_Int_Tables_number	1
_symmetry_cell_setting	triclinic
loop_
_symmetry_equiv_pos_as_xyz
  x,y,z
_cell_length_a	12.811457
_cell_length_b	27.732048
_cell_length_c	11.295483
_cell_angle_alpha	94.055952
_cell_angle_beta	91.289320
_cell_angle_gamma	83.346780
loop_
_atom_site_label
_atom_site_type_symbol
_atom_site_fract_x
_atom_site_fract_y
_atom_site_fract_z
O1	O	1.387945	0.066762	0.050849
O2	O	1.084606	0.072770	0.018087
O3	O	1.245695	-0.000545	0.035508
O4	O	1.226856	0.140077	0.033428
O5	O	1.231546	0.005884	0.232028
O6	O	1.070457	0.079199	0.214607
O7	O	1.373797	0.073191	0.247369
Cu8	Cu	1.220835	0.076782	0.248932
Cu9	Cu	1.237567	0.069179	0.016524
O10	O	1.212708	0.146506	0.229948
C11	C	1.038736	0.075451	0.112157
C12	C	0.923137	0.073855	0.099673
C13	C	0.690488	0.077857	0.290485
C14	C	0.581871	0.076357	0.278761
C15	C	0.597287	0.069353	0.064502
C16	C	0.705903	0.070852	0.076226
C17	C	0.752499	0.075105	0.189221
C18	C	0.861116	0.076608	0.200944
C19	C	0.876531	0.069600	-0.013314
C20	C	0.767915	0.068101	-0.025038
C21	C	1.238225	-0.015341	0.133729
C22	C	1.237033	-0.069006	0.133610
C23	C	1.324734	-0.407032	0.143021
C24	C	1.320316	-0.608732	0.142527
O25	O	1.400512	-0.639265	0.151136
N26	N	1.224796	-0.628717	0.132211
C27	C	1.130374	-0.598275	0.122011
O28	O	1.049028	-0.619903	0.113213
C29	C	1.134794	-0.396576	0.122496
C30	C	1.230319	-0.376593	0.132824
C31	C	1.420252	-0.387048	0.153347
C32	C	1.421355	-0.336626	0.153476
C33	C	1.326940	-0.306187	0.143280
C34	C	1.231422	-0.326171	0.132954
C35	C	1.040373	-0.366135	0.112287
C36	C	1.041487	-0.315708	0.112407
C37	C	1.137012	-0.295724	0.122735
C38	C	1.138110	-0.245310	0.122888
N39	N	1.233630	-0.225324	0.133203
C40	C	1.328045	-0.255763	0.143399
C41	C	1.128060	-0.704170	0.121759
C42	C	1.126955	-0.754594	0.121640
C43	C	1.316898	-0.765048	0.142154
C44	C	1.318001	-0.714622	0.142281
C45	C	1.223581	-0.684184	0.132075
C46	C	1.330354	-0.149872	0.143672
C47	C	1.331448	-0.099445	0.143806
C48	C	1.141507	-0.088996	0.123286
C49	C	1.140411	-0.139419	0.123158
C50	C	1.234844	-0.169856	0.133348
O51	O	1.057958	-0.214748	0.114270
O52	O	1.409381	-0.234127	0.152169
C53	C	1.323631	-0.457454	0.142891
C54	C	1.228113	-0.477438	0.132565
C55	C	1.133698	-0.446999	0.122369
C56	C	1.227008	-0.527862	0.132446
C57	C	1.321423	-0.558301	0.142642
C58	C	1.416943	-0.538315	0.152957
C59	C	1.418046	-0.487893	0.153087
C60	C	1.038178	-0.466985	0.112053
C61	C	1.037083	-0.517407	0.111926
C62	C	1.131498	-0.547846	0.122122
C63	C	1.419667	0.070510	0.153296
C64	C	1.535267	0.072106	0.165773
C65	C	1.220178	0.161302	0.131725
C66	C	1.221370	0.214967	0.131836
N67	N	1.209074	0.082130	0.412397
N68	N	1.249337	0.063828	-0.146940
C69	C	1.334000	0.025305	0.675196
C70	C	1.325119	0.029350	0.798900
C71	C	1.182428	0.094261	0.783508
C72	C	1.191309	0.090217	0.659805
C73	C	1.267098	0.055738	0.605654
C74	C	1.275983	0.051696	0.481949
C75	C	1.133287	0.116605	0.466559
C76	C	1.124407	0.120650	0.590262
H77	H	0.531384	0.078601	0.361220
H78	H	0.728425	0.081326	0.382489
H79	H	1.497140	-0.411827	0.161646
Cl80	Cl	1.029131	0.163991	0.658347
H81	H	1.409240	-0.083177	0.152220
Cl82	Cl	0.538704	0.063960	-0.077535
H83	H	0.729962	0.064636	-0.117035
Cl84	Cl	1.087145	0.137599	0.851596
Cl85	Cl	0.954492	0.066149	-0.140624
H86	H	1.078814	0.141387	0.409923
Cl87	Cl	1.449071	-0.188128	0.156485
Cl88	Cl	1.535634	-0.576590	0.165781
Cl89	Cl	1.541453	-0.311513	0.166427
H90	H	0.899052	0.080074	0.292950
H91	H	1.395787	-0.698356	0.150690
Cl92	Cl	1.435590	-0.803323	0.154966
H93	H	1.049167	-0.770859	0.113250
Cl94	Cl	1.409226	-0.008911	0.886321
Cl95	Cl	1.009347	-0.665912	0.108928
H96	H	0.962587	-0.382396	0.103870
H97	H	0.964596	-0.290927	0.104093
Cl98	Cl	0.916980	-0.542522	0.098946
H99	H	1.062624	-0.155689	0.114781
H100	H	1.064636	-0.064204	0.114989
H101	H	1.495832	-0.471627	0.161497
H102	H	0.961292	-0.442206	0.103747
Cl103	Cl	1.371262	0.008353	0.413875
Cl104	Cl	1.429286	-0.018033	0.607120
