data_functionalizedCrystal
_audit_creation_method	'MofGen! by Chris Wilmer'
_symmetry_space_group_name_H-M	'P1'
_symmetry_Int_Tables_number	1
_symmetry_cell_setting	triclinic
loop_
_symmetry_equiv_pos_as_xyz
  x,y,z
_cell_length_a	17.699083
_cell_length_b	12.837942
_cell_length_c	16.176319
_cell_angle_alpha	89.994101
_cell_angle_beta	89.998611
_cell_angle_gamma	89.055978
loop_
_atom_site_label
_atom_site_type_symbol
_atom_site_fract_x
_atom_site_fract_y
_atom_site_fract_z
O1	O	1.013708	0.131067	-0.068629
O2	O	0.794582	0.148119	-0.068656
O3	O	0.899286	-0.011297	-0.068638
O4	O	0.909004	0.290484	-0.068647
O5	O	0.899269	-0.011307	0.068855
O6	O	0.794565	0.148109	0.068837
O7	O	1.013691	0.131057	0.068864
Cu8	Cu	0.904126	0.139582	0.081405
Cu9	Cu	0.904146	0.139594	-0.081197
O10	O	0.908987	0.290474	0.068846
C11	C	0.766332	0.147503	0.000087
C12	C	0.682179	0.145670	0.000077
C13	C	0.640432	0.239245	0.000074
C14	C	0.561362	0.237516	0.000085
C15	C	0.524040	0.142212	0.000092
C16	C	0.565792	0.048631	0.000097
C17	C	0.644861	0.050360	0.000093
C18	C	0.246916	0.041653	0.000118
C19	C	0.167842	0.039931	0.000120
C20	C	0.163418	0.228809	0.000111
C21	C	0.242486	0.230539	0.000106
C22	C	0.284232	0.136958	0.000115
C23	C	0.369969	0.138833	0.000105
C24	C	0.438304	0.140336	0.000097
C25	C	0.895995	-0.049915	0.000108
C26	C	0.886204	-0.164967	0.000105
C27	C	1.003908	-0.406222	0.000102
C28	C	0.994712	-0.514324	0.000100
C29	C	0.858617	-0.489277	0.000092
C30	C	0.867813	-0.381174	0.000094
C31	C	0.940461	-0.339651	0.000101
C32	C	0.949656	-0.231546	0.000109
C33	C	0.813561	-0.206501	0.000095
C34	C	0.804365	-0.314604	0.000093
C35	C	1.041941	0.131673	0.000119
C36	C	1.126094	0.133506	0.000124
C37	C	0.912278	0.329091	0.000099
C38	C	0.922069	0.444144	0.000096
N39	N	0.904118	0.139573	0.195770
N40	N	0.904160	0.139595	-0.195562
C41	C	0.950499	0.069012	0.239042
C42	C	0.950502	0.069011	0.325589
C43	C	0.904129	0.139577	0.368863
C44	C	0.857743	0.210141	0.325584
C45	C	0.857736	0.210136	0.239039
C46	C	0.857771	0.210161	0.674613
C47	C	0.857783	0.210162	0.761164
C48	C	0.950537	0.069035	0.761163
C49	C	0.950530	0.069031	0.674617
C50	C	0.904141	0.139591	0.631347
C51	C	0.904137	0.139590	0.537503
C52	C	0.904137	0.139584	0.462705
H53	H	1.008809	-0.197740	0.000117
O54	O	0.995600	0.000617	0.367719
C55	C	1.046296	0.056056	0.417754
H56	H	1.021997	0.137209	0.430709
H57	H	1.102729	0.063007	0.384395
C58	C	1.088107	-0.102071	0.484059
C59	C	1.058260	-0.002401	0.499977
H60	H	1.095491	-0.138131	0.534777
H61	H	1.053955	-0.139423	0.450348
H62	H	1.135132	-0.096265	0.456258
H63	H	1.011232	-0.008209	0.527767
H64	H	1.092405	0.034948	0.533695
H65	H	0.137457	-0.037681	0.000128
H66	H	1.063061	-0.372413	0.000116
O67	O	0.995460	0.000301	0.197066
C68	C	0.975757	-0.102260	0.218272
H69	H	0.915132	-0.102632	0.242057
H70	H	1.015496	-0.132758	0.268524
C71	C	1.056909	-0.172135	0.112207
C72	C	0.982446	-0.172593	0.141415
H73	H	1.061038	-0.215522	0.064801
H74	H	1.070186	-0.103039	0.097922
H75	H	1.090017	-0.197548	0.154092
H76	H	0.949341	-0.147169	0.099535
H77	H	0.969164	-0.241687	0.155691
H78	H	1.046378	-0.568524	0.000098
H79	H	0.799470	-0.523105	0.000077
H80	H	0.280896	-0.034546	0.000126
O81	O	0.733838	-0.355069	-0.000022
C82	C	0.724442	-0.416816	-0.071244
H83	H	0.782145	-0.443877	-0.094986
H84	H	0.694406	-0.368965	-0.121105
C85	C	0.605932	-0.479111	-0.020456
C86	C	0.676804	-0.512355	-0.049613
H87	H	0.576544	-0.538042	-0.007116
H88	H	0.612260	-0.437508	0.027526
H89	H	0.580912	-0.439234	-0.062012
H90	H	0.701827	-0.552220	-0.008053
H91	H	0.670479	-0.553967	-0.097588
H92	H	0.819967	0.267593	0.203807
H93	H	0.761898	-0.152287	0.000100
O94	O	0.529420	-0.043858	0.000069
C95	C	0.450680	-0.025322	0.000092
H96	H	0.437977	0.055607	-0.025943
H97	H	0.428347	-0.030292	0.066055
C98	C	0.427598	-0.207080	-0.021847
C99	C	0.411995	-0.107684	-0.053829
H100	H	0.403734	-0.257887	-0.055105
H101	H	0.480647	-0.219569	-0.021859
H102	H	0.408987	-0.211207	0.033122
H103	H	0.430615	-0.103554	-0.108793
H104	H	0.358949	-0.095196	-0.053828
O105	O	0.995549	0.000339	0.803108
C106	C	0.975837	-0.102240	0.781985
H107	H	0.946675	-0.102060	0.719149
H108	H	0.935861	-0.134226	0.830699
C109	C	1.083519	-0.171546	0.855161
C110	C	1.047707	-0.171326	0.777982
H111	H	1.127850	-0.214163	0.852696
H112	H	1.096798	-0.102437	0.869396
H113	H	1.050198	-0.198199	0.895748
H114	H	1.081024	-0.144661	0.737399
H115	H	1.034435	-0.240432	0.763741
O116	O	0.812694	0.278805	0.632715
C117	C	0.771756	0.341071	0.689471
H118	H	0.802876	0.342189	0.751157
H119	H	0.713117	0.307514	0.698691
C120	C	0.725992	0.451534	0.579922
C121	C	0.764217	0.452915	0.655684
H122	H	0.721337	0.520523	0.559080
H123	H	0.753570	0.409582	0.541684
H124	H	0.677130	0.423565	0.587616
H125	H	0.813080	0.480871	0.647987
H126	H	0.736646	0.494874	0.693920
O127	O	0.812582	0.278582	0.367583
C128	C	0.736458	0.261873	0.346433
H129	H	0.730108	0.178891	0.322650
H130	H	0.718365	0.319356	0.296194
C131	C	0.694123	0.379983	0.452530
C132	C	0.686323	0.278060	0.423326
H133	H	0.663196	0.389972	0.499960
H134	H	0.745409	0.391244	0.466778
H135	H	0.679046	0.427874	0.410657
H136	H	0.701408	0.230171	0.465195
H137	H	0.635037	0.266791	0.409087
H138	H	0.670814	0.316852	0.000068
H139	H	0.527375	0.313714	0.000082
H140	H	0.988294	0.011573	0.639387
H141	H	0.820018	0.267627	0.796396
H142	H	0.678850	-0.025837	0.000094
H143	H	0.129419	0.305007	0.000107
H144	H	0.272870	0.308145	0.000096
