data_functionalizedCrystal
_audit_creation_method	'MofGen! by Chris Wilmer'
_symmetry_space_group_name_H-M	'P1'
_symmetry_Int_Tables_number	1
_symmetry_cell_setting	triclinic
loop_
_symmetry_equiv_pos_as_xyz
  x,y,z
_cell_length_a	16.959454
_cell_length_b	13.032951
_cell_length_c	13.034356
_cell_angle_alpha	105.186779
_cell_angle_beta	82.791981
_cell_angle_gamma	97.177501
loop_
_atom_site_label
_atom_site_type_symbol
_atom_site_fract_x
_atom_site_fract_y
_atom_site_fract_z
Zn1	Zn	-0.400768	-1.700179	-0.806516
Zn2	Zn	-0.547848	-1.677486	-0.628895
Zn3	Zn	-0.400768	-1.499982	-0.606393
Zn4	Zn	-0.517981	-1.522517	-0.783942
O5	O	-0.466841	-1.600041	-0.706437
O6	O	-0.432778	-1.845806	-0.801819
O7	O	-0.540838	-1.635012	-0.477271
O8	O	-0.290161	-1.526605	-0.632970
O9	O	-0.540838	-1.829134	-0.671322
O10	O	-0.290161	-1.673688	-0.780000
O11	O	-0.432779	-1.504601	-0.460738
O12	O	-0.403817	-1.354334	-0.611081
O13	O	-0.489932	-1.565012	-0.935576
O14	O	-0.489933	-1.370890	-0.741525
O15	O	-0.403817	-1.695539	-0.952162
O16	O	-0.654494	-1.656863	-0.649432
O17	O	-0.632550	-1.543007	-0.763344
C18	C	-0.443634	-1.324072	-0.671412
C19	C	-0.433723	-1.206014	-0.656454
C20	C	-0.672202	-1.599950	-0.706407
C21	C	-0.760061	-1.600012	-0.706443
C22	C	-0.471998	-1.161587	-0.714229
C23	C	-0.461755	-1.039568	-0.698770
C24	C	-1.120153	-1.540854	-0.765756
C25	C	-1.142943	-1.659537	-0.647263
C26	C	-1.060395	-1.659499	-0.647249
C27	C	-1.007721	-1.600136	-0.706488
C28	C	-1.037596	-1.540811	-0.765741
C29	C	-1.030513	-1.718814	-0.587988
C30	C	-0.947961	-1.718777	-0.587970
C31	C	-0.895286	-1.659419	-0.647216
C32	C	-0.925165	-1.600093	-0.706472
C33	C	-0.872492	-1.540730	-0.765711
C34	C	-0.902370	-1.481410	-0.824975
C35	C	-0.984922	-1.481454	-0.824986
C36	C	-0.812734	-1.659375	-0.647204
C37	C	-0.789936	-1.540688	-0.765696
C38	C	-0.260680	-1.600164	-0.706493
C39	C	-0.172826	-1.600217	-0.706517
C40	C	-0.443543	-1.635320	-0.983487
C41	C	-0.433614	-1.650354	-1.101550
C42	C	-0.490131	-0.877087	-0.741592
C43	C	-0.500035	-0.995145	-0.756554
C44	C	-0.461539	-1.608010	-1.268003
C45	C	-0.471801	-1.592468	-1.145979
C46	C	-0.489997	-1.564960	-0.430472
C47	C	-0.499720	-1.550132	-0.312436
H48	H	-0.512346	-1.213886	-0.775142
H49	H	-0.540384	-1.047439	-0.817474
N50	N	-0.408175	-1.688892	-1.337258
H51	H	-0.440592	-1.743917	-1.389520
H52	H	-0.364081	-1.651487	-1.377745
H53	H	-0.393368	-1.153716	-0.595550
H54	H	-0.788411	-1.707668	-0.598947
N55	N	-0.408307	-0.970309	-0.618075
H56	H	-0.364254	-0.929806	-0.655529
H57	H	-0.440748	-0.918057	-0.563013
H58	H	-0.393328	-1.711418	-1.153842
H59	H	-0.512092	-1.531412	-1.093686
N60	N	-0.733126	-1.476665	-0.829596
H61	H	-0.764582	-1.439096	-0.867137
H62	H	-0.698423	-1.422013	-0.780078
N63	N	-0.553091	-1.469259	-1.243177
H64	H	-0.552857	-1.469622	-1.165825
H65	H	-0.532795	-1.395851	-1.252886
N66	N	-0.845550	-1.417378	-0.888854
H67	H	-0.810744	-1.466758	-0.943573
H68	H	-0.877052	-1.379807	-0.926332
H69	H	-1.009256	-1.433157	-0.873234
H70	H	-1.144483	-1.492560	-0.814010
N71	N	-1.199749	-1.723542	-0.583353
H72	H	-1.256579	-1.714560	-0.592348
H73	H	-1.190263	-1.801497	-0.609562
N74	N	-1.087321	-1.782813	-0.524074
H75	H	-1.144150	-1.773836	-0.533076
H76	H	-1.077834	-1.860768	-0.550273
H77	H	-0.923640	-1.767080	-0.539716
