data_functionalizedCrystal
_audit_creation_method	'MofGen! by Chris Wilmer'
_symmetry_space_group_name_H-M	'P1'
_symmetry_Int_Tables_number	1
_symmetry_cell_setting	triclinic
loop_
_symmetry_equiv_pos_as_xyz
  x,y,z
_cell_length_a	18.215407
_cell_length_b	19.076808
_cell_length_c	18.215399
_cell_angle_alpha	87.671678
_cell_angle_beta	89.982632
_cell_angle_gamma	92.320961
loop_
_atom_site_label
_atom_site_type_symbol
_atom_site_fract_x
_atom_site_fract_y
_atom_site_fract_z
Zn1	Zn	1.113296	-0.280271	-0.404282
Zn2	Zn	1.613296	0.219729	0.095718
Zn3	Zn	1.108258	-0.397979	-0.276266
Zn4	Zn	1.608258	0.102021	0.223734
Zn5	Zn	0.990227	-0.280288	-0.281234
Zn6	Zn	1.490227	0.219712	0.218766
Zn7	Zn	0.985250	-0.397934	-0.399298
Zn8	Zn	1.485250	0.102066	0.100702
O9	O	1.049258	-0.339118	-0.340270
O10	O	1.549258	0.160882	0.159730
O11	O	1.215611	-0.295898	-0.387307
O12	O	1.715611	0.204102	0.112693
O13	O	1.092576	-0.382393	-0.173940
O14	O	1.592576	0.117607	0.326060
O15	O	1.010744	-0.181790	-0.301721
O16	O	1.510744	0.318210	0.198279
O17	O	1.211910	-0.382377	-0.293255
O18	O	1.711910	0.117623	0.206745
O19	O	1.101161	-0.181777	-0.392124
O20	O	1.601161	0.318223	0.107876
O21	O	1.005859	-0.295926	-0.177590
O22	O	1.505859	0.204074	0.322410
O23	O	0.886583	-0.295882	-0.296889
O24	O	1.386583	0.204118	0.203111
O25	O	1.002261	-0.382300	-0.502945
O26	O	1.502261	0.117700	-0.002945
O27	O	0.882927	-0.382316	-0.383630
O28	O	1.382927	0.117684	0.116370
O29	O	1.096335	-0.295854	-0.506606
O30	O	1.596335	0.204146	-0.006606
O31	O	1.087750	-0.496470	-0.288422
O32	O	1.587750	0.003530	0.211578
O33	O	0.997376	-0.496436	-0.378813
O34	O	1.497376	0.003564	0.121187
C35	C	0.858052	-0.339097	-0.340258
C36	C	1.358052	0.160903	0.159742
C37	C	0.776253	-0.339104	-0.340270
C38	C	1.276253	0.160896	0.159730
C39	C	0.589981	-0.294167	-0.389314
C40	C	1.089981	0.205833	0.110686
C41	C	0.513122	-0.294173	-0.389316
C42	C	1.013122	0.205827	0.110684
C43	C	0.509285	-0.384089	-0.291239
C44	C	1.009285	0.115911	0.208761
C45	C	0.586143	-0.384079	-0.291234
C46	C	1.086143	0.115921	0.208766
C47	C	0.626489	-0.339119	-0.340275
C48	C	1.126489	0.160881	0.159725
C49	C	0.472772	-0.339135	-0.340283
C50	C	0.972772	0.160865	0.159717
C51	C	0.389438	-0.339142	-0.340285
C52	C	0.889438	0.160858	0.159715
C53	C	0.709828	-0.339111	-0.340272
C54	C	1.209828	0.160889	0.159728
C55	C	1.041496	-0.521992	-0.332554
C56	C	1.541496	-0.021992	0.167446
C57	C	1.038243	-0.600226	-0.329277
C58	C	1.538243	-0.100226	0.170723
C59	C	1.083755	-0.636914	-0.374844
C60	C	1.583755	-0.136914	0.125156
C61	C	1.080695	-0.710423	-0.371767
C62	C	1.580695	-0.210423	0.128233
C63	C	1.032127	-0.747243	-0.323118
C64	C	1.532127	-0.247243	0.176882
C65	C	0.986610	-0.710551	-0.277550
C66	C	1.486610	-0.210551	0.222450
C67	C	0.989666	-0.637043	-0.280631
C68	C	1.489666	-0.137043	0.219369
C69	C	1.017938	-0.967096	-0.308854
C70	C	1.517938	-0.467096	0.191146
C71	C	1.014887	-1.040609	-0.305774
C72	C	1.514887	-0.540609	0.194226
C73	C	1.108972	-1.040476	-0.399992
C74	C	1.608972	-0.540476	0.100008
C75	C	1.112027	-0.966967	-0.403067
C76	C	1.612027	-0.466967	0.096933
C77	C	1.066507	-0.930280	-0.357501
C78	C	1.566507	-0.430280	0.142499
N79	N	1.029000	-0.822382	-0.319970
N80	N	1.529000	-0.322382	0.180030
N81	N	1.069631	-0.855143	-0.360653
N82	N	1.569631	-0.355143	0.139347
C83	C	1.241210	-0.339141	-0.340283
C84	C	1.741210	0.160859	0.159717
C85	C	1.323008	-0.339150	-0.340288
C86	C	1.823008	0.160850	0.159712
C87	C	1.049305	-0.339070	-0.532225
C88	C	1.549305	0.160930	-0.032225
C89	C	1.049325	-0.339049	-0.614025
C90	C	1.549325	0.160951	-0.114025
C91	C	1.057070	-0.155531	-0.348033
C92	C	1.557070	0.344469	0.151967
C93	C	1.060399	-0.077296	-0.351341
C94	C	1.560399	0.422704	0.148659
C95	C	1.098328	-0.293994	-0.804129
C96	C	1.598328	0.206006	-0.304129
C97	C	1.098338	-0.293974	-0.880988
C98	C	1.598338	0.206026	-0.380988
C99	C	1.000378	-0.383995	-0.877164
C100	C	1.500378	0.116005	-0.377164
C101	C	1.000365	-0.384011	-0.800306
C102	C	1.500365	0.115989	-0.300306
C103	C	1.049344	-0.339012	-0.763790
C104	C	1.549344	0.160988	-0.263790
C105	C	1.049367	-0.338975	-0.917508
C106	C	1.549367	0.161025	-0.417508
C107	C	1.049377	-0.338953	-1.000843
C108	C	1.549377	0.161047	-0.500843
C109	C	1.049334	-0.339033	-0.680450
C110	C	1.549334	0.160967	-0.180450
C111	C	1.049256	-0.339116	-0.149064
C112	C	1.549256	0.160884	0.350936
C113	C	1.049387	-0.338938	-0.067273
C114	C	1.549387	0.161062	0.432727
H115	H	0.483402	-0.257568	-0.429247
H116	H	0.983402	0.242432	0.070753
Br117	Br	0.933912	-0.445065	-0.926726
Br118	Br	1.433912	0.054935	-0.426726
Br119	Br	0.454525	-0.445104	-0.224687
Br120	Br	0.954525	0.054896	0.275313
Br121	Br	1.170743	-1.090268	-0.461830
Br122	Br	1.670743	-0.590268	0.038170
H123	H	0.615868	-0.420685	-0.251297
H124	H	1.115868	0.079315	0.248703
Br125	Br	0.933877	-0.445105	-0.745556
Br126	Br	1.433877	0.054895	-0.245556
H127	H	0.975333	-1.070586	-0.266158
H128	H	1.475333	-0.570586	0.233842
Br129	Br	1.164823	-0.232881	-0.935731
Br130	Br	1.664823	0.267119	-0.435731
H131	H	0.622829	-0.257556	-0.429244
H132	H	1.122829	0.242444	0.070756
H133	H	1.123308	-0.606939	-0.414455
H134	H	1.623308	-0.106939	0.085545
H135	H	1.117762	-0.740291	-0.408866
H136	H	1.617762	-0.240291	0.091134
H137	H	1.151575	-0.936989	-0.442680
H138	H	1.651575	-0.436989	0.057320
H139	H	0.980876	-0.937231	-0.271751
H140	H	1.480876	-0.437231	0.228249
Br141	Br	0.920685	-0.760520	-0.211536
Br142	Br	1.420685	-0.260520	0.288464
H143	H	0.952605	-0.607172	-0.243527
H144	H	1.452605	-0.107172	0.256473
Br145	Br	1.164798	-0.232923	-0.754574
Br146	Br	1.664798	0.267077	-0.254574
