data_functionalizedCrystal
_audit_creation_method	'MofGen! by Chris Wilmer'
_symmetry_space_group_name_H-M	'P1'
_symmetry_Int_Tables_number	1
_symmetry_cell_setting	triclinic
loop_
_symmetry_equiv_pos_as_xyz
  x,y,z
_cell_length_a	25.639233
_cell_length_b	16.120530
_cell_length_c	16.120484
_cell_angle_alpha	90.167327
_cell_angle_beta	87.119255
_cell_angle_gamma	92.909794
loop_
_atom_site_label
_atom_site_type_symbol
_atom_site_fract_x
_atom_site_fract_y
_atom_site_fract_z
Zn1	Zn	-0.348043	-1.254406	0.395720
Zn2	Zn	0.151957	-0.754406	0.895720
Zn3	Zn	-0.264801	-1.247265	0.534753
Zn4	Zn	0.235199	-0.747265	1.034753
Zn5	Zn	-0.255980	-1.115363	0.388657
Zn6	Zn	0.244020	-0.615363	0.888657
Zn7	Zn	-0.347564	-1.108258	0.527673
Zn8	Zn	0.152436	-0.608258	1.027673
O9	O	-0.304097	-1.181323	0.461701
O10	O	0.195903	-0.681323	0.961701
O11	O	-0.340893	-1.369823	0.420082
O12	O	0.159107	-0.869823	0.920082
O13	O	-0.190466	-1.229753	0.515380
O14	O	0.309534	-0.729753	1.015380
O15	O	-0.264700	-1.139770	0.273230
O16	O	0.235300	-0.639770	0.773230
O17	O	-0.279735	-1.364577	0.522228
O18	O	0.220265	-0.864577	1.022228
O19	O	-0.332339	-1.241923	0.278419
O20	O	0.167661	-0.741923	0.778419
O21	O	-0.183984	-1.132846	0.408044
O22	O	0.316016	-0.632846	0.908044
O23	O	-0.264237	-0.998056	0.401179
O24	O	0.235763	-0.498056	0.901179
O25	O	-0.420793	-1.127660	0.510162
O26	O	0.079207	-0.627660	1.010162
O27	O	-0.331524	-0.992836	0.503313
O28	O	0.168476	-0.492836	1.003313
O29	O	-0.421145	-1.235034	0.413217
O30	O	0.078855	-0.735034	0.913217
O31	O	-0.279272	-1.222864	0.650178
O32	O	0.220728	-0.722864	1.150178
O33	O	-0.340077	-1.120736	0.644976
O34	O	0.159923	-0.620736	1.144976
C35	C	-0.296871	-0.965274	0.450712
C36	C	0.203129	-0.465274	0.950712
C37	C	-0.293793	-0.872846	0.446031
C38	C	0.206207	-0.372846	0.946031
C39	C	-0.310592	-1.170276	0.677750
C40	C	0.189408	-0.670276	1.177750
C41	C	-0.313390	-1.165627	0.770181
C42	C	0.186610	-0.665627	1.270181
C43	C	-0.440471	-1.181351	0.461687
C44	C	0.059529	-0.681351	0.961687
C45	C	-0.498585	-1.181362	0.461682
C46	C	0.001415	-0.681362	0.961682
C47	C	-0.859134	-1.237348	0.411048
C48	C	-0.359134	-0.737348	0.911048
C49	C	-0.913738	-1.237359	0.411025
C50	C	-0.413738	-0.737359	0.911025
O51	O	-0.942134	-1.284887	0.368069
O52	O	-0.442134	-0.784887	0.868069
N53	N	-0.940865	-1.181464	0.461491
N54	N	-0.440865	-0.681464	0.961491
C55	C	-0.913384	-1.125548	0.511977
C56	C	-0.413384	-0.625548	1.011977
O57	O	-0.941471	-1.078006	0.554900
O58	O	-0.441471	-0.578006	1.054900
C59	C	-0.858781	-1.125533	0.511995
C60	C	-0.358781	-0.625533	1.011995
C61	C	-0.831657	-1.181438	0.461531
C62	C	-0.331657	-0.681438	0.961531
C63	C	-0.832011	-1.293247	0.360588
C64	C	-0.332011	-0.793247	0.860588
C65	C	-0.777411	-1.293236	0.360612
C66	C	-0.277411	-0.793236	0.860612
C67	C	-0.749934	-1.237326	0.411095
C68	C	-0.249934	-0.737326	0.911095
C69	C	-0.777057	-1.181427	0.461555
C70	C	-0.277057	-0.681427	0.961555
C71	C	-0.831301	-1.069614	0.562475
C72	C	-0.331301	-0.569614	1.062475
C73	C	-0.776694	-1.069604	0.562488
C74	C	-0.276694	-0.569604	1.062488
C75	C	-0.749570	-1.125508	0.512025
C76	C	-0.249570	-0.625508	1.012025
C77	C	-0.694980	-1.125507	0.512063
C78	C	-0.194980	-0.625507	1.012063
N79	N	-0.667854	-1.181402	0.461596
N80	N	-0.167854	-0.681402	0.961596
C81	C	-0.695331	-1.237312	0.411113
C82	C	-0.195331	-0.737312	0.911113
C83	C	-1.028054	-1.125582	0.511935
C84	C	-0.528054	-0.625582	1.011935
C85	C	-1.082657	-1.125600	0.511923
C86	C	-0.582657	-0.625600	1.011923
C87	C	-1.083007	-1.237411	0.410970
C88	C	-0.583007	-0.737411	0.910970
C89	C	-1.028404	-1.237396	0.410987
C90	C	-0.528404	-0.737396	0.910987
C91	C	-1.000928	-1.181477	0.461469
C92	C	-0.500928	-0.681477	0.961469
C93	C	-0.580666	-1.237286	0.411167
C94	C	-0.080666	-0.737286	0.911167
C95	C	-0.526062	-1.237272	0.411198
C96	C	-0.026062	-0.737272	0.911198
C97	C	-0.525716	-1.125460	0.512148
C98	C	-0.025716	-0.625460	1.012148
C99	C	-0.580316	-1.125475	0.512120
C100	C	-0.080316	-0.625475	1.012120
C101	C	-0.607790	-1.181392	0.461624
C102	C	-0.107790	-0.681392	0.961624
O103	O	-0.666550	-1.078000	0.554994
O104	O	-0.166550	-0.578000	1.054994
O105	O	-0.667236	-1.284839	0.368189
O106	O	-0.167236	-0.784839	0.868189
C107	C	-0.168254	-1.181347	0.461656
C108	C	0.331746	-0.681347	0.961656
C109	C	-0.110138	-1.181508	0.461436
C110	C	0.389862	-0.681508	0.961436
C111	C	-0.311351	-1.398216	0.472732
C112	C	0.188649	-0.898216	0.972732
C113	C	-0.314443	-1.490643	0.477434
C114	C	0.185557	-0.990643	0.977434
C115	C	-0.288177	-0.703620	0.437466
C116	C	0.211823	-0.203620	0.937466
C117	C	-0.320057	-0.659864	0.485997
C118	C	0.179943	-0.159864	0.985997
C119	C	-0.316932	-0.565700	0.481231
C120	C	0.183068	-0.065700	0.981231
C121	C	-0.291301	-0.797792	0.442231
C122	C	0.208699	-0.297792	0.942231
C123	C	-0.297589	-1.192436	0.244809
C124	C	0.202411	-0.692436	0.744809
C125	C	-0.294816	-1.197171	0.152382
C126	C	0.205184	-0.697171	0.652382
C127	C	-0.318511	-1.157142	0.939413
C128	C	0.181489	-0.657142	1.439413
C129	C	-0.289697	-1.205653	0.983155
C130	C	0.210303	-0.705653	1.483155
C131	C	-0.292546	-1.200932	1.077322
C132	C	0.207454	-0.700932	1.577322
C133	C	-0.315662	-1.161862	0.845238
C134	C	0.184338	-0.661862	1.345238
H135	H	-0.503980	-1.282799	0.370104
H136	H	-0.003980	-0.782799	0.870104
H137	H	-0.262888	-1.250729	0.949881
H138	H	0.237112	-0.750729	1.449881
Cl139	Cl	-0.365824	-0.711208	0.555666
Cl140	Cl	0.134176	-0.211208	1.055666
Cl141	Cl	-0.242416	-0.652275	0.367798
Cl142	Cl	0.257584	-0.152275	0.867798
H143	H	-0.603029	-1.282815	0.370045
H144	H	-0.103029	-0.782815	0.870045
Cl145	Cl	-0.994312	-1.307676	0.347544
Cl146	Cl	-0.494312	-0.807676	0.847544
Cl147	Cl	-0.743320	-1.363514	0.297162
Cl148	Cl	-0.243320	-0.863514	0.797162
Cl149	Cl	-0.866544	-1.363553	0.297125
Cl150	Cl	-0.366544	-0.863553	0.797125
Cl151	Cl	-1.117560	-1.307696	0.347502
Cl152	Cl	-0.617560	-0.807696	0.847502
Cl153	Cl	-0.993519	-1.055284	0.575412
Cl154	Cl	-0.493519	-0.555284	1.075412
H155	H	-1.104737	-1.080086	0.553025
H156	H	-0.604737	-0.580086	1.053025
Cl157	Cl	-0.865385	-0.999332	0.625922
Cl158	Cl	-0.365385	-0.499332	1.125922
H159	H	-0.754325	-1.024059	0.603588
H160	H	-0.254325	-0.524059	1.103588
Cl161	Cl	-0.359897	-1.087549	0.990782
Cl162	Cl	0.140103	-0.587549	1.490782
H163	H	-0.602401	-1.079961	0.553220
H164	H	-0.102401	-0.579961	1.053220
H165	H	-0.503335	-1.079942	0.553253
H166	H	-0.003335	-0.579942	1.053253
