data_functionalizedCrystal
_audit_creation_method	'MofGen! by Chris Wilmer'
_symmetry_space_group_name_H-M	'P1'
_symmetry_Int_Tables_number	1
_symmetry_cell_setting	triclinic
loop_
_symmetry_equiv_pos_as_xyz
  x,y,z
_cell_length_a	28.938199
_cell_length_b	28.937346
_cell_length_c	28.934044
_cell_angle_alpha	60.005004
_cell_angle_beta	60.009897
_cell_angle_gamma	59.994060
loop_
_atom_site_label
_atom_site_type_symbol
_atom_site_fract_x
_atom_site_fract_y
_atom_site_fract_z
O1	O	0.064043	-0.675186	0.564597
O2	O	0.024124	-0.525682	0.454913
O3	O	0.118795	-0.620275	0.454833
O4	O	-0.030629	-0.580593	0.564678
O5	O	0.150204	-0.588870	0.486157
O6	O	0.055533	-0.494276	0.486238
O7	O	0.095452	-0.643780	0.595921
Cu8	Cu	0.078360	-0.566161	0.543940
Cu9	Cu	0.041215	-0.603301	0.506895
O10	O	0.000780	-0.549187	0.596002
N11	N	0.104487	-0.540042	0.569998
N12	N	0.015094	-0.629425	0.480837
C13	C	0.165467	-0.323909	0.630915
C14	C	0.165587	-0.479117	0.786068
C15	C	0.165481	-0.479095	0.630906
C16	C	0.320696	-0.479083	0.630835
C17	C	0.182557	-0.375118	0.647971
C18	C	0.182626	-0.462038	0.734858
C19	C	0.269485	-0.462018	0.647928
C20	C	0.182566	-0.462025	0.647966
C21	C	0.143714	-0.258726	0.609206
C22	C	0.143738	-0.500820	0.609192
C23	C	0.204309	-0.440300	0.669680
C24	C	0.415481	-0.462740	0.580919
C25	C	0.474732	-0.482485	0.561145
C26	C	0.474757	-0.578356	0.597704
C27	C	0.415508	-0.558609	0.617479
C28	C	0.157989	-0.229089	0.550957
C29	C	0.138212	-0.169834	0.531225
C30	C	0.089890	-0.169857	0.627992
C31	C	0.109667	-0.229112	0.647725
C32	C	0.085482	-0.486515	0.623535
C33	C	0.065722	-0.506265	0.603789
C34	C	0.162467	-0.554625	0.555370
C35	C	0.182230	-0.534875	0.575110
C36	C	0.085661	-0.486557	0.880902
C37	C	0.065952	-0.506323	0.940155
C38	C	0.162734	-0.554693	0.940102
C39	C	0.182441	-0.534928	0.880847
C40	C	0.143904	-0.500859	0.851249
C41	C	0.385871	-0.500801	0.609083
C42	C	-0.110907	-0.668480	0.441278
C43	C	-0.024049	-0.668588	0.441475
C44	C	-0.045729	-0.690282	0.419668
C45	C	-0.062146	-0.785032	0.469507
C46	C	-0.042446	-0.844287	0.489286
C47	C	0.053426	-0.844399	0.452899
C48	C	0.033725	-0.785144	0.433120
C49	C	-0.140617	-0.682751	0.499509
C50	C	-0.199867	-0.662928	0.519152
C51	C	-0.199694	-0.614571	0.422330
C52	C	-0.140443	-0.634393	0.402687
C53	C	-0.038320	-0.610337	0.427144
C54	C	-0.018610	-0.590621	0.446974
C55	C	0.029642	-0.687402	0.495454
C56	C	0.009933	-0.707121	0.475630
C57	C	-0.038148	-0.610347	0.324832
C58	C	-0.018301	-0.590634	0.265579
C59	C	0.030035	-0.687421	0.265643
C60	C	0.010190	-0.707133	0.324897
C61	C	-0.023903	-0.668595	0.354491
C62	C	-0.024062	-0.755463	0.441426
N63	N	0.503527	-0.540005	0.569810
O64	O	0.684453	-0.545211	0.434650
O65	O	0.684643	-0.655237	0.584005
O66	O	0.684567	-0.654986	0.489282
O67	O	0.684529	-0.545462	0.529373
O68	O	0.590438	-0.623674	0.520735
O69	O	0.590513	-0.623924	0.615457
O70	O	0.590323	-0.513899	0.466102
Cu71	Cu	0.581823	-0.566053	0.543652
Cu72	Cu	0.693143	-0.603083	0.506456
O73	O	0.590399	-0.514149	0.560825
N74	N	0.771439	-0.629131	0.480292
N75	N	0.104456	-0.141061	0.570015
O76	O	-0.030629	0.039964	0.564688
O77	O	0.118732	0.039984	0.454661
O78	O	0.023980	0.039958	0.454946
O79	O	0.064123	0.039990	0.564403
O80	O	0.055392	-0.054179	0.486321
O81	O	0.150144	-0.054153	0.486036
O82	O	0.000784	-0.054173	0.596063
Cu83	Cu	0.078332	-0.062759	0.543914
Cu84	Cu	0.041183	0.048570	0.506810
O85	O	0.095535	-0.054147	0.595778
N86	N	0.015053	0.126872	0.480710
N87	N	0.104760	-0.540096	0.968910
O88	O	0.099447	-0.675167	1.149923
O89	O	-0.010552	-0.525757	1.149951
O90	O	-0.010297	-0.620493	1.149918
O91	O	0.099192	-0.580431	1.149956
O92	O	0.021064	-0.589100	1.055785
O93	O	0.020809	-0.494365	1.055818
O94	O	0.130808	-0.643774	1.055790
Cu95	Cu	0.078672	-0.566203	1.047209
Cu96	Cu	0.041584	-0.603328	1.158532
O97	O	0.130553	-0.549038	1.055823
N98	N	0.015495	-0.629442	1.236831
C99	C	0.036087	-0.491140	0.455465
C100	C	0.153325	-0.608283	0.455364
C101	C	0.083488	-0.678322	0.595370
C102	C	-0.033750	-0.561180	0.595470
C103	C	0.637601	-0.654732	0.618548
C104	C	0.637509	-0.654422	0.501245
C105	C	0.637362	-0.514403	0.431560
C106	C	0.637458	-0.514713	0.548862
C107	C	0.153215	-0.006966	0.455158
C108	C	0.035916	-0.007114	0.455550
C109	C	-0.033739	-0.007106	0.595527
C110	C	0.083600	-0.007076	0.595174
C111	C	-0.010020	-0.491238	1.102888
C112	C	-0.009698	-0.608550	1.102828
C113	C	0.130276	-0.678293	1.102853
C114	C	0.129961	-0.560974	1.102892
H115	H	0.054276	-0.458811	0.856808
H116	H	-0.224058	-0.674545	0.566571
H117	H	-0.044554	-0.448327	1.102896
O118	O	0.025978	-0.439884	0.414379
C119	C	0.053320	-0.356688	0.352521
C120	C	0.064821	-0.414719	0.399057
H121	H	0.084725	-0.336330	0.340111
H122	H	0.008373	-0.328203	0.369035
H123	H	0.058370	-0.362590	0.313934
H124	H	0.059803	-0.408870	0.437660
H125	H	0.109763	-0.443184	0.382498
O126	O	-0.111985	-0.715918	0.537048
C127	C	-0.093985	-0.803129	0.613751
C128	C	-0.126455	-0.765616	0.571277
H129	H	-0.105663	-0.843324	0.641429
H130	H	-0.105680	-0.779035	0.641541
H131	H	-0.046536	-0.814816	0.589695
H132	H	-0.173911	-0.753919	0.595287
H133	H	-0.114713	-0.789731	0.543488
H134	H	0.164358	-0.552401	1.102897
O135	O	-0.084870	-0.007209	0.636786
C136	C	-0.135377	-0.055956	0.731202
C137	C	-0.077436	-0.055919	0.684523
H138	H	-0.129385	-0.095328	0.769814
H139	H	-0.163941	-0.056003	0.714853
H140	H	-0.155698	-0.016537	0.743509
H141	H	-0.057066	-0.095331	0.672196
H142	H	-0.048912	-0.055843	0.700898
H143	H	0.018524	-0.494668	0.964293
H144	H	0.637525	-0.688829	0.492664
H145	H	0.027318	-0.007118	0.421162
O146	O	0.093662	-0.729514	0.636520
C147	C	0.098850	-0.780187	0.730822
C148	C	0.087327	-0.722178	0.684264
H149	H	0.093721	-0.774275	0.769438
H150	H	0.143821	-0.808648	0.714331
H151	H	0.067498	-0.800582	0.743176
H152	H	0.118643	-0.701734	0.671889
H153	H	0.042341	-0.693757	0.700779
H154	H	0.637300	-0.479859	0.388668
O155	O	-0.050647	-0.618839	1.102741
C156	C	-0.076517	-0.686064	1.102675
C157	C	-0.030088	-0.674484	1.102760
H158	H	-0.059916	-0.731056	1.102702
H159	H	-0.088861	-0.654749	1.063258
H160	H	-0.115165	-0.680969	1.142047
H161	H	0.008591	-0.679586	1.063415
H162	H	-0.017791	-0.705797	1.142203
O163	O	0.204480	-0.618375	0.414159
C164	C	0.255050	-0.623428	0.319810
C165	C	0.197083	-0.611998	0.366431
H166	H	0.249088	-0.618265	0.281207
H167	H	0.283565	-0.668393	0.336237
H168	H	0.275410	-0.592047	0.307460
H169	H	0.176674	-0.643343	0.378802
H170	H	0.168609	-0.567017	0.349979
H171	H	0.196022	-0.006699	0.420530
O172	O	0.200246	-0.587800	0.968766
C173	C	0.298320	-0.633669	0.962459
C174	C	0.255901	-0.596175	0.929926
H175	H	0.343326	-0.640442	0.931071
H176	H	0.291555	-0.676318	0.990175
H177	H	0.291477	-0.611970	0.990220
H178	H	0.262718	-0.617824	0.902134
H179	H	0.262676	-0.553528	0.902246
O180	O	0.239017	-0.548889	0.852018
C181	C	0.317438	-0.594437	0.785064
C182	C	0.253363	-0.578675	0.817685
H183	H	0.329055	-0.618512	0.757289
H184	H	0.341622	-0.622211	0.816375
H185	H	0.329066	-0.554217	0.757350
H186	H	0.241683	-0.618864	0.845400
H187	H	0.229215	-0.550880	0.786344
O188	O	0.637418	-0.473719	0.559194
C189	C	0.637496	-0.447839	0.626417
C190	C	0.637528	-0.494310	0.614797
H191	H	0.637597	-0.464473	0.671367
H192	H	0.598063	-0.409222	0.621430
H193	H	0.676849	-0.435427	0.595036
H194	H	0.598201	-0.506770	0.646167
H195	H	0.676987	-0.532896	0.619765
O196	O	-0.084971	-0.550992	0.636570
C197	C	-0.178187	-0.483941	0.662733
C198	C	-0.120202	-0.495399	0.616141
H199	H	-0.206691	-0.438999	0.646229
H200	H	-0.172287	-0.489005	0.701329
H201	H	-0.198522	-0.515358	0.675122
H202	H	-0.099834	-0.463993	0.603703
H203	H	-0.126138	-0.490354	0.577575
O204	O	0.093909	-0.007175	0.636221
C205	C	0.151407	-0.055925	0.695687
C206	C	0.139786	-0.055887	0.649208
H207	H	0.188506	-0.095298	0.706193
H208	H	0.112190	-0.055969	0.735254
H209	H	0.162152	-0.016508	0.679994
H210	H	0.129055	-0.095297	0.664848
H211	H	0.179012	-0.055813	0.609651
O212	O	0.048014	-0.453417	0.656611
C213	C	-0.050033	-0.407555	0.702574
C214	C	-0.007662	-0.445033	0.665099
H215	H	-0.095056	-0.400775	0.709459
H216	H	-0.043263	-0.364908	0.680874
H217	H	-0.043143	-0.429272	0.745171
H218	H	-0.014526	-0.423366	0.622496
H219	H	-0.014442	-0.487678	0.686844
O220	O	0.199939	-0.587684	0.522251
C221	C	0.297987	-0.633599	0.476341
C222	C	0.255615	-0.596147	0.513841
H223	H	0.343010	-0.640463	0.469540
H224	H	0.291172	-0.611889	0.433707
H225	H	0.291141	-0.676209	0.498048
H226	H	0.262435	-0.553531	0.492183
H227	H	0.262441	-0.617901	0.556473
H228	H	0.164813	-0.721202	1.102837
H229	H	0.229667	-0.546519	0.563426
O230	O	0.386834	-0.595658	0.644805
C231	C	0.393122	-0.692839	0.679006
C232	C	0.425664	-0.650940	0.648038
H233	H	0.424501	-0.737546	0.681640
H234	H	0.365376	-0.680991	0.654796
H235	H	0.365390	-0.691001	0.723547
H236	H	0.453426	-0.652756	0.603497
H237	H	0.453374	-0.662802	0.672291
H238	H	0.018285	-0.494604	0.615454
O239	O	0.637688	-0.695888	0.669744
C240	C	0.637736	-0.722191	0.762979
C241	C	0.637651	-0.675537	0.705022
H242	H	0.637693	-0.705750	0.791523
H243	H	0.677159	-0.760779	0.757039
H244	H	0.598373	-0.734572	0.783297
H245	H	0.676987	-0.663107	0.684673
H246	H	0.598201	-0.636979	0.711000
H247	H	0.498884	-0.625426	0.604536
H248	H	0.498841	-0.451490	0.538213
H249	H	0.391352	-0.415667	0.574082
H250	H	0.149834	-0.145702	0.483792
O251	O	0.190977	-0.257829	0.513517
C252	C	0.198509	-0.275920	0.436846
C253	C	0.161086	-0.243345	0.479223
H254	H	0.174361	-0.264213	0.409101
H255	H	0.210182	-0.323369	0.460926
H256	H	0.238710	-0.264264	0.409113
H257	H	0.120861	-0.254953	0.506968
H258	H	0.149458	-0.195904	0.455109
O259	O	0.056888	-0.141151	0.665465
C260	C	0.049390	-0.123012	0.742088
C261	C	0.086819	-0.155562	0.699689
H262	H	0.073579	-0.134642	0.769762
H263	H	0.009202	-0.134687	0.769890
H264	H	0.037688	-0.075572	0.717970
H265	H	0.098564	-0.203010	0.723762
H266	H	0.126980	-0.143840	0.671888
O267	O	0.095916	-0.257947	0.704298
C268	C	0.130059	-0.324778	0.782711
C269	C	0.145704	-0.292177	0.718628
H270	H	0.170303	-0.352451	0.794318
H271	H	0.105967	-0.352578	0.794448
H272	H	0.102317	-0.293402	0.806816
H273	H	0.173464	-0.323511	0.694479
H274	H	0.169767	-0.264368	0.706934
H275	H	-0.065911	-0.578960	0.348925
O276	O	-0.032222	-0.534030	0.236862
C277	C	-0.082244	-0.440112	0.243059
C278	C	-0.066533	-0.504199	0.275652
H279	H	-0.109977	-0.415976	0.274406
H280	H	-0.106341	-0.428397	0.215261
H281	H	-0.042005	-0.428520	0.215372
H282	H	-0.106743	-0.515837	0.303369
H283	H	-0.042414	-0.515880	0.303414
H284	H	0.057785	-0.718806	0.241554
H285	H	0.021795	-0.754566	0.349042
H286	H	-0.065985	-0.578958	0.399332
H287	H	-0.030233	-0.543188	0.435308
H288	H	0.021552	-0.754553	0.487300
O289	O	0.062627	-0.724911	0.528642
C290	C	0.108437	-0.822990	0.574603
C291	C	0.071067	-0.780572	0.537022
H292	H	0.115282	-0.868001	0.581380
H293	H	0.086676	-0.816182	0.617242
H294	H	0.151057	-0.816185	0.552974
H295	H	0.028441	-0.787352	0.558601
H296	H	0.092873	-0.787391	0.494385
O297	O	0.070786	-0.756482	0.405784
C298	C	0.152984	-0.738432	0.326021
C299	C	0.111061	-0.770937	0.356930
H300	H	0.185550	-0.750098	0.286510
H301	H	0.175447	-0.750113	0.355313
H302	H	0.128963	-0.690985	0.313338
H303	H	0.135040	-0.818391	0.369616
H304	H	0.088599	-0.759209	0.327619
O305	O	-0.079530	-0.872924	0.516641
C306	C	-0.176719	-0.866562	0.550771
C307	C	-0.134779	-0.834059	0.519750
H308	H	-0.221396	-0.835154	0.553284
H309	H	-0.174977	-0.894239	0.595355
H310	H	-0.164824	-0.894363	0.526601
H311	H	-0.146645	-0.806227	0.543873
H312	H	-0.136528	-0.806418	0.475164
O313	O	0.109543	-0.873260	0.444936
C314	C	0.181119	-0.940244	0.488744
C315	C	0.117554	-0.907586	0.497845
H316	H	0.187615	-0.968013	0.531512
H317	H	0.204980	-0.908956	0.465307
H318	H	0.197818	-0.967970	0.462664
H319	H	0.100804	-0.879859	0.523938
H320	H	0.093731	-0.938905	0.521257
H321	H	-0.223743	-0.586821	0.390905
O322	O	-0.118254	-0.756132	0.477467
C323	C	-0.189821	-0.689193	0.433638
C324	C	-0.126262	-0.721883	0.424549
H325	H	-0.196316	-0.661505	0.390861
H326	H	-0.206550	-0.661400	0.459658
H327	H	-0.213655	-0.720511	0.457129
H328	H	-0.102381	-0.690607	0.401042
H329	H	-0.109576	-0.749686	0.398551
H330	H	-0.116252	-0.622767	0.355267
