data_functionalizedCrystal
_audit_creation_method	'MofGen! by Chris Wilmer'
_symmetry_space_group_name_H-M	'P1'
_symmetry_Int_Tables_number	1
_symmetry_cell_setting	triclinic
loop_
_symmetry_equiv_pos_as_xyz
  x,y,z
_cell_length_a	11.026660
_cell_length_b	23.532407
_cell_length_c	9.482900
_cell_angle_alpha	99.267072
_cell_angle_beta	78.636107
_cell_angle_gamma	95.716790
loop_
_atom_site_label
_atom_site_type_symbol
_atom_site_fract_x
_atom_site_fract_y
_atom_site_fract_z
O1	O	1.626297	0.231202	-0.120996
O2	O	1.273318	0.204082	-0.120986
O3	O	1.460445	0.135832	-0.120951
O4	O	1.439170	0.299452	-0.121032
O5	O	1.422434	0.149766	0.120834
O6	O	1.235307	0.218016	0.120799
O7	O	1.588286	0.245136	0.120789
Cu8	Cu	1.408326	0.232849	0.142871
Cu9	Cu	1.453278	0.216370	-0.143068
O10	O	1.401159	0.313386	0.120754
C11	C	1.209162	0.206046	-0.000091
C12	C	1.074628	0.191131	-0.000086
C13	C	0.861280	0.216904	-0.000103
C14	C	1.000327	0.232320	-0.000107
C15	C	1.440896	0.121527	-0.000051
C16	C	1.439263	0.058139	-0.000029
C17	C	1.321814	-0.220387	-0.000116
C18	C	1.323326	-0.160827	-0.000105
O19	O	1.230151	-0.133885	-0.000148
N20	N	1.434574	-0.126499	-0.000091
C21	C	1.544320	-0.151736	-0.000104
O22	O	1.639084	-0.117068	-0.000093
C23	C	1.542808	-0.211295	-0.000125
C24	C	1.431550	-0.245619	-0.000124
C25	C	1.210566	-0.254711	-0.000116
C26	C	1.209053	-0.314266	-0.000125
C27	C	1.318790	-0.339499	-0.000133
C28	C	1.430038	-0.305175	-0.000132
C29	C	1.652554	-0.236531	-0.000148
C30	C	1.651032	-0.296095	-0.000171
C31	C	1.539775	-0.330419	-0.000170
C32	C	1.538262	-0.389963	-0.000149
N33	N	1.427014	-0.424290	-0.000162
C34	C	1.317278	-0.399058	-0.000154
C35	C	1.547487	-0.026657	-0.000061
C36	C	1.548998	0.032902	-0.000029
C37	C	1.328005	0.023807	-0.000033
C38	C	1.326493	-0.035753	-0.000054
C39	C	1.436239	-0.060984	-0.000075
C40	C	1.314110	-0.524129	-0.000171
C41	C	1.312607	-0.583690	-0.000173
C42	C	1.533601	-0.574590	-0.000177
C43	C	1.535104	-0.515034	-0.000167
C44	C	1.425349	-0.489806	-0.000169
O45	O	1.631389	-0.416945	-0.000112
O46	O	1.222532	-0.433733	-0.000185
C47	C	1.652442	0.243172	-0.000109
C48	C	1.786978	0.258086	-0.000124
C49	C	1.420708	0.327691	-0.000150
C50	C	1.422343	0.391078	-0.000181
N51	N	1.376718	0.244440	0.343985
N52	N	1.484895	0.204775	-0.344182
C53	C	1.443946	0.219785	0.416197
C54	C	1.417657	0.229434	0.583609
H55	H	1.222003	-0.611634	-0.000165
H56	H	1.238652	0.044362	-0.000025
H57	H	1.520962	0.191530	0.354084
H58	H	0.821947	0.170234	-0.000058
Br59	Br	1.065855	0.310115	-0.000127
Br60	Br	1.165156	-0.489901	-0.000172
H61	H	1.636859	-0.047195	-0.000067
Br62	Br	1.058055	-0.360841	-0.000138
Br63	Br	1.061618	-0.220479	-0.000112
H64	H	0.826306	0.304758	-0.000138
Br65	Br	1.799984	-0.330335	-0.000208
H66	H	1.035321	0.144451	-0.000159
H67	H	1.235896	-0.063695	-0.000047
H68	H	1.743151	-0.208594	-0.000150
Br69	Br	1.289266	0.276520	0.687121
Br70	Br	1.699992	0.079479	-0.000004
Br71	Br	1.686087	-0.468447	-0.000107
H72	H	1.622944	-0.595144	-0.000177
H73	H	1.561916	0.176519	0.593708
H74	H	1.299694	0.272689	0.406101
