data_functionalizedCrystal
_audit_creation_method	'MofGen! by Chris Wilmer'
_symmetry_space_group_name_H-M	'P1'
_symmetry_Int_Tables_number	1
_symmetry_cell_setting	triclinic
loop_
_symmetry_equiv_pos_as_xyz
  x,y,z
_cell_length_a	19.077105
_cell_length_b	13.897447
_cell_length_c	19.077174
_cell_angle_alpha	92.274996
_cell_angle_beta	85.483752
_cell_angle_gamma	87.715989
loop_
_atom_site_label
_atom_site_type_symbol
_atom_site_fract_x
_atom_site_fract_y
_atom_site_fract_z
Zn1	Zn	1.093737	-0.468678	-0.441859
Zn2	Zn	1.593737	0.031322	0.058141
Zn3	Zn	1.088932	-0.623230	-0.323976
Zn4	Zn	1.588932	-0.123230	0.176024
Zn5	Zn	0.971121	-0.455194	-0.319256
Zn6	Zn	1.471121	0.044806	0.180744
Zn7	Zn	0.975826	-0.623167	-0.437094
Zn8	Zn	1.475826	-0.123167	0.062906
O9	O	1.032404	-0.542567	-0.380546
O10	O	1.532404	-0.042567	0.119454
O11	O	1.191750	-0.494849	-0.430191
O12	O	1.691750	0.005151	0.069809
O13	O	1.069324	-0.595323	-0.224700
O14	O	1.569324	-0.095323	0.275300
O15	O	0.987428	-0.322004	-0.335538
O16	O	1.487428	0.177996	0.164462
O17	O	1.188220	-0.608398	-0.343583
O18	O	1.688220	-0.108398	0.156417
O19	O	1.077513	-0.331911	-0.425614
O20	O	1.577513	0.168089	0.074386
O21	O	0.982769	-0.471868	-0.221232
O22	O	1.482769	0.028132	0.278768
O23	O	0.873094	-0.471806	-0.330918
O24	O	1.373094	0.028194	0.169082
O25	O	0.995447	-0.608290	-0.536376
O26	O	1.495447	-0.108290	-0.036376
O27	O	0.876551	-0.595216	-0.417493
O28	O	1.376551	-0.095216	0.082507
O29	O	1.082075	-0.494788	-0.539876
O30	O	1.582075	0.005212	-0.039876
O31	O	1.073886	-0.758200	-0.338962
O32	O	1.573886	-0.258200	0.161038
O33	O	0.990788	-0.758154	-0.422070
O34	O	1.490788	-0.258154	0.077930
C35	C	0.849244	-0.532042	-0.373176
C36	C	1.349244	-0.032042	0.126824
C37	C	0.770888	-0.527563	-0.370040
C38	C	1.270888	-0.027563	0.129960
C39	C	0.735891	-0.589801	-0.413571
C40	C	1.235891	-0.089801	0.086429
C41	C	0.662268	-0.585580	-0.410628
C42	C	1.162268	-0.085580	0.089372
C43	C	0.623642	-0.519126	-0.364150
C44	C	1.123642	-0.019126	0.135850
C45	C	0.658643	-0.456881	-0.320617
C46	C	1.158643	0.043119	0.179383
C47	C	0.732266	-0.461098	-0.323564
C48	C	1.232266	0.038902	0.176436
C49	C	0.403260	-0.499610	-0.350512
C50	C	0.903260	0.000390	0.149488
C51	C	0.329632	-0.495400	-0.347567
C52	C	0.829632	0.004600	0.152433
C53	C	0.333261	-0.624098	-0.437579
C54	C	0.833261	-0.124098	0.062421
C55	C	0.406885	-0.628313	-0.440519
C56	C	0.906885	-0.128313	0.059481
C57	C	0.441880	-0.566065	-0.396989
C58	C	0.941880	-0.066065	0.103011
N59	N	0.548386	-0.514812	-0.361138
N60	N	1.048386	-0.014812	0.138862
N61	N	0.517134	-0.570375	-0.400004
N62	N	1.017134	-0.070375	0.099996
C63	C	1.032346	-0.793177	-0.380527
C64	C	1.532346	-0.293177	0.119473
C65	C	1.032386	-0.900394	-0.380545
C66	C	1.532386	-0.400394	0.119455
C67	C	1.032421	-0.987467	-0.380563
C68	C	1.532421	-0.487467	0.119437
C69	C	1.032471	-1.096703	-0.380583
C70	C	1.532471	-0.596703	0.119417
C71	C	1.216279	-0.553134	-0.387945
C72	C	1.716279	-0.053134	0.112055
C73	C	1.294635	-0.557638	-0.391098
C74	C	1.794635	-0.057638	0.108902
C75	C	1.039822	-0.553036	-0.564420
C76	C	1.539822	-0.053036	-0.064420
C77	C	1.042983	-0.557497	-0.642776
C78	C	1.542983	-0.057497	-0.142776
C79	C	1.032482	-0.290980	-0.380581
C80	C	1.532482	0.209020	0.119419
C81	C	1.032515	-0.183769	-0.380596
C82	C	1.532515	0.316231	0.119404
C83	C	0.999405	-0.495318	-0.677782
C84	C	1.499405	0.004682	-0.177782
C85	C	1.002373	-0.499517	-0.751406
C86	C	1.502373	0.000483	-0.251406
C87	C	1.048922	-0.565892	-0.790023
C88	C	1.548922	-0.065892	-0.290023
C89	C	1.092501	-0.628079	-0.755012
C90	C	1.592501	-0.128079	-0.255012
C91	C	1.089530	-0.623883	-0.681389
C92	C	1.589530	-0.123883	-0.181389
C93	C	1.062638	-0.585337	-1.010405
C94	C	1.562638	-0.085337	-0.510405
C95	C	1.065608	-0.589526	-1.084032
C96	C	1.565608	-0.089526	-0.584032
C97	C	0.975478	-0.460966	-1.080422
C98	C	1.475478	0.039034	-0.580422
C99	C	0.972514	-0.456772	-1.006798
C100	C	1.472514	0.043228	-0.506798
C101	C	1.016090	-0.518961	-0.971793
C102	C	1.516090	-0.018961	-0.471793
N103	N	1.051958	-0.570185	-0.865278
N104	N	1.551958	-0.070185	-0.365278
N105	N	1.013050	-0.514673	-0.896539
N106	N	1.513050	-0.014673	-0.396539
C107	C	1.025055	-0.532072	-0.197389
C108	C	1.525055	-0.032072	0.302611
C109	C	1.022030	-0.527347	-0.119038
C110	C	1.522030	-0.027347	0.380962
H111	H	0.633777	-0.636261	-0.446075
H112	H	1.133777	-0.136261	0.053925
H113	H	0.767335	-0.643918	-0.451416
H114	H	1.267335	-0.143918	0.048584
O115	O	0.949203	-0.423719	-0.636133
O116	O	1.449203	0.076281	-0.136133
H117	H	0.894439	-0.437889	-0.648030
H118	H	1.394439	0.062111	-0.148030
O119	O	0.448547	-0.699980	-0.490655
O120	O	0.948547	-0.199980	0.009345
H121	H	0.411842	-0.742543	-0.520437
H122	H	0.911842	-0.242543	-0.020437
O123	O	1.142706	-0.699670	-0.796665
O124	O	1.642706	-0.199670	-0.296665
H125	H	1.130014	-0.773872	-0.782041
H126	H	1.630014	-0.273872	-0.282041
H127	H	0.934607	-0.402725	-0.975361
H128	H	1.434607	0.097275	-0.475361
H129	H	1.125021	-0.674509	-0.652889
H130	H	1.625021	-0.174509	-0.152889
H131	H	0.966885	-0.448887	-0.779904
H132	H	1.466885	0.051113	-0.279904
H133	H	0.304760	-0.674775	-0.473019
H134	H	0.804760	-0.174775	0.026981
O135	O	0.287956	-0.423749	-0.297421
O136	O	0.787956	0.076251	0.202579
H137	H	0.255686	-0.374632	-0.327682
H138	H	0.755686	0.125368	0.172318
H139	H	0.627188	-0.402769	-0.282777
H140	H	1.127188	0.097231	0.217223
H141	H	0.760759	-0.410413	-0.288121
H142	H	1.260759	0.089587	0.211879
O143	O	0.441000	-0.432505	-0.303543
O144	O	0.941000	0.067495	0.196457
H145	H	0.401770	-0.385605	-0.270718
H146	H	0.901770	0.114395	0.229282
O147	O	0.928486	-0.393882	-1.118175
O148	O	1.428486	0.106118	-0.618175
H149	H	0.938371	-0.407946	-1.175857
H150	H	1.438371	0.092054	-0.675857
O151	O	1.115813	-0.661125	-1.125688
O152	O	1.615813	-0.161125	-0.625688
H153	H	1.145611	-0.703671	-1.088979
H154	H	1.645611	-0.203671	-0.588979
O155	O	1.109654	-0.652386	-0.972654
O156	O	1.609654	-0.152386	-0.472654
H157	H	1.142531	-0.699230	-1.011878
H158	H	1.642531	-0.199230	-0.511878
