data_functionalizedCrystal
_audit_creation_method	'MofGen! by Chris Wilmer'
_symmetry_space_group_name_H-M	'P1'
_symmetry_Int_Tables_number	1
_symmetry_cell_setting	triclinic
loop_
_symmetry_equiv_pos_as_xyz
  x,y,z
_cell_length_a	12.594517
_cell_length_b	21.295417
_cell_length_c	12.594510
_cell_angle_alpha	89.957633
_cell_angle_beta	89.978880
_cell_angle_gamma	90.030306
loop_
_atom_site_label
_atom_site_type_symbol
_atom_site_fract_x
_atom_site_fract_y
_atom_site_fract_z
Zn1	Zn	1.627158	-0.250556	-0.601801
Zn2	Zn	2.127158	0.249444	-0.101801
Zn3	Zn	1.627004	-0.355845	-0.423797
Zn4	Zn	2.127004	0.144155	0.076203
Zn5	Zn	1.449162	-0.250594	-0.423830
Zn6	Zn	1.949162	0.249406	0.076170
Zn7	Zn	1.449099	-0.355790	-0.601727
Zn8	Zn	1.949099	0.144210	-0.101727
O9	O	1.538106	-0.303196	-0.512789
O10	O	2.038106	0.196804	-0.012789
O11	O	1.776083	-0.264530	-0.578205
O12	O	2.276083	0.235470	-0.078205
O13	O	1.603376	-0.341923	-0.274856
O14	O	2.103376	0.158077	0.225144
O15	O	1.472865	-0.162499	-0.447482
O16	O	1.972865	0.337501	0.052518
O17	O	1.775971	-0.341886	-0.447427
O18	O	2.275971	0.158114	0.052573
O19	O	1.603637	-0.162471	-0.578237
O20	O	2.103637	0.337529	-0.078237
O21	O	1.472716	-0.264595	-0.274879
O22	O	1.972716	0.235405	0.225121
O23	O	1.300208	-0.264541	-0.447411
O24	O	1.800208	0.235459	0.052589
O25	O	1.472757	-0.341792	-0.750683
O26	O	1.972757	0.158208	-0.250683
O27	O	1.300162	-0.341829	-0.578112
O28	O	1.800162	0.158171	-0.078112
O29	O	1.603576	-0.264476	-0.750737
O30	O	2.103576	0.235524	-0.250737
O31	O	1.603314	-0.443928	-0.447356
O32	O	2.103314	0.056072	0.052644
O33	O	1.472608	-0.443887	-0.578080
O34	O	1.972608	0.056113	-0.078080
C35	C	1.261565	-0.303184	-0.512757
C36	C	1.761565	0.196816	-0.012757
C37	C	1.143260	-0.303193	-0.512769
C38	C	1.643260	0.196807	-0.012769
C39	C	1.074001	-0.261099	-0.441817
C40	C	1.574001	0.238901	0.058183
C41	C	1.003165	-0.318521	-0.415623
C42	C	1.503165	0.181479	0.084377
C43	C	1.003296	-0.245800	-0.538981
C44	C	1.503296	0.254200	-0.038981
C45	C	1.073982	-0.360645	-0.486525
C46	C	1.573982	0.139355	0.013475
C47	C	1.074119	-0.287885	-0.609928
C48	C	1.574119	0.212115	-0.109928
C49	C	1.003316	-0.345347	-0.583771
C50	C	1.503316	0.154653	-0.083771
C51	C	1.537966	-0.466748	-0.512730
C52	C	2.037966	0.033252	-0.012730
C53	C	1.538004	-0.536716	-0.512740
C54	C	2.038004	-0.036716	-0.012740
C55	C	1.606123	-0.569583	-0.444742
C56	C	2.106123	-0.069583	0.055258
C57	C	1.606173	-0.635325	-0.444766
C58	C	2.106173	-0.135325	0.055234
C59	C	1.538085	-0.668199	-0.512777
C60	C	2.038085	-0.168199	-0.012777
C61	C	1.469961	-0.635324	-0.580789
C62	C	1.969961	-0.135324	-0.080789
C63	C	1.469920	-0.569583	-0.580770
C64	C	1.969920	-0.069583	-0.080770
N65	N	1.444974	-0.771463	-0.520881
N66	N	1.944974	-0.271463	-0.020881
N67	N	1.445016	-0.833915	-0.520892
N68	N	1.945016	-0.333915	-0.020892
C69	C	1.538204	-0.866273	-0.512838
C70	C	2.038204	-0.366273	-0.012838
N71	N	1.631352	-0.833821	-0.504752
N72	N	2.131352	-0.333821	-0.004752
N73	N	1.631309	-0.771364	-0.504735
N74	N	2.131309	-0.271364	-0.004735
C75	C	1.538122	-0.739484	-0.512805
C76	C	2.038122	-0.239484	-0.012805
C77	C	1.606383	-0.970426	-0.444862
C78	C	2.106383	-0.470426	0.055138
C79	C	1.606435	-1.036169	-0.444893
C80	C	2.106435	-0.536169	0.055107
C81	C	1.470213	-1.036166	-0.580911
C82	C	1.970213	-0.536166	-0.080911
C83	C	1.470171	-0.970424	-0.580885
C84	C	1.970171	-0.470424	-0.080885
C85	C	1.538254	-0.937557	-0.512855
C86	C	2.038254	-0.437557	-0.012855
C87	C	1.815727	-0.303209	-0.512821
C88	C	2.315727	0.196791	-0.012821
C89	C	1.934032	-0.303215	-0.512835
C90	C	2.434032	0.196785	-0.012835
C91	C	1.538176	-0.303124	-0.790410
C92	C	2.038176	0.196876	-0.290410
C93	C	1.538206	-0.303093	-0.908715
C94	C	2.038206	0.196907	-0.408715
C95	C	1.538275	-0.139006	-0.512871
C96	C	2.038275	0.360994	-0.012871
C97	C	1.538347	-0.069038	-0.512906
C98	C	2.038347	0.430962	-0.012906
C99	C	1.609380	-0.261038	-0.977998
C100	C	2.109380	0.238962	-0.477998
C101	C	1.512310	-0.245629	-1.048792
C102	C	2.012310	0.254371	-0.548792
C103	C	1.635333	-0.318457	-1.048720
C104	C	2.135333	0.181543	-0.548720
C105	C	1.441085	-0.287655	-0.977952
C106	C	1.941085	0.212345	-0.477952
C107	C	1.564173	-0.360509	-0.977873
C108	C	2.064173	0.139491	-0.477873
C109	C	1.467036	-0.345123	-1.048636
C110	C	1.967036	0.154877	-0.548636
C111	C	1.538097	-0.303223	-0.236248
C112	C	2.038097	0.196777	0.263752
C113	C	1.538274	-0.303077	-0.117943
C114	C	2.038274	0.196923	0.382057
H115	H	1.105309	-0.274907	-0.692040
H116	H	1.605309	0.225093	-0.192040
H117	H	0.972475	-0.380995	-0.643801
H118	H	1.472475	0.119005	-0.143801
Br119	Br	1.377816	-1.080773	-0.673224
Br120	Br	1.877816	-0.580773	-0.173224
Br121	Br	1.377715	-0.925816	-0.673171
Br122	Br	1.877715	-0.425816	-0.173171
Br123	Br	1.377563	-0.679936	-0.673099
Br124	Br	1.877563	-0.179936	-0.173099
Br125	Br	1.709529	-0.201731	-0.926296
Br126	Br	2.209529	0.298269	-0.426296
Br127	Br	1.475740	-0.164690	-1.100717
Br128	Br	1.975740	0.335310	-0.600717
Br129	Br	1.304183	-0.265901	-0.926366
Br130	Br	1.804183	0.234099	-0.426366
H131	H	1.661648	-0.662091	-0.389393
H132	H	2.161648	-0.162091	0.110607
Br133	Br	1.366652	-0.404382	-1.100031
Br134	Br	1.866652	0.095618	-0.600031
Br135	Br	1.377467	-0.524974	-0.673063
Br136	Br	1.877467	-0.024974	-0.173063
H137	H	1.661825	-0.943665	-0.389471
H138	H	2.161825	-0.443665	0.110529
Br139	Br	1.698902	-1.080776	-0.352612
Br140	Br	2.198902	-0.580776	0.147388
H141	H	0.972190	-0.197260	-0.561087
H142	H	1.472190	0.302740	-0.061087
Br143	Br	1.600789	-0.441428	-0.925911
Br144	Br	2.100789	0.058572	-0.425911
H145	H	1.717442	-0.331457	-1.079810
H146	H	2.217442	0.168543	-0.579810
H147	H	1.105037	-0.225537	-0.381741
H148	H	1.605037	0.274463	0.118259
H149	H	0.972001	-0.331482	-0.333486
H150	H	1.472001	0.168518	0.166514
H151	H	1.104903	-0.409206	-0.464291
H152	H	1.604903	0.090794	0.035709
H153	H	1.661564	-0.542825	-0.389350
H154	H	2.161564	-0.042825	0.110650
