data_functionalizedCrystal
_audit_creation_method	'MofGen! by Chris Wilmer'
_symmetry_space_group_name_H-M	'P1'
_symmetry_Int_Tables_number	1
_symmetry_cell_setting	triclinic
loop_
_symmetry_equiv_pos_as_xyz
  x,y,z
_cell_length_a	19.188933
_cell_length_b	27.731996
_cell_length_c	17.666332
_cell_angle_alpha	89.987533
_cell_angle_beta	89.992061
_cell_angle_gamma	82.883478
loop_
_atom_site_label
_atom_site_type_symbol
_atom_site_fract_x
_atom_site_fract_y
_atom_site_fract_z
O1	O	0.925747	0.060354	-0.062933
O2	O	0.722382	0.068477	-0.062941
O3	O	0.830400	-0.005964	-0.062921
O4	O	0.817730	0.134795	-0.062954
O5	O	0.830381	-0.005968	0.062976
O6	O	0.722364	0.068473	0.062955
O7	O	0.925729	0.060350	0.062964
Cu8	Cu	0.824044	0.064411	0.074455
Cu9	Cu	0.824067	0.064416	-0.074433
O10	O	0.817711	0.134791	0.062943
C11	C	0.696364	0.068212	0.000006
C12	C	0.618865	0.067422	0.000004
C13	C	0.065657	0.061785	-0.068613
C14	C	0.138476	0.062524	-0.068616
C15	C	0.174880	0.062894	0.000010
C16	C	0.138462	0.062512	0.068644
C17	C	0.065645	0.061768	0.068645
N18	N	0.283702	0.091568	0.051085
N19	N	0.352875	0.092276	0.051079
C20	C	0.394274	0.065136	0.000011
N21	N	0.363886	0.037267	-0.051063
N22	N	0.294706	0.036561	-0.051060
C23	C	0.253838	0.063701	0.000016
C24	C	0.509644	0.066316	-0.068623
C25	C	0.582465	0.067053	-0.068623
C26	C	0.582448	0.067045	0.068639
C27	C	0.509629	0.066304	0.068638
C28	C	0.473231	0.065942	0.000004
C29	C	0.830130	-0.023974	0.000030
C30	C	0.829346	-0.077633	0.000038
C31	C	0.824424	-0.410362	-0.068625
C32	C	0.821447	-0.612029	-0.068639
O33	O	0.821041	-0.638099	-0.127003
N34	N	0.821067	-0.637249	-0.000013
C35	C	0.821427	-0.612050	0.068621
O36	O	0.821028	-0.638128	0.126991
C37	C	0.824399	-0.410383	0.068633
C38	C	0.824786	-0.385166	0.000003
C39	C	0.824811	-0.385144	-0.137250
C40	C	0.825559	-0.334731	-0.137246
C41	C	0.825920	-0.309535	-0.068617
C42	C	0.825534	-0.334752	0.000007
C43	C	0.824754	-0.385183	0.137266
C44	C	0.825495	-0.334763	0.137264
C45	C	0.825882	-0.309546	0.068633
C46	C	0.826644	-0.259142	0.068640
N47	N	0.827024	-0.233922	0.000014
C48	C	0.826662	-0.259118	-0.068614
C49	C	0.819868	-0.717928	0.068609
C50	C	0.819126	-0.768344	0.068606
C51	C	0.819145	-0.768320	-0.068654
C52	C	0.819892	-0.717903	-0.068650
C53	C	0.820248	-0.692707	-0.000016
C54	C	0.828234	-0.153246	-0.068601
C55	C	0.828985	-0.102829	-0.068590
C56	C	0.828962	-0.102857	0.068669
C57	C	0.828215	-0.153270	0.068659
C58	C	0.827848	-0.178464	0.000018
O59	O	0.827043	-0.233040	0.126974
O60	O	0.827045	-0.233030	-0.126976
C61	C	0.823676	-0.460775	-0.068629
C62	C	0.823290	-0.485992	-0.000005
C63	C	0.823652	-0.460796	0.068624
C64	C	0.822548	-0.536409	-0.000008
C65	C	0.822186	-0.561605	-0.068636
C66	C	0.822566	-0.536385	-0.137262
C67	C	0.823314	-0.485971	-0.137258
C68	C	0.823272	-0.486017	0.137249
C69	C	0.822525	-0.536430	0.137240
C70	C	0.822163	-0.561626	0.068611
C71	C	0.951747	0.060615	0.000015
C72	C	1.029246	0.061405	0.000012
C73	C	0.817981	0.152801	-0.000010
C74	C	0.818765	0.206459	-0.000022
N75	N	0.824034	0.064408	0.179174
N76	N	0.824083	0.064416	-0.179152
C77	C	0.871879	0.031461	0.218793
C78	C	0.871883	0.031459	0.298041
C79	C	0.824049	0.064411	0.337667
C80	C	0.776194	0.097360	0.298038
C81	C	0.776187	0.097358	0.218792
N82	N	0.814688	0.107202	0.462075
N83	N	0.814699	0.107202	0.537355
C84	C	0.824067	0.064418	0.576431
N85	N	0.833437	0.021632	0.537381
N86	N	0.833429	0.021632	0.462094
C87	C	0.824051	0.064417	0.423596
C88	C	0.871919	0.031466	0.701979
C89	C	0.871919	0.031463	0.781228
C90	C	0.776233	0.097369	0.781223
C91	C	0.776230	0.097368	0.701976
C92	C	0.824077	0.064417	0.662358
H93	H	0.036026	0.061488	-0.124500
H94	H	0.818852	-0.788844	-0.124534
H95	H	0.827906	-0.173804	0.124543
Br96	Br	0.936851	-0.013257	0.835001
Br97	Br	0.460242	0.065822	-0.161765
H98	H	0.822275	-0.556909	-0.193142
Br99	Br	0.631882	0.067560	-0.161766
H100	H	0.823567	-0.465507	0.193136
Br101	Br	0.936821	-0.013258	0.351819
H102	H	0.737225	0.124187	0.186534
H103	H	0.737282	0.124197	0.813486
H104	H	0.823629	-0.465444	-0.193144
H105	H	0.612088	0.067345	0.124516
Br106	Br	0.187901	0.063039	-0.161757
H107	H	0.820161	-0.697418	0.124502
Br108	Br	0.460210	0.065796	0.161777
H109	H	0.737273	0.124197	0.669716
Br110	Br	0.829514	-0.068609	-0.161738
Br111	Br	0.936851	-0.013253	0.648210
Br112	Br	0.936810	-0.013258	0.165026
H113	H	0.168107	0.062812	0.124520
H114	H	0.737245	0.124190	0.330305
H115	H	0.829260	-0.082333	0.124545
H116	H	0.827932	-0.173752	-0.124495
Br117	Br	0.826079	-0.300515	-0.230392
H118	H	0.036000	0.061460	0.124530
H119	H	0.820206	-0.697375	-0.124535
Br120	Br	0.824319	-0.419330	-0.230402
Br121	Br	0.824226	-0.419393	0.230414
Br122	Br	0.818618	-0.802563	0.161751
Br123	Br	0.825976	-0.300571	0.230414
H124	H	0.822215	-0.556958	0.193131
