data_functionalizedCrystal
_audit_creation_method	'MofGen! by Chris Wilmer'
_symmetry_space_group_name_H-M	'P1'
_symmetry_Int_Tables_number	1
_symmetry_cell_setting	triclinic
loop_
_symmetry_equiv_pos_as_xyz
  x,y,z
_cell_length_a	10.489746
_cell_length_b	10.489741
_cell_length_c	9.565339
_cell_angle_alpha	89.999484
_cell_angle_beta	89.994489
_cell_angle_gamma	95.459763
loop_
_atom_site_label
_atom_site_type_symbol
_atom_site_fract_x
_atom_site_fract_y
_atom_site_fract_z
O1	O	1.694049	-0.179990	-0.116322
O2	O	1.322854	-0.196876	-0.116311
O3	O	1.516898	-0.002836	-0.116309
O4	O	1.500005	-0.374031	-0.116325
O5	O	1.516883	-0.002848	0.116212
O6	O	1.322839	-0.196888	0.116209
O7	O	1.694034	-0.180002	0.116198
Zn8	Zn	1.508434	-0.188447	0.153121
Zn9	Zn	1.508454	-0.188431	-0.153234
O10	O	1.499990	-0.374043	0.116195
C11	C	1.275315	-0.195606	-0.000050
C12	C	1.133686	-0.191786	-0.000045
C13	C	1.515614	0.044690	-0.000049
C14	C	1.511797	0.186320	-0.000052
C15	C	1.741573	-0.181273	-0.000067
C16	C	1.883202	-0.185093	-0.000080
C17	C	2.036060	-0.310816	-0.000066
C18	C	1.958661	-0.247966	0.114578
C19	C	1.958716	-0.247924	-0.114669
C20	C	2.058152	-0.128984	0.114693
C21	C	2.058213	-0.128960	-0.114657
C22	C	1.980863	-0.066022	0.000014
C23	C	1.501273	-0.421569	-0.000067
C24	C	1.505091	-0.563198	-0.000074
N25	N	1.508429	-0.188457	0.362200
C26	C	1.388333	0.254462	-0.000058
C27	C	1.446649	0.346577	0.114584
C28	C	1.446693	0.346564	-0.114662
C29	C	1.570164	0.276570	0.114686
C30	C	1.570191	0.276547	-0.114664
C31	C	1.628597	0.368635	0.000007
N32	N	1.508469	-0.188411	-0.362314
C33	C	1.418663	-0.278165	0.453402
C34	C	1.534160	-0.303977	0.546577
C35	C	1.392983	-0.162655	0.546582
C36	C	1.623985	-0.214328	0.453323
C37	C	1.482731	-0.072955	0.453320
C38	C	1.598311	-0.098719	0.546452
H39	H	2.060774	-0.414320	0.000041
H40	H	1.915178	-0.298220	0.211497
H41	H	1.915273	-0.298192	-0.211591
N42	N	1.756041	0.430670	0.000063
N43	N	1.793086	0.503335	-0.098390
H44	H	1.883092	0.547152	-0.098346
N45	N	1.635622	0.237916	0.236430
N46	N	1.679364	0.319875	0.323129
H47	H	1.725589	0.292575	0.409113
H48	H	1.721655	-0.236249	0.412531
N49	N	1.455403	0.049527	0.401903
N50	N	1.434941	0.136728	0.485689
H51	H	1.415630	0.223233	0.449376
H52	H	1.286821	0.204813	0.000060
H53	H	1.555922	-0.401635	0.587539
H54	H	2.101428	-0.078770	0.211724
H55	H	1.674324	-0.022833	0.587051
H56	H	1.295335	-0.140852	0.587549
H57	H	1.394443	0.377534	-0.211593
N58	N	1.950169	0.063919	0.000104
N59	N	1.986524	0.136783	0.098632
H60	H	1.964847	0.228554	0.098702
H61	H	2.101709	-0.078745	-0.211582
H62	H	1.394402	0.377585	0.211510
N63	N	1.635695	0.237621	-0.236258
N64	N	1.678693	0.319289	-0.323647
H65	H	1.724948	0.291798	-0.409535
H66	H	1.342820	-0.354098	0.412547
