data_functionalizedCrystal
_audit_creation_method	'MofGen! by Chris Wilmer'
_symmetry_space_group_name_H-M	'P1'
_symmetry_Int_Tables_number	1
_symmetry_cell_setting	triclinic
loop_
_symmetry_equiv_pos_as_xyz
  x,y,z
_cell_length_a	27.732048
_cell_length_b	14.044220
_cell_length_c	26.210047
_cell_angle_alpha	90.004027
_cell_angle_beta	89.996535
_cell_angle_gamma	87.915766
loop_
_atom_site_label
_atom_site_type_symbol
_atom_site_fract_x
_atom_site_fract_y
_atom_site_fract_z
O1	O	-0.646220	-0.112700	0.042364
O2	O	-0.506231	-0.129838	0.042380
O3	O	-0.574124	0.016684	0.042367
O4	O	-0.578327	-0.259223	0.042377
O5	O	-0.574111	0.016662	-0.042491
O6	O	-0.506217	-0.129861	-0.042478
O7	O	-0.646207	-0.112723	-0.042494
Cu8	Cu	-0.576211	-0.121294	-0.050234
Cu9	Cu	-0.576227	-0.121267	0.050120
O10	O	-0.578313	-0.259246	-0.042481
C11	C	-0.572278	0.051961	-0.000062
C12	C	-0.566791	0.157106	-0.000062
C13	C	-0.488200	-0.129490	-0.000047
C14	C	-0.434495	-0.128407	-0.000041
C15	C	-0.664237	-0.113071	-0.000066
C16	C	-0.717943	-0.114155	-0.000068
C17	C	-0.099423	-0.208172	-0.000061
C18	C	0.102425	-0.204153	-0.000065
O19	O	0.130258	-0.277093	-0.000085
N20	N	0.125626	-0.117271	-0.000068
C21	C	0.098362	-0.031388	-0.000072
O22	O	0.122728	0.042603	-0.000079
C23	C	-0.103485	-0.035408	-0.000071
C24	C	-0.126683	-0.122296	-0.000064
C25	C	-0.122621	-0.295053	-0.000054
C26	C	-0.173080	-0.296057	-0.000050
C27	C	-0.200341	-0.210180	-0.000053
C28	C	-0.177142	-0.123300	-0.000060
C29	C	-0.130749	0.050474	-0.000079
C30	C	-0.181213	0.049461	-0.000080
C31	C	-0.204412	-0.037426	-0.000073
C32	C	-0.254862	-0.038427	-0.000058
N33	N	-0.278063	-0.125309	-0.000056
C34	C	-0.250803	-0.211186	-0.000054
C35	C	0.204335	-0.029283	-0.000071
C36	C	0.254797	-0.028278	-0.000071
C37	C	0.258856	-0.201044	-0.000065
C38	C	0.208394	-0.202048	-0.000062
C39	C	0.181134	-0.116165	-0.000069
C40	C	-0.356770	-0.213287	-0.000045
C41	C	-0.407234	-0.214284	-0.000039
C42	C	-0.411289	-0.041518	-0.000047
C43	C	-0.360830	-0.040522	-0.000050
C44	C	-0.333572	-0.126414	-0.000051
O45	O	-0.282725	0.034474	-0.000045
O46	O	-0.275177	-0.285166	-0.000058
C47	C	-0.048964	-0.207169	-0.000065
C48	C	-0.025765	-0.120288	-0.000071
C49	C	-0.053026	-0.034411	-0.000074
C50	C	0.024696	-0.119283	-0.000071
C51	C	0.051957	-0.205159	-0.000068
C52	C	0.028756	-0.292041	-0.000066
C53	C	-0.021703	-0.293045	-0.000062
C54	C	-0.029825	0.052471	-0.000076
C55	C	0.020634	0.053468	-0.000080
C56	C	0.047895	-0.032409	-0.000077
C57	C	-0.580160	-0.294522	-0.000051
C58	C	-0.585647	-0.399668	-0.000048
N59	N	-0.576203	-0.121313	-0.120818
C60	C	-0.556759	0.349620	-0.000053
C61	C	-0.595676	0.407824	-0.000056
C62	C	-0.590094	0.514945	-0.000051
C63	C	-0.562340	0.242489	-0.000058
C64	C	-0.606287	-0.056401	-0.473338
C65	C	-0.606297	-0.056388	-0.686996
O66	O	-0.631857	-0.001203	-0.714623
N67	N	-0.576228	-0.121246	-0.713712
C68	C	-0.546152	-0.186108	-0.687010
O69	O	-0.520574	-0.241268	-0.714636
C70	C	-0.546140	-0.186116	-0.473352
C71	C	-0.576215	-0.121260	-0.446639
C72	C	-0.636359	0.008450	-0.446625
C73	C	-0.636358	0.008443	-0.393213
C74	C	-0.606285	-0.056416	-0.366515
C75	C	-0.576214	-0.121268	-0.393228
C76	C	-0.516062	-0.250973	-0.446651
C77	C	-0.516061	-0.250968	-0.393233
C78	C	-0.546135	-0.186112	-0.366520
C79	C	-0.546140	-0.186134	-0.313118
N80	N	-0.576209	-0.121276	-0.286402
C81	C	-0.606282	-0.056417	-0.313101
C82	C	-0.546162	-0.186101	-0.799183
C83	C	-0.546165	-0.186100	-0.852597
C84	C	-0.606309	-0.056379	-0.852580
C85	C	-0.606308	-0.056384	-0.799165
C86	C	-0.576231	-0.121243	-0.772467
C87	C	-0.606278	-0.056438	-0.200933
C88	C	-0.606276	-0.056454	-0.147517
C89	C	-0.546130	-0.186172	-0.147538
C90	C	-0.546134	-0.186160	-0.200950
C91	C	-0.576209	-0.121285	-0.227646
O92	O	-0.520590	-0.241284	-0.285458
O93	O	-0.631849	-0.001252	-0.285466
C94	C	-0.606288	-0.056394	-0.526749
C95	C	-0.576216	-0.121246	-0.553462
C96	C	-0.546144	-0.186104	-0.526764
C97	C	-0.576220	-0.121245	-0.606876
C98	C	-0.606292	-0.056386	-0.633575
C99	C	-0.636361	0.008472	-0.606859
C100	C	-0.636360	0.008465	-0.553448
C101	C	-0.516075	-0.250963	-0.553479
C102	C	-0.516079	-0.250951	-0.606891
C103	C	-0.546151	-0.186092	-0.633589
N104	N	-0.576238	-0.121241	0.120704
H105	H	-0.426119	-0.285041	-0.000032
H106	H	-0.111869	0.121227	-0.000085
O107	O	-0.511987	0.386029	-0.000117
C108	C	-0.436036	0.396145	-0.044093
C109	C	-0.486721	0.354817	-0.044076
H110	H	-0.415598	0.370942	-0.079635
H111	H	-0.415540	0.370873	-0.008604
H112	H	-0.439462	0.477283	-0.044066
H113	H	-0.483340	0.273678	-0.044121
H114	H	-0.507199	0.380163	-0.079562
O115	O	0.185938	-0.286533	-0.000081
C116	C	0.195304	-0.457785	-0.000043
C117	C	0.220794	-0.362170	-0.000032
H118	H	0.223474	-0.518962	0.000008
H119	H	0.171800	-0.462656	-0.035565
H120	H	0.171763	-0.462518	0.035461
H121	H	0.244360	-0.357372	-0.035511
H122	H	0.244268	-0.357339	0.035514
O123	O	-0.640401	0.371190	0.000001
C124	C	-0.696680	0.273372	0.043960
C125	C	-0.646014	0.314783	0.043955
H126	H	-0.701238	0.227775	0.079498
H127	H	-0.701234	0.227639	0.008467
H128	H	-0.725093	0.334111	0.043931
H129	H	-0.617570	0.254104	0.044001
H130	H	-0.641501	0.360542	0.079444
H131	H	-0.630768	-0.003640	-0.125769
O132	O	-0.207620	0.132978	-0.000061
C133	C	-0.206317	0.304443	-0.000100
C134	C	-0.176354	0.209933	-0.000112
H135	H	-0.181051	0.366686	-0.000152
H136	H	-0.230031	0.308371	0.035423
H137	H	-0.230056	0.308232	-0.035603
H138	H	-0.152588	0.206081	0.035367
H139	H	-0.152672	0.206044	-0.035659
O140	O	-0.635537	0.006617	-0.226781
C141	C	-0.695170	0.135319	-0.221112
C142	C	-0.662065	0.063950	-0.191776
H143	H	-0.716619	0.181704	-0.192824
H144	H	-0.721099	0.094805	-0.246107
H145	H	-0.672271	0.182327	-0.246131
H146	H	-0.684926	0.016923	-0.166730
H147	H	-0.636134	0.104522	-0.166814
H148	H	-0.491573	-0.303784	-0.468393
H149	H	-0.521681	-0.238922	-0.874343
H150	H	-0.630796	-0.003569	-0.874327
H151	H	-0.660847	0.061270	-0.468358
O152	O	-0.665582	0.071544	-0.367347
C153	C	-0.725253	0.200179	-0.372988
C154	C	-0.692172	0.128776	-0.402340
H155	H	-0.746767	0.246457	-0.401266
H156	H	-0.702379	0.247289	-0.347997
H157	H	-0.751129	0.159598	-0.347965
H158	H	-0.666291	0.169279	-0.427390
H159	H	-0.715076	0.081667	-0.427298
H160	H	-0.521668	-0.238919	-0.777450
H161	H	0.050960	-0.361965	-0.000062
O162	O	-0.635533	0.006712	-0.773297
C163	C	-0.695210	0.135337	-0.778933
C164	C	-0.662128	0.063942	-0.808287
H165	H	-0.716728	0.181612	-0.807209
H166	H	-0.672338	0.182451	-0.753943
H167	H	-0.721083	0.094750	-0.753908
H168	H	-0.636250	0.104451	-0.833339
H169	H	-0.685031	0.016829	-0.833245
O170	O	-0.195629	-0.380441	0.000050
C171	C	-0.250246	-0.481832	0.044015
C172	C	-0.224740	-0.386235	0.043968
H173	H	-0.273796	-0.486538	0.079513
H174	H	-0.222103	-0.543058	0.044051
H175	H	-0.273749	-0.486643	0.008489
H176	H	-0.201239	-0.381330	0.079488
H177	H	-0.252908	-0.325054	0.043905
H178	H	-0.491567	-0.303782	-0.371499
O179	O	-0.516875	-0.249195	-0.226823
C180	C	-0.457232	-0.377883	-0.221196
C181	C	-0.490342	-0.306544	-0.191837
H182	H	-0.435780	-0.424281	-0.192923
H183	H	-0.431307	-0.337344	-0.246182
H184	H	-0.480128	-0.424882	-0.246225
H185	H	-0.467486	-0.259527	-0.166781
H186	H	-0.516270	-0.347141	-0.166883
H187	H	-0.521647	-0.238982	-0.125792
H188	H	-0.491586	-0.303778	-0.531746
H189	H	-0.660850	0.061277	-0.531702
H190	H	-0.660849	0.061280	-0.628606
H191	H	-0.491590	-0.303773	-0.628637
H192	H	0.281061	-0.270968	-0.000063
O193	O	-0.096166	-0.378507	0.000041
C194	C	-0.077300	-0.525873	0.044004
C195	C	-0.107275	-0.431380	0.043960
H196	H	-0.086278	-0.568657	0.079503
H197	H	-0.037239	-0.510308	0.044038
H198	H	-0.086216	-0.568640	0.008478
H199	H	-0.098401	-0.388566	0.079479
H200	H	-0.147328	-0.447012	0.043899
O201	O	-0.330244	-0.296660	0.000026
C202	C	-0.270946	-0.395817	0.044012
C203	C	-0.300949	-0.301356	0.043984
H204	H	-0.247261	-0.399654	0.079554
H205	H	-0.247185	-0.399704	0.008523
H206	H	-0.296211	-0.458062	0.043994
H207	H	-0.275720	-0.239058	0.044020
H208	H	-0.324715	-0.297552	0.079470
O209	O	0.277405	0.056041	-0.000049
C210	C	0.353338	0.134176	-0.000082
C211	C	0.327798	0.038615	-0.000092
H212	H	0.394085	0.120121	-0.000128
H213	H	0.342445	0.176597	0.035437
H214	H	0.342385	0.176563	-0.035589
H215	H	0.338738	-0.003849	0.035390
H216	H	0.338692	-0.003734	-0.035635
O217	O	0.177931	0.054236	-0.000052
C218	C	0.179243	0.225700	-0.000085
C219	C	0.209201	0.131185	-0.000098
H220	H	0.204512	0.287938	-0.000132
H221	H	0.155526	0.229629	0.035436
H222	H	0.155507	0.229498	-0.035590
H223	H	0.232964	0.127324	0.035383
H224	H	0.232886	0.127296	-0.035642
H225	H	-0.341941	0.030229	-0.000049
H226	H	-0.040587	-0.363798	-0.000057
O227	O	-0.437755	0.041922	0.000041
C228	C	-0.456661	0.189315	0.043976
C229	C	-0.426666	0.094845	0.043950
H230	H	-0.447699	0.232139	0.079467
H231	H	-0.496718	0.173716	0.044010
H232	H	-0.447748	0.232058	0.008443
H233	H	-0.435537	0.052055	0.079477
H234	H	-0.386617	0.110511	0.043889
O235	O	0.043111	0.137937	-0.000018
C236	C	0.055093	0.285906	0.043944
C237	C	0.029602	0.190293	0.043937
H238	H	0.044188	0.328254	0.079483
H239	H	0.044153	0.328352	0.008452
H240	H	0.095841	0.271863	0.043915
H241	H	-0.011151	0.204250	0.043984
H242	H	0.040581	0.147877	0.079426
H243	H	-0.052016	0.122404	-0.000080
