data_functionalizedCrystal
_audit_creation_method	'MofGen! by Chris Wilmer'
_symmetry_space_group_name_H-M	'P1'
_symmetry_Int_Tables_number	1
_symmetry_cell_setting	triclinic
loop_
_symmetry_equiv_pos_as_xyz
  x,y,z
_cell_length_a	12.503572
_cell_length_b	11.026607
_cell_length_c	11.026607
_cell_angle_alpha	108.586017
_cell_angle_beta	94.298318
_cell_angle_gamma	85.706536
loop_
_atom_site_label
_atom_site_type_symbol
_atom_site_fract_x
_atom_site_fract_y
_atom_site_fract_z
O1	O	0.089318	-1.732471	-0.527857
O2	O	0.422651	-1.399138	-0.194524
O3	O	0.755985	-1.065805	0.138810
O4	O	0.089320	-1.365891	-0.467093
O5	O	0.422653	-1.032558	-0.133760
O6	O	0.755986	-0.699225	0.199573
O7	O	0.089315	-1.518799	-0.314185
O8	O	0.422649	-1.185466	0.019148
O9	O	0.755982	-0.852133	0.352481
O10	O	0.089323	-1.579563	-0.680765
O11	O	0.422656	-1.246230	-0.347431
O12	O	0.755989	-0.912897	-0.014098
O13	O	-0.089326	-1.507305	-0.325709
O14	O	0.244007	-1.173972	0.007624
O15	O	0.577340	-0.840638	0.340957
O16	O	-0.089322	-1.354397	-0.478617
O17	O	0.244012	-1.021064	-0.145284
O18	O	0.577345	-0.687730	0.188049
O19	O	-0.089323	-1.720977	-0.539381
O20	O	0.244010	-1.387644	-0.206048
O21	O	0.577343	-1.054310	0.127286
Cu22	Cu	-0.105634	-1.536638	-0.510051
Cu23	Cu	0.227699	-1.203304	-0.176718
Cu24	Cu	0.561033	-0.869971	0.156615
Cu25	Cu	0.105630	-1.550231	-0.496423
Cu26	Cu	0.438964	-1.216897	-0.163090
Cu27	Cu	0.772297	-0.883564	0.170244
O28	O	-0.089319	-1.568069	-0.692289
O29	O	0.244014	-1.234736	-0.358955
O30	O	0.577348	-0.901402	-0.025622
C31	C	-0.000001	-1.312485	-0.461645
C32	C	0.333333	-0.979151	-0.128312
C33	C	0.666666	-0.645818	0.205021
C34	C	-0.000000	-1.170471	-0.428228
C35	C	0.333333	-0.837137	-0.094895
C36	C	0.666667	-0.503804	0.238438
C37	C	-0.000004	-1.501842	-0.272288
C38	C	0.333329	-1.168509	0.061046
C39	C	0.666662	-0.835176	0.394379
C40	C	-0.000000	-1.468426	-0.130273
C41	C	0.333333	-1.135092	0.203060
C42	C	0.666666	-0.801759	0.536393
N43	N	-0.254226	-1.527086	-0.519638
N44	N	0.079107	-1.193752	-0.186305
N45	N	0.412441	-0.860419	0.147029
C46	C	-0.473341	-1.513037	-0.533751
C47	C	-0.140007	-1.179704	-0.200418
C48	C	0.193326	-0.846371	0.132916
C49	C	-0.526670	-1.573836	-0.472718
C50	C	-0.193336	-1.240502	-0.139385
C51	C	0.139997	-0.907169	0.193948
C52	C	-0.648593	-1.566019	-0.480571
C53	C	-0.315259	-1.232686	-0.147238
C54	C	0.018074	-0.899352	0.186096
C55	C	-0.351407	-1.520853	-0.525900
C56	C	-0.018073	-1.187519	-0.192566
C57	C	0.315260	-0.854186	0.140767
N58	N	0.254222	-1.559790	-0.486828
N59	N	0.587556	-1.226457	-0.153495
N60	N	0.920889	-0.893124	0.179838
C61	C	-0.000001	-1.774384	-0.544829
C62	C	0.333333	-1.441051	-0.211495
C63	C	0.666666	-1.107717	0.121838
C64	C	0.000006	-1.916398	-0.578245
C65	C	0.333339	-1.583065	-0.244912
C66	C	0.666672	-1.249732	0.088422
C67	C	0.000003	-1.116822	-0.520498
C68	C	0.333336	-0.783488	-0.187164
C69	C	0.666669	-0.450155	0.146169
C70	C	0.000003	-0.970043	-0.485962
C71	C	0.333337	-0.636710	-0.152629
C72	C	0.666670	-0.303376	0.180705
C73	C	0.000003	-1.585026	-0.734186
C74	C	0.333336	-1.251693	-0.400853
C75	C	0.666670	-0.918359	-0.067520
C76	C	0.000006	-1.618443	-0.876200
C77	C	0.333339	-1.285110	-0.542867
C78	C	0.666673	-0.951776	-0.209533
C79	C	0.000001	-1.560695	-0.076624
C80	C	0.333334	-1.227362	0.256709
C81	C	0.666667	-0.894029	0.590043
C82	C	0.000005	-1.526160	0.070155
C83	C	0.333338	-1.192827	0.403488
C84	C	0.666672	-0.859493	0.736822
H85	H	-0.480759	-1.631759	-0.414570
H86	H	-0.147425	-1.298425	-0.081237
H87	H	0.185908	-0.965092	0.252097
Br88	Br	-0.000016	-1.065923	-0.253944
Br89	Br	0.333318	-0.732590	0.079389
Br90	Br	0.666651	-0.399256	0.412722
H91	H	-0.000006	-1.665258	-0.139358
H92	H	0.333327	-1.331925	0.193976
H93	H	0.666660	-0.998591	0.527309
Br94	Br	-0.000012	-0.865499	-0.311671
Br95	Br	0.333321	-0.532166	0.021662
Br96	Br	0.666654	-0.198833	0.354996
Br97	Br	-0.000011	-1.020936	-0.752539
Br98	Br	0.333322	-0.687603	-0.419206
Br99	Br	0.666656	-0.354270	-0.085873
H100	H	-0.000001	-1.179554	-0.625061
H101	H	0.333332	-0.846221	-0.291728
H102	H	0.666665	-0.512888	0.041606
H103	H	-0.519246	-1.455120	-0.591898
H104	H	-0.185913	-1.121787	-0.258564
H105	H	0.147420	-0.788454	0.074769
H106	H	0.000086	-1.723019	0.061078
H107	H	0.333420	-1.389685	0.394411
H108	H	0.666753	-1.056352	0.727744
Br109	Br	0.000021	-1.351869	0.174699
Br110	Br	0.333355	-1.018536	0.508032
Br111	Br	0.666688	-0.685202	0.841365
Br112	Br	0.000016	-1.294142	-0.025726
Br113	Br	0.333349	-0.960808	0.307608
Br114	Br	0.666683	-0.627475	0.640941
