data_functionalizedCrystal
_audit_creation_method	'MofGen! by Chris Wilmer'
_symmetry_space_group_name_H-M	'P1'
_symmetry_Int_Tables_number	1
_symmetry_cell_setting	triclinic
loop_
_symmetry_equiv_pos_as_xyz
  x,y,z
_cell_length_a	10.654541
_cell_length_b	15.455313
_cell_length_c	16.974813
_cell_angle_alpha	89.012317
_cell_angle_beta	83.938554
_cell_angle_gamma	87.294234
loop_
_atom_site_label
_atom_site_type_symbol
_atom_site_fract_x
_atom_site_fract_y
_atom_site_fract_z
O1	O	1.672200	-0.079632	0.107262
O2	O	2.172200	0.420368	0.607262
O3	O	1.306613	-0.080380	0.117809
O4	O	1.806613	0.419620	0.617809
O5	O	1.498984	-0.071953	-0.002129
O6	O	1.998984	0.428047	0.497871
O7	O	1.479828	-0.088059	0.227200
O8	O	1.979828	0.411941	0.727200
O9	O	1.487983	0.071830	0.004701
O10	O	1.987983	0.571830	0.504701
O11	O	1.295612	0.063403	0.124639
O12	O	1.795612	0.563403	0.624639
O13	O	1.661199	0.064150	0.114092
O14	O	2.161199	0.564150	0.614092
Cu15	Cu	1.477401	0.076905	0.119989
Cu16	Cu	1.977401	0.576905	0.619989
Cu17	Cu	1.490411	-0.093134	0.111912
Cu18	Cu	1.990411	0.406866	0.611912
O19	O	1.468828	0.055723	0.234030
O20	O	1.968828	0.555723	0.734030
C21	C	1.254323	-0.008435	0.120450
C22	C	1.754323	0.491565	0.620450
C23	C	1.114903	-0.008275	0.118134
C24	C	1.614903	0.491725	0.618134
N25	N	1.468260	0.196501	0.125670
N26	N	1.968260	0.696501	0.625670
N27	N	1.499562	-0.212730	0.106225
N28	N	1.999562	0.287270	0.606225
C29	C	1.085463	-0.018359	0.261553
C30	C	1.585463	0.481641	0.761553
C31	C	1.005246	-0.023327	0.332170
C32	C	1.505246	0.476673	0.832170
C33	C	0.874251	-0.023175	0.329990
C34	C	1.374251	0.476825	0.829990
C35	C	0.823471	-0.018051	0.257183
C36	C	1.323471	0.481949	0.757183
C37	C	0.903688	-0.013082	0.186565
C38	C	1.403688	0.486918	0.686565
C39	C	1.034685	-0.013238	0.188754
C40	C	1.534685	0.486762	0.688754
C41	C	0.933126	-0.002993	0.043149
C42	C	1.433126	0.497007	0.543149
C43	C	1.064123	-0.003151	0.045328
C44	C	1.564123	0.496849	0.545328
C45	C	0.882346	0.002131	-0.029658
C46	C	1.382346	0.502131	0.470342
C47	C	0.962564	0.007094	-0.100278
C48	C	1.462564	0.507094	0.399722
C49	C	1.093567	0.006940	-0.098094
C50	C	1.593567	0.506940	0.401906
C51	C	1.144340	0.001817	-0.025290
C52	C	1.644340	0.501817	0.474710
C53	C	1.713489	-0.007796	0.111451
C54	C	2.213489	0.492204	0.611451
C55	C	1.852909	-0.007961	0.113767
C56	C	2.352909	0.492039	0.613767
C57	C	1.492551	0.001999	-0.028079
C58	C	1.992551	0.501999	0.471921
C59	C	1.489756	0.008138	-0.115577
C60	C	1.989756	0.508138	0.384423
C61	C	1.550014	0.245474	0.074735
C62	C	2.050014	0.745474	0.574735
C63	C	1.543113	0.335980	0.079038
C64	C	2.043113	0.835980	0.579038
C65	C	1.454462	0.377510	0.134281
C66	C	1.954462	0.877510	0.634281
C67	C	1.372699	0.328531	0.185218
C68	C	1.872699	0.828531	0.685218
C69	C	1.379595	0.238028	0.180911
C70	C	1.879595	0.738028	0.680911
C71	C	1.424695	0.647787	0.152854
C72	C	1.924695	1.147787	0.652854
C73	C	1.417807	0.738297	0.157160
C74	C	1.917807	1.238297	0.657160
C75	C	1.588221	0.745740	0.050978
C76	C	2.088221	1.245740	0.550978
C77	C	1.595114	0.655234	0.046679
C78	C	2.095114	1.155234	0.546679
C79	C	1.513347	0.606262	0.097613
C80	C	2.013347	1.106262	0.597613
N81	N	1.447408	0.470021	0.138683
N82	N	1.947408	0.970021	0.638683
N83	N	1.520395	0.513753	0.093207
N84	N	2.020395	1.013753	0.593207
C85	C	1.494442	-0.067353	-0.160402
C86	C	1.994442	0.432647	0.339598
C87	C	1.491807	-0.061581	-0.242615
C88	C	1.991807	0.438419	0.257385
C89	C	1.484496	0.019682	-0.280002
C90	C	1.984496	0.519682	0.219998
C91	C	1.479805	0.095178	-0.235170
C92	C	1.979805	0.595178	0.264830
C93	C	1.482431	0.089406	-0.152958
C94	C	1.982431	0.589406	0.347042
C95	C	1.475992	0.045349	-0.525479
C96	C	1.975992	0.545349	-0.025479
C97	C	1.473370	0.051116	-0.607697
C98	C	1.973370	0.551116	-0.107697
C99	C	1.485370	-0.105644	-0.615136
C100	C	1.985370	0.394356	-0.115136
C101	C	1.488003	-0.111409	-0.532923
C102	C	1.988003	0.388591	-0.032923
C103	C	1.483306	-0.035913	-0.488098
C104	C	1.983306	0.464087	0.011902
N105	N	1.481807	0.025583	-0.364036
N106	N	1.981807	0.525583	0.135964
N107	N	1.485986	-0.041815	-0.404064
N108	N	1.985986	0.458185	0.095936
C109	C	1.475261	-0.018230	0.259980
C110	C	1.975261	0.481770	0.759980
C111	C	1.478057	-0.024375	0.347478
C112	C	1.978057	0.475625	0.847478
H113	H	1.192127	-0.018502	0.263335
H114	H	1.692127	0.481498	0.763335
Br115	Br	1.670342	0.189121	-0.000236
Br116	Br	2.170342	0.689121	0.499764
H117	H	1.489192	-0.167109	-0.651641
H118	H	1.989192	0.332891	-0.151641
H119	H	1.654791	0.785620	0.009509
H120	H	2.154791	1.285620	0.509509
Br121	Br	1.504379	-0.177643	-0.109672
Br122	Br	2.004379	0.322357	0.390328
H123	H	1.345613	0.772106	0.202148
H124	H	1.845613	1.272106	0.702148
Br125	Br	0.765378	-0.029906	0.425829
Br126	Br	1.265378	0.470094	0.925829
H127	H	0.921208	0.011264	-0.159551
H128	H	1.421208	0.511264	0.340449
H129	H	1.478597	0.150879	-0.116461
H130	H	1.978597	0.650879	0.383539
H131	H	1.158874	0.010989	-0.155600
H132	H	1.658874	0.510989	0.344400
Br133	Br	1.654062	0.402446	0.009909
Br134	Br	2.154062	0.902446	0.509909
Br135	Br	1.322120	0.001601	-0.022321
Br136	Br	1.822120	0.501601	0.477679
Br137	Br	1.715431	0.598869	-0.028291
Br138	Br	2.215431	1.098869	0.471709
Br139	Br	1.469591	0.147809	-0.464653
Br140	Br	1.969591	0.647809	0.035347
H141	H	1.046606	-0.027497	0.391448
H142	H	1.546606	0.472503	0.891448
Br143	Br	1.313731	0.581331	0.221979
Br144	Br	1.813731	1.081331	0.721979
H145	H	1.495629	-0.123054	-0.279109
H146	H	1.995629	0.376946	0.220891
Br147	Br	1.252375	0.384891	0.260187
Br148	Br	1.752375	0.884891	0.760187
H149	H	1.467410	0.117293	-0.638134
H150	H	1.967410	0.617293	-0.138134
H151	H	0.775681	0.002260	-0.031428
H152	H	1.275681	0.502260	0.468572
Br153	Br	0.645688	-0.017825	0.254226
Br154	Br	1.145688	0.482175	0.754226
Br155	Br	1.268629	0.171564	0.250035
Br156	Br	1.768629	0.671564	0.750035
Br157	Br	1.497935	-0.221699	-0.482190
Br158	Br	1.997935	0.278301	0.017810
H159	H	1.473844	0.161344	-0.265616
H160	H	1.973844	0.661344	0.234384
