data_functionalizedCrystal
_audit_creation_method	'MofGen! by Chris Wilmer'
_symmetry_space_group_name_H-M	'P1'
_symmetry_Int_Tables_number	1
_symmetry_cell_setting	triclinic
loop_
_symmetry_equiv_pos_as_xyz
  x,y,z
_cell_length_a	11.169416
_cell_length_b	11.169417
_cell_length_c	11.169409
_cell_angle_alpha	90.021683
_cell_angle_beta	89.969126
_cell_angle_gamma	89.990722
loop_
_atom_site_label
_atom_site_type_symbol
_atom_site_fract_x
_atom_site_fract_y
_atom_site_fract_z
Zn1	Zn	-0.477744	-1.834962	-0.678614
Zn2	Zn	0.022256	-1.334962	-0.178614
Zn3	Zn	-0.678484	-1.834852	-0.477936
Zn4	Zn	-0.178484	-1.334852	0.022064
Zn5	Zn	-0.477810	-1.634248	-0.477942
Zn6	Zn	0.022190	-1.134248	0.022058
Zn7	Zn	-0.678380	-1.634256	-0.678575
Zn8	Zn	-0.178380	-1.134256	-0.178575
O9	O	-0.578105	-1.734579	-0.578267
O10	O	-0.078105	-1.234579	-0.078267
O11	O	-0.504389	-2.002897	-0.652008
O12	O	-0.004389	-1.502897	-0.152008
O13	O	-0.651936	-1.808192	-0.309987
O14	O	-0.151936	-1.308192	0.190013
O15	O	-0.309852	-1.660917	-0.504581
O16	O	0.190148	-1.160917	-0.004581
O17	O	-0.651872	-2.002816	-0.504571
O18	O	-0.151872	-1.502816	-0.004571
O19	O	-0.309803	-1.808380	-0.652014
O20	O	0.190197	-1.308380	-0.152014
O21	O	-0.504502	-1.660809	-0.309992
O22	O	-0.004502	-1.160809	0.190008
O23	O	-0.504400	-1.466300	-0.504543
O24	O	-0.004400	-0.966300	-0.004543
O25	O	-0.651694	-1.660929	-0.846530
O26	O	-0.151694	-1.160929	-0.346530
O27	O	-0.651758	-1.466305	-0.651946
O28	O	-0.151758	-0.966305	-0.151946
O29	O	-0.504287	-1.808388	-0.846559
O30	O	-0.004287	-1.308388	-0.346559
O31	O	-0.846420	-1.808199	-0.504533
O32	O	-0.346420	-1.308199	-0.004533
O33	O	-0.846344	-1.660822	-0.651941
O34	O	-0.346344	-1.160822	-0.151941
C35	C	-0.578076	-1.422755	-0.578241
C36	C	-0.078076	-0.922755	-0.078241
C37	C	-0.578093	-1.289355	-0.578259
C38	C	-0.078093	-0.789355	-0.078259
C39	C	-0.889929	-1.734532	-0.578258
C40	C	-0.389929	-1.234532	-0.078258
C41	C	-1.023329	-1.734621	-0.578294
C42	C	-0.523329	-1.234621	-0.078294
C43	C	-0.265062	-1.734660	-0.578302
C44	C	0.234938	-1.234660	-0.078302
C45	C	-0.131662	-1.734694	-0.578318
C46	C	0.368338	-1.234694	-0.078318
C47	C	-0.577971	-1.734672	-0.891310
C48	C	-0.077971	-1.234672	-0.391310
C49	C	-0.577915	-1.734711	-1.024710
C50	C	-0.077915	-1.234711	-0.524710
C51	C	-0.578124	-1.047622	-0.578284
C52	C	-0.078124	-0.547622	-0.078284
C53	C	-0.578107	-1.181022	-0.578267
C54	C	-0.078107	-0.681022	-0.078267
C55	C	-0.578151	-1.734557	-0.266442
C56	C	-0.078151	-1.234557	0.233558
C57	C	-0.577870	-1.734750	-0.133043
C58	C	-0.077870	-1.234750	0.366957
