data_functionalizedCrystal
_audit_creation_method	'MofGen! by Chris Wilmer'
_symmetry_space_group_name_H-M	'P1'
_symmetry_Int_Tables_number	1
_symmetry_cell_setting	triclinic
loop_
_symmetry_equiv_pos_as_xyz
  x,y,z
_cell_length_a	10.654550
_cell_length_b	15.944493
_cell_length_c	9.130313
_cell_angle_alpha	90.001356
_cell_angle_beta	89.999724
_cell_angle_gamma	83.979987
loop_
_atom_site_label
_atom_site_type_symbol
_atom_site_fract_x
_atom_site_fract_y
_atom_site_fract_z
O1	O	1.666276	0.117980	-0.121669
O2	O	1.300649	0.129220	-0.121694
O3	O	1.493485	0.001380	-0.121693
O4	O	1.473440	0.245820	-0.121670
O5	O	1.493472	0.001376	0.121906
O6	O	1.300636	0.129216	0.121905
O7	O	1.666263	0.117976	0.121930
Cu8	Cu	1.483448	0.123596	0.144160
Cu9	Cu	1.483464	0.123600	-0.143924
O10	O	1.473427	0.245816	0.121929
C11	C	1.253855	0.128393	0.000102
C12	C	1.114445	0.125923	0.000091
C13	C	1.492659	-0.029922	0.000100
C14	C	1.490203	-0.123185	0.000081
C15	C	1.033962	0.201194	0.000103
C16	C	0.902972	0.198869	0.000128
C17	C	0.932960	0.045996	0.000125
C18	C	1.063948	0.048322	0.000110
C19	C	1.603711	-0.358288	0.000117
C20	C	1.542507	-0.409208	-0.119993
C21	C	1.485652	-0.293932	0.000099
C22	C	1.542466	-0.409188	0.120176
C23	C	1.481264	-0.458867	0.000122
C24	C	1.424480	-0.343624	-0.120111
C25	C	1.424456	-0.343601	0.120167
C26	C	1.363166	-0.394489	0.000027
C27	C	1.488183	-0.198918	0.000084
C28	C	1.478724	-0.553879	0.000127
C29	C	1.713057	0.118803	0.000131
C30	C	1.852467	0.121272	0.000132
C31	C	1.474253	0.277117	0.000133
C32	C	1.476709	0.370380	0.000142
N33	N	1.483446	0.123592	0.346783
N34	N	1.483475	0.123597	-0.346547
C35	C	1.568863	0.067008	0.423435
C36	C	1.568875	0.067008	0.576772
C37	C	1.398050	0.180183	0.576790
C38	C	1.398033	0.180178	0.423456
H39	H	0.837447	0.260161	0.000140
O40	O	1.738404	-0.336789	-0.000042
H41	H	1.803603	-0.395840	-0.001149
O42	O	1.358471	-0.305606	0.254665
H43	H	1.324532	-0.356506	0.322267
O44	O	0.878497	-0.037700	0.000141
H45	H	0.819538	-0.042423	-0.099145
H46	H	1.592343	-0.437832	0.221713
H47	H	1.374656	-0.315091	-0.221763
O48	O	1.660968	0.005970	0.340729
H49	H	1.720355	-0.033382	0.419798
O50	O	1.608561	-0.447182	-0.254477
H51	H	1.644127	-0.396398	-0.320949
O52	O	1.228351	-0.415740	-0.000029
H53	H	1.179651	-0.389233	-0.099816
H54	H	1.638427	0.020932	0.639178
O55	O	1.088431	0.284888	0.000095
H56	H	1.147408	0.289598	0.099371
H57	H	1.328510	0.226256	0.639234
O58	O	1.150770	-0.032865	0.000101
H59	H	1.093653	-0.087217	0.000096
O60	O	1.305906	0.241213	0.340764
H61	H	1.246529	0.280571	0.419837
