data_functionalizedCrystal
_audit_creation_method	'MofGen! by Chris Wilmer'
_symmetry_space_group_name_H-M	'P1'
_symmetry_Int_Tables_number	1
_symmetry_cell_setting	triclinic
loop_
_symmetry_equiv_pos_as_xyz
  x,y,z
_cell_length_a	18.215407
_cell_length_b	19.121063
_cell_length_c	18.215398
_cell_angle_alpha	92.412350
_cell_angle_beta	89.980536
_cell_angle_gamma	92.469446
loop_
_atom_site_label
_atom_site_type_symbol
_atom_site_fract_x
_atom_site_fract_y
_atom_site_fract_z
Zn1	Zn	1.112556	-0.279631	-0.428597
Zn2	Zn	1.445889	0.053702	-0.095263
Zn3	Zn	1.779222	0.387036	0.238070
Zn4	Zn	1.107209	-0.397081	-0.310773
Zn5	Zn	1.440542	-0.063748	0.022561
Zn6	Zn	1.773876	0.269586	0.355894
Zn7	Zn	0.989488	-0.279649	-0.305545
Zn8	Zn	1.322822	0.053685	0.027788
Zn9	Zn	1.656155	0.387018	0.361122
Zn10	Zn	0.984200	-0.397047	-0.433796
Zn11	Zn	1.317533	-0.063714	-0.100463
Zn12	Zn	1.650866	0.269620	0.232871
O13	O	1.048363	-0.338352	-0.369678
O14	O	1.381696	-0.005019	-0.036344
O15	O	1.715030	0.328315	0.296989
O16	O	1.214830	-0.295218	-0.412979
O17	O	1.548164	0.038116	-0.079646
O18	O	1.881497	0.371449	0.253688
O19	O	1.091569	-0.381525	-0.207096
O20	O	1.424902	-0.048192	0.126237
O21	O	1.758235	0.285142	0.459571
O22	O	1.010264	-0.181362	-0.317504
O23	O	1.343598	0.151972	0.015829
O24	O	1.676931	0.485305	0.349162
O25	O	1.210902	-0.381508	-0.326414
O26	O	1.544235	-0.048174	0.006919
O27	O	1.877569	0.285159	0.340252
O28	O	1.100681	-0.181349	-0.407910
O29	O	1.434015	0.151985	-0.074577
O30	O	1.767348	0.485318	0.258757
O31	O	1.005080	-0.295248	-0.203255
O32	O	1.338413	0.038085	0.130078
O33	O	1.671746	0.371419	0.463412
O34	O	0.885803	-0.295215	-0.322546
O35	O	1.219136	0.038118	0.010788
O36	O	1.552469	0.371451	0.344121
O37	O	1.001251	-0.381450	-0.536090
O38	O	1.334584	-0.048117	-0.202756
O39	O	1.667917	0.285217	0.130577
O40	O	0.881917	-0.381467	-0.416771
O41	O	1.215251	-0.048134	-0.083438
O42	O	1.548584	0.285199	0.249895
O43	O	1.095553	-0.295185	-0.532270
O44	O	1.428887	0.038148	-0.198936
O45	O	1.762220	0.371482	0.134397
O46	O	1.086441	-0.495361	-0.331456
O47	O	1.419774	-0.162028	0.001878
O48	O	1.753107	0.171305	0.335211
O49	O	0.996066	-0.495337	-0.421841
O50	O	1.329400	-0.162003	-0.088507
O51	O	1.662733	0.171330	0.244826
C52	C	0.857157	-0.338340	-0.369656
C53	C	1.190491	-0.005007	-0.036323
C54	C	1.523824	0.328327	0.297011
C55	C	0.775358	-0.338352	-0.369665
C56	C	1.108691	-0.005018	-0.036332
C57	C	1.442025	0.328315	0.297002
C58	C	0.585157	-0.383334	-0.418672
C59	C	0.918490	-0.050001	-0.085339
C60	C	1.251824	0.283333	0.247994
C61	C	0.508298	-0.383336	-0.418682
C62	C	0.841631	-0.050003	-0.085348
C63	C	1.174965	0.283331	0.247985
C64	C	0.512321	-0.293383	-0.320700
C65	C	0.845654	0.039950	0.012634
C66	C	1.178987	0.373284	0.345967
C67	C	0.589178	-0.293378	-0.320694
C68	C	0.922512	0.039956	0.012639
C69	C	1.255845	0.373289	0.345972
C70	C	0.625594	-0.338357	-0.369680
C71	C	0.958928	-0.005024	-0.036347
C72	C	1.292261	0.328309	0.296987
C73	C	0.471878	-0.338365	-0.369694
C74	C	0.805211	-0.005031	-0.036361
C75	C	1.138545	0.328302	0.296972
C76	C	0.388544	-0.338367	-0.369704
C77	C	0.721877	-0.005033	-0.036371
C78	C	1.055211	0.328300	0.296963
C79	C	0.708933	-0.338354	-0.369671
C80	C	1.042267	-0.005021	-0.036338
C81	C	1.375600	0.328312	0.296995
C82	C	1.040119	-0.520833	-0.377796
C83	C	1.373453	-0.187500	-0.044462
C84	C	1.706786	0.145834	0.288871
C85	C	1.036660	-0.598899	-0.381293
C86	C	1.369993	-0.265566	-0.047960
C87	C	1.703327	0.067767	0.285373
C88	C	1.082124	-0.635565	-0.335917
C89	C	1.415458	-0.302231	-0.002584
C90	C	1.748791	0.031102	0.330750
C91	C	1.078875	-0.708916	-0.339211
C92	C	1.412208	-0.375583	-0.005877
C93	C	1.745542	-0.042249	0.327456
C94	C	1.030157	-0.745601	-0.387878
C95	C	1.363491	-0.412268	-0.054544
C96	C	1.696824	-0.078934	0.278789
C97	C	0.984691	-0.708930	-0.433259
C98	C	1.318024	-0.375597	-0.099926
C99	C	1.651358	-0.042264	0.233408
C100	C	0.987944	-0.635580	-0.429968
C101	C	1.321278	-0.302247	-0.096635
C102	C	1.654611	0.031086	0.236698
C103	C	1.017982	-0.967071	-0.400169
C104	C	1.351315	-0.633738	-0.066835
C105	C	1.684648	-0.300405	0.266498
C106	C	1.014730	-1.040427	-0.403454
C107	C	1.348063	-0.707093	-0.070121
C108	C	1.681397	-0.373760	0.263212
C109	C	1.108916	-1.040407	-0.309407
C110	C	1.442249	-0.707074	0.023927
C111	C	1.775582	-0.373741	0.357260
C112	C	1.112162	-0.967056	-0.306117
C113	C	1.445495	-0.633722	0.027216
C114	C	1.778828	-0.300389	0.360549
C115	C	1.066698	-0.930392	-0.351501
C116	C	1.400031	-0.597058	-0.018168
C117	C	1.733365	-0.263725	0.315165
C118	C	1.026833	-0.820578	-0.391244
C119	C	1.360167	-0.487245	-0.057910
C120	C	1.693500	-0.153911	0.275423
C121	C	1.070026	-0.855416	-0.348138
C122	C	1.403360	-0.522083	-0.014805
C123	C	1.736693	-0.188749	0.318529
C124	C	1.240315	-0.338365	-0.369700
C125	C	1.573649	-0.005031	-0.036366
C126	C	1.906982	0.328302	0.296967
C127	C	1.322114	-0.338370	-0.369709
C128	C	1.655447	-0.005037	-0.036376
C129	C	1.988781	0.328297	0.296957
C130	C	1.048409	-0.338312	-0.561629
C131	C	1.381742	-0.004978	-0.228295
C132	C	1.715075	0.328355	0.105038
C133	C	1.048428	-0.338294	-0.643427
C134	C	1.381761	-0.004961	-0.310094
C135	C	1.715095	0.328372	0.023240
C136	C	1.056659	-0.155158	-0.361544
C137	C	1.389993	0.178175	-0.028211
C138	C	1.723326	0.511508	0.305123
C139	C	1.060194	-0.077092	-0.358078
C140	C	1.393528	0.256241	-0.024745
C141	C	1.726861	0.589575	0.308589
C142	C	1.093500	-0.383132	-0.910485
C143	C	1.426833	-0.049799	-0.577152
C144	C	1.760167	0.283534	-0.243818
C145	C	1.093488	-0.383157	-0.833627
C146	C	1.426821	-0.049823	-0.500294
C147	C	1.760154	0.283510	-0.166961
C148	C	1.003417	-0.293321	-0.829611
C149	C	1.336751	0.040012	-0.496278
C150	C	1.670084	0.373345	-0.162945
C151	C	1.003426	-0.293301	-0.906468
C152	C	1.336760	0.040032	-0.573135
C153	C	1.670093	0.373366	-0.239801
C154	C	1.048472	-0.338205	-0.946903
C155	C	1.381805	-0.004872	-0.613569
C156	C	1.715139	0.328461	-0.280236
C157	C	1.048451	-0.338250	-0.793189
C158	C	1.381784	-0.004917	-0.459855
C159	C	1.715117	0.328417	-0.126522
C160	C	1.048437	-0.338276	-0.709856
C161	C	1.381770	-0.004943	-0.376523
C162	C	1.715104	0.328391	-0.043189
C163	C	1.048485	-0.338180	-1.030241
C164	C	1.381818	-0.004847	-0.696907
C165	C	1.715151	0.328486	-0.363574
C166	C	1.048363	-0.338342	-0.178471
C167	C	1.381696	-0.005008	0.154862
C168	C	1.715029	0.328325	0.488196
C169	C	1.048495	-0.338161	-0.096664
C170	C	1.381828	-0.004828	0.236669
C171	C	1.715161	0.328506	0.570002
H172	H	1.121792	-0.605701	-0.296284
H173	H	1.455126	-0.272367	0.037049
H174	H	1.788459	0.060966	0.370383
C175	C	0.953882	-0.243918	-0.785126
C176	C	1.287216	0.089416	-0.451792
C177	C	1.620549	0.422749	-0.118459
N178	N	0.916576	-0.206701	-0.751619
N179	N	1.249909	0.126632	-0.418286
N180	N	1.583243	0.459965	-0.084953
C181	C	0.472256	-0.243912	-0.266815
C182	C	0.805589	0.089421	0.066519
C183	C	1.138922	0.422755	0.399852
N184	N	0.442079	-0.206651	-0.226226
N185	N	0.775413	0.126682	0.107107
N186	N	1.108746	0.460016	0.440441
H187	H	0.475377	-0.419960	-0.458577
H188	H	0.808711	-0.086626	-0.125244
H189	H	1.142044	0.246707	0.208090
C190	C	1.128885	-0.749245	-0.289288
C191	C	1.462219	-0.415911	0.044045
C192	C	1.795552	-0.082578	0.377379
N193	N	1.166554	-0.779620	-0.251683
N194	N	1.499888	-0.446286	0.081651
N195	N	1.833221	-0.112953	0.414984
C196	C	0.953892	-0.243873	-0.946529
C197	C	1.287225	0.089460	-0.613196
C198	C	1.620558	0.422794	-0.279863
N199	N	0.916584	-0.206645	-0.976704
N200	N	1.249917	0.126688	-0.643371
N201	N	1.583250	0.460021	-0.310037
H202	H	0.622104	-0.256748	-0.280799
H203	H	0.955437	0.076585	0.052535
H204	H	1.288770	0.409919	0.385868
H205	H	1.130178	-0.419697	-0.943405
H206	H	1.463512	-0.086364	-0.610072
H207	H	1.796845	0.246970	-0.276738
H208	H	1.151831	-0.937189	-0.266489
H209	H	1.485165	-0.603855	0.066845
H210	H	1.818498	-0.270522	0.400178
H211	H	0.614805	-0.419957	-0.458561
H212	H	0.948138	-0.086624	-0.125228
H213	H	1.281471	0.246709	0.208106
C214	C	0.961139	-1.080779	-0.456999
C215	C	1.294472	-0.747445	-0.123665
C216	C	1.627806	-0.414112	0.209668
N217	N	0.920777	-1.111172	-0.497327
N218	N	1.254110	-0.777838	-0.163994
N219	N	1.587444	-0.444505	0.169340
C220	C	1.158924	-1.080744	-0.259490
C221	C	1.492258	-0.747410	0.073843
C222	C	1.825591	-0.414077	0.407177
N223	N	1.196594	-1.111125	-0.221892
N224	N	1.529928	-0.777792	0.111441
N225	N	1.863261	-0.444459	0.444775
H226	H	0.980962	-0.937225	-0.437121
H227	H	1.314295	-0.603892	-0.103787
H228	H	1.647629	-0.270559	0.229546
C229	C	0.973236	-0.860939	-0.444768
C230	C	1.306570	-0.527605	-0.111435
C231	C	1.639903	-0.194272	0.221899
N232	N	0.932866	-0.891341	-0.485081
N233	N	1.266200	-0.558007	-0.151748
N234	N	1.599533	-0.224674	0.181585
C235	C	1.143039	-0.432565	-0.793571
C236	C	1.476372	-0.099232	-0.460238
C237	C	1.809705	0.234102	-0.126904
N238	N	1.180368	-0.469777	-0.763401
N239	N	1.513701	-0.136443	-0.430068
N240	N	1.847035	0.196890	-0.096734
C241	C	0.937930	-0.595249	-0.479886
C242	C	1.271264	-0.261916	-0.146553
C243	C	1.604597	0.071418	0.186780
N244	N	0.900260	-0.564872	-0.517488
N245	N	1.233593	-0.231539	-0.184155
N246	N	1.566926	0.101795	0.149178
H247	H	0.945027	-0.738805	-0.472888
H248	H	1.278360	-0.405472	-0.139554
H249	H	1.611694	-0.072138	0.193779
H250	H	1.109695	-0.825545	-0.308516
H251	H	1.443029	-0.492212	0.024817
H252	H	1.776362	-0.158879	0.358150
