data_functionalizedCrystal
_audit_creation_method	'MofGen! by Chris Wilmer'
_symmetry_space_group_name_H-M	'P1'
_symmetry_Int_Tables_number	1
_symmetry_cell_setting	triclinic
loop_
_symmetry_equiv_pos_as_xyz
  x,y,z
_cell_length_a	14.519709
_cell_length_b	14.853567
_cell_length_c	13.596369
_cell_angle_alpha	90.002958
_cell_angle_beta	89.998664
_cell_angle_gamma	96.342462
loop_
_atom_site_label
_atom_site_type_symbol
_atom_site_fract_x
_atom_site_fract_y
_atom_site_fract_z
O1	O	0.120399	-1.196414	-0.081726
O2	O	0.134742	-0.933960	-0.081743
O3	O	-0.006670	-1.072146	-0.081725
O4	O	0.261812	-1.058228	-0.081744
O5	O	-0.006663	-1.072129	0.081858
O6	O	0.134750	-0.933943	0.081840
O7	O	0.120407	-1.196397	0.081857
Zn8	Zn	0.127580	-1.065167	0.107821
Zn9	Zn	0.127570	-1.065190	-0.107707
O10	O	0.261820	-1.058211	0.081839
C11	C	0.134096	-0.900363	0.000047
C12	C	0.132149	-0.800278	0.000040
C13	C	-0.041026	-1.071488	0.000067
C14	C	-0.143407	-1.069545	0.000067
N15	N	0.127586	-1.065159	0.254913
C16	C	-0.518299	-1.062390	0.000041
C17	C	-0.413992	-1.064377	0.000049
C18	C	-0.330856	-1.065967	0.000055
C19	C	-0.226543	-1.067955	0.000061
C20	C	0.296175	-1.058869	0.000046
C21	C	0.398556	-1.060812	0.000039
C22	C	0.121053	-1.229994	0.000066
C23	C	0.123001	-1.330079	0.000065
C24	C	0.039914	-0.387709	0.000069
C25	C	0.207916	-0.366493	0.000056
C26	C	0.209747	-0.460527	0.000053
C27	C	0.126660	-0.518157	0.000056
C28	C	0.041743	-0.481752	0.000062
C29	C	0.294663	-0.496939	0.000036
C30	C	0.296498	-0.590979	0.000032
C31	C	0.213410	-0.648610	0.000042
C32	C	0.128489	-0.612200	0.000050
C33	C	0.045403	-0.669830	0.000053
C34	C	-0.039520	-0.633422	0.000068
C35	C	-0.041345	-0.539383	0.000073
C36	C	0.215235	-0.742649	0.000037
C37	C	0.047231	-0.763873	0.000047
N38	N	0.127556	-1.065206	-0.254798
C39	C	0.127588	-1.065163	0.343911
C40	C	0.127582	-1.065172	0.455562
C41	C	0.127572	-1.065184	0.544553
C42	C	0.127566	-1.065194	0.656211
H43	H	-0.020429	-0.810790	0.000053
C44	C	-0.134750	-0.499337	0.000077
H45	H	-0.183974	-0.547125	0.000086
H46	H	-0.138954	-0.463096	-0.056968
H47	H	-0.138953	-0.463091	0.057129
H48	H	-0.107168	-0.680356	0.000063
H49	H	-0.029228	-0.358060	0.000084
H50	H	0.275561	-0.319566	0.000045
C51	C	0.386049	-0.433549	0.000037
H52	H	0.372795	-0.372329	0.000056
H53	H	0.420864	-0.444593	-0.057011
H54	H	0.420863	-0.444604	0.057086
H55	H	0.365646	-0.620614	0.000020
H56	H	0.284378	-0.772288	0.000027
