data_functionalizedCrystal
_audit_creation_method	'MofGen! by Chris Wilmer'
_symmetry_space_group_name_H-M	'P1'
_symmetry_Int_Tables_number	1
_symmetry_cell_setting	triclinic
loop_
_symmetry_equiv_pos_as_xyz
  x,y,z
_cell_length_a	17.077404
_cell_length_b	16.959453
_cell_length_c	17.077396
_cell_angle_alpha	90.029064
_cell_angle_beta	90.019501
_cell_angle_gamma	90.020213
loop_
_atom_site_label
_atom_site_type_symbol
_atom_site_fract_x
_atom_site_fract_y
_atom_site_fract_z
Zn1	Zn	1.200070	-0.314677	0.443840
Zn2	Zn	1.700070	0.185323	0.943840
Zn3	Zn	1.199984	-0.446865	0.312572
Zn4	Zn	1.699984	0.053135	0.812572
Zn5	Zn	1.068802	-0.314705	0.312587
Zn6	Zn	1.568802	0.185295	0.812587
Zn7	Zn	1.068777	-0.446818	0.443796
Zn8	Zn	1.568777	0.053182	0.943796
O9	O	1.134408	-0.380766	0.378199
O10	O	1.634408	0.119234	0.878199
O11	O	1.309906	-0.332220	0.426439
O12	O	1.809906	0.167780	0.926439
O13	O	1.182557	-0.429365	0.202727
O14	O	1.682557	0.070635	0.702727
O15	O	1.086262	-0.204090	0.330023
O16	O	1.586262	0.295910	0.830023
O17	O	1.309843	-0.429338	0.329997
O18	O	1.809843	0.070662	0.829997
O19	O	1.182704	-0.204070	0.426453
O20	O	1.682704	0.295930	0.926453
O21	O	1.086178	-0.332267	0.202738
O22	O	1.586178	0.167733	0.702738
O23	O	0.958952	-0.332222	0.329981
O24	O	1.458952	0.167778	0.829981
O25	O	1.086219	-0.429258	0.553649
O26	O	1.586219	0.070742	1.053649
O27	O	0.958933	-0.429285	0.426379
O28	O	1.458933	0.070715	0.926379
O29	O	1.182680	-0.332174	0.553681
O30	O	1.682680	0.167826	1.053681
O31	O	1.182533	-0.557469	0.329955
O32	O	1.682533	-0.057469	0.829955
O33	O	1.086135	-0.557435	0.426364
O34	O	1.586135	-0.057435	0.926364
C35	C	0.930461	-0.380752	0.378177
C36	C	1.430461	0.119248	0.878177
C37	C	0.843211	-0.380765	0.378186
C38	C	1.343211	0.119235	0.878186
C39	C	0.802231	-0.431381	0.428300
C40	C	1.302231	0.068619	0.928300
C41	C	0.720251	-0.431383	0.428313
C42	C	1.220251	0.068617	0.928313
C43	C	0.679251	-0.380771	0.378207
C44	C	1.179251	0.119229	0.878207
C45	C	0.720236	-0.330149	0.328091
C46	C	1.220236	0.169851	0.828091
C47	C	0.802215	-0.330144	0.328083
C48	C	1.302215	0.169856	0.828083
C49	C	0.549366	-0.330164	0.328110
C50	C	1.049366	0.169836	0.828110
C51	C	0.467382	-0.330170	0.328116
C52	C	0.967382	0.169830	0.828116
C53	C	0.467402	-0.431404	0.428340
C54	C	0.967402	0.068596	0.928340
C55	C	0.549381	-0.431399	0.428332
C56	C	1.049381	0.068601	0.928332
C57	C	0.590360	-0.380777	0.378214
C58	C	1.090360	0.119223	0.878214
C59	C	1.134343	-0.586132	0.378170
C60	C	1.634343	-0.086132	0.878170
C61	C	1.134387	-0.673989	0.378184
C62	C	1.634387	-0.173989	0.878184
C63	C	1.184690	-1.045395	0.428505
C64	C	1.684690	-0.545395	0.928505
C65	C	1.084346	-1.045533	0.328009
C66	C	1.584346	-0.545533	0.828009
C67	C	1.084317	-0.962988	0.327991
C68	C	1.584317	-0.462988	0.827991
C69	C	1.134474	-0.921642	0.378232
C70	C	1.634474	-0.421642	0.878232
C71	C	1.184661	-0.962842	0.428490
C72	C	1.684661	-0.462842	0.928490
C73	C	1.034126	-0.921781	0.277739
C74	C	1.534126	-0.421781	0.777739
C75	C	1.034094	-0.839230	0.277720
C76	C	1.534094	-0.339230	0.777720
C77	C	1.084256	-0.797883	0.327957
C78	C	1.584256	-0.297883	0.827957
C79	C	1.134445	-0.839088	0.378217
C80	C	1.634445	-0.339088	0.878217
C81	C	1.184603	-0.797742	0.428457
C82	C	1.684603	-0.297742	0.928457
C83	C	1.234796	-0.838946	0.478714
C84	C	1.734796	-0.338946	0.978714
C85	C	1.234823	-0.921494	0.478727
C86	C	1.734823	-0.421494	0.978727
C87	C	1.084229	-0.715335	0.327944
C88	C	1.584229	-0.215335	0.827944
C89	C	1.184573	-0.715189	0.428442
C90	C	1.684573	-0.215189	0.928442
C91	C	1.339153	-0.380781	0.378221
C92	C	1.839153	0.119219	0.878221
C93	C	1.426402	-0.380787	0.378230
C94	C	1.926402	0.119213	0.878230
C95	C	1.134456	-0.380708	0.582943
C96	C	1.634456	0.119292	1.082943
C97	C	1.134476	-0.380683	0.670193
C98	C	1.634476	0.119317	1.170193
C99	C	1.134496	-0.174598	0.378245
C100	C	1.634496	0.325402	0.878245
C101	C	1.134533	-0.086741	0.378264
C102	C	1.634533	0.413259	0.878264
C103	C	1.134406	-0.380767	0.174251
C104	C	1.634406	0.119233	0.674251
C105	C	1.134538	-0.380569	0.087002
C106	C	1.634538	0.119431	0.587002
C107	C	1.184705	-0.330127	0.711201
C108	C	1.684705	0.169873	1.211201
C109	C	1.184715	-0.330101	0.793182
C110	C	1.684715	0.169899	1.293182
C111	C	1.134498	-0.380635	0.834152
C112	C	1.634498	0.119365	1.334152
C113	C	1.084264	-0.431193	0.793139
C114	C	1.584264	0.068807	1.293139
C115	C	1.084251	-0.431214	0.711160
C116	C	1.584251	0.068786	1.211160
C117	C	1.084296	-0.431145	0.964009
C118	C	1.584296	0.068855	1.464009
C119	C	1.084309	-0.431125	1.045993
C120	C	1.584309	0.068875	1.545993
C121	C	1.184759	-0.330032	1.046031
C122	C	1.684759	0.169968	1.546031
C123	C	1.184746	-0.330054	0.964052
C124	C	1.684746	0.169946	1.464052
C125	C	1.134512	-0.380613	0.923044
C126	C	1.634512	0.119387	1.423044
H127	H	0.582761	-0.472616	0.469128
H128	H	1.082761	0.027384	0.969128
H129	H	1.225660	-0.288863	1.079424
H130	H	1.725660	0.211137	1.579424
H131	H	1.225599	-0.288979	0.677849
H132	H	1.725599	0.211021	1.177849
H133	H	0.686889	-0.472601	0.469120
H134	H	1.186889	0.027399	0.969120
H135	H	1.275687	-0.955050	0.519644
H136	H	1.775687	-0.455050	1.019644
Br137	Br	1.016150	-0.499699	1.101597
Br138	Br	1.516150	0.000301	1.601597
H139	H	1.043378	-0.472303	0.930622
H140	H	1.543378	0.027697	1.430622
Br141	Br	0.411789	-0.500095	0.496367
Br142	Br	0.911789	-0.000095	0.996367
Br143	Br	1.016108	-0.499770	0.848741
Br144	Br	1.516108	0.000230	1.348741
H145	H	1.043342	-0.472374	0.677772
H146	H	1.543342	0.027626	1.177772
H147	H	0.835607	-0.472598	0.469100
H148	H	1.335607	0.027402	0.969100
Br149	Br	1.016264	-1.101646	0.259843
Br150	Br	1.516264	-0.601646	0.759843
Br151	Br	0.966040	-0.977896	0.209579
Br152	Br	1.466040	-0.477896	0.709579
H153	H	0.434002	-0.288948	0.287325
H154	H	0.934002	0.211052	0.787325
H155	H	0.582729	-0.288936	0.287306
H156	H	1.082729	0.211064	0.787306
H157	H	0.686848	-0.288936	0.287297
H158	H	1.186848	0.211064	0.787297
Br159	Br	0.857831	-0.261442	0.260073
Br160	Br	1.357831	0.238558	0.760073
Br161	Br	1.252655	-0.659083	0.496623
Br162	Br	1.752655	-0.159083	0.996623
Br163	Br	1.302855	-0.782824	0.546904
Br164	Br	1.802855	-0.282824	1.046904
Br165	Br	1.252922	-0.261524	0.848833
Br166	Br	1.752922	0.238476	1.348833
H167	H	1.225559	-1.078947	0.469420
H168	H	1.725559	-0.578947	0.969420
H169	H	0.993224	-0.805688	0.236798
H170	H	1.493224	-0.305688	0.736798
H171	H	1.043359	-0.681790	0.287029
H172	H	1.543359	-0.181790	0.787029
Br173	Br	1.252904	-0.261478	0.908448
Br174	Br	1.752904	0.238522	1.408448
