data_functionalizedCrystal
_audit_creation_method	'MofGen! by Chris Wilmer'
_symmetry_space_group_name_H-M	'P1'
_symmetry_Int_Tables_number	1
_symmetry_cell_setting	triclinic
loop_
_symmetry_equiv_pos_as_xyz
  x,y,z
_cell_length_a	16.109318
_cell_length_b	10.654551
_cell_length_c	14.586319
_cell_angle_alpha	89.999036
_cell_angle_beta	90.000075
_cell_angle_gamma	83.976962
loop_
_atom_site_label
_atom_site_type_symbol
_atom_site_fract_x
_atom_site_fract_y
_atom_site_fract_z
O1	O	1.104083	0.161523	-0.076158
O2	O	0.862142	0.181588	-0.076176
O3	O	0.988674	-0.011259	-0.076167
O4	O	0.977550	0.354369	-0.076167
O5	O	0.988666	-0.011262	0.076314
O6	O	0.862133	0.181585	0.076305
O7	O	1.104074	0.161520	0.076323
Cu8	Cu	0.983103	0.171552	0.090236
Cu9	Cu	0.983113	0.171556	-0.090090
O10	O	0.977541	0.354367	0.076314
C11	C	0.831158	0.180770	0.000062
C12	C	0.738849	0.178322	0.000055
C13	C	0.439733	0.170416	-0.083046
C14	C	0.526468	0.172708	-0.083052
C15	C	0.526477	0.172688	0.083191
C16	C	0.439744	0.170387	0.083196
C17	C	0.396374	0.169257	0.000074
C18	C	0.569842	0.173850	0.000064
C19	C	0.663883	0.176336	0.000059
C20	C	0.302326	0.166770	0.000079
C21	C	0.987853	-0.058047	0.000071
C22	C	0.985409	-0.197457	0.000065
C23	C	0.984267	-0.262952	-0.083051
C24	C	0.981963	-0.393942	-0.083047
C25	C	0.981946	-0.393930	0.083196
C26	C	0.984244	-0.262942	0.083191
C27	C	0.985431	-0.197468	-0.166177
C28	C	0.984290	-0.262963	-0.249300
C29	C	0.981986	-0.393952	-0.249296
C30	C	0.980823	-0.459446	-0.166169
C31	C	1.135058	0.162338	0.000083
C32	C	1.227367	0.164786	0.000084
C33	C	0.978363	0.401155	0.000073
C34	C	0.980807	0.540565	0.000074
N35	N	0.983101	0.171549	0.217068
N36	N	0.983121	0.171549	-0.216922
C37	C	1.039149	0.086185	0.452078
C38	C	1.039151	0.086182	0.548060
C39	C	0.927067	0.256917	0.548061
C40	C	0.927062	0.256913	0.452082
C41	C	0.983107	0.171549	0.404093
C42	C	0.983115	0.171549	0.596054
C43	C	0.983117	0.171547	0.700121
C44	C	0.983104	0.171549	0.300019
H45	H	0.561799	0.173610	0.150866
H46	H	1.084783	0.016674	0.413008
H47	H	1.084784	0.016670	0.587127
O48	O	0.872703	0.340017	0.405505
C49	C	0.886921	0.464343	0.428967
H50	H	0.953486	0.464994	0.455347
H51	H	0.877717	0.527359	0.365844
H52	H	0.841055	0.501209	0.484680
O53	O	0.397744	0.169322	0.164026
C54	C	0.454621	0.170791	0.237390
H55	H	0.513234	0.212171	0.213026
H56	H	0.424634	0.231049	0.295528
H57	H	0.471988	0.070344	0.262942
O58	O	0.987554	-0.070203	-0.166067
C59	C	0.916427	-0.012186	-0.120509
H60	H	0.891131	-0.082916	-0.071976
H61	H	0.934126	0.072245	-0.079647
H62	H	0.866513	0.021028	-0.173064
O63	O	0.872713	0.339796	0.594822
C64	C	0.884722	0.321479	0.689826
H65	H	0.950548	0.274575	0.702931
H66	H	0.876024	0.416582	0.726299
H67	H	0.837304	0.258472	0.717072
O68	O	0.978687	-0.586710	-0.166059
C69	C	1.049798	-0.644750	-0.120485
H70	H	1.075092	-0.574033	-0.071940
H71	H	1.032082	-0.729181	-0.079634
H72	H	1.099721	-0.677968	-0.173028
O73	O	0.985441	-0.199158	-0.329962
C74	C	0.987691	-0.069494	-0.312146
H75	H	1.014289	-0.056806	-0.240717
H76	H	1.028846	-0.027694	-0.365240
H77	H	0.921759	-0.019134	-0.316076
O78	O	0.980765	-0.457416	-0.330094
C79	C	0.909445	-0.411181	-0.380662
H80	H	0.887151	-0.311323	-0.357033
H81	H	0.925699	-0.409908	-0.456699
H82	H	0.857817	-0.474922	-0.369144
H83	H	0.561767	0.173650	-0.150737
H84	H	0.981000	-0.447266	0.150874
O85	O	0.985229	-0.199415	0.163982
C86	C	0.912769	-0.217147	0.214519
H87	H	0.887153	-0.307520	0.190895
H88	H	0.928834	-0.224798	0.290566
H89	H	0.863727	-0.133463	0.202963
O90	O	0.397736	0.169260	-0.163869
C91	C	0.454607	0.170806	-0.237233
H92	H	0.519646	0.132706	-0.212869
H93	H	0.434470	0.109216	-0.295369
H94	H	0.455691	0.271742	-0.262786
