data_functionalizedCrystal
_audit_creation_method	'MofGen! by Chris Wilmer'
_symmetry_space_group_name_H-M	'P1'
_symmetry_Int_Tables_number	1
_symmetry_cell_setting	triclinic
loop_
_symmetry_equiv_pos_as_xyz
  x,y,z
_cell_length_a	10.489716
_cell_length_b	10.489694
_cell_length_c	8.965430
_cell_angle_alpha	90.003199
_cell_angle_beta	89.997042
_cell_angle_gamma	95.475458
loop_
_atom_site_label
_atom_site_type_symbol
_atom_site_fract_x
_atom_site_fract_y
_atom_site_fract_z
O1	O	1.694039	-0.179827	-0.124014
O2	O	1.322836	-0.196753	-0.124018
O3	O	1.516916	-0.002687	-0.124020
O4	O	1.499960	-0.373892	-0.124012
O5	O	1.516904	-0.002673	0.124059
O6	O	1.322825	-0.196738	0.124061
O7	O	1.694027	-0.179812	0.124065
Cu8	Cu	1.508425	-0.188274	0.146715
Cu9	Cu	1.508439	-0.188291	-0.146667
O10	O	1.499948	-0.373877	0.124067
C11	C	1.275299	-0.195474	0.000021
C12	C	1.133668	-0.191669	0.000018
C13	C	1.035974	-0.310676	0.000018
C14	C	0.958633	-0.247783	0.122339
C15	C	0.958651	-0.247769	-0.122248
C16	C	1.058193	-0.128826	0.122441
C17	C	1.058216	-0.128829	-0.122256
C18	C	0.980924	-0.065849	0.000095
C19	C	1.515642	0.044853	0.000015
C20	C	1.511848	0.186485	0.000002
C21	C	1.741565	-0.181091	0.000023
C22	C	1.883195	-0.184896	0.000016
C23	C	1.630862	0.284170	0.000018
C24	C	1.567989	0.361518	-0.122295
C25	C	1.567949	0.361497	0.122292
C26	C	1.449025	0.261968	-0.122411
C27	C	1.449003	0.261941	0.122285
C28	C	1.386042	0.339241	-0.000057
C29	C	1.501242	0.578585	0.000030
C30	C	1.505096	0.436960	0.000037
N31	N	1.508449	-0.188294	-0.353017
C32	C	1.598387	-0.098700	-0.450274
C33	C	1.623886	-0.214265	-0.549741
C34	C	1.482981	-0.072705	-0.549677
C35	C	1.534006	-0.303919	-0.450295
C36	C	1.393051	-0.162283	-0.450222
C37	C	1.418502	-0.277931	-0.549644
N38	N	1.508424	-0.188260	0.353064
H39	H	0.915164	-0.298037	-0.225646
H40	H	1.618210	0.404981	0.225695
Cl41	Cl	1.449728	0.078193	-0.617067
Cl42	Cl	1.371522	0.194719	0.281947
H43	H	1.674505	-0.023034	-0.406645
H44	H	1.060626	-0.414194	0.000134
H45	H	1.295503	-0.140251	-0.406475
Cl46	Cl	1.645561	0.428675	-0.281945
Cl47	Cl	1.567433	-0.454853	-0.383186
Cl48	Cl	1.371512	0.195102	-0.282246
Cl49	Cl	1.774532	-0.248205	-0.617273
H50	H	0.915137	-0.298014	0.225753
H51	H	1.734375	0.259502	-0.000105
Cl52	Cl	1.125066	-0.051300	0.282265
Cl53	Cl	1.301055	-0.395011	-0.616596
Cl54	Cl	1.226109	0.376953	-0.000154
H55	H	0.956511	0.037745	0.000164
H56	H	1.101725	-0.078636	-0.225675
