data_functionalizedCrystal
_audit_creation_method	'MofGen! by Chris Wilmer'
_symmetry_space_group_name_H-M	'P1'
_symmetry_Int_Tables_number	1
_symmetry_cell_setting	triclinic
loop_
_symmetry_equiv_pos_as_xyz
  x,y,z
_cell_length_a	19.805407
_cell_length_b	10.686285
_cell_length_c	19.805399
_cell_angle_alpha	85.609337
_cell_angle_beta	89.983114
_cell_angle_gamma	85.631507
loop_
_atom_site_label
_atom_site_type_symbol
_atom_site_fract_x
_atom_site_fract_y
_atom_site_fract_z
Zn1	Zn	1.055482	-0.502358	-0.362111
Zn2	Zn	1.555482	-0.002358	0.137889
Zn3	Zn	1.064125	-0.713374	-0.240266
Zn4	Zn	1.564125	-0.213374	0.259734
Zn5	Zn	0.942304	-0.502398	-0.248934
Zn6	Zn	1.442304	-0.002398	0.251066
Zn7	Zn	0.950980	-0.713302	-0.353416
Zn8	Zn	1.450980	-0.213302	0.146584
O9	O	1.003223	-0.607858	-0.301182
O10	O	1.503223	-0.107858	0.198818
O11	O	1.151346	-0.530363	-0.345960
O12	O	1.651346	-0.030363	0.154040
O13	O	1.047951	-0.685435	-0.146697
O14	O	1.547951	-0.185435	0.353303
O15	O	0.950070	-0.325817	-0.271214
O16	O	1.450070	0.174183	0.228786
O17	O	1.157695	-0.685396	-0.256441
O18	O	1.657695	-0.185396	0.243559
O19	O	1.033221	-0.325788	-0.354364
O20	O	1.533221	0.174212	0.145636
O21	O	0.958450	-0.530431	-0.153066
O22	O	1.458450	-0.030431	0.346934
O23	O	0.848738	-0.530361	-0.262782
O24	O	1.348738	-0.030361	0.237218
O25	O	0.964856	-0.685273	-0.449288
O26	O	1.464856	-0.185273	0.050712
O27	O	0.855112	-0.685311	-0.339545
O28	O	1.355112	-0.185311	0.160455
O29	O	1.041634	-0.530293	-0.455676
O30	O	1.541634	-0.030293	0.044324
O31	O	1.056363	-0.889940	-0.248009
O32	O	1.556363	-0.389940	0.251991
O33	O	0.973236	-0.889887	-0.331140
O34	O	1.473236	-0.389887	0.168860
C35	C	0.827366	-0.607834	-0.301161
C36	C	1.327366	-0.107834	0.198839
C37	C	0.752134	-0.607854	-0.301167
C38	C	1.252134	-0.107854	0.198833
C39	C	0.720132	-0.688658	-0.341062
C40	C	1.220132	-0.188658	0.158938
C41	C	0.649444	-0.688660	-0.341071
C42	C	1.149444	-0.188660	0.158929
C43	C	0.610759	-0.607864	-0.301182
C44	C	1.110759	-0.107864	0.198818
C45	C	0.642766	-0.527051	-0.261285
C46	C	1.142766	-0.027051	0.238715
C47	C	0.713453	-0.527043	-0.261280
C48	C	1.213453	-0.027043	0.238720
C49	C	0.357694	-0.527078	-0.261306
C50	C	0.857694	-0.027078	0.238694
C51	C	0.287003	-0.527095	-0.261313
C52	C	0.787003	-0.027095	0.238687
C53	C	0.293685	-0.688696	-0.341098
C54	C	0.793685	-0.188696	0.158902
C55	C	0.364371	-0.688688	-0.341093
C56	C	0.864371	-0.188688	0.158907
C57	C	0.396372	-0.607871	-0.301199
C58	C	0.896372	-0.107871	0.198801
C59	C	0.473020	-0.607868	-0.301190
C60	C	0.973020	-0.107868	0.198810
C61	C	0.534112	-0.607872	-0.301186
C62	C	1.034112	-0.107872	0.198814
C63	C	1.016697	-0.935697	-0.287705
C64	C	1.516697	-0.435697	0.212295
C65	C	1.022524	-1.075948	-0.281963
C66	C	1.522524	-0.575948	0.218037
C67	C	1.179766	-0.607883	-0.301203
C68	C	1.679766	-0.107883	0.198797
C69	C	1.254999	-0.607894	-0.301212
C70	C	1.754999	-0.107894	0.198788
C71	C	1.003249	-0.607770	-0.477728
C72	C	1.503249	-0.107770	0.022272
C73	C	1.003260	-0.607733	-0.552962
C74	C	1.503260	-0.107733	-0.052962
C75	C	0.989714	-0.278738	-0.314726
C76	C	1.489714	0.221262	0.185274
C77	C	0.983957	-0.138487	-0.320498
C78	C	1.483957	0.361513	0.179502
C79	C	0.956669	-0.527015	-0.591622
C80	C	1.456669	-0.027015	-0.091622
C81	C	0.956677	-0.526991	-0.662311
C82	C	1.456677	-0.026991	-0.162311
C83	C	1.003280	-0.607678	-0.694340
C84	C	1.503280	-0.107678	-0.194340
C85	C	1.049874	-0.688405	-0.655674
C86	C	1.549874	-0.188405	-0.155674
C87	C	1.049862	-0.688435	-0.584986
C88	C	1.549862	-0.188435	-0.084986
C89	C	1.049922	-0.688287	-0.940753
C90	C	1.549922	-0.188287	-0.440753
C91	C	1.049932	-0.688248	-1.011446
C92	C	1.549932	-0.188248	-0.511446
C93	C	0.956738	-0.526843	-1.018078
C94	C	1.456738	-0.026843	-0.518078
C95	C	0.956726	-0.526873	-0.947389
C96	C	1.456726	-0.026873	-0.447389
C97	C	1.003316	-0.607603	-0.908730
C98	C	1.503316	-0.107603	-0.408730
C99	C	1.003306	-0.607631	-0.832081
C100	C	1.503306	-0.107631	-0.332081
C101	C	1.003294	-0.607646	-0.770988
C102	C	1.503294	-0.107646	-0.270988
C103	C	1.003232	-0.607854	-0.125326
C104	C	1.503232	-0.107854	0.374674
C105	C	1.003337	-0.607536	-0.050107
C106	C	1.503337	-0.107536	0.449893
H107	H	0.623391	-0.754460	-0.373557
H108	H	1.123391	-0.254460	0.126443
O109	O	0.934310	-1.067289	-0.370016
O110	O	1.434310	-0.567289	0.129984
H111	H	0.906970	-1.135156	-0.397333
H112	H	1.406970	-0.635156	0.102667
H113	H	0.395865	-0.754485	-0.373573
H114	H	0.895865	-0.254485	0.126427
H115	H	0.918722	-0.461302	-0.565550
H116	H	1.418722	0.038698	-0.065550
H117	H	1.087853	-0.754037	-0.909284
H118	H	1.587853	-0.254037	-0.409284
H119	H	0.918735	-0.461267	-0.693785
H120	H	1.418735	0.038733	-0.193785
H121	H	1.059997	-1.129708	-0.244570
H122	H	1.559997	-0.629708	0.255430
O123	O	0.906490	-0.439758	-1.059779
O124	O	1.406490	0.060242	-0.559779
H125	H	0.874367	-0.496196	-1.089657
H126	H	1.374367	0.003804	-0.589657
O127	O	0.906467	-0.439836	-0.912843
O128	O	1.406467	0.060164	-0.412843
H129	H	0.874067	-0.383706	-0.951602
H130	H	1.374067	0.116294	-0.451602
O131	O	0.601049	-0.439934	-0.218240
O132	O	1.101049	0.060066	0.281760
H133	H	0.546520	-0.453533	-0.224933
H134	H	1.046520	0.046467	0.275067
O135	O	1.100188	-0.775302	-1.045995
O136	O	1.600188	-0.275302	-0.545995
H137	H	1.132577	-0.831459	-1.007237
H138	H	1.632577	-0.331459	-0.507237
H139	H	1.087806	-0.754155	-0.553510
H140	H	1.587806	-0.254155	-0.053510
O141	O	0.761855	-0.775798	-0.384089
O142	O	1.261855	-0.275798	0.115911
H143	H	0.727723	-0.831975	-0.411838
H144	H	1.227723	-0.331975	0.088162
O145	O	0.259171	-0.775853	-0.384138
O146	O	0.759171	-0.275853	0.115862
H147	H	0.203518	-0.762279	-0.377449
H148	H	0.703518	-0.262279	0.122551
O149	O	1.100142	-0.775435	-0.690214
O150	O	1.600142	-0.275435	-0.190214
H151	H	1.092329	-0.761845	-0.745864
H152	H	1.592329	-0.261845	-0.245864
H153	H	0.383741	-0.461282	-0.228817
H154	H	0.883741	0.038718	0.271183
O155	O	0.245269	-0.439950	-0.218290
O156	O	0.745269	0.060050	0.281710
H157	H	0.254755	-0.340940	-0.234061
H158	H	0.754755	0.159060	0.265939
O159	O	0.747976	-0.439906	-0.218242
O160	O	1.247976	0.060094	0.281758
H161	H	0.709203	-0.383735	-0.190497
H162	H	1.209203	0.116265	0.309503
