data_functionalizedCrystal
_audit_creation_method	'MofGen! by Chris Wilmer'
_symmetry_space_group_name_H-M	'P1'
_symmetry_Int_Tables_number	1
_symmetry_cell_setting	triclinic
loop_
_symmetry_equiv_pos_as_xyz
  x,y,z
_cell_length_a	12.759395
_cell_length_b	13.033615
_cell_length_c	13.032268
_cell_angle_alpha	89.080892
_cell_angle_beta	97.164484
_cell_angle_gamma	97.186608
loop_
_atom_site_label
_atom_site_type_symbol
_atom_site_fract_x
_atom_site_fract_y
_atom_site_fract_z
Zn1	Zn	1.476977	-0.483212	-0.529475
Zn2	Zn	1.976977	0.016788	-0.029475
Zn3	Zn	1.482478	-0.633379	-0.335677
Zn4	Zn	1.982478	-0.133379	0.164323
Zn5	Zn	1.326027	-0.461425	-0.357521
Zn6	Zn	1.826027	0.038575	0.142479
Zn7	Zn	1.282132	-0.655146	-0.507609
Zn8	Zn	1.782132	-0.155146	-0.007609
O9	O	1.391904	-0.558291	-0.432571
O10	O	1.891904	-0.058291	0.067429
O11	O	1.624726	-0.503141	-0.503776
O12	O	2.124726	-0.003141	-0.003776
O13	O	1.482397	-0.592341	-0.194657
O14	O	1.982397	-0.092341	0.305343
O15	O	1.362119	-0.320398	-0.398624
O16	O	1.862119	0.179602	0.101376
O17	O	1.628767	-0.613467	-0.361394
O18	O	2.128767	-0.113467	0.138606
O19	O	1.473022	-0.336405	-0.524958
O20	O	1.973022	0.163595	-0.024958
O21	O	1.367453	-0.466008	-0.210706
O22	O	1.867453	0.033992	0.289294
O23	O	1.173185	-0.487114	-0.377422
O24	O	1.673185	0.012886	0.122578
O25	O	1.287306	-0.650566	-0.654428
O26	O	1.787306	-0.150566	-0.154428
O27	O	1.140936	-0.629440	-0.487691
O28	O	1.640936	-0.129440	0.012309
O29	O	1.430458	-0.524247	-0.670492
O30	O	1.930458	-0.024247	-0.170492
O31	O	1.439833	-0.780184	-0.340192
O32	O	1.939833	-0.280184	0.159808
O33	O	1.292640	-0.796176	-0.466510
O34	O	1.792640	-0.296176	0.033490
C35	C	1.118940	-0.558276	-0.432555
C36	C	1.618940	-0.058276	0.067445
C37	C	1.002159	-0.558297	-0.432569
C38	C	1.502159	-0.058297	0.067431
C39	C	1.362096	-0.825499	-0.398630
C40	C	1.862096	-0.325499	0.101370
C41	C	1.349435	-0.939817	-0.384144
C42	C	1.849435	-0.439817	0.115856
C43	C	1.353372	-0.592265	-0.700819
C44	C	1.853372	-0.092265	-0.200819
C45	C	1.336952	-0.606743	-0.815131
C46	C	1.836952	-0.106743	-0.315131
C47	C	0.968623	-0.706687	-0.547152
C48	C	1.468623	-0.206687	-0.047152
C49	C	0.896993	-0.780890	-0.604446
C50	C	1.396993	-0.280890	-0.104446
C51	C	0.787268	-0.780904	-0.604457
C52	C	1.287268	-0.280904	-0.104457
C53	C	0.749172	-0.706705	-0.547171
C54	C	1.249172	-0.206705	-0.047171
C55	C	0.820802	-0.632502	-0.489877
C56	C	1.320802	-0.132502	0.010123
C57	C	0.930528	-0.632498	-0.489870
C58	C	1.430528	-0.132498	0.010130
C59	C	0.854338	-0.484110	-0.375301
C60	C	1.354338	0.015890	0.124699
C61	C	0.964063	-0.484098	-0.375282
C62	C	1.464063	0.015902	0.124718
C63	C	0.816243	-0.409911	-0.318014
C64	C	1.316243	0.090089	0.181986
C65	C	0.887873	-0.335711	-0.260713
C66	C	1.387873	0.164289	0.239287
C67	C	0.997604	-0.335700	-0.260704
C68	C	1.497604	0.164300	0.239296
C69	C	1.035694	-0.409895	-0.317989
C70	C	1.535694	0.090105	0.182011
C71	C	1.665933	-0.558306	-0.432587
C72	C	2.165933	-0.058306	0.067413
C73	C	1.782708	-0.558313	-0.432594
C74	C	2.282708	-0.058313	0.067406
C75	C	1.421853	-0.290041	-0.466666
C76	C	1.921853	0.209959	0.033334
C77	C	1.434616	-0.175730	-0.481196
C78	C	1.934616	0.324270	0.018804
C79	C	1.385434	-0.116846	-0.425166
C80	C	1.885434	0.383154	0.074834
C81	C	1.398624	0.001302	-0.440182
C82	C	1.898624	0.501302	0.059818
C83	C	1.400461	-0.550698	-0.874043
C84	C	1.900461	-0.050698	-0.374043
C85	C	1.383492	-0.565660	-0.992190
C86	C	1.883492	-0.065660	-0.492190
C87	C	1.430354	-0.524374	-0.165375
C88	C	1.930354	-0.024374	0.334625
C89	C	1.447009	-0.509607	-0.051101
C90	C	1.947009	-0.009607	0.448899
H91	H	1.057965	-0.706689	-0.547141
H92	H	1.557965	-0.206689	-0.047141
H93	H	1.486484	-0.138676	-0.540286
H94	H	1.986484	0.361324	-0.040286
H95	H	0.728945	-0.841322	-0.651117
H96	H	1.228945	-0.341322	-0.151117
Br97	Br	1.271912	-0.664096	-1.053896
Br98	Br	1.771912	-0.164096	-0.553896
H99	H	1.450495	0.038351	-0.499276
H100	H	1.950495	0.538351	0.000724
Br101	Br	1.512000	-0.452226	-0.812338
Br102	Br	2.012000	0.047774	-0.312338
H103	H	1.513944	-0.450537	-1.014076
H104	H	2.013944	0.049463	-0.514076
Br105	Br	1.225378	-0.705175	-0.876841
Br106	Br	1.725378	-0.205175	-0.376841
H107	H	0.659827	-0.706715	-0.547195
H108	H	1.159827	-0.206715	-0.047195
Br109	Br	0.948698	-0.881588	-0.682182
Br110	Br	1.448698	-0.381588	-0.182182
H111	H	0.726897	-0.409924	-0.318032
H112	H	1.226897	0.090076	0.181968
H113	H	0.856846	-0.275300	-0.214081
H114	H	1.356846	0.224700	0.285919
H115	H	1.055921	-0.275268	-0.214056
H116	H	1.555921	0.224732	0.285944
Br117	Br	1.262967	-0.001559	-0.285658
Br118	Br	1.762967	0.498441	0.214342
H119	H	1.125035	-0.409897	-0.317983
H120	H	1.625035	0.090103	0.182017
Br121	Br	1.298957	-0.178598	-0.326697
Br122	Br	1.798957	0.321402	0.173303
