data_functionalizedCrystal
_audit_creation_method	'MofGen! by Chris Wilmer'
_symmetry_space_group_name_H-M	'P1'
_symmetry_Int_Tables_number	1
_symmetry_cell_setting	triclinic
loop_
_symmetry_equiv_pos_as_xyz
  x,y,z
_cell_length_a	18.215407
_cell_length_b	16.120484
_cell_length_c	18.215399
_cell_angle_alpha	92.869789
_cell_angle_beta	89.982632
_cell_angle_gamma	92.922890
loop_
_atom_site_label
_atom_site_type_symbol
_atom_site_fract_x
_atom_site_fract_y
_atom_site_fract_z
Zn1	Zn	1.110210	-0.331972	-0.430915
Zn2	Zn	1.443543	0.001361	-0.097582
Zn3	Zn	1.776876	0.334694	0.235752
Zn4	Zn	1.103876	-0.471394	-0.314084
Zn5	Zn	1.437209	-0.138060	0.019249
Zn6	Zn	1.770543	0.195273	0.352582
Zn7	Zn	0.987141	-0.331992	-0.307869
Zn8	Zn	1.320475	0.001341	0.025465
Zn9	Zn	1.653808	0.334674	0.358798
Zn10	Zn	0.980869	-0.471340	-0.437112
Zn11	Zn	1.314202	-0.138007	-0.103779
Zn12	Zn	1.647535	0.195327	0.229554
O13	O	1.045524	-0.401675	-0.372495
O14	O	1.378857	-0.068341	-0.039162
O15	O	1.712191	0.264992	0.294172
O16	O	1.212353	-0.350481	-0.415425
O17	O	1.545686	-0.017148	-0.082092
O18	O	1.879020	0.316186	0.251242
O19	O	1.088366	-0.452933	-0.210277
O20	O	1.421699	-0.119599	0.123056
O21	O	1.755032	0.213734	0.456390
O22	O	1.008742	-0.215324	-0.318996
O23	O	1.342076	0.118009	0.014337
O24	O	1.675409	0.451343	0.347671
O25	O	1.207700	-0.452913	-0.329590
O26	O	1.541033	-0.119580	0.003743
O27	O	1.874367	0.213753	0.337077
O28	O	1.099160	-0.215309	-0.409398
O29	O	1.432493	0.118024	-0.076064
O30	O	1.765827	0.451357	0.257269
O31	O	1.002601	-0.350515	-0.205710
O32	O	1.335934	-0.017182	0.127623
O33	O	1.669268	0.316152	0.460956
O34	O	0.883326	-0.350463	-0.325005
O35	O	1.216659	-0.017130	0.008328
O36	O	1.549992	0.316204	0.341661
O37	O	0.998051	-0.452822	-0.539273
O38	O	1.331385	-0.119488	-0.205940
O39	O	1.664718	0.213845	0.127394
O40	O	0.878717	-0.452841	-0.419960
O41	O	1.212050	-0.119508	-0.086627
O42	O	1.545384	0.213826	0.246707
O43	O	1.093078	-0.350429	-0.534720
O44	O	1.426411	-0.017096	-0.201387
O45	O	1.759744	0.316238	0.131947
O46	O	1.082283	-0.588052	-0.335599
O47	O	1.415616	-0.254719	-0.002266
O48	O	1.748950	0.078615	0.331067
O49	O	0.991910	-0.588013	-0.425987
O50	O	1.325243	-0.254679	-0.092654
O51	O	1.658577	0.078654	0.240679
C52	C	0.854319	-0.401649	-0.372481
C53	C	1.187652	-0.068316	-0.039148
C54	C	1.520985	0.265018	0.294186
C55	C	0.772519	-0.401658	-0.372493
C56	C	1.105853	-0.068325	-0.039160
C57	C	1.439186	0.265009	0.294173
C58	C	0.586742	-0.348431	-0.417267
C59	C	0.920076	-0.015098	-0.083934
C60	C	1.253409	0.318235	0.249400
C61	C	0.509883	-0.348439	-0.417270
C62	C	0.843217	-0.015105	-0.083936
C63	C	1.176550	0.318228	0.249397
C64	C	0.505056	-0.454941	-0.327737
C65	C	0.838390	-0.121608	0.005596
C66	C	1.171723	0.211726	0.338930
C67	C	0.581914	-0.454929	-0.327731
C68	C	0.915247	-0.121596	0.005602
C69	C	1.248581	0.211738	0.338936
C70	C	0.622755	-0.401676	-0.372500
C71	C	0.956088	-0.068342	-0.039167
C72	C	1.289422	0.264991	0.294167
C73	C	0.469038	-0.401695	-0.372509
C74	C	0.802372	-0.068361	-0.039176
C75	C	1.135705	0.264972	0.294158
C76	C	0.385704	-0.401703	-0.372512
C77	C	0.719038	-0.068369	-0.039178
C78	C	1.052371	0.264964	0.294155
C79	C	0.706095	-0.401666	-0.372497
C80	C	1.039428	-0.068333	-0.039163
C81	C	1.372761	0.265001	0.294170
C82	C	1.035749	-0.618282	-0.382156
C83	C	1.369082	-0.284949	-0.048823
C84	C	1.702415	0.048384	0.284510
C85	C	1.031634	-0.710948	-0.386314
C86	C	1.364967	-0.377615	-0.052981
C87	C	1.698301	-0.044282	0.280353
C88	C	1.024126	-0.880610	-0.393920
C89	C	1.357460	-0.547276	-0.060586
C90	C	1.690793	-0.213943	0.272747
C91	C	1.067053	-0.921899	-0.351082
C92	C	1.400387	-0.588566	-0.017749
C93	C	1.733720	-0.255232	0.315584
C94	C	1.062876	-1.016304	-0.355314
C95	C	1.396209	-0.682971	-0.021981
C96	C	1.729543	-0.349638	0.311352
C97	C	1.028303	-0.786196	-0.389689
C98	C	1.361636	-0.452862	-0.056355
C99	C	1.694969	-0.119529	0.276978
C100	C	1.237476	-0.401701	-0.372510
C101	C	1.570809	-0.068368	-0.039176
C102	C	1.904142	0.264966	0.294157
C103	C	1.319274	-0.401712	-0.372516
C104	C	1.652607	-0.068379	-0.039182
C105	C	1.985941	0.264955	0.294151
C106	C	1.045571	-0.401617	-0.564445
C107	C	1.378905	-0.068284	-0.231112
C108	C	1.712238	0.265050	0.102221
C109	C	1.045591	-0.401593	-0.646243
C110	C	1.378925	-0.068259	-0.312910
C111	C	1.712258	0.265074	0.020423
C112	C	1.055357	-0.184221	-0.362812
C113	C	1.388691	0.149112	-0.029479
C114	C	1.722024	0.482446	0.303854
C115	C	1.059548	-0.091555	-0.358686
C116	C	1.392881	0.241778	-0.025353
C117	C	1.726214	0.575112	0.307981
C118	C	1.095091	-0.348227	-0.832066
C119	C	1.428424	-0.014894	-0.498732
C120	C	1.761757	0.318440	-0.165399
C121	C	1.095101	-0.348203	-0.908923
C122	C	1.428434	-0.014869	-0.575590
C123	C	1.761767	0.318464	-0.242257
C124	C	0.996150	-0.454829	-0.913653
C125	C	1.329483	-0.121496	-0.580320
C126	C	1.662817	0.211837	-0.246987
C127	C	0.996137	-0.454849	-0.836797
C128	C	1.329470	-0.121516	-0.503463
C129	C	1.662804	0.211818	-0.170130
C130	C	1.045612	-0.401549	-0.796005
C131	C	1.378945	-0.068216	-0.462672
C132	C	1.712278	0.265118	-0.129338
C133	C	1.045634	-0.401505	-0.949719
C134	C	1.378968	-0.068172	-0.616386
C135	C	1.712301	0.265162	-0.283052
C136	C	1.045645	-0.401479	-1.033052
C137	C	1.378978	-0.068146	-0.699718
C138	C	1.712311	0.265188	-0.366385
C139	C	1.045601	-0.401573	-0.712667
C140	C	1.378934	-0.068240	-0.379334
C141	C	1.712267	0.265093	-0.046000
C142	C	1.045522	-0.401672	-0.181289
C143	C	1.378855	-0.068338	0.152045
C144	C	1.712188	0.264995	0.485378
C145	C	1.045655	-0.401461	-0.099481
C146	C	1.378988	-0.068128	0.233853
C147	C	1.712321	0.265205	0.567186
H148	H	0.480566	-0.305081	-0.453722
H149	H	0.813899	0.028253	-0.120389
H150	H	1.147232	0.361586	0.212945
H151	H	0.984241	-0.916159	-0.433769
H152	H	1.317574	-0.582826	-0.100435
H153	H	1.650907	-0.249493	0.232898
H154	H	0.619993	-0.305066	-0.453718
H155	H	0.953327	0.028267	-0.120385
H156	H	1.286660	0.361600	0.212948
Cl157	Cl	0.453708	-0.521888	-0.271462
Cl158	Cl	0.787041	-0.188554	0.061871
Cl159	Cl	1.120375	0.144779	0.395205
H160	H	0.955871	-0.498226	-0.946875
H161	H	1.289204	-0.164893	-0.613542
H162	H	1.622538	0.168440	-0.280209
H163	H	1.106941	-0.886347	-0.311229
H164	H	1.440274	-0.553013	0.022104
H165	H	1.773608	-0.219680	0.355437
H166	H	0.611236	-0.498288	-0.291273
H167	H	0.944569	-0.164954	0.042061
H168	H	1.277903	0.168379	0.375394
Cl169	Cl	1.157312	-0.281173	-0.954254
Cl170	Cl	1.490645	0.052160	-0.620920
Cl171	Cl	1.823979	0.385493	-0.287587
H172	H	0.955840	-0.498269	-0.807436
H173	H	1.289173	-0.164936	-0.474102
H174	H	1.622507	0.168397	-0.140769
H175	H	1.135374	-0.304824	-0.798855
H176	H	1.468708	0.028509	-0.465522
H177	H	1.802041	0.361842	-0.132188
