data_functionalizedCrystal
_audit_creation_method	'MofGen! by Chris Wilmer'
_symmetry_space_group_name_H-M	'P1'
_symmetry_Int_Tables_number	1
_symmetry_cell_setting	triclinic
loop_
_symmetry_equiv_pos_as_xyz
  x,y,z
_cell_length_a	11.792241
_cell_length_b	10.967829
_cell_length_c	10.066280
_cell_angle_alpha	68.268365
_cell_angle_beta	80.225640
_cell_angle_gamma	84.458071
loop_
_atom_site_label
_atom_site_type_symbol
_atom_site_fract_x
_atom_site_fract_y
_atom_site_fract_z
O1	O	0.196916	1.698165	-0.285915
O2	O	0.200485	1.322166	-0.197479
O3	O	0.033834	1.519291	-0.243853
O4	O	0.363567	1.501040	-0.239541
O5	O	0.064840	1.553308	-0.478826
O6	O	0.231491	1.356183	-0.432452
O7	O	0.227922	1.732181	-0.520888
Zn8	Zn	0.234630	1.549583	-0.513977
Zn9	Zn	0.193778	1.504765	-0.204390
O10	O	0.394574	1.535056	-0.474514
C11	C	0.007008	1.535153	-0.361070
C12	C	-0.119120	1.531722	-0.360261
C13	C	0.213386	1.291038	-0.303644
C14	C	0.205617	1.147608	-0.269909
N15	N	0.262510	1.580180	-0.725264
C16	C	-0.350044	1.525410	-0.358754
C17	C	-0.221541	1.528917	-0.359591
C18	C	0.421399	1.519194	-0.357295
C19	C	0.547525	1.522624	-0.358094
C20	C	0.215022	1.763309	-0.414720
C21	C	0.222789	1.906738	-0.448446
C22	C	0.210190	1.953055	-0.341758
C23	C	0.218218	2.101296	-0.376612
C24	C	0.224928	1.538964	-0.940533
C25	C	0.203462	1.515384	-0.777831
N26	N	0.165889	1.474178	0.006895
H27	H	0.193453	1.882963	-0.224614
C28	C	0.365105	1.692808	-0.962645
C29	C	0.314619	1.637413	-1.042365
H30	H	0.420482	1.753582	-1.025511
H31	H	0.307328	1.737027	-0.917312
H32	H	0.401762	1.625381	-0.891061
H33	H	0.277955	1.704839	-1.113942
H34	H	0.372406	1.593193	-1.087721
H35	H	0.188887	2.077520	-0.152756
C36	C	0.255482	1.930178	-0.698578
C37	C	0.245370	2.001348	-0.606593
H38	H	0.269415	1.988588	-0.796212
H39	H	0.317722	1.867467	-0.678756
H40	H	0.186156	1.886229	-0.683161
H41	H	0.314700	2.045290	-0.622002
H42	H	0.183125	2.064083	-0.626423
C43	C	0.106974	1.250819	-0.896359
C44	C	0.076201	1.375725	-0.891274
H45	H	0.051606	1.190037	-0.833488
H46	H	0.109627	1.253762	-0.992330
H47	H	0.180555	1.223941	-0.866683
H48	H	0.002624	1.402608	-0.920960
H49	H	0.073536	1.372785	-0.795282
H50	H	0.328959	1.653099	-0.800700
C51	C	0.244388	2.324444	-0.538683
C52	C	0.240806	2.195904	-0.534766
H53	H	0.258339	2.382847	-0.636319
H54	H	0.172854	2.348221	-0.493422
H55	H	0.304416	2.329439	-0.488983
H56	H	0.180772	2.190906	-0.584457
H57	H	0.312348	2.172120	-0.580048
C58	C	0.005319	1.456585	-0.719759
C59	C	0.113769	1.416929	-0.676000
H60	H	-0.050047	1.395797	-0.656895
H61	H	-0.015535	1.541317	-0.716315
H62	H	0.007989	1.459512	-0.815740
H63	H	0.111102	1.414011	-0.580023
H64	H	0.134629	1.332173	-0.679430
