data_functionalizedCrystal
_audit_creation_method	'MofGen! by Chris Wilmer'
_symmetry_space_group_name_H-M	'P1'
_symmetry_Int_Tables_number	1
_symmetry_cell_setting	triclinic
loop_
_symmetry_equiv_pos_as_xyz
  x,y,z
_cell_length_a	12.827892
_cell_length_b	12.759401
_cell_length_c	12.759393
_cell_angle_alpha	90.022497
_cell_angle_beta	89.970028
_cell_angle_gamma	89.983977
loop_
_atom_site_label
_atom_site_type_symbol
_atom_site_fract_x
_atom_site_fract_y
_atom_site_fract_z
Zn1	Zn	-0.415960	-1.606263	-0.594068
Zn2	Zn	-0.590737	-1.606152	-0.418389
Zn3	Zn	-0.416013	-1.430561	-0.418398
Zn4	Zn	-0.590662	-1.430552	-0.594022
O5	O	-0.503343	-1.518382	-0.506219
O6	O	-0.439153	-1.753269	-0.570779
O7	O	-0.567613	-1.582818	-0.271369
O8	O	-0.269770	-1.453919	-0.441724
O9	O	-0.567561	-1.753188	-0.441709
O10	O	-0.269731	-1.583006	-0.570787
O11	O	-0.439244	-1.453812	-0.271376
O12	O	-0.439171	-1.283539	-0.441679
O13	O	-0.567433	-1.453902	-0.741049
O14	O	-0.567485	-1.283532	-0.570709
O15	O	-0.439080	-1.582996	-0.741083
O16	O	-0.736963	-1.582808	-0.441665
O17	O	-0.736908	-1.453795	-0.570701
C18	C	-0.503327	-1.245415	-0.506191
C19	C	-0.503345	-1.128638	-0.506204
C20	C	-0.570259	-1.073800	-0.573282
C21	C	-0.570262	-0.964076	-0.573300
C22	C	-0.436433	-0.964038	-0.439152
C23	C	-0.436426	-1.073760	-0.439140
C24	C	-0.774853	-1.518317	-0.506200
C25	C	-0.891006	-1.518386	-0.506227
C26	C	-0.942798	-1.454531	-0.570031
C27	C	-1.062848	-1.454600	-0.570060
C28	C	-0.230773	-1.518476	-0.506262
C29	C	-0.114619	-1.518516	-0.506280
C30	C	-0.503242	-1.518461	-0.780253
C31	C	-0.503200	-1.518494	-0.897029
C32	C	-0.503357	-0.792415	-0.506241
C33	C	-0.503355	-0.909192	-0.506233
C34	C	-0.436356	-1.585718	-0.951911
C35	C	-0.436311	-1.585736	-1.061635
C36	C	-0.569963	-1.451303	-1.061587
C37	C	-0.570002	-1.451280	-0.951865
C38	C	-0.503367	-1.518364	-0.233252
C39	C	-0.503116	-1.518534	-0.116476
H40	H	-0.624748	-0.919432	-0.627924
C41	C	-1.054466	-1.592377	-0.432476
C42	C	-0.979505	-1.546784	-0.350000
C43	C	-0.919343	-1.620645	-0.276196
C44	C	-0.934140	-1.740099	-0.284869
C45	C	-1.009104	-1.785698	-0.367349
C46	C	-1.069267	-1.711837	-0.441153
H47	H	-0.968548	-1.458352	-0.343577
H48	H	-0.863849	-1.586889	-0.215139
H49	H	-0.889604	-1.794775	-0.230236
H50	H	-1.020061	-1.874130	-0.373773
H51	H	-1.124760	-1.745593	-0.502210
C52	C	-0.362868	-1.659644	-0.891591
C53	C	-0.408179	-1.742102	-0.816171
C54	C	-0.334686	-1.816027	-0.755856
C55	C	-0.215882	-1.807494	-0.770960
C56	C	-0.170565	-1.725033	-0.846383
C57	C	-0.244057	-1.651108	-0.906699
H58	H	-0.496130	-1.748421	-0.804987
H59	H	-0.368233	-1.877070	-0.700022
H60	H	-0.161478	-1.862218	-0.726311
H61	H	-0.082613	-1.718713	-0.857568
H62	H	-0.210510	-1.590064	-0.962532
C63	C	-0.643531	-1.377321	-0.891492
C64	C	-0.598256	-1.294837	-0.816061
C65	C	-0.671776	-1.220874	-0.755690
C66	C	-0.790571	-1.229395	-0.770749
C67	C	-0.835853	-1.311882	-0.846182
C68	C	-0.762333	-1.385845	-0.906554
H69	H	-0.510311	-1.288526	-0.804911
H70	H	-0.638254	-1.159812	-0.699849
H71	H	-0.844995	-1.174643	-0.726058
H72	H	-0.923799	-1.318193	-0.857333
H73	H	-0.795855	-1.446908	-0.962395
H74	H	-0.935542	-1.573102	-0.451620
H75	H	-0.381952	-0.919343	-0.384549
H76	H	-0.381930	-1.118410	-0.384516
C77	C	-0.362782	-1.659686	-1.122004
C78	C	-0.289304	-1.733613	-1.061683
C79	C	-0.215770	-1.807564	-1.122052
C80	C	-0.215715	-1.807588	-1.242742
C81	C	-0.289196	-1.733658	-1.303070
C82	C	-0.362729	-1.659707	-1.242701
H83	H	-0.289343	-1.733597	-0.972335
H84	H	-0.161375	-1.862291	-1.077393
H85	H	-0.161281	-1.862331	-1.287431
H86	H	-0.289157	-1.733674	-1.392418
H87	H	-0.417125	-1.604980	-1.287360
C88	C	-1.123009	-1.380742	-0.643861
C89	C	-1.198175	-1.298393	-0.598210
C90	C	-1.258338	-1.224532	-0.672013
C91	C	-1.243335	-1.233020	-0.791467
C92	C	-1.168165	-1.315372	-0.837124
C93	C	-1.108002	-1.389233	-0.763321
H94	H	-1.209285	-1.292107	-0.509777
H95	H	-1.313984	-1.163570	-0.638214
H96	H	-1.287871	-1.178343	-0.846101
H97	H	-1.157055	-1.321658	-0.925557
H98	H	-1.052356	-1.450195	-0.797120
H99	H	-0.624746	-1.118479	-0.627893
H100	H	-0.898264	-1.399807	-0.624632
C101	C	-0.643450	-1.377378	-1.121908
C102	C	-0.643416	-1.377403	-1.242598
C103	C	-0.716908	-1.303480	-1.302917
C104	C	-0.790434	-1.229532	-1.242546
C105	C	-0.790471	-1.229504	-1.121849
C106	C	-0.716979	-1.303427	-1.061530
H107	H	-0.588985	-1.432147	-1.287295
H108	H	-0.716881	-1.303501	-1.392265
H109	H	-0.844838	-1.174809	-1.287198
H110	H	-0.844902	-1.174761	-1.077153
H111	H	-0.717007	-1.303407	-0.972182
