data_functionalizedCrystal
_audit_creation_method	'MofGen! by Chris Wilmer'
_symmetry_space_group_name_H-M	'P1'
_symmetry_Int_Tables_number	1
_symmetry_cell_setting	triclinic
loop_
_symmetry_equiv_pos_as_xyz
  x,y,z
_cell_length_a	11.792241
_cell_length_b	22.610064
_cell_length_c	11.792241
_cell_angle_alpha	89.996044
_cell_angle_beta	95.806584
_cell_angle_gamma	89.996565
loop_
_atom_site_label
_atom_site_type_symbol
_atom_site_fract_x
_atom_site_fract_y
_atom_site_fract_z
O1	O	-1.506917	0.049119	0.155552
O2	O	-1.176575	0.049134	0.171585
O3	O	-1.349762	0.049122	-0.001602
O4	O	-1.333730	0.049131	0.328739
O5	O	-1.349732	-0.049247	-0.001576
O6	O	-1.176545	-0.049235	0.171611
O7	O	-1.506886	-0.049251	0.155578
Zn8	Zn	-1.341710	-0.064861	0.163598
Zn9	Zn	-1.341751	0.064745	0.163565
O10	O	-1.333699	-0.049238	0.328765
C11	C	-1.134269	-0.000048	0.170591
C12	C	-1.008255	-0.000042	0.167576
N13	N	-1.341691	-0.153313	0.163620
C14	C	-0.777543	-0.000058	0.162034
C15	C	-0.905928	-0.000050	0.165113
C16	C	-1.418442	-0.561960	0.086890
C17	C	-1.418447	-0.623880	0.086881
O18	O	-1.483655	-0.655904	0.021659
N19	N	-1.341750	-0.654851	0.163541
C20	C	-1.265034	-0.623898	0.240207
O21	O	-1.199796	-0.655926	0.305411
C22	C	-1.265023	-0.561979	0.240209
C23	C	-1.341734	-0.531012	0.163551
C24	C	-1.495145	-0.530993	0.010238
C25	C	-1.495140	-0.469078	0.010248
C26	C	-1.418432	-0.438129	0.086909
C27	C	-1.341729	-0.469096	0.163561
C28	C	-1.188303	-0.531027	0.316868
C29	C	-1.188299	-0.469104	0.316862
C30	C	-1.265009	-0.438137	0.240205
C31	C	-1.265017	-0.376232	0.240233
N32	N	-1.341714	-0.345262	0.163573
C33	C	-1.418422	-0.376210	0.086911
C34	C	-1.265060	-0.753931	0.240196
C35	C	-1.265075	-0.815849	0.240200
C36	C	-1.418487	-0.815827	0.086873
C37	C	-1.418477	-0.753908	0.086875
C38	C	-1.341757	-0.722961	0.163536
C39	C	-1.418407	-0.246183	0.086939
C40	C	-1.418399	-0.184262	0.086958
C41	C	-1.264983	-0.184289	0.240281
C42	C	-1.264995	-0.246205	0.240266
C43	C	-1.341711	-0.277150	0.163585
O44	O	-1.199839	-0.344170	0.305419
O45	O	-1.483639	-0.344174	0.021708
C46	C	-0.549192	-0.000065	0.156572
C47	C	-0.675206	-0.000063	0.159587
C48	C	-1.348740	-0.000063	-0.043880
C49	C	-1.345726	-0.000062	-0.169894
N50	N	-1.341779	0.153197	0.163534
C51	C	-1.340183	-0.000052	-0.400606
C52	C	-1.343262	-0.000057	-0.272221
C53	C	-1.334721	-0.000053	0.371043
C54	C	-1.337736	-0.000049	0.497057
H55	H	-1.480875	-0.271372	0.024497
O56	O	-1.569690	-0.439092	-0.064336
C57	C	-1.637402	-0.479696	-0.131976
H58	H	-1.590859	-0.523835	-0.133557
H59	H	-1.721943	-0.486279	-0.094559
C60	C	-1.717205	-0.401321	-0.252328
C61	C	-1.660035	-0.455532	-0.254277
H62	H	-1.731171	-0.386415	-0.327768
H63	H	-1.671590	-0.373965	-0.206756
H64	H	-1.787649	-0.406814	-0.221142
H65	H	-1.589587	-0.450037	-0.285449
H66	H	-1.705639	-0.482887	-0.299858
O67	O	-1.190585	-0.154245	0.314901
C68	C	-1.209686	-0.169385	0.427391
H69	H	-1.300554	-0.186405	0.428572
H70	H	-1.146975	-0.205327	0.460304
C71	C	-1.080908	-0.093476	0.502760
C72	C	-1.192518	-0.114376	0.504213
H73	H	-1.070313	-0.059545	0.550150
H74	H	-1.068035	-0.083277	0.426975
H75	H	-1.028662	-0.123433	0.530185
H76	H	-1.244761	-0.084422	0.476775
H77	H	-1.205399	-0.124569	0.579996
O78	O	-1.569511	-0.561077	-0.064349
C79	C	-1.508332	-0.596908	-0.134781
H80	H	-1.418804	-0.578264	-0.137305
H81	H	-1.502623	-0.643840	-0.099313
C82	C	-1.680110	-0.620735	-0.253122
C83	C	-1.570153	-0.597833	-0.256229
H84	H	-1.718246	-0.621309	-0.328036
H85	H	-1.721329	-0.596597	-0.205668
H86	H	-1.675338	-0.659843	-0.223559
H87	H	-1.574927	-0.558724	-0.285778
H88	H	-1.528936	-0.621965	-0.303691
O89	O	-1.190499	-0.723963	0.314791
C90	C	-1.122796	-0.764582	0.382426
H91	H	-1.169351	-0.808715	0.384006
H92	H	-1.038259	-0.771173	0.345007
C93	C	-1.042970	-0.686228	0.502782
C94	C	-1.100154	-0.740431	0.504729
H95	H	-1.028998	-0.671330	0.578223
H96	H	-1.088579	-0.658861	0.457212
H97	H	-0.972528	-0.691727	0.471594
H98	H	-1.170600	-0.734929	0.535903
H99	H	-1.054556	-0.767796	0.550307
O100	O	-1.492959	-0.154273	0.012378
C101	C	-1.560677	-0.194871	-0.055268
H102	H	-1.514136	-0.239010	-0.056866
H103	H	-1.645214	-0.201457	-0.017846
C104	C	-1.640486	-0.116487	-0.175592
C105	C	-1.583319	-0.170698	-0.177562
H106	H	-1.654458	-0.101575	-0.251028
H107	H	-1.594866	-0.089134	-0.130016
H108	H	-1.710927	-0.121982	-0.144402
H109	H	-1.512873	-0.165201	-0.208738
H110	H	-1.628927	-0.198049	-0.223147
O111	O	-1.113929	-0.438978	0.391385
C112	C	-1.175129	-0.403175	0.461849
H113	H	-1.263664	-0.393888	0.417247
H114	H	-1.183352	-0.427046	0.545783
C115	C	-1.002535	-0.355772	0.540470
C116	C	-1.111273	-0.344362	0.485685
H117	H	-0.963145	-0.319494	0.555178
H118	H	-0.961303	-0.379895	0.493000
H119	H	-1.009403	-0.375666	0.610408
H120	H	-1.104403	-0.324475	0.415742
H121	H	-1.152503	-0.320235	0.533143
O122	O	-1.492888	-0.845988	0.012436
C123	C	-1.476455	-0.907279	0.028897
H124	H	-1.386481	-0.915737	0.070718
H125	H	-1.541045	-0.924851	0.086254
C126	C	-1.603299	-0.928678	-0.138461
C127	C	-1.492789	-0.939066	-0.087104
H128	H	-1.613379	-0.948287	-0.210014
H129	H	-1.614374	-0.887386	-0.149549
H130	H	-1.657111	-0.943322	-0.090652
H131	H	-1.438979	-0.924416	-0.134906
H132	H	-1.481704	-0.980357	-0.076027
H133	H	-1.202541	-0.271419	0.302698
O134	O	-1.190518	-0.845992	0.314517
C135	C	-1.120106	-0.881795	0.253259
H136	H	-1.164767	-0.891069	0.164747
H137	H	-1.036180	-0.857932	0.244981
C138	C	-1.041378	-0.929224	0.425803
C139	C	-1.096235	-0.940618	0.317095
H140	H	-1.026648	-0.965508	0.465181
H141	H	-1.088812	-0.905101	0.467076
H142	H	-0.971446	-0.909336	0.418890
H143	H	-1.166172	-0.960498	0.324010
H144	H	-1.048812	-0.964745	0.275825
O145	O	-1.113673	-0.561007	0.391373
C146	C	-1.045993	-0.520402	0.459041
H147	H	-1.044441	-0.476264	0.412488
H148	H	-1.083352	-0.513817	0.543610
C149	C	-0.925599	-0.598775	0.538780
C150	C	-0.923686	-0.544566	0.481598
H151	H	-0.850155	-0.613681	0.552700
H152	H	-0.971199	-0.626132	0.493195
H153	H	-0.956737	-0.593280	0.609248
H154	H	-0.892562	-0.550063	0.411125
H155	H	-0.878078	-0.517210	0.527172
H156	H	-1.480940	-0.728699	0.024454
