data_functionalizedCrystal
_audit_creation_method	'MofGen! by Chris Wilmer'
_symmetry_space_group_name_H-M	'P1'
_symmetry_Int_Tables_number	1
_symmetry_cell_setting	triclinic
loop_
_symmetry_equiv_pos_as_xyz
  x,y,z
_cell_length_a	16.959455
_cell_length_b	25.639239
_cell_length_c	16.959447
_cell_angle_alpha	89.966924
_cell_angle_beta	89.979626
_cell_angle_gamma	90.035706
loop_
_atom_site_label
_atom_site_type_symbol
_atom_site_fract_x
_atom_site_fract_y
_atom_site_fract_z
Zn1	Zn	1.208282	-0.208182	-0.447021
Zn2	Zn	1.708282	0.291818	0.052979
Zn3	Zn	1.208161	-0.295623	-0.314836
Zn4	Zn	1.708161	0.204377	0.185164
Zn5	Zn	1.076110	-0.208199	-0.314845
Zn6	Zn	1.576110	0.291801	0.185155
Zn7	Zn	1.076032	-0.295584	-0.446961
Zn8	Zn	1.576032	0.204416	0.053039
O9	O	1.142146	-0.251897	-0.380916
O10	O	1.642146	0.248103	0.119084
O11	O	1.318876	-0.219791	-0.429508
O12	O	1.818876	0.280209	0.070492
O13	O	1.190627	-0.284049	-0.204226
O14	O	1.690627	0.215951	0.295774
O15	O	1.093726	-0.135031	-0.332407
O16	O	1.593726	0.364969	0.167593
O17	O	1.318788	-0.284033	-0.332393
O18	O	1.818788	0.215967	0.167607
O19	O	1.190832	-0.135019	-0.429516
O20	O	1.690832	0.364981	0.070484
O21	O	1.093609	-0.219819	-0.204233
O22	O	1.593609	0.280181	0.295767
O23	O	0.965489	-0.219781	-0.332348
O24	O	1.465489	0.280219	0.167652
O25	O	1.093593	-0.283966	-0.557580
O26	O	1.593593	0.216034	-0.057580
O27	O	0.965431	-0.283982	-0.429414
O28	O	1.465431	0.216018	0.070586
O29	O	1.190756	-0.219753	-0.557624
O30	O	1.690756	0.280247	-0.057624
O31	O	1.190551	-0.368783	-0.332334
O32	O	1.690551	0.131217	0.167666
O33	O	1.093476	-0.368754	-0.429405
O34	O	1.593476	0.131246	0.070595
C35	C	0.936780	-0.251880	-0.380876
C36	C	1.436780	0.248120	0.119124
C37	C	0.848923	-0.251885	-0.380878
C38	C	1.348923	0.248115	0.119122
C39	C	1.142013	-0.387739	-0.380880
C40	C	1.642013	0.112261	0.119120
C41	C	1.142029	-0.445853	-0.380890
C42	C	1.642029	0.054147	0.119110
C43	C	0.477391	-0.285315	-0.330322
C44	C	0.977391	0.214685	0.169678
C45	C	0.477504	-0.218522	-0.431606
C46	C	0.977504	0.281478	0.068394
C47	C	0.560050	-0.218514	-0.431587
C48	C	1.060050	0.281486	0.068413
C49	C	0.601270	-0.251907	-0.380935
C50	C	1.101270	0.248093	0.119065
C51	C	0.559945	-0.285308	-0.330303
C52	C	1.059945	0.214692	0.169697
C53	C	0.601382	-0.185117	-0.482224
C54	C	1.101382	0.314883	0.017776
C55	C	0.683933	-0.185107	-0.482207
C56	C	1.183933	0.314893	0.017793
C57	C	0.725155	-0.218498	-0.431551
C58	C	1.225155	0.281502	0.068449
C59	C	0.683824	-0.251900	-0.380916
C60	C	1.183824	0.248100	0.119084
C61	C	0.725044	-0.285293	-0.330264
C62	C	1.225044	0.214707	0.169736
C63	C	0.683714	-0.318693	-0.279625
C64	C	1.183714	0.181307	0.220375
C65	C	0.601166	-0.318699	-0.279646
C66	C	1.101166	0.181301	0.220354
C67	C	0.807703	-0.218492	-0.431529
C68	C	1.307703	0.281508	0.068471
C69	C	0.807597	-0.285286	-0.330245
C70	C	1.307597	0.214714	0.169755
C71	C	1.192825	-0.806219	-0.330457
C72	C	1.692825	-0.306219	0.169543
C73	C	1.192856	-0.860823	-0.330467
C74	C	1.692856	-0.360823	0.169533
O75	O	1.235906	-0.889062	-0.287547
O76	O	1.735906	-0.389062	0.212453
N77	N	1.142285	-0.888136	-0.380968
N78	N	1.642285	-0.388136	0.119032
C79	C	1.091686	-0.860841	-0.431467
C80	C	1.591686	-0.360841	0.068533
O81	O	1.048676	-0.889087	-0.474424
O82	O	1.548676	-0.389087	0.025576
C83	C	1.091660	-0.806238	-0.431460
C84	C	1.591660	-0.306238	0.068540
C85	C	1.142228	-0.778928	-0.380950
C86	C	1.642228	-0.278928	0.119050
C87	C	1.243390	-0.778909	-0.279952
C88	C	1.743390	-0.278909	0.220048
C89	C	1.243358	-0.724308	-0.279940
C90	C	1.743358	-0.224308	0.220060
C91	C	1.192761	-0.697018	-0.330434
C92	C	1.692761	-0.197018	0.169566
C93	C	1.142197	-0.724328	-0.380939
C94	C	1.642197	-0.224328	0.119061
C95	C	1.041066	-0.778945	-0.481963
C96	C	1.541066	-0.278945	0.018037
C97	C	1.041045	-0.724338	-0.481952
C98	C	1.541045	-0.224338	0.018048
C99	C	1.091613	-0.697028	-0.431442
C100	C	1.591613	-0.197028	0.068558
C101	C	1.091568	-0.642437	-0.431421
C102	C	1.591568	-0.142437	0.068579
N103	N	1.142139	-0.615124	-0.380920
N104	N	1.642139	-0.115124	0.119080
C105	C	1.192735	-0.642414	-0.330427
C106	C	1.692735	-0.142414	0.169573
C107	C	1.091746	-0.975512	-0.431479
C108	C	1.591746	-0.475512	0.068521
C109	C	1.091767	-1.030114	-0.431483
C110	C	1.591767	-0.530114	0.068517
C111	C	1.192938	-1.030092	-0.330484
C112	C	1.692938	-0.530092	0.169516
C113	C	1.192912	-0.975489	-0.330477
C114	C	1.692912	-0.475489	0.169523
C115	C	1.142316	-0.948199	-0.380979
C116	C	1.642316	-0.448199	0.119021
C117	C	1.192664	-0.527749	-0.330406
C118	C	1.692664	-0.027749	0.169594
C119	C	1.192625	-0.473144	-0.330397
C120	C	1.692625	0.026856	0.169603
C121	C	1.091458	-0.473171	-0.431399
C122	C	1.591458	0.026829	0.068601
C123	C	1.091493	-0.527771	-0.431405
C124	C	1.591493	-0.027771	0.068595
C125	C	1.142103	-0.555059	-0.380906
C126	C	1.642103	-0.055059	0.119094
O127	O	1.048541	-0.614163	-0.474322
O128	O	1.548541	-0.114163	0.025678
O129	O	1.235746	-0.614162	-0.287485
O130	O	1.735746	-0.114162	0.212515
C131	C	1.348314	-0.251914	-0.380956
C132	C	1.848314	0.248086	0.119044
C133	C	1.436171	-0.251922	-0.380973
C134	C	1.936171	0.248078	0.119027
C135	C	1.142179	-0.251853	-0.587084
C136	C	1.642179	0.248147	-0.087084
C137	C	1.142193	-0.251835	-0.674941
C138	C	1.642193	0.248165	-0.174941
C139	C	1.142301	-0.115524	-0.380969
C140	C	1.642301	0.384476	0.119031
C141	C	1.142367	-0.057410	-0.380992
C142	C	1.642367	0.442590	0.119008
C143	C	1.091699	-0.285213	-1.046396
C144	C	1.591699	0.214787	-0.546396
C145	C	1.192876	-0.218347	-1.046437
C146	C	1.692876	0.281653	-0.546437
C147	C	1.192855	-0.218358	-0.963891
C148	C	1.692855	0.281642	-0.463891
C149	C	1.142256	-0.251798	-0.922594
C150	C	1.642256	0.248202	-0.422594
C151	C	1.091678	-0.285226	-0.963842
C152	C	1.591678	0.214774	-0.463842
C153	C	1.243438	-0.184934	-0.922636
C154	C	1.743438	0.315066	-0.422636
C155	C	1.243419	-0.184944	-0.840085
C156	C	1.743419	0.315056	-0.340085
C157	C	1.192816	-0.218381	-0.798787
C158	C	1.692816	0.281619	-0.298787
C159	C	1.142235	-0.251811	-0.840040
C160	C	1.642235	0.248189	-0.340040
C161	C	1.091636	-0.285250	-0.798743
C162	C	1.591636	0.214750	-0.298743
C163	C	1.041051	-0.318678	-0.839995
C164	C	1.541051	0.181322	-0.339995
C165	C	1.041074	-0.318664	-0.922543
C166	C	1.541074	0.181336	-0.422543
C167	C	1.192792	-0.218395	-0.716238
C168	C	1.692792	0.281605	-0.216238
C169	C	1.091615	-0.285264	-0.716189
C170	C	1.591615	0.214736	-0.216189
C171	C	1.142159	-0.251902	-0.175549
C172	C	1.642159	0.248098	0.324451
C173	C	1.142298	-0.251773	-0.087693
C174	C	1.642298	0.248227	0.412307
H175	H	0.841153	-0.312478	-0.288995
H176	H	1.341153	0.187522	0.211005
H177	H	0.443938	-0.191338	-0.472848
H178	H	0.943938	0.308662	0.027152
N179	N	0.989423	-0.806840	-0.533560
N180	N	1.489423	-0.306840	-0.033560
N181	N	0.989446	-0.855592	-0.533576
N182	N	1.489446	-0.355592	-0.033576
H183	H	0.952971	-0.875294	-0.570020
H184	H	1.452971	-0.375294	-0.070020
N185	N	1.244558	-0.947596	-0.278874
N186	N	1.744558	-0.447596	0.221126
N187	N	1.239360	-0.953733	-0.205934
N188	N	1.739360	-0.453733	0.294066
H189	H	1.275837	-0.934036	-0.169487
H190	H	1.775837	-0.434036	0.330513
N191	N	1.244616	-1.057983	-0.278908
N192	N	1.744616	-0.557983	0.221092
N193	N	1.244628	-1.106735	-0.278929
N194	N	1.744628	-0.606735	0.221071
H195	H	1.281122	-1.126435	-0.242504
H196	H	1.781122	-0.626435	0.257496
H197	H	1.050582	-1.052345	-0.472606
H198	H	1.550582	-0.552345	0.027394
N199	N	1.244455	-0.184247	-0.674112
N200	N	1.744455	0.315753	-0.174112
N201	N	1.239273	-0.136001	-0.683361
N202	N	1.739273	0.363999	-0.183361
H203	H	1.275762	-0.111880	-0.653610
H204	H	1.775762	0.388120	-0.153610
H205	H	0.717577	-0.157910	-0.523441
H206	H	1.217577	0.342090	-0.023441
H207	H	1.233804	-0.450910	-0.289263
H208	H	1.733804	0.049090	0.210737
H209	H	1.050538	-0.953295	-0.472602
H210	H	1.550538	-0.453295	0.027398
N211	N	1.244548	-0.184192	-1.088633
N212	N	1.744548	0.315808	-0.588633
N213	N	1.216782	-0.150870	-1.134715
N214	N	1.716782	0.349130	-0.634715
H215	H	1.253275	-0.126746	-1.164522
H216	H	1.753275	0.373254	-0.664522
N217	N	0.559267	-0.151017	-0.533962
N218	N	1.059267	0.348983	-0.033962
N219	N	0.485563	-0.151028	-0.533967
N220	N	0.985563	0.348972	-0.033967
H221	H	0.455814	-0.126944	-0.570509
H222	H	0.955814	0.373056	-0.070509
N223	N	0.558950	-0.352824	-0.227939
N224	N	1.058950	0.147176	0.272061
N225	N	0.568138	-0.401072	-0.233052
N226	N	1.068138	0.098928	0.266948
H227	H	0.538321	-0.425175	-0.196536
H228	H	1.038321	0.074825	0.303464
H229	H	0.443737	-0.312507	-0.289090
H230	H	0.943737	0.187493	0.210910
H231	H	0.999845	-0.702121	-0.523079
H232	H	1.499845	-0.202121	-0.023079
H233	H	0.841350	-0.191299	-0.472761
H234	H	1.341350	0.308701	0.027239
H235	H	1.050512	-0.312427	-1.079987
H236	H	1.550512	0.187573	-0.579987
H237	H	1.050319	-0.550008	-0.472537
H238	H	1.550319	-0.050008	0.027463
N239	N	0.989367	-0.352842	-0.797820
N240	N	1.489367	0.147158	-0.297820
N241	N	0.994553	-0.401086	-0.807016
N242	N	1.494553	0.098914	-0.307016
H243	H	0.958052	-0.425215	-0.777228
H244	H	1.458052	0.074785	-0.277228
N245	N	1.295063	-0.806788	-0.228365
N246	N	1.795063	-0.306788	0.271635
N247	N	1.295087	-0.855540	-0.228360
N248	N	1.795087	-0.355540	0.271640
H249	H	1.331580	-0.875228	-0.191919
H250	H	1.831580	-0.375228	0.308081
N251	N	1.039775	-0.445280	-0.482962
N252	N	1.539775	0.054720	0.017038
N253	N	1.039761	-0.396528	-0.482939
N254	N	1.539761	0.103472	0.017061
H255	H	1.003262	-0.376828	-0.519358
H256	H	1.503262	0.123172	-0.019358
N257	N	1.244363	-0.555610	-0.278817
N258	N	1.744363	-0.055610	0.221183
N259	N	1.289500	-0.531211	-0.233729
N260	N	1.789500	-0.031211	0.266271
H261	H	1.326008	-0.550886	-0.197289
H262	H	1.826008	-0.050886	0.302711
H263	H	1.050404	-0.312490	-0.682571
H264	H	1.550404	0.187510	-0.182571
N265	N	1.295019	-0.696424	-0.228342
N266	N	1.795019	-0.196424	0.271658
N267	N	1.340188	-0.720806	-0.183267
N268	N	1.840188	-0.220806	0.316733
H269	H	1.376678	-0.701117	-0.146824
H270	H	1.876678	-0.201117	0.353176
N271	N	0.989391	-0.352796	-0.964679
N272	N	1.489391	0.147204	-0.464679
N273	N	0.916457	-0.349310	-0.955458
N274	N	1.416457	0.150690	-0.455458
H275	H	0.879952	-0.373412	-0.985222
H276	H	1.379952	0.126588	-0.485222
H277	H	1.284638	-0.157712	-0.956267
H278	H	1.784638	0.342288	-0.456267
N279	N	1.295083	-0.150790	-0.797966
N280	N	1.795083	0.349210	-0.297966
N281	N	1.289895	-0.102544	-0.807219
N282	N	1.789895	0.397456	-0.307219
H283	H	1.326381	-0.078420	-0.777472
H284	H	1.826381	0.421580	-0.277472
N285	N	0.725836	-0.352804	-0.227899
N286	N	1.225836	0.147196	0.272101
N287	N	0.799540	-0.352793	-0.227901
N288	N	1.299540	0.147207	0.272099
H289	H	0.829292	-0.376884	-0.191372
H290	H	1.329292	0.123116	0.308628
