data_functionalizedCrystal
_audit_creation_method	'MofGen! by Chris Wilmer'
_symmetry_space_group_name_H-M	'P1'
_symmetry_Int_Tables_number	1
_symmetry_cell_setting	triclinic
loop_
_symmetry_equiv_pos_as_xyz
  x,y,z
_cell_length_a	19.188930
_cell_length_b	16.974800
_cell_length_c	16.053789
_cell_angle_alpha	89.238068
_cell_angle_beta	92.901023
_cell_angle_gamma	83.267966
loop_
_atom_site_label
_atom_site_type_symbol
_atom_site_fract_x
_atom_site_fract_y
_atom_site_fract_z
O1	O	0.088883	1.048779	-0.001452
O2	O	0.100815	0.819196	0.014070
O3	O	-0.006813	0.940612	0.005845
O4	O	0.196511	0.927363	0.006773
O5	O	-0.012045	0.934689	-0.132615
O6	O	0.095582	0.813273	-0.124390
O7	O	0.083651	1.042856	-0.139911
Zn8	Zn	0.088786	0.927124	-0.154134
Zn9	Zn	0.095680	0.934928	0.028293
O10	O	0.191278	0.921440	-0.131687
C11	C	0.097844	0.786862	-0.053175
C12	C	0.096779	0.699342	-0.047259
C13	C	0.093424	0.655002	-0.119955
C14	C	0.092412	0.572769	-0.114399
C15	C	0.094759	0.534878	-0.036145
C16	C	0.098112	0.579225	0.036558
C17	C	0.099119	0.661457	0.031000
C18	C	0.092048	0.289288	-0.011431
C19	C	0.091042	0.207050	-0.005879
C20	C	0.085341	0.200600	-0.156836
C21	C	0.086352	0.282833	-0.162387
C22	C	0.089701	0.327174	-0.089684
N23	N	0.093727	0.450823	-0.030463
N24	N	0.090729	0.411228	-0.095367
C25	C	-0.035440	0.937221	-0.063358
C26	C	-0.112943	0.935933	-0.063279
C27	C	-0.157929	1.007176	-0.068099
C28	C	-0.230751	1.005967	-0.068004
C29	C	-0.258585	0.933509	-0.063105
C30	C	-0.213590	0.862256	-0.058279
C31	C	-0.140769	0.863468	-0.058366
N32	N	-0.368323	0.876108	-0.106481
N33	N	-0.437501	0.874962	-0.106400
C34	C	-0.477990	0.929853	-0.062841
N35	N	-0.446690	0.985946	-0.019376
N36	N	-0.377507	0.987095	-0.019460
C37	C	-0.337546	0.932187	-0.063009
C38	C	-0.601938	0.999790	-0.067557
C39	C	-0.674761	0.998577	-0.067457
C40	C	-0.657599	0.854865	-0.057740
C41	C	-0.584777	0.856080	-0.057832
C42	C	-0.556952	0.928544	-0.062745
C43	C	0.219906	0.924831	-0.062481
C44	C	0.297410	0.926119	-0.062556
C45	C	0.086622	1.075190	-0.072665
C46	C	0.087687	1.162710	-0.078576
N47	N	0.084080	0.921804	-0.278636
C48	C	0.124636	0.967613	-0.325417
C49	C	0.121340	0.963902	-0.412573
C50	C	0.077490	0.914378	-0.452948
C51	C	0.036929	0.868568	-0.406161
C52	C	0.040222	0.872284	-0.319006
C53	C	0.063112	0.898159	-0.713265
C54	C	0.059824	0.894445	-0.800426
C55	C	0.144234	0.989781	-0.806832
C56	C	0.147527	0.993488	-0.719675
C57	C	0.106963	0.947681	-0.672896
N58	N	0.074121	0.910582	-0.542036
N59	N	0.110328	0.951482	-0.583810
N60	N	0.100380	0.940254	0.152794
H61	H	0.092956	0.176202	0.057848
N62	N	-0.686010	0.780844	-0.052725
N63	N	-0.669913	0.735367	0.008884
H64	H	-0.689979	0.683086	0.012430
N65	N	-0.242021	0.788243	-0.053297
N66	N	-0.230357	0.737774	-0.108421
H67	H	-0.250437	0.685499	-0.104902
N68	N	-0.720727	1.071347	-0.072374
N69	N	-0.761061	1.089203	-0.015045
H70	H	-0.793528	1.140597	-0.018519
H71	H	0.154364	1.001206	-0.450659
N72	N	-0.538831	0.783298	-0.052910
N73	N	-0.563689	0.718607	-0.048533
H74	H	-0.531240	0.667201	-0.045055
H75	H	0.160348	1.007936	-0.292550
H76	H	0.001222	0.828249	-0.439041
N77	N	-0.001225	0.825503	-0.271232
N78	N	-0.040383	0.781298	-0.307289
H79	H	-0.069663	0.748264	-0.273550
N80	N	0.081920	0.155320	-0.231104
N81	N	0.129333	0.154906	-0.281752
H82	H	0.126915	0.122928	-0.334208
N83	N	0.192347	1.044052	-0.678448
N84	N	0.228571	1.084932	-0.720226
H85	H	0.260237	1.120633	-0.691109
H86	H	-0.135278	1.066182	-0.072097
N87	N	0.089011	0.527478	-0.188661
N88	N	0.137032	0.473438	-0.201883
H89	H	0.134635	0.441452	-0.254336
H90	H	-0.104141	0.805452	-0.054440
H91	H	0.091518	0.685845	-0.183679
N92	N	0.185663	1.036562	-0.854628
N93	N	0.182721	1.033239	-0.932444
H94	H	0.211980	1.066282	-0.966201
N95	N	-0.573496	1.073798	-0.072572
N96	N	-0.536992	1.088008	-0.132071
H97	H	-0.516904	1.140276	-0.135613
H98	H	-0.267385	1.063983	-0.071926
N99	N	0.015032	0.843845	-0.841655
N100	N	-0.021179	0.802947	-0.799880
H101	H	-0.052810	0.767209	-0.828997
H102	H	0.030082	0.860860	-0.675187
H103	H	0.084437	0.313679	-0.226110
N104	N	0.095469	0.334562	0.062838
N105	N	0.097566	0.300718	0.132701
H106	H	0.099983	0.332694	0.185158
H107	H	0.100018	0.548368	0.100274
H108	H	0.101852	0.697558	0.090198
