data_functionalizedCrystal
_audit_creation_method	'MofGen! by Chris Wilmer'
_symmetry_space_group_name_H-M	'P1'
_symmetry_Int_Tables_number	1
_symmetry_cell_setting	triclinic
loop_
_symmetry_equiv_pos_as_xyz
  x,y,z
_cell_length_a	10.489746
_cell_length_b	10.489741
_cell_length_c	9.130307
_cell_angle_alpha	89.996969
_cell_angle_beta	90.001401
_cell_angle_gamma	84.540238
loop_
_atom_site_label
_atom_site_type_symbol
_atom_site_fract_x
_atom_site_fract_y
_atom_site_fract_z
O1	O	1.694045	0.179997	-0.121700
O2	O	1.322850	0.196883	-0.121725
O3	O	1.516894	0.002843	-0.121703
O4	O	1.500001	0.374038	-0.121722
O5	O	1.516887	0.002841	0.121896
O6	O	1.322843	0.196881	0.121874
O7	O	1.694038	0.179995	0.121899
Cu8	Cu	1.508440	0.188438	0.144129
Cu9	Cu	1.508448	0.188441	-0.143955
O10	O	1.499994	0.374036	0.121877
C11	C	1.275315	0.195606	0.000072
C12	C	1.133686	0.191786	0.000063
C13	C	0.980828	0.066062	0.000090
C14	C	1.058219	0.128918	0.120189
C15	C	1.058181	0.128949	-0.119980
C16	C	0.958727	0.247900	0.120298
C17	C	0.958684	0.247913	-0.119980
C18	C	1.036025	0.310856	0.000149
C19	C	1.515614	-0.044690	0.000096
C20	C	1.511797	-0.186320	0.000093
C21	C	1.388333	-0.254462	0.000074
C22	C	1.446653	-0.346584	0.120185
C23	C	1.446689	-0.346557	-0.119985
C24	C	1.570168	-0.276577	0.120303
C25	C	1.570187	-0.276540	-0.119975
C26	C	1.628597	-0.368635	0.000165
C27	C	1.741573	0.181273	0.000099
C28	C	1.883202	0.185093	0.000099
C29	C	1.501273	0.421569	0.000076
C30	C	1.505091	0.563198	0.000069
N31	N	1.508444	0.188436	0.346752
N32	N	1.508454	0.188433	-0.346578
C33	C	1.680341	0.016663	0.346761
C34	C	1.766298	-0.069219	0.423432
C35	C	1.766310	-0.069220	0.576766
C36	C	1.680354	0.016669	0.653431
C37	C	1.594398	0.102551	0.576760
C38	C	1.594397	0.102545	0.423423
C39	C	1.422497	0.274315	0.576751
C40	C	1.422488	0.274324	0.423418
C41	C	1.336541	0.360204	0.653417
C42	C	1.250588	0.446095	0.576746
C43	C	1.250580	0.446093	0.423403
C44	C	1.336532	0.360207	0.346746
H45	H	0.915186	0.298118	-0.221527
N46	N	1.068436	0.448060	0.000202
H47	H	1.031899	0.492856	0.090957
H48	H	1.164532	0.449800	-0.000726
H49	H	1.680350	0.016666	0.221909
N50	N	1.115827	0.062359	0.254683
H51	H	1.161214	0.125031	0.314836
H52	H	1.045642	0.028828	0.315171
H53	H	1.180579	0.516024	0.360985
N54	N	1.336545	0.360205	0.818797
H55	H	1.404043	0.292771	0.855738
H56	H	1.355840	0.447108	0.855599
H57	H	1.394435	-0.377521	-0.221539
N58	N	1.115736	0.062367	-0.254475
H59	H	1.045594	0.028837	-0.315039
H60	H	1.161124	0.125088	-0.314553
N61	N	1.253872	-0.188697	0.000214
H62	H	1.240954	-0.132800	0.090065
H63	H	1.240372	-0.134093	-0.090592
N64	N	1.157892	0.538716	0.659443
H65	H	1.173398	0.629400	0.632762
H66	H	1.067270	0.523022	0.632727
H67	H	1.836280	-0.139151	0.360998
H68	H	1.680360	0.016652	0.778284
N69	N	1.377469	-0.387657	0.254697
H70	H	1.286715	-0.345722	0.254610
H71	H	1.376221	-0.483810	0.254119
H72	H	0.915445	0.298113	0.221951
H73	H	1.336537	0.360202	0.221894
H74	H	1.622361	-0.245744	0.221961
N75	N	0.948076	-0.071033	0.000240
H76	H	0.984472	-0.115852	0.091055
H77	H	0.851954	-0.072534	-0.000738
N78	N	1.763174	-0.434112	0.000269
H79	H	1.759865	-0.530022	-0.000592
H80	H	1.810126	-0.407417	-0.089568
H81	H	1.836299	-0.139157	0.639192
N82	N	1.639331	-0.235415	-0.254481
H83	H	1.579968	-0.173815	-0.313606
H84	H	1.716926	-0.191918	-0.223765
