data_functionalizedCrystal
_audit_creation_method	'MofGen! by Chris Wilmer'
_symmetry_space_group_name_H-M	'P1'
_symmetry_Int_Tables_number	1
_symmetry_cell_setting	triclinic
loop_
_symmetry_equiv_pos_as_xyz
  x,y,z
_cell_length_a	10.489711
_cell_length_b	10.489711
_cell_length_c	9.730223
_cell_angle_alpha	90.002341
_cell_angle_beta	89.998239
_cell_angle_gamma	84.527009
loop_
_atom_site_label
_atom_site_type_symbol
_atom_site_fract_x
_atom_site_fract_y
_atom_site_fract_z
O1	O	1.694049	0.179784	-0.114327
O2	O	1.322847	0.196717	-0.114318
O3	O	1.516914	0.002649	-0.114327
O4	O	1.499982	0.373852	-0.114319
O5	O	1.516912	0.002654	0.114253
O6	O	1.322845	0.196722	0.114262
O7	O	1.694047	0.179789	0.114253
Zn8	Zn	1.508445	0.188256	0.150549
Zn9	Zn	1.508448	0.188250	-0.150615
O10	O	1.499979	0.373856	0.114261
C11	C	1.275314	0.195448	-0.000027
C12	C	1.133683	0.191646	-0.000024
C13	C	1.515642	-0.044880	-0.000040
C14	C	1.511840	-0.186511	-0.000052
C15	C	0.951284	0.308352	-0.000037
C16	C	1.043437	0.250054	-0.112738
C17	C	1.043407	0.250027	0.112624
C18	C	0.973499	0.126509	-0.112848
C19	C	0.973460	0.126500	0.112616
C20	C	1.065585	0.068112	-0.000113
C21	C	1.628547	-0.368910	-0.000041
C22	C	1.570249	-0.276758	0.112661
C23	C	1.570220	-0.276786	-0.112701
C24	C	1.446705	-0.346696	0.112770
C25	C	1.446693	-0.346734	-0.112693
C26	C	1.388306	-0.254609	0.000036
C27	C	1.741580	0.181057	-0.000041
C28	C	1.883211	0.184859	-0.000053
C29	C	1.501251	0.421386	-0.000028
C30	C	1.505054	0.563017	-0.000025
N31	N	1.508453	0.188260	0.356086
N32	N	1.508451	0.188236	-0.356151
C33	C	1.594408	0.102356	0.428008
C34	C	1.594405	0.102341	0.571891
C35	C	1.422486	0.274144	0.571917
C36	C	1.422485	0.274152	0.428036
C37	C	1.693668	0.003170	0.427994
C38	C	1.693664	0.003155	0.571877
H39	H	0.901583	0.409855	-0.000147
Br40	Br	1.641938	-0.151278	0.646253
Br41	Br	0.921756	0.039480	0.271429
H42	H	1.352493	0.344074	0.630514
H43	H	0.942696	0.074303	-0.208239
Br44	Br	1.359670	-0.398436	-0.271507
H45	H	1.622496	-0.245834	-0.207980
Br46	Br	1.797720	-0.451754	0.000131
H47	H	1.352482	0.344090	0.369479
H48	H	1.074357	0.302303	0.207905
Br49	Br	1.095070	0.337134	-0.271552
H50	H	1.286712	-0.205133	0.000101
Br51	Br	1.657311	-0.160254	0.362885
Br52	Br	1.848035	0.055031	0.353597
Br53	Br	1.657340	-0.225102	0.271459
H54	H	1.791697	0.025047	0.610926
H55	H	1.115054	-0.033485	-0.000172
Br56	Br	1.359685	-0.398024	0.271761
