data_functionalizedCrystal
_audit_creation_method	'MofGen! by Chris Wilmer'
_symmetry_space_group_name_H-M	'P1'
_symmetry_Int_Tables_number	1
_symmetry_cell_setting	triclinic
loop_
_symmetry_equiv_pos_as_xyz
  x,y,z
_cell_length_a	10.489746
_cell_length_b	10.489741
_cell_length_c	9.565339
_cell_angle_alpha	90.007258
_cell_angle_beta	90.000032
_cell_angle_gamma	84.540238
loop_
_atom_site_label
_atom_site_type_symbol
_atom_site_fract_x
_atom_site_fract_y
_atom_site_fract_z
O1	O	1.694047	0.180005	0.116165
O2	O	1.322852	0.196891	0.116188
O3	O	1.516895	0.002850	0.116168
O4	O	1.500003	0.374046	0.116186
O5	O	1.516885	0.002833	-0.116352
O6	O	1.322841	0.196874	-0.116332
O7	O	1.694036	0.179988	-0.116355
Zn8	Zn	1.508437	0.188428	-0.153261
Zn9	Zn	1.508451	0.188451	0.153094
O10	O	1.499992	0.374028	-0.116334
C11	C	1.275315	0.195606	-0.000069
C12	C	1.133686	0.191786	-0.000060
C13	C	1.515614	-0.044690	-0.000091
C14	C	1.511797	-0.186320	-0.000088
C15	C	0.980828	0.066062	-0.000086
C16	C	1.058217	0.128910	-0.114723
C17	C	1.058182	0.128957	0.114523
C18	C	0.958725	0.247892	-0.114827
C19	C	0.958685	0.247921	0.114523
C20	C	1.036025	0.310856	-0.000143
C21	C	1.388333	-0.254462	-0.000070
C22	C	1.446651	-0.346592	-0.114719
C23	C	1.446691	-0.346550	0.114528
C24	C	1.570167	-0.276584	-0.114831
C25	C	1.570189	-0.276532	0.114518
C26	C	1.628597	-0.368635	-0.000158
C27	C	1.741573	0.181273	-0.000095
C28	C	1.883202	0.185093	-0.000094
C29	C	1.501273	0.421569	-0.000072
C30	C	1.505091	0.563198	-0.000066
N31	N	1.508437	0.188412	-0.362340
C32	C	1.597474	0.097968	-0.546685
C33	C	1.624307	0.213116	-0.453443
C34	C	1.481661	0.073274	-0.453513
C35	C	1.535352	0.303663	-0.546636
C36	C	1.392655	0.163746	-0.546714
C37	C	1.419440	0.278976	-0.453514
N38	N	1.508461	0.188457	0.362174
H39	H	0.956107	-0.037439	-0.000206
H40	H	1.394439	-0.377507	0.211463
F41	F	0.902156	0.313517	-0.241653
H42	H	1.286821	-0.204813	-0.000180
H43	H	1.344152	0.355564	-0.412862
H44	H	1.672811	0.021550	-0.587593
F45	F	1.752294	0.240406	-0.399864
H46	H	1.558116	0.401077	-0.587371
H47	H	1.459003	-0.024116	-0.412605
F48	F	1.115036	0.063226	-0.241414
F49	F	1.068016	0.446242	-0.000211
H50	H	0.915189	0.298132	0.211452
H51	H	1.622357	-0.245758	-0.211866
H52	H	1.101630	0.078693	0.211443
H53	H	1.394406	-0.377612	-0.211639
H54	H	1.622389	-0.245479	0.211444
H55	H	1.730200	-0.418057	-0.000228
H56	H	1.294760	0.142818	-0.587713
