data_functionalizedCrystal
_audit_creation_method	'MofGen! by Chris Wilmer'
_symmetry_space_group_name_H-M	'P1'
_symmetry_Int_Tables_number	1
_symmetry_cell_setting	triclinic
loop_
_symmetry_equiv_pos_as_xyz
  x,y,z
_cell_length_a	17.077404
_cell_length_b	19.121449
_cell_length_c	17.077396
_cell_angle_alpha	92.468915
_cell_angle_beta	90.021444
_cell_angle_gamma	87.583306
loop_
_atom_site_label
_atom_site_type_symbol
_atom_site_fract_x
_atom_site_fract_y
_atom_site_fract_z
Zn1	Zn	1.213368	-0.279643	0.430556
Zn2	Zn	1.546701	0.053691	0.763889
Zn3	Zn	1.880035	0.387024	1.097222
Zn4	Zn	1.218867	-0.397098	0.293692
Zn5	Zn	1.552200	-0.063765	0.627025
Zn6	Zn	1.885534	0.269569	0.960358
Zn7	Zn	1.082101	-0.279663	0.299298
Zn8	Zn	1.415434	0.053670	0.632631
Zn9	Zn	1.748767	0.387003	0.965965
Zn10	Zn	1.087657	-0.397052	0.424913
Zn11	Zn	1.420991	-0.063719	0.758246
Zn12	Zn	1.754324	0.269614	1.091580
O13	O	1.150498	-0.338364	0.362115
O14	O	1.483832	-0.005031	0.695448
O15	O	1.817165	0.328303	1.028781
O16	O	1.323945	-0.295234	0.412415
O17	O	1.657278	0.038099	0.745749
O18	O	1.990611	0.371433	1.079082
O19	O	1.200700	-0.381548	0.184587
O20	O	1.534034	-0.048214	0.517920
O21	O	1.867367	0.285119	0.851254
O22	O	1.094887	-0.181377	0.321417
O23	O	1.428220	0.151956	0.654751
O24	O	1.761553	0.485289	0.988084
O25	O	1.327985	-0.381528	0.311862
O26	O	1.661318	-0.048194	0.645195
O27	O	1.994651	0.285139	0.978529
O28	O	1.191328	-0.181362	0.417852
O29	O	1.524662	0.151971	0.751185
O30	O	1.857995	0.485304	1.084518
O31	O	1.100219	-0.295269	0.188706
O32	O	1.433552	0.038064	0.522039
O33	O	1.766886	0.371398	0.855373
O34	O	0.972990	-0.295225	0.315946
O35	O	1.306324	0.038109	0.649279
O36	O	1.639657	0.371442	0.982613
O37	O	1.104357	-0.381450	0.535510
O38	O	1.437691	-0.048117	0.868843
O39	O	1.771024	0.285217	1.202176
O40	O	0.977073	-0.381470	0.408235
O41	O	1.310406	-0.048136	0.741568
O42	O	1.643740	0.285197	1.074901
O43	O	1.196716	-0.295190	0.539655
O44	O	1.530050	0.038144	0.872989
O45	O	1.863383	0.371477	1.206322
O46	O	1.206088	-0.495375	0.306391
O47	O	1.539422	-0.162042	0.639724
O48	O	1.872755	0.171292	0.973057
O49	O	1.109689	-0.495341	0.402798
O50	O	1.443023	-0.162008	0.736132
O51	O	1.776356	0.171325	1.069465
C52	C	0.946549	-0.338345	0.362087
C53	C	1.279883	-0.005012	0.695420
C54	C	1.613216	0.328322	1.028754
C55	C	0.859300	-0.338354	0.362093
C56	C	1.192633	-0.005020	0.695426
C57	C	1.525967	0.328313	1.028760
C58	C	0.481384	-0.293531	0.414577
C59	C	0.814718	0.039802	0.747910
C60	C	1.148051	0.373136	1.081243
C61	C	0.563365	-0.293526	0.414568
C62	C	0.896698	0.039807	0.747902
C63	C	1.230031	0.373141	1.081235
C64	C	0.606452	-0.338379	0.362134
C65	C	0.939786	-0.005046	0.695467
C66	C	1.273119	0.328288	1.028800
C67	C	0.567556	-0.383245	0.309709
C68	C	0.900889	-0.049912	0.643043
C69	C	1.234223	0.283422	0.976376
C70	C	0.485578	-0.383253	0.309722
C71	C	0.818911	-0.049920	0.643055
C72	C	1.152244	0.283414	0.976389
C73	C	0.738425	-0.383224	0.309685
C74	C	1.071758	-0.049890	0.643018
C75	C	1.405092	0.283443	0.976352
C76	C	0.820409	-0.383215	0.309671
C77	C	1.153743	-0.049882	0.643004
C78	C	1.487076	0.283452	0.976338
C79	C	0.816212	-0.293497	0.414531
C80	C	1.149545	0.039837	0.747865
C81	C	1.482879	0.373170	1.081198
C82	C	0.734234	-0.293505	0.414544
C83	C	1.067567	0.039829	0.747877
C84	C	1.400900	0.373162	1.081211
C85	C	0.695343	-0.338370	0.362119
C86	C	1.028676	-0.005037	0.695452
C87	C	1.362010	0.328297	1.028785
C88	C	1.159110	-0.520842	0.353391
C89	C	1.492443	-0.187509	0.686724
C90	C	1.825777	0.145825	1.020058
C91	C	1.162866	-0.598907	0.349685
C92	C	1.496199	-0.265573	0.683019
C93	C	1.829532	0.067760	1.016352
C94	C	1.114406	-0.635590	0.398097
C95	C	1.447740	-0.302257	0.731430
C96	C	1.781073	0.031077	1.064764
C97	C	1.117939	-0.708940	0.394612
C98	C	1.451272	-0.375607	0.727945
C99	C	1.784605	-0.042273	1.061279
C100	C	1.169935	-0.745606	0.342718
C101	C	1.503269	-0.412273	0.676052
C102	C	1.836602	-0.078939	1.009385
C103	C	1.218397	-0.708918	0.294301
C104	C	1.551730	-0.375584	0.627635
C105	C	1.885064	-0.042251	0.960968
C106	C	1.214860	-0.635569	0.297783
C107	C	1.548193	-0.302235	0.631116
C108	C	1.881527	0.031098	0.964450
C109	C	1.183124	-0.967072	0.329693
C110	C	1.516457	-0.633738	0.663027
C111	C	1.849791	-0.300405	0.996360
C112	C	1.186659	-1.040426	0.326217
C113	C	1.519992	-0.707092	0.659550
C114	C	1.853326	-0.373759	0.992884
C115	C	1.086199	-1.040443	0.426527
C116	C	1.419533	-0.707110	0.759860
C117	C	1.752866	-0.373776	1.093194
C118	C	1.082670	-0.967093	0.430007
C119	C	1.416004	-0.633759	0.763341
C120	C	1.749337	-0.300426	1.096674
C121	C	1.131129	-0.930411	0.381587
C122	C	1.464462	-0.597078	0.714921
C123	C	1.797795	-0.263744	1.048254
C124	C	1.173549	-0.820582	0.339157
C125	C	1.506882	-0.487248	0.672490
C126	C	1.840216	-0.153915	1.005823
C127	C	1.127511	-0.855437	0.385146
C128	C	1.460844	-0.522103	0.718479
C129	C	1.794177	-0.188770	1.051813
C130	C	1.355243	-0.338384	0.362143
C131	C	1.688577	-0.005050	0.695476
C132	C	2.021910	0.328283	1.028809
C133	C	1.442494	-0.338392	0.362155
C134	C	1.775827	-0.005059	0.695488
C135	C	2.109160	0.328275	1.028822
C136	C	1.150543	-0.338312	0.566861
C137	C	1.483877	-0.004979	0.900195
C138	C	1.817210	0.328354	1.233528
C139	C	1.150562	-0.338290	0.654112
C140	C	1.483896	-0.004957	0.987446
C141	C	1.817229	0.328376	1.320779
C142	C	1.141874	-0.155174	0.370889
C143	C	1.475208	0.178160	0.704223
C144	C	1.808541	0.511493	1.037556
C145	C	1.138199	-0.077109	0.374629
C146	C	1.471533	0.256225	0.707962
C147	C	1.804866	0.589558	1.041295
C148	C	1.150496	-0.338365	0.158167
C149	C	1.483829	-0.005032	0.491500
C150	C	1.817163	0.328302	0.824833
C151	C	1.150620	-0.338189	0.070926
C152	C	1.483953	-0.004856	0.404259
C153	C	1.817286	0.328478	0.737592
C154	C	1.198655	-0.293371	0.697263
C155	C	1.531989	0.039963	1.030596
C156	C	1.865322	0.373296	1.363929
C157	C	1.198664	-0.293347	0.779244
C158	C	1.531997	0.039986	1.112578
C159	C	1.865330	0.373319	1.445911
C160	C	1.150583	-0.338248	0.818074
C161	C	1.483916	-0.004914	1.151407
C162	C	1.817249	0.328419	1.484741
C163	C	1.102484	-0.383169	0.774918
C164	C	1.435818	-0.049836	1.108251
C165	C	1.769151	0.283498	1.441584
C166	C	1.102472	-0.383188	0.692938
C167	C	1.435806	-0.049855	1.026271
C168	C	1.769139	0.283478	1.359605
C169	C	1.102514	-0.383127	0.945790
C170	C	1.435847	-0.049793	1.279123
C171	C	1.769181	0.283540	1.612457
C172	C	1.102527	-0.383109	1.027776
C173	C	1.435860	-0.049775	1.361109
C174	C	1.769193	0.283558	1.694442
C175	C	1.198705	-0.293286	1.032096
C176	C	1.532039	0.040047	1.365430
C177	C	1.865372	0.373381	1.698763
C178	C	1.198693	-0.293305	0.950116
C179	C	1.532027	0.040028	1.283450
C180	C	1.865360	0.373362	1.616783
C181	C	1.150596	-0.338228	0.906966
C182	C	1.483929	-0.004894	1.240299
C183	C	1.817262	0.328439	1.573633
H184	H	0.595026	-0.256998	0.457258
H185	H	0.928359	0.076336	0.790591
H186	H	1.261692	0.409669	1.123925
H187	H	1.237850	-0.256747	0.918503
H188	H	1.571183	0.076586	1.251837
H189	H	1.904516	0.409919	1.585170
H190	H	1.237828	-0.256771	0.814374
H191	H	1.571161	0.076562	1.147707
H192	H	1.904494	0.409896	1.481040
F193	F	1.072172	-0.816413	0.440371
F194	F	1.405505	-0.483080	0.773704
F195	F	1.738839	-0.149746	1.107038
H196	H	0.446308	-0.257002	0.457271
H197	H	0.779641	0.076331	0.790604
H198	H	1.112974	0.409665	1.123937
H199	H	1.237867	-0.256707	1.067233
H200	H	1.571200	0.076626	1.400567
H201	H	1.904533	0.409960	1.733900
H202	H	1.063373	-0.419669	1.059388
H203	H	1.396706	-0.086335	1.392722
H204	H	1.730040	0.246998	1.726055
H205	H	0.602645	-0.419768	0.267019
H206	H	0.935978	-0.086434	0.600352
H207	H	1.269312	0.246899	0.933686
H208	H	1.215885	-0.850443	0.296905
H209	H	1.549219	-0.517110	0.630239
H210	H	1.882552	-0.183776	0.963572
F211	F	1.051321	-0.430937	0.899868
F212	F	1.384654	-0.097604	1.233201
F213	F	1.717988	0.235729	1.566535
F214	F	1.051309	-0.430953	0.816246
F215	F	1.384643	-0.097619	1.149579
F216	F	1.717976	0.235714	1.482912
H217	H	1.046746	-1.070317	0.465947
H218	H	1.380080	-0.736984	0.799280
H219	H	1.713413	-0.403651	1.132614
F220	F	1.051283	-0.430996	0.647015
F221	F	1.384617	-0.097663	0.980348
F222	F	1.717950	0.235671	1.313681
H223	H	0.699153	-0.256978	0.457238
H224	H	1.032487	0.076355	0.790571
H225	H	1.365820	0.409688	1.123904
H226	H	0.706763	-0.419761	0.266998
H227	H	1.040097	-0.086428	0.600331
H228	H	1.373430	0.246906	0.933664
H229	H	1.040331	-0.937241	0.472263
H230	H	1.373664	-0.603908	0.805597
H231	H	1.706997	-0.270574	1.138930
F232	F	1.242003	-1.079447	0.270982
F233	F	1.575337	-0.746113	0.604315
F234	F	1.908670	-0.412780	0.937649
F235	F	0.444188	-0.431005	0.253932
F236	F	0.777521	-0.097672	0.587266
F237	F	1.110854	0.235662	0.920599
H238	H	1.222582	-0.937211	0.290269
H239	H	1.555916	-0.603878	0.623603
H240	H	1.889249	-0.270544	0.956936
H241	H	1.072069	-0.605741	0.440358
H242	H	1.405402	-0.272408	0.773691
H243	H	1.738735	0.060925	1.107024
F244	F	0.866266	-0.430968	0.253881
F245	F	1.199599	-0.097635	0.587214
F246	F	1.532933	0.235699	0.920547
F247	F	0.857603	-0.245744	0.470324
F248	F	1.190936	0.087589	0.803657
F249	F	1.524270	0.420923	1.136990
F250	F	1.066368	-0.747978	0.446145
F251	F	1.399701	-0.414644	0.779479
F252	F	1.733034	-0.081311	1.112812
H253	H	1.260730	-0.738777	0.252045
H254	H	1.594063	-0.405443	0.585378
H255	H	1.927397	-0.072110	0.918711
H256	H	1.254320	-0.605702	0.258360
H257	H	1.587653	-0.272369	0.591693
H258	H	1.920986	0.060965	0.925027
F259	F	1.249835	-0.245585	0.655944
F260	F	1.583168	0.087749	0.989278
F261	F	1.916502	0.421082	1.322611
