data_functionalizedCrystal
_audit_creation_method	'MofGen! by Chris Wilmer'
_symmetry_space_group_name_H-M	'P1'
_symmetry_Int_Tables_number	1
_symmetry_cell_setting	triclinic
loop_
_symmetry_equiv_pos_as_xyz
  x,y,z
_cell_length_a	8.559649
_cell_length_b	10.489741
_cell_length_c	7.681481
_cell_angle_alpha	84.199479
_cell_angle_beta	94.913240
_cell_angle_gamma	77.158919
loop_
_atom_site_label
_atom_site_type_symbol
_atom_site_fract_x
_atom_site_fract_y
_atom_site_fract_z
O1	O	2.104681	-0.029684	-0.146400
O2	O	1.640234	0.036114	-0.146410
O3	O	1.883027	-0.183496	-0.146394
O4	O	1.861888	0.189927	-0.146416
O5	O	1.912910	-0.210581	0.146465
O6	O	1.670117	0.009029	0.146450
O7	O	2.134565	-0.056769	0.146459
Zn8	Zn	1.907085	-0.028170	0.192952
Zn9	Zn	1.867713	0.007516	-0.192903
O10	O	1.891771	0.162842	0.146444
C11	C	1.595703	0.027558	0.000019
C12	C	1.418493	0.042401	0.000015
C13	C	1.896372	-0.244402	0.000034
C14	C	1.891596	-0.385529	0.000031
C15	C	1.737113	-0.437401	0.000015
C16	C	1.824822	-0.550562	0.144412
C17	C	1.795396	-0.523837	-0.144325
C18	C	1.979381	-0.496842	0.144547
C19	C	1.949920	-0.470093	-0.144320
C20	C	2.037746	-0.583242	0.000112
C21	C	2.179095	-0.048212	0.000027
C22	C	2.356304	-0.063054	0.000019
C23	C	1.878426	0.223748	0.000011
C24	C	1.883201	0.364876	0.000003
N25	N	1.933968	-0.052526	0.456288
N26	N	1.840843	0.031861	-0.456239
H27	H	1.438631	-0.164693	0.000016
H28	H	2.002772	-0.434635	-0.266400
H29	H	1.771914	-0.585981	0.266486
H30	H	2.164882	-0.646059	0.000195
H31	H	2.029047	-0.138659	0.531500
O32	O	2.072304	-0.481621	0.290169
C33	C	2.201764	-0.429263	0.238650
H34	H	2.168793	-0.375426	0.099301
H35	H	2.227709	-0.357338	0.332864
H36	H	2.313472	-0.512682	0.242127
O37	O	1.727228	0.134569	0.454249
C38	C	1.573493	0.125305	0.499161
H39	H	1.586608	0.063908	0.633066
H40	H	1.496769	0.228233	0.505286
H41	H	1.512787	0.076287	0.395450
O42	O	1.320314	0.163726	-0.000308
C43	C	1.334684	0.246148	-0.151962
H44	H	1.380091	0.183154	-0.257967
H45	H	1.211903	0.313418	-0.202883
H46	H	1.423676	0.308520	-0.117668
O47	O	1.702542	-0.538890	-0.290097
C48	C	1.640670	-0.415275	-0.391432
H49	H	1.721090	-0.345601	-0.359384
H50	H	1.637560	-0.427705	-0.537327
H51	H	1.513333	-0.372560	-0.359532
O52	O	1.585612	-0.362302	0.000486
C53	C	1.520311	-0.403405	0.152995
H54	H	1.622355	-0.455532	0.258878
H55	H	1.444340	-0.313887	0.203387
H56	H	1.441433	-0.474029	0.120045
