data_functionalizedCrystal
_audit_creation_method	'MofGen! by Chris Wilmer'
_symmetry_space_group_name_H-M	'P1'
_symmetry_Int_Tables_number	1
_symmetry_cell_setting	triclinic
loop_
_symmetry_equiv_pos_as_xyz
  x,y,z
_cell_length_a	15.298068
_cell_length_b	13.897448
_cell_length_c	15.296720
_cell_angle_alpha	80.353909
_cell_angle_beta	91.645182
_cell_angle_gamma	99.677554
loop_
_atom_site_label
_atom_site_type_symbol
_atom_site_fract_x
_atom_site_fract_y
_atom_site_fract_z
Zn1	Zn	1.253399	-0.286946	0.727368
Zn2	Zn	1.278671	-0.416492	0.580901
Zn3	Zn	1.132279	-0.277573	0.555535
Zn4	Zn	1.106904	-0.470567	0.701925
O5	O	1.192813	-0.362894	0.641432
O6	O	1.379326	-0.285422	0.729203
O7	O	1.280447	-0.371511	0.454974
O8	O	1.148389	-0.143833	0.578361
O9	O	1.397893	-0.380599	0.621594
O10	O	1.237376	-0.150719	0.704606
O11	O	1.172894	-0.269448	0.436338
O12	O	1.006338	-0.321882	0.553690
O13	O	1.105142	-0.472762	0.827862
O14	O	0.987696	-0.463674	0.661242
O15	O	1.212771	-0.337857	0.846555
O16	O	1.255843	-0.558649	0.596923
O17	O	1.129646	-0.598377	0.685839
C18	C	0.965235	-0.397630	0.601953
C19	C	0.867872	-0.412517	0.585085
C20	C	0.554697	-0.256733	0.761996
C21	C	0.646173	-0.242749	0.777850
C22	C	0.701602	-0.285189	0.729660
C23	C	0.665546	-0.341617	0.665613
C24	C	0.574060	-0.355609	0.649763
C25	C	0.720966	-0.384065	0.617427
C26	C	0.684910	-0.440493	0.553380
C27	C	0.593432	-0.454481	0.537532
C28	C	0.538003	-0.412041	0.585722
C29	C	0.812452	-0.370074	0.633277
C30	C	0.831815	-0.468949	0.521044
C31	C	0.740339	-0.482933	0.505190
C32	C	1.192754	-0.613513	0.641396
C33	C	1.192803	-0.720723	0.641423
C34	C	1.192886	-0.917016	0.641494
C35	C	1.192837	-0.807786	0.641457
C36	C	1.421281	-0.328024	0.681066
C37	C	1.518640	-0.313165	0.697955
C38	C	1.153307	-0.412387	0.869876
C39	C	1.136472	-0.433477	0.967225
C40	C	1.192894	-0.111298	0.641492
C41	C	1.192928	-0.004082	0.641518
C42	C	1.232217	-0.313517	0.413886
C43	C	1.249221	-0.292129	0.316567
C44	C	1.313171	-0.211983	1.280567
C45	C	1.328994	-0.192168	1.189104
C46	C	1.280864	-0.252493	1.133630
C47	C	1.216910	-0.332637	1.169628
C48	C	1.201090	-0.352459	1.261101
C49	C	1.168784	-0.392969	1.114164
C50	C	1.104829	-0.473114	1.150162
C51	C	1.089011	-0.492931	1.241626
C52	C	1.137141	-0.432606	1.297100
C53	C	1.184603	-0.373148	1.022691
C54	C	1.072522	-0.513624	1.003224
C55	C	1.056699	-0.533439	1.094688
H56	H	0.710969	-0.528878	0.453044
C57	C	0.685829	-0.180671	0.848292
N58	N	0.715698	-0.133907	0.901349
C59	C	0.493722	-0.210041	0.814986
N60	N	0.447794	-0.174862	0.854897
C61	C	1.399334	-0.104004	1.149511
N62	N	1.452315	-0.037592	1.119689
C63	C	0.892784	-0.515635	0.468029
N64	N	0.938711	-0.550796	0.428103
C65	C	0.437372	-0.427419	0.568285
N66	N	0.361576	-0.439000	0.555154
C67	C	0.553774	-0.516553	0.467079
N68	N	0.523905	-0.563302	0.414010
C69	C	1.019575	-0.579985	0.942206
N70	N	0.979699	-0.629964	0.896242
C71	C	1.254947	-0.284985	0.983102
N72	N	1.307931	-0.218573	0.953286
H73	H	1.352355	-0.162879	1.325743
C74	C	0.852103	-0.307997	0.703721
N75	N	0.881968	-0.261234	0.756782
C76	C	1.119751	-0.454410	1.397719
N77	N	1.106660	-0.470835	1.473508
C78	C	1.018663	-0.581096	1.281222
N79	N	0.965674	-0.647501	1.311044
C80	C	0.986349	-0.621594	1.134298
N81	N	0.933360	-0.687992	1.164133
H82	H	1.293752	-0.236355	1.059157
H83	H	0.776086	-0.273797	0.742569
