data_functionalizedCrystal
_audit_creation_method	'MofGen! by Chris Wilmer'
_symmetry_space_group_name_H-M	'P1'
_symmetry_Int_Tables_number	1
_symmetry_cell_setting	triclinic
loop_
_symmetry_equiv_pos_as_xyz
  x,y,z
_cell_length_a	6.817900
_cell_length_b	11.102188
_cell_length_c	14.858572
_cell_angle_alpha	93.467807
_cell_angle_beta	104.524003
_cell_angle_gamma	108.603875
loop_
_atom_site_label
_atom_site_type_symbol
_atom_site_fract_x
_atom_site_fract_y
_atom_site_fract_z
V1	V	-4.064538	-0.176639	-0.289960
O2	O	-4.024475	0.007665	-0.284441
O3	O	-4.041627	-0.349453	-0.287977
O4	O	-4.020828	-0.174283	-0.416422
O5	O	-4.045417	-0.168718	-0.155107
V6	V	-4.544255	-0.154551	-0.273831
O7	O	-4.334144	-0.225089	-0.325342
O8	O	-4.724846	-0.106100	-0.238449
O9	O	-4.343960	0.018263	-0.275814
O10	O	-4.701715	-0.338855	-0.279350
O11	O	-4.680772	-0.162472	-0.408684
O12	O	-4.364758	-0.156907	-0.147369
C13	C	-3.892677	-0.391570	-0.283403
C14	C	-3.955262	-0.532851	-0.282625
C15	C	-3.938296	-0.580841	-0.197095
C16	C	-3.997125	-0.713590	-0.196367
C17	C	-4.089878	-0.750350	-0.366706
C18	C	-4.031063	-0.617603	-0.367434
C19	C	-4.139577	-0.877091	-0.096035
C20	C	-4.122575	-0.925082	-0.010500
C21	C	-3.944737	-0.861606	0.067442
C22	C	-3.783850	-0.750137	0.059853
C23	C	-3.800837	-0.702151	-0.025683
C24	C	-3.978720	-0.765627	-0.103623
C25	C	-3.888591	-0.454098	-0.467759
C26	C	-3.905563	-0.406110	-0.553296
C27	C	-4.083392	-0.469585	-0.631245
C28	C	-4.244255	-0.581059	-0.623665
C29	C	-4.227283	-0.629048	-0.538128
C30	C	-4.049454	-0.565563	-0.460179
C31	C	-3.866145	-0.168121	-0.447246
C32	C	-3.911859	-0.167339	-0.550629
C33	C	-4.079177	-0.164478	-0.929197
C34	C	-4.032615	-0.165274	-0.823868
C35	C	-3.995520	-0.165909	-0.739916
C36	C	-3.948955	-0.166703	-0.634580
C37	C	-4.156253	0.060374	-0.280385
C38	C	-4.072906	0.201653	-0.281170
C39	C	-4.182784	-0.163072	-0.116540
C40	C	-4.116307	-0.163849	-0.013156
H41	H	-4.284412	-0.928775	-0.159492
C42	C	-3.623897	-0.579541	-0.034039
C43	C	-3.496496	-0.584348	-0.105534
C44	C	-3.319558	-0.461729	-0.113886
C45	C	-3.270022	-0.334303	-0.050742
C46	C	-3.397425	-0.329490	0.020759
C47	C	-3.574363	-0.452109	0.029110
H48	H	-3.533163	-0.678682	-0.152282
H49	H	-3.225246	-0.465292	-0.166815
H50	H	-3.139042	-0.243533	-0.056924
H51	H	-3.360758	-0.235157	0.067506
H52	H	-3.668675	-0.448546	0.082040
H53	H	-3.639032	-0.698469	0.123321
H54	H	-3.930899	-0.900691	0.137086
C55	C	-4.173236	-0.843579	-0.459992
C56	C	-4.237920	-0.989595	-0.459198
C57	C	-4.321270	-1.082821	-0.552485
C58	C	-4.339937	-1.030030	-0.646568
C59	C	-4.275252	-0.884006	-0.647366
C60	C	-4.191901	-0.790780	-0.554078
H61	H	-4.224103	-1.028681	-0.389549
H62	H	-4.369155	-1.190918	-0.551894
H63	H	-4.401638	-1.099042	-0.715625
H64	H	-4.289069	-0.844920	-0.717015
H65	H	-4.144017	-0.682683	-0.554669
H66	H	-4.253585	-1.015843	-0.004327
H67	H	-4.358275	-0.719820	-0.531961
C68	C	-4.102061	-0.416809	-0.725343
C69	C	-3.925739	-0.404184	-0.775394
C70	C	-3.944418	-0.351416	-0.869491
C71	C	-4.139419	-0.311274	-0.913536
C72	C	-4.315754	-0.323898	-0.863484
C73	C	-4.297075	-0.376666	-0.769388
H74	H	-3.781376	-0.433900	-0.742790
H75	H	-3.813883	-0.342071	-0.906542
H76	H	-4.153246	-0.272213	-0.983192
H77	H	-4.460117	-0.294182	-0.896089
H78	H	-4.427611	-0.386011	-0.732336
H79	H	-4.389052	-0.632748	-0.687139
H80	H	-3.774554	-0.315349	-0.559467
H81	H	-3.743779	-0.402402	-0.404289
H82	H	-3.876576	-0.511838	-0.128038
