data_functionalizedCrystal
_audit_creation_method	'MofGen! by Chris Wilmer'
_symmetry_space_group_name_H-M	'P1'
_symmetry_Int_Tables_number	1
_symmetry_cell_setting	triclinic
loop_
_symmetry_equiv_pos_as_xyz
  x,y,z
_cell_length_a	12.594517
_cell_length_b	12.594516
_cell_length_c	13.897441
_cell_angle_alpha	90.028053
_cell_angle_beta	90.023088
_cell_angle_gamma	90.011248
loop_
_atom_site_label
_atom_site_type_symbol
_atom_site_fract_x
_atom_site_fract_y
_atom_site_fract_z
Zn1	Zn	1.627308	-0.423724	0.545459
Zn2	Zn	1.627209	-0.601735	0.384167
Zn3	Zn	1.449309	-0.423769	0.384171
Zn4	Zn	1.449307	-0.601659	0.545413
O5	O	1.538283	-0.512722	0.464803
O6	O	1.776240	-0.447351	0.524081
O7	O	1.603569	-0.578178	0.249186
O8	O	1.472963	-0.274817	0.405586
O9	O	1.776168	-0.578134	0.405581
O10	O	1.603738	-0.274784	0.524084
O11	O	1.472867	-0.447427	0.249188
O12	O	1.300363	-0.447354	0.405542
O13	O	1.472959	-0.578005	0.680401
O14	O	1.300361	-0.578049	0.524006
O15	O	1.603736	-0.447277	0.680435
O16	O	1.603568	-0.750671	0.405537
O17	O	1.472864	-0.750615	0.524003
C18	C	1.261742	-0.512699	0.464770
C19	C	1.143437	-0.512715	0.464779
C20	C	1.003390	-0.441551	0.400494
C21	C	1.074248	-0.415618	0.488514
C22	C	1.074150	-0.538600	0.376769
C23	C	1.003509	-0.486773	0.552917
C24	C	1.003405	-0.609800	0.441112
C25	C	1.074231	-0.583904	0.529193
C26	C	1.538234	-0.789263	0.464786
C27	C	1.538310	-0.907568	0.464811
C28	C	1.609482	-0.976813	0.400446
C29	C	1.635494	-1.047509	0.488487
C30	C	1.512431	-1.047671	0.376825
C31	C	1.564372	-0.976706	0.552899
C32	C	1.441263	-0.976862	0.441177
C33	C	1.467238	-1.047526	0.529280
C34	C	1.815904	-0.512746	0.464836
C35	C	1.934209	-0.512756	0.464850
C36	C	1.538358	-0.512628	0.716396
C37	C	1.538391	-0.512588	0.823610
C38	C	1.538361	-0.235101	0.464841
C39	C	1.538395	-0.116796	0.464857
C40	C	1.538269	-0.512739	0.214188
C41	C	1.538443	-0.512479	0.106975
C42	C	1.538419	-0.512516	1.019905
C43	C	1.538400	-0.512559	0.910672
H44	H	1.105138	-0.644102	0.583649
N45	N	0.964346	-0.712747	0.415915
N46	N	0.986917	-0.752271	0.335980
H47	H	0.959331	-0.824978	0.318174
N48	N	1.592016	-0.937764	0.646286
N49	N	1.672184	-0.880381	0.656760
H50	H	1.691714	-0.852875	0.722712
H51	H	1.669680	-0.945763	0.346063
H52	H	1.490507	-1.078841	0.302398
N53	N	1.391781	-1.086224	0.597672
N54	N	1.401464	-1.063238	0.684742
H55	H	1.348176	-1.090569	0.733047
H56	H	1.105347	-0.333528	0.508579
H57	H	0.972608	-0.464800	0.627397
H58	H	1.717601	-1.078545	0.508503
H59	H	1.359180	-0.945803	0.421136
H60	H	0.972288	-0.381308	0.346167
H61	H	1.105183	-0.560476	0.302309
