data_functionalizedCrystal
_audit_creation_method	'MofGen! by Chris Wilmer'
_symmetry_space_group_name_H-M	'P1'
_symmetry_Int_Tables_number	1
_symmetry_cell_setting	triclinic
loop_
_symmetry_equiv_pos_as_xyz
  x,y,z
_cell_length_a	11.792254
_cell_length_b	9.616153
_cell_length_c	11.792241
_cell_angle_alpha	89.997612
_cell_angle_beta	95.803993
_cell_angle_gamma	90.006826
loop_
_atom_site_label
_atom_site_type_symbol
_atom_site_fract_x
_atom_site_fract_y
_atom_site_fract_z
O1	O	1.506905	0.115645	-0.155632
O2	O	1.176565	0.115648	-0.171650
O3	O	1.349751	0.115637	0.001529
O4	O	1.333719	0.115656	-0.328811
O5	O	1.349728	-0.115655	0.001526
O6	O	1.176542	-0.115643	-0.171653
O7	O	1.506881	-0.115646	-0.155635
Zn8	Zn	1.341707	-0.152367	-0.163645
Zn9	Zn	1.341739	0.152369	-0.163640
O10	O	1.333695	-0.115635	-0.328815
C11	C	1.134263	0.000003	-0.170642
C12	C	1.008250	0.000004	-0.167622
N13	N	1.341694	-0.360342	-0.163648
C14	C	0.905913	0.000010	-0.165168
C15	C	0.777527	0.000010	-0.162100
C16	C	1.248770	-0.580706	-0.255978
C17	C	1.248973	-0.419538	-0.256322
C18	C	1.460285	-0.418791	-0.190250
C19	C	1.459778	-0.580008	-0.190903
C20	C	1.317210	-0.580260	-0.044409
C21	C	1.314484	-0.419033	-0.045191
C22	C	1.549183	0.000002	-0.156643
C23	C	1.675196	0.000010	-0.159663
C24	C	1.348732	-0.000008	0.043819
C25	C	1.345718	-0.000007	0.169832
N26	N	1.341761	0.360344	-0.163629
C27	C	1.334714	0.000013	-0.371104
C28	C	1.337728	0.000021	-0.497118
C29	C	1.340175	0.000016	0.400545
C30	C	1.343255	0.000004	0.272160
H31	H	1.160846	-0.380024	-0.240363
H32	H	1.482296	-0.378395	-0.276234
H33	H	1.385015	-0.618381	0.024322
O34	O	1.210413	-0.373635	-0.020960
C35	C	1.186902	-0.426921	0.085571
H36	H	1.239652	-0.524807	0.105704
H37	H	1.209631	-0.345676	0.154546
C38	C	0.994470	-0.342427	0.056842
C39	C	1.059252	-0.462658	0.081565
H40	H	0.915729	-0.364466	0.054375
H41	H	1.010310	-0.306522	-0.014928
H42	H	1.013424	-0.274734	0.114325
H43	H	1.040308	-0.530342	0.024076
H44	H	1.043405	-0.498576	0.153326
H45	H	1.531158	-0.380442	-0.124810
H46	H	1.377752	-0.378743	0.026806
O47	O	1.143214	-0.626825	-0.237380
C48	C	1.061900	-0.572197	-0.321539
H49	H	1.096933	-0.473474	-0.358626
H50	H	1.042828	-0.652164	-0.392272
C51	C	0.908491	-0.659110	-0.222275
C52	C	0.951515	-0.537851	-0.267819
H53	H	0.840398	-0.637929	-0.189141
H54	H	0.963273	-0.695920	-0.165577
H55	H	0.892606	-0.725738	-0.281227
H56	H	0.967412	-0.471232	-0.208865
H57	H	0.896733	-0.501029	-0.324506
H58	H	1.264310	-0.621199	-0.343934
H59	H	1.481300	-0.617591	-0.277872
O60	O	1.267558	-0.373430	-0.361884
C61	C	1.174194	-0.292065	-0.406884
H62	H	1.095530	-0.321402	-0.363369
H63	H	1.194451	-0.177316	-0.391248
C64	C	1.247720	-0.282532	-0.589387
C65	C	1.151102	-0.318573	-0.535948
H66	H	1.233478	-0.298878	-0.669001
H67	H	1.310624	-0.337345	-0.559070
H68	H	1.264591	-0.186910	-0.576346
H69	H	1.134241	-0.414197	-0.548978
H70	H	1.088194	-0.263777	-0.566271
H71	H	1.232580	-0.620998	-0.019010
O72	O	1.544780	-0.626386	-0.113613
C73	C	1.526645	-0.577262	-0.004250
H74	H	1.470964	-0.480178	-0.012752
H75	H	1.482220	-0.661125	0.043387
C76	C	1.710449	-0.660701	0.072794
C77	C	1.642068	-0.541453	0.062350
H78	H	1.781647	-0.638618	0.113879
H79	H	1.722666	-0.693802	-0.000886
H80	H	1.673415	-0.730575	0.112487
H81	H	1.679095	-0.471588	0.022645
H82	H	1.629860	-0.508339	0.136025
