data_functionalizedCrystal
_audit_creation_method	'MofGen! by Chris Wilmer'
_symmetry_space_group_name_H-M	'P1'
_symmetry_Int_Tables_number	1
_symmetry_cell_setting	triclinic
loop_
_symmetry_equiv_pos_as_xyz
  x,y,z
_cell_length_a	21.295419
_cell_length_b	21.295418
_cell_length_c	11.169409
_cell_angle_alpha	89.960289
_cell_angle_beta	89.976836
_cell_angle_gamma	90.042201
loop_
_atom_site_label
_atom_site_type_symbol
_atom_site_fract_x
_atom_site_fract_y
_atom_site_fract_z
Zn1	Zn	0.962361	-0.250310	-0.678588
Zn2	Zn	0.962271	-0.355598	-0.477880
Zn3	Zn	0.857086	-0.250374	-0.477911
Zn4	Zn	0.857059	-0.355572	-0.678513
O5	O	0.909694	-0.302963	-0.578223
O6	O	1.050438	-0.264260	-0.651983
O7	O	0.948292	-0.341677	-0.309934
O8	O	0.871100	-0.162276	-0.504576
O9	O	1.050373	-0.341615	-0.504523
O10	O	0.948445	-0.162229	-0.652013
O11	O	0.871013	-0.264369	-0.309957
O12	O	0.768993	-0.264344	-0.504503
O13	O	0.871053	-0.341571	-0.846473
O14	O	0.768973	-0.341633	-0.651884
O15	O	0.948418	-0.264235	-0.846528
O16	O	0.948266	-0.443684	-0.504449
O17	O	0.870967	-0.443665	-0.651853
C18	C	0.746143	-0.302993	-0.578189
C19	C	0.676175	-0.303022	-0.578203
C20	C	0.643365	-0.262809	-0.655104
C21	C	0.577622	-0.262792	-0.655109
C22	C	0.544692	-0.302999	-0.578225
C23	C	0.577510	-0.343215	-0.501309
C24	C	0.643251	-0.343226	-0.501298
N25	N	0.441420	-0.358078	-0.568848
N26	N	0.378968	-0.358065	-0.568866
C27	C	0.346617	-0.302966	-0.578252
N28	N	0.379077	-0.247879	-0.587643
N29	N	0.441534	-0.247892	-0.587632
C30	C	0.473407	-0.302991	-0.578228
C31	C	0.242522	-0.262732	-0.655162
C32	C	0.176778	-0.262714	-0.655158
C33	C	0.176667	-0.343142	-0.501365
C34	C	0.242410	-0.343155	-0.501362
C35	C	0.275333	-0.302950	-0.578267
C36	C	0.909621	-0.466515	-0.578166
C37	C	0.909647	-0.536483	-0.578181
C38	C	0.950095	-1.035930	-0.501663
C39	C	0.950071	-0.970187	-0.501635
C40	C	0.909783	-0.937322	-0.578307
C41	C	0.869504	-0.970205	-0.654992
C42	C	0.869525	-1.035947	-0.655009
N43	N	0.904893	-0.834062	-0.683327
N44	N	0.904877	-0.771610	-0.683307
C45	C	0.909717	-0.739248	-0.578257
N46	N	0.914587	-0.771696	-0.473225
N47	N	0.914606	-0.834153	-0.473246
C48	C	0.909756	-0.866037	-0.578296
C49	C	0.949964	-0.635087	-0.501540
C50	C	0.949936	-0.569343	-0.501510
C51	C	0.869373	-0.569363	-0.654877
C52	C	0.869398	-0.635105	-0.654897
C53	C	0.909697	-0.667963	-0.578230
C54	C	1.073885	-0.302933	-0.578257
C55	C	1.143853	-0.302921	-0.578272
C56	C	0.909743	-0.302893	-0.891266
C57	C	0.909763	-0.302864	-1.024666
C58	C	0.909785	-0.138773	-0.578307
C59	C	0.909824	-0.068805	-0.578342
C60	C	0.909682	-0.302987	-0.266398
C61	C	0.909784	-0.302840	-0.132999
H62	H	0.669965	-0.375973	-0.438674
C63	C	0.278740	-0.218505	-0.739742
H64	H	0.249781	-0.194546	-0.785532
H65	H	0.304376	-0.242620	-0.791950
H66	H	0.304400	-0.191054	-0.693916
H67	H	0.982778	-0.661842	-0.439112
H68	H	0.150065	-0.229964	-0.717778
H69	H	0.269124	-0.375903	-0.438746
C70	C	0.825230	-1.072111	-0.739369
H71	H	0.801234	-1.043124	-0.785035
H72	H	0.797826	-1.097809	-0.693420
H73	H	0.849310	-1.097704	-0.791720
C74	C	0.140452	-0.387372	-0.416799
H75	H	0.096599	-0.381610	-0.427824
H76	H	0.151213	-0.378119	-0.336188
H77	H	0.151193	-0.429681	-0.434231
H78	H	0.982908	-1.062679	-0.439231
C79	C	0.994375	-0.934017	-0.417292
H80	H	1.018381	-0.963002	-0.371641
H81	H	0.970307	-0.908416	-0.364945
H82	H	1.021779	-0.908326	-0.463267
H83	H	0.836700	-0.943443	-0.717418
C84	C	0.825053	-0.533222	-0.739213
H85	H	0.801069	-0.562220	-0.784882
H86	H	0.849106	-0.507526	-0.791544
H87	H	0.797628	-0.507629	-0.693233
C88	C	0.994237	-0.533180	-0.417159
H89	H	1.018243	-0.562168	-0.371514
H90	H	0.970168	-0.507584	-0.364808
H91	H	1.021642	-0.507486	-0.463127
H92	H	0.836607	-0.661872	-0.717341
C93	C	0.679577	-0.218578	-0.739681
H94	H	0.650617	-0.194621	-0.785473
H95	H	0.705217	-0.242689	-0.791887
H96	H	0.705232	-0.191124	-0.693849
C97	C	0.541520	-0.218559	-0.739705
H98	H	0.497652	-0.224309	-0.728691
H99	H	0.552306	-0.227824	-0.820309
H100	H	0.552326	-0.176252	-0.722286
C101	C	0.541290	-0.387444	-0.416744
H102	H	0.497437	-0.381683	-0.427774
H103	H	0.552049	-0.378187	-0.336134
H104	H	0.552032	-0.429753	-0.434170
