data_functionalizedCrystal
_audit_creation_method	'MofGen! by Chris Wilmer'
_symmetry_space_group_name_H-M	'P1'
_symmetry_Int_Tables_number	1
_symmetry_cell_setting	triclinic
loop_
_symmetry_equiv_pos_as_xyz
  x,y,z
_cell_length_a	10.723024
_cell_length_b	13.101039
_cell_length_c	10.723024
_cell_angle_alpha	93.395424
_cell_angle_beta	95.532131
_cell_angle_gamma	93.389393
loop_
_atom_site_label
_atom_site_type_symbol
_atom_site_fract_x
_atom_site_fract_y
_atom_site_fract_z
O1	O	1.663994	0.085205	-0.168199
O2	O	1.300842	0.085208	-0.184952
O3	O	1.490794	0.085203	0.005000
O4	O	1.474041	0.085211	-0.358152
O5	O	1.477165	-0.085226	-0.008651
O6	O	1.287213	-0.085221	-0.198604
O7	O	1.650365	-0.085224	-0.181851
Zn8	Zn	1.466625	-0.112282	-0.192395
Zn9	Zn	1.484582	0.112266	-0.174408
O10	O	1.460413	-0.085219	-0.371803
C11	C	1.247528	-0.000006	-0.190559
C12	C	1.108974	-0.000005	-0.186911
N13	N	1.454380	-0.265530	-0.204669
C14	C	1.033991	-0.000002	-0.293198
C15	C	0.890788	-0.000000	-0.289431
C16	C	1.437719	-0.474572	-0.221381
C17	C	1.513494	-0.525450	-0.145416
C18	C	1.504223	-0.641768	-0.154715
C19	C	1.446988	-0.358244	-0.212084
C20	C	1.703679	-0.000008	-0.176244
C21	C	1.842234	-0.000002	-0.179891
C22	C	1.482761	-0.000011	0.044674
C23	C	1.479113	-0.000007	0.183229
N24	N	1.496837	0.265514	-0.162124
C25	C	1.468446	-0.000003	-0.411477
C26	C	1.472094	0.000000	-0.550031
C27	C	1.585401	-0.000006	0.258211
C28	C	1.581634	-0.000003	0.401415
H29	H	1.075813	-0.000006	-0.386985
O30	O	1.352139	-0.526974	-0.307269
C31	C	1.264687	-0.692381	-0.394877
C32	C	1.361674	-0.633149	-0.297570
H33	H	1.272345	-0.778234	-0.387051
H34	H	1.283626	-0.671435	-0.493311
H35	H	1.166215	-0.671314	-0.376246
H36	H	1.460184	-0.654184	-0.316084
H37	H	1.342626	-0.654100	-0.199169
H38	H	1.672624	-0.000007	0.465847
H39	H	1.385328	0.000001	0.225051
H40	H	1.381098	-0.000007	0.385543
H41	H	0.826356	0.000006	-0.380421
H42	H	1.067153	0.000020	-0.093123
O43	O	1.697226	0.000128	0.208192
C44	C	1.839806	0.088452	0.084280
C45	C	1.713116	0.088415	0.140826
H46	H	1.852705	0.159835	0.029824
H47	H	1.841327	0.017176	0.018220
H48	H	1.919224	0.088403	0.163022
H49	H	1.633627	0.088500	0.062168
H50	H	1.711703	0.159685	0.206918
O51	O	0.918945	-0.000140	-0.071256
C52	C	0.975772	-0.088467	0.114646
C53	C	0.888784	-0.088428	-0.008330
H54	H	0.951435	-0.159851	0.165543
H55	H	0.962788	-0.017192	0.177145
H56	H	1.077564	-0.088416	0.092240
H57	H	0.786958	-0.088515	0.013959
H58	H	0.901877	-0.159697	-0.070793
O59	O	1.598935	-0.473047	-0.059378
C60	C	1.685782	-0.307648	0.028857
C61	C	1.589138	-0.366871	-0.068799
H62	H	1.677875	-0.221795	0.021291
H63	H	1.784443	-0.328434	0.010553
H64	H	1.666513	-0.328884	0.127095
H65	H	1.608289	-0.345667	-0.167075
H66	H	1.490508	-0.346080	-0.050385
