data_functionalizedCrystal
_audit_creation_method	'MofGen! by Chris Wilmer'
_symmetry_space_group_name_H-M	'P1'
_symmetry_Int_Tables_number	1
_symmetry_cell_setting	triclinic
loop_
_symmetry_equiv_pos_as_xyz
  x,y,z
_cell_length_a	21.395362
_cell_length_b	16.120484
_cell_length_c	16.120728
_cell_angle_alpha	84.367400
_cell_angle_beta	87.131132
_cell_angle_gamma	92.942400
loop_
_atom_site_label
_atom_site_type_symbol
_atom_site_fract_x
_atom_site_fract_y
_atom_site_fract_z
Zn1	Zn	0.925525	-0.356589	0.489864
Zn2	Zn	1.175525	-0.106589	0.739864
Zn3	Zn	1.425525	0.143411	0.989864
Zn4	Zn	1.675525	0.393411	1.239864
Zn5	Zn	0.925467	-0.489235	0.357173
Zn6	Zn	1.175467	-0.239235	0.607173
Zn7	Zn	1.425467	0.010765	0.857173
Zn8	Zn	1.675467	0.260765	1.107173
Zn9	Zn	0.826366	-0.349513	0.350065
Zn10	Zn	1.076366	-0.099513	0.600065
Zn11	Zn	1.326366	0.150487	0.850065
Zn12	Zn	1.576366	0.400487	1.100065
Zn13	Zn	0.815125	-0.496360	0.496849
Zn14	Zn	1.065125	-0.246360	0.746849
Zn15	Zn	1.315125	0.003640	0.996849
Zn16	Zn	1.565125	0.253640	1.246849
O17	O	0.873121	-0.422924	0.423488
O18	O	1.123121	-0.172924	0.673488
O19	O	1.373121	0.077076	0.923488
O20	O	1.623121	0.327076	1.173488
O21	O	1.013194	-0.374164	0.472314
O22	O	1.263194	-0.124164	0.722314
O23	O	1.513194	0.125836	0.972314
O24	O	1.763194	0.375836	1.222314
O25	O	0.917001	-0.464757	0.239268
O26	O	1.167001	-0.214757	0.489268
O27	O	1.417001	0.035243	0.739268
O28	O	1.667001	0.285243	0.989268
O29	O	0.844249	-0.233483	0.362712
O30	O	1.094249	0.016517	0.612712
O31	O	1.344249	0.266517	0.862712
O32	O	1.594249	0.516517	1.112712
O33	O	1.013151	-0.471618	0.374826
O34	O	1.263151	-0.221618	0.624826
O35	O	1.513151	0.028382	0.874826
O36	O	1.763151	0.278382	1.124826
O37	O	0.917100	-0.238681	0.465422
O38	O	1.167100	0.011319	0.715422
O39	O	1.417100	0.261319	0.965422
O40	O	1.667100	0.511319	1.215422
O41	O	0.844192	-0.362104	0.234046
O42	O	1.094192	-0.112104	0.484046
O43	O	1.344192	0.137896	0.734046
O44	O	1.594192	0.387896	0.984046
O45	O	0.737198	-0.369013	0.369485
O46	O	0.987198	-0.119013	0.619485
O47	O	1.237198	0.130987	0.869485
O48	O	1.487198	0.380987	1.119485
O49	O	0.825090	-0.483763	0.612884
O50	O	1.075090	-0.233763	0.862884
O51	O	1.325090	0.016237	1.112884
O52	O	1.575090	0.266237	1.362884
O53	O	0.728940	-0.476901	0.477327
O54	O	0.978940	-0.226901	0.727327
O55	O	1.228940	0.023099	0.977327
O56	O	1.478940	0.273099	1.227327
O57	O	0.906200	-0.381073	0.607753
O58	O	1.156200	-0.131073	0.857753
O59	O	1.406200	0.118927	1.107753
O60	O	1.656200	0.368927	1.357753
O61	O	0.906101	-0.607149	0.381599
O62	O	1.156101	-0.357149	0.631599
O63	O	1.406101	-0.107149	0.881599
O64	O	1.656101	0.142851	1.131599
O65	O	0.825034	-0.612384	0.484219
O66	O	1.075034	-0.362384	0.734219
O67	O	1.325034	-0.112384	0.984219
O68	O	1.575034	0.137616	1.234219
C69	C	0.710335	-0.422963	0.423393
C70	C	0.960335	-0.172963	0.673393
C71	C	1.210335	0.077037	0.923393
C72	C	1.460335	0.327037	1.173393
C73	C	0.640693	-0.423001	0.423373
C74	C	0.890693	-0.173001	0.673373
C75	C	1.140693	0.076999	0.923373
C76	C	1.390693	0.326999	1.173373
C77	C	0.864358	-0.640096	0.434456
C78	C	1.114358	-0.390096	0.684456
C79	C	1.364358	-0.140096	0.934456
C80	C	1.614358	0.109904	1.184456
C81	C	0.860665	-0.733004	0.439177
C82	C	1.110665	-0.483004	0.689177
C83	C	1.360665	-0.233004	0.939177
C84	C	1.610665	0.016996	1.189177
C85	C	0.603697	-0.479245	0.479450
C86	C	0.853697	-0.229245	0.729450
C87	C	1.103697	0.020755	0.979450
C88	C	1.353697	0.270755	1.229450
C89	C	0.538261	-0.479227	0.479486
C90	C	0.788261	-0.229227	0.729486
C91	C	1.038261	0.020773	0.979486
C92	C	1.288261	0.270773	1.229486
C93	C	0.509824	-0.422972	0.423431
C94	C	0.759824	-0.172972	0.673431
C95	C	1.009824	0.077028	0.923431
C96	C	1.259824	0.327028	1.173431
C97	C	0.546829	-0.366718	0.367350
C98	C	0.796829	-0.116718	0.617350
C99	C	1.046829	0.133282	0.867350
C100	C	1.296829	0.383282	1.117350
C101	C	0.612264	-0.366732	0.367321
C102	C	0.862264	-0.116732	0.617321
C103	C	1.112264	0.133268	0.867321
C104	C	1.362264	0.383268	1.117321
C105	C	0.409397	-0.412409	0.347846
C106	C	0.659397	-0.162409	0.597846
C107	C	0.909397	0.087591	0.847846
C108	C	1.159397	0.337591	1.097846
C109	C	0.343964	-0.412400	0.347874
C110	C	0.593964	-0.162400	0.597874
C111	C	0.843964	0.087600	0.847874
C112	C	1.093964	0.337600	1.097874
C113	C	0.308002	-0.422922	0.423521
C114	C	0.558002	-0.172922	0.673521
C115	C	0.808002	0.077078	0.923521
C116	C	1.058002	0.327078	1.173521
C117	C	0.337481	-0.433471	0.499144
C118	C	0.587481	-0.183471	0.749144
C119	C	0.837481	0.066529	0.999144
C120	C	1.087481	0.316529	1.249144
C121	C	0.402915	-0.433485	0.499115
C122	C	0.652915	-0.183485	0.749115
C123	C	0.902915	0.066515	0.999115
C124	C	1.152915	0.316515	1.249115
C125	C	0.438872	-0.422950	0.423457
C126	C	0.688872	-0.172950	0.673457
C127	C	0.938872	0.077050	0.923457
C128	C	1.188872	0.327050	1.173457
C129	C	0.200052	-0.479149	0.479642
C130	C	0.450052	-0.229149	0.729642
C131	C	0.700052	0.020851	0.979642
C132	C	0.950052	0.270851	1.229642
C133	C	0.134615	-0.479125	0.479679
C134	C	0.384615	-0.229125	0.729679
C135	C	0.634615	0.020875	0.979679
C136	C	0.884615	0.270875	1.229679
C137	C	0.143184	-0.366620	0.367535
C138	C	0.393184	-0.116620	0.617535
C139	C	0.643184	0.133380	0.867535
C140	C	0.893184	0.383380	1.117535
C141	C	0.208620	-0.366640	0.367505
C142	C	0.458620	-0.116640	0.617505
C143	C	0.708620	0.133360	0.867505
C144	C	0.958620	0.383360	1.117505
C145	C	0.237050	-0.422909	0.423558
C146	C	0.487050	-0.172909	0.673558
C147	C	0.737050	0.077091	0.923558
C148	C	0.987050	0.327091	1.173558
C149	C	0.853926	-0.903109	0.447812
C150	C	1.103926	-0.653109	0.697812
C151	C	1.353926	-0.403109	0.947812
C152	C	1.603926	-0.153109	1.197812
C153	C	0.892428	-0.941899	0.399177
C154	C	1.142428	-0.691899	0.649177
C155	C	1.392428	-0.441899	0.899177
C156	C	1.642428	-0.191899	1.149177
C157	C	0.888678	-1.036551	0.403982
C158	C	1.138678	-0.786551	0.653982
C159	C	1.388678	-0.536551	0.903982
C160	C	1.638678	-0.286551	1.153982
C161	C	0.857674	-0.808449	0.443008
C162	C	1.107674	-0.558449	0.693008
C163	C	1.357674	-0.308449	0.943008
C164	C	1.607674	-0.058449	1.193008
C165	C	1.036542	-0.422885	0.423583
C166	C	1.286542	-0.172885	0.673583
C167	C	1.536542	0.077115	0.923583
C168	C	1.786542	0.327115	1.173583
C169	C	1.106182	-0.422869	0.423624
C170	C	1.356182	-0.172869	0.673624
C171	C	1.606182	0.077131	0.923624
C172	C	1.856182	0.327131	1.173624
C173	C	0.864398	-0.434002	0.641493
C174	C	1.114398	-0.184002	0.891493
C175	C	1.364398	0.065998	1.141493
C176	C	1.614398	0.315998	1.391493
C177	C	0.860681	-0.438723	0.734394
C178	C	1.110681	-0.188723	0.984394
C179	C	1.360681	0.061277	1.234394
C180	C	1.610681	0.311277	1.484394
C181	C	0.881935	-0.204905	0.412495
C182	C	1.131935	0.045095	0.662495
C183	C	1.381935	0.295095	0.912495
C184	C	1.631935	0.545095	1.162495
C185	C	0.885691	-0.111999	0.407810
C186	C	1.135691	0.138001	0.657810
C187	C	1.385691	0.388001	0.907810
C188	C	1.635691	0.638001	1.157810
C189	C	0.853872	-0.447323	0.904484
C190	C	1.103872	-0.197323	1.154484
C191	C	1.353872	0.052677	1.404484
C192	C	1.603872	0.302677	1.654484
C193	C	0.892348	-0.398606	0.943347
C194	C	1.142348	-0.148606	1.193347
C195	C	1.392348	0.101394	1.443347
C196	C	1.642348	0.351394	1.693347
C197	C	0.888559	-0.403391	1.037990
C198	C	1.138559	-0.153391	1.287990
C199	C	1.388559	0.096609	1.537990
C200	C	1.638559	0.346609	1.787990
C201	C	0.857659	-0.442539	0.809832
C202	C	1.107659	-0.192539	1.059832
C203	C	1.357659	0.057461	1.309832
C204	C	1.607659	0.307461	1.559832
C205	C	0.881809	-0.411912	1.206331
C206	C	1.131809	-0.161912	1.456331
C207	C	1.381809	0.088088	1.706331
C208	C	1.631809	0.338088	1.956331
C209	C	0.885541	-0.407203	1.113431
C210	C	1.135541	-0.157203	1.363431
C211	C	1.385541	0.092797	1.613431
C212	C	1.635541	0.342797	1.863431
H213	H	0.626840	-0.525063	0.525093
H214	H	0.876840	-0.275063	0.775093
H215	H	1.126840	-0.025063	1.025093
H216	H	1.376840	0.224937	1.275093
H217	H	0.642387	-0.320929	0.321657
H218	H	0.892387	-0.070929	0.571657
H219	H	1.142387	0.179071	0.821657
H220	H	1.392387	0.429071	1.071657
F221	F	0.095240	-0.538987	0.539371
F222	F	0.345240	-0.288987	0.789371
F223	F	0.595240	-0.038987	1.039371
F224	F	0.845240	0.211013	1.289371
H225	H	0.818089	-0.492622	0.942291
H226	H	1.068089	-0.242622	1.192291
H227	H	1.318089	0.007378	1.442291
H228	H	1.568089	0.257378	1.692291
F229	F	0.807162	-0.952615	0.506947
F230	F	1.057162	-0.702615	0.756947
F231	F	1.307162	-0.452615	1.006947
F232	F	1.557162	-0.202615	1.256947
H233	H	0.120032	-0.320812	0.321898
H234	H	0.370032	-0.070812	0.571898
H235	H	0.620032	0.179188	0.821898
H236	H	0.870032	0.429188	1.071898
H237	H	0.928133	-0.353302	0.905538
H238	H	1.178133	-0.103302	1.155538
H239	H	1.428133	0.146698	1.405538
H240	H	1.678133	0.396698	1.655538
H241	H	0.928207	-0.904021	0.353931
H242	H	1.178207	-0.654021	0.603931
H243	H	1.428207	-0.404021	0.853931
H244	H	1.678207	-0.154021	1.103931
H245	H	0.426915	-0.442072	0.560689
H246	H	0.676915	-0.192072	0.810689
H247	H	0.926915	0.057928	1.060689
H248	H	1.176915	0.307928	1.310689
F249	F	0.498879	-0.539092	0.539174
F250	F	0.748879	-0.289092	0.789174
F251	F	0.998879	-0.039092	1.039174
F252	F	1.248879	0.210908	1.289174
F253	F	0.299213	-0.444666	0.579660
F254	F	0.549213	-0.194666	0.829660
F255	F	0.799213	0.055334	1.079660
F256	F	1.049213	0.305334	1.329660
H257	H	0.223200	-0.524963	0.525287
H258	H	0.473200	-0.274963	0.775287
H259	H	0.723200	-0.024963	1.025287
H260	H	0.973200	0.225037	1.275287
H261	H	0.238743	-0.320844	0.321838
H262	H	0.488743	-0.070844	0.571838
H263	H	0.738743	0.179156	0.821838
H264	H	0.988743	0.429156	1.071838
H265	H	0.319967	-0.403816	0.286297
H266	H	0.569967	-0.153816	0.536297
H267	H	0.819967	0.096184	0.786297
H268	H	1.069967	0.346184	1.036297
H269	H	0.438673	-0.403837	0.286240
H270	H	0.688673	-0.153837	0.536240
H271	H	0.938673	0.096163	0.786240
H272	H	1.188673	0.346163	1.036240
H273	H	0.523672	-0.320913	0.321711
H274	H	0.773672	-0.070913	0.571711
H275	H	1.023672	0.179087	0.821711
H276	H	1.273672	0.429087	1.071711
