data_functionalizedCrystal
_audit_creation_method	'MofGen! by Chris Wilmer'
_symmetry_space_group_name_H-M	'P1'
_symmetry_Int_Tables_number	1
_symmetry_cell_setting	triclinic
loop_
_symmetry_equiv_pos_as_xyz
  x,y,z
_cell_length_a	13.262402
_cell_length_b	12.376457
_cell_length_c	13.339070
_cell_angle_alpha	104.398083
_cell_angle_beta	80.568096
_cell_angle_gamma	85.818796
loop_
_atom_site_label
_atom_site_type_symbol
_atom_site_fract_x
_atom_site_fract_y
_atom_site_fract_z
O1	O	1.381366	-0.330742	-0.204462
O2	O	1.881366	0.169258	0.295538
O3	O	1.093748	-0.242303	-0.201105
O4	O	1.593748	0.257697	0.298895
O5	O	1.204547	-0.276376	-0.053287
O6	O	1.704547	0.223624	0.446713
O7	O	1.270567	-0.296669	-0.352280
O8	O	1.770567	0.203331	0.147720
O9	O	1.176846	-0.455870	-0.090189
O10	O	1.676846	0.044130	0.409811
O11	O	1.066047	-0.421797	-0.238006
O12	O	1.566047	0.078203	0.261994
O13	O	1.353665	-0.510236	-0.241363
O14	O	1.853665	-0.010236	0.258637
Zn15	Zn	1.205458	-0.494515	-0.245544
Zn16	Zn	1.705458	0.005485	0.254456
Zn17	Zn	1.241955	-0.258024	-0.196924
Zn18	Zn	1.741955	0.241976	0.303076
O19	O	1.242866	-0.476163	-0.389181
O20	O	1.742866	0.023837	0.110819
C21	C	1.042334	-0.320500	-0.216349
C22	C	1.542334	0.179500	0.283651
C23	C	0.930402	-0.286082	-0.206780
C24	C	1.430402	0.213918	0.293220
N25	N	1.180557	-0.655916	-0.278725
N26	N	1.680557	-0.155916	0.221275
C27	C	0.892915	-0.172067	-0.182168
C28	C	1.392915	0.327933	0.317832
C29	C	0.787750	-0.139732	-0.173188
C30	C	1.287750	0.360268	0.326812
C31	C	0.720061	-0.221408	-0.188811
C32	C	1.220061	0.278592	0.311189
C33	C	0.757546	-0.335425	-0.213417
C34	C	1.257546	0.164575	0.286583
C35	C	0.862722	-0.367764	-0.222406
C36	C	1.362722	0.132236	0.277594
C37	C	0.689869	-0.417105	-0.229049
C38	C	1.189869	0.082895	0.270951
C39	C	0.727354	-0.531121	-0.253655
C40	C	1.227354	-0.031121	0.246345
C41	C	0.832520	-0.563454	-0.262642
C42	C	1.332520	-0.063454	0.237358
C43	C	0.900209	-0.481778	-0.247018
C44	C	1.400209	0.018222	0.252982
C45	C	0.584692	-0.384766	-0.220061
C46	C	1.084692	0.115234	0.279939
C47	C	0.554500	-0.580462	-0.260299
C48	C	1.054500	-0.080462	0.239701
C49	C	0.659665	-0.612797	-0.269279
C50	C	1.159665	-0.112797	0.230721
C51	C	1.324660	-1.055215	-0.086691
C52	C	1.824660	-0.555215	0.413309
C53	C	1.342083	-0.942233	-0.063467
C54	C	1.842083	-0.442233	0.436533
C55	C	1.301702	-0.870648	-0.117279
C56	C	1.801702	-0.370648	0.382721
C57	C	1.243897	-0.912056	-0.194320
C58	C	1.743897	-0.412056	0.305680
C59	C	1.226480	-1.025051	-0.217552
C60	C	1.726480	-0.525051	0.282448
C61	C	1.203522	-0.840485	-0.248141
C62	C	1.703522	-0.340485	0.251859
C63	C	1.145717	-0.881893	-0.325181
C64	C	1.645717	-0.381893	0.174819
C65	C	1.128301	-0.994877	-0.348409
C66	C	1.628301	-0.494877	0.151591
C67	C	1.168682	-1.066462	-0.294597
C68	C	1.668682	-0.566462	0.205403
C69	C	1.220940	-0.727489	-0.224908
C70	C	1.720940	-0.227489	0.275092
C71	C	1.122759	-0.697326	-0.355770
C72	C	1.622759	-0.197326	0.144230
C73	C	1.105336	-0.810308	-0.378994
C74	C	1.605336	-0.310308	0.121006
C75	C	1.405080	-0.432037	-0.226119
C76	C	1.905080	0.067963	0.273881
C77	C	1.517013	-0.466448	-0.235686
C78	C	2.017013	0.033552	0.264314
C79	C	1.179545	-0.362692	-0.033294
C80	C	1.679545	0.137308	0.466706
C81	C	1.146305	-0.352467	0.081258
C82	C	1.646305	0.147533	0.581258
N83	N	1.266862	-0.096625	-0.163736
N84	N	1.766862	0.403375	0.336264
C85	C	1.267868	-0.389844	-0.409174
C86	C	1.767868	0.110156	0.090826
C87	C	1.301110	-0.400063	-0.523724
C88	C	1.801110	0.099937	-0.023724
C89	C	1.404769	-0.431942	0.428564
C90	C	1.904769	0.068058	0.928564
C91	C	1.436002	-0.441556	0.320936
C92	C	1.936002	0.058444	0.820936
C93	C	1.363580	-0.419284	0.261011
C94	C	1.863580	0.080716	0.761011
C95	C	1.259920	-0.387397	0.308725
C96	C	1.759920	0.112603	0.808725
C97	C	1.228683	-0.377790	0.416362
C98	C	1.728683	0.122210	0.916362
C99	C	1.187494	-0.365133	0.248809
C100	C	1.687494	0.134867	0.748809
C101	C	1.083834	-0.333245	0.296523
C102	C	1.583834	0.166755	0.796523
C103	C	1.052602	-0.323639	0.404149
C104	C	1.552602	0.176361	0.904149
C105	C	1.125024	-0.345911	0.464074
C106	C	1.625024	0.154089	0.964074
C107	C	1.218732	-0.374739	0.141172
C108	C	1.718732	0.125261	0.641172
C109	C	1.042646	-0.320588	0.128970
C110	C	1.542646	0.179412	0.628970
C111	C	1.011413	-0.310973	0.236598
C112	C	1.511413	0.189027	0.736598
H113	H	0.554183	-0.291933	-0.200028
H114	H	1.054183	0.208067	0.299972
Br115	Br	1.359407	-0.418017	0.076430
Br116	Br	1.859407	0.081983	0.576430
H117	H	1.315891	-0.778653	-0.098366
H118	H	1.815891	-0.278653	0.401634
H119	H	1.389017	-0.427114	0.173376
H120	H	1.889017	0.072886	0.673376
H121	H	0.985843	-0.508099	-0.254321
H122	H	1.485843	-0.008099	0.245679
H123	H	0.690201	-0.705632	-0.289314
H124	H	1.190201	-0.205632	0.210686
H125	H	0.983673	-0.302457	0.080178
H126	H	1.483673	0.197543	0.580178
H127	H	1.099599	-0.338081	0.551715
H128	H	1.599599	0.161919	1.051715
Br129	Br	1.379471	-1.152368	-0.013680
Br130	Br	1.879471	-0.652368	0.486320
H131	H	0.634432	-0.195074	-0.181498
H132	H	1.134432	0.304926	0.318502
Br133	Br	0.870736	-0.267693	0.301366
Br134	Br	1.370736	0.232307	0.801366
H135	H	1.154493	-1.158461	-0.313502
H136	H	1.654493	-0.658461	0.186498
H137	H	1.081243	-1.028594	-0.411149
H138	H	1.581243	-0.528594	0.088851
H139	H	1.058271	-0.844037	-0.441723
H140	H	1.558271	-0.344037	0.058277
H141	H	0.499387	-0.646970	-0.273024
H142	H	0.999387	-0.146970	0.226976
H143	H	1.268005	-0.693785	-0.162182
H144	H	1.768005	-0.193785	0.337818
Br145	Br	1.420531	-0.886037	0.041079
Br146	Br	1.920531	-0.386037	0.541079
Br147	Br	1.067963	-0.600186	-0.428812
Br148	Br	1.567963	-0.100186	0.071188
Br149	Br	1.576680	-0.484807	0.256193
Br150	Br	2.076680	0.015193	0.756193
Br151	Br	1.503039	-0.462190	0.509887
Br152	Br	2.003039	0.037810	1.009887
H153	H	0.968194	-0.297683	0.442992
H154	H	1.468194	0.202317	0.942992
H155	H	0.757237	-0.046900	-0.153155
H156	H	1.257237	0.453100	0.346845
H157	H	0.863038	-0.656294	-0.282687
H158	H	1.363038	-0.156294	0.217313
Br159	Br	0.984781	-0.061235	-0.160975
Br160	Br	1.484781	0.438765	0.339025
