data_functionalizedCrystal
_audit_creation_method	'MofGen! by Chris Wilmer'
_symmetry_space_group_name_H-M	'P1'
_symmetry_Int_Tables_number	1
_symmetry_cell_setting	triclinic
loop_
_symmetry_equiv_pos_as_xyz
  x,y,z
_cell_length_a	13.033304
_cell_length_b	13.032318
_cell_length_c	13.032268
_cell_angle_alpha	90.931219
_cell_angle_beta	90.922231
_cell_angle_gamma	103.332818
loop_
_atom_site_label
_atom_site_type_symbol
_atom_site_fract_x
_atom_site_fract_y
_atom_site_fract_z
Zn1	Zn	-1.463065	0.323912	-0.735862
Zn2	Zn	-0.963065	0.823912	-0.235862
Zn3	Zn	-1.468462	0.473512	-0.542800
Zn4	Zn	-0.968462	0.973512	-0.042800
Zn5	Zn	-1.313527	0.318411	-0.542809
Zn6	Zn	-0.813527	0.818411	-0.042809
Zn7	Zn	-1.269972	0.516904	-0.686718
Zn8	Zn	-0.769972	1.016904	-0.186718
O9	O	-1.378757	0.408184	-0.627047
O10	O	-0.878757	0.908184	-0.127047
O11	O	-1.609432	0.327899	-0.730815
O12	O	-1.109432	0.827899	-0.230815
O13	O	-1.468396	0.432476	-0.401778
O14	O	-0.968396	0.932476	0.098222
O15	O	-1.349333	0.173462	-0.588988
O16	O	-0.849333	0.673462	-0.088988
O17	O	-1.613397	0.437810	-0.588974
O18	O	-1.113397	0.937810	-0.088974
O19	O	-1.459198	0.177504	-0.730824
O20	O	-0.959198	0.677504	-0.230824
O21	O	-1.354566	0.318523	-0.401784
O22	O	-0.854566	0.818523	0.098216
O23	O	-1.162099	0.360598	-0.541335
O24	O	-0.662099	0.860598	-0.041335
O25	O	-1.275100	0.511765	-0.834261
O26	O	-0.775100	1.011765	-0.334261
O27	O	-1.130099	0.506430	-0.647065
O28	O	-0.630099	1.006430	-0.147065
O29	O	-1.416965	0.369974	-0.870366
O30	O	-0.916965	0.869974	-0.370366
O31	O	-1.426163	0.624946	-0.541321
O32	O	-0.926163	1.124946	-0.041321
O33	O	-1.280333	0.656826	-0.647057
O34	O	-0.780333	1.156826	-0.147057
C35	C	-1.108333	0.437627	-0.588869
C36	C	-0.608333	0.937627	-0.088869
C37	C	-0.992638	0.450251	-0.572556
C38	C	-0.492638	0.950251	-0.072556
C39	C	-0.939072	0.401609	-0.635545
C40	C	-0.439072	0.901609	-0.135545
C41	C	-0.819495	0.414656	-0.618687
C42	C	-0.319495	0.914656	-0.118687
C43	C	-1.349133	0.678659	-0.588881
C44	C	-0.849133	1.178659	-0.088881
C45	C	-1.336549	0.794364	-0.572600
C46	C	-0.836549	1.294364	-0.072600
C47	C	-0.650238	0.378622	-0.665369
C48	C	-0.150238	0.878622	-0.165369
C49	C	-0.765931	0.366008	-0.681684
C50	C	-0.265931	0.866008	-0.181684
C51	C	-1.385249	0.847878	-0.635573
C52	C	-0.885249	1.347878	-0.135573
C53	C	-1.372245	0.967465	-0.618748
C54	C	-0.872245	1.467465	-0.118748
C55	C	-1.340572	0.446323	-0.889902
C56	C	-0.840572	0.946323	-0.389902
C57	C	-1.324300	0.462576	-1.001914
C58	C	-0.824300	0.962576	-0.501914
C59	C	-1.408458	1.136662	-0.665389
C60	C	-0.908458	1.636662	-0.165389
C61	C	-1.420951	1.020977	-0.681730
C62	C	-0.920951	1.520977	-0.181730
C63	C	-1.387237	0.399667	-1.069718
C64	C	-0.887237	0.899667	-0.569718
C65	C	-1.370421	0.416463	-1.185489
C66	C	-0.870421	0.916463	-0.685489
C67	C	-1.416861	0.370112	-0.365235
C68	C	-0.916861	0.870112	0.134765
C69	C	-1.433367	0.353545	-0.253292
C70	C	-0.933367	0.853545	0.246708
H71	H	-0.981738	0.350303	-0.701949
H72	H	-0.481738	0.850303	-0.201949
C73	C	-1.476850	0.310110	-1.032362
C74	C	-0.976850	0.810110	-0.532362
H75	H	-1.476401	0.310575	-0.959451
H76	H	-0.976401	0.810575	-0.459451
H77	H	-1.466810	0.244298	-1.057293
H78	H	-0.966810	0.744298	-0.557293
H79	H	-1.542634	0.320219	-1.057287
H80	H	-1.042634	0.820219	-0.557287
C81	C	-1.267215	0.852057	-0.482939
C82	C	-0.767215	1.352057	0.017061
H83	H	-1.238341	0.802977	-0.445616
H84	H	-0.738341	1.302977	0.054384
H85	H	-1.308860	0.883753	-0.438765
H86	H	-0.808860	1.383753	0.061235
H87	H	-1.211650	0.905026	-0.509126
H88	H	-0.711650	1.405026	-0.009126
C89	C	-0.761871	0.483970	-0.528973
C90	C	-0.261871	0.983970	-0.028973
H91	H	-0.689061	0.483654	-0.529416
H92	H	-0.189061	0.983654	-0.029416
H93	H	-0.791132	0.456890	-0.465933
H94	H	-0.291132	0.956890	0.034067
H95	H	-0.769857	0.554142	-0.536237
H96	H	-0.269857	1.054142	-0.036237
C97	C	-1.454558	0.790190	-0.725253
C98	C	-0.954558	1.290190	-0.225253
H99	H	-1.483413	0.839274	-0.762589
H100	H	-0.983413	1.339274	-0.262589
H101	H	-1.510121	0.737207	-0.699097
H102	H	-1.010121	1.237207	-0.199097
H103	H	-1.412882	0.758515	-0.769420
H104	H	-0.912882	1.258515	-0.269420
H105	H	-1.304078	0.482755	-1.213144
H106	H	-0.804078	0.982755	-0.713144
C107	C	-1.522983	0.263980	-1.215944
C108	C	-1.022983	0.763980	-0.715944
H109	H	-1.522535	0.264443	-1.143033
H110	H	-1.022535	0.764443	-0.643033
H111	H	-1.512939	0.198171	-1.240877
H112	H	-1.012939	0.698171	-0.740877
H113	H	-1.588768	0.274088	-1.240869
H114	H	-1.088768	0.774088	-0.740869
C115	C	-1.302906	1.025154	-0.529082
C116	C	-0.802906	1.525154	-0.029082
H117	H	-1.274033	0.976074	-0.491760
H118	H	-0.774033	1.476074	0.008240
H119	H	-1.344551	1.056850	-0.484908
H120	H	-0.844551	1.556850	0.015092
H121	H	-1.247341	1.078123	-0.555270
H122	H	-0.747341	1.578123	-0.055270
H123	H	-1.257962	0.528863	-1.029575
H124	H	-0.757962	1.028863	-0.529575
C125	C	-1.490288	0.963290	-0.771398
C126	C	-0.990288	1.463290	-0.271398
H127	H	-1.519149	1.012375	-0.808728
H128	H	-1.019149	1.512375	-0.308728
H129	H	-1.545847	0.910316	-0.745222
H130	H	-1.045847	1.410316	-0.245222
H131	H	-1.448632	0.931603	-0.815577
H132	H	-0.948632	1.431603	-0.315577
H133	H	-0.808592	0.314695	-0.748093
H134	H	-0.308592	0.814695	-0.248093
C135	C	-0.935011	0.519562	-0.482847
C136	C	-0.435011	1.019562	0.017153
H137	H	-0.862200	0.519245	-0.483290
H138	H	-0.362200	1.019245	0.016710
H139	H	-0.964271	0.492481	-0.419807
H140	H	-0.464271	0.992481	0.080193
H141	H	-0.942996	0.589734	-0.490111
H142	H	-0.442996	1.089734	0.009889
