data_functionalizedCrystal
_audit_creation_method	'MofGen! by Chris Wilmer'
_symmetry_space_group_name_H-M	'P1'
_symmetry_Int_Tables_number	1
_symmetry_cell_setting	triclinic
loop_
_symmetry_equiv_pos_as_xyz
  x,y,z
_cell_length_a	16.992695
_cell_length_b	16.974897
_cell_length_c	14.048226
_cell_angle_alpha	86.341962
_cell_angle_beta	89.993436
_cell_angle_gamma	87.027201
loop_
_atom_site_label
_atom_site_type_symbol
_atom_site_fract_x
_atom_site_fract_y
_atom_site_fract_z
O1	O	0.099990	1.055456	-0.160386
O2	O	0.433323	1.388790	0.172947
O3	O	0.766657	1.722123	0.506280
O4	O	0.112706	0.826056	-0.142734
O5	O	0.446039	1.159389	0.190599
O6	O	0.779372	1.492722	0.523932
O7	O	-0.007794	0.939836	-0.151482
O8	O	0.325539	1.273170	0.181851
O9	O	0.658873	1.606503	0.515185
O10	O	0.220490	0.941676	-0.151639
O11	O	0.553823	1.275009	0.181695
O12	O	0.887156	1.608342	0.515028
O13	O	-0.007801	0.939821	0.006840
O14	O	0.325532	1.273155	0.340174
O15	O	0.658866	1.606488	0.673507
O16	O	0.112698	0.826041	0.015588
O17	O	0.446032	1.159374	0.348921
O18	O	0.779365	1.492707	0.682255
O19	O	0.099983	1.055441	-0.002064
O20	O	0.433316	1.388775	0.331269
O21	O	0.766650	1.722108	0.664603
Zn22	Zn	0.106340	0.940738	0.031899
Zn23	Zn	0.439673	1.274072	0.365232
Zn24	Zn	0.773006	1.607405	0.698566
Zn25	Zn	0.106349	0.940758	-0.176698
Zn26	Zn	0.439682	1.274092	0.156636
Zn27	Zn	0.773016	1.607425	0.489969
O28	O	0.220482	0.941661	0.006684
O29	O	0.553816	1.274994	0.340017
O30	O	0.887149	1.608327	0.673350
C31	C	0.112216	0.796559	-0.061304
C32	C	0.445550	1.129893	0.272029
C33	C	0.778883	1.463226	0.605363
C34	C	0.110759	0.708691	-0.054543
C35	C	0.444093	1.042025	0.278791
C36	C	0.777426	1.375358	0.612124
C37	C	-0.037008	0.937463	-0.072139
C38	C	0.296326	1.270796	0.261194
C39	C	0.629659	1.604129	0.594528
C40	C	-0.124045	0.930403	-0.071596
C41	C	0.209289	1.263736	0.261737
C42	C	0.542622	1.597070	0.595071
C43	C	0.110081	0.667412	-0.137661
C44	C	0.443414	1.000745	0.195673
C45	C	0.776747	1.334079	0.529006
C46	C	0.108724	0.584850	-0.131293
C47	C	0.442058	0.918183	0.202040
C48	C	0.775391	1.251517	0.535373
C49	C	0.108041	0.543569	-0.041807
C50	C	0.441374	0.876903	0.291526
C51	C	0.774708	1.210236	0.624859
C52	C	0.108722	0.584854	0.041317
C53	C	0.442055	0.918188	0.374650
C54	C	0.775389	1.251521	0.707983
C55	C	0.110084	0.667415	0.034949
C56	C	0.443417	1.000748	0.368282
C57	C	0.776751	1.334081	0.701615
C58	C	0.103972	0.296651	-0.013508
C59	C	0.437306	0.629984	0.319825
C60	C	0.770639	0.963317	0.653159
C61	C	0.102608	0.214085	-0.007146
C62	C	0.435941	0.547418	0.326187
C63	C	0.769275	0.880752	0.659521
C64	C	0.102612	0.214086	-0.179757
C65	C	0.435945	0.547419	0.153576
C66	C	0.769278	0.880753	0.486909
C67	C	0.103969	0.296648	-0.186117
C68	C	0.437302	0.629981	0.147216
C69	C	0.770636	0.963315	0.480549
C70	C	0.104654	0.337926	-0.102993
C71	C	0.437987	0.671259	0.230340
C72	C	0.771321	1.004592	0.563674
N73	N	0.106652	0.459178	-0.035297
N74	N	0.439985	0.792511	0.298036
N75	N	0.773319	1.125845	0.631370
N76	N	0.106049	0.422315	-0.109504
N77	N	0.439382	0.755649	0.223829
N78	N	0.772715	1.088982	0.557162
C79	C	-0.174355	0.998518	-0.076836
C80	C	0.158979	1.331852	0.256497
C81	C	0.492312	1.665185	0.589830
C82	C	-0.256135	0.991880	-0.076335
C83	C	0.077199	1.325214	0.256999
C84	C	0.410532	1.658547	0.590332
C85	C	-0.287603	0.917127	-0.070586
C86	C	0.045731	1.250460	0.262748
C87	C	0.379064	1.583793	0.596081
C88	C	-0.237286	0.849007	-0.065348
C89	C	0.096047	1.182340	0.267986
C90	C	0.429381	1.515673	0.601319
C91	C	-0.155508	0.855645	-0.065856
C92	C	0.177826	1.188978	0.267477
C93	C	0.511159	1.522312	0.600810
C94	C	-0.531172	0.889612	-0.068482
C95	C	-0.197839	1.222945	0.264852
C96	C	0.135495	1.556279	0.598185
C97	C	-0.612957	0.882979	-0.067970
C98	C	-0.279623	1.216312	0.265363
C99	C	0.053710	1.549645	0.598696
C100	C	-0.631800	1.025853	-0.078959
C101	C	-0.298466	1.359186	0.254374
C102	C	0.034867	1.692520	0.587708
C103	C	-0.550019	1.032485	-0.079461
C104	C	-0.216686	1.365819	0.253872
C105	C	0.116648	1.699152	0.587205
C106	C	-0.499710	0.964365	-0.074229
C107	C	-0.166376	1.297698	0.259105
C108	C	0.166957	1.631032	0.592438
N109	N	-0.371194	0.910340	-0.070070
N110	N	-0.037861	1.243673	0.263264
N111	N	0.295472	1.577007	0.596597
N112	N	-0.416119	0.971153	-0.074752
N113	N	-0.082786	1.304486	0.258582
N114	N	0.250547	1.637819	0.591915
C115	C	0.249696	0.944034	-0.072662
C116	C	0.583029	1.277367	0.260672
C117	C	0.916363	1.610701	0.594005
C118	C	0.336733	0.951094	-0.073211
C119	C	0.670066	1.284427	0.260123
C120	C	1.003400	1.617760	0.593456
C121	C	0.100472	1.084937	-0.083496
C122	C	0.433806	1.418271	0.249837
C123	C	0.767139	1.751604	0.583170
C124	C	0.101929	1.172805	-0.090264
C125	C	0.435263	1.506139	0.243069
C126	C	0.768596	1.839472	0.576403
N127	N	0.106333	0.940731	0.174260
N128	N	0.439666	1.274064	0.507594
N129	N	0.772999	1.607397	0.840927
N130	N	0.106350	0.940772	-0.319059
N131	N	0.439683	1.274105	0.014274
N132	N	0.773016	1.607439	0.347607
C133	C	0.052998	0.991131	0.220204
C134	C	0.386331	1.324464	0.553537
C135	C	0.719664	1.657798	0.886870
C136	C	0.052997	0.991136	0.319861
C137	C	0.386330	1.324470	0.653194
C138	C	0.719664	1.657803	0.986528
C139	C	0.106336	0.940745	0.373573
C140	C	0.439670	1.274078	0.706906
C141	C	0.773003	1.607411	1.040239
C142	C	0.159674	0.890339	0.327623
C143	C	0.493007	1.223672	0.660956
C144	C	0.826341	1.557006	0.994290
C145	C	0.159670	0.890330	0.227968
C146	C	0.493003	1.223663	0.561301
C147	C	0.826337	1.556997	0.894635
C148	C	0.159680	0.890362	0.535336
C149	C	0.493013	1.223695	0.868669
C150	C	0.826346	1.557029	1.202002
C151	C	0.159685	0.890372	0.634998
C152	C	0.493018	1.223705	0.968331
C153	C	0.826351	1.557038	1.301664
C154	C	0.053007	0.991168	0.627228
C155	C	0.386340	1.324502	0.960562
C156	C	0.719673	1.657835	1.293895
C157	C	0.053003	0.991160	0.527573
C158	C	0.386336	1.324493	0.860907
C159	C	0.719669	1.657826	1.194240
C160	C	0.106342	0.940754	0.481630
C161	C	0.439675	1.274088	0.814964
C162	C	0.773008	1.607421	1.148297
H163	H	0.110634	0.701017	-0.210530
H164	H	0.443968	1.034350	0.122803
H165	H	0.777301	1.367684	0.456137
H166	H	0.203101	0.849305	0.371362
H167	H	0.536434	1.182638	0.704695
H168	H	0.869768	1.515972	1.038028
F169	F	0.104701	0.340571	0.074961
F170	F	0.438034	0.673904	0.408295
F171	F	0.771368	1.007238	0.741628
F172	F	-0.685348	1.098346	-0.084529
F173	F	-0.352014	1.431679	0.248804
F174	F	-0.018681	1.765013	0.582137
F175	F	-0.003759	1.044813	0.676128
F176	F	0.329574	1.378147	1.009461
F177	F	0.662908	1.711480	1.342795
H178	H	0.102074	0.180475	0.065728
H179	H	0.435407	0.513808	0.399061
H180	H	0.768740	0.847142	0.732395
F181	F	-0.646445	0.803412	-0.061847
F182	F	-0.313111	1.136745	0.271487
F183	F	0.020222	1.470079	0.604820
H184	H	-0.262914	0.788140	-0.060673
H185	H	0.070420	1.121474	0.272660
H186	H	0.403753	1.454807	0.605994
H187	H	0.108170	0.551237	0.114178
H188	H	0.441504	0.884570	0.447512
H189	H	0.774837	1.217904	0.780845
F190	F	-0.516535	1.112048	-0.085604
F191	F	-0.183202	1.445382	0.247729
F192	F	0.150132	1.778715	0.581062
H193	H	0.009566	1.032169	0.176477
H194	H	0.342899	1.365502	0.509810
H195	H	0.676233	1.698836	0.843144
H196	H	0.108172	0.551244	-0.198977
H197	H	0.441505	0.884577	0.134356
H198	H	0.774838	1.217910	0.467690
H199	H	-0.114545	0.800178	-0.061589
H200	H	0.218788	1.133512	0.271744
H201	H	0.552121	1.466845	0.605077
F202	F	-0.003769	1.044777	0.368757
F203	F	0.329564	1.378110	0.702091
F204	F	0.662898	1.711444	1.035424
F205	F	-0.309675	1.064378	-0.081910
F206	F	0.023658	1.397712	0.251423
F207	F	0.356991	1.731045	0.584756
H208	H	0.110640	0.701023	0.102632
H209	H	0.443973	1.034356	0.435966
H210	H	0.777307	1.367690	0.769299
H211	H	-0.490219	0.834143	-0.064220
H212	H	-0.156886	1.167477	0.269113
H213	H	0.176447	1.500810	0.602446
F214	F	0.216435	0.836684	0.179074
F215	F	0.549768	1.170018	0.512407
F216	F	0.883101	1.503351	0.845740
H217	H	-0.148740	1.059391	-0.081512
H218	H	0.184593	1.392724	0.251821
H219	H	0.517926	1.726057	0.585155
F220	F	-0.003761	1.044796	0.470408
F221	F	0.329572	1.378129	0.803741
F222	F	0.662905	1.711463	1.137075
H223	H	0.203111	0.849314	0.497933
H224	H	0.536445	1.182647	0.831266
H225	H	0.869778	1.515981	1.164599
F226	F	0.104692	0.340576	-0.281361
F227	F	0.438026	0.673910	0.051973
F228	F	0.771359	1.007243	0.385306
F229	F	0.216455	0.836736	0.692155
F230	F	0.549788	1.170070	1.025489
F231	F	0.883121	1.503403	1.358822
F232	F	0.101875	0.170150	-0.268218
F233	F	0.435208	0.503483	0.065116
F234	F	0.768542	0.836817	0.398449
