data_functionalizedCrystal
_audit_creation_method	'MofGen! by Chris Wilmer'
_symmetry_space_group_name_H-M	'P1'
_symmetry_Int_Tables_number	1
_symmetry_cell_setting	triclinic
loop_
_symmetry_equiv_pos_as_xyz
  x,y,z
_cell_length_a	10.686220
_cell_length_b	21.395362
_cell_length_c	21.395355
_cell_angle_alpha	90.021787
_cell_angle_beta	94.345449
_cell_angle_gamma	85.582175
loop_
_atom_site_label
_atom_site_type_symbol
_atom_site_fract_x
_atom_site_fract_y
_atom_site_fract_z
Zn1	Zn	1.929018	0.175919	-0.280862
Zn2	Zn	2.429018	0.675919	0.219138
Zn3	Zn	1.928804	0.280687	-0.176087
Zn4	Zn	2.428804	0.780687	0.323913
Zn5	Zn	1.717989	0.183970	-0.184127
Zn6	Zn	2.217989	0.683970	0.315873
Zn7	Zn	1.717908	0.288717	-0.288850
Zn8	Zn	2.217908	0.788717	0.211150
O9	O	1.823430	0.232323	-0.232482
O10	O	2.323430	0.732323	0.267518
O11	O	2.105567	0.183087	-0.260256
O12	O	2.605567	0.683087	0.239744
O13	O	1.900782	0.267866	-0.089478
O14	O	2.400782	0.767866	0.410522
O15	O	1.746105	0.095219	-0.196981
O16	O	2.246105	0.595219	0.303019
O17	O	2.105409	0.260060	-0.183278
O18	O	2.605409	0.760060	0.316722
O19	O	1.901148	0.089304	-0.268052
O20	O	2.401148	0.589304	0.231948
O21	O	1.745897	0.196809	-0.095385
O22	O	2.245897	0.696809	0.404615
O23	O	1.541401	0.204595	-0.204727
O24	O	2.041401	0.704595	0.295273
O25	O	1.745969	0.273745	-0.375466
O26	O	2.245969	0.773745	0.124534
O27	O	1.541342	0.281551	-0.281666
O28	O	2.041342	0.781551	0.218334
O29	O	1.901070	0.190873	-0.369598
O30	O	2.401070	0.690873	0.130402
O31	O	1.900705	0.369435	-0.191023
O32	O	2.400705	0.869435	0.308977
O33	O	1.745761	0.375334	-0.273870
O34	O	2.245761	0.875334	0.226130
C35	C	1.495587	0.244818	-0.244936
C36	C	1.995587	0.744818	0.255064
C37	C	1.355334	0.250179	-0.250279
C38	C	1.855334	0.750179	0.249721
C39	C	1.823235	0.395118	-0.232453
C40	C	2.323235	0.895118	0.267547
C41	C	1.823267	0.464758	-0.232458
C42	C	2.323267	0.964758	0.267542
C43	C	1.903945	0.494337	-0.269494
C44	C	2.403945	0.994337	0.230506
C45	C	1.903976	0.559771	-0.269507
C46	C	2.403976	1.059771	0.230493
C47	C	1.823342	0.595624	-0.232472
C48	C	2.323342	1.095624	0.267528
C49	C	1.742649	0.566038	-0.195433
C50	C	2.242649	1.066038	0.304567
C51	C	1.742611	0.500605	-0.195426
C52	C	2.242611	1.000605	0.304574
C53	C	1.813499	0.699700	-0.176405
C54	C	2.313499	1.199700	0.323595
C55	C	1.813545	0.765131	-0.176411
C56	C	2.313545	1.265131	0.323589
C57	C	1.823450	0.797440	-0.232493
C58	C	2.323450	1.297440	0.267507
C59	C	1.833336	0.764310	-0.288572
C60	C	2.333336	1.264310	0.211428
C61	C	1.833298	0.698877	-0.288565
C62	C	2.333298	1.198877	0.211435
C63	C	1.823373	0.666575	-0.232475
C64	C	2.323373	1.166575	0.267525
C65	C	1.904166	0.897970	-0.269547
C66	C	2.404166	1.397970	0.230453
C67	C	1.904188	0.963405	-0.269561
C68	C	2.404188	1.463405	0.230439
C69	C	1.742868	0.969671	-0.195481
C70	C	2.242868	1.469671	0.304519
C71	C	1.742839	0.904237	-0.195473
C72	C	2.242839	1.404237	0.304527
C73	C	1.823495	0.868390	-0.232505
C74	C	2.323495	1.368390	0.267495
C75	C	2.152553	0.219780	-0.219979
C76	C	2.652553	0.719780	0.280021
C77	C	2.292805	0.214434	-0.214651
C78	C	2.792805	0.714434	0.285349
C79	C	1.823534	0.232306	-0.395901
C80	C	2.323534	0.732306	0.104099
C81	C	1.823579	0.232299	-0.465541
C82	C	2.323579	0.732299	0.034459
C83	C	1.823608	1.068893	-0.232519
C84	C	2.323608	1.568893	0.267481
C85	C	1.823552	0.999254	-0.232526
C86	C	2.323552	1.499254	0.267474
C87	C	1.904337	0.189146	-0.495199
C88	C	2.404337	0.689146	0.004801
C89	C	1.904335	0.189120	-0.560635
C90	C	2.404335	0.689120	-0.060635
C91	C	1.823589	0.232256	-0.596409
C92	C	2.323589	0.732256	-0.096409
C93	C	1.742815	0.275413	-0.566743
C94	C	2.242815	0.775413	-0.066743
C95	C	1.742810	0.275434	-0.501309
C96	C	2.242810	0.775434	-0.001309
C97	C	1.813558	0.289054	-0.700453
C98	C	2.313558	0.789054	-0.200453
C99	C	1.813572	0.289033	-0.765885
C100	C	2.313572	0.789033	-0.265885
C101	C	1.823597	0.232190	-0.798229
C102	C	2.323597	0.732190	-0.298229
C103	C	1.833635	0.175364	-0.765132
C104	C	2.333635	0.675364	-0.265132
C105	C	1.833630	0.175386	-0.699698
C106	C	2.333630	0.675386	-0.199698
C107	C	1.823585	0.232237	-0.667361
C108	C	2.323585	0.732237	-0.167361
C109	C	1.904357	0.189004	-0.898840
C110	C	2.404357	0.689004	-0.398840
C111	C	1.904347	0.188977	-0.964277
C112	C	2.404347	0.688977	-0.464277
C113	C	1.742833	0.275275	-0.970384
C114	C	2.242833	0.775275	-0.470384
C115	C	1.742837	0.275297	-0.904948
C116	C	2.242837	0.775297	-0.404948
C117	C	1.823606	0.232162	-0.869180
C118	C	2.323606	0.732162	-0.369180
C119	C	1.823398	0.232292	-0.069695
C120	C	2.323398	0.732292	0.430305
C121	C	1.823598	0.232113	-0.000047
C122	C	2.323598	0.732113	0.499953
H123	H	1.969616	0.465152	-0.299650
H124	H	2.469616	0.965152	0.200350
H125	H	1.301564	0.284888	-0.284868
H126	H	1.801564	0.784888	0.215132
F127	F	1.989853	0.591257	-0.308925
F128	F	2.489853	1.091257	0.191075
H129	H	1.677075	0.310392	-0.999511
H130	H	2.177075	0.810392	-0.499511
F131	F	1.363076	0.169074	-0.169437
F132	F	1.863076	0.669074	0.330563
F133	F	1.803034	0.800384	-0.116727
F134	F	2.303034	1.300384	0.383273
F135	F	1.657047	1.007824	-0.156067
F136	F	2.157047	1.507824	0.343933
F137	F	1.656853	0.321365	-0.469744
F138	F	2.156853	0.821365	0.030256
H139	H	1.841344	0.671904	-0.334225
H140	H	2.341344	1.171904	0.165775
F141	F	1.802900	0.349511	-0.801103
F142	F	2.302900	0.849511	-0.301103
H143	H	1.841800	0.129077	-0.791465
H144	H	2.341800	0.629077	-0.291465
F145	F	1.656827	0.604196	-0.156021
F146	F	2.156827	1.104196	0.343979
H147	H	1.841404	0.790614	-0.334239
H148	H	2.341404	1.290614	0.165761
H149	H	1.970095	0.153976	-0.584787
H150	H	2.470095	0.653976	-0.084787
F151	F	1.990048	0.994885	-0.308990
F152	F	2.490048	1.494885	0.191010
H153	H	1.676912	0.476523	-0.165266
H154	H	2.176912	0.976523	0.334734
F155	F	1.990001	0.859816	-0.308961
F156	F	2.490001	1.359816	0.191039
H157	H	1.677149	0.880153	-0.165311
H158	H	2.177149	1.380153	0.334689
F159	F	1.803084	0.665315	-0.116700
F160	F	2.303084	1.165315	0.383300
F161	F	1.802916	0.349559	-0.666035
F162	F	2.302916	0.849559	-0.166035
H163	H	1.677083	0.310441	-0.880800
H164	H	2.177083	0.810441	-0.380800
H165	H	1.970107	0.153833	-0.988424
H166	H	2.470107	0.653833	-0.488424
H167	H	1.970104	0.154022	-0.466080
H168	H	2.470104	0.654022	0.033920
F169	F	1.844306	0.114910	-0.664476
F170	F	2.344306	0.614910	-0.164476
H171	H	1.970117	0.153878	-0.869716
H172	H	2.470117	0.653878	-0.369716
H173	H	1.677067	0.310533	-0.595875
H174	H	2.177067	0.810533	-0.095875
