data_functionalizedCrystal
_audit_creation_method	'MofGen! by Chris Wilmer'
_symmetry_space_group_name_H-M	'P1'
_symmetry_Int_Tables_number	1
_symmetry_cell_setting	triclinic
loop_
_symmetry_equiv_pos_as_xyz
  x,y,z
_cell_length_a	15.298068
_cell_length_b	15.298852
_cell_length_c	19.805399
_cell_angle_alpha	99.696252
_cell_angle_beta	99.708967
_cell_angle_gamma	88.373165
loop_
_atom_site_label
_atom_site_type_symbol
_atom_site_fract_x
_atom_site_fract_y
_atom_site_fract_z
Zn1	Zn	1.399655	-0.117265	0.549564
Zn2	Zn	1.424931	-0.263754	0.420664
Zn3	Zn	1.253168	-0.142606	0.414048
Zn4	Zn	1.278495	-0.289014	0.511488
O5	O	1.339062	-0.203160	0.473941
O6	O	1.525598	-0.115520	0.551169
O7	O	1.402125	-0.247717	0.325063
O8	O	1.251423	-0.016666	0.445191
O9	O	1.544168	-0.223145	0.456467
O10	O	1.359046	0.001952	0.544753
O11	O	1.275932	-0.158711	0.320202
O12	O	1.133938	-0.183205	0.408270
O13	O	1.294588	-0.266197	0.611262
O14	O	1.152546	-0.290770	0.479858
O15	O	1.383604	-0.140013	0.639237
O16	O	1.426683	-0.389683	0.419546
O17	O	1.319097	-0.408241	0.486274
C18	C	1.111456	-0.242479	0.439215
C19	C	1.014089	-0.259321	0.424373
C20	C	0.701017	-0.083008	0.579998
C21	C	0.792498	-0.067186	0.593947
C22	C	0.847900	-0.115218	0.551554
C23	C	0.811812	-0.179075	0.495211
C24	C	0.720322	-0.194903	0.481264
C25	C	0.867206	-0.227113	0.452821
C26	C	0.831117	-0.290970	0.396477
C27	C	0.739636	-0.306794	0.382533
C28	C	0.684234	-0.258762	0.424925
C29	C	0.958696	-0.211285	0.466767
C30	C	0.978001	-0.323180	0.368034
C31	C	0.886519	-0.339001	0.354085
C32	C	1.378405	-0.430741	0.449514
C33	C	1.395316	-0.528088	0.439099
C34	C	1.218770	-0.841293	0.548530
C35	C	1.202884	-0.749831	0.558321
C36	C	1.250990	-0.694391	0.528516
C37	C	1.314986	-0.730422	0.488920
C38	C	1.330879	-0.821892	0.479133
C39	C	1.363099	-0.674989	0.459119
C40	C	1.427095	-0.711020	0.419522
C41	C	1.442985	-0.802482	0.409737
C42	C	1.394879	-0.857922	0.439541
C43	C	1.347206	-0.583519	0.468905
C44	C	1.459315	-0.564118	0.399508
C45	C	1.475201	-0.655580	0.389717
C46	C	1.567557	-0.163688	0.508803
C47	C	1.664929	-0.146867	0.523659
C48	C	1.339102	-0.203096	0.650497
C49	C	1.339119	-0.203069	0.725735
C50	C	1.299590	0.025315	0.498481
C51	C	1.282770	0.122677	0.508939
C52	C	1.339062	-0.203151	0.298086
C53	C	1.339173	-0.202902	0.222901
C54	C	1.385470	-0.137362	0.775647
C55	C	1.385475	-0.137335	0.846339
C56	C	1.339133	-0.203019	0.867119
C57	C	1.292775	-0.268730	0.817201
C58	C	1.292766	-0.268752	0.746509
C59	C	1.292811	-0.268639	1.102290
C60	C	1.292826	-0.268613	1.172988
C61	C	1.385519	-0.137223	1.202120
C62	C	1.385510	-0.137245	1.131429
C63	C	1.339149	-0.202952	1.081517
C64	C	1.339144	-0.202980	1.004864
C65	C	1.339143	-0.202996	0.943770
H66	H	0.988069	-0.159292	0.512642
O67	O	1.166892	-0.901082	0.580679
H68	H	1.095108	-0.895474	0.560415
H69	H	1.255076	-0.322153	1.061660
H70	H	1.238051	-0.619919	0.536490
O71	O	1.133844	-0.710971	0.601005
H72	H	1.103050	-0.764888	0.620074
H73	H	1.255012	-0.322250	0.705870
H74	H	1.527308	-0.684929	0.357478
H75	H	0.710257	-0.358797	0.336659
H76	H	1.407805	-0.932400	0.431567
H77	H	1.255039	-0.322208	0.834124
O78	O	1.242826	-0.339455	1.195397
H79	H	1.289734	-0.377249	1.228795
O80	O	1.512010	-0.841348	0.367033
H81	H	1.542787	-0.787436	0.347946
H82	H	1.498489	-0.518978	0.375240
H83	H	1.423250	-0.083761	1.114516
O84	O	1.037747	-0.374988	0.322305
H85	H	1.017537	-0.362920	0.268143
H86	H	0.922388	-0.102330	0.562913
O87	O	0.831414	0.001695	0.654705
H88	H	0.816491	-0.016442	0.703514
O89	O	1.435474	-0.066471	0.900176
H90	H	1.467708	-0.020809	0.873851
O91	O	0.641261	-0.031215	0.625717
H92	H	0.681721	0.015846	0.667241
H93	H	1.423211	-0.083877	0.758735
H94	H	0.857122	-0.390995	0.308210
O95	O	1.435497	-0.066327	1.255952
H96	H	1.427705	-0.077331	1.308600
H97	H	1.295100	-0.554191	0.501145
H98	H	0.609742	-0.271646	0.413575
