data_functionalizedCrystal
_audit_creation_method	'MofGen! by Chris Wilmer'
_symmetry_space_group_name_H-M	'P1'
_symmetry_Int_Tables_number	1
_symmetry_cell_setting	triclinic
loop_
_symmetry_equiv_pos_as_xyz
  x,y,z
_cell_length_a	10.723024
_cell_length_b	10.723024
_cell_length_c	9.798715
_cell_angle_alpha	89.998022
_cell_angle_beta	89.996609
_cell_angle_gamma	84.467869
loop_
_atom_site_label
_atom_site_type_symbol
_atom_site_fract_x
_atom_site_fract_y
_atom_site_fract_z
O1	O	1.657187	0.175024	-0.113478
O2	O	1.294035	0.191778	-0.113483
O3	O	1.483988	0.001825	-0.113475
O4	O	1.467234	0.364977	-0.113486
O5	O	1.483974	0.001824	0.113507
O6	O	1.294021	0.191777	0.113499
O7	O	1.657173	0.175024	0.113504
Zn8	Zn	1.475595	0.183401	0.149540
Zn9	Zn	1.475613	0.183401	-0.149519
O10	O	1.467220	0.364977	0.113496
C11	C	1.247528	0.190558	0.000008
C12	C	1.108974	0.186911	0.000006
C13	C	1.033991	0.293198	0.000002
C14	C	0.890788	0.289431	0.000001
C15	C	1.482762	-0.044675	0.000014
C16	C	1.479114	-0.183229	0.000009
C17	C	1.585401	-0.258212	0.000009
C18	C	1.581634	-0.401415	0.000004
C19	C	1.703680	0.176243	0.000010
C20	C	1.842234	0.179891	0.000003
C21	C	1.468447	0.411477	0.000004
C22	C	1.472094	0.550031	-0.000000
N23	N	1.475591	0.183399	0.353640
N24	N	1.475627	0.183393	-0.353619
C25	C	1.555347	0.103292	0.421420
C26	C	1.555367	0.103288	0.578582
H27	H	0.826355	0.380421	-0.000008
H28	H	1.067152	0.093125	-0.000026
O29	O	1.690309	-0.478094	0.000061
C30	C	1.792889	-0.405134	0.000027
H31	H	1.762159	-0.308233	0.043003
H32	H	1.871267	-0.452568	0.065923
H33	H	1.828190	-0.395604	-0.108868
O34	O	1.363414	-0.373298	0.000058
C35	C	1.260834	-0.446258	0.000015
H36	H	1.291558	-0.543163	0.042986
H37	H	1.182447	-0.398831	0.065911
H38	H	1.225548	-0.455777	-0.108882
O39	O	0.919212	0.071412	-0.000176
C40	C	0.995327	0.066681	-0.117751
H41	H	1.002634	0.165810	-0.156946
H42	H	1.092801	0.021148	-0.091312
H43	H	0.952097	0.009259	-0.200065
O44	O	1.697186	-0.208125	0.000072
C45	C	1.676062	-0.076294	0.000039
H46	H	1.578908	-0.046690	0.043009
H47	H	1.749820	-0.035596	0.065941
H48	H	1.682377	-0.039992	-0.108855
O49	O	1.393988	0.265168	0.577013
C50	C	1.270169	0.244113	0.611825
H51	H	1.269698	0.196112	0.715607
H52	H	1.209755	0.337504	0.616579
H53	H	1.230928	0.181702	0.531443
O54	O	1.394022	0.265264	0.422994
C55	C	1.319883	0.339770	0.329458
H56	H	1.317796	0.288707	0.227565
H57	H	1.220455	0.358131	0.370869
H58	H	1.361445	0.432720	0.314306
H59	H	1.075814	0.386984	0.000007
H60	H	1.385328	-0.225051	-0.000001
H61	H	1.623611	0.034707	0.363100
H62	H	1.623654	0.034709	0.636870
