data_functionalizedCrystal
_audit_creation_method	'MofGen! by Chris Wilmer'
_symmetry_space_group_name_H-M	'P1'
_symmetry_Int_Tables_number	1
_symmetry_cell_setting	triclinic
loop_
_symmetry_equiv_pos_as_xyz
  x,y,z
_cell_length_a	6.817900
_cell_length_b	12.850268
_cell_length_c	9.473729
_cell_angle_alpha	61.935619
_cell_angle_beta	85.602096
_cell_angle_gamma	88.222550
loop_
_atom_site_label
_atom_site_type_symbol
_atom_site_fract_x
_atom_site_fract_y
_atom_site_fract_z
V1	V	3.862705	0.063778	-0.489290
O2	O	3.912453	0.213249	-0.487307
O3	O	3.758491	-0.081582	-0.478893
O4	O	3.768691	0.157712	-0.705903
O5	O	3.902184	-0.027701	-0.258725
V6	V	4.359475	0.070441	-0.462569
O7	O	4.094903	0.049160	-0.547905
O8	O	4.577474	0.085058	-0.403955
O9	O	4.240482	0.215801	-0.472966
O10	O	4.427123	-0.079030	-0.464552
O11	O	4.437393	0.161920	-0.693134
O12	O	4.230283	-0.023493	-0.245956
C13	C	3.591404	-0.119982	-0.469362
C14	C	3.587101	-0.240426	-0.462176
V15	V	3.845165	-0.430192	-0.465009
O16	O	3.884479	-0.580680	-0.470808
O17	O	3.751333	-0.282582	-0.466896
O18	O	3.740451	-0.521863	-0.239837
O19	O	3.895435	-0.339742	-0.699439
V20	V	4.341988	-0.448119	-0.534510
O21	O	4.077280	-0.420833	-0.426391
O22	O	4.560081	-0.467684	-0.611897
O23	O	4.212609	-0.590670	-0.513401
O24	O	4.420074	-0.300293	-0.538821
O25	O	4.409117	-0.541231	-0.310189
O26	O	4.223490	-0.351389	-0.740460
C27	C	4.070938	0.254196	-0.482501
C28	C	4.054089	0.374652	-0.489724
C29	C	3.604400	0.185260	-0.758927
C30	C	3.608448	0.261099	-0.935963
C31	C	4.057915	-0.051048	-0.192924
C32	C	4.033109	-0.126883	-0.015887
C33	C	3.573219	-0.545651	-0.172537
C34	C	3.568589	-0.621473	0.004526
C35	C	4.054058	-0.319958	-0.778776
C36	C	4.037931	-0.243658	-0.954050
C37	C	3.788664	0.294874	-1.026959
C38	C	3.792495	0.366146	-1.193302
C39	C	3.616108	0.403636	-1.268646
C40	C	3.435879	0.369859	-1.177637
C41	C	3.432050	0.298595	-1.011296
C42	C	3.744714	-0.659281	0.080180
C43	C	3.740391	-0.730538	0.246546
C44	C	3.559942	-0.763979	0.337256
C45	C	3.383804	-0.726168	0.261591
C46	C	3.388128	-0.654919	0.095227
H47	H	3.939264	0.393633	-1.267380
H48	H	3.883830	-0.761311	0.308129
H49	H	3.292271	0.400393	-1.239008
O50	O	4.065656	-0.293558	-0.052686
C51	C	4.085113	-0.204224	-0.213423
H52	H	4.135158	-0.118867	-0.217792
H53	H	3.937272	-0.189724	-0.268417
C54	C	4.177007	-0.346367	-0.303448
C55	C	4.238490	-0.241532	-0.308815
H56	H	4.271610	-0.369381	-0.362294
H57	H	4.163892	-0.406554	-0.195157
H58	H	4.053805	-0.334270	-0.349274
H59	H	4.361676	-0.253635	-0.262971
H60	H	4.251630	-0.181348	-0.417101
H61	H	3.236887	-0.753407	0.335472
H62	H	3.932306	0.264357	-0.965638
H63	H	3.619254	0.461663	-1.404093
O64	O	4.005831	-0.076839	0.082612
C65	C	4.158906	-0.111176	0.187420
H66	H	4.292598	-0.137968	0.132229
H67	H	4.107823	-0.189082	0.306900
C68	C	4.050325	0.025651	0.282849
C69	C	4.214533	-0.007246	0.215056
H70	H	4.084634	0.089757	0.299904
H71	H	3.947190	0.048782	0.212243
H72	H	4.007771	-0.039280	0.382408
H73	H	4.257068	0.057679	0.115490
H74	H	4.317677	-0.030364	0.285647
O75	O	3.555511	-0.833053	0.498901
C76	C	3.459244	-0.772705	0.575715
H77	H	3.358585	-0.702727	0.489948
H78	H	3.573232	-0.728641	0.612433
C79	C	3.459710	-0.946785	0.831222
C80	C	3.336066	-0.860843	0.725885
H81	H	3.383735	-1.001152	0.923859
H82	H	3.524574	-0.987442	0.779473
H83	H	3.554693	-0.910051	0.861803
H84	H	3.241103	-0.897576	0.695291
H85	H	3.271183	-0.820193	0.777633
H86	H	3.285292	0.271099	-0.937219
H87	H	3.891663	-0.632065	0.006344
H88	H	3.244702	-0.624136	0.033644
