data_functionalizedCrystal
_audit_creation_method	'MofGen! by Chris Wilmer'
_symmetry_space_group_name_H-M	'P1'
_symmetry_Int_Tables_number	1
_symmetry_cell_setting	triclinic
loop_
_symmetry_equiv_pos_as_xyz
  x,y,z
_cell_length_a	14.519709
_cell_length_b	13.101039
_cell_length_c	14.519731
_cell_angle_alpha	86.632198
_cell_angle_beta	96.315501
_cell_angle_gamma	86.642264
loop_
_atom_site_label
_atom_site_type_symbol
_atom_site_fract_x
_atom_site_fract_y
_atom_site_fract_z
O1	O	-1.228933	0.085070	0.115817
O2	O	-0.960459	0.085105	0.130051
O3	O	-1.101803	0.085077	-0.011302
O4	O	-1.087588	0.085098	0.257171
O5	O	-1.091662	-0.085351	-0.001144
O6	O	-0.950318	-0.085323	0.140210
O7	O	-1.218791	-0.085358	0.125976
Zn8	Zn	-1.082944	-0.112400	0.134706
Zn9	Zn	-1.096306	0.112147	0.121321
O10	O	-1.077447	-0.085330	0.267329
C11	C	-0.921029	-0.000105	0.134467
C12	C	-0.818648	-0.000092	0.132478
C13	C	-0.443749	-0.000136	0.125161
C14	C	-0.548058	-0.000123	0.127193
C15	C	-0.631195	-0.000113	0.128819
C16	C	-0.735511	-0.000102	0.130852
N17	N	-1.073832	-0.265646	0.143840
C18	C	-1.061435	-0.474686	0.156276
C19	C	-1.117820	-0.525573	0.099747
C20	C	-1.110922	-0.641890	0.106667
C21	C	-1.068332	-0.358359	0.149357
C22	C	-0.258222	-0.000143	0.121560
C23	C	-0.360603	-0.000142	0.123548
C24	C	-1.096066	-0.000137	-0.040582
C25	C	-1.094070	-0.000137	-0.142963
N26	N	-1.105425	0.265393	0.112180
C27	C	-1.092449	-0.000135	-0.226107
C28	C	-1.090423	-0.000127	-0.330416
C29	C	-1.088815	-0.000120	-0.413556
C30	C	-1.086789	-0.000114	-0.517871
C31	C	-1.083184	-0.000114	0.296609
C32	C	-1.085181	-0.000107	0.398989
H33	H	-1.007985	-0.518473	0.209865
O34	O	-1.188627	-0.467576	0.028754
H35	H	-1.236443	-0.418698	0.064732
