data_functionalizedCrystal
_audit_creation_method	'MofGen! by Chris Wilmer'
_symmetry_space_group_name_H-M	'P1'
_symmetry_Int_Tables_number	1
_symmetry_cell_setting	triclinic
loop_
_symmetry_equiv_pos_as_xyz
  x,y,z
_cell_length_a	13.032831
_cell_length_b	19.121063
_cell_length_c	13.032268
_cell_angle_alpha	99.247498
_cell_angle_beta	90.886977
_cell_angle_gamma	85.565596
loop_
_atom_site_label
_atom_site_type_symbol
_atom_site_fract_x
_atom_site_fract_y
_atom_site_fract_z
Zn1	Zn	1.465022	-0.473659	-0.806576
Zn2	Zn	1.965022	0.026341	-0.306576
Zn3	Zn	1.479383	-0.578156	-0.640274
Zn4	Zn	1.979383	-0.078156	-0.140274
Zn5	Zn	1.316950	-0.444360	-0.611224
Zn6	Zn	1.816950	0.055640	-0.111224
Zn7	Zn	1.285899	-0.574364	-0.790193
Zn8	Zn	1.785899	-0.074364	-0.290193
O9	O	1.386814	-0.517635	-0.712067
O10	O	1.886814	-0.017635	-0.212067
O11	O	1.609870	-0.501370	-0.803529
O12	O	2.109870	-0.001370	-0.303529
O13	O	1.476841	-0.549733	-0.491924
O14	O	1.976841	-0.049733	0.008076
O15	O	1.343577	-0.350107	-0.631836
O16	O	1.843577	0.149893	-0.131836
O17	O	1.620421	-0.578143	-0.681348
O18	O	2.120421	-0.078143	-0.181348
O19	O	1.452365	-0.371633	-0.775360
O20	O	1.952365	0.128367	-0.275360
O21	O	1.357502	-0.451434	-0.470581
O22	O	1.857502	0.048566	0.029419
O23	O	1.169889	-0.447756	-0.615951
O24	O	1.669889	0.052244	-0.115951
O25	O	1.290655	-0.571680	-0.936863
O26	O	1.790655	-0.071680	-0.436863
O27	O	1.147076	-0.543270	-0.747439
O28	O	1.647076	-0.043270	-0.247439
O29	O	1.422256	-0.497693	-0.948899
O30	O	1.922256	0.002307	-0.448899
O31	O	1.446733	-0.675793	-0.665463
O32	O	1.946733	-0.175793	-0.165463
O33	O	1.304581	-0.673007	-0.775608
O34	O	1.804581	-0.173007	-0.275608
C35	C	1.121419	-0.491923	-0.676766
C36	C	1.621419	0.008077	-0.176766
C37	C	1.007877	-0.480942	-0.661690
C38	C	1.507877	0.019058	-0.161690
C39	C	0.946005	-0.523366	-0.719935
C40	C	1.446005	-0.023366	-0.219935
C41	C	0.828653	-0.512018	-0.704355
C42	C	1.328653	-0.012018	-0.204355
C43	C	1.373870	-0.699851	-0.721936
C44	C	1.873870	-0.199851	-0.221936
C45	C	1.368422	-0.777815	-0.726206
C46	C	1.868422	-0.277815	-0.226206
C47	C	1.439917	-0.815879	-0.670926
C48	C	1.939917	-0.315879	-0.170926
C49	C	1.434798	-0.889136	-0.674948
C50	C	1.934798	-0.389136	-0.174948
C51	C	1.358179	-0.924327	-0.734244
C52	C	1.858179	-0.424327	-0.234244
C53	C	1.286681	-0.886258	-0.789530
C54	C	1.786681	-0.386258	-0.289530
C55	C	1.291805	-0.813003	-0.785514
C56	C	1.791805	-0.313003	-0.285514
C57	C	1.339006	-1.145437	-0.749244
C58	C	1.839006	-0.645437	-0.249244
C59	C	1.333886	-1.218697	-0.753254
C60	C	1.833886	-0.718697	-0.253254
C61	C	1.482005	-1.221570	-0.638672
C62	C	1.982005	-0.721570	-0.138672
C63	C	1.487118	-1.148313	-0.634656
C64	C	1.987118	-0.648313	-0.134656
C65	C	1.415624	-1.110251	-0.689946
C66	C	1.915624	-0.610251	-0.189946
C67	C	1.352943	-0.999207	-0.738354
C68	C	1.852943	-0.499207	-0.238354
C69	C	1.420865	-1.035374	-0.685842
C70	C	1.920865	-0.535374	-0.185842
C71	C	1.653245	-0.543448	-0.747506
C72	C	2.153245	-0.043448	-0.247506
C73	C	1.766782	-0.554448	-0.762608
C74	C	2.266782	-0.054448	-0.262608
C75	C	1.351390	-0.537532	-0.981395
C76	C	1.851390	-0.037532	-0.481395
C77	C	1.336295	-0.546011	-1.096167
C78	C	1.836295	-0.046011	-0.596167
C79	C	1.399833	-0.334712	-0.702185
C80	C	1.899833	0.165288	-0.202185
C81	C	1.405381	-0.256761	-0.697974
C82	C	1.905381	0.243239	-0.197974
C83	C	1.394678	-0.513183	-1.153291
C84	C	1.894678	-0.013183	-0.653291
C85	C	1.379078	-0.521945	-1.271914
C86	C	1.879078	-0.021945	-0.771914
C87	C	1.422162	-0.497771	-0.443791
C88	C	1.922162	0.002229	0.056209
C89	C	1.437469	-0.489113	-0.329036
C90	C	1.937469	0.010887	0.170964
H91	H	0.979912	-0.568086	-0.781340
H92	H	1.479912	-0.068086	-0.281340
H93	H	1.271503	-1.247349	-0.801559
H94	H	1.771503	-0.747349	-0.301559
H95	H	0.973970	-0.436217	-0.600292
H96	H	1.473970	0.063783	-0.100292
N97	N	1.274658	-1.035140	-0.798907
N98	N	1.774658	-0.535140	-0.298907
N99	N	1.210815	-1.001149	-0.848252
N100	N	1.710815	-0.501149	-0.348252
H101	H	1.155525	-1.026528	-0.891018
H102	H	1.655525	-0.526528	-0.391018
N103	N	1.507850	-0.928009	-0.618492
N104	N	2.007850	-0.428009	-0.118492
N105	N	1.576258	-0.896582	-0.565559
N106	N	2.076258	-0.396582	-0.065559
H107	H	1.627860	-0.924036	-0.525690
H108	H	2.127860	-0.424036	-0.025690
N109	N	0.786151	-0.455910	-0.627308
N110	N	1.286151	0.044090	-0.127308
N111	N	0.844261	-0.416020	-0.572537
N112	N	1.344261	0.083980	-0.072537
H113	H	0.814244	-0.376395	-0.518123
H114	H	1.314244	0.123605	-0.018123
H115	H	1.502304	-0.787232	-0.622636
H116	H	2.002304	-0.287232	-0.122636
N117	N	1.208400	-0.922189	-0.850094
N118	N	1.708400	-0.422189	-0.350094
N119	N	1.144568	-0.888191	-0.899442
N120	N	1.644568	-0.388191	-0.399442
H121	H	1.089277	-0.913565	-0.942214
H122	H	1.589277	-0.413565	-0.442214
H123	H	1.456208	-0.478588	-1.114376
H124	H	1.956208	0.021412	-0.614376
H125	H	1.499002	-0.454514	-1.290127
H126	H	1.999002	0.045486	-0.790127
H127	H	0.800683	-0.599170	-0.824020
H128	H	1.300683	-0.099170	-0.324020
N129	N	1.265974	-1.106557	-0.805704
N130	N	1.765974	-0.606557	-0.305704
N131	N	1.208553	-1.056735	-0.758438
N132	N	1.708553	-0.556735	-0.258438
H133	H	1.156973	-1.029270	-0.798317
H134	H	1.656973	-0.529270	-0.298317
N135	N	1.565387	-1.112380	-0.574077
N136	N	2.065387	-0.612380	-0.074077
N137	N	1.629217	-1.146375	-0.524722
N138	N	2.129217	-0.646375	-0.024722
H139	H	1.684493	-1.120997	-0.481934
H140	H	2.184493	-0.620997	0.018066
N141	N	1.218772	-0.774131	-0.841994
N142	N	1.718772	-0.274131	-0.341994
N143	N	1.150369	-0.805558	-0.894936
N144	N	1.650369	-0.305558	-0.394936
H145	H	1.098789	-0.778106	-0.934833
H146	H	1.598789	-0.278106	-0.434833
H147	H	1.483252	-1.006720	-0.637567
H148	H	1.983252	-0.506720	-0.137567
N149	N	1.259095	-0.589398	-1.144988
N150	N	1.759095	-0.089398	-0.644988
N151	N	1.246528	-0.596452	-1.241280
N152	N	1.746528	-0.096452	-0.741280
H153	H	1.192003	-0.627095	-1.275759
H154	H	1.692003	-0.127095	-0.775759
N155	N	1.301862	-0.565331	-1.320716
N156	N	1.801862	-0.065331	-0.820716
N157	N	1.230667	-0.538758	-1.370926
N158	N	1.730667	-0.038758	-0.870926
H159	H	1.176132	-0.569396	-1.405395
H160	H	1.676132	-0.069396	-0.905395
N161	N	1.555021	-1.260460	-0.582203
N162	N	2.055021	-0.760460	-0.082203
N163	N	1.550439	-1.325865	-0.585792
N164	N	2.050439	-0.825865	-0.085792
H165	H	1.602011	-1.353333	-0.545911
H166	H	2.102011	-0.853333	-0.045911
