data_functionalizedCrystal
_audit_creation_method	'MofGen! by Chris Wilmer'
_symmetry_space_group_name_H-M	'P1'
_symmetry_Int_Tables_number	1
_symmetry_cell_setting	triclinic
loop_
_symmetry_equiv_pos_as_xyz
  x,y,z
_cell_length_a	9.065218
_cell_length_b	10.868271
_cell_length_c	9.065215
_cell_angle_alpha	90.004170
_cell_angle_beta	85.015291
_cell_angle_gamma	90.004378
loop_
_atom_site_label
_atom_site_type_symbol
_atom_site_fract_x
_atom_site_fract_y
_atom_site_fract_z
O1	O	1.960399	0.102323	0.216358
O2	O	2.460399	0.602323	0.716358
O3	O	1.531114	0.102324	0.234104
O4	O	2.031114	0.602324	0.734104
O5	O	1.754632	0.102318	0.010589
O6	O	2.254632	0.602318	0.510589
O7	O	1.736881	0.102329	0.439874
O8	O	2.236881	0.602329	0.939874
O9	O	1.754613	-0.102326	0.010580
O10	O	2.254613	0.397674	0.510580
O11	O	1.531095	-0.102320	0.234095
O12	O	2.031095	0.397680	0.734095
O13	O	1.960380	-0.102322	0.216349
O14	O	2.460380	0.397678	0.716349
Zn15	Zn	1.745735	-0.134813	0.225221
Zn16	Zn	2.245735	0.365187	0.725221
Zn17	Zn	1.745759	0.134815	0.225233
Zn18	Zn	2.245759	0.634815	0.725233
O19	O	1.736862	-0.102316	0.439865
O20	O	2.236862	0.397684	0.939865
C21	C	1.476118	0.000002	0.232394
C22	C	1.976118	0.500002	0.732394
C23	C	1.312275	0.000003	0.227295
C24	C	1.812275	0.500003	0.727295
N25	N	1.745729	-0.318827	0.225212
N26	N	2.245729	0.181173	0.725212
C27	C	1.745752	-0.569833	0.225229
C28	C	2.245752	-0.069833	0.725229
C29	C	1.745734	-0.430156	0.225224
C30	C	2.245734	0.069844	0.725224
C31	C	2.015376	0.000003	0.218059
C32	C	2.515376	0.500003	0.718059
C33	C	2.179219	0.000010	0.223159
C34	C	2.679219	0.500010	0.723159
C35	C	1.752917	-0.000003	-0.044403
C36	C	2.252917	0.499997	0.455597
C37	C	1.747819	0.000001	-0.208246
C38	C	2.247819	0.500001	0.291754
N39	N	1.745777	0.318829	0.225230
N40	N	2.245777	0.818829	0.725230
C41	C	1.738576	0.000008	0.494856
C42	C	2.238576	0.500008	0.994856
C43	C	1.743674	0.000012	0.658699
C44	C	2.243674	0.500012	1.158699
