data_functionalizedCrystal
_audit_creation_method	'MofGen! by Chris Wilmer'
_symmetry_space_group_name_H-M	'P1'
_symmetry_Int_Tables_number	1
_symmetry_cell_setting	triclinic
loop_
_symmetry_equiv_pos_as_xyz
  x,y,z
_cell_length_a	16.109301
_cell_length_b	16.109301
_cell_length_c	14.586319
_cell_angle_alpha	89.994786
_cell_angle_beta	89.998857
_cell_angle_gamma	83.461532
loop_
_atom_site_label
_atom_site_type_symbol
_atom_site_fract_x
_atom_site_fract_y
_atom_site_fract_z
O1	O	1.103131	0.106867	-0.076193
O2	O	0.861069	0.120166	-0.076206
O3	O	0.988749	-0.007514	-0.076190
O4	O	0.975450	0.234548	-0.076209
O5	O	0.988740	-0.007516	0.076291
O6	O	0.861060	0.120164	0.076275
O7	O	1.103122	0.106865	0.076288
Cu8	Cu	0.982090	0.113515	0.090204
Cu9	Cu	0.982100	0.113517	-0.090122
O10	O	0.975441	0.234546	0.076272
C11	C	0.830089	0.119627	0.000033
C12	C	0.737794	0.118011	0.000028
C13	C	0.988206	-0.038490	0.000051
C14	C	0.986591	-0.130785	0.000052
C15	C	0.428796	0.188494	0.000038
C16	C	0.515516	0.190020	0.000033
C17	C	0.535389	0.038531	0.000033
C18	C	0.448671	0.037007	0.000032
C19	C	0.395376	0.111991	0.000039
C20	C	0.568815	0.115041	0.000035
C21	C	0.662841	0.116694	0.000029
C22	C	0.301344	0.110338	0.000043
C23	C	1.058599	-0.353058	0.000042
C24	C	1.057075	-0.439778	0.000034
C25	C	0.905586	-0.419904	0.000029
C26	C	0.907111	-0.333185	0.000030
C27	C	0.983620	-0.299765	0.000041
C28	C	0.980571	-0.473204	0.000033
C29	C	0.978918	-0.567230	0.000024
C30	C	0.985273	-0.205733	0.000048
C31	C	1.134101	0.107405	0.000047
C32	C	1.226396	0.109020	0.000046
C33	C	0.975984	0.265522	0.000029
C34	C	0.977599	0.357817	0.000021
N35	N	0.982089	0.113513	0.217036
N36	N	0.982108	0.113512	-0.216954
C37	C	1.038644	0.056994	0.452049
C38	C	1.038647	0.056992	0.548031
C39	C	0.925547	0.170033	0.548026
C40	C	0.925541	0.170030	0.452046
C41	C	0.982094	0.113512	0.404060
C42	C	0.982103	0.113513	0.596021
C43	C	0.982105	0.113511	0.700088
C44	C	0.982092	0.113513	0.299987
H45	H	0.385405	0.249551	0.000044
O46	O	0.587280	-0.034228	0.000075
C47	C	0.670987	-0.016479	0.000056
H48	H	0.674290	0.048822	0.028922
H49	H	0.710288	-0.064276	0.044328
H50	H	0.696071	-0.019633	-0.073096
O51	O	0.547842	0.264408	0.000076
C52	C	0.482204	0.330259	0.000057
H53	H	0.423302	0.306962	0.028927
H54	H	0.500310	0.383670	0.044327
H55	H	0.469923	0.353393	-0.073095
H56	H	0.421461	-0.025296	0.000029
O57	O	0.870503	0.224851	0.594602
C58	C	0.788208	0.211324	0.571144
H59	H	0.787820	0.144758	0.544767
H60	H	0.746487	0.220874	0.634268
H61	H	0.763770	0.257400	0.515430
H62	H	0.879487	0.216054	0.412971
H63	H	1.120897	-0.325850	0.000049
H64	H	1.084694	0.010970	0.587101
H65	H	1.118130	-0.483167	0.000032
H66	H	0.843295	-0.447126	0.000022
O67	O	0.834195	-0.281529	0.000071
C68	C	0.766339	-0.329620	0.000046
H69	H	0.787452	-0.394352	0.028916
H70	H	0.713805	-0.297614	0.044312
H71	H	0.742891	-0.335781	-0.073108
H72	H	1.084693	0.010973	0.412982
