data_functionalizedCrystal
_audit_creation_method	'MofGen! by Chris Wilmer'
_symmetry_space_group_name_H-M	'P1'
_symmetry_Int_Tables_number	1
_symmetry_cell_setting	triclinic
loop_
_symmetry_equiv_pos_as_xyz
  x,y,z
_cell_length_a	12.503572
_cell_length_b	14.044220
_cell_length_c	14.044220
_cell_angle_alpha	86.811122
_cell_angle_beta	86.154684
_cell_angle_gamma	86.164750
loop_
_atom_site_label
_atom_site_type_symbol
_atom_site_fract_x
_atom_site_fract_y
_atom_site_fract_z
O1	O	0.089201	-1.282200	0.225117
O2	O	0.089228	-1.005530	0.216810
O3	O	0.089210	-1.139712	0.082628
O4	O	0.089219	-1.148018	0.359299
O5	O	-0.089431	-1.129622	0.092737
O6	O	-0.089413	-0.995440	0.226919
O7	O	-0.089440	-1.272110	0.235226
Cu8	Cu	-0.105738	-1.132854	0.231996
Cu9	Cu	0.105526	-1.144786	0.220040
O10	O	-0.089422	-1.137928	0.369408
C11	C	-0.000089	-0.964863	0.218228
C12	C	-0.000078	-0.858721	0.207383
N13	N	-0.254329	-1.124468	0.240405
C14	C	-0.000109	-1.131031	0.052060
C15	C	-0.000105	-1.120187	-0.054083
C16	C	-0.473442	-1.112133	0.252783
C17	C	-0.526777	-1.165510	0.199249
C18	C	-0.648699	-1.158647	0.206136
C19	C	-0.351509	-1.118995	0.245897
N20	N	0.254117	-1.153178	0.211624
C21	C	-0.000121	-1.312776	0.233807
C22	C	-0.000124	-1.418919	0.244652
C23	C	-0.000100	-0.664382	0.187558
C24	C	-0.000102	-0.613252	0.264473
C25	C	-0.000115	-0.505115	0.253442
C26	C	-0.000088	-0.772529	0.198588
C27	C	-0.000101	-1.146609	0.399975
C28	C	-0.000098	-1.157453	0.506118
C29	C	-0.000105	-1.177279	0.700456
C30	C	-0.000098	-1.100365	0.751585
C31	C	-0.000102	-1.111397	0.859722
C32	C	-0.000101	-1.166249	0.592310
H33	H	-0.519343	-1.061285	0.303784
O34	O	0.000020	-1.265672	0.745214
C35	C	0.092547	-1.281862	0.797427
H36	H	0.123409	-1.210419	0.813993
H37	H	0.157326	-1.324118	0.753413
C38	C	0.026519	-1.426720	0.871192
C39	C	0.064419	-1.338972	0.891546
H40	H	0.009171	-1.461952	0.929248
H41	H	-0.035816	-1.415815	0.836013
H42	H	0.080508	-1.461921	0.834512
H43	H	0.010426	-1.303768	0.928216
H44	H	0.126745	-1.349873	0.926734
O45	O	-0.000019	-0.658065	0.352841
C46	C	-0.000023	-0.757623	0.344329
H47	H	0.033769	-0.776488	0.269845
H48	H	-0.085715	-0.780929	0.356134
C49	C	0.028579	-0.786242	0.511185
C50	C	0.070091	-0.809412	0.419705
H51	H	0.071824	-0.818189	0.557682
H52	H	0.028578	-0.719168	0.516922
H53	H	-0.042830	-0.805664	0.521009
H54	H	0.141494	-0.789979	0.409878
H55	H	0.070106	-0.876485	0.413968
O56	O	-0.472187	-1.226204	0.138326
C57	C	-0.545789	-1.274508	0.089926
H58	H	-0.625988	-1.230823	0.090035
H59	H	-0.557703	-1.347440	0.127513
C60	C	-0.403255	-1.341418	-0.014000
C61	C	-0.501755	-1.287760	-0.013873
H62	H	-0.376093	-1.349597	-0.078027
H63	H	-0.353667	-1.308878	0.018610
H64	H	-0.413197	-1.402189	0.017327
H65	H	-0.491810	-1.226986	-0.045189
H66	H	-0.551341	-1.320290	-0.046491
O67	O	-0.000240	-1.011865	0.707043
C68	C	-0.092774	-0.956774	0.738997
H69	H	-0.123618	-0.986779	0.812053
H70	H	-0.157560	-0.959401	0.685990
C71	C	-0.026791	-0.815663	0.657093
C72	C	-0.064669	-0.852510	0.746825
H73	H	-0.009457	-0.751347	0.661917
H74	H	0.035549	-0.852778	0.635561
H75	H	-0.080786	-0.817861	0.612929
H76	H	-0.010669	-0.850323	0.790983
H77	H	-0.127000	-0.815392	0.768364
O78	O	0.000045	-0.619841	0.099064
C79	C	0.092586	-0.651771	0.043961
H80	H	0.123432	-0.724823	0.073957
H81	H	0.157367	-0.598751	0.046587
C82	C	0.026610	-0.569870	-0.097138
C83	C	0.064490	-0.659597	-0.060301
H84	H	0.009282	-0.574693	-0.161453
H85	H	-0.035735	-0.548354	-0.060014
H86	H	0.080601	-0.525695	-0.094941
H87	H	0.010495	-0.703766	-0.062488
H88	H	0.126825	-0.681120	-0.097428
