data_functionalizedCrystal
_audit_creation_method	'MofGen! by Chris Wilmer'
_symmetry_space_group_name_H-M	'P1'
_symmetry_Int_Tables_number	1
_symmetry_cell_setting	triclinic
loop_
_symmetry_equiv_pos_as_xyz
  x,y,z
_cell_length_a	14.971506
_cell_length_b	8.559649
_cell_length_c	13.448316
_cell_angle_alpha	89.994831
_cell_angle_beta	89.992937
_cell_angle_gamma	76.700526
loop_
_atom_site_label
_atom_site_type_symbol
_atom_site_fract_x
_atom_site_fract_y
_atom_site_fract_z
O1	O	1.172499	0.208355	-0.082694
O2	O	0.910376	0.233254	-0.082694
O3	O	1.064531	-0.011751	-0.082693
O4	O	1.018344	0.453359	-0.082695
O5	O	1.064515	-0.011766	0.082691
O6	O	0.910360	0.233238	0.082690
O7	O	1.172483	0.208340	0.082690
Cu8	Cu	1.041420	0.220788	0.097791
Cu9	Cu	1.041439	0.220806	-0.097795
O10	O	1.018328	0.453344	0.082689
C11	C	0.877121	0.232127	-0.000002
C12	C	0.778058	0.228772	-0.000002
C13	C	1.068023	-0.071281	-0.000003
C14	C	1.078442	-0.248640	-0.000008
C15	C	0.330689	0.359908	-0.000013
C16	C	0.423771	0.363047	-0.000017
C17	C	0.490965	0.219097	-0.000012
C18	C	0.465074	0.071999	-0.000013
C19	C	0.371992	0.068862	-0.000016
C20	C	0.659083	0.078549	-0.000004
C21	C	0.752171	0.081686	0.000000
C22	C	0.710862	0.372734	-0.000006
C23	C	0.617780	0.369596	-0.000009
C24	C	0.591895	0.222498	-0.000008
C25	C	1.205738	0.209467	-0.000004
C26	C	1.304802	0.212821	-0.000011
C27	C	1.014836	0.512874	-0.000003
C28	C	1.004418	0.690233	-0.000004
N29	N	1.041413	0.220774	0.235355
N30	N	1.041454	0.220807	-0.235359
C31	C	1.109689	0.112331	0.287396
C32	C	1.109694	0.112330	0.391499
C33	C	1.041427	0.220781	0.443560
C34	C	0.973145	0.329229	0.391512
C35	C	0.973136	0.329221	0.287410
C36	C	0.973169	0.329240	0.608492
C37	C	0.973179	0.329250	0.712600
C38	C	1.109727	0.112348	0.712581
C39	C	1.109718	0.112341	0.608479
C40	C	1.041437	0.220791	0.556438
H41	H	0.275983	0.477129	-0.000009
F42	F	0.900518	0.444676	0.768000
H43	H	1.149792	-0.332000	-0.000000
H44	H	0.806879	-0.035531	-0.000004
F45	F	0.911161	-0.200823	-0.000002
H46	H	0.638012	-0.041234	-0.000008
H47	H	1.165282	0.024025	0.245015
F48	F	0.344443	-0.087688	-0.000013
H49	H	1.165289	0.024026	0.433870
H50	H	1.165310	0.024040	0.566092
H51	H	1.165324	0.024044	0.754958
F52	F	0.900492	0.444662	0.553110
F53	F	0.536589	-0.081203	-0.000011
H54	H	0.917557	0.417526	0.433905
H55	H	0.917539	0.417525	0.245040
H56	H	0.444842	0.482819	-0.000028
H57	H	0.563072	0.486813	-0.000006
F58	F	0.738411	0.529288	0.000001
