data_functionalizedCrystal
_audit_creation_method	'MofGen! by Chris Wilmer'
_symmetry_space_group_name_H-M	'P1'
_symmetry_Int_Tables_number	1
_symmetry_cell_setting	triclinic
loop_
_symmetry_equiv_pos_as_xyz
  x,y,z
_cell_length_a	16.109301
_cell_length_b	16.992696
_cell_length_c	16.053802
_cell_angle_alpha	92.733271
_cell_angle_beta	92.577771
_cell_angle_gamma	92.935033
loop_
_atom_site_label
_atom_site_type_symbol
_atom_site_fract_x
_atom_site_fract_y
_atom_site_fract_z
O1	O	1.113144	-0.097484	0.069391
O2	O	1.613144	0.402516	0.569391
O3	O	0.871919	-0.110026	0.069406
O4	O	1.371919	0.389974	0.569406
O5	O	0.991563	0.010386	0.069375
O6	O	1.491563	0.510386	0.569375
O7	O	0.993500	-0.217896	0.069422
O8	O	1.493500	0.282104	0.569422
O9	O	0.984976	0.003786	-0.069482
O10	O	1.484976	0.503786	0.430518
O11	O	0.865332	-0.116627	-0.069451
O12	O	1.365332	0.383373	0.430549
O13	O	1.106556	-0.104085	-0.069466
O14	O	1.606556	0.395915	0.430534
Zn15	Zn	0.984898	-0.111404	-0.091505
Zn16	Zn	1.484898	0.388596	0.408495
Zn17	Zn	0.993577	-0.102707	0.091445
Zn18	Zn	1.493577	0.397293	0.591445
O19	O	0.986913	-0.224497	-0.069436
O20	O	1.486913	0.275503	0.430564
C21	C	0.837617	-0.112818	-0.000021
C22	C	1.337617	0.387182	0.499979
C23	C	0.745220	-0.111295	-0.000016
C24	C	1.245220	0.388705	0.499984
C25	C	0.527480	-0.179204	-0.000012
C26	C	1.027480	0.320796	0.499988
C27	C	0.440663	-0.177767	-0.000018
C28	C	0.940663	0.322233	0.499982
C29	C	0.451003	-0.034901	-0.000043
C30	C	0.951003	0.465099	0.499957
C31	C	0.537817	-0.036340	-0.000043
C32	C	1.037817	0.463660	0.499957
C33	C	0.576054	-0.108493	-0.000024
C34	C	1.076054	0.391507	0.499976
C35	C	0.402422	-0.105618	-0.000029
C36	C	0.902422	0.394382	0.499971
C37	C	0.308292	-0.104059	-0.000035
C38	C	0.808292	0.395941	0.499965
C39	C	0.670190	-0.110052	-0.000019
C40	C	1.170190	0.389948	0.499981
C41	C	0.985781	0.036298	-0.000057
C42	C	1.485781	0.536298	0.499943
C43	C	0.978357	0.123339	-0.000069
C44	C	1.478357	0.623339	0.499931
C45	C	1.049982	0.173597	-0.000081
C46	C	1.549982	0.673597	0.499919
C47	C	1.043002	0.255382	-0.000085
C48	C	1.543002	0.755382	0.499915
C49	C	0.964395	0.286907	-0.000082
C50	C	1.464395	0.786907	0.499918
C51	C	0.892765	0.236642	-0.000068
C52	C	1.392765	0.736642	0.499932
C53	C	0.899746	0.154859	-0.000058
C54	C	1.399746	0.654859	0.499942
C55	C	0.935461	0.530496	-0.000104
C56	C	1.435461	1.030496	0.499896
C57	C	0.928485	0.612285	-0.000116
C58	C	1.428485	1.112285	0.499884
C59	C	1.078723	0.631019	-0.000132
C60	C	1.578723	1.131019	0.499868
C61	C	1.085697	0.549234	-0.000127
C62	C	1.585697	1.049234	0.499873
C63	C	1.014067	0.498977	-0.000108
C64	C	1.514067	0.998977	0.499892
N65	N	0.957258	0.370503	-0.000088
N66	N	1.457258	0.870503	0.499912
N67	N	1.021205	0.415382	-0.000096
N68	N	1.521205	0.915382	0.499904
C69	C	1.140859	-0.101293	-0.000037
C70	C	1.640859	0.398707	0.499963
C71	C	1.233256	-0.102816	-0.000037
C72	C	1.733256	0.397184	0.499963
N73	N	0.978981	-0.117338	-0.216364
N74	N	1.478981	0.382662	0.283636
C75	C	0.992692	0.749590	-0.000037
C76	C	1.492692	1.249590	0.499963
C77	C	1.000110	0.662543	-0.000128
C78	C	1.500110	1.162543	0.499872
C79	C	1.029911	-0.066121	-0.260071
C80	C	1.529911	0.433879	0.239929
C81	C	1.025780	-0.070280	-0.347477
C82	C	1.525780	0.429720	0.152523
C83	C	0.970723	-0.125660	-0.391174
C84	C	1.470723	0.374340	0.108826
C85	C	0.919788	-0.176880	-0.347461
C86	C	1.419788	0.323120	0.152539
C87	C	0.923915	-0.172717	-0.260057
C88	C	1.423915	0.327283	0.239943
C89	C	0.952693	-0.143823	-0.652579
C90	C	1.452693	0.356177	-0.152579
C91	C	0.948571	-0.147984	-0.739989
C92	C	1.448571	0.352016	-0.239989
C93	C	1.054563	-0.041382	-0.739999
C94	C	1.554563	0.458618	-0.239999
C95	C	1.058689	-0.037227	-0.652593
C96	C	1.558689	0.462773	-0.152593
C97	C	1.007750	-0.088444	-0.608888
C98	C	1.507750	0.411556	-0.108888
N99	N	0.966501	-0.129914	-0.480517
N100	N	1.466501	0.370086	0.019483
N101	N	1.011969	-0.084186	-0.519547
N102	N	1.511969	0.415814	-0.019547
N103	N	0.999501	-0.096766	0.216304
N104	N	1.499501	0.403234	0.716304
H105	H	1.113992	0.147937	-0.000088
H106	H	1.613992	0.647937	0.499912
H107	H	0.401118	-0.235347	-0.000010
H108	H	0.901118	0.264653	0.499990
H109	H	0.903735	-0.193084	-0.775563
H110	H	1.403735	0.306916	-0.275563
H111	H	1.137040	0.671947	-0.000146
H112	H	1.637040	1.171947	0.499854
H113	H	0.419860	0.023843	-0.000064
H114	H	0.919860	0.523843	0.499936
O115	O	0.852112	0.642882	0.000041
O116	O	1.352112	1.142882	0.500041
C117	C	0.811529	0.620603	0.071959
C118	C	1.311529	1.120603	0.571959
H119	H	0.859788	0.605985	0.122218
H120	H	1.359788	1.105985	0.622218
H121	H	0.774021	0.671289	0.096097
H122	H	1.274021	1.171289	0.596097
H123	H	0.767962	0.566523	0.055716
H124	H	1.267962	1.066523	0.555716
H125	H	0.577368	0.021245	-0.000055
H126	H	1.077368	0.521245	0.499945
H127	H	0.877134	0.489586	-0.000089
H128	H	1.377134	0.989586	0.499911
O129	O	0.816467	0.267391	-0.000102
O130	O	1.316467	0.767391	0.499898
C131	C	0.825663	0.350353	-0.000095
C132	C	1.325663	0.850353	0.499905
H133	H	0.888019	0.368327	-0.026390
H134	H	1.388019	0.868327	0.473610
H135	H	0.773123	0.373536	-0.040410
H136	H	1.273123	0.873536	0.459590
H137	H	0.823281	0.376281	0.066519
H138	H	1.323281	0.876281	0.566519
H139	H	1.103520	0.007868	-0.617017
H140	H	1.603520	0.507868	-0.117017
H141	H	0.558609	-0.237956	-0.000002
H142	H	1.058609	0.262044	0.499998
H143	H	0.911218	-0.185527	-0.617001
H144	H	1.411218	0.314473	-0.117001
O145	O	1.161991	0.518482	-0.000158
O146	O	1.661991	1.018482	0.499842
C147	C	1.152795	0.435522	-0.000125
C148	C	1.652795	0.935522	0.499875
H149	H	1.087945	0.415053	-0.026411
H150	H	1.587945	0.915053	0.473589
H151	H	1.201511	0.408509	-0.040434
H152	H	1.701511	0.908509	0.459566
H153	H	1.161492	0.415921	0.066496
H154	H	1.661492	0.915921	0.566496
H155	H	0.874955	-0.221969	-0.383044
H156	H	1.374955	0.278031	0.116956
O157	O	0.830083	0.106146	-0.000083
O158	O	1.330083	0.606146	0.499917
C159	C	0.759206	0.151506	-0.000062
C160	C	1.259206	0.651506	0.499938
H161	H	0.775001	0.211301	-0.026363
H162	H	1.275001	0.711301	0.473637
H163	H	0.706771	0.119408	-0.040364
H164	H	1.206771	0.619408	0.459636
H165	H	0.738532	0.160488	0.066557
H166	H	1.238532	0.660488	0.566557
O167	O	1.083414	-0.012254	-0.217757
O168	O	1.583414	0.487746	0.282243
C169	C	1.127493	0.032046	-0.275081
C170	C	1.627493	0.532046	0.224919
H171	H	1.090405	0.029973	-0.337392
H172	H	1.590405	0.529973	0.162608
H173	H	1.137211	0.095864	-0.249847
H174	H	1.637211	0.595864	0.250153
H175	H	1.190506	0.006127	-0.284358
H176	H	1.690506	0.506127	0.215642
O177	O	1.075138	-0.020453	-0.389966
O178	O	1.575138	0.479547	0.110034
C179	C	1.025024	0.025522	-0.440562
C180	C	1.525024	0.525522	0.059438
H181	H	0.960613	0.028124	-0.414239
H182	H	1.460613	0.528124	0.085761
H183	H	1.054767	0.087784	-0.441560
H184	H	1.554767	0.587784	0.058440
H185	H	1.019171	-0.002165	-0.506800
H186	H	1.519171	0.497835	-0.006800
O187	O	1.112661	0.304089	-0.000139
O188	O	1.612661	0.804089	0.499861
C189	C	1.183539	0.258728	-0.000126
C190	C	1.683539	0.758728	0.499874
H191	H	1.165242	0.196436	-0.026405
H192	H	1.665242	0.696436	0.473595
H193	H	1.232142	0.286996	-0.040452
H194	H	1.732142	0.786996	0.459548
H195	H	1.210546	0.256072	0.066487
H196	H	1.710546	0.756072	0.566487
O197	O	1.103951	0.008335	-0.782584
O198	O	1.603951	0.508335	-0.282584
C199	C	1.088521	-0.007224	-0.869100
C200	C	1.588521	0.492776	-0.369100
H201	H	1.023806	-0.037080	-0.881041
H202	H	1.523806	0.462920	-0.381041
H203	H	1.092258	0.050572	-0.902334
H204	H	1.592258	0.550572	-0.402334
H205	H	1.137020	-0.047742	-0.893882
H206	H	1.637020	0.452258	-0.393882
H207	H	0.882442	-0.214422	-0.224471
H208	H	1.382442	0.285578	0.275529
