data_functionalizedCrystal
_audit_creation_method	'MofGen! by Chris Wilmer'
_symmetry_space_group_name_H-M	'P1'
_symmetry_Int_Tables_number	1
_symmetry_cell_setting	triclinic
loop_
_symmetry_equiv_pos_as_xyz
  x,y,z
_cell_length_a	27.731994
_cell_length_b	9.065215
_cell_length_c	26.809956
_cell_angle_alpha	90.005768
_cell_angle_beta	89.997355
_cell_angle_gamma	83.817616
loop_
_atom_site_label
_atom_site_type_symbol
_atom_site_fract_x
_atom_site_fract_y
_atom_site_fract_z
O1	O	0.642143	0.175120	-0.041408
O2	O	0.501528	0.201892	-0.041424
O3	O	0.574743	-0.026324	-0.041413
O4	O	0.568928	0.403335	-0.041418
O5	O	0.574729	-0.026287	0.041546
O6	O	0.501514	0.201928	0.041535
O7	O	0.642129	0.175156	0.041552
Zn8	Zn	0.571820	0.188548	0.054715
Zn9	Zn	0.571838	0.188500	-0.054587
O10	O	0.568915	0.403371	0.041541
C11	C	0.483510	0.201360	0.000053
C12	C	0.429843	0.199705	0.000047
C13	C	0.574177	-0.081256	0.000066
C14	C	0.572508	-0.244992	0.000064
C15	C	0.097046	0.189301	0.045288
C16	C	-0.104656	0.183010	0.045293
O17	O	-0.130741	0.182150	0.083752
N18	N	-0.129868	0.182209	0.000072
C19	C	-0.104652	0.182971	-0.045153
O20	O	-0.130724	0.182130	-0.083616
C21	C	0.097049	0.189252	-0.045159
C22	C	0.122258	0.190068	0.000065
C23	C	0.122255	0.190116	0.090508
C24	C	0.172677	0.191697	0.090506
C25	C	0.197889	0.192463	0.045284
C26	C	0.172680	0.191649	0.000064
C27	C	0.122264	0.190003	-0.090384
C28	C	0.172693	0.191569	-0.090381
C29	C	0.197902	0.192386	-0.045157
C30	C	0.248314	0.193996	-0.045160
N31	N	0.273527	0.194797	0.000061
C32	C	0.248314	0.194031	0.045283
C33	C	-0.210548	0.179676	-0.045147
C34	C	-0.260973	0.178109	-0.045146
C35	C	-0.260973	0.178145	0.045301
C36	C	-0.210547	0.179724	0.045299
C37	C	-0.185335	0.180478	0.000074
C38	C	0.354204	0.197352	0.045275
C39	C	0.404630	0.198939	0.045269
C40	C	0.404626	0.198894	-0.045177
C41	C	0.354204	0.197315	-0.045172
C42	C	0.328994	0.196539	0.000059
O43	O	0.274431	0.194840	-0.083599
O44	O	0.274397	0.194839	0.083740
C45	C	0.046624	0.187721	0.045290
C46	C	0.021414	0.186906	0.000069
C47	C	0.046627	0.187672	-0.045153
C48	C	-0.029011	0.185339	0.000070
C49	C	-0.054223	0.184572	0.045293
C50	C	-0.029011	0.185373	0.090514
C51	C	0.021411	0.186954	0.090512
C52	C	0.021414	0.186871	-0.090374
C53	C	-0.029008	0.185292	-0.090368
C54	C	-0.054221	0.184526	-0.045146
C55	C	0.660147	0.175687	0.000073
C56	C	0.713815	0.177343	0.000076
C57	C	0.569480	0.458304	0.000061
C58	C	0.571150	0.622040	0.000059
N59	N	0.571811	0.188580	0.129311
C60	C	0.604253	0.087482	0.473942
C61	C	0.604264	0.087463	0.682819
O62	O	0.631828	0.001510	0.709827
N63	N	0.571840	0.188483	0.708938
C64	C	0.539409	0.289507	0.682834
O65	O	0.511827	0.375420	0.709842
C66	C	0.539395	0.289518	0.473957
C67	C	0.571825	0.188502	0.447841
C68	C	0.636680	-0.013527	0.447826
C69	C	0.636678	-0.013516	0.395609
C70	C	0.604250	0.087504	0.369509
C71	C	0.571824	0.188513	0.395625
C72	C	0.506962	0.390534	0.447854
C73	C	0.506961	0.390526	0.395632
C74	C	0.539390	0.289509	0.369516
C75	C	0.539394	0.289544	0.317308
N76	N	0.571819	0.188524	0.291190
C77	C	0.604246	0.087504	0.317290
C78	C	0.539419	0.289497	0.792497
C79	C	0.539422	0.289496	0.844716
C80	C	0.604277	0.087450	0.844698
C81	C	0.604276	0.087458	0.792478
C82	C	0.571843	0.188477	0.766379
C83	C	0.604241	0.087536	0.207632
C84	C	0.604239	0.087560	0.155411
C85	C	0.539382	0.289600	0.155434
C86	C	0.539386	0.289582	0.207650
C87	C	0.571818	0.188538	0.233748
O88	O	0.511841	0.375441	0.290268
O89	O	0.631817	0.001582	0.290273
C90	C	0.604254	0.087471	0.526158
C91	C	0.571828	0.188480	0.552274
C92	C	0.539400	0.289500	0.526174
C93	C	0.571832	0.188479	0.604493
C94	C	0.604259	0.087459	0.630593
C95	C	0.636684	-0.013560	0.604475
C96	C	0.636682	-0.013549	0.552258
C97	C	0.506976	0.390519	0.552292
C98	C	0.506980	0.390501	0.604509
C99	C	0.539408	0.289481	0.630609
N100	N	0.571850	0.188476	0.870817
H101	H	0.425153	0.199608	0.082098
Br102	Br	0.495399	0.426608	0.757082
Br103	Br	0.319999	0.196294	0.106660
Br104	Br	0.088048	0.189082	0.151890
Br105	Br	-0.063238	0.184344	0.151886
H106	H	-0.281509	0.177525	0.082122
H107	H	0.663086	-0.095797	0.469072
Br108	Br	-0.295181	0.177038	-0.106524
H109	H	0.630650	0.005254	0.228875
H110	H	-0.190025	0.180289	-0.081977
H111	H	0.193198	0.192352	0.127332
Br112	Br	0.648289	-0.049640	0.757041
H113	H	0.630648	0.005300	0.134149
H114	H	0.663089	-0.095806	0.530999
Br115	Br	0.648287	-0.049647	0.880131
Br116	Br	0.495417	0.426618	0.880154
Br117	Br	0.462962	0.527629	0.516877
H118	H	0.333677	0.196675	-0.081997
Br119	Br	0.088064	0.188894	-0.151763
H120	H	0.193218	0.192184	-0.127210
Br121	Br	-0.063215	0.184198	-0.151750
H122	H	-0.190025	0.180390	0.082124
Br123	Br	0.495380	0.426699	0.243092
Br124	Br	0.438853	0.199928	-0.106547
Br125	Br	0.680689	-0.150622	0.360172
Br126	Br	0.462940	0.527626	0.360215
H127	H	0.480555	0.472790	0.469111
H128	H	0.041932	0.187619	0.127338
H129	H	0.512981	0.371854	0.134175
H130	H	0.041937	0.187491	-0.127200
H131	H	0.663090	-0.095810	0.625734
H132	H	0.480573	0.472773	0.625769
