data_functionalizedCrystal
_audit_creation_method	'MofGen! by Chris Wilmer'
_symmetry_space_group_name_H-M	'P1'
_symmetry_Int_Tables_number	1
_symmetry_cell_setting	triclinic
loop_
_symmetry_equiv_pos_as_xyz
  x,y,z
_cell_length_a	14.421503
_cell_length_b	15.944551
_cell_length_c	15.944551
_cell_angle_alpha	96.501262
_cell_angle_beta	89.996660
_cell_angle_gamma	89.996859
loop_
_atom_site_label
_atom_site_type_symbol
_atom_site_fract_x
_atom_site_fract_y
_atom_site_fract_z
O1	O	0.077017	-1.114529	0.108320
O2	O	0.077040	-0.869980	0.121677
O3	O	0.077020	-0.998933	-0.007276
O4	O	0.077038	-0.985576	0.237273
O5	O	-0.077204	-0.998911	-0.007257
O6	O	-0.077183	-0.869958	0.121696
O7	O	-0.077206	-1.114508	0.108340
Cu8	Cu	-0.091277	-0.992231	0.115020
Cu9	Cu	0.091110	-0.992256	0.114997
O10	O	-0.077186	-0.985555	0.237293
C11	C	-0.000069	-0.838675	0.121132
C12	C	-0.000060	-0.745429	0.119470
N13	N	-0.219558	-0.992219	0.115035
C14	C	-0.000092	-0.998367	-0.038561
C15	C	-0.000093	-0.996705	-0.131807
C16	C	-0.469202	-0.932581	0.174636
C17	C	-0.531011	-1.008481	0.190943
C18	C	-0.408719	-0.992240	0.115015
C19	C	-0.531005	-0.916359	0.098727
C20	C	-0.591441	-0.992253	0.114997
C21	C	-0.469167	-1.068178	0.131360
C22	C	-0.469156	-0.976007	0.039111
C23	C	-0.530936	-1.051961	0.055386
C24	C	-0.303458	-0.992231	0.115027
C25	C	-0.696700	-0.992270	0.114985
N26	N	0.219392	-0.992275	0.114975
C27	C	-0.000096	-1.145813	0.108885
C28	C	-0.000098	-1.239059	0.110547
C29	C	-0.000084	-0.530572	0.035565
C30	C	0.075959	-0.469563	0.074518
C31	C	-0.000071	-0.574703	0.116462
C32	C	-0.076093	-0.469564	0.074556
C33	C	-0.000086	-0.409790	0.113551
C34	C	0.076035	-0.514922	0.155437
C35	C	-0.076086	-0.514929	0.155464
C36	C	-0.000024	-0.453937	0.194476
C37	C	-0.000062	-0.669705	0.118137
C38	C	-0.000089	-0.314789	0.111883
C39	C	-0.000072	-0.912801	-0.346663
C40	C	-0.076117	-0.951753	-0.407671
C41	C	-0.000085	-0.993698	-0.302533
C42	C	0.075935	-0.951793	-0.407674
C43	C	-0.000074	-0.990787	-0.467445
C44	C	-0.076193	-1.032672	-0.362312
C45	C	0.075927	-1.032701	-0.362308
C46	C	-0.000136	-1.071711	-0.423298
C47	C	-0.000092	-0.995372	-0.207530
C48	C	-0.000073	-0.989119	-0.562446
C49	C	-0.000072	-0.986120	0.268577
C50	C	-0.000066	-0.987782	0.361823
H51	H	-0.442096	-0.882181	0.225096
H52	H	0.140243	-0.449461	0.040294
H53	H	0.140394	-0.534918	0.189620
Br54	Br	0.183078	-1.089699	-0.328767
H55	H	-0.557872	-1.102474	0.004956
Br56	Br	0.000049	-0.398667	0.306490
H57	H	-0.140554	-1.066850	-0.342314
H58	H	0.140230	-0.917575	-0.427758
H59	H	-0.140379	-0.449469	0.040333
Br60	Br	-0.576294	-1.031390	0.297917
Br61	Br	-0.576283	-0.809397	0.075777
Br62	Br	-0.183236	-0.548471	0.212462
Br63	Br	-0.423832	-0.953064	-0.067833
H64	H	-0.442119	-1.132368	0.145205
H65	H	0.000005	-0.563905	-0.031573
H66	H	-0.000141	-0.845652	-0.313356
Br67	Br	-0.000212	-1.183726	-0.478568
Br68	Br	-0.183263	-0.894713	-0.441172
