data_functionalizedCrystal
_audit_creation_method	'MofGen! by Chris Wilmer'
_symmetry_space_group_name_H-M	'P1'
_symmetry_Int_Tables_number	1
_symmetry_cell_setting	triclinic
loop_
_symmetry_equiv_pos_as_xyz
  x,y,z
_cell_length_a	17.699077
_cell_length_b	16.974813
_cell_length_c	16.176319
_cell_angle_alpha	86.338635
_cell_angle_beta	89.993140
_cell_angle_gamma	83.338069
loop_
_atom_site_label
_atom_site_type_symbol
_atom_site_fract_x
_atom_site_fract_y
_atom_site_fract_z
O1	O	1.004154	0.099970	-0.075422
O2	O	1.337487	0.433303	0.257911
O3	O	1.670821	0.766636	0.591244
O4	O	0.783784	0.112984	-0.076297
O5	O	1.117118	0.446317	0.257037
O6	O	1.450451	0.779651	0.590370
O7	O	0.900112	-0.008639	-0.068154
O8	O	1.233445	0.324695	0.265179
O9	O	1.566779	0.658028	0.598512
O10	O	0.887826	0.221592	-0.083565
O11	O	1.221160	0.554926	0.249768
O12	O	1.554493	0.888259	0.583102
O13	O	0.900096	-0.008647	0.069339
O14	O	1.233429	0.324687	0.402673
O15	O	1.566763	0.658020	0.736006
O16	O	0.783768	0.112976	0.061197
O17	O	1.117102	0.446309	0.394530
O18	O	1.450435	0.779643	0.727864
O19	O	1.004138	0.099962	0.062071
O20	O	1.337471	0.433295	0.395405
O21	O	1.670805	0.766629	0.728738
Cu22	Cu	0.893952	0.106468	0.074188
Cu23	Cu	1.227285	0.439802	0.407522
Cu24	Cu	1.560618	0.773135	0.740855
Cu25	Cu	0.893971	0.106478	-0.088414
Cu26	Cu	1.227304	0.439811	0.244920
Cu27	Cu	1.560637	0.773144	0.578253
O28	O	0.887810	0.221585	0.053929
O29	O	1.221144	0.554918	0.387262
O30	O	1.554477	0.888251	0.720596
C31	C	0.755579	0.112515	-0.007519
C32	C	1.088912	0.445848	0.325814
C33	C	1.422246	0.779181	0.659147
C34	C	0.671560	0.111118	-0.007427
C35	C	1.004893	0.444451	0.325906
C36	C	1.338226	0.777785	0.659239
C37	C	0.632083	0.110456	0.067565
C38	C	0.965416	0.443789	0.400899
C39	C	1.298750	0.777122	0.734232
C40	C	0.553140	0.109131	0.067655
C41	C	0.886473	0.442464	0.400988
C42	C	1.219806	0.775797	0.734322
C43	C	0.513673	0.108474	-0.007249
C44	C	0.847007	0.441807	0.326084
C45	C	1.180340	0.775141	0.659417
C46	C	0.553156	0.109134	-0.082248
C47	C	0.886489	0.442467	0.251085
C48	C	1.219822	0.775801	0.584419
C49	C	0.632099	0.110453	-0.082336
C50	C	0.965432	0.443786	0.250997
C51	C	1.298765	0.777120	0.584331
C52	C	0.234789	0.103813	-0.081893
C53	C	0.568122	0.437146	0.251440
C54	C	0.901455	0.770479	0.584773
C55	C	0.155840	0.102496	-0.081799
C56	C	0.489173	0.435829	0.251534
C57	C	0.822507	0.769163	0.584867
C58	C	0.155830	0.102491	0.068098
C59	C	0.489163	0.435824	0.401431
C60	C	0.822496	0.769157	0.734765
C61	C	0.234772	0.103810	0.068010
C62	C	0.568106	0.437143	0.401343
C63	C	0.901439	0.770476	0.734676
C64	C	0.274248	0.104465	-0.006988
C65	C	0.607582	0.437799	0.326345
C66	C	0.940915	0.771132	0.659679
C67	C	0.359848	0.105900	-0.007084
C68	C	0.693181	0.439234	0.326249
C69	C	1.026515	0.772567	0.659583
C70	C	0.428074	0.107045	-0.007155
C71	C	0.761408	0.440378	0.326179
C72	C	1.094741	0.773711	0.659512
C73	C	0.899637	-0.038100	0.002563
C74	C	1.232970	0.295233	0.335896
C75	C	1.566303	0.628566	0.669229
C76	C	0.898234	-0.125875	0.008432
C77	C	1.231568	0.207459	0.341766
C78	C	1.564901	0.540792	0.675099
C79	C	0.897586	-0.167102	-0.063757
C80	C	1.230920	0.166231	0.269576
C81	C	1.564253	0.499564	0.602910
C82	C	0.896264	-0.249575	-0.058239
C83	C	1.229597	0.083758	0.275094
C84	C	1.562931	0.417092	0.608427
C85	C	0.895595	-0.290819	0.019469
C86	C	1.228929	0.042514	0.352802
C87	C	1.562262	0.375848	0.686136
C88	C	0.896241	-0.249585	0.091664
C89	C	1.229575	0.083748	0.424997
C90	C	1.562908	0.417082	0.758331
C91	C	0.897558	-0.167113	0.086145
C92	C	1.230892	0.166220	0.419479
C93	C	1.564225	0.499553	0.752812
C94	C	0.891651	-0.537474	0.044011
C95	C	1.224984	-0.204140	0.377344
C96	C	1.558317	0.129193	0.710678
C97	C	0.890336	-0.619952	0.049525
C98	C	1.223669	-0.286618	0.382858
C99	C	1.557003	0.046715	0.716191
C100	C	0.890357	-0.619936	-0.100380
C101	C	1.223691	-0.286602	0.232954
C102	C	1.557024	0.046731	0.566287
C103	C	0.891679	-0.537463	-0.105891
C104	C	1.225012	-0.204130	0.227442
C105	C	1.558345	0.129204	0.560775
C106	C	0.892321	-0.496236	-0.033696
C107	C	1.225654	-0.162902	0.299637
C108	C	1.558987	0.170431	0.632970
N109	N	0.894246	-0.375120	0.025111
N110	N	1.227579	-0.041786	0.358445
N111	N	1.560913	0.291547	0.691778
N112	N	0.893665	-0.411936	-0.039339
N113	N	1.226998	-0.078602	0.293994
N114	N	1.560331	0.254731	0.627327
C115	C	1.032343	0.100431	-0.006708
C116	C	1.365677	0.433765	0.326625
C117	C	1.699010	0.767098	0.659959
C118	C	1.116363	0.101828	-0.006805
C119	C	1.449696	0.435161	0.326528
C120	C	1.783029	0.768495	0.659861
C121	C	0.888286	0.251046	-0.016790
C122	C	1.221619	0.584380	0.316544
C123	C	1.554952	0.917713	0.649877
C124	C	0.889688	0.338821	-0.022665
C125	C	1.223021	0.672154	0.310668
C126	C	1.556355	1.005487	0.644002
N127	N	0.893944	0.106461	0.188554
N128	N	1.227277	0.439795	0.521887
N129	N	1.560611	0.773128	0.855221
N130	N	0.893984	0.106478	-0.202779
N131	N	1.227318	0.439812	0.130554
N132	N	1.560651	0.773145	0.463888
C133	C	0.945469	0.052629	0.235422
C134	C	1.278803	0.385962	0.568756
C135	C	1.612136	0.719296	0.902089
C136	C	0.945473	0.052628	0.321970
C137	C	1.278807	0.385961	0.655303
C138	C	1.612140	0.719295	0.988636
C139	C	0.893955	0.106464	0.361647
C140	C	1.227288	0.439798	0.694980
C141	C	1.560621	0.773131	1.028313
C142	C	0.842424	0.160299	0.314772
C143	C	1.175757	0.493633	0.648105
C144	C	1.509090	0.826966	0.981439
C145	C	0.842417	0.160296	0.228227
C146	C	1.175750	0.493629	0.561560
C147	C	1.509084	0.826962	0.894893
C148	C	0.842450	0.160314	0.663799
C149	C	1.175783	0.493647	0.997133
C150	C	1.509116	0.826981	1.330466
C151	C	0.842462	0.160315	0.750351
C152	C	1.175795	0.493648	1.083684
C153	C	1.509129	0.826982	1.417017
C154	C	0.945506	0.052646	0.757542
C155	C	1.278839	0.385980	1.090875
C156	C	1.612173	0.719313	1.424209
C157	C	0.945499	0.052643	0.670997
C158	C	1.278832	0.385976	1.004330
C159	C	1.612166	0.719310	1.337663
C160	C	0.893966	0.106475	0.624130
C161	C	1.227299	0.439808	0.957463
C162	C	1.560633	0.773142	1.290797
C163	C	0.893961	0.106474	0.530286
C164	C	1.227295	0.439807	0.863619
C165	C	1.560628	0.773141	1.196953
C166	C	0.893962	0.106469	0.455489
C167	C	1.227296	0.439803	0.788822
C168	C	1.560629	0.773136	1.122155
H169	H	0.266921	0.104344	-0.142961
H170	H	0.600254	0.437678	0.190373
H171	H	0.933587	0.771011	0.523706
F172	F	1.000351	-0.004650	0.807428
F173	F	1.333684	0.328684	1.140761
F174	F	1.667017	0.662017	1.474094
F175	F	0.511128	0.108437	0.147472
F176	F	0.844461	0.441770	0.480805
F177	F	1.177794	0.775104	0.814139
H178	H	0.889788	-0.653530	0.112807
H179	H	1.223121	-0.320196	0.446140
H180	H	1.556455	0.013137	0.779474
H181	H	0.664210	0.110997	0.128561
H182	H	0.997543	0.444330	0.461894
H183	H	1.330877	0.777664	0.795228
H184	H	0.898075	-0.133545	0.144930
H185	H	1.231409	0.199788	0.478263
H186	H	1.564742	0.533122	0.811596
F187	F	0.889674	-0.663818	-0.177209
F188	F	1.223007	-0.330485	0.156124
F189	F	1.556340	0.002848	0.489458
H190	H	0.895692	-0.283172	0.154936
H191	H	1.229026	0.050161	0.488269
H192	H	1.562359	0.383495	0.821603
H193	H	0.123709	0.101960	-0.142799
H194	H	0.457042	0.435294	0.190534
H195	H	0.790376	0.768627	0.523867
F196	F	1.000307	-0.004668	0.193203
F197	F	1.333641	0.328665	0.526537
F198	F	1.666974	0.661998	0.859870
F199	F	1.000311	-0.004667	0.371851
F200	F	1.333645	0.328666	0.705184
F201	F	1.666978	0.661999	1.038517
H202	H	0.266901	0.104349	0.129004
H203	H	0.600235	0.437682	0.462338
H204	H	0.933568	0.771015	0.795671
H205	H	0.987453	0.008807	0.638695
H206	H	1.320786	0.342141	0.972028
H207	H	1.654119	0.675474	1.305361
H208	H	0.800507	0.204157	0.782654
H209	H	1.133840	0.537490	1.115987
H210	H	1.467173	0.870823	1.449321
F211	F	0.674112	0.111155	-0.162154
F212	F	1.007446	0.444488	0.171180
F213	F	1.340779	0.777822	0.504513
H214	H	0.898135	-0.133528	-0.127036
H215	H	1.231468	0.199805	0.206298
H216	H	1.564801	0.533139	0.539631
H217	H	0.892189	-0.503918	0.102798
H218	H	1.225522	-0.170585	0.436131
H219	H	1.558855	0.162748	0.769464
H220	H	0.800491	0.204147	0.625647
H221	H	1.133824	0.537481	0.958980
H222	H	1.467158	0.870814	1.292314
H223	H	0.123679	0.101953	0.129165
H224	H	0.457013	0.435286	0.462498
H225	H	0.790346	0.768620	0.795832
H226	H	0.800473	0.204131	0.347082
H227	H	1.133806	0.537464	0.680415
H228	H	1.467139	0.870798	1.013749
F229	F	0.511154	0.108411	-0.161966
F230	F	0.844487	0.441744	0.171368
F231	F	1.177821	0.775077	0.504701
F232	F	0.895575	-0.293449	-0.135074
F233	F	1.228908	0.039884	0.198259
F234	F	1.562241	0.373217	0.531593
F235	F	0.892392	-0.493574	-0.188599
F236	F	1.225725	-0.160241	0.144734
F237	F	1.559059	0.173093	0.478067
H238	H	0.800459	0.204131	0.190067
H239	H	1.133792	0.537464	0.523400
H240	H	1.467125	0.870797	0.856734
