data_functionalizedCrystal
_audit_creation_method	'MofGen! by Chris Wilmer'
_symmetry_space_group_name_H-M	'P1'
_symmetry_Int_Tables_number	1
_symmetry_cell_setting	triclinic
loop_
_symmetry_equiv_pos_as_xyz
  x,y,z
_cell_length_a	11.792241
_cell_length_b	15.995350
_cell_length_c	10.868271
_cell_angle_alpha	89.997096
_cell_angle_beta	89.999893
_cell_angle_gamma	83.842895
loop_
_atom_site_label
_atom_site_type_symbol
_atom_site_fract_x
_atom_site_fract_y
_atom_site_fract_z
O1	O	1.505951	0.114763	-0.102196
O2	O	1.175511	0.126591	-0.102224
O3	O	1.349764	-0.001170	-0.102208
O4	O	1.331698	0.242524	-0.102212
O5	O	1.349750	-0.001175	0.102436
O6	O	1.175497	0.126586	0.102420
O7	O	1.505937	0.114758	0.102448
Zn8	Zn	1.340715	0.120671	0.134926
Zn9	Zn	1.340734	0.120678	-0.134702
O10	O	1.331684	0.242519	0.102432
C11	C	1.133220	0.125845	0.000094
C12	C	1.007224	0.123621	0.000084
C13	C	0.776546	0.119532	0.000119
C14	C	0.904913	0.121804	0.000099
C15	C	1.349010	-0.032370	0.000112
C16	C	1.346771	-0.125331	0.000104
C17	C	1.338730	-0.463115	0.000108
C18	C	1.214630	-0.416244	-0.000362
C19	C	1.216870	-0.319544	0.000100
C20	C	1.342718	-0.295536	0.000105
C21	C	1.403921	-0.336339	0.116971
C22	C	1.400803	-0.432989	0.117068
C23	C	1.403383	-0.433329	-0.115651
C24	C	1.403354	-0.336384	-0.117195
C25	C	1.344979	-0.200829	0.000108
C26	C	1.336473	-0.557823	0.000113
C27	C	1.548229	0.115504	0.000127
C28	C	1.674224	0.117727	0.000130
C29	C	1.332438	0.273719	0.000110
C30	C	1.334677	0.366680	0.000109
N31	N	1.340710	0.120666	0.318940
N32	N	1.340747	0.120676	-0.318716
C33	C	1.340728	0.120676	0.569946
C34	C	1.340714	0.120673	0.430269
H35	H	1.168760	-0.291338	-0.083674
H36	H	1.496378	-0.321793	0.121321
N37	N	1.152424	-0.439769	-0.105507
N38	N	1.198820	-0.491357	-0.181324
H39	H	1.154889	-0.507975	-0.255590
N40	N	1.152681	-0.441114	0.104177
N41	N	1.199532	-0.493208	0.179024
H42	H	1.155784	-0.510775	0.252857
N43	N	1.156126	-0.284859	0.105377
N44	N	1.206032	-0.244801	0.183700
H45	H	1.163132	-0.220303	0.258058
N46	N	1.518176	-0.472630	-0.116631
N47	N	1.583594	-0.461202	-0.029165
H48	H	1.664666	-0.488957	-0.029847
H49	H	1.361401	-0.308152	0.203934
N50	N	1.344783	-0.456224	0.226630
N51	N	1.332349	-0.531670	0.246508
H52	H	1.292780	-0.548078	0.323887
H53	H	1.362815	-0.454051	-0.204227
H54	H	1.358607	-0.309336	-0.203649
H55	H	1.491915	-0.464823	0.122375
H56	H	1.495128	-0.320605	-0.124247
