data_functionalizedCrystal
_audit_creation_method	'MofGen! by Chris Wilmer'
_symmetry_space_group_name_H-M	'P1'
_symmetry_Int_Tables_number	1
_symmetry_cell_setting	triclinic
loop_
_symmetry_equiv_pos_as_xyz
  x,y,z
_cell_length_a	17.699077
_cell_length_b	17.699104
_cell_length_c	16.176319
_cell_angle_alpha	89.992259
_cell_angle_beta	89.993140
_cell_angle_gamma	83.286047
loop_
_atom_site_label
_atom_site_type_symbol
_atom_site_fract_x
_atom_site_fract_y
_atom_site_fract_z
O1	O	1.004089	0.095691	-0.068737
O2	O	1.504089	0.595691	0.431263
O3	O	0.783711	0.108148	-0.068742
O4	O	1.283711	0.608148	0.431258
O5	O	0.900118	-0.008269	-0.068732
O6	O	1.400118	0.491731	0.431268
O7	O	0.887682	0.212107	-0.068747
O8	O	1.387682	0.712107	0.431253
O9	O	0.900102	-0.008276	0.068761
O10	O	1.400102	0.491724	0.568761
O11	O	0.783695	0.108140	0.068752
O12	O	1.283695	0.608140	0.568752
O13	O	1.004073	0.095683	0.068756
O14	O	1.504073	0.595683	0.568756
Cu15	Cu	0.893882	0.101911	0.081308
Cu16	Cu	1.393882	0.601911	0.581308
Cu17	Cu	0.893901	0.101920	-0.081294
Cu18	Cu	1.393901	0.601920	0.418706
O19	O	0.887666	0.212100	0.068746
O20	O	1.387666	0.712100	0.568746
C21	C	0.755506	0.107698	0.000005
C22	C	1.255506	0.607698	0.500005
C23	C	0.671487	0.106362	0.000003
C24	C	1.171487	0.606362	0.500003
C25	C	0.632011	0.105728	0.074952
C26	C	1.132011	0.605728	0.574952
C27	C	0.553068	0.104460	0.074953
C28	C	1.053068	0.604460	0.574953
C29	C	0.513603	0.103831	0.000004
C30	C	1.013603	0.603831	0.500004
C31	C	0.553085	0.104463	-0.074950
C32	C	1.053085	0.604463	0.425050
C33	C	0.632027	0.105725	-0.074950
C34	C	1.132027	0.605725	0.425050
C35	C	0.234721	0.099369	-0.074951
C36	C	0.734721	0.599369	0.425049
C37	C	0.155773	0.098109	-0.074945
C38	C	0.655773	0.598109	0.425055
C39	C	0.155763	0.098104	0.074951
C40	C	0.655763	0.598104	0.574951
C41	C	0.234705	0.099366	0.074951
C42	C	0.734705	0.599366	0.574951
C43	C	0.274180	0.099994	-0.000002
C44	C	0.774180	0.599994	0.499998
C45	C	0.359779	0.101367	-0.000003
C46	C	0.859779	0.601367	0.499997
C47	C	0.428005	0.102463	0.000003
C48	C	0.928005	0.602463	0.500003
C49	C	0.899661	-0.036469	0.000015
C50	C	1.399661	0.463531	0.500015
C51	C	0.898317	-0.120487	0.000015
C52	C	1.398317	0.379513	0.500015
C53	C	0.959061	-0.645359	-0.000007
C54	C	1.459061	-0.145359	0.499993
C55	C	0.960320	-0.566415	0.000000
C56	C	1.460320	-0.066415	0.500000
C57	C	0.891984	-0.517796	0.000001
C58	C	1.391984	-0.017796	0.500001
C59	C	0.822385	-0.548125	0.000002
C60	C	1.322385	-0.048125	0.500002
C61	C	0.821127	-0.627067	0.000001
C62	C	1.321127	-0.127067	0.500001
C63	C	0.827458	-0.229759	0.000009
C64	C	1.327458	0.270241	0.500009
C65	C	0.828722	-0.150811	0.000008
C66	C	1.328722	0.349189	0.500008
C67	C	0.966651	-0.169107	0.000009
C68	C	1.466651	0.330893	0.500009
C69	C	0.965393	-0.248049	0.000007
C70	C	1.465393	0.251951	0.500007
C71	C	0.895794	-0.278371	0.000013
C72	C	1.395794	0.221629	0.500013
C73	C	0.894430	-0.363971	0.000007
C74	C	1.394430	0.136029	0.500007
C75	C	0.893348	-0.432198	0.000001
C76	C	1.393348	0.067802	0.500001
C77	C	1.032278	0.096133	0.000008
C78	C	1.532278	0.596133	0.500008
C79	C	1.116296	0.097469	0.000004
C80	C	1.616296	0.597469	0.500004
C81	C	0.888122	0.240300	-0.000002
C82	C	1.388122	0.740300	0.499998
C83	C	0.889467	0.324318	-0.000008
C84	C	1.389467	0.824318	0.499992
N85	N	0.893875	0.101904	0.195673
N86	N	1.393875	0.601904	0.695673
N87	N	0.893915	0.101920	-0.195659
N88	N	1.393915	0.601920	0.304341
C89	C	0.945435	0.050376	0.238942
C90	C	1.445435	0.550376	0.738942
C91	C	0.945439	0.050375	0.325489
C92	C	1.445439	0.550375	0.825489
C93	C	0.893885	0.101907	0.368766
C94	C	1.393885	0.601907	0.868766
C95	C	0.842319	0.153438	0.325491
C96	C	1.342319	0.653438	0.825491
C97	C	0.842312	0.153434	0.238946
C98	C	1.342312	0.653434	0.738946
C99	C	0.842345	0.153452	0.674520
C100	C	1.342345	0.653452	1.174520
C101	C	0.842357	0.153453	0.761071
C102	C	1.342357	0.653453	1.261071
C103	C	0.945472	0.050393	0.761063
C104	C	1.445472	0.550393	1.261063
C105	C	0.945465	0.050390	0.674517
C106	C	1.445465	0.550390	1.174517
C107	C	0.893896	0.101917	0.631250
C108	C	1.393896	0.601917	1.131250
C109	C	0.893892	0.101917	0.537406
C110	C	1.393892	0.601917	1.037406
C111	C	0.893893	0.101912	0.462608
C112	C	1.393893	0.601912	0.962608
H113	H	0.266853	0.099878	-0.135983
H114	H	0.766853	0.599878	0.364017
H115	H	0.987423	0.008417	0.360718
H116	H	1.487423	0.508417	0.860718
H117	H	0.800373	0.195418	0.796306
H118	H	1.300373	0.695418	1.296306
C119	C	0.509670	0.103769	-0.157394
C120	C	1.009670	0.603769	0.342606
N121	N	0.476970	0.103249	-0.219493
N122	N	0.976970	0.603249	0.280507
C123	C	0.675416	0.106419	0.157402
C124	C	1.175416	0.606419	0.657402
N125	N	0.708107	0.106936	0.219507
N126	N	1.208107	0.606936	0.719507
H127	H	1.021039	-0.287632	0.000003
H128	H	1.521039	0.212368	0.500003
C129	C	0.747216	-0.494641	0.000001
C130	C	1.247216	0.005359	0.500001
N131	N	0.690596	-0.454357	-0.000004
N132	N	1.190596	0.045643	0.499996
H133	H	0.800358	0.195409	0.639298
H134	H	1.300358	0.695409	1.139298
H135	H	0.520932	0.103931	0.135983
H136	H	1.020932	0.603931	0.635983
H137	H	0.800339	0.195394	0.360732
H138	H	1.300339	0.695394	0.860732
C139	C	0.675450	0.106424	-0.157399
C140	C	1.175450	0.606424	0.342601
N141	N	0.708155	0.106949	-0.219503
N142	N	1.208155	0.606949	0.280497
H143	H	0.770787	-0.254436	0.000004
H144	H	1.270787	0.245564	0.500004
C145	C	1.034236	-0.698833	-0.000006
C146	C	1.534236	-0.198833	0.499994
N147	N	1.090861	-0.739109	-0.000001
N148	N	1.590861	-0.239109	0.499999
H149	H	0.987459	0.008434	0.796300
H150	H	1.487459	0.508434	1.296300
H151	H	0.266833	0.099882	0.135982
H152	H	0.766833	0.599882	0.635982
C153	C	1.002176	-0.006301	0.626917
C154	C	1.502176	0.493699	1.126917
N155	N	1.044889	-0.049004	0.591066
N156	N	1.544889	0.450996	1.091066
H157	H	0.123613	0.097589	0.135982
H158	H	0.623613	0.597589	0.635982
C159	C	0.785598	0.210126	0.191351
C160	C	1.285598	0.710126	0.691351
N161	N	0.742879	0.252828	0.155504
N162	N	1.242879	0.752828	0.655504
H163	H	0.764457	-0.651754	0.000007
H164	H	1.264457	-0.151754	0.500007
C165	C	1.036878	-0.533064	0.000001
C166	C	1.536878	-0.033064	0.500001
N167	N	1.094546	-0.507944	0.000003
N168	N	1.594546	-0.007944	0.500003
C169	C	1.043212	-0.135747	0.000015
C170	C	1.543212	0.364253	0.500015
N171	N	1.100876	-0.110621	0.000020
N172	N	1.600876	0.389379	0.500020
C173	C	0.112364	0.097409	-0.157398
C174	C	0.612364	0.597409	0.342602
N175	N	0.079668	0.096880	-0.219499
N176	N	0.579668	0.596880	0.280501
C177	C	0.753544	-0.097331	0.000013
C178	C	1.253544	0.402669	0.500013
N179	N	0.696923	-0.057050	0.000016
N180	N	1.196923	0.442950	0.500016
C181	C	1.002149	-0.006314	0.191345
C182	C	1.502149	0.493686	0.691345
N183	N	1.044865	-0.049018	0.155497
N184	N	1.544865	0.450982	0.655497
