data_functionalizedCrystal
_audit_creation_method	'MofGen! by Chris Wilmer'
_symmetry_space_group_name_H-M	'P1'
_symmetry_Int_Tables_number	1
_symmetry_cell_setting	triclinic
loop_
_symmetry_equiv_pos_as_xyz
  x,y,z
_cell_length_a	10.654550
_cell_length_b	7.540329
_cell_length_c	10.654549
_cell_angle_alpha	89.997778
_cell_angle_beta	95.515146
_cell_angle_gamma	89.998368
loop_
_atom_site_label
_atom_site_type_symbol
_atom_site_fract_x
_atom_site_fract_y
_atom_site_fract_z
O1	O	1.667836	0.147346	-0.176397
O2	O	1.302357	0.147378	-0.193203
O3	O	1.493500	0.147354	-0.002061
O4	O	1.476693	0.147370	-0.367539
O5	O	1.493493	-0.147611	-0.002059
O6	O	1.302351	-0.147587	-0.193201
O7	O	1.667829	-0.147619	-0.176395
Cu8	Cu	1.485089	-0.174536	-0.184798
Cu9	Cu	1.485097	0.174295	-0.184800
O10	O	1.476687	-0.147595	-0.367538
C11	C	1.255556	-0.000100	-0.191968
C12	C	1.116113	-0.000088	-0.188276
N13	N	1.485093	-0.419884	-0.184796
C14	C	1.036627	-0.000088	-0.300818
C15	C	0.905606	-0.000119	-0.297341
C16	C	0.933570	-0.000143	-0.068772
C17	C	1.064588	-0.000124	-0.072250
C18	C	1.714631	-0.000137	-0.177630
C19	C	1.854074	-0.000137	-0.181322
C20	C	1.492263	-0.000127	0.044738
C21	C	1.488571	-0.000121	0.184181
N22	N	1.485104	0.419643	-0.184792
C23	C	1.477924	-0.000110	-0.414336
C24	C	1.481616	-0.000105	-0.553780
C25	C	1.597634	-0.000118	0.394696
C26	C	1.601113	-0.000132	0.263676
C27	C	1.372543	-0.000113	0.235714
C28	C	1.369066	-0.000111	0.366732
H29	H	1.078574	-0.000072	-0.395294
Br30	Br	0.863635	-0.000185	0.088685
Br31	Br	1.750379	-0.000114	0.502570
Br32	Br	1.211601	-0.000112	0.436665
Br33	Br	1.172472	-0.000147	0.080497
H34	H	0.840893	-0.000123	-0.388984
H35	H	1.695586	-0.000146	0.221732
H36	H	1.280910	-0.000113	0.170979
