data_functionalizedCrystal
_audit_creation_method	'MofGen! by Chris Wilmer'
_symmetry_space_group_name_H-M	'P1'
_symmetry_Int_Tables_number	1
_symmetry_cell_setting	triclinic
loop_
_symmetry_equiv_pos_as_xyz
  x,y,z
_cell_length_a	15.944551
_cell_length_b	15.944480
_cell_length_c	13.101039
_cell_angle_alpha	93.356021
_cell_angle_beta	86.632575
_cell_angle_gamma	83.484293
loop_
_atom_site_label
_atom_site_type_symbol
_atom_site_fract_x
_atom_site_fract_y
_atom_site_fract_z
O1	O	-0.103414	-1.119180	-0.085182
O2	O	0.396586	-0.619180	0.414818
O3	O	-0.116832	-0.874623	-0.085187
O4	O	0.383168	-0.374623	0.414813
O5	O	0.012154	-1.003580	-0.085190
O6	O	0.512154	-0.503580	0.414810
O7	O	-0.232400	-0.990223	-0.085179
O8	O	0.267600	-0.490223	0.414821
O9	O	0.002884	-0.994327	0.085240
O10	O	0.502884	-0.494327	0.585240
O11	O	-0.126102	-0.865370	0.085243
O12	O	0.373898	-0.365370	0.585243
O13	O	-0.112684	-1.109928	0.085248
O14	O	0.387316	-0.609928	0.585248
Zn15	Zn	-0.120865	-0.986180	0.112305
Zn16	Zn	0.379135	-0.486180	0.612305
Zn17	Zn	-0.108651	-0.998370	-0.112244
Zn18	Zn	0.391349	-0.498370	0.387756
O19	O	-0.241670	-0.980970	0.085251
O20	O	0.258330	-0.480970	0.585251
C21	C	-0.120920	-0.838701	0.000027
C22	C	0.379080	-0.338701	0.500027
C23	C	-0.119282	-0.745452	0.000024
C24	C	0.380718	-0.245452	0.500024
C25	C	-0.195213	-0.509691	0.000025
C26	C	0.304787	-0.009691	0.500025
C27	C	-0.158845	-0.454570	0.084058
C28	C	0.341155	0.045430	0.584058
C29	C	-0.116245	-0.574730	0.000025
C30	C	0.383755	-0.074730	0.500025
C31	C	-0.149687	-0.463697	-0.083972
C32	C	0.350313	0.036303	0.416028
C33	C	-0.113318	-0.409820	0.000021
C34	C	0.386682	0.090180	0.500021
C35	C	-0.079903	-0.520834	0.084127
C36	C	0.420097	-0.020834	0.584127
C37	C	-0.070752	-0.529968	-0.083979
C38	C	0.429248	-0.029968	0.416021
C39	C	-0.034327	-0.474879	0.000075
C40	C	0.465673	0.025121	0.500075
C41	C	-0.117934	-0.669731	0.000028
C42	C	0.382066	-0.169731	0.500028
C43	C	-0.111624	-0.314822	0.000025
C44	C	0.388376	0.185178	0.500025
C45	C	-0.268329	-0.986151	0.000038
C46	C	0.231671	-0.486151	0.500038
C47	C	-0.361575	-0.987813	0.000042
C48	C	0.138425	-0.487813	0.500042
C49	C	-0.576409	-1.071721	0.000029
C50	C	-0.076409	-0.571721	0.500029
C51	C	-0.642006	-1.028195	0.084060
C52	C	-0.142006	-0.528195	0.584060
C53	C	-0.532299	-0.990821	0.000033
C54	C	-0.032299	-0.490821	0.500033
C55	C	-0.632852	-1.037298	-0.083971
C56	C	-0.132852	-0.537298	0.416029
C57	C	-0.697210	-0.993732	0.000020
C58	C	-0.197210	-0.493732	0.500020
C59	C	-0.596671	-0.947269	0.084134
C60	C	-0.096671	-0.447269	0.584134
C61	C	-0.587507	-0.956388	-0.083973
C62	C	-0.087507	-0.456388	0.416027
C63	C	-0.653087	-0.912802	0.000079
C64	C	-0.153087	-0.412802	0.500079
C65	C	-0.437298	-0.989146	0.000042
C66	C	0.062702	-0.489146	0.500042
C67	C	-0.792211	-0.995401	0.000019
C68	C	-0.292211	-0.495401	0.500019
C69	C	0.038813	-0.998399	0.000021
C70	C	0.538813	-0.498399	0.500021
C71	C	0.132059	-0.996738	0.000010
C72	C	0.632059	-0.496738	0.500010
N73	N	-0.129200	-0.977866	0.265554
N74	N	0.370800	-0.477866	0.765554
C75	C	-0.108607	-0.145847	0.000030
C76	C	0.391393	0.354153	0.500030
C77	C	-0.110279	-0.239093	0.000020
C78	C	0.389721	0.260907	0.500020
N79	N	-0.100310	-1.006691	-0.265493
N80	N	0.399690	-0.506691	0.234507
C81	C	-0.140547	-0.966555	0.474597
C82	C	0.359453	-0.466555	0.974597
C83	C	-0.088965	-1.017999	0.525471
C84	C	0.411035	-0.517999	1.025471
C85	C	-0.095279	-1.011705	0.641790
C86	C	0.404721	-0.511705	1.141790
C87	C	-0.134234	-0.972848	0.358268
C88	C	0.365766	-0.472848	0.858268
H89	H	-0.263236	-0.525310	0.000107
H90	H	0.236764	-0.025310	0.500107
Br91	Br	-0.007811	-1.099640	0.452470
Br92	Br	0.492189	-0.599640	0.952470
H93	H	-0.196059	-0.421776	0.155104
H94	H	0.303941	0.078224	0.655104
Br95	Br	-0.030798	-0.562441	0.202658
Br96	Br	0.469202	-0.062441	0.702658
Br97	Br	-0.520873	-1.183634	0.000162
Br98	Br	-0.020873	-0.683634	0.500162
Br99	Br	-0.681954	-1.078797	0.202465
Br100	Br	-0.181954	-0.578797	0.702465
H101	H	-0.563523	-0.926056	-0.155020
H102	H	-0.063523	-0.426056	0.344980
H103	H	-0.580557	-0.909217	0.155252
H104	H	-0.080557	-0.409217	0.655252
Br105	Br	-0.708378	-0.800776	0.000140
Br106	Br	-0.208378	-0.300776	0.500140
H107	H	-0.649069	-1.075387	-0.155009
H108	H	-0.149069	-0.575387	0.344991
H109	H	0.033741	-0.459411	0.000120
H110	H	0.533741	0.040589	0.500120
H111	H	-0.189447	-0.917790	0.518395
H112	H	0.310553	-0.417790	1.018395
H113	H	-0.179189	-0.438615	-0.155006
H114	H	0.320811	0.061385	0.344994
Br115	Br	-0.008776	-0.584659	-0.202400
Br116	Br	0.491224	-0.084659	0.297600
