data_functionalizedCrystal
_audit_creation_method	'MofGen! by Chris Wilmer'
_symmetry_space_group_name_H-M	'P1'
_symmetry_Int_Tables_number	1
_symmetry_cell_setting	triclinic
loop_
_symmetry_equiv_pos_as_xyz
  x,y,z
_cell_length_a	23.096457
_cell_length_b	23.096457
_cell_length_c	23.196401
_cell_angle_alpha	60.007494
_cell_angle_beta	90.011366
_cell_angle_gamma	59.999106
loop_
_atom_site_label
_atom_site_type_symbol
_atom_site_fract_x
_atom_site_fract_y
_atom_site_fract_z
Zr1	Zr	0.557774	0.633726	-0.075657
O2	O	0.465304	0.754517	-0.167704
O3	O	0.586118	0.512937	-0.047440
O4	O	0.586093	0.633726	-0.167709
O5	O	0.465353	0.633726	0.047436
O6	O	0.681375	0.633724	-0.167711
O7	O	0.465330	0.633727	-0.047436
O8	O	0.681421	0.417654	0.047428
O9	O	0.465307	0.849796	-0.167703
O10	O	0.669318	0.562617	-0.035406
O11	O	0.598227	0.562617	0.035397
O12	O	0.598196	0.704831	-0.106204
O13	O	0.527105	0.704832	-0.035401
Zr14	Zr	0.709774	0.633720	0.075649
Zr15	Zr	0.709738	0.633722	-0.075660
Zr16	Zr	0.557810	0.633723	0.075652
Zr17	Zr	0.557777	0.785685	-0.075654
Zr18	Zr	0.709771	0.481760	0.075647
O19	O	0.681430	0.754508	0.047433
O20	O	0.681378	0.754512	-0.167709
O21	O	0.465356	0.754513	0.047437
O22	O	0.802244	0.512929	0.167697
O23	O	0.802192	0.512932	-0.047445
O24	O	0.586170	0.512934	0.167702
O25	O	0.802195	0.633719	-0.047443
O26	O	0.681455	0.633719	0.167701
O27	O	0.586173	0.633721	0.167703
O28	O	0.802218	0.633718	0.047428
O29	O	0.586098	0.849793	-0.167705
O30	O	0.681450	0.417652	0.167698
O31	O	0.802241	0.417649	0.167696
O32	O	0.802212	0.417651	0.047425
O33	O	0.465335	0.849794	-0.047433
O34	O	0.586127	0.849791	-0.047435
O35	O	0.669352	0.562614	0.106197
O36	O	0.740443	0.562614	0.035394
O37	O	0.669321	0.704828	-0.035404
O38	O	0.598230	0.704829	0.035399
C39	C	0.633769	0.443645	-0.000007
C40	C	0.633768	0.379134	-0.000008
C41	C	0.581282	-0.028895	-0.052268
C42	C	0.581276	0.031724	-0.052268
C43	C	0.633779	0.009544	-0.000004
C44	C	0.686282	-0.073264	0.052273
C45	C	0.686283	-0.133880	0.052275
N46	N	0.696031	0.065644	0.015819
N47	N	0.696028	0.123230	0.015813
C48	C	0.633780	0.192174	-0.000007
N49	N	0.571531	0.201364	-0.015833
N50	N	0.571535	0.143774	-0.015830
C51	C	0.633784	0.075266	-0.000000
C52	C	0.581271	0.340701	-0.052277
C53	C	0.581264	0.401318	-0.052272
C54	C	0.686276	0.296328	0.052266
C55	C	0.686277	0.235713	0.052263
C56	C	0.633775	0.257905	-0.000012
C57	C	0.443690	0.633727	0.000000
C58	C	0.379177	0.633729	0.000002
C59	C	0.348862	0.633736	-0.052267
C60	C	0.288249	0.633728	-0.052267
C61	C	0.257947	0.633730	-0.000003
C62	C	0.288272	0.633719	0.052275
C63	C	0.348887	0.633718	0.052277
N64	N	0.139599	0.680086	0.015820
N65	N	0.082017	0.680088	0.015813
C66	C	0.075317	0.633731	-0.000007
N67	N	0.128371	0.587381	-0.015834
N68	N	0.185957	0.587382	-0.015830
C69	C	0.192220	0.633731	-0.000000
C70	C	-0.020720	0.633728	-0.052279
C71	C	-0.081331	0.633716	-0.052274
C72	C	-0.081312	0.633715	0.052265
C73	C	-0.020698	0.633719	0.052263
C74	C	0.009592	0.633730	-0.000013
C75	C	0.823858	0.633718	-0.000008
C76	C	0.888371	0.633717	-0.000009
C77	C	0.633729	0.633726	-0.189268
C78	C	0.633713	0.633727	-0.253503
C79	C	0.633779	0.823801	-0.000001
C80	C	0.633780	0.888312	0.000000
C81	C	0.596592	0.707959	-0.320631
C82	C	0.596610	0.707960	-0.380987
C83	C	0.633739	0.633725	-0.374209
C84	C	0.670869	0.559483	-0.307068
C85	C	0.670856	0.559484	-0.246715
C86	C	0.628465	0.576851	-0.441527
C87	C	0.628474	0.576853	-0.501880
C88	C	0.633784	0.633718	-0.560357
C89	C	0.639073	0.690596	-0.558479
C90	C	0.639059	0.690597	-0.498126
C91	C	0.633758	0.633715	-0.439648
C92	C	0.596681	0.707957	-0.692932
C93	C	0.596704	0.707955	-0.753287
C94	C	0.670958	0.559475	-0.679366
C95	C	0.670940	0.559479	-0.619013
C96	C	0.633797	0.633723	-0.625801
C97	C	0.633819	0.633720	0.189261
C98	C	0.633835	0.633719	0.253495
C99	C	0.823853	0.443640	-0.000011
C100	C	0.888365	0.379128	-0.000013
C101	C	0.633815	0.443642	0.189258
C102	C	0.633829	0.379130	0.253491
C103	C	0.823899	0.443637	0.189254
C104	C	0.888426	0.379124	0.253486
C105	C	0.443649	0.823808	-0.189261
C106	C	0.379122	0.888322	-0.253493
C107	C	0.443695	0.823805	0.000003
C108	C	0.379183	0.888318	0.000006
C109	C	0.633733	0.823804	-0.189265
C110	C	0.633719	0.888315	-0.253499
C111	C	0.881533	0.348834	-0.036977
C112	C	0.942142	0.288226	-0.036994
C113	C	1.009583	0.257909	-0.000041
C114	C	1.016413	0.288209	0.036924
C115	C	0.955804	0.348820	0.036936
C116	C	0.670962	0.348833	0.320619
C117	C	0.670972	0.288226	0.380979
C118	C	0.633853	0.257913	0.374210
C119	C	0.596715	0.288215	0.307075
C120	C	0.596701	0.348826	0.246716
C121	C	0.955843	0.348827	0.246692
C122	C	1.016479	0.288219	0.307039
C123	C	1.009695	0.257904	0.374180
C124	C	0.942270	0.288206	0.380973
C125	C	0.881636	0.348818	0.320626
C126	C	0.311705	0.918625	-0.246699
C127	C	0.251069	0.979253	-0.307046
C128	C	0.257853	1.009571	-0.374187
C129	C	0.325278	0.979265	-0.380980
C130	C	0.385912	0.918643	-0.320634
C131	C	0.386015	0.918618	0.036964
C132	C	0.325405	0.979243	0.036963
C133	C	0.257965	1.009561	0.000009
C134	C	0.251135	0.979258	-0.036954
C135	C	0.311744	0.918639	-0.036957
C136	C	0.670846	0.918610	-0.246707
C137	C	0.670847	0.979217	-0.307055
C138	C	0.633717	1.009534	-0.374195
C139	C	0.596589	0.979234	-0.380986
C140	C	0.596593	0.918623	-0.320638
H141	H	0.538529	-0.010819	-0.094833
H142	H	0.208475	1.058933	-0.423320
H143	H	0.263562	0.633733	-0.094832
H144	H	1.071373	0.263553	0.301496
H145	H	0.306168	0.893943	-0.192035
H146	H	0.701191	0.499031	-0.673846
H147	H	0.961380	0.373501	0.192028
O148	O	0.185564	1.008808	-0.300474
C149	C	0.148264	1.093743	-0.333168
H150	H	0.187591	1.110339	-0.335957
H151	H	0.114767	1.111151	-0.301148
H152	H	0.112271	1.128420	-0.388836
H153	H	0.566359	1.003927	-0.435659
H154	H	0.624136	0.530545	-0.393917
O155	O	1.068506	0.198949	0.000078
C156	C	1.109124	0.128809	0.070004
H157	H	1.095891	0.147107	0.108146
H158	H	1.167926	0.099460	0.076999
H159	H	1.096400	0.083145	0.081410
O160	O	0.707104	0.258652	0.446226
C161	C	0.759217	0.173719	0.483347
H162	H	0.743604	0.148005	0.460312
H163	H	0.763729	0.142319	0.541431
H164	H	0.812455	0.162152	0.478315
O165	O	0.935587	0.258652	-0.072794
C166	C	0.968424	0.173720	-0.025348
H167	H	1.009758	0.148006	0.023287
H168	H	0.995315	0.142318	-0.052168
H169	H	0.926753	0.162157	-0.008797
O170	O	0.633750	0.199134	0.432825
C171	C	0.563518	0.228740	0.432721
H172	H	0.529299	0.298530	0.398587
H173	H	0.562791	0.204933	0.489024
H174	H	0.541674	0.206697	0.410469
H175	H	0.826626	0.373517	-0.067077
H176	H	0.440922	0.893937	0.067061
O177	O	0.331735	1.008780	-0.446256
C178	C	0.263756	1.068795	-0.498054
H179	H	0.223592	1.058836	-0.474516
H180	H	0.264395	1.063881	-0.544598
H181	H	0.248313	1.132194	-0.516933
H182	H	1.071330	0.263517	0.067010
O183	O	0.185569	1.008774	-0.072784
C184	C	0.133547	1.068786	-0.064861
H185	H	0.157198	1.058824	-0.014948
H186	H	0.086803	1.063871	-0.060614
H187	H	0.114575	1.132186	-0.112611
O188	O	-0.110732	0.633575	-0.102963
C189	C	-0.110533	0.563051	-0.070982
H190	H	-0.067604	0.513751	-0.016781
H191	H	-0.099388	0.539382	-0.105428
H192	H	-0.164442	0.578991	-0.064878
H193	H	0.729030	-0.091319	0.094828
H194	H	-0.105982	0.633712	0.094822
H195	H	0.538516	0.099147	-0.094823
H196	H	0.961376	0.373478	0.067041
H197	H	0.003984	0.633718	0.094823
O198	O	0.008642	0.633692	-0.103084
C199	C	-0.031122	0.633707	-0.149226
H200	H	-0.061432	0.607923	-0.121067
H201	H	0.006161	0.594168	-0.166095
H202	H	-0.070247	0.699041	-0.197824
O203	O	0.451347	0.889266	-0.327365
C204	C	0.444323	0.929044	-0.399567
H205	H	0.390216	0.954030	-0.431742
H206	H	0.487780	0.883580	-0.407996
H207	H	0.449292	0.981684	-0.417348
O208	O	0.737354	-0.214273	0.103083
C209	C	0.783683	-0.220857	0.149227
H210	H	0.781180	-0.162260	0.121070
H211	H	0.840170	-0.275085	0.166100
H212	H	0.767163	-0.230550	0.197823
O213	O	0.530198	0.362392	-0.103083
C214	C	0.483864	0.448472	-0.149224
H215	H	0.486366	0.476292	-0.121066
H216	H	0.427379	0.467670	-0.166095
H217	H	0.500380	0.471060	-0.197822
H218	H	1.059073	0.208550	0.423312
O219	O	0.331962	1.008648	0.072931
C220	C	0.299147	0.993820	0.124812
H221	H	0.257819	0.986300	0.109269
H222	H	0.272252	1.047651	0.129302
H223	H	0.340832	0.935523	0.177819
O224	O	0.199147	1.068522	-0.000005
C225	C	0.199257	1.138643	-0.029403
H226	H	0.255866	1.120328	-0.024389
H227	H	0.176980	1.167969	-0.000054
H228	H	0.165016	1.184333	-0.087534
H229	H	0.566357	0.893964	-0.326178
H230	H	0.566494	0.263525	0.301574
O231	O	0.258738	0.633869	0.102955
C232	C	0.188399	0.704392	0.070967
H233	H	0.182009	0.753690	0.016767
H234	H	0.175880	0.728066	0.105410
H235	H	0.150430	0.688450	0.064860
O236	O	0.530211	0.481761	-0.102963
C237	C	0.491813	0.519981	-0.070987
H238	H	0.496950	0.471935	-0.016788
H239	H	0.433544	0.567103	-0.105439
H240	H	0.513894	0.551811	-0.064877
O241	O	0.737186	0.274874	0.103055
C242	C	0.705067	0.306779	0.141307
H243	H	0.647727	0.361437	0.107631
H244	H	0.735218	0.327184	0.155534
H245	H	0.706284	0.257515	0.191686
O246	O	0.737350	0.155322	0.103065
C247	C	0.783681	0.148739	0.149206
H248	H	0.781177	0.207337	0.121047
H249	H	0.840168	0.094512	0.166077
H250	H	0.767165	0.139046	0.197804
O251	O	0.707024	0.378217	0.327331
C252	C	0.739804	0.338462	0.399529
H253	H	0.710699	0.313479	0.431712
H254	H	0.737795	0.383940	0.407938
H255	H	0.797424	0.285821	0.417317
O256	O	0.304976	0.889265	-0.072864
C257	C	0.232453	0.929043	-0.105489
H258	H	0.200146	0.954026	-0.076498
H259	H	0.223990	0.883580	-0.103495
H260	H	0.214580	0.981685	-0.162854
H261	H	0.701081	0.893935	-0.192043
H262	H	0.566465	0.373485	0.192060
O263	O	0.935813	0.258634	0.446248
C264	C	1.003792	0.198652	0.498046
H265	H	1.043955	0.172163	0.474508
H266	H	1.003150	0.147643	0.544589
H267	H	1.019239	0.227647	0.516928
O268	O	0.816186	0.378250	0.327322
C269	C	0.808421	0.413325	0.364543
H270	H	0.862995	0.385955	0.397839
H271	H	0.776563	0.400013	0.400433
H272	H	0.779427	0.482366	0.325456
O273	O	0.706918	1.008586	-0.300324
C274	C	0.739693	0.968821	-0.228122
H275	H	0.710576	0.943849	-0.195950
H276	H	0.737693	1.014289	-0.219704
H277	H	0.797310	0.916171	-0.210330
H278	H	0.566351	0.768413	-0.326165
H279	H	0.643367	0.736906	-0.496599
H280	H	0.373570	0.633712	0.094842
O281	O	0.378217	0.633702	-0.103075
C282	C	0.338447	0.633726	-0.149220
H283	H	0.308134	0.607946	-0.121063
H284	H	0.375725	0.594189	-0.166093
H285	H	0.299324	0.699063	-0.197816
H286	H	0.633719	1.058887	-0.423329
H287	H	0.566379	0.768411	-0.435653
H288	H	0.566438	0.768410	-0.698459
O289	O	0.644359	0.745729	-0.615246
C290	C	0.705557	0.703795	-0.629270
H291	H	0.745093	0.639835	-0.579237
H292	H	0.730681	0.738874	-0.647397
H293	H	0.690384	0.698766	-0.672517
H294	H	0.701165	0.499031	-0.564353
O295	O	0.560694	0.780121	-0.818461
C296	C	0.587983	0.825281	-0.826182
H297	H	0.615156	0.804172	-0.771846
H298	H	0.542798	0.893193	-0.857930
H299	H	0.628060	0.814995	-0.855013
O300	O	0.623450	0.521501	-0.503622
C301	C	0.681091	0.441567	-0.449064
H302	H	0.726746	0.443150	-0.433251
H303	H	0.699121	0.400552	-0.468336
H304	H	0.664019	0.416361	-0.401489
O305	O	0.706924	0.487298	-0.181554
C306	C	0.739719	0.421772	-0.188509
H307	H	0.710617	0.443533	-0.242374
H308	H	0.737722	0.369853	-0.145235
H309	H	0.797336	0.398945	-0.183541
H310	H	0.701101	0.499040	-0.301553
