data_functionalizedCrystal
_audit_creation_method	'MofGen! by Chris Wilmer'
_symmetry_space_group_name_H-M	'P1'
_symmetry_Int_Tables_number	1
_symmetry_cell_setting	triclinic
loop_
_symmetry_equiv_pos_as_xyz
  x,y,z
_cell_length_a	13.033808
_cell_length_b	13.032721
_cell_length_c	17.077396
_cell_angle_alpha	97.153695
_cell_angle_beta	97.155001
_cell_angle_gamma	103.361820
loop_
_atom_site_label
_atom_site_type_symbol
_atom_site_fract_x
_atom_site_fract_y
_atom_site_fract_z
Zn1	Zn	1.570077	-0.216338	-0.314895
Zn2	Zn	1.547397	-0.393989	-0.202734
Zn3	Zn	1.392456	-0.238966	-0.202723
Zn4	Zn	1.369871	-0.416506	-0.353018
O5	O	1.469950	-0.316450	-0.268342
O6	O	1.715698	-0.221010	-0.284066
O7	O	1.526804	-0.373471	-0.092893
O8	O	1.434961	-0.087316	-0.201644
O9	O	1.699036	-0.351529	-0.201662
O10	O	1.565458	-0.070691	-0.284056
O11	O	1.412969	-0.259577	-0.092886
O12	O	1.240830	-0.281411	-0.238610
O13	O	1.396469	-0.389907	-0.457799
O14	O	1.224237	-0.411849	-0.349031
O15	O	1.543559	-0.242845	-0.429791
O16	O	1.504905	-0.545624	-0.238628
O17	O	1.374478	-0.562168	-0.349041
C18	C	1.193995	-0.351529	-0.297957
C19	C	1.075938	-0.366562	-0.310647
C20	C	0.909480	-0.324159	-0.274852
C21	C	1.031499	-0.308623	-0.261733
C22	C	1.434808	-0.592435	-0.297987
C23	C	1.419872	-0.710490	-0.310684
C24	C	1.477802	-0.754896	-0.261745
C25	C	1.462366	-0.876912	-0.274867
C26	C	1.746982	-0.281234	-0.238613
C27	C	1.865037	-0.266227	-0.225944
C28	C	1.470024	-0.316363	-0.473071
C29	C	1.470056	-0.316327	-0.560315
C30	C	1.505258	-0.039383	-0.238596
C31	C	1.520305	0.078686	-0.225921
C32	C	1.546649	-0.239745	-0.586721
C33	C	1.546666	-0.239708	-0.668697
C34	C	1.470094	-0.316258	-0.724264
C35	C	1.393494	-0.392844	-0.697853
C36	C	1.393473	-0.392875	-0.615879
C37	C	1.393545	-0.392774	-0.868712
C38	C	1.393566	-0.392744	-0.950691
C39	C	1.546738	-0.239607	-0.921529
C40	C	1.546717	-0.239639	-0.839555
C41	C	1.470117	-0.316226	-0.813150
C42	C	1.469947	-0.316452	-0.064395
C43	C	1.470159	-0.316163	0.022902
H44	H	1.023657	-0.427668	-0.362234
H45	H	1.538832	-0.702583	-0.210133
H46	H	1.609038	-0.177350	-0.690192
H47	H	0.917322	-0.205132	-0.174357
H48	H	1.609074	-0.177310	-0.794313
H49	H	1.331154	-0.455125	-0.847216
H50	H	0.857194	-0.385263	-0.326433
H51	H	1.609006	-0.177412	-0.541482
H52	H	1.331144	-0.455169	-0.743103
H53	H	1.083780	-0.247523	-0.210143
H54	H	1.401341	-0.929223	-0.326487
H55	H	1.358851	-0.762805	-0.362301
H56	H	1.331093	-0.455226	-0.594381
H57	H	1.581338	-0.869003	-0.174305
H58	H	1.609107	-0.177246	-0.943032
H59	H	1.331213	-0.455076	-0.995934
