data_functionalizedCrystal
_audit_creation_method	'MofGen! by Chris Wilmer'
_symmetry_space_group_name_H-M	'P1'
_symmetry_Int_Tables_number	1
_symmetry_cell_setting	triclinic
loop_
_symmetry_equiv_pos_as_xyz
  x,y,z
_cell_length_a	10.723022
_cell_length_b	14.519709
_cell_length_c	9.198806
_cell_angle_alpha	90.011869
_cell_angle_beta	89.996339
_cell_angle_gamma	95.926314
loop_
_atom_site_label
_atom_site_type_symbol
_atom_site_fract_x
_atom_site_fract_y
_atom_site_fract_z
O1	O	1.655979	-0.129341	-0.120913
O2	O	1.292711	-0.141723	-0.120921
O3	O	1.483977	-0.001343	-0.120876
O4	O	1.464714	-0.269721	-0.120958
O5	O	1.483962	-0.001342	0.120909
O6	O	1.292696	-0.141722	0.120864
O7	O	1.655964	-0.129340	0.120872
Cu8	Cu	1.474329	-0.135531	0.142945
Cu9	Cu	1.474347	-0.135532	-0.142994
O10	O	1.464699	-0.269720	0.120827
C11	C	1.246212	-0.140822	-0.000029
C12	C	1.107683	-0.138127	-0.000030
C13	C	1.059879	-0.057174	-0.000006
C14	C	0.916702	-0.054387	-0.000007
C15	C	1.483071	0.033022	0.000024
C16	C	1.480381	0.135417	0.000045
C17	C	1.470477	0.510363	0.000085
C18	C	1.473228	0.406041	0.000074
C19	C	1.475429	0.322894	0.000067
C20	C	1.478180	0.218565	0.000053
C21	C	1.702463	-0.130241	-0.000023
C22	C	1.840992	-0.132936	-0.000032
C23	C	1.465604	0.695915	-0.000024
C24	C	1.468294	0.593520	0.000099
N25	N	1.474325	-0.135529	0.344059
N26	N	1.474360	-0.135526	-0.344108
C27	C	1.546590	-0.189006	0.416241
C28	C	1.546609	-0.189005	0.583654
H29	H	0.875538	0.014924	-0.000023
O30	O	1.146058	0.031904	0.000017
H31	H	1.128178	0.072657	0.098573
H32	H	1.412482	-0.089745	0.593826
H33	H	1.608449	-0.234786	0.354099
H34	H	1.412474	-0.089743	0.406201
H35	H	1.608471	-0.234793	0.645729
H36	H	0.882147	-0.202251	-0.000044
H37	H	1.042612	-0.205370	-0.000057
