data_functionalizedCrystal
_audit_creation_method	'MofGen! by Chris Wilmer'
_symmetry_space_group_name_H-M	'P1'
_symmetry_Int_Tables_number	1
_symmetry_cell_setting	triclinic
loop_
_symmetry_equiv_pos_as_xyz
  x,y,z
_cell_length_a	18.050589
_cell_length_b	16.625548
_cell_length_c	16.625539
_cell_angle_alpha	89.979432
_cell_angle_beta	90.024824
_cell_angle_gamma	89.970711
loop_
_atom_site_label
_atom_site_type_symbol
_atom_site_fract_x
_atom_site_fract_y
_atom_site_fract_z
Zn1	Zn	-0.295637	-1.232648	0.455929
Zn2	Zn	0.204363	-0.732648	0.955929
Zn3	Zn	-0.419835	-1.232538	0.321104
Zn4	Zn	0.080165	-0.732538	0.821104
Zn5	Zn	-0.295665	-1.097810	0.321109
Zn6	Zn	0.204335	-0.597810	0.821109
Zn7	Zn	-0.419792	-1.097767	0.455894
Zn8	Zn	0.080208	-0.597767	0.955894
O9	O	-0.357732	-1.165191	0.388509
O10	O	0.142268	-0.665191	0.888509
O11	O	-0.312118	-1.345466	0.438056
O12	O	0.187882	-0.845466	0.938056
O13	O	-0.403393	-1.214638	0.208272
O14	O	0.096607	-0.714638	0.708272
O15	O	-0.191737	-1.115761	0.339010
O16	O	0.308263	-0.615761	0.839010
O17	O	-0.403366	-1.345385	0.339001
O18	O	0.096634	-0.845385	0.839001
O19	O	-0.191716	-1.214826	0.438061
O20	O	0.308284	-0.714826	0.938061
O21	O	-0.312166	-1.115654	0.208276
O22	O	0.187834	-0.615654	0.708276
O23	O	-0.312125	-0.984972	0.338976
O24	O	0.187875	-0.484972	0.838976
O25	O	-0.403293	-1.115687	0.568731
O26	O	0.096707	-0.615687	1.068731
O27	O	-0.403320	-0.984940	0.438002
O28	O	0.096680	-0.484940	0.938002
O29	O	-0.312077	-1.214784	0.568757
O30	O	0.187923	-0.714784	1.068757
O31	O	-0.523754	-1.214596	0.338968
O32	O	-0.023754	-0.714596	0.838968
O33	O	-0.523722	-1.115580	0.437997
O34	O	-0.023722	-0.615580	0.937997
C35	C	-0.550684	-1.165093	0.388496
C36	C	-0.050684	-0.665093	0.888496
C37	C	-0.633230	-1.165126	0.388517
C38	C	-0.133230	-0.665126	0.888517
C39	C	-0.357722	-0.955700	0.388487
C40	C	0.142278	-0.455700	0.888487
C41	C	-0.357735	-0.866079	0.388496
C42	C	0.142265	-0.366079	0.888496
C43	C	-0.357677	-1.165243	0.598818
C44	C	0.142323	-0.665243	1.098818
C45	C	-0.357653	-1.165266	0.688439
C46	C	0.142347	-0.665266	1.188439
C47	C	-0.832691	-1.111334	0.442350
C48	C	-0.332691	-0.611334	0.942350
C49	C	-0.882133	-1.091677	0.368775
C50	C	-0.382133	-0.591677	0.868775
C51	C	-0.784360	-1.165205	0.388528
C52	C	-0.284360	-0.665205	0.888528
C53	C	-0.882000	-1.184901	0.462112
C54	C	-0.382000	-0.684901	0.962112
C55	C	-0.930346	-1.165280	0.388544
C56	C	-0.430346	-0.665280	0.888544
C57	C	-0.832715	-1.145510	0.314913
C58	C	-0.332715	-0.645510	0.814913
C59	C	-0.832578	-1.238767	0.408300
C60	C	-0.332578	-0.738767	0.908300
C61	C	-0.881998	-1.219139	0.334673
C62	C	-0.381998	-0.719139	0.834673
C63	C	-0.700262	-1.165160	0.388519
C64	C	-0.200262	-0.665160	0.888519
C65	C	-1.014442	-1.165325	0.388544
C66	C	-0.514442	-0.665325	0.888544
C67	C	-0.164027	-1.165310	0.388540
C68	C	0.335973	-0.665310	0.888540
C69	C	-0.081481	-1.165361	0.388553
C70	C	0.418519	-0.665361	0.888553
C71	C	-0.357743	-1.375500	0.388532
C72	C	0.142257	-0.875500	0.888532
C73	C	-0.357748	-1.465121	0.388542
C74	C	0.142252	-0.965121	0.888542
C75	C	-0.357740	-0.537903	0.388531
C76	C	0.142260	-0.037903	0.888531
C77	C	-0.357736	-0.629212	0.388518
C78	C	0.142264	-0.129212	0.888518
C79	C	-0.357738	-0.701988	0.388513
C80	C	0.142262	-0.201988	0.888513
C81	C	-0.357734	-0.793302	0.388502
C82	C	0.142266	-0.293302	0.888502
C83	C	-0.357734	-1.165185	0.179018
C84	C	0.142266	-0.665185	0.679018
C85	C	-0.357548	-1.165319	0.089398
C86	C	0.142452	-0.665319	0.589398
C87	C	-0.357570	-1.165303	1.016615
C88	C	0.142430	-0.665303	1.516615
C89	C	-0.357596	-1.165290	0.925307
C90	C	0.142404	-0.665290	1.425307
C91	C	-0.357612	-1.165285	0.852530
C92	C	0.142388	-0.665285	1.352530
C93	C	-0.357637	-1.165271	0.761216
C94	C	0.142363	-0.665271	1.261216
H95	H	-0.903916	-1.029503	0.352066
H96	H	-0.403916	-0.529503	0.852066
O97	O	-0.910499	-1.279528	0.274325
O98	O	-0.410499	-0.779528	0.774325
H99	H	-0.944281	-1.325561	0.305806
H100	H	-0.444281	-0.825561	0.805806
O101	O	-0.804001	-1.050901	0.502551
O102	O	-0.304001	-0.550901	1.002551
H103	H	-0.824595	-1.066660	0.563445
H104	H	-0.324595	-0.566660	1.063445
H105	H	-0.811156	-1.128809	0.252673
H106	H	-0.311156	-0.628809	0.752673
O107	O	-0.803887	-1.321198	0.430382
O108	O	-0.303887	-0.821198	0.930382
H109	H	-0.823650	-1.337417	0.491480
H110	H	-0.323650	-0.837417	0.991480
H111	H	-0.903649	-1.201530	0.524335
H112	H	-0.403649	-0.701530	1.024335
