data_functionalizedCrystal
_audit_creation_method	'MofGen! by Chris Wilmer'
_symmetry_space_group_name_H-M	'P1'
_symmetry_Int_Tables_number	1
_symmetry_cell_setting	triclinic
loop_
_symmetry_equiv_pos_as_xyz
  x,y,z
_cell_length_a	14.044220
_cell_length_b	19.288865
_cell_length_c	17.766277
_cell_angle_alpha	90.011603
_cell_angle_beta	90.004280
_cell_angle_gamma	88.162563
loop_
_atom_site_label
_atom_site_type_symbol
_atom_site_fract_x
_atom_site_fract_y
_atom_site_fract_z
O1	O	-1.256998	-0.167413	-0.062531
O2	O	-0.756998	0.332587	0.437469
O3	O	-0.981055	-0.161372	-0.062549
O4	O	-0.481055	0.338628	0.437451
O5	O	-1.127000	-0.063774	-0.062525
O6	O	-0.627000	0.436226	0.437475
O7	O	-1.111053	-0.265010	-0.062556
O8	O	-0.611053	0.234990	0.437444
O9	O	-1.126975	-0.063767	0.062664
O10	O	-0.626975	0.436233	0.562664
O11	O	-0.981029	-0.161365	0.062639
O12	O	-0.481029	0.338635	0.562639
O13	O	-1.256973	-0.167406	0.062658
O14	O	-0.756973	0.332594	0.562658
Cu15	Cu	-1.118999	-0.164385	0.074079
Cu16	Cu	-0.618999	0.335615	0.574079
Cu17	Cu	-1.119029	-0.164393	-0.073971
Cu18	Cu	-0.619029	0.335607	0.426029
O19	O	-1.111028	-0.265003	0.062633
O20	O	-0.611028	0.234997	0.562633
C21	C	-1.126474	-0.037862	0.000072
C22	C	-0.626474	0.462138	0.500072
C23	C	-1.124934	0.039341	0.000078
C24	C	-0.624934	0.539341	0.500078
C25	C	-0.945739	-0.158724	0.000043
C26	C	-0.445739	0.341276	0.500043
C27	C	-0.840547	-0.150836	0.000036
C28	C	-0.340547	0.349164	0.500036
C29	C	-1.292289	-0.170054	0.000064
C30	C	-0.792289	0.329946	0.500064
C31	C	-1.397481	-0.177942	0.000065
C32	C	-0.897481	0.322058	0.500065
C33	C	-0.647947	-0.136416	0.000053
C34	C	-0.147947	0.363584	0.500053
C35	C	-0.590075	-0.192359	0.000048
C36	C	-0.090075	0.307641	0.500048
C37	C	-0.482906	-0.184335	0.000058
C38	C	0.017094	0.315665	0.500058
C39	C	-0.755126	-0.144438	0.000044
C40	C	-0.255126	0.355562	0.500044
C41	C	-1.111554	-0.290916	0.000035
C42	C	-0.611554	0.209084	0.500035
C43	C	-1.113094	-0.368119	0.000023
C44	C	-0.613094	0.131881	0.500023
N45	N	-1.118984	-0.164379	0.178209
N46	N	-0.618984	0.335621	0.678209
C47	C	-1.210568	0.078535	0.000088
C48	C	-0.710568	0.578535	0.500088
C49	C	-1.209121	0.151075	0.000076
C50	C	-0.709121	0.651075	0.500076
C51	C	-1.122035	0.184418	0.000069
C52	C	-0.622035	0.684418	0.500069
C53	C	-1.036390	0.145215	0.000056
C54	C	-0.536390	0.645215	0.500056
C55	C	-1.037839	0.072676	0.000060
C56	C	-0.537839	0.572676	0.500060
C57	C	-1.053566	0.297107	0.043916
C58	C	-0.553566	0.797107	0.543916
C59	C	-1.052120	0.369644	0.043916
C60	C	-0.552120	0.869644	0.543916
C61	C	-1.117560	0.408151	0.000052
C62	C	-0.617560	0.908151	0.500052
C63	C	-1.184463	0.374113	-0.043802
C64	C	-0.684463	0.874113	0.456198
C65	C	-1.185912	0.301574	-0.043797
C66	C	-0.685912	0.801574	0.456203
C67	C	-1.120453	0.263074	0.000064
C68	C	-0.620453	0.763074	0.500064
C69	C	-1.201631	0.526002	0.000048
C70	C	-0.701631	1.026002	0.500048
C71	C	-1.200181	0.598543	0.000031
C72	C	-0.700181	1.098543	0.500031
C73	C	-1.027447	0.592681	0.000019
C74	C	-0.527447	1.092681	0.500019
C75	C	-1.028900	0.520142	0.000028
C76	C	-0.528900	1.020142	0.500028
C77	C	-1.115995	0.486806	0.000046
C78	C	-0.615995	0.986806	0.500046
N79	N	-1.119051	-0.164394	-0.178101
N80	N	-0.619051	0.335606	0.321899
C81	C	-1.183630	-0.121187	0.217607
C82	C	-0.683630	0.378813	0.717607
C83	C	-1.183635	-0.121184	0.296409
C84	C	-0.683635	0.378816	0.796409
C85	C	-1.119004	-0.164386	0.335810
C86	C	-0.619004	0.335614	0.835810
C87	C	-1.054347	-0.207580	0.296403
C88	C	-0.554347	0.292420	0.796403
C89	C	-1.054337	-0.207577	0.217602
C90	C	-0.554337	0.292423	0.717602
C91	C	-1.106318	-0.226858	0.460638
C92	C	-0.606318	0.273142	0.960638
C93	C	-1.106335	-0.226863	0.539437
C94	C	-0.606335	0.273137	1.039437
C95	C	-1.119030	-0.164396	0.578856
C96	C	-0.619030	0.335604	1.078856
C97	C	-1.131728	-0.101922	0.539467
C98	C	-0.631728	0.398078	1.039467
C99	C	-1.131718	-0.101919	0.460667
C100	C	-0.631718	0.398081	0.960667
C101	C	-1.119008	-0.164394	0.421256
C102	C	-0.619008	0.335606	0.921256
C103	C	-1.183684	-0.121197	0.703700
C104	C	-0.683684	0.378803	1.203700
C105	C	-1.183683	-0.121193	0.782503
C106	C	-0.683683	0.378807	1.282503
C107	C	-1.054400	-0.207595	0.782495
C108	C	-0.554400	0.292405	1.282495
C109	C	-1.054396	-0.207593	0.703694
C110	C	-0.554396	0.292407	1.203694
C111	C	-1.119044	-0.164395	0.664301
C112	C	-0.619044	0.335605	1.164301
H113	H	-0.617008	-0.082499	0.000066
H114	H	-0.117008	0.417501	0.500066
H115	H	-0.959167	0.488229	0.000024
H116	H	-0.459167	0.988229	0.500024
N117	N	-0.628879	-0.260005	0.000044
N118	N	-0.128879	0.239995	0.500044
N119	N	-0.681491	-0.278041	0.052806
N120	N	-0.181491	0.221959	0.552806
H121	H	-0.708900	-0.325815	0.052803
H122	H	-0.208900	0.174185	0.552803
N123	N	-1.299538	0.044496	0.000104
N124	N	-0.799538	0.544496	0.500104
N125	N	-1.375993	0.079506	0.000110
N126	N	-0.875993	0.579506	0.500110
H127	H	-1.438830	0.055465	0.000120
H128	H	-0.938830	0.555465	0.500120
H129	H	-1.278856	0.182993	0.000080
H130	H	-0.778856	0.682993	0.500080
H131	H	-1.240385	0.273863	-0.079506
H132	H	-0.740385	0.773863	0.420494
N133	N	-0.938481	0.626720	0.000003
N134	N	-0.438481	1.126720	0.500003
N135	N	-0.880830	0.616641	-0.052772
N136	N	-0.380830	1.116641	0.447228
H137	H	-0.817994	0.640683	-0.052787
H138	H	-0.317994	1.140683	0.447213
H139	H	-1.237750	0.405464	-0.079520
H140	H	-0.737750	0.905464	0.420480
N141	N	-1.290600	0.491956	0.000068
N142	N	-0.790600	0.991956	0.500068
N143	N	-1.367056	0.526964	0.000072
N144	N	-0.867056	1.026964	0.500072
H145	H	-1.429891	0.502922	0.000087
H146	H	-0.929891	1.002922	0.500087
H147	H	-1.236323	-0.086017	0.814582
H148	H	-0.736323	0.413983	1.314582
N149	N	-1.287668	0.638571	0.000030
N150	N	-0.787668	1.138571	0.500030
N151	N	-1.365418	0.608795	0.000043
N152	N	-0.865418	1.108795	0.500043
H153	H	-1.427208	0.637065	0.000042
H154	H	-0.927208	1.137065	0.500042
H155	H	-0.965484	0.172367	0.000049
H156	H	-0.465484	0.672367	0.500049
H157	H	-0.997640	0.397352	0.079620
H158	H	-0.497640	0.897352	0.579620
N159	N	-0.986699	0.257787	0.088720
N160	N	-0.486699	0.757787	0.588720
N161	N	-0.926975	0.288183	0.127872
N162	N	-0.426975	0.788183	0.627872
H163	H	-0.879749	0.260415	0.159512
H164	H	-0.379749	0.760415	0.659512
N165	N	-0.950353	0.032647	0.000047
N166	N	-0.450353	0.532647	0.500047
N167	N	-0.872601	0.062422	0.000033
N168	N	-0.372601	0.562422	0.500033
H169	H	-0.810812	0.034150	0.000024
H170	H	-0.310812	0.534150	0.500024
H171	H	-1.001694	-0.242749	0.185524
H172	H	-0.501694	0.257251	0.685524
H173	H	-1.236267	-0.086011	0.185536
H174	H	-0.736267	0.413989	0.685536
H175	H	-1.236279	-0.086011	0.328493
H176	H	-0.736279	0.413989	0.828493
H177	H	-1.142055	-0.051051	0.428600
H178	H	-0.642055	0.448949	0.928600
N179	N	-1.144683	-0.038113	0.579734
N180	N	-0.644683	0.461887	1.079734
N181	N	-1.144672	-0.038120	0.650091
N182	N	-0.644672	0.461880	1.150091
H183	H	-1.153817	0.006944	0.678533
H184	H	-0.653817	0.506944	1.178533
H185	H	-1.236322	-0.086020	0.671625
H186	H	-0.736322	0.413980	1.171625
N187	N	-0.988377	-0.251714	0.822744
N188	N	-0.488377	0.248286	1.322744
N189	N	-0.988388	-0.251708	0.893101
N190	N	-0.488388	0.248292	1.393101
H191	H	-0.941755	-0.282865	0.921531
H192	H	-0.441755	0.217135	1.421531
N193	N	-0.988356	-0.251718	0.663457
N194	N	-0.488356	0.248282	1.163457
N195	N	-0.930649	-0.290285	0.698642
N196	N	-0.430649	0.209715	1.198642
H197	H	-0.884002	-0.321449	0.670225
H198	H	-0.384002	0.178551	1.170225
N199	N	-1.093376	-0.290682	0.579656
N200	N	-0.593376	0.209318	1.079656
N201	N	-1.082033	-0.346451	0.544454
N202	N	-0.582033	0.153549	1.044454
H203	H	-1.072882	-0.391525	0.572856
H204	H	-0.572882	0.108475	1.072856
H205	H	-1.095964	-0.277729	0.428549
H206	H	-0.595964	0.222271	0.928549
N207	N	-0.988328	-0.251701	0.336657
N208	N	-0.488328	0.248299	0.836657
N209	N	-0.988346	-0.251698	0.407014
N210	N	-0.488346	0.248302	0.907014
H211	H	-0.941715	-0.282857	0.435445
H212	H	-0.441715	0.217143	0.935445
