data_functionalizedCrystal
_audit_creation_method	'MofGen! by Chris Wilmer'
_symmetry_space_group_name_H-M	'P1'
_symmetry_Int_Tables_number	1
_symmetry_cell_setting	triclinic
loop_
_symmetry_equiv_pos_as_xyz
  x,y,z
_cell_length_a	13.032831
_cell_length_b	16.120444
_cell_length_c	13.032268
_cell_angle_alpha	80.356652
_cell_angle_beta	89.113023
_cell_angle_gamma	86.079645
loop_
_atom_site_label
_atom_site_type_symbol
_atom_site_fract_x
_atom_site_fract_y
_atom_site_fract_z
Zn1	Zn	1.458752	-0.562104	0.811467
Zn2	Zn	1.958752	-0.062104	1.311467
Zn3	Zn	1.471730	-0.686114	0.646245
Zn4	Zn	1.971730	-0.186114	1.146245
Zn5	Zn	1.311068	-0.527334	0.615813
Zn6	Zn	1.811068	-0.027334	1.115813
Zn7	Zn	1.278296	-0.681614	0.796125
Zn8	Zn	1.778296	-0.181614	1.296125
O9	O	1.379961	-0.614292	0.717412
O10	O	1.879961	-0.114292	1.217412
O11	O	1.603233	-0.594989	0.808706
O12	O	2.103233	-0.094989	1.308706
O13	O	1.469564	-0.652384	0.497601
O14	O	1.969564	-0.152384	0.997601
O15	O	1.338942	-0.415481	0.635452
O16	O	1.838942	0.084519	1.135452
O17	O	1.612767	-0.686099	0.687318
O18	O	2.112767	-0.186099	1.187318
O19	O	1.447445	-0.441027	0.779198
O20	O	1.947445	0.058973	1.279198
O21	O	1.351526	-0.535729	0.475243
O22	O	1.851526	-0.035729	0.975243
O23	O	1.163962	-0.531365	0.620575
O24	O	1.663962	-0.031365	1.120575
O25	O	1.283088	-0.678429	0.942767
O26	O	1.783088	-0.178429	1.442767
O27	O	1.139884	-0.644714	0.753049
O28	O	1.639884	-0.144714	1.253049
O29	O	1.415668	-0.590626	0.954039
O30	O	1.915668	-0.090626	1.454039
O31	O	1.437787	-0.801983	0.672442
O32	O	1.937787	-0.301983	1.172442
O33	O	1.295672	-0.798676	0.782558
O34	O	1.795672	-0.298676	1.282558
C35	C	1.114907	-0.583779	0.681846
C36	C	1.614907	-0.083779	1.181846
C37	C	1.001511	-0.570747	0.666656
C38	C	1.501511	-0.070747	1.166656
C39	C	0.939076	-0.621093	0.725340
C40	C	1.439076	-0.121093	1.225340
C41	C	0.821875	-0.607626	0.709642
C42	C	1.321875	-0.107626	1.209642
C43	C	1.364606	-0.830533	0.729163
C44	C	1.864606	-0.330533	1.229163
C45	C	1.358125	-0.923055	0.734238
C46	C	1.858125	-0.423055	1.234238
C47	C	1.413799	-1.135302	0.691345
C48	C	1.913799	-0.635302	1.191345
C49	C	1.346311	-1.092453	0.743516
C50	C	1.846311	-0.592453	1.243516
C51	C	1.352887	-0.998191	0.738352
C52	C	1.852887	-0.498191	1.238352
C53	C	1.407225	-1.229572	0.696508
C54	C	1.907225	-0.729572	1.196508
C55	C	1.646051	-0.644925	0.753118
C56	C	2.146051	-0.144925	1.253118
C57	C	1.759442	-0.657979	0.768334
C58	C	2.259442	-0.157979	1.268334
C59	C	1.344274	-0.637904	0.986946
C60	C	1.844274	-0.137904	1.486946
C61	C	1.329067	-0.647966	1.101806
C62	C	1.829067	-0.147966	1.601806
C63	C	1.395402	-0.397212	0.705642
C64	C	1.895402	0.102788	1.205642
C65	C	1.401982	-0.304705	0.700626
C66	C	1.901982	0.195295	1.200626
C67	C	1.415573	-0.590718	0.448932
C68	C	1.915573	-0.090718	0.948932
C69	C	1.430994	-0.580445	0.334087
C70	C	1.930994	-0.080445	0.834087
C71	C	1.387885	-0.609009	1.158590
C72	C	1.887885	-0.109009	1.658590
C73	C	1.372168	-0.619407	1.277304
C74	C	1.872168	-0.119407	1.777304
H75	H	0.968195	-0.517671	0.604797
H76	H	1.468195	-0.017671	1.104797
O77	O	0.782281	-0.544345	0.635702
O78	O	1.282281	-0.044345	1.135702
C79	C	0.775541	-0.484621	0.453420
C80	C	1.275541	0.015379	0.953420
C81	C	0.820473	-0.556321	0.537053
C82	C	1.320473	-0.056321	1.037053
H83	H	0.806384	-0.494289	0.373640
H84	H	1.306384	0.005711	0.873640
H85	H	0.798808	-0.421499	0.470748
H86	H	1.298808	0.078501	0.970748
H87	H	0.688097	-0.485027	0.453955
H88	H	1.188097	0.014973	0.953955
H89	H	0.907920	-0.555994	0.536563
H90	H	1.407920	-0.055994	1.036563
H91	H	0.797124	-0.619411	0.519694
H92	H	1.297124	-0.119411	1.019694
O93	O	0.799342	-0.721281	0.842069
O94	O	1.299342	-0.221281	1.342069
C95	C	0.952529	-0.792363	0.925021
C96	C	1.452529	-0.292363	1.425021
C97	C	0.907482	-0.720657	0.841463
C98	C	1.407482	-0.220657	1.341463
H99	H	1.039964	-0.791871	0.924573
H100	H	1.539964	-0.291871	1.424573
H101	H	0.929375	-0.855496	0.907619
H102	H	1.429375	-0.355496	1.407619
H103	H	0.921580	-0.782769	1.004789
H104	H	1.421580	-0.282769	1.504789
H105	H	0.938407	-0.730170	0.761662
H106	H	1.438407	-0.230170	1.261662
H107	H	0.930627	-0.657550	0.858954
H108	H	1.430627	-0.157550	1.358954
H109	H	1.449873	-0.567954	1.119319
H110	H	1.949873	-0.067954	1.619319
O111	O	1.298074	-0.668277	1.324071
O112	O	1.798074	-0.168277	1.824071
C113	C	1.117309	-0.691625	1.336167
C114	C	1.617309	-0.191625	1.836167
C115	C	1.201110	-0.636200	1.283136
C116	C	1.701110	-0.136200	1.783136
H117	H	1.038897	-0.665722	1.303077
H118	H	1.538897	-0.165722	1.803077
H119	H	1.117723	-0.691272	1.423563
H120	H	1.617723	-0.191272	1.923563
H121	H	1.133286	-0.758959	1.321070
H122	H	1.633286	-0.258959	1.821070
H123	H	1.185191	-0.568841	1.298152
H124	H	1.685191	-0.068841	1.798152
H125	H	1.200676	-0.636624	1.195756
H126	H	1.700676	-0.136624	1.695756
H127	H	1.476511	-1.101197	0.642805
H128	H	1.976511	-0.601197	1.142805
H129	H	1.492985	-0.539385	1.294820
H130	H	1.992985	-0.039385	1.794820
O131	O	1.271522	-1.133260	0.801339
O132	O	1.771522	-0.633260	1.301339
C133	C	1.196761	-1.265799	0.859347
C134	C	1.696761	-0.765799	1.359347
C135	C	1.281493	-1.219682	0.793810
C136	C	1.781493	-0.719682	1.293810
H137	H	1.204807	-1.335682	0.853301
H138	H	1.704807	-0.835682	1.353301
H139	H	1.118062	-1.237833	0.829179
H140	H	1.618062	-0.737833	1.329179
H141	H	1.204729	-1.258024	0.944150
H142	H	1.704729	-0.758024	1.444150
H143	H	1.273621	-1.227440	0.708994
H144	H	1.773621	-0.727440	1.208994
H145	H	1.360158	-1.247657	0.824065
H146	H	1.860158	-0.747657	1.324065
O147	O	1.255166	-0.697054	1.148543
O148	O	1.755166	-0.197054	1.648543
C149	C	1.191247	-0.835826	1.182855
C150	C	1.691247	-0.335826	1.682855
C151	C	1.274992	-0.780324	1.129860
C152	C	1.774992	-0.280324	1.629860
H153	H	1.207259	-0.903164	1.167787
H154	H	1.707259	-0.403164	1.667787
H155	H	1.112788	-0.809967	1.149843
H156	H	1.612788	-0.309967	1.649843
H157	H	1.191732	-0.835443	1.270242
H158	H	1.691732	-0.335443	1.770242
H159	H	1.274602	-0.780684	1.042470
H160	H	1.774602	-0.280684	1.542470
H161	H	1.353412	-0.806201	1.162955
H162	H	1.853412	-0.306201	1.662955
H163	H	0.972391	-0.674164	0.787207
H164	H	1.472391	-0.174164	1.287207
