data_functionalizedCrystal
_audit_creation_method	'MofGen! by Chris Wilmer'
_symmetry_space_group_name_H-M	'P1'
_symmetry_Int_Tables_number	1
_symmetry_cell_setting	triclinic
loop_
_symmetry_equiv_pos_as_xyz
  x,y,z
_cell_length_a	16.109301
_cell_length_b	27.732048
_cell_length_c	15.186229
_cell_angle_alpha	89.991324
_cell_angle_beta	89.999362
_cell_angle_gamma	83.052068
loop_
_atom_site_label
_atom_site_type_symbol
_atom_site_fract_x
_atom_site_fract_y
_atom_site_fract_z
O1	O	1.102361	0.062130	-0.073183
O2	O	0.860204	0.069862	-0.073198
O3	O	0.988803	-0.004369	-0.073173
O4	O	0.973762	0.136361	-0.073208
O5	O	0.988795	-0.004370	0.073284
O6	O	0.860195	0.069861	0.073259
O7	O	1.102353	0.062129	0.073275
Zn8	Zn	0.981273	0.065995	0.096520
Zn9	Zn	0.981284	0.065996	-0.096444
O10	O	0.973753	0.136360	0.073250
C11	C	0.829228	0.069548	0.000029
C12	C	0.736945	0.068609	0.000024
C13	C	0.988483	-0.022378	0.000058
C14	C	0.987533	-0.076037	0.000065
C15	C	0.514154	0.110473	0.000024
C16	C	0.427445	0.109587	0.000030
C17	C	0.448409	0.021514	0.000048
C18	C	0.535117	0.022401	0.000048
C19	C	0.567987	0.066882	0.000032
C20	C	0.394570	0.065109	0.000037
C21	C	0.300556	0.064148	0.000044
C22	C	0.662007	0.067843	0.000027
C23	C	1.057541	-0.414559	0.000024
C24	C	1.054013	-0.616233	0.000012
O25	O	1.118031	-0.647221	-0.000023
N26	N	0.977759	-0.635676	0.000008
C27	C	0.902381	-0.604697	0.000001
O28	O	0.837441	-0.625862	-0.000011
C29	C	0.905910	-0.403024	0.000008
C30	C	0.982169	-0.383584	0.000020
C31	C	1.133794	-0.395119	0.000036
C32	C	1.134675	-0.344703	0.000044
C33	C	1.059303	-0.313728	0.000040
C34	C	0.983050	-0.333168	0.000028
C35	C	0.830533	-0.372045	-0.000005
C36	C	0.831422	-0.321624	-0.000006
C37	C	0.907681	-0.302184	0.000007
C38	C	0.908559	-0.251777	0.000032
N39	N	0.984814	-0.232334	0.000036
C40	C	1.060186	-0.263310	0.000040
C41	C	0.900534	-0.710579	-0.000000
C42	C	0.899652	-0.760997	-0.000000
C43	C	1.051284	-0.772530	0.000009
C44	C	1.052166	-0.722111	0.000015
C45	C	0.976789	-0.691136	0.000004
C46	C	1.062030	-0.157433	0.000058
C47	C	1.062905	-0.107012	0.000069
C48	C	0.911273	-0.095484	0.000056
C49	C	0.910398	-0.145900	0.000049
C50	C	0.985783	-0.176874	0.000047
O51	O	0.844576	-0.220761	0.000057
O52	O	1.125116	-0.242135	0.000033
C53	C	1.056660	-0.464975	0.000016
C54	C	0.980407	-0.484415	0.000005
C55	C	0.905035	-0.453440	0.000001
C56	C	0.979525	-0.534833	0.000005
C57	C	1.054897	-0.565808	0.000009
C58	C	1.131151	-0.546365	0.000013
C59	C	1.132032	-0.495950	0.000020
C60	C	0.828781	-0.472883	-0.000003
C61	C	0.827906	-0.523299	-0.000010
C62	C	0.903278	-0.554274	-0.000006
C63	C	1.133328	0.062443	0.000046
C64	C	1.225612	0.063382	0.000045
C65	C	0.974073	0.154369	0.000017
C66	C	0.975024	0.208028	0.000004
N67	N	0.981271	0.065994	0.228213
N68	N	0.981292	0.065994	-0.228136
C69	C	1.038234	0.033135	0.453947
C70	C	1.038237	0.033134	0.546136
C71	C	0.924323	0.098854	0.546124
C72	C	0.924317	0.098852	0.453936
C73	C	0.981277	0.065993	0.407850
C74	C	0.981286	0.065994	0.592227
C75	C	0.981288	0.065993	0.692183
C76	C	0.981274	0.065994	0.307887
H77	H	0.540913	0.146692	0.000017
H78	H	0.849907	-0.070255	0.000055
H79	H	0.837554	-0.776820	0.000005
C80	C	0.644789	-0.027699	0.075347
C81	C	0.594298	-0.025519	0.000056
H82	H	0.681320	-0.057283	0.075355
H83	H	0.676769	-0.001085	0.075336
H84	H	0.610517	-0.026217	0.126412
H85	H	0.628569	-0.026998	-0.051010
H86	H	0.562314	-0.052140	0.000059
H87	H	0.877948	0.125607	0.583656
H88	H	0.770039	-0.296407	-0.000017
H89	H	0.383617	0.145084	0.000025
H90	H	0.877932	0.125610	0.416401
H91	H	0.768435	-0.387864	-0.000021
C92	C	0.324801	-0.018951	0.000046
C93	C	0.412275	-0.027377	0.000054
H94	H	0.302497	-0.049136	0.000042
H95	H	0.306287	-0.001009	0.051113
H96	H	0.306295	-0.001000	-0.051034
H97	H	0.430782	-0.045325	0.051137
H98	H	0.430797	-0.045327	-0.051018
C99	C	1.281129	-0.552715	0.000024
C100	C	1.214002	-0.580420	0.000016
H101	H	1.332274	-0.573741	0.000028
H102	H	1.278326	-0.532805	-0.051042
H103	H	1.278319	-0.532815	0.051104
H104	H	1.216809	-0.600317	-0.051067
H105	H	1.216807	-0.600338	0.051088
C106	C	1.212702	-0.123484	0.000070
C107	C	1.146735	-0.085645	0.000076
H108	H	1.264452	-0.110293	0.000068
H109	H	1.209202	-0.142913	0.051138
H110	H	1.209196	-0.142903	-0.051008
H111	H	1.150237	-0.066228	0.051158
H112	H	1.150236	-0.066207	-0.050997
C113	C	1.151478	0.022629	0.350221
C114	C	1.100799	-0.002998	0.403265
H115	H	1.190093	0.000316	0.318932
H116	H	1.117555	0.042205	0.309592
H117	H	1.181165	0.042740	0.386168
H118	H	1.071107	-0.023106	0.367317
H119	H	1.134726	-0.022582	0.443898
H120	H	0.767402	-0.447667	-0.000009
C121	C	1.150841	-0.031822	0.536883
C122	C	1.100849	-0.002983	0.596806
H123	H	1.189499	-0.054118	0.568166
H124	H	1.116459	-0.049215	0.500936
H125	H	1.180480	-0.011690	0.500917
H126	H	1.071205	-0.023115	0.632768
H127	H	1.135236	0.014411	0.632768
H128	H	1.123416	-0.182646	0.000053
H129	H	1.196773	-0.328880	0.000051
H130	H	0.848301	-0.161728	0.000063
H131	H	1.194130	-0.480127	0.000031
H132	H	1.195175	-0.420334	0.000036
H133	H	1.112655	-0.797759	0.000012
C134	C	1.201955	-0.738586	0.000018
C135	C	1.135991	-0.700745	0.000015
H136	H	1.253707	-0.725397	0.000010
H137	H	1.198454	-0.758011	0.051090
H138	H	1.198447	-0.758009	-0.051056
H139	H	1.139496	-0.681324	0.051093
H140	H	1.139495	-0.681312	-0.051062
C141	C	0.750564	-0.704254	0.000004
C142	C	0.817671	-0.676535	0.000000
H143	H	0.699409	-0.683238	0.000013
H144	H	0.753377	-0.724152	-0.051068
H145	H	0.753388	-0.724167	0.051078
H146	H	0.814850	-0.656625	-0.051078
H147	H	0.814857	-0.656629	0.051077
C148	C	0.678109	-0.506822	-0.000035
C149	C	0.744073	-0.544663	-0.000027
H150	H	0.626357	-0.520011	-0.000057
H151	H	0.681601	-0.487407	0.051041
H152	H	0.681627	-0.487389	-0.051105
H153	H	0.740559	-0.564094	0.051046
H154	H	0.740580	-0.564086	-0.051109
