data_functionalizedCrystal
_audit_creation_method	'MofGen! by Chris Wilmer'
_symmetry_space_group_name_H-M	'P1'
_symmetry_Int_Tables_number	1
_symmetry_cell_setting	triclinic
loop_
_symmetry_equiv_pos_as_xyz
  x,y,z
_cell_length_a	16.974800
_cell_length_b	27.731996
_cell_length_c	16.053802
_cell_angle_alpha	92.537600
_cell_angle_beta	91.074188
_cell_angle_gamma	83.006863
loop_
_atom_site_label
_atom_site_type_symbol
_atom_site_fract_x
_atom_site_fract_y
_atom_site_fract_z
O1	O	1.048309	0.061616	0.001418
O2	O	1.548309	0.561616	0.501418
O3	O	0.818755	0.069015	-0.014101
O4	O	1.318755	0.569015	0.485899
O5	O	0.940682	-0.005041	-0.005840
O6	O	1.440682	0.494959	0.494160
O7	O	0.926382	0.135671	-0.006843
O8	O	1.426382	0.635671	0.493157
O9	O	0.933971	-0.000981	0.132564
O10	O	1.433971	0.499019	0.632564
O11	O	0.812044	0.073074	0.124303
O12	O	1.312044	0.573074	0.624303
O13	O	1.041598	0.065675	0.139823
O14	O	1.541598	0.565675	0.639823
Zn15	Zn	0.925755	0.070019	0.154038
Zn16	Zn	1.425755	0.570019	0.654038
Zn17	Zn	0.934597	0.064671	-0.028316
Zn18	Zn	1.434597	0.564671	0.471684
O19	O	0.919671	0.139731	0.131561
O20	O	1.419671	0.639731	0.631561
C21	C	0.786041	0.070689	0.053117
C22	C	1.286041	0.570689	0.553117
C23	C	0.698561	0.069623	0.047203
C24	C	1.198561	0.569623	0.547203
C25	C	0.653810	0.071334	0.119871
C26	C	1.153810	0.571334	0.619871
C27	C	0.571615	0.070325	0.114317
C28	C	1.071615	0.570325	0.614317
C29	C	0.534173	0.067608	0.036095
C30	C	1.034173	0.567608	0.536095
C31	C	0.578931	0.065896	-0.036579
C32	C	1.078931	0.565896	0.463421
C33	C	0.661124	0.066902	-0.031024
C34	C	1.161124	0.566902	0.468976
C35	C	0.288743	0.064360	0.011392
C36	C	0.788743	0.564360	0.511392
C37	C	0.206543	0.063356	0.005843
C38	C	0.706543	0.563356	0.505843
C39	C	0.199233	0.067784	0.156740
C40	C	0.699233	0.567784	0.656740
C41	C	0.281428	0.068792	0.162287
C42	C	0.781428	0.568792	0.662287
C43	C	0.326179	0.067077	0.089614
C44	C	0.826179	0.567077	0.589614
N45	N	0.450157	0.066578	0.030416
N46	N	0.950157	0.566578	0.530416
N47	N	0.410195	0.068104	0.095294
N48	N	0.910195	0.568104	0.595294
C49	C	0.937032	-0.021020	0.063345
C50	C	1.437032	0.478980	0.563345
C51	C	0.936147	-0.074681	0.063294
C52	C	1.436147	0.425319	0.563294
C53	C	0.934240	-0.409644	-0.012567
C54	C	1.434240	0.090356	0.487433
C55	C	0.930880	-0.611323	-0.012809
C56	C	1.430880	-0.111323	0.487191
O57	O	0.933523	-0.639278	-0.077004
O58	O	1.433523	-0.139278	0.422996
N59	N	0.926805	-0.634329	0.062606
N60	N	1.426805	-0.134329	0.562606
C61	C	0.923564	-0.606913	0.138087
C62	C	1.423564	-0.106913	0.638087
O63	O	0.920012	-0.631109	0.202226
O64	O	1.420012	-0.131109	0.702226
C65	C	0.926917	-0.405235	0.138327
C66	C	1.426917	0.094765	0.638327
C67	C	0.931001	-0.382232	0.062908
C68	C	1.431001	0.117768	0.562908
C69	C	0.938322	-0.386640	-0.087981
C70	C	1.438322	0.113360	0.412019
C71	C	0.939166	-0.336224	-0.087919
C72	C	1.439166	0.163776	0.412081
C73	C	0.935928	-0.308812	-0.012444
C74	C	1.435928	0.191188	0.487556
C75	C	0.931845	-0.331815	0.062969
C76	C	1.431845	0.168185	0.562969
C77	C	0.923671	-0.377819	0.213807
C78	C	1.423671	0.122181	0.713807
C79	C	0.924508	-0.327397	0.213860
C80	C	1.424508	0.172603	0.713860
C81	C	0.928591	-0.304393	0.138440
C82	C	1.428591	0.195607	0.638440
C83	C	0.929451	-0.253987	0.138506
C84	C	1.429451	0.246013	0.638506
N85	N	0.933527	-0.230980	0.063090
N86	N	1.433527	0.269020	0.563090
C87	C	0.936765	-0.258392	-0.012385
C88	C	1.436765	0.241608	0.487615
C89	C	0.921804	-0.712797	0.137955
C90	C	1.421804	-0.212797	0.637955
C91	C	0.920967	-0.763216	0.137895
C92	C	1.420967	-0.263216	0.637895
C93	C	0.928282	-0.767622	-0.013001
C94	C	1.428282	-0.267622	0.486999
C95	C	0.929125	-0.717203	-0.012940
C96	C	1.429125	-0.217203	0.487060
C97	C	0.925880	-0.689790	0.062540
C98	C	1.425880	-0.189790	0.562540
C99	C	0.938538	-0.152514	-0.012250
C100	C	1.438538	0.347486	0.487750
C101	C	0.939385	-0.102094	-0.012181
C102	C	1.439385	0.397906	0.487819
C103	C	0.932066	-0.097692	0.138714
C104	C	1.432066	0.402308	0.638714
C105	C	0.931223	-0.148108	0.138647
C106	C	1.431223	0.351892	0.638647
C107	C	0.934457	-0.175518	0.063158
C108	C	1.434457	0.324482	0.563158
O109	O	0.926802	-0.226001	0.202666
O110	O	1.426802	0.273999	0.702666
O111	O	0.940299	-0.234186	-0.076515
O112	O	1.440299	0.265814	0.423485
C113	C	0.933395	-0.460060	-0.012629
C114	C	1.433395	0.039940	0.487371
C115	C	0.929313	-0.483064	0.062785
C116	C	1.429313	0.016936	0.562785
C117	C	0.926075	-0.455652	0.138260
C118	C	1.426075	0.044348	0.638260
C119	C	0.928476	-0.533483	0.062725
C120	C	1.428476	-0.033483	0.562725
C121	C	0.931714	-0.560896	-0.012750
C122	C	1.431714	-0.060896	0.487250
C123	C	0.935790	-0.537889	-0.088165
C124	C	1.435790	-0.037889	0.411835
C125	C	0.936634	-0.487473	-0.088104
C126	C	1.436634	0.012527	0.411896
C127	C	0.921999	-0.478658	0.213675
C128	C	1.421999	0.021342	0.713675
C129	C	0.921156	-0.529075	0.213607
C130	C	1.421156	-0.029075	0.713607
C131	C	0.924395	-0.556488	0.138132
C132	C	1.424395	-0.056488	0.638132
C133	C	1.074312	0.064001	0.072603
C134	C	1.574312	0.564001	0.572603
C135	C	1.161791	0.065067	0.078511
C136	C	1.661791	0.565067	0.578511
C137	C	0.923320	0.155710	0.062374
C138	C	1.423320	0.655710	0.562374
C139	C	0.924206	0.209371	0.062420
C140	C	1.424206	0.709371	0.562420
N141	N	0.919726	0.073669	0.278489
N142	N	1.419726	0.573669	0.778489
N143	N	0.940632	0.061017	-0.152767
N144	N	1.440632	0.561017	0.347233
C145	C	0.971625	0.042170	0.325700
C146	C	1.471625	0.542170	0.825700
C147	C	0.967415	0.044727	0.412821
C148	C	1.467415	0.544727	0.912821
C149	C	0.911310	0.078787	0.452731
C150	C	1.411310	0.578787	0.952731
C151	C	0.859406	0.110288	0.405514
C152	C	1.359406	0.610288	0.905514
C153	C	0.863612	0.107728	0.318394
C154	C	1.363612	0.607728	0.818394
C155	C	0.892935	0.089958	0.712896
C156	C	1.392935	0.589958	1.212896
C157	C	0.888733	0.092517	0.800022
C158	C	1.388733	0.592517	1.300022
C159	C	0.996743	0.026955	0.807323
C160	C	1.496743	0.526955	1.307323
C161	C	1.000947	0.024399	0.720201
C162	C	1.500947	0.524399	1.220201
C163	C	0.949040	0.055899	0.672992
C164	C	1.449040	0.555899	1.172992
N165	N	0.907007	0.081404	0.541783
N166	N	1.407007	0.581404	1.041783
N167	N	0.953340	0.053280	0.583941
N168	N	1.453340	0.553280	1.083941
H169	H	0.325170	0.062962	-0.047784
H170	H	0.825170	0.562962	0.452216
H171	H	0.176060	0.061145	-0.057858
H172	H	0.676060	0.561145	0.442142
H173	H	0.927905	-0.166839	0.200060
H174	H	1.427905	0.333161	0.700060
C175	C	0.916662	-0.554373	0.296581
C176	C	1.416662	-0.054373	0.796581
N177	N	0.913268	-0.573424	0.359074
N178	N	1.413268	-0.073424	0.859074
H179	H	0.548439	0.063681	-0.100269
H180	H	1.048439	0.563681	0.399731
C181	C	0.835936	0.124671	0.660983
C182	C	1.335936	0.624671	1.160983
N183	N	0.793039	0.150841	0.621883
N184	N	1.293039	0.650841	1.121883
C185	C	0.943650	-0.310927	-0.170888
C186	C	1.443650	0.189073	0.329112
N187	N	0.947023	-0.291875	-0.233385
N188	N	1.447023	0.208125	0.266615
C189	C	1.033346	0.004700	0.281807
C190	C	1.533346	0.504700	0.781807
N191	N	1.079833	-0.023524	0.248750
N192	N	1.579833	0.476476	0.748750
H193	H	1.009675	0.019078	0.451260
H194	H	1.509675	0.519078	0.951260
H195	H	1.046633	-0.003335	0.687709
H196	H	1.546633	0.496665	1.187709
C197	C	0.710351	0.065020	-0.110965
C198	C	1.210351	0.565020	0.389035
N199	N	0.747427	0.063602	-0.171179
N200	N	1.247427	0.563602	0.328821
H201	H	1.039002	0.001309	0.845769
H202	H	1.539002	0.501309	1.345769
C203	C	0.827008	0.129986	0.843921
C204	C	1.327008	0.629986	1.343921
N205	N	0.780519	0.158206	0.876985
N206	N	1.280519	0.658206	1.376985
C207	C	0.943875	-0.076793	-0.095152
C208	C	1.443875	0.423207	0.404848
N209	N	0.947255	-0.057738	-0.157645
N210	N	1.447255	0.442262	0.342355
H211	H	0.939959	-0.468748	-0.149518
H212	H	1.439959	0.031252	0.350482
H213	H	0.919363	-0.456344	0.275137
H214	H	1.419363	0.043656	0.775137
C215	C	0.942109	-0.182659	-0.095290
C216	C	1.442109	0.317341	0.404710
N217	N	0.944807	-0.205365	-0.157836
N218	N	1.444807	0.294635	0.342164
C219	C	0.797682	0.147750	0.449418
C220	C	1.297682	0.647750	0.949418
N221	N	0.751190	0.175967	0.482485
N222	N	1.251190	0.675967	0.982485
C223	C	0.941919	-0.416789	-0.171015
C224	C	1.441919	0.083211	0.328985
N225	N	0.944646	-0.439496	-0.233560
N226	N	1.444646	0.060504	0.266440
H227	H	0.535184	0.071710	0.173492
H228	H	1.035184	0.571710	0.673492
C229	C	0.322609	0.071778	0.248338
C230	C	0.822609	0.571778	0.748338
N231	N	0.353626	0.074028	0.313153
N232	N	0.853626	0.574028	0.813153
C233	C	0.933610	-0.691903	-0.095907
C234	C	1.433610	-0.191903	0.404093
N235	N	0.936986	-0.672850	-0.158402
N236	N	1.436986	-0.172850	0.341598
C237	C	0.931838	-0.797785	-0.096025
C238	C	1.431838	-0.297785	0.403975
N239	N	0.934509	-0.820505	-0.158555
N240	N	1.434509	-0.320505	0.341445
C241	C	0.806526	0.142384	0.266463
C242	C	1.306526	0.642384	0.766463
N243	N	0.763527	0.168488	0.227350
N244	N	1.263527	0.668488	0.727350
H245	H	0.919165	-0.690482	0.199424
H246	H	1.419165	-0.190482	0.699424
C247	C	0.916483	-0.788515	0.220863
C248	C	1.416483	-0.288515	0.720863
N249	N	0.913099	-0.807567	0.283358
N250	N	1.413099	-0.307567	0.783358
H251	H	0.684288	0.073550	0.183568
H252	H	1.184288	0.573550	0.683568
C253	C	0.919168	-0.403111	0.296775
C254	C	1.419168	0.096889	0.796775
N255	N	0.915772	-0.422159	0.359272
N256	N	1.415772	0.077841	0.859272
H257	H	0.162788	0.069180	0.215906
H258	H	0.662788	0.569180	0.715906
H259	H	0.921853	-0.305079	0.275326
H260	H	1.421853	0.194921	0.775326
H261	H	0.929433	-0.075364	0.200164
H262	H	1.429433	0.424636	0.700164
H263	H	0.938430	-0.560218	-0.149620
H264	H	1.438430	-0.060218	0.350380
