data_functionalizedCrystal
_audit_creation_method	'MofGen! by Chris Wilmer'
_symmetry_space_group_name_H-M	'P1'
_symmetry_Int_Tables_number	1
_symmetry_cell_setting	triclinic
loop_
_symmetry_equiv_pos_as_xyz
  x,y,z
_cell_length_a	12.759401
_cell_length_b	16.625545
_cell_length_c	12.759393
_cell_angle_alpha	89.967043
_cell_angle_beta	90.020938
_cell_angle_gamma	89.974438
loop_
_atom_site_label
_atom_site_type_symbol
_atom_site_fract_x
_atom_site_fract_y
_atom_site_fract_z
Zn1	Zn	1.606198	0.320930	0.594002
Zn2	Zn	1.606061	0.455784	0.418315
Zn3	Zn	1.430497	0.320973	0.418337
Zn4	Zn	1.430460	0.455728	0.593952
O5	O	1.518304	0.388354	0.506152
O6	O	1.753201	0.338824	0.570708
O7	O	1.582730	0.437943	0.271297
O8	O	1.453877	0.208135	0.441670
O9	O	1.753100	0.437901	0.441632
O10	O	1.582964	0.208103	0.570730
O11	O	1.453744	0.338897	0.271313
O12	O	1.283471	0.338843	0.441621
O13	O	1.453814	0.437805	0.740980
O14	O	1.283444	0.437847	0.570645
O15	O	1.582928	0.338770	0.741017
O16	O	1.582694	0.568609	0.441583
O17	O	1.453681	0.568568	0.570623
C18	C	1.245337	0.388344	0.506131
C19	C	1.128560	0.388359	0.506147
C20	C	1.073711	0.439989	0.573223
C21	C	0.963987	0.439992	0.573244
C22	C	0.963970	0.336733	0.439103
C23	C	1.073692	0.336726	0.439088
C24	C	1.518197	0.597844	0.506118
C25	C	1.518247	0.687466	0.506139
C26	C	1.518419	1.015641	0.506264
C27	C	1.518368	0.924333	0.506232
C28	C	1.518332	0.851556	0.506201
C29	C	1.518283	0.760242	0.506170
C30	C	1.792337	0.388364	0.506173
C31	C	1.909114	0.388369	0.506182
C32	C	1.518383	0.388276	0.780185
C33	C	1.518416	0.388243	0.896962
C34	C	1.518431	1.178045	0.506221
C35	C	1.518462	1.088423	0.506282
C36	C	1.518286	0.388372	0.233184
C37	C	1.518456	0.388178	0.116408
C38	C	1.585651	0.336667	0.951845
C39	C	1.585669	0.336632	1.061569
C40	C	1.451214	0.439757	1.061517
C41	C	1.451192	0.439787	0.951795
H42	H	0.919283	0.294697	0.384504
N43	N	1.654293	0.284011	0.895816
N44	N	1.654264	0.284041	0.797851
H45	H	1.702741	0.246850	0.758282
N46	N	1.382553	0.492413	1.117520
N47	N	1.389451	0.566819	1.105244
H48	H	1.340952	0.604009	1.144790
N49	N	0.907964	0.492748	0.641741
N50	N	0.846699	0.544098	0.604660
H51	H	0.807133	0.581360	0.653038
H52	H	1.118382	0.482029	0.627830
N53	N	1.129710	0.283974	0.370568
N54	N	1.080711	0.237881	0.310696
H55	H	1.120273	0.200623	0.262308
H56	H	1.640416	0.294633	1.106250
N57	N	1.382495	0.492473	0.895743
N58	N	1.322483	0.538492	0.944711
H59	H	1.273964	0.575698	0.905124
