data_functionalizedCrystal
_audit_creation_method	'MofGen! by Chris Wilmer'
_symmetry_space_group_name_H-M	'P1'
_symmetry_Int_Tables_number	1
_symmetry_cell_setting	triclinic
loop_
_symmetry_equiv_pos_as_xyz
  x,y,z
_cell_length_a	21.395364
_cell_length_b	17.640280
_cell_length_c	21.395356
_cell_angle_alpha	101.220420
_cell_angle_beta	90.016560
_cell_angle_gamma	78.798629
loop_
_atom_site_label
_atom_site_type_symbol
_atom_site_fract_x
_atom_site_fract_y
_atom_site_fract_z
Zn1	Zn	1.008329	-0.314732	0.303897
Zn2	Zn	1.508329	0.185268	0.803897
Zn3	Zn	1.029462	-0.446900	0.177969
Zn4	Zn	1.529462	0.053100	0.677969
Zn5	Zn	0.903561	-0.314745	0.199132
Zn6	Zn	1.403561	0.185255	0.699132
Zn7	Zn	0.924722	-0.446860	0.282715
Zn8	Zn	1.424722	0.053140	0.782715
O9	O	0.966519	-0.380809	0.240928
O10	O	1.466519	0.119191	0.740928
O11	O	1.098812	-0.332276	0.287201
O12	O	1.598812	0.167724	0.787201
O13	O	1.012749	-0.429392	0.093094
O14	O	1.512749	0.070608	0.593094
O15	O	0.899758	-0.204139	0.230751
O16	O	1.399758	0.295861	0.730751
O17	O	1.114338	-0.429379	0.194681
O18	O	1.614338	0.070621	0.694681
O19	O	0.976731	-0.204130	0.307721
O20	O	1.476731	0.295870	0.807721
O21	O	0.920250	-0.332298	0.108643
O22	O	1.420250	0.167702	0.608643
O23	O	0.818688	-0.332258	0.210211
O24	O	1.318688	0.167742	0.710211
O25	O	0.935825	-0.429310	0.373206
O26	O	1.435825	0.070690	0.873206
O27	O	0.834235	-0.429323	0.271619
O28	O	1.334235	0.070677	0.771619
O29	O	0.997250	-0.332237	0.388769
O30	O	1.497250	0.167763	0.888769
O31	O	1.033268	-0.557498	0.174142
O32	O	1.533268	-0.057498	0.674142
O33	O	0.956317	-0.557468	0.251098
O34	O	1.456317	-0.057468	0.751098
C35	C	0.803728	-0.380788	0.240913
C36	C	1.303728	0.119212	0.740913
C37	C	0.734088	-0.380798	0.240919
C38	C	1.234088	0.119202	0.740919
C39	C	0.240420	-0.431443	0.272850
C40	C	0.740420	0.068557	0.772850
C41	C	0.305856	-0.431443	0.272843
C42	C	0.805856	0.068557	0.772843
C43	C	0.330454	-0.380826	0.240945
C44	C	0.830454	0.119174	0.740945
C45	C	0.289614	-0.330220	0.209038
C46	C	0.789614	0.169780	0.709038
C47	C	0.224181	-0.330227	0.209040
C48	C	0.724181	0.169773	0.709040
C49	C	0.422710	-0.309598	0.247493
C50	C	0.922710	0.190402	0.747493
C51	C	0.488142	-0.309589	0.247495
C52	C	0.988142	0.190411	0.747495
C53	C	0.532272	-0.380806	0.240935
C54	C	1.032272	0.119194	0.740935
C55	C	0.510962	-0.452032	0.234385
C56	C	1.010962	0.047968	0.734385
C57	C	0.445529	-0.452039	0.234387
C58	C	0.945529	0.047961	0.734387
C59	C	0.401405	-0.380814	0.240939
C60	C	0.901405	0.119186	0.740939
C61	C	0.644057	-0.431413	0.272829
C62	C	1.144057	0.068587	0.772829
C63	C	0.709494	-0.431414	0.272818
C64	C	1.209494	0.068586	0.772818
C65	C	0.693249	-0.330184	0.209017
C66	C	1.193249	0.169816	0.709017
C67	C	0.627815	-0.330190	0.209024
C68	C	1.127815	0.169810	0.709024
C69	C	0.603223	-0.380803	0.240933
C70	C	1.103223	0.119197	0.740933
C71	C	0.999399	-0.586162	0.208039
C72	C	1.499399	-0.086162	0.708039
C73	C	1.013523	-0.674012	0.193990
C74	C	1.513523	-0.174012	0.693990
C75	C	0.859480	-0.963002	0.347886
C76	C	1.359480	-0.463002	0.847886
C77	C	0.872752	-1.045551	0.334665
C78	C	1.372752	-0.545551	0.834665
C79	C	0.952932	-1.045517	0.254611
C80	C	1.452932	-0.545517	0.754611
C81	C	0.939668	-0.962966	0.267828
C82	C	1.439668	-0.462966	0.767828
C83	C	0.892941	-0.921715	0.314466
C84	C	1.392941	-0.421715	0.814466
C85	C	0.973130	-0.921679	0.234407
C86	C	1.473130	-0.421679	0.734407
C87	C	0.959864	-0.839136	0.247621
C88	C	1.459864	-0.339136	0.747621
C89	C	0.913138	-0.797879	0.294255
C90	C	1.413138	-0.297879	0.794255
C91	C	0.879676	-0.839172	0.327679
C92	C	1.379676	-0.339172	0.827679
C93	C	1.019853	-0.962931	0.187766
C94	C	1.519853	-0.462931	0.687766
C95	C	1.053315	-0.921645	0.154346
C96	C	1.553315	-0.421645	0.654346
C97	C	1.040053	-0.839099	0.167562
C98	C	1.540053	-0.339099	0.667562
C99	C	0.993327	-0.797843	0.214197
C100	C	1.493327	-0.297843	0.714197
C101	C	1.073515	-0.797807	0.134138
C102	C	1.573515	-0.297807	0.634138
C103	C	1.060250	-0.715263	0.147352
C104	C	1.560250	-0.215263	0.647352
C105	C	0.980061	-0.715299	0.227410
C106	C	1.480061	-0.215299	0.727410
C107	C	1.129945	-0.380831	0.240943
C108	C	1.629945	0.119169	0.740943
C109	C	1.199588	-0.380840	0.240949
C110	C	1.699588	0.119160	0.740949
C111	C	0.966541	-0.380768	0.404358
C112	C	1.466541	0.119232	0.904358
C113	C	0.966550	-0.380750	0.474002
C114	C	1.466550	0.119250	0.974002
C115	C	0.933527	-0.174655	0.273960
C116	C	1.433527	0.325345	0.773960
C117	C	0.919468	-0.086804	0.288036
C118	C	1.419468	0.413196	0.788036
C119	C	0.966524	-0.380793	0.078143
C120	C	1.466524	0.119207	0.578143
C121	C	0.966600	-0.380588	0.008535
C122	C	1.466600	0.119412	0.508535
C123	C	1.014758	-0.431141	0.967730
C124	C	1.514758	0.068859	1.467730
C125	C	1.014751	-0.431166	0.902290
C126	C	1.514751	0.068834	1.402290
C127	C	0.966590	-0.380624	0.877661
C128	C	1.466590	0.119376	1.377661
C129	C	0.918423	-0.330068	0.918475
C130	C	1.418423	0.169932	1.418475
C131	C	0.918428	-0.330050	0.983912
C132	C	1.418428	0.169950	1.483912
C133	C	0.950238	-0.309443	0.785397
C134	C	1.450238	0.190557	1.285397
C135	C	0.950237	-0.309460	0.719961
C136	C	1.450237	0.190540	1.219961
C137	C	0.966571	-0.380681	0.675831
C138	C	1.466571	0.119319	1.175831
C139	C	0.982918	-0.451887	0.697144
C140	C	1.482918	0.048113	1.197144
C141	C	0.982923	-0.451869	0.762581
C142	C	1.482923	0.048131	1.262581
C143	C	0.966579	-0.380639	0.806706
C144	C	1.466579	0.119361	1.306706
C145	C	1.014724	-0.431265	0.564068
C146	C	1.514724	0.068735	1.064068
C147	C	1.014712	-0.431291	0.498627
C148	C	1.514712	0.068709	0.998627
C149	C	0.918387	-0.330186	0.514814
C150	C	1.418387	0.169814	1.014814
C151	C	0.918396	-0.330167	0.580252
C152	C	1.418396	0.169833	1.080252
C153	C	0.966568	-0.380705	0.604876
C154	C	1.466568	0.119295	1.104876
H155	H	0.546892	-0.510023	0.229047
H156	H	1.046892	-0.010023	0.729047
F157	F	0.422852	-0.527841	0.227414
F158	F	0.922852	-0.027841	0.727414
F159	F	0.933095	-0.233608	0.832363
F160	F	1.433095	0.266392	1.332363
F161	F	1.000304	-0.527691	0.650182
F162	F	1.500304	-0.027691	1.150182
F163	F	0.899133	-0.710028	0.308431
F164	F	1.399133	-0.210028	0.808431
H165	H	0.624033	-0.472626	0.298811
H166	H	1.124033	0.027374	0.798811
F167	F	0.932844	-0.233676	0.697284
F168	F	1.432844	0.266324	1.197284
F169	F	0.584356	-0.276325	0.175076
F170	F	1.084356	0.223675	0.675076
H171	H	1.053975	-0.472323	0.869062
H172	H	1.553975	0.027677	1.369062
F173	F	1.002662	-1.089427	0.204978
F174	F	1.502662	-0.589427	0.704978
F175	F	0.752952	-0.485281	0.306768
F176	F	1.252952	0.014719	0.806768
F177	F	0.930334	-0.671392	0.277053
F178	F	1.430334	-0.171392	0.777053
F179	F	0.719426	-0.276319	0.175062
F180	F	1.219426	0.223681	0.675062
F181	F	0.867167	-0.276247	1.027341
F182	F	1.367167	0.223753	1.527341
H183	H	0.505486	-0.251592	0.252836
H184	H	1.005486	0.248408	0.752836
F185	F	1.065991	-0.485052	0.590276
F186	F	1.565991	0.014948	1.090276
F187	F	1.033988	-1.050783	0.173722
F188	F	1.533988	-0.550783	0.673722
H189	H	0.386783	-0.251602	0.252825
H190	H	0.886783	0.248398	0.752825
F191	F	0.315794	-0.276352	0.175087
F192	F	0.815794	0.223648	0.675087
H193	H	1.091358	-0.955242	0.116371
H194	H	1.591358	-0.455242	0.616371
H195	H	1.053926	-0.472464	0.465402
H196	H	1.553926	0.027536	0.965402
F197	F	0.867119	-0.276412	0.488603
F198	F	1.367119	0.223588	0.988603
F199	F	1.123240	-0.841719	0.084501
F200	F	1.623240	-0.341719	0.584501
H201	H	0.879182	-0.288998	0.613478
H202	H	1.379182	0.211002	1.113478
H203	H	0.190934	-0.289017	0.183063
H204	H	0.690934	0.210983	0.683063
H205	H	0.845508	-1.079164	0.361891
H206	H	1.345508	-0.579164	0.861891
H207	H	1.087497	-0.681647	0.120136
H208	H	1.587497	-0.181647	0.620136
F209	F	0.214252	-0.485314	0.306808
F210	F	0.714252	0.014686	0.806808
F211	F	0.829948	-0.795265	0.377322
F212	F	1.329948	-0.295265	0.877322
H213	H	0.821434	-0.929414	0.385868
H214	H	1.321434	-0.429414	0.885868
H215	H	1.053982	-0.472295	0.987773
H216	H	1.553982	0.027705	1.487773
F217	F	1.000318	-0.527650	0.785262
F218	F	1.500318	-0.027650	1.285262
F219	F	0.349320	-0.485304	0.306798
F220	F	0.849320	0.014696	0.806798
F221	F	0.867168	-0.276277	0.892262
F222	F	1.367168	0.223723	1.392262
