data_functionalizedCrystal
_audit_creation_method	'MofGen! by Chris Wilmer'
_symmetry_space_group_name_H-M	'P1'
_symmetry_Int_Tables_number	1
_symmetry_cell_setting	triclinic
loop_
_symmetry_equiv_pos_as_xyz
  x,y,z
_cell_length_a	15.297475
_cell_length_b	29.839131
_cell_length_c	15.298259
_cell_angle_alpha	80.280107
_cell_angle_beta	88.370891
_cell_angle_gamma	80.343089
loop_
_atom_site_label
_atom_site_type_symbol
_atom_site_fract_x
_atom_site_fract_y
_atom_site_fract_z
Zn1	Zn	1.253365	-0.224385	-0.726610
Zn2	Zn	1.278551	-0.314322	-0.580088
Zn3	Zn	1.132216	-0.228754	-0.554833
Zn4	Zn	1.106810	-0.289027	-0.701235
O5	O	1.192735	-0.264122	-0.640691
O6	O	1.379282	-0.245072	-0.728363
O7	O	1.280311	-0.315386	-0.454148
O8	O	1.148379	-0.165311	-0.577670
O9	O	1.397785	-0.311149	-0.620713
O10	O	1.237387	-0.162101	-0.703874
O11	O	1.172800	-0.252519	-0.435593
O12	O	1.006270	-0.227992	-0.553065
O13	O	1.105079	-0.268037	-0.827191
O14	O	0.987605	-0.272274	-0.660625
O15	O	1.212752	-0.220545	-0.845834
O16	O	1.255677	-0.373830	-0.596107
O17	O	1.129500	-0.355246	-0.685114
C18	C	0.965155	-0.247862	-0.601351
C19	C	0.867791	-0.240915	-0.584542
C20	C	1.192585	-0.380838	-0.640621
C21	C	1.192595	-0.430772	-0.640634
C22	C	0.554625	-0.313777	-0.760831
C23	C	0.646103	-0.320308	-0.776621
C24	C	0.701530	-0.300460	-0.728603
C25	C	0.665469	-0.274081	-0.664791
C26	C	0.573982	-0.267552	-0.648994
C27	C	0.720887	-0.254236	-0.616767
C28	C	0.684826	-0.227856	-0.552955
C29	C	0.593348	-0.221329	-0.537162
C30	C	0.537922	-0.241176	-0.585179
C31	C	0.812374	-0.260764	-0.632564
C32	C	0.831731	-0.214539	-0.520728
C33	C	0.740253	-0.208009	-0.504937
C34	C	1.258524	-0.750085	-0.594445
C35	C	1.258626	-0.937763	-0.594498
O36	O	1.314560	-0.970244	-0.555172
N37	N	1.192906	-0.951570	-0.640789
C38	C	1.127159	-0.918455	-0.687075
O39	O	1.071267	-0.934505	-0.726457
C40	C	1.127061	-0.730778	-0.687027
C41	C	1.192780	-0.716974	-0.640725
C42	C	1.324238	-0.736280	-0.548149
C43	C	1.324209	-0.689364	-0.548132
C44	C	1.258466	-0.656252	-0.594412
C45	C	1.192751	-0.670057	-0.640709
C46	C	1.061318	-0.697663	-0.733317
C47	C	1.061301	-0.650742	-0.733303
C48	C	1.127020	-0.636938	-0.687002
C49	C	1.126979	-0.590029	-0.686972
N50	N	1.192699	-0.576222	-0.640681
C51	C	1.258442	-0.609333	-0.594401
C52	C	1.127214	-1.016988	-0.687095
C53	C	1.127237	-1.063907	-0.687106
C54	C	1.258705	-1.083212	-0.594531
C55	C	1.258678	-1.036292	-0.594515
C56	C	1.192934	-1.003181	-0.640804
C57	C	1.258376	-0.510805	-0.594369
C58	C	1.258339	-0.463883	-0.594354
C59	C	1.126874	-0.444582	-0.686933
C60	C	1.126908	-0.491500	-0.686945
C61	C	1.192666	-0.524611	-0.640661
O62	O	1.071079	-0.557523	-0.726286
O63	O	1.314336	-0.593273	-0.555041
C64	C	1.258553	-0.797002	-0.594462
C65	C	1.192838	-0.810807	-0.640759
C66	C	1.127095	-0.777696	-0.687039
C67	C	1.192861	-0.857726	-0.640770
C68	C	1.258605	-0.890837	-0.594490
C69	C	1.324325	-0.877030	-0.548199
C70	C	1.324296	-0.830113	-0.548182
C71	C	1.061375	-0.791503	-0.733330
C72	C	1.061408	-0.838420	-0.733342
C73	C	1.127152	-0.871532	-0.687062
C74	C	1.421205	-0.280445	-0.680186
C75	C	1.518565	-0.287401	-0.697016
C76	C	1.153272	-0.240982	-0.869188
C77	C	1.136455	-0.231121	-0.966559
C78	C	1.192907	-0.146950	-0.640786
C79	C	1.192981	-0.097019	-0.640826
C80	C	1.312957	-0.334255	-1.279667
C81	C	1.328753	-0.343522	-1.188181
C82	C	1.280680	-0.315422	-1.132771
C83	C	1.216808	-0.278054	-1.168856
C84	C	1.201006	-0.268788	-1.260350
C85	C	1.168729	-0.249956	-1.113454
C86	C	1.104857	-0.212588	-1.149539
C87	C	1.089058	-0.203323	-1.241025
C88	C	1.137131	-0.231423	-1.296435
C89	C	1.184531	-0.259222	-1.021960
C90	C	1.072580	-0.193756	-1.002643
C91	C	1.056784	-0.184488	-1.094129
C92	C	1.232096	-0.287143	-0.413093
C93	C	1.249082	-0.296889	-0.315752
H94	H	0.841725	-0.282242	-0.684520
N95	N	0.888349	-0.194262	-0.471690
N96	N	0.934095	-0.166174	-0.511440
H97	H	0.974087	-0.151855	-0.476810
H98	H	1.311924	-0.537759	-0.556683
N99	N	1.391327	-0.675266	-0.500819
N100	N	1.370180	-0.652579	-0.439631
H101	H	1.417584	-0.642627	-0.406207
H102	H	1.311856	-0.452647	-0.556646
N103	N	0.682934	-0.347259	-0.841787
N104	N	0.673691	-0.388579	-0.834046
H105	H	0.699702	-0.407615	-0.880073
N106	N	1.023813	-0.165159	-1.277903
N107	N	0.959158	-0.171805	-1.319299
H108	H	0.913080	-0.144851	-1.345347
N109	N	1.391409	-0.770093	-0.500871
N110	N	1.450074	-0.757751	-0.459545
H111	H	1.497516	-0.781628	-0.426148
H112	H	1.293544	-0.322971	-1.058280
H113	H	0.776015	-0.305779	-0.741464
N114	N	1.325812	-1.022202	-0.547213
N115	N	1.384500	-1.051776	-0.505892
H116	H	1.431918	-1.041827	-0.472483
N117	N	1.325852	-1.117045	-0.547256
N118	N	1.325856	-1.158934	-0.547279
H119	H	1.373278	-1.182831	-0.513897
H120	H	1.352085	-0.357132	-1.324788
H121	H	1.124276	-0.223879	-1.370931
N122	N	1.060088	-1.077997	-0.734390
N123	N	1.001397	-1.048423	-0.775705
H124	H	0.953971	-1.058372	-0.809104
H125	H	1.380749	-0.373951	-1.158806
N126	N	0.991549	-0.146320	-1.131009
N127	N	0.977456	-0.138053	-1.212698
H128	H	0.931384	-0.111096	-1.238746
H129	H	1.033435	-0.170875	-0.957528
H130	H	0.509490	-0.329937	-0.799915
H131	H	0.463432	-0.235859	-0.572328
H132	H	0.563993	-0.199854	-0.485193
H133	H	0.710879	-0.186530	-0.452981
H134	H	1.007799	-0.708894	-0.771016
N135	N	1.060048	-0.983174	-0.734388
N136	N	1.001379	-0.995515	-0.775711
H137	H	0.953940	-0.971636	-0.809110
H138	H	1.073396	-0.502739	-0.724650
N139	N	0.994141	-0.616926	-0.780599
N140	N	0.935476	-0.629262	-0.821934
H141	H	0.888043	-0.605381	-0.855336
N142	N	1.059722	-0.410750	-0.734191
N143	N	1.059714	-0.368861	-0.734164
H144	H	1.012290	-0.344964	-0.767543
H145	H	1.377811	-0.818878	-0.510479
N146	N	1.391470	-0.910864	-0.500922
N147	N	1.391474	-0.952752	-0.500948
H148	H	1.438893	-0.976650	-0.467563
N149	N	0.994211	-0.757690	-0.780614
N150	N	0.935544	-0.770030	-0.821940
H151	H	0.888103	-0.746151	-0.855336
N152	N	1.249781	-0.297382	-0.985094
N153	N	1.263890	-0.305651	-0.903409
H154	H	1.309980	-0.332602	-0.877372
H155	H	1.007884	-0.849654	-0.771044
