data_functionalizedCrystal
_audit_creation_method	'MofGen! by Chris Wilmer'
_symmetry_space_group_name_H-M	'P1'
_symmetry_Int_Tables_number	1
_symmetry_cell_setting	triclinic
loop_
_symmetry_equiv_pos_as_xyz
  x,y,z
_cell_length_a	12.759400
_cell_length_b	12.759401
_cell_length_c	12.759393
_cell_angle_alpha	89.984618
_cell_angle_beta	89.969485
_cell_angle_gamma	90.018958
loop_
_atom_site_label
_atom_site_type_symbol
_atom_site_fract_x
_atom_site_fract_y
_atom_site_fract_z
Zn1	Zn	-0.418095	1.606243	-0.593927
Zn2	Zn	-0.593811	1.606141	-0.418247
Zn3	Zn	-0.418160	1.430549	-0.418272
Zn4	Zn	-0.593746	1.430534	-0.593894
O5	O	-0.505953	1.518367	-0.506085
O6	O	-0.441405	1.753251	-0.570626
O7	O	-0.570565	1.582812	-0.271229
O8	O	-0.271130	1.453904	-0.441597
O9	O	-0.570502	1.753176	-0.441554
O10	O	-0.271083	1.582986	-0.570650
O11	O	-0.441515	1.453805	-0.271248
O12	O	-0.441451	1.283526	-0.441566
O13	O	-0.570391	1.453879	-0.740920
O14	O	-0.570454	1.283515	-0.570595
O15	O	-0.441342	1.582972	-0.740944
O16	O	-0.740824	1.582798	-0.441523
O17	O	-0.740776	1.453780	-0.570570
C18	C	-0.778921	1.518305	-0.506063
C19	C	-0.895697	1.518374	-0.506089
C20	C	-0.505953	1.245400	-0.506080
C21	C	-0.505979	1.128623	-0.506103
C22	C	-0.505852	1.518435	-0.780119
C23	C	-0.505809	1.518464	-0.896895
C24	C	-0.950549	1.585628	-0.438968
C25	C	-1.060273	1.585693	-0.439001
C26	C	-1.060283	1.451240	-0.573277
C27	C	-0.950561	1.451181	-0.573249
C28	C	-0.895685	1.652821	-0.371808
C29	C	-0.950537	1.720080	-0.304681
C30	C	-1.060261	1.720144	-0.304713
C31	C	-1.115133	1.652950	-0.371873
C32	C	-0.231920	1.518458	-0.506130
C33	C	-0.115143	1.518497	-0.506149
C34	C	-0.505954	1.792400	-0.506091
C35	C	-0.505954	1.909177	-0.506093
C36	C	-0.438744	1.964079	-0.573293
C37	C	-0.438759	2.073804	-0.573300
C38	C	-0.573196	2.073713	-0.438900
C39	C	-0.573186	1.963991	-0.438899
C40	C	-0.401187	2.223801	-0.697214
C41	C	-0.333960	2.278707	-0.764404
C42	C	-0.231436	2.243144	-0.780549
C43	C	-0.196118	2.152676	-0.729488
C44	C	-0.263339	2.097775	-0.662290
C45	C	-0.365877	2.133337	-0.646165
C46	C	-0.610747	1.813991	-0.314984
C47	C	-0.677963	1.759089	-0.247780
C48	C	-0.780489	1.794650	-0.231624
C49	C	-0.815804	1.885121	-0.282667
C50	C	-0.748588	1.940024	-0.349871
C51	C	-0.646063	1.904455	-0.366028
C52	C	-0.572974	1.451268	-0.951747
C53	C	-0.572935	1.451305	-1.061471
C54	C	-0.438557	1.585738	-1.061483
C55	C	-0.438602	1.585705	-0.951760
C56	C	-0.696778	1.413769	-1.211407
C57	C	-0.763933	1.346556	-1.266262
C58	C	-0.780076	1.244026	-1.230652
C59	C	-0.729048	1.208686	-1.140190
C60	C	-0.661885	1.275893	-1.085340
C61	C	-0.645762	1.378439	-1.120948
C62	C	-0.314758	1.623231	-0.801822
C63	C	-0.247588	1.690433	-0.746971
C64	C	-0.231435	1.792965	-0.782578
C65	C	-0.282444	1.828301	-0.873045
C66	C	-0.349614	1.761098	-0.927896
C67	C	-0.365769	1.658567	-0.892281
C68	C	-0.505978	1.518360	-0.233118
C69	C	-0.505725	1.518534	-0.116342
H70	H	-0.905855	1.774793	-0.250008
C71	C	-0.365892	1.904621	-0.646429
C72	C	-0.388755	1.931308	-0.750375
C73	C	-0.321677	1.876549	-0.817782
H74	H	-0.295270	1.922584	-0.631207
H75	H	-0.375518	1.831400	-0.636876
H76	H	-0.379121	2.004512	-0.759924
H77	H	-0.459365	1.913343	-0.765630
H78	H	-0.331303	1.803328	-0.808229
H79	H	-0.251059	1.894516	-0.802551
H80	H	-0.337187	1.894641	-0.888318
C81	C	-1.119627	1.793207	-0.231725
C82	C	-1.048090	1.852016	-0.172889
C83	C	-1.102737	1.919321	-0.105625
H84	H	-1.162360	1.839082	-0.271843
H85	H	-1.162480	1.753087	-0.185872
H86	H	-1.005255	1.892133	-0.218736
H87	H	-1.005355	1.806169	-0.132749
H88	H	-1.145590	1.879201	-0.059773
H89	H	-1.145468	1.965189	-0.145752
H90	H	-1.054208	1.959224	-0.065691
H91	H	-0.620336	1.247120	-1.011690
C92	C	-0.158274	2.302635	-0.853422
C93	C	-0.060915	2.252144	-0.856614
C94	C	0.006506	2.306926	-0.923727
H95	H	-0.187472	2.304518	-0.921863
H96	H	-0.149368	2.372165	-0.828328
H97	H	-0.069822	2.182632	-0.881713
H98	H	-0.031686	2.250260	-0.788191
H99	H	0.015411	2.376456	-0.898633
H100	H	-0.022702	2.308806	-0.992163
H101	H	0.072574	2.272681	-0.925894
C102	C	-0.646064	2.133417	-0.365981
C103	C	-0.631668	2.241259	-0.380341
C104	C	-0.698765	2.296288	-0.313172
H105	H	-0.716691	2.115538	-0.381278
H106	H	-0.630702	2.115482	-0.295370
H107	H	-0.647038	2.259187	-0.450936
H108	H	-0.561055	2.259169	-0.365037
H109	H	-0.683402	2.278353	-0.242561
H110	H	-0.769388	2.278401	-0.328474
H111	H	-0.689000	2.369464	-0.322899
C112	C	-0.404806	1.799540	-1.026197
C113	C	-0.330002	1.829333	-1.100806
C114	C	-0.380802	1.864758	-1.191369
H115	H	-0.447113	1.744909	-1.053896
H116	H	-0.447691	1.858010	-1.009318
H117	H	-0.287134	1.770870	-1.117685
H118	H	-0.287691	1.883973	-1.073141
H119	H	-0.423688	1.923228	-1.174491
H120	H	-0.423108	1.810122	-1.219059
H121	H	-0.330056	1.884986	-1.241999
C122	C	-0.372223	2.376842	-0.820045
C123	C	-0.365777	2.362123	-0.928594
C124	C	-0.400997	2.452507	-0.979881
H125	H	-0.442925	2.390241	-0.800949
H126	H	-0.329767	2.434742	-0.800309
H127	H	-0.408233	2.304241	-0.948322
H128	H	-0.295085	2.348738	-0.947720
H129	H	-0.358541	2.510406	-0.960145
H130	H	-0.471697	2.465898	-0.960777
H131	H	-0.396619	2.442536	-1.053536
C132	C	-0.891128	1.378231	-0.646295
C133	C	-0.917736	1.401056	-0.750268
C134	C	-0.863014	1.333873	-0.817593
H135	H	-0.817910	1.387762	-0.636802
H136	H	-0.909196	1.307636	-0.630939
H137	H	-0.899661	1.471634	-0.765619
H138	H	-0.990945	1.391518	-0.759794
H139	H	-0.881082	1.263278	-0.802236
H140	H	-0.789799	1.343410	-0.808090
H141	H	-0.881067	1.349344	-0.888144
H142	H	-0.683651	1.497261	-1.240402
C143	C	-1.119721	1.378114	-0.646122
C144	C	-1.093118	1.274164	-0.623172
C145	C	-1.147839	1.206768	-0.690263
H146	H	-1.192940	1.387636	-0.636592
H147	H	-1.101649	1.393378	-0.716739
H148	H	-1.111197	1.258904	-0.552572
H149	H	-1.019909	1.264608	-0.632709
H150	H	-1.129767	1.222033	-0.760880
H151	H	-1.221054	1.216300	-0.680727
H152	H	-1.129789	1.136232	-0.674707
C153	C	-0.192055	1.652022	-0.648851
C154	C	-0.083486	1.658344	-0.663557
C155	C	-0.032318	1.622941	-0.573193
H156	H	-0.211770	1.694407	-0.590917
H157	H	-0.211265	1.581317	-0.635523
H158	H	-0.064283	1.729038	-0.676872
H159	H	-0.063739	1.615957	-0.721473
H160	H	-0.051529	1.552236	-0.559865
H161	H	-0.052042	1.665330	-0.515265
H162	H	0.041351	1.627217	-0.583162
C163	C	-0.225020	1.999442	-0.607052
C164	C	-0.195268	1.924855	-0.681824
C165	C	-0.159976	1.834247	-0.630986
H166	H	-0.166561	2.016232	-0.564151
H167	H	-0.279734	1.971770	-0.564757
H168	H	-0.140559	1.952522	-0.724102
H169	H	-0.253710	1.908034	-0.724729
H170	H	-0.214690	1.806575	-0.588690
H171	H	-0.101521	1.851048	-0.588086
H172	H	-0.139795	1.783625	-0.681710
C173	C	-0.084741	2.114139	-0.746805
C174	C	-0.031343	2.112716	-0.650980
C175	C	0.071263	2.077230	-0.666897
H176	H	-0.086385	2.045392	-0.775307
H177	H	-0.049709	2.159799	-0.794094
H178	H	-0.066366	2.067057	-0.603709
H179	H	-0.029670	2.181451	-0.622463
H180	H	0.106295	2.122889	-0.714186
H181	H	0.069608	2.008485	-0.695401
H182	H	0.107509	2.076268	-0.601885
C183	C	-1.234263	1.653247	-0.371920
C184	C	-1.270452	1.753285	-0.398791
C185	C	-1.380185	1.753599	-0.398830
H186	H	-1.259219	1.603675	-0.421521
H187	H	-1.259197	1.635188	-0.304103
H188	H	-1.245529	1.771331	-0.466599
H189	H	-1.245525	1.802874	-0.349199
H190	H	-1.405119	1.735540	-0.331013
H191	H	-1.405131	1.704023	-0.448431
H192	H	-1.404754	1.821475	-0.417052
C193	C	-0.264817	1.939678	-0.911515
C194	C	-0.195100	1.990977	-0.844100
C195	C	-0.178843	2.093583	-0.879496
H196	H	-0.236179	1.938042	-0.980227
H197	H	-0.329726	1.976126	-0.912524
H198	H	-0.130205	1.954538	-0.843102
H199	H	-0.223719	1.992642	-0.775385
H200	H	-0.243751	2.130032	-0.880506
H201	H	-0.150208	2.091936	-0.948209
H202	H	-0.131547	2.128405	-0.833756
H203	H	-0.806342	1.652773	-0.371771
C204	C	-0.853326	1.734868	-0.158657
C205	C	-0.800467	1.648015	-0.117420
C206	C	-0.867537	1.592916	-0.050216
H207	H	-0.874932	1.779437	-0.103084
H208	H	-0.913071	1.711819	-0.196624
H209	H	-0.740742	1.671065	-0.079453
H210	H	-0.778864	1.603421	-0.172968
H211	H	-0.927282	1.569867	-0.088184
H212	H	-0.889139	1.637494	0.005351
H213	H	-0.831686	1.533975	-0.022236
H214	H	-0.484673	2.252759	-0.684084
H215	H	-0.777349	2.013692	-0.391431
C216	C	-0.645778	1.378145	-0.892128
C217	C	-0.586325	1.310780	-0.829165
C218	C	-0.653362	1.243396	-0.774247
H219	H	-0.691595	1.418184	-0.849235
H220	H	-0.685753	1.338075	-0.940487
H221	H	-0.546367	1.350845	-0.780812
H222	H	-0.540511	1.270717	-0.872033
H223	H	-0.693338	1.203327	-0.822605
H224	H	-0.699176	1.283444	-0.731359
H225	H	-0.613034	1.197675	-0.731528
H226	H	-0.899287	1.914079	-0.269509
C227	C	-0.746716	1.097327	-1.101693
C228	C	-0.816463	1.046037	-1.169083
C229	C	-0.832763	0.943450	-1.133651
H230	H	-0.681851	1.060829	-1.100671
H231	H	-0.775348	1.099030	-1.032965
H232	H	-0.787828	1.044328	-1.237793
H233	H	-0.881341	1.082503	-1.170113
H234	H	-0.861395	0.945153	-1.064923
H235	H	-0.767893	0.906962	-1.132630
H236	H	-0.880095	0.908640	-1.179364
H237	H	-0.834756	1.189300	-1.275324
C238	C	-0.819203	1.384799	-1.364598
C239	C	-0.789774	1.322118	-1.449715
C240	C	-0.840652	1.357316	-1.540321
H241	H	-0.892899	1.380516	-1.354916
H242	H	-0.799964	1.455479	-1.378014
H243	H	-0.809019	1.251455	-1.436300
H244	H	-0.716085	1.326393	-1.459429
H245	H	-0.821413	1.427997	-1.553738
H246	H	-0.914346	1.353033	-1.530629
H247	H	-0.820684	1.314799	-1.598086
H248	H	-0.383838	1.640481	-1.106167
H249	H	-0.176727	1.847676	-0.737916
H250	H	-0.649332	1.685191	-0.206539
H251	H	-0.527263	1.785026	-0.328136
H252	H	-0.327910	1.539741	-0.772818
