data_functionalizedCrystal
_audit_creation_method	'MofGen! by Chris Wilmer'
_symmetry_space_group_name_H-M	'P1'
_symmetry_Int_Tables_number	1
_symmetry_cell_setting	triclinic
loop_
_symmetry_equiv_pos_as_xyz
  x,y,z
_cell_length_a	10.540535
_cell_length_b	10.540510
_cell_length_c	16.053802
_cell_angle_alpha	92.593693
_cell_angle_beta	87.395281
_cell_angle_gamma	84.518476
loop_
_atom_site_label
_atom_site_type_symbol
_atom_site_fract_x
_atom_site_fract_y
_atom_site_fract_z
O1	O	1.691175	0.173583	-0.069379
O2	O	1.321761	0.190444	-0.069390
O3	O	1.514916	-0.002696	-0.069384
O4	O	1.498020	0.366722	-0.069385
O5	O	1.504283	0.007891	0.069475
O6	O	1.311128	0.201031	0.069469
O7	O	1.680543	0.184170	0.069480
Zn8	Zn	1.494148	0.194281	0.091521
Zn9	Zn	1.508156	0.180333	-0.091431
O10	O	1.487388	0.377309	0.069474
C11	C	1.269142	0.194474	0.000038
C12	C	1.128194	0.190694	0.000034
C13	C	1.091538	0.049678	0.000037
C14	C	0.944913	0.045726	0.000361
C15	C	0.912791	0.261100	0.079184
C16	C	1.059551	0.264105	0.079242
C17	C	1.071526	0.254117	-0.078671
C18	C	0.925260	0.247517	-0.079703
C19	C	1.508341	-0.044706	0.000044
C20	C	1.504574	-0.185656	0.000039
C21	C	1.638734	-0.403089	0.000361
C22	C	1.642776	-0.256518	0.000044
C23	C	1.439899	-0.236459	-0.079257
C24	C	1.436865	-0.383225	-0.079319
C25	C	1.421896	-0.370994	0.078589
C26	C	1.428371	-0.224574	0.079633
C27	C	1.733162	0.180140	0.000050
C28	C	1.874110	0.183919	0.000049
C29	C	1.493963	0.419319	0.000044
C30	C	1.497730	0.560269	0.000044
N31	N	1.484597	0.203800	0.216381
N32	N	1.517717	0.170804	-0.216291
C33	C	1.566815	0.121648	0.260078
C34	C	1.560146	0.128319	0.347484
C35	C	1.471263	0.217148	0.391193
C36	C	1.389037	0.299303	0.347490
C37	C	1.395700	0.292626	0.260085
C38	C	1.442154	0.246281	0.652601
C39	C	1.435499	0.252955	0.740012
C40	C	1.606607	0.081969	0.740001
C41	C	1.613268	0.075304	0.652594
C42	C	1.531037	0.157454	0.608899
N43	N	1.464447	0.223972	0.480536
N44	N	1.537848	0.150624	0.519557
H45	H	1.130663	0.000754	0.056703
H46	H	0.901146	0.191277	-0.138248
C47	C	0.859537	0.383296	-0.086477
N48	N	0.810037	0.485573	-0.091572
H49	H	1.327106	-0.175140	0.084418
H50	H	1.118584	0.205540	-0.138674
C51	C	1.281668	-0.400880	0.079316
N52	N	1.176054	-0.423404	0.079859
C53	C	1.101575	0.394198	-0.079712
N54	N	1.124216	0.499703	-0.080490
H55	H	1.137857	-0.008799	-0.056704
H56	H	1.693778	-0.222841	0.056885
C57	C	1.705598	-0.453921	0.077183
N58	N	1.755961	-0.492217	0.135048
H59	H	1.627093	0.061424	0.383062
H60	H	0.877367	0.216794	0.138304
C61	C	1.305264	0.383009	0.212019
N62	N	1.237144	0.451090	0.175817
C63	C	1.474697	-0.422134	0.159786
N64	N	1.514483	-0.460654	0.220940
C65	C	1.723876	-0.224003	-0.076879
N66	N	1.784960	-0.199514	-0.134821
C67	C	1.508331	-0.443665	-0.159385
N68	N	1.562168	-0.489183	-0.219691
H69	H	1.333773	-0.406492	-0.082915
C70	C	0.900571	-0.023173	0.077461
N71	N	0.867172	-0.075059	0.135540
C72	C	1.107690	0.205301	0.159461
N73	N	1.143942	0.161003	0.219883
H74	H	1.696595	-0.450907	-0.056181
H75	H	0.865215	0.363074	0.081903
H76	H	1.685643	0.002972	0.617008
H77	H	1.082312	0.367738	0.082623
C78	C	1.302759	-0.172733	-0.083252
N79	N	1.199465	-0.124729	-0.086260
C80	C	1.697045	-0.008401	0.788072
N81	N	1.765162	-0.076475	0.824280
C82	C	1.351862	0.336816	0.604548
N83	N	1.283909	0.405071	0.568352
H84	H	1.639197	0.049320	0.224496
H85	H	1.493549	-0.210102	-0.138265
H86	H	1.475357	-0.191490	0.138295
H87	H	1.363116	0.325296	0.775596
H88	H	0.919924	-0.014240	-0.056355
C89	C	1.291253	0.397005	0.395572
N90	N	1.217600	0.470595	0.431787
