data_functionalizedCrystal
_audit_creation_method	'MofGen! by Chris Wilmer'
_symmetry_space_group_name_H-M	'P1'
_symmetry_Int_Tables_number	1
_symmetry_cell_setting	triclinic
loop_
_symmetry_equiv_pos_as_xyz
  x,y,z
_cell_length_a	25.639239
_cell_length_b	12.759401
_cell_length_c	12.759393
_cell_angle_alpha	90.019559
_cell_angle_beta	89.962948
_cell_angle_gamma	89.963164
loop_
_atom_site_label
_atom_site_type_symbol
_atom_site_fract_x
_atom_site_fract_y
_atom_site_fract_z
Zn1	Zn	-0.208146	-1.606080	-0.593971
Zn2	Zn	-0.295593	-1.605901	-0.418274
Zn3	Zn	-0.208170	-1.430382	-0.418307
Zn4	Zn	-0.295549	-1.430297	-0.593912
O5	O	-0.251864	-1.518165	-0.506116
O6	O	-0.219754	-1.753077	-0.570675
O7	O	-0.284024	-1.582579	-0.271257
O8	O	-0.135002	-1.453799	-0.441648
O9	O	-0.284000	-1.752946	-0.441592
O10	O	-0.134984	-1.582884	-0.570707
O11	O	-0.219795	-1.453626	-0.271282
O12	O	-0.219753	-1.283350	-0.441591
O13	O	-0.283927	-1.453655	-0.740941
O14	O	-0.283950	-1.283288	-0.570607
O15	O	-0.219712	-1.582802	-0.740984
O16	O	-0.368752	-1.582496	-0.441535
O17	O	-0.368720	-1.453481	-0.570575
C18	C	-0.251850	-1.245198	-0.506097
C19	C	-0.251856	-1.128421	-0.506114
C20	C	-0.285336	-1.073554	-0.573180
C21	C	-0.285341	-0.963830	-0.573190
C22	C	-0.218384	-0.963850	-0.439057
C23	C	-0.218377	-1.073572	-0.439053
C24	C	-0.323995	-1.073542	-0.650618
C25	C	-0.324000	-0.963818	-0.650627
C26	C	-0.387707	-1.517989	-0.506068
C27	C	-0.445821	-1.518009	-0.506083
C28	C	-0.806188	-1.585519	-0.439039
C29	C	-0.860792	-1.585559	-0.439053
O30	O	-0.889032	-1.642775	-0.381998
N31	N	-0.888103	-1.518350	-0.506186
C32	C	-0.860807	-1.451103	-0.573316
O33	O	-0.889052	-1.393940	-0.630420
C34	C	-0.806204	-1.451068	-0.573307
C35	C	-0.778896	-1.518275	-0.506162
C36	C	-0.778880	-1.652721	-0.371901
C37	C	-0.724279	-1.652678	-0.371886
C38	C	-0.696987	-1.585434	-0.439009
C39	C	-0.724295	-1.518232	-0.506147
C40	C	-0.778909	-1.383827	-0.640442
C41	C	-0.724302	-1.383799	-0.640427
C42	C	-0.696994	-1.451005	-0.573282
C43	C	-0.642403	-1.450946	-0.573255
N44	N	-0.615091	-1.518155	-0.506122
C45	C	-0.642384	-1.585399	-0.438999
C46	C	-0.975478	-1.451182	-0.573332
C47	C	-1.030080	-1.451210	-0.573337
C48	C	-1.030061	-1.585669	-0.439076
C49	C	-0.975458	-1.585634	-0.439066
C50	C	-0.948167	-1.518391	-0.506200
C51	C	-0.527719	-1.585305	-0.438972
C52	C	-0.473113	-1.585253	-0.438960
C53	C	-0.473137	-1.450799	-0.573225
C54	C	-0.527737	-1.450846	-0.573234
C55	C	-0.555027	-1.518108	-0.506104
O56	O	-0.614128	-1.393762	-0.630284
O57	O	-0.614133	-1.642562	-0.381915
C58	C	-0.115491	-1.518371	-0.506187
C59	C	-0.057377	-1.518459	-0.506218
C60	C	-0.251812	-1.518239	-0.780150
C61	C	-0.251789	-1.518270	-0.896926
C62	C	-0.251875	-0.792198	-0.506132
C63	C	-0.251868	-0.908975	-0.506126
C64	C	-0.218349	-1.585526	-0.951813
C65	C	-0.218330	-1.585551	-1.061537
C66	C	-0.285196	-1.451061	-1.061479
C67	C	-0.285212	-1.451032	-0.951757
C68	C	-0.179747	-1.663176	-0.951847
C69	C	-0.179728	-1.663201	-1.061571
C70	C	-0.251879	-1.518152	-0.233149
C71	C	-0.251754	-1.518325	-0.116373
H72	H	-0.313197	-1.103359	-0.732027
F73	F	-0.198719	-1.764160	-0.907352
H74	H	-0.190574	-1.744563	-1.091349
F75	F	-0.129464	-1.625072	-1.106089
H76	H	-0.139255	-1.641442	-0.922098
F77	F	-0.946437	-1.379601	-0.644783
H78	H	-0.191127	-0.919178	-0.384459
F79	F	-1.059117	-1.657235	-0.367635
F80	F	-0.376909	-0.924823	-0.621922
H81	H	-0.191111	-1.118241	-0.384448
H82	H	-0.309545	-0.929832	-0.727981
F83	F	-0.695260	-1.312230	-0.711884
F84	F	-0.444053	-1.656786	-0.367492
H85	H	-0.362440	-1.107524	-0.621327
H86	H	-0.801134	-1.329095	-0.695113
H87	H	-0.450907	-1.396046	-0.627873
F88	F	-0.556754	-1.656891	-0.367524
F89	F	-0.556802	-1.379299	-0.644676
F90	F	-0.320764	-1.379505	-1.119842
H91	H	-0.702048	-1.707407	-0.317214
H92	H	-0.801095	-1.707485	-0.317241
H93	H	-0.312440	-1.396262	-0.907073
H94	H	-1.052310	-1.396474	-0.628003
F95	F	-0.946400	-1.657164	-0.367603
