data_functionalizedCrystal
_audit_creation_method	'MofGen! by Chris Wilmer'
_symmetry_space_group_name_H-M	'P1'
_symmetry_Int_Tables_number	1
_symmetry_cell_setting	triclinic
loop_
_symmetry_equiv_pos_as_xyz
  x,y,z
_cell_length_a	9.616153
_cell_length_b	14.519709
_cell_length_c	14.519709
_cell_angle_alpha	96.319855
_cell_angle_beta	90.000970
_cell_angle_gamma	90.002330
loop_
_atom_site_label
_atom_site_type_symbol
_atom_site_fract_x
_atom_site_fract_y
_atom_site_fract_z
O1	O	0.115468	-1.223867	0.120885
O2	O	0.448801	-0.890533	0.454218
O3	O	0.782134	-0.557200	0.787552
O4	O	0.115510	-0.955390	0.135122
O5	O	0.448844	-0.622056	0.468455
O6	O	0.782177	-0.288723	0.801788
O7	O	0.115475	-1.096746	-0.006235
O8	O	0.448809	-0.763413	0.327098
O9	O	0.782142	-0.430080	0.660431
O10	O	0.115503	-1.082510	0.262242
O11	O	0.448836	-0.749176	0.595575
O12	O	0.782169	-0.415843	0.928908
O13	O	-0.115816	-1.096736	-0.006227
O14	O	0.217517	-0.763403	0.327106
O15	O	0.550851	-0.430069	0.660440
O16	O	-0.115781	-0.955379	0.135130
O17	O	0.217552	-0.622046	0.468463
O18	O	0.550886	-0.288713	0.801796
O19	O	-0.115824	-1.223856	0.120893
O20	O	0.217509	-0.890523	0.454226
O21	O	0.550843	-0.557190	0.787560
Zn22	Zn	-0.152525	-1.089616	0.128013
Zn23	Zn	0.180808	-0.756283	0.461346
Zn24	Zn	0.514142	-0.422949	0.794679
Zn25	Zn	0.152212	-1.089630	0.128002
Zn26	Zn	0.485545	-0.756296	0.461335
Zn27	Zn	0.818878	-0.422963	0.794669
O28	O	-0.115789	-1.082499	0.262250
O29	O	0.217545	-0.749166	0.595583
O30	O	0.550878	-0.415833	0.928916
C31	C	-0.000130	-0.921025	0.134462
C32	C	0.333203	-0.587691	0.467795
C33	C	0.666537	-0.254358	0.801129
C34	C	-0.000114	-0.818643	0.132474
C35	C	0.333219	-0.485310	0.465807
C36	C	0.666553	-0.151977	0.799141
C37	C	-0.000170	-1.096078	-0.040591
C38	C	0.333163	-0.762744	0.292742
C39	C	0.666496	-0.429411	0.626076
C40	C	-0.000171	-1.094090	-0.142972
C41	C	0.333162	-0.760756	0.190361
C42	C	0.666496	-0.427423	0.523694
N43	N	-0.360499	-1.089614	0.128019
N44	N	-0.027166	-0.756280	0.461353
N45	N	0.306167	-0.422947	0.794686
C46	C	-0.419522	-1.013964	0.203624
C47	C	-0.086189	-0.680631	0.536957
C48	C	0.247144	-0.347298	0.870291
C49	C	-0.580690	-1.013710	0.203410
C50	C	-0.247356	-0.680377	0.536743
C51	C	0.085977	-0.347044	0.870077
C52	C	-0.581290	-1.068857	0.031613
C53	C	-0.247956	-0.735524	0.364946
C54	C	0.085377	-0.402191	0.698279
C55	C	-0.420072	-1.068299	0.032074
C56	C	-0.086739	-0.734966	0.365407
C57	C	0.246594	-0.401632	0.698741
C58	C	-0.419898	-1.186279	0.147918
C59	C	-0.086565	-0.852945	0.481252
C60	C	0.246769	-0.519612	0.814585
C61	C	-0.581127	-1.185649	0.150085
C62	C	-0.247793	-0.852316	0.483419
C63	C	0.085540	-0.518983	0.816752
N64	N	0.360186	-1.089640	0.127988
N65	N	0.693519	-0.756306	0.461321
N66	N	1.026853	-0.422973	0.794655
C67	C	-0.000180	-1.258221	0.121553
C68	C	0.333153	-0.924888	0.454886
C69	C	0.666486	-0.591554	0.788219
C70	C	-0.000187	-1.360602	0.123541
C71	C	0.333146	-1.027269	0.456874
C72	C	0.666479	-0.693936	0.790207
C73	C	-0.000178	-0.443748	0.125154
C74	C	0.333155	-0.110414	0.458488
C75	C	0.666489	0.222919	0.791821
C76	C	-0.000160	-0.548056	0.127187
C77	C	0.333174	-0.214722	0.460520
C78	C	0.666507	0.118611	0.793854
C79	C	-0.000145	-0.631192	0.128814
C80	C	0.333189	-0.297859	0.462147
C81	C	0.666522	0.035474	0.795481
C82	C	-0.000129	-0.735507	0.130847
C83	C	0.333204	-0.402173	0.464180
C84	C	0.666538	-0.068840	0.797514
C85	C	-0.000134	-1.086770	-0.517868
C86	C	0.333200	-0.753437	-0.184535
C87	C	0.666533	-0.420103	0.148799
C88	C	-0.000144	-1.088803	-0.413560
C89	C	0.333189	-0.755469	-0.080227
C90	C	0.666522	-0.422136	0.253107
C91	C	-0.000154	-1.090430	-0.330423
C92	C	0.333180	-0.757096	0.002910
C93	C	0.666513	-0.423763	0.336243
C94	C	-0.000162	-1.092463	-0.226109
C95	C	0.333172	-0.759129	0.107224
C96	C	0.666505	-0.425796	0.440558
C97	C	-0.000140	-1.083168	0.296606
C98	C	0.333194	-0.749835	0.629939
C99	C	0.666527	-0.416501	0.963272
C100	C	-0.000130	-1.085156	0.398987
C101	C	0.333203	-0.751823	0.732320
C102	C	0.666536	-0.418490	1.065653
H103	H	-0.620261	-1.026054	0.275032
H104	H	-0.286928	-0.692721	0.608365
H105	H	0.046406	-0.359388	0.941699
Br106	Br	-0.648606	-0.952730	0.001812
Br107	Br	-0.315273	-0.619396	0.335145
Br108	Br	0.018060	-0.286063	0.668479
H109	H	-0.379027	-0.942630	0.191034
H110	H	-0.045694	-0.609297	0.524368
H111	H	0.287640	-0.275963	0.857701
Br112	Br	-0.357416	-0.950811	0.002988
Br113	Br	-0.024083	-0.617477	0.336322
Br114	Br	0.309251	-0.284144	0.669655
Br115	Br	-0.645013	-0.894157	0.182113
Br116	Br	-0.311680	-0.560823	0.515446
Br117	Br	0.021653	-0.227490	0.848780
Br118	Br	-0.645107	-1.158281	-0.064474
Br119	Br	-0.311774	-0.824947	0.268859
Br120	Br	0.021559	-0.491614	0.602192
H121	H	-0.381025	-1.121315	-0.025905
H122	H	-0.047691	-0.787982	0.307428
H123	H	0.285642	-0.454649	0.640762
H124	H	-0.379247	-1.206295	0.216732
H125	H	-0.045914	-0.872961	0.550065
H126	H	0.287420	-0.539628	0.883398
Br127	Br	-0.354920	-1.034174	0.323417
Br128	Br	-0.021587	-0.700841	0.656750
Br129	Br	0.311746	-0.367507	0.990083
Br130	Br	-0.648204	-1.283869	0.064311
Br131	Br	-0.314870	-0.950536	0.397644
Br132	Br	0.018463	-0.617202	0.730977
Br133	Br	-0.644870	-1.211944	0.268260
Br134	Br	-0.311536	-0.878611	0.601594
Br135	Br	0.021797	-0.545278	0.934927
H136	H	-0.381718	-1.242573	0.092792
H137	H	-0.048385	-0.909240	0.426125
H138	H	0.284949	-0.575907	0.759458
