data_functionalizedCrystal
_audit_creation_method	'MofGen! by Chris Wilmer'
_symmetry_space_group_name_H-M	'P1'
_symmetry_Int_Tables_number	1
_symmetry_cell_setting	triclinic
loop_
_symmetry_equiv_pos_as_xyz
  x,y,z
_cell_length_a	14.908571
_cell_length_b	11.169416
_cell_length_c	11.169409
_cell_angle_alpha	90.030874
_cell_angle_beta	86.683711
_cell_angle_gamma	93.293179
loop_
_atom_site_label
_atom_site_type_symbol
_atom_site_fract_x
_atom_site_fract_y
_atom_site_fract_z
Zn1	Zn	1.379332	0.583746	-0.784366
Zn2	Zn	1.379249	0.784480	-0.583682
Zn3	Zn	1.228456	0.572217	-0.572126
Zn4	Zn	1.228462	0.772787	-0.772759
O5	O	1.303875	0.678307	-0.678233
O6	O	1.505568	0.620092	-0.767438
O7	O	1.359209	0.756391	-0.414196
O8	O	1.248503	0.405799	-0.600302
O9	O	1.505507	0.767570	-0.619996
O10	O	1.359351	0.414269	-0.756233
O11	O	1.248422	0.600443	-0.405706
O12	O	1.102210	0.589105	-0.589047
O13	O	1.248512	0.747642	-0.942252
O14	O	1.102214	0.736463	-0.736452
O15	O	1.359356	0.608754	-0.950779
O16	O	1.359214	0.950876	-0.608742
O17	O	1.248432	0.942286	-0.747656
C18	C	1.303839	0.990129	-0.678221
C19	C	1.303906	1.123535	-0.678263
C20	C	1.069478	0.660265	-0.660237
C21	C	0.969202	0.652576	-0.652566
C22	C	1.303944	0.678180	-0.991281
C23	C	1.303974	0.678125	-1.124684
C24	C	0.780825	0.791808	-0.791438
C25	C	0.686607	0.784587	-0.784235
C26	C	0.686545	0.630906	-0.630964
C27	C	0.780763	0.638128	-0.638167
C28	C	0.827900	0.718583	-0.718406
C29	C	0.922120	0.725809	-0.725602
C30	C	0.922057	0.572124	-0.572338
C31	C	0.827838	0.564902	-0.565135
C32	C	1.539187	0.696421	-0.696301
C33	C	1.639463	0.704140	-0.704000
C34	C	1.303935	0.365270	-0.678273
C35	C	1.303961	0.231872	-0.678290
C36	C	1.303858	0.678352	-0.366407
C37	C	1.304003	0.678082	-0.233019
H38	H	0.819204	0.857324	-0.856765
O39	O	0.968010	0.803797	-0.803611
C40	C	1.022525	0.739722	-0.885422
H41	H	1.036624	0.649807	-0.844311
H42	H	1.088785	0.793703	-0.906498
H43	H	0.986249	0.723843	-0.971609
H44	H	0.960395	0.512500	-0.512866
H45	H	0.648150	0.565397	-0.565646
H46	H	0.648282	0.844212	-0.843709
H47	H	0.789447	0.499395	-0.499810
