data_functionalizedCrystal
_audit_creation_method	'MofGen! by Chris Wilmer'
_symmetry_space_group_name_H-M	'P1'
_symmetry_Int_Tables_number	1
_symmetry_cell_setting	triclinic
loop_
_symmetry_equiv_pos_as_xyz
  x,y,z
_cell_length_a	15.995292
_cell_length_b	27.732048
_cell_length_c	15.072220
_cell_angle_alpha	89.993868
_cell_angle_beta	89.986330
_cell_angle_gamma	83.055635
loop_
_atom_site_label
_atom_site_type_symbol
_atom_site_fract_x
_atom_site_fract_y
_atom_site_fract_z
O1	O	1.110222	0.062168	-0.073816
O2	O	0.866340	0.069891	-0.073814
O3	O	0.995855	-0.004336	-0.073798
O4	O	0.980706	0.136394	-0.073832
O5	O	0.995823	-0.004332	0.073767
O6	O	0.866308	0.069895	0.073751
O7	O	1.110190	0.062172	0.073749
Zn8	Zn	0.988244	0.066034	0.097179
Zn9	Zn	0.988286	0.066029	-0.097244
O10	O	0.980675	0.136398	0.073733
C11	C	0.835133	0.069579	-0.000031
C12	C	0.742192	0.068636	-0.000029
C13	C	0.404498	0.065172	-0.000039
C14	C	0.427117	0.118746	-0.000381
C15	C	0.523780	0.119765	-0.000045
C16	C	0.572032	0.066891	-0.000034
C17	C	0.543258	0.040108	0.084236
C18	C	0.446476	0.039463	0.084303
C19	C	0.446671	0.038365	-0.083506
C20	C	0.543138	0.040350	-0.084616
C21	C	0.666715	0.067859	-0.000029
C22	C	0.309815	0.064201	-0.000038
C23	C	0.995521	-0.022342	-0.000013
C24	C	0.994564	-0.076001	-0.000006
C25	C	1.065071	-0.414520	-0.000052
C26	C	1.061518	-0.616195	-0.000065
O27	O	1.125992	-0.647180	-0.000104
N28	N	0.984721	-0.635641	-0.000063
C29	C	0.908806	-0.604664	-0.000064
O30	O	0.843404	-0.625831	-0.000072
C31	C	0.912360	-0.402991	-0.000058
C32	C	0.989162	-0.383548	-0.000051
C33	C	1.141867	-0.395077	-0.000046
C34	C	1.142754	-0.344662	-0.000038
C35	C	1.066845	-0.313689	-0.000036
C36	C	0.990049	-0.333132	-0.000043
C37	C	0.836446	-0.372015	-0.000066
C38	C	0.837342	-0.321594	-0.000067
C39	C	0.914144	-0.302151	-0.000059
C40	C	0.915028	-0.251744	-0.000033
N41	N	0.991825	-0.232298	-0.000035
C42	C	1.067734	-0.263271	-0.000036
C43	C	0.906946	-0.710546	-0.000066
C44	C	0.906057	-0.760964	-0.000066
C45	C	1.058770	-0.772492	-0.000068
C46	C	1.059657	-0.722072	-0.000061
C47	C	0.983743	-0.691100	-0.000067
C48	C	1.069592	-0.157394	-0.000019
C49	C	1.070473	-0.106973	-0.000007
C50	C	0.917761	-0.095450	-0.000010
C51	C	0.916880	-0.145867	-0.000017
C52	C	0.992802	-0.176838	-0.000025
O53	O	0.850589	-0.220730	-0.000004
O54	O	1.133127	-0.242094	-0.000048
C55	C	1.064183	-0.464936	-0.000060
C56	C	0.987387	-0.484379	-0.000067
C57	C	0.911479	-0.453407	-0.000065
C58	C	0.986499	-0.534797	-0.000067
C59	C	1.062407	-0.565770	-0.000068
C60	C	1.139205	-0.546324	-0.000070
C61	C	1.140092	-0.495909	-0.000062
C62	C	0.834682	-0.472852	-0.000064
C63	C	0.833800	-0.523269	-0.000071
C64	C	0.909709	-0.554241	-0.000072
C65	C	1.141397	0.062484	-0.000036
C66	C	1.234338	0.063426	-0.000044
C67	C	0.981008	0.154404	-0.000054
C68	C	0.981966	0.208063	-0.000067
N69	N	0.988221	0.066037	0.229868
N70	N	0.988315	0.066021	-0.229933
C71	C	0.988284	0.066027	0.589069
C72	C	0.918754	0.105611	0.551454
C73	C	0.918910	0.105755	0.448628
C74	C	0.988252	0.066032	0.410865
C75	C	1.075477	0.077037	0.448153
C76	C	1.075087	0.077318	0.551010
C77	C	0.971370	0.015320	0.551182
C78	C	0.969361	0.015659	0.448319
C79	C	0.988240	0.066034	0.310152
C80	C	0.988302	0.066026	0.689783
H81	H	0.541897	0.140870	0.060457
N82	N	0.888977	0.001308	0.585576
H83	H	0.879371	-0.031330	0.560442
H84	H	0.891018	-0.000653	0.652466
N85	N	1.094941	0.126305	0.582770
H86	H	1.094882	0.126978	0.649769
H87	H	1.152246	0.132226	0.560110
N88	N	0.569475	0.064743	0.167310
H89	H	0.632774	0.063882	0.168279
H90	H	0.542486	0.099600	0.168090
N91	N	1.142492	-0.701104	-0.000060
H92	H	1.146255	-0.680445	0.054644
H93	H	1.190392	-0.728406	-0.000091
H94	H	1.205294	-0.328836	-0.000035
H95	H	1.128408	0.049623	0.575891
H96	H	1.131415	-0.182605	-0.000029
H97	H	0.905201	0.007307	0.423950
H98	H	0.433188	-0.001070	-0.084068
H99	H	0.397820	0.139284	0.059704
H100	H	0.576609	0.001757	-0.089698
H101	H	0.854053	0.099200	0.423420
H102	H	0.418141	0.055108	-0.147377
H103	H	0.855958	-0.070224	-0.000006
H104	H	1.202632	-0.480083	-0.000056
H105	H	1.090857	0.113595	0.422374
H106	H	0.853686	0.099163	0.576218
H107	H	1.133017	-0.091146	0.000001
H108	H	0.929643	0.143384	0.424005
N109	N	0.753602	-0.392970	-0.000082
H110	H	0.749838	-0.413626	-0.054788
H111	H	0.749847	-0.413609	0.054653
H112	H	1.203684	-0.420291	-0.000050
N113	N	1.145619	0.039864	0.415760
H114	H	1.121471	0.015474	0.376506
H115	H	1.187555	0.056699	0.380865
H116	H	1.016764	-0.015177	0.422617
H117	H	0.771254	-0.539094	-0.000069
N118	N	0.427865	-0.012566	0.089382
H119	H	0.482509	-0.034981	0.091573
H120	H	0.393940	-0.017145	0.144615
H121	H	0.398867	0.139395	-0.060816
H122	H	0.561469	0.059850	-0.146959
N123	N	1.140644	-0.805902	-0.000067
H124	H	1.128420	-0.840791	-0.000068
H125	H	1.174150	-0.799606	-0.054775
N126	N	0.823221	-0.781932	-0.000049
H127	H	0.775273	-0.754656	-0.000048
H128	H	0.819530	-0.802597	-0.054752
H129	H	0.845124	-0.685332	-0.000070
H130	H	1.201012	-0.571551	-0.000067
N131	N	0.932789	0.155179	0.585621
H132	H	0.983988	0.152105	0.625365
H133	H	0.941946	0.177088	0.533884
H134	H	1.022083	-0.014137	0.575507
N135	N	0.586138	-0.011429	0.088411
H136	H	0.624721	-0.017927	0.035588
H137	H	0.620116	-0.016118	0.144889
H138	H	0.419406	0.058015	0.147289
H139	H	0.772866	-0.447639	-0.000064
H140	H	0.542548	0.140737	-0.060456
H141	H	0.775522	-0.296378	-0.000073
N142	N	0.834046	-0.166841	-0.000013
H143	H	0.786094	-0.139567	-0.000008
H144	H	0.830364	-0.187501	-0.054724
