data_functionalizedCrystal
_audit_creation_method	'MofGen! by Chris Wilmer'
_symmetry_space_group_name_H-M	'P1'
_symmetry_Int_Tables_number	1
_symmetry_cell_setting	triclinic
loop_
_symmetry_equiv_pos_as_xyz
  x,y,z
_cell_length_a	16.120490
_cell_length_b	16.120484
_cell_length_c	12.759393
_cell_angle_alpha	87.135992
_cell_angle_beta	92.918609
_cell_angle_gamma	90.164100
loop_
_atom_site_label
_atom_site_type_symbol
_atom_site_fract_x
_atom_site_fract_y
_atom_site_fract_z
Zn1	Zn	1.254506	-0.395627	0.699333
Zn2	Zn	1.754506	0.104373	1.199333
Zn3	Zn	1.247342	-0.534698	0.532065
Zn4	Zn	1.747342	-0.034698	1.032065
Zn5	Zn	1.115437	-0.388600	0.514343
Zn6	Zn	1.615437	0.111400	1.014343
Zn7	Zn	1.108358	-0.527572	0.698376
Zn8	Zn	1.608358	-0.027572	1.198376
O9	O	1.181411	-0.461624	0.611029
O10	O	1.681411	0.038376	1.111029
O11	O	1.369922	-0.419999	0.684962
O12	O	1.869922	0.080001	1.184962
O13	O	1.229809	-0.515359	0.382693
O14	O	1.729809	-0.015359	0.882693
O15	O	1.139846	-0.273169	0.531866
O16	O	1.639846	0.226831	1.031866
O17	O	1.364658	-0.522174	0.562071
O18	O	1.864658	-0.022174	1.062071
O19	O	1.242019	-0.278333	0.667777
O20	O	1.742019	0.221667	1.167777
O21	O	1.132899	-0.408021	0.369673
O22	O	1.632899	0.091979	0.869673
O23	O	0.998132	-0.401111	0.530937
O24	O	1.498132	0.098889	1.030937
O25	O	1.127781	-0.510028	0.845524
O26	O	1.627781	-0.010028	1.345524
O27	O	0.992931	-0.503214	0.666146
O28	O	1.492931	-0.003214	1.166146
O29	O	1.235155	-0.413089	0.846227
O30	O	1.735155	0.086911	1.346227
O31	O	1.222945	-0.650115	0.561143
O32	O	1.722945	-0.150115	1.061143
O33	O	1.120834	-0.644880	0.683331
O34	O	1.620834	-0.144880	1.183331
C35	C	0.965359	-0.450627	0.596515
C36	C	1.465359	0.049373	1.096515
C37	C	0.872930	-0.445943	0.590332
C38	C	1.372930	0.054057	1.090332
C39	C	1.170366	-0.677670	0.624080
C40	C	1.670366	-0.177670	1.124080
C41	C	1.165717	-0.770099	0.629704
C42	C	1.665717	-0.270099	1.129704
C43	C	1.157234	-0.939329	0.639993
C44	C	1.657234	-0.439329	1.139993
C45	C	1.205737	-0.983086	0.582092
C46	C	1.705737	-0.483086	1.082092
C47	C	1.201017	-1.077252	0.587817
C48	C	1.701017	-0.577252	1.087817
C49	C	1.161953	-0.845155	0.634270
C50	C	1.661953	-0.345155	1.134270
C51	C	0.659963	-0.485917	0.643103
C52	C	1.159963	0.014083	1.143103
C53	C	0.703707	-0.437398	0.579043
C54	C	1.203707	0.062602	1.079043
C55	C	0.797871	-0.442154	0.585326
C56	C	1.297871	0.057846	1.085326
C57	C	0.565790	-0.481162	0.636821
C58	C	1.065790	0.018838	1.136821
C59	C	1.398306	-0.472665	0.625600
C60	C	1.898306	0.027335	1.125600
C61	C	1.490734	-0.477370	0.631810
C62	C	1.990734	0.022630	1.131810
C63	C	1.181477	-0.461548	0.885062
C64	C	1.681477	0.038452	1.385062
C65	C	1.181505	-0.461515	1.001838
C66	C	1.681505	0.038485	1.501838
C67	C	1.192522	-0.244736	0.597951
C68	C	1.692522	0.255264	1.097951
C69	C	1.197256	-0.152311	0.592378
C70	C	1.697256	0.347689	1.092378
C71	C	1.181396	-0.461643	0.338062
C72	C	1.681396	0.038357	0.838062
C73	C	1.181541	-0.461450	0.221283
C74	C	1.681541	0.038550	0.721283
C75	C	1.237420	-0.411030	1.057068
C76	C	1.737420	0.088970	1.557068
C77	C	1.237436	-0.410995	1.166791
C78	C	1.737436	0.089005	1.666791
C79	C	1.125620	-0.511936	1.166045
C80	C	1.625620	-0.011936	1.666045
C81	C	1.125601	-0.511967	1.056324
C82	C	1.625601	-0.011967	1.556324
H83	H	1.112168	-0.972586	0.693858
H84	H	1.612168	-0.472586	1.193858
C85	C	0.704898	-0.546861	0.723557
C86	C	1.204898	-0.046861	1.223557
H87	H	0.665071	-0.576678	0.762930
H88	H	1.165071	-0.076678	1.262930
H89	H	0.736923	-0.584726	0.687687
H90	H	1.236923	-0.084726	1.187687
H91	H	0.740420	-0.516770	0.769702
H92	H	1.240420	-0.016770	1.269702
C93	C	1.266597	-0.938162	0.509286
C94	C	1.766597	-0.438162	1.009286
H95	H	1.261812	-0.879847	0.514921
H96	H	1.761812	-0.379847	1.014921
H97	H	1.321778	-0.955114	0.529282
H98	H	1.821778	-0.455114	1.029282
H99	H	1.253727	-0.951797	0.438721
H100	H	1.753727	-0.451797	0.938721
H101	H	1.080063	-0.553076	1.011354
H102	H	1.580063	-0.053076	1.511354
C103	C	1.298901	-0.355525	0.997136
C104	C	1.798901	0.144475	1.497136
H105	H	1.332197	-0.325447	1.045747
H106	H	1.832197	0.174553	1.545747
H107	H	1.333499	-0.389184	0.958685
H108	H	1.833499	0.110816	1.458685
H109	H	1.268931	-0.317684	0.950013
H110	H	1.768931	0.182316	1.450013
C111	C	1.298945	-0.355466	1.227540
C112	C	1.798945	0.144534	1.727540
H113	H	1.332238	-0.325430	1.179373
H114	H	1.832238	0.174570	1.679373
H115	H	1.269004	-0.317601	1.266017
H116	H	1.769004	0.182399	1.766017
H117	H	1.333555	-0.389115	1.274697
H118	H	1.833555	0.110885	1.774697
C119	C	0.658768	-0.376453	0.498583
C120	C	1.158768	0.123547	0.998583
H121	H	0.600456	-0.381213	0.504858
H122	H	1.100456	0.118787	1.004858
H123	H	0.675807	-0.321300	0.511628
H124	H	1.175807	0.178700	1.011628
H125	H	0.672304	-0.389261	0.429619
H126	H	1.172304	0.110739	0.929619
H127	H	1.080107	-0.553014	1.210421
H128	H	1.580107	-0.053014	1.710421
