data_functionalizedCrystal
_audit_creation_method	'MofGen! by Chris Wilmer'
_symmetry_space_group_name_H-M	'P1'
_symmetry_Int_Tables_number	1
_symmetry_cell_setting	triclinic
loop_
_symmetry_equiv_pos_as_xyz
  x,y,z
_cell_length_a	29.839131
_cell_length_b	29.839135
_cell_length_c	29.839125
_cell_angle_alpha	89.984249
_cell_angle_beta	90.013540
_cell_angle_gamma	89.956471
loop_
_atom_site_label
_atom_site_type_symbol
_atom_site_fract_x
_atom_site_fract_y
_atom_site_fract_z
Zn1	Zn	-0.178894	-0.686719	0.254063
Zn2	Zn	-0.254006	-0.686651	0.178939
Zn3	Zn	-0.178894	-0.611602	0.178941
Zn4	Zn	-0.254001	-0.611549	0.254035
O5	O	-0.216449	-0.649130	0.216495
O6	O	-0.188861	-0.749577	0.244109
O7	O	-0.244045	-0.676689	0.116072
O8	O	-0.116027	-0.621617	0.188919
O9	O	-0.244045	-0.749527	0.188915
O10	O	-0.116027	-0.676805	0.244111
O11	O	-0.188860	-0.621550	0.116074
O12	O	-0.188854	-0.548727	0.188892
O13	O	-0.244035	-0.621527	0.316906
O14	O	-0.244035	-0.548689	0.244063
O15	O	-0.188855	-0.676754	0.316927
O16	O	-0.316873	-0.676638	0.188888
O17	O	-0.316868	-0.621461	0.244061
C18	C	-0.216444	-0.532407	0.216475
C19	C	-0.216453	-0.482473	0.216477
C20	C	-0.187752	-0.172853	0.245274
C21	C	-0.187753	0.014820	0.245286
O22	O	-0.163343	0.039066	0.269750
N23	N	-0.216441	0.038312	0.216508
C24	C	-0.245129	0.014883	0.187723
O25	O	-0.269526	0.039170	0.163242
C26	C	-0.245125	-0.172789	0.187709
C27	C	-0.216439	-0.196279	0.216492
C28	C	-0.159067	-0.196342	0.274055
C29	C	-0.159069	-0.243257	0.274053
C30	C	-0.187756	-0.266684	0.245271
C31	C	-0.216440	-0.243194	0.216491
C32	C	-0.273811	-0.196218	0.158922
C33	C	-0.273806	-0.243139	0.158920
C34	C	-0.245120	-0.266628	0.187703
C35	C	-0.245129	-0.313536	0.187707
N36	N	-0.216441	-0.337028	0.216485
C37	C	-0.187754	-0.313601	0.245267
C38	C	-0.245129	0.113413	0.187733
C39	C	-0.245131	0.160331	0.187737
C40	C	-0.187754	0.160266	0.245300
C41	C	-0.187755	0.113347	0.245298
C42	C	-0.216441	0.089922	0.216511
C43	C	-0.187760	-0.412127	0.245262
C44	C	-0.187766	-0.459047	0.245259
C45	C	-0.245141	-0.458977	0.187695
C46	C	-0.245137	-0.412062	0.187699
C47	C	-0.216443	-0.388638	0.216484
O48	O	-0.269522	-0.337810	0.163252
O49	O	-0.163353	-0.337897	0.269737
C50	C	-0.187750	-0.125937	0.245276
C51	C	-0.216435	-0.102448	0.216495
C52	C	-0.245121	-0.125874	0.187713
C53	C	-0.216436	-0.055530	0.216499
C54	C	-0.187750	-0.032104	0.245281
C55	C	-0.159062	-0.055596	0.274059
C56	C	-0.159063	-0.102511	0.274058
C57	C	-0.273810	-0.102382	0.158935
C58	C	-0.273806	-0.055467	0.158939
C59	C	-0.245119	-0.032041	0.187721
C60	C	-0.333171	-0.649048	0.216481
C61	C	-0.383106	-0.649054	0.216490
C62	C	-0.739706	-0.620418	0.245221
C63	C	-0.552033	-0.620358	0.245207
O64	O	-0.527780	-0.595913	0.269627
N65	N	-0.528551	-0.649102	0.216503
C66	C	-0.551990	-0.677864	0.187803
O67	O	-0.527710	-0.702314	0.163392
C68	C	-0.739662	-0.677926	0.187820
C69	C	-0.763142	-0.649177	0.216522
C70	C	-0.763186	-0.591672	0.273922
C71	C	-0.810102	-0.591685	0.273923
C72	C	-0.833537	-0.620445	0.245224
C73	C	-0.810057	-0.649190	0.216524
C74	C	-0.763100	-0.706690	0.159122
C75	C	-0.810021	-0.706703	0.159130
C76	C	-0.833501	-0.677955	0.187832
C77	C	-0.880408	-0.677963	0.187826
N78	N	-0.903891	-0.649220	0.216530
C79	C	-0.880455	-0.620460	0.245229
C80	C	-0.453459	-0.677829	0.187796
C81	C	-0.406541	-0.677814	0.187791
C82	C	-0.406588	-0.620308	0.245196
C83	C	-0.453507	-0.620322	0.245198
C84	C	-0.476941	-0.649086	0.216500
C85	C	-0.978981	-0.620490	0.245230
C86	C	-1.025900	-0.620505	0.245228
C87	C	-1.025850	-0.678012	0.187824
C88	C	-0.978934	-0.677996	0.187825
C89	C	-0.955501	-0.649234	0.216531
O90	O	-0.904690	-0.702399	0.163423
O91	O	-0.904743	-0.596021	0.269644
C92	C	-0.692791	-0.620404	0.245220
C93	C	-0.669311	-0.649150	0.216519
C94	C	-0.692746	-0.677909	0.187820
C95	C	-0.622393	-0.649134	0.216515
C96	C	-0.598958	-0.620375	0.245214
C97	C	-0.622440	-0.591632	0.273918
C98	C	-0.669355	-0.591645	0.273919
C99	C	-0.669264	-0.706653	0.159116
C100	C	-0.622349	-0.706637	0.159117
C101	C	-0.598913	-0.677878	0.187816
C102	C	-0.099270	-0.649224	0.216518
C103	C	-0.049336	-0.649264	0.216528
C104	C	-0.216445	-0.649142	0.333673
C105	C	-0.216443	-0.649147	0.383608
C106	C	-0.216451	0.233692	0.216514
C107	C	-0.216444	0.183757	0.216519
C108	C	-0.216420	-0.649144	0.099772
C109	C	-0.216296	-0.649226	0.049838
C110	C	-0.187635	-0.677934	0.693265
C111	C	-0.187597	-0.677956	0.880938
O112	O	-0.163147	-0.702399	0.905214
N113	N	-0.216323	-0.649207	0.904393
C114	C	-0.245058	-0.620448	0.880927
O115	O	-0.269486	-0.595991	0.905183
C116	C	-0.245093	-0.620423	0.693254
C117	C	-0.216369	-0.649178	0.669802
C118	C	-0.158913	-0.706686	0.669812
C119	C	-0.158925	-0.706682	0.622897
C120	C	-0.187659	-0.677926	0.599434
C121	C	-0.216381	-0.649174	0.622886
C122	C	-0.273826	-0.591662	0.669789
C123	C	-0.273832	-0.591658	0.622868
C124	C	-0.245107	-0.620412	0.599415
C125	C	-0.245126	-0.620414	0.552508
N126	N	-0.216401	-0.649163	0.529053
C127	C	-0.187667	-0.677919	0.552516
C128	C	-0.245038	-0.620463	0.979457
C129	C	-0.245029	-0.620469	1.026375
C130	C	-0.187568	-0.677978	1.026383
C131	C	-0.187579	-0.677973	0.979464
C132	C	-0.216312	-0.649213	0.956002
C133	C	-0.187694	-0.677909	0.453990
C134	C	-0.187709	-0.677903	0.407070
C135	C	-0.245169	-0.620393	0.407066
C136	C	-0.245155	-0.620400	0.453982
C137	C	-0.216414	-0.649159	0.477443
O138	O	-0.269561	-0.595981	0.528203
O139	O	-0.163235	-0.702365	0.528252
C140	C	-0.187624	-0.677938	0.740180
C141	C	-0.216346	-0.649186	0.763633
C142	C	-0.245080	-0.620430	0.740170
C143	C	-0.216338	-0.649193	0.810551
C144	C	-0.187604	-0.677949	0.834014
C145	C	-0.158878	-0.706699	0.810559
C146	C	-0.158890	-0.706694	0.763643
C147	C	-0.273805	-0.591681	0.763625
C148	C	-0.273792	-0.591687	0.810540
C149	C	-0.245058	-0.620444	0.834003
H150	H	-0.297170	-0.177101	0.135483
H151	H	-0.472621	-0.596915	0.268573
H152	H	-0.135500	-0.730109	0.744552
F153	F	-0.157223	0.185205	0.275931
F154	F	-0.156987	-0.708583	1.051362
H155	H	-0.268495	0.179452	0.164303
H156	H	-0.135484	-0.730114	0.829670
F157	F	-0.835085	-0.561092	0.304478
H158	H	-0.297166	-0.262209	0.135477
F159	F	-0.597365	-0.737236	0.128564
F160	F	-0.275670	-0.483917	0.157065
F161	F	-0.275659	0.088488	0.157089
H162	H	-0.472535	-0.701253	0.164424
H163	H	-0.268564	-0.596982	0.387954
F164	F	-0.953944	-0.708585	0.157268
H165	H	-0.135703	-0.121632	0.297496
H166	H	-0.297187	-0.568273	0.829631
F167	F	-0.304389	-0.561072	0.738660
H168	H	-0.297170	-0.121451	0.135496
H169	H	-0.829099	-0.730128	0.135761
F170	F	-0.128533	-0.030656	0.304693
H171	H	-0.164405	-0.478170	0.268700
H172	H	-0.743989	-0.730100	0.135750
F173	F	-0.275680	-0.387062	0.157076
H174	H	-0.297225	-0.568232	0.603767
F175	F	-0.304341	-0.030473	0.128302
F176	F	-0.275729	-0.589799	0.478943
H177	H	-0.164394	-0.393061	0.268700
H178	H	-0.387427	-0.701218	0.164414
H179	H	-1.044939	-0.701425	0.164457
F180	F	-0.157137	-0.708510	0.382113
H181	H	-0.135709	-0.262378	0.297491
F182	F	-0.694339	-0.561048	0.304470
F183	F	-0.128532	-0.171417	0.304691
F184	F	-1.050887	-0.589906	0.275778
H185	H	-0.164395	0.094225	0.268734
F186	F	-0.954048	-0.589878	0.275782
F187	F	-0.738251	-0.561061	0.304471
F188	F	-0.597490	-0.561023	0.304460
H189	H	-0.387499	-0.596891	0.268563
H190	H	-0.688340	-0.730073	0.135746
H191	H	-0.164289	-0.701326	0.473086
H192	H	-0.135534	-0.730096	0.603806
F193	F	-0.128332	-0.737299	0.694776
H194	H	-0.164188	-0.701387	0.960373
H195	H	-0.268424	-0.597059	1.045466
F196	F	-0.275622	-0.589850	0.954493
H197	H	-0.297216	-0.568247	0.688876
