data_functionalizedCrystal
_audit_creation_method	'MofGen! by Chris Wilmer'
_symmetry_space_group_name_H-M	'P1'
_symmetry_Int_Tables_number	1
_symmetry_cell_setting	triclinic
loop_
_symmetry_equiv_pos_as_xyz
  x,y,z
_cell_length_a	14.044220
_cell_length_b	9.065218
_cell_length_c	13.101039
_cell_angle_alpha	93.409793
_cell_angle_beta	93.673600
_cell_angle_gamma	90.897619
loop_
_atom_site_label
_atom_site_type_symbol
_atom_site_fract_x
_atom_site_fract_y
_atom_site_fract_z
O1	O	0.144304	-1.968361	0.085221
O2	O	0.155717	-1.540341	0.085223
O3	O	0.011970	-1.747927	0.085212
O4	O	0.288051	-1.760775	0.085232
O5	O	0.001643	-1.762827	-0.085218
O6	O	0.145390	-1.555240	-0.085208
O7	O	0.133977	-1.983261	-0.085209
Zn8	Zn	0.138044	-1.771616	-0.112268
Zn9	Zn	0.151650	-1.751986	0.112282
O10	O	0.277724	-1.775674	-0.085198
C11	C	-0.028556	-1.749753	-0.000004
C12	C	-0.133926	-1.732976	-0.000005
C13	C	0.149457	-1.492683	0.000008
C14	C	0.146177	-1.328476	0.000008
C15	C	0.140237	-2.030919	0.000008
C16	C	0.143517	-2.195125	0.000015
C17	C	-0.326850	-1.702303	0.000010
C18	C	-0.383461	-1.821292	0.000013
C19	C	-0.490811	-1.804225	0.000021
C20	C	-0.219490	-1.719367	0.000002
C21	C	0.318250	-1.773849	0.000020
C22	C	0.423620	-1.790625	0.000028
N23	N	0.128758	-1.785024	-0.265517
N24	N	0.160928	-1.738588	0.265531
C25	C	0.173552	-1.720347	0.474575
C26	C	0.116138	-1.803261	0.525446
C27	C	0.123162	-1.793111	0.641765
C28	C	0.166529	-1.730495	0.358245
H29	H	-0.351302	-1.935973	0.000081
O30	O	-0.365362	-1.565601	-0.000039
C31	C	-0.465525	-1.578781	-0.000008
H32	H	-0.489613	-1.693862	-0.032265
H33	H	-0.488189	-1.560910	0.081756
C34	C	-0.482197	-1.320516	-0.027234
C35	C	-0.511783	-1.461858	-0.066861
H36	H	-0.510732	-1.248390	-0.068468
H37	H	-0.414715	-1.311635	-0.027251
H38	H	-0.501085	-1.305645	0.040902
H39	H	-0.492884	-1.476734	-0.134991
H40	H	-0.579263	-1.470740	-0.066857
O41	O	0.051221	-1.896908	0.473035
C42	C	0.058574	-1.886339	0.366881
H43	H	0.092158	-1.774847	0.352363
H44	H	0.105084	-1.978841	0.336435
C45	C	-0.082835	-2.037380	0.329494
C46	C	-0.041594	-1.900439	0.311662
H47	H	-0.144622	-2.046084	0.295431
H48	H	-0.087787	-2.044506	0.401012
H49	H	-0.044067	-2.114450	0.304122
H50	H	-0.080355	-1.823372	0.337045
H51	H	-0.036650	-1.893300	0.240147
H52	H	0.227976	-1.641744	0.518376
