data_functionalizedCrystal
_audit_creation_method	'MofGen! by Chris Wilmer'
_symmetry_space_group_name_H-M	'P1'
_symmetry_Int_Tables_number	1
_symmetry_cell_setting	triclinic
loop_
_symmetry_equiv_pos_as_xyz
  x,y,z
_cell_length_a	13.635800
_cell_length_b	19.551136
_cell_length_c	19.551833
_cell_angle_alpha	83.647517
_cell_angle_beta	101.663477
_cell_angle_gamma	78.349158
loop_
_atom_site_label
_atom_site_type_symbol
_atom_site_fract_x
_atom_site_fract_y
_atom_site_fract_z
V1	V	1.998606	-0.097410	0.218205
O2	O	1.997306	0.003927	0.213697
O3	O	1.969982	-0.192423	0.217053
O4	O	1.970008	-0.096243	0.313216
O5	O	1.997280	-0.092919	0.116868
V6	V	2.241563	-0.085250	0.206043
O7	O	2.126612	-0.124085	0.244883
O8	O	2.338656	-0.058576	0.179364
O9	O	2.158584	0.009763	0.207194
O10	O	2.301562	-0.186588	0.210550
O11	O	2.301588	-0.089741	0.307379
O12	O	2.158558	-0.086418	0.111031
V13	V	2.498606	-0.097410	0.218205
O14	O	2.497306	0.003927	0.213697
O15	O	2.469982	-0.192423	0.217053
O16	O	2.470008	-0.096243	0.313216
O17	O	2.497280	-0.092919	0.116868
V18	V	2.741563	-0.085250	0.206043
O19	O	2.626612	-0.124085	0.244883
O20	O	2.838656	-0.058576	0.179364
O21	O	2.658584	0.009763	0.207194
O22	O	2.801562	-0.186588	0.210550
O23	O	2.801588	-0.089741	0.307379
O24	O	2.658558	-0.086418	0.111031
C25	C	1.891548	-0.215575	0.213698
C26	C	1.908759	-0.293252	0.213390
C27	C	1.900200	-0.319526	0.149212
C28	C	1.916407	-0.392509	0.148901
C29	C	1.941154	-0.439215	0.212770
C30	C	1.949719	-0.412933	0.276957
C31	C	1.933522	-0.339952	0.277266
C32	C	1.921266	-0.560382	0.259081
C33	C	1.937457	-0.633362	0.258768
C34	C	1.991119	-0.664316	0.211818
C35	C	2.028573	-0.622279	0.165168
C36	C	2.012375	-0.549298	0.165478
C37	C	1.958721	-0.518353	0.212442
C38	C	2.000134	-0.769727	0.147298
C39	C	2.016349	-0.842712	0.146990
C40	C	2.049652	-0.863135	0.275047
C41	C	2.033447	-0.790151	0.275354
C42	C	2.008684	-0.743451	0.211477
C43	C	1.891581	-0.092886	0.336363
C44	C	1.908811	-0.092560	0.414037
C45	C	2.068689	0.032911	0.210547
C46	C	2.041097	0.110587	0.210860
C47	C	2.068656	-0.089776	0.087881
C48	C	2.041046	-0.090099	0.010205
C49	C	2.391548	-0.215575	0.213698
C50	C	2.408759	-0.293252	0.213390
C51	C	2.007629	-0.095915	0.454097
C52	C	2.023819	-0.095608	0.527080
C53	C	1.941188	-0.091962	0.560004
C54	C	1.842355	-0.088603	0.519934
C55	C	1.826166	-0.088902	0.446951
C56	C	1.908018	-0.129955	0.679451
C57	C	1.924211	-0.129661	0.752433
C58	C	1.991115	-0.091036	0.785107
C59	C	2.041843	-0.052715	0.744791
C60	C	2.025654	-0.053015	0.671808
C61	C	1.958732	-0.091637	0.639141
C62	C	2.107494	-0.094057	0.904303
C63	C	2.123679	-0.093747	0.977287
C64	C	1.942214	-0.086748	0.970141
C65	C	1.926030	-0.087052	0.897158
C66	C	2.008674	-0.090710	0.864244
C67	C	2.391581	-0.092886	0.336363
C68	C	2.408811	-0.092560	0.414037
C69	C	2.568689	0.032911	0.210547
C70	C	2.541097	0.110587	0.210860
C71	C	2.568656	-0.089776	0.087881
C72	C	2.541046	-0.090099	0.010205
C73	C	2.507576	-0.333304	0.216749
C74	C	2.523764	-0.406291	0.216470
C75	C	2.441132	-0.439224	0.212827
C76	C	2.342307	-0.399167	0.209470
C77	C	2.326122	-0.326182	0.209754
C78	C	2.507635	-0.095903	0.454088
C79	C	2.523837	-0.095588	0.527071
C80	C	2.441213	-0.091934	0.560002
C81	C	2.342380	-0.088589	0.519945
C82	C	2.326179	-0.088900	0.446963
C83	C	2.614773	0.150639	0.207503
C84	C	2.588857	0.223626	0.207785
C85	C	2.489266	0.256558	0.211430
C86	C	2.415584	0.216501	0.214785
C87	C	2.441499	0.143517	0.214498
C88	C	2.441439	-0.093744	-0.022708
C89	C	2.415478	-0.094039	-0.095692
C90	C	2.489129	-0.090693	-0.135762
C91	C	2.588744	-0.087045	-0.102845
C92	C	2.614700	-0.086746	-0.029862
H93	H	1.880044	-0.281507	0.097199
H94	H	2.648702	-0.084319	-0.135481
H95	H	1.877568	-0.535186	0.297316
H96	H	2.381455	-0.096468	0.009908
F97	F	2.720722	-0.082875	0.005160
H98	H	1.909435	-0.413906	0.096638
H99	H	2.334363	-0.097009	-0.122483
F100	F	2.220942	-0.283561	0.206173
F101	F	2.628947	-0.448910	0.220040
H102	H	2.009384	-0.864103	0.094727
F103	F	2.085678	-0.655216	0.115191
H104	H	1.979970	-0.731702	0.095286
H105	H	2.574924	-0.098880	0.427286
H106	H	2.334496	0.243327	0.217752
H107	H	2.066957	-0.021812	0.638986
H108	H	2.042874	-0.515074	0.127495
H109	H	1.906956	-0.667582	0.296752
F110	F	2.228859	-0.097315	1.019921
H111	H	2.069802	-0.901162	0.327051
F112	F	1.942632	-0.311988	0.345576
H113	H	2.040410	-0.768759	0.327614
H114	H	2.275033	-0.425992	0.206504
F115	F	2.595536	-0.298268	0.220631
F116	F	2.461700	0.334237	0.211735
H117	H	1.969871	-0.450966	0.328959
H118	H	2.381499	0.110911	0.217238
F119	F	2.629030	-0.099152	0.569689
H120	H	2.074926	-0.098890	0.427303
F121	F	2.458472	-0.091607	0.637677
F122	F	2.254456	-0.084708	0.555004
H123	H	2.467983	-0.090946	-0.195187
H124	H	2.245704	-0.086179	0.414359
F125	F	1.720987	-0.085334	0.404316
F126	F	2.128999	-0.099175	0.569722
F127	F	2.720774	0.115603	0.203624
H128	H	2.174787	-0.097033	0.877503
F129	F	2.113055	-0.011608	0.779560
F130	F	1.854267	-0.082857	1.005174
H131	H	1.845564	-0.084328	0.864542
F132	F	1.870228	-0.170449	0.795334
F133	F	1.754413	-0.084720	0.554974
H134	H	1.853526	-0.161404	0.652853
F135	F	2.458373	-0.516903	0.212524
H136	H	2.648866	0.256230	0.205054
