data_functionalizedCrystal
_audit_creation_method	'MofGen! by Chris Wilmer'
_symmetry_space_group_name_H-M	'P1'
_symmetry_Int_Tables_number	1
_symmetry_cell_setting	triclinic
loop_
_symmetry_equiv_pos_as_xyz
  x,y,z
_cell_length_a	6.394989
_cell_length_b	14.971486
_cell_length_c	13.448316
_cell_angle_alpha	89.998199
_cell_angle_beta	89.996551
_cell_angle_gamma	85.055920
loop_
_atom_site_label
_atom_site_type_symbol
_atom_site_fract_x
_atom_site_fract_y
_atom_site_fract_z
O1	O	0.272213	1.189891	-0.082570
O2	O	0.304810	0.929844	-0.082597
O3	O	-0.015543	1.063559	-0.082584
O4	O	0.592567	1.056176	-0.082583
O5	O	-0.015563	1.063541	0.082800
O6	O	0.304791	0.929826	0.082787
O7	O	0.272193	1.189874	0.082813
Cu8	Cu	0.288490	1.059848	0.097901
Cu9	Cu	0.288513	1.059869	-0.097684
O10	O	0.592547	1.056159	0.082801
C11	C	0.303343	0.896494	0.000092
C12	C	0.298974	0.797150	0.000081
C13	C	0.487173	0.741960	0.000083
C14	C	0.483056	0.648616	0.000098
C15	C	0.290737	0.610464	0.000104
C16	C	0.102524	0.665661	0.000105
C17	C	0.106643	0.759003	0.000097
C18	C	0.093951	0.471106	0.000119
C19	C	0.089830	0.377757	0.000125
C20	C	0.470364	0.360719	0.000119
C21	C	0.474483	0.454061	0.000112
C22	C	0.286268	0.509252	0.000111
C23	C	0.670382	1.057627	0.000105
C24	C	0.906628	1.062088	0.000102
C25	C	0.273661	1.223223	0.000123
C26	C	0.278029	1.322567	0.000126
N27	N	0.288472	1.059840	0.235465
N28	N	0.288515	1.059884	-0.235249
C29	C	0.146678	1.119069	0.287511
C30	C	0.146676	1.119074	0.391615
C31	C	0.288480	1.059855	0.443670
C32	C	0.430282	1.000620	0.391617
C33	C	0.430272	1.000611	0.287515
C34	C	0.430296	1.000645	0.608597
C35	C	0.430309	1.000655	0.712705
C36	C	0.146700	1.119109	0.712696
C37	C	0.146690	1.119099	0.608595
C38	C	0.288495	1.059865	0.556549
H39	H	0.623615	0.315778	0.000124
H40	H	0.031233	1.167324	0.566211
H41	H	-0.059314	0.516040	0.000120
H42	H	0.643782	0.773016	0.000078
O43	O	-0.076228	0.812581	-0.000086
C44	C	-0.192999	0.794940	-0.085725
H45	H	-0.082802	0.764291	-0.145591
H46	H	-0.314029	0.746074	-0.066355
C47	C	-0.441262	0.920724	-0.051040
C48	C	-0.305914	0.883087	-0.124571
H49	H	-0.510922	0.975096	-0.075001
H50	H	-0.362598	0.932608	0.006659
H51	H	-0.542102	0.879994	-0.034905
H52	H	-0.205061	0.923812	-0.140695
H53	H	-0.384565	0.871212	-0.182274
H54	H	0.631086	0.485121	0.000097
O55	O	0.568249	0.943076	0.558192
C56	C	0.693385	0.890797	0.626458
H57	H	0.695886	0.927500	0.700660
H58	H	0.625313	0.823587	0.637540
C59	C	0.915581	0.829819	0.494684
C60	C	0.918667	0.874902	0.585818
H61	H	1.054544	0.820011	0.469615
H62	H	0.831271	0.865038	0.448691
H63	H	0.858845	0.773816	0.503932
H64	H	0.975378	0.930909	0.576567
H65	H	1.002993	0.839692	0.631809
H66	H	0.636307	0.603684	0.000098
O67	O	0.008726	1.176627	0.237103
C68	C	-0.116391	1.228919	0.305369
H69	H	-0.118882	1.192226	0.379581
H70	H	-0.048309	1.296128	0.316428
C71	C	-0.338607	1.289883	0.173604
C72	C	-0.341681	1.244812	0.264750
H73	H	-0.477574	1.299691	0.148548
H74	H	-0.254309	1.254656	0.127611
H75	H	-0.281862	1.345885	0.182832
H76	H	-0.398400	1.188806	0.255519
H77	H	-0.425993	1.280030	0.310741
O78	O	0.009237	1.176651	0.442286
C79	C	0.121343	1.233102	0.502472
H80	H	0.284656	1.199310	0.518059
H81	H	0.135800	1.299365	0.462345
C82	C	-0.196917	1.292406	0.582220
C83	C	0.003660	1.250899	0.601371
H84	H	-0.269512	1.303388	0.643224
H85	H	-0.272448	1.254377	0.541669
H86	H	-0.184841	1.347621	0.548779
H87	H	-0.008419	1.195681	0.634800
H88	H	0.079186	1.288919	0.641930
O89	O	0.009157	1.176773	0.763206
C90	C	0.043444	1.265693	0.737737
H91	H	0.210685	1.268001	0.709110
H92	H	-0.072235	1.290664	0.677314
C93	C	-0.194160	1.323140	0.865368
C94	C	0.011254	1.325976	0.830216
H95	H	-0.214026	1.360327	0.922411
H96	H	-0.217268	1.263233	0.882526
H97	H	-0.290536	1.343947	0.815007
H98	H	0.107624	1.305158	0.880572
H99	H	0.034377	1.385880	0.813069
O100	O	0.568218	0.943047	0.237109
C101	C	0.693349	0.890766	0.305374
H102	H	0.695863	0.927471	0.379575
H103	H	0.625264	0.823559	0.316461
C104	C	0.915525	0.829777	0.173599
C105	C	0.918627	0.874862	0.264732
H106	H	1.054485	0.819962	0.148528
H107	H	0.831218	0.864997	0.127606
H108	H	0.858778	0.773776	0.182850
H109	H	0.975349	0.930865	0.255477
H110	H	1.002949	0.839651	0.310722
H111	H	0.545779	0.952432	0.755084
H112	H	-0.066773	0.346697	0.000131
H113	H	0.545735	0.952398	0.434006
H114	H	-0.054066	0.634590	0.000124
