data_functionalizedCrystal
_audit_creation_method	'MofGen! by Chris Wilmer'
_symmetry_space_group_name_H-M	'P1'
_symmetry_Int_Tables_number	1
_symmetry_cell_setting	triclinic
loop_
_symmetry_equiv_pos_as_xyz
  x,y,z
_cell_length_a	18.101398
_cell_length_b	16.625546
_cell_length_c	16.625539
_cell_angle_alpha	89.969603
_cell_angle_beta	89.988670
_cell_angle_gamma	90.018025
loop_
_atom_site_label
_atom_site_type_symbol
_atom_site_fract_x
_atom_site_fract_y
_atom_site_fract_z
Zn1	Zn	1.132177	-0.321096	-0.455699
Zn2	Zn	1.632177	0.178904	0.044301
Zn3	Zn	1.132088	-0.455939	-0.320861
Zn4	Zn	1.632088	0.044061	0.179139
Zn5	Zn	1.008332	-0.321114	-0.320901
Zn6	Zn	1.508332	0.178886	0.179099
Zn7	Zn	1.008305	-0.455880	-0.455673
Zn8	Zn	1.508305	0.044120	0.044327
O9	O	1.070226	-0.388507	-0.388283
O10	O	1.570226	0.111493	0.111717
O11	O	1.235798	-0.339000	-0.437807
O12	O	1.735798	0.161000	0.062193
O13	O	1.115646	-0.438086	-0.208034
O14	O	1.615646	0.061914	0.291966
O15	O	1.024809	-0.208279	-0.338810
O16	O	1.524809	0.291721	0.161190
O17	O	1.235733	-0.438069	-0.338742
O18	O	1.735733	0.061931	0.161258
O19	O	1.115797	-0.208266	-0.437845
O20	O	1.615797	0.291734	0.062155
O21	O	1.024723	-0.339031	-0.208063
O22	O	1.524723	0.160969	0.291937
O23	O	0.904696	-0.338973	-0.338785
O24	O	1.404696	0.161027	0.161215
O25	O	1.024763	-0.437968	-0.568509
O26	O	1.524763	0.062032	-0.068509
O27	O	0.904676	-0.437985	-0.437801
O28	O	1.404676	0.062015	0.062199
O29	O	1.115771	-0.338943	-0.568528
O30	O	1.615771	0.161057	-0.068528
O31	O	1.115619	-0.568764	-0.338717
O32	O	1.615619	-0.068764	0.161283
O33	O	1.024677	-0.568720	-0.437762
O34	O	1.524677	-0.068720	0.062238
C35	C	0.877815	-0.388475	-0.388295
C36	C	1.377815	0.111525	0.111705
C37	C	0.795501	-0.388481	-0.388319
C38	C	1.295501	0.111519	0.111681
C39	C	1.070156	-0.597998	-0.388250
C40	C	1.570156	-0.097998	0.111750
C41	C	1.070193	-0.687619	-0.388262
C42	C	1.570193	-0.187619	0.111738
C43	C	1.070323	-1.015795	-0.388346
C44	C	1.570323	-0.515795	0.111654
C45	C	1.070284	-0.924486	-0.388325
C46	C	1.570284	-0.424486	0.111675
C47	C	1.070257	-0.851710	-0.388304
C48	C	1.570257	-0.351710	0.111696
C49	C	1.070220	-0.760395	-0.388283
C50	C	1.570220	-0.260395	0.111717
C51	C	0.496410	-0.388529	-0.388285
C52	C	0.996410	0.111471	0.111715
C53	C	0.527747	-0.451126	-0.450276
C54	C	1.027747	0.048874	0.049724
C55	C	0.613366	-0.450930	-0.450530
C56	C	1.113366	0.049070	0.049470
C57	C	0.644793	-0.388506	-0.388302
C58	C	1.144793	0.111494	0.111698
C59	C	0.613727	-0.303579	-0.411524
C60	C	1.113727	0.196421	0.088476
C61	C	0.528082	-0.303955	-0.411965
C62	C	1.028082	0.196045	0.088035
C63	C	0.527958	-0.410110	-0.302922
C64	C	1.027958	0.089890	0.197078
C65	C	0.613609	-0.411973	-0.303378
C66	C	1.113609	0.088027	0.196622
C67	C	0.728652	-0.388488	-0.388310
C68	C	1.228652	0.111512	0.111690
C69	C	0.412551	-0.388541	-0.388279
C70	C	0.912551	0.111459	0.111721
C71	C	1.263388	-0.388539	-0.388273
C72	C	1.763388	0.111461	0.111727
C73	C	1.345702	-0.388553	-0.388268
C74	C	1.845702	0.111447	0.111732
C75	C	1.070274	-0.388447	-0.598592
C76	C	1.570274	0.111553	-0.098592
C77	C	1.070294	-0.388421	-0.688214
C78	C	1.570294	0.111579	-0.188214
C79	C	1.070316	-0.178198	-0.388335
C80	C	1.570316	0.321802	0.111665
C81	C	1.070355	-0.088577	-0.388357
C82	C	1.570355	0.411423	0.111643
C83	C	1.070329	-0.388331	-1.016389
C84	C	1.570329	0.111669	-0.516389
C85	C	1.070317	-0.388359	-0.925081
C86	C	1.570317	0.111641	-0.425081
C87	C	1.070312	-0.388377	-0.852304
C88	C	1.570312	0.111623	-0.352304
C89	C	1.070300	-0.388403	-0.760990
C90	C	1.570300	0.111597	-0.260990
C91	C	1.070220	-0.388509	-0.178793
C92	C	1.570220	0.111491	0.321207
C93	C	1.070343	-0.388307	-0.089172
C94	C	1.570343	0.111693	0.410828
H95	H	0.507141	-0.514309	-0.435883
H96	H	1.007141	-0.014309	0.064117
N97	N	0.639097	-0.490372	-0.281419
N98	N	1.139097	0.009628	0.218581
N99	N	0.706815	-0.503836	-0.275525
N100	N	1.206815	-0.003836	0.224475
H101	H	0.724824	-0.559205	-0.260021
H102	H	1.224824	-0.059205	0.239979
N103	N	0.500762	-0.433433	-0.529159
N104	N	1.000762	0.066567	-0.029159
N105	N	0.458551	-0.374923	-0.539921
N106	N	0.958551	0.125077	-0.039921
H107	H	0.439491	-0.362425	-0.595632
H108	H	0.939491	0.137575	-0.095632
H109	H	0.506353	-0.470979	-0.281818
H110	H	1.006353	0.029021	0.218182
N111	N	0.640453	-0.358930	-0.242328
N112	N	1.140453	0.141070	0.257672
N113	N	0.683191	-0.302713	-0.260496
N114	N	1.183191	0.197287	0.239504
H115	H	0.702152	-0.265246	-0.217381
H116	H	1.202152	0.234754	0.282619
N117	N	0.639080	-0.433017	-0.529878
N118	N	1.139080	0.066983	-0.029878
N119	N	0.593773	-0.420615	-0.585238
N120	N	1.093773	0.079385	-0.085238
H121	H	0.611933	-0.407963	-0.641281
H122	H	1.111933	0.092037	-0.141281
N123	N	0.502541	-0.352900	-0.244987
N124	N	1.002541	0.147100	0.255013
N125	N	0.461372	-0.296457	-0.266363
N126	N	0.961372	0.203543	0.233637
H127	H	0.443422	-0.256047	-0.225454
H128	H	0.943422	0.243953	0.274546
N129	N	0.640644	-0.280181	-0.488956
N130	N	1.140644	0.219819	0.011044
N131	N	0.678273	-0.217558	-0.496347
N132	N	1.178273	0.282442	0.003653
H133	H	0.697283	-0.201035	-0.551034
H134	H	1.197283	0.298965	-0.051034
N135	N	0.639718	-0.529932	-0.432264
N136	N	1.139718	-0.029932	0.067736
N137	N	0.623151	-0.562322	-0.366833
N138	N	1.123151	-0.062322	0.133167
H139	H	0.641758	-0.618122	-0.353935
H140	H	1.141758	-0.118122	0.146065
N141	N	0.503046	-0.280989	-0.490252
N142	N	1.003046	0.219011	0.009748
N143	N	0.548825	-0.264797	-0.544183
N144	N	1.048825	0.235203	-0.044183
H145	H	0.531148	-0.248578	-0.599476
H146	H	1.031148	0.251422	-0.099476
H147	H	0.507352	-0.255644	-0.368885
H148	H	1.007352	0.244356	0.131115
N149	N	0.639255	-0.243552	-0.356572
N150	N	1.139255	0.256448	0.143428
N151	N	0.624160	-0.249147	-0.283413
N152	N	1.124160	0.250853	0.216587
H153	H	0.642191	-0.206781	-0.244571
H154	H	1.142191	0.293219	0.255429
