data_functionalizedCrystal
_audit_creation_method	'MofGen! by Chris Wilmer'
_symmetry_space_group_name_H-M	'P1'
_symmetry_Int_Tables_number	1
_symmetry_cell_setting	triclinic
loop_
_symmetry_equiv_pos_as_xyz
  x,y,z
_cell_length_a	13.033293
_cell_length_b	13.897448
_cell_length_c	13.032268
_cell_angle_alpha	97.148041
_cell_angle_beta	89.079182
_cell_angle_gamma	97.187372
loop_
_atom_site_label
_atom_site_type_symbol
_atom_site_fract_x
_atom_site_fract_y
_atom_site_fract_z
Zn1	Zn	1.498462	-0.300097	-0.781480
Zn2	Zn	1.831795	0.033236	-0.448147
Zn3	Zn	2.165129	0.366569	-0.114814
Zn4	Zn	1.520205	-0.438715	-0.609506
Zn5	Zn	1.853538	-0.105381	-0.276173
Zn6	Zn	2.186871	0.227952	0.057160
Zn7	Zn	1.348322	-0.295004	-0.587656
Zn8	Zn	1.681656	0.038330	-0.254323
Zn9	Zn	2.014989	0.371663	0.079011
Zn10	Zn	1.326456	-0.478925	-0.759546
Zn11	Zn	1.659789	-0.145592	-0.426213
Zn12	Zn	1.993122	0.187741	-0.092879
O13	O	1.423361	-0.378185	-0.684547
O14	O	1.756695	-0.044852	-0.351214
O15	O	2.090028	0.288481	-0.017880
O16	O	1.645265	-0.303789	-0.776992
O17	O	1.978598	0.029544	-0.443658
O18	O	2.311932	0.362878	-0.110325
O19	O	1.515655	-0.400691	-0.462699
O20	O	1.848988	-0.067358	-0.129366
O21	O	2.182322	0.265976	0.203967
O22	O	1.368291	-0.160696	-0.613402
O23	O	1.701624	0.172638	-0.280069
O24	O	2.034957	0.505971	0.053264
O25	O	1.661239	-0.405630	-0.650643
O26	O	1.994573	-0.072297	-0.317310
O27	O	2.327906	0.261036	0.016024
O28	O	1.478598	-0.164438	-0.755804
O29	O	1.811931	0.168895	-0.422471
O30	O	2.145264	0.502228	-0.089138
O31	O	1.389374	-0.295107	-0.446646
O32	O	1.722707	0.038226	-0.113313
O33	O	2.056040	0.371559	0.220021
O34	O	1.201503	-0.334098	-0.592134
O35	O	1.534836	-0.000764	-0.258800
O36	O	1.868170	0.332569	0.074533
O37	O	1.331022	-0.474163	-0.906364
O38	O	1.664355	-0.140830	-0.573031
O39	O	1.997689	0.192503	-0.239697
O40	O	1.185438	-0.469224	-0.718420
O41	O	1.518771	-0.135891	-0.385087
O42	O	1.852104	0.197442	-0.051754
O43	O	1.457394	-0.342779	-0.922479
O44	O	1.790728	-0.009446	-0.589146
O45	O	2.124061	0.323887	-0.255812
O46	O	1.494452	-0.579032	-0.629374
O47	O	1.827785	-0.245699	-0.296041
O48	O	2.161118	0.087634	0.037293
O49	O	1.352105	-0.608575	-0.739608
O50	O	1.685438	-0.275242	-0.406274
O51	O	2.018772	0.058092	-0.072941
C52	C	1.156154	-0.405472	-0.650526
C53	C	1.489487	-0.072139	-0.317193
C54	C	1.822820	0.261194	0.016140
C55	C	1.041838	-0.417172	-0.635996
C56	C	1.375171	-0.083839	-0.302663
C57	C	1.708505	0.249494	0.030670
C58	C	0.982956	-0.372103	-0.692130
C59	C	1.316289	-0.038770	-0.358797
C60	C	1.649623	0.294563	-0.025464
C61	C	0.864805	-0.384195	-0.677114
C62	C	1.198138	-0.050861	-0.343781
C63	C	1.531471	0.282472	-0.010448
C64	C	1.423290	-0.628803	-0.684508
C65	C	1.756623	-0.295470	-0.351174
C66	C	2.089957	0.037863	-0.017841
C67	C	1.423349	-0.736014	-0.684537
C68	C	1.756682	-0.402680	-0.351204
C69	C	2.090016	-0.069347	-0.017871
C70	C	1.423449	-0.932306	-0.684616
C71	C	1.756782	-0.598973	-0.351282
C72	C	2.090116	-0.265640	-0.017949
C73	C	1.423390	-0.823076	-0.684575
C74	C	1.756723	-0.489743	-0.351241
C75	C	2.090057	-0.156409	-0.017908
C76	C	1.691612	-0.350792	-0.718701
C77	C	2.024945	-0.017459	-0.385368
C78	C	2.358279	0.315874	-0.052035
C79	C	1.805925	-0.339119	-0.733256
C80	C	2.139258	-0.005786	-0.399922
C81	C	2.472591	0.327547	-0.066589
C82	C	1.389344	-0.413525	-0.952779
C83	C	1.722677	-0.080192	-0.619445
C84	C	2.056010	0.253142	-0.286112
C85	C	1.374847	-0.428585	-1.067083
C86	C	1.708181	-0.095251	-0.733749
C87	C	2.041514	0.238082	-0.400416
C88	C	1.423458	-0.126589	-0.684613
C89	C	1.756791	0.206745	-0.351279
C90	C	2.090125	0.540078	-0.017946
C91	C	1.423499	-0.019373	-0.684641
C92	C	1.756832	0.313960	-0.351307
C93	C	2.090166	0.647294	-0.017974
C94	C	1.430911	-0.370293	-1.126017
C95	C	1.764244	-0.036959	-0.792683
C96	C	2.097578	0.296374	-0.459350
C97	C	1.415930	-0.385856	-1.244156
C98	C	1.749263	-0.052523	-0.910823
C99	C	2.082596	0.280811	-0.577490
C100	C	1.457306	-0.342907	-0.417367
C101	C	1.790639	-0.009574	-0.084033
C102	C	2.123972	0.323759	0.249300
C103	C	1.472001	-0.327556	-0.303088
C104	C	1.805334	0.005778	0.030245
C105	C	2.138668	0.339111	0.363578
H106	H	0.827749	-0.431733	-0.617933
H107	H	1.161083	-0.098399	-0.284600
H108	H	1.494416	0.234934	0.048733
H109	H	0.842979	-0.291573	-0.792430
H110	H	1.176313	0.041760	-0.459096
H111	H	1.509646	0.375094	-0.125763
H112	H	1.020017	-0.324562	-0.751301
H113	H	1.353350	0.008771	-0.417968
H114	H	1.686683	0.342104	-0.084635
C115	C	1.551832	-0.244565	-1.253113
C116	C	1.885165	0.088769	-0.919779
C117	C	2.218498	0.422102	-0.586446
H118	H	1.551435	-0.244993	-1.180267
H119	H	1.884768	0.088340	-0.846933
H120	H	2.218101	0.421673	-0.513600
H121	H	1.534597	-0.183587	-1.268769
H122	H	1.867931	0.149746	-0.935436
H123	H	2.201264	0.483080	-0.602103
H124	H	1.618721	-0.253929	-1.279461
H125	H	1.952054	0.079405	-0.946127
H126	H	2.285388	0.412738	-0.612794
C127	C	0.991789	-0.481392	-0.556053
C128	C	1.325122	-0.148059	-0.222719
C129	C	1.658455	0.185274	0.110614
H130	H	1.044052	-0.508095	-0.522777
H131	H	1.377386	-0.174762	-0.189444
H132	H	1.710719	0.158571	0.143889
H133	H	0.944897	-0.532907	-0.590023
H134	H	1.278231	-0.199573	-0.256690
H135	H	1.611564	0.133760	0.076644
H136	H	0.955553	-0.442784	-0.506021
H137	H	1.288887	-0.109451	-0.172688
H138	H	1.622220	0.223882	0.160646
H139	H	1.489996	-0.308861	-1.089009
H140	H	1.823330	0.024472	-0.755676
H141	H	2.156663	0.357805	-0.422343
H142	H	1.315751	-0.490007	-1.104089
H143	H	1.649085	-0.156674	-0.770755
H144	H	1.982418	0.176660	-0.437422
H145	H	1.356830	-0.447283	-1.281158
H146	H	1.690163	-0.113949	-0.947824
H147	H	2.023496	0.219384	-0.614491
