data_functionalizedCrystal
_audit_creation_method	'MofGen! by Chris Wilmer'
_symmetry_space_group_name_H-M	'P1'
_symmetry_Int_Tables_number	1
_symmetry_cell_setting	triclinic
loop_
_symmetry_equiv_pos_as_xyz
  x,y,z
_cell_length_a	19.121063
_cell_length_b	12.827893
_cell_length_c	19.120904
_cell_angle_alpha	92.424760
_cell_angle_beta	94.741613
_cell_angle_gamma	92.468878
loop_
_atom_site_label
_atom_site_type_symbol
_atom_site_fract_x
_atom_site_fract_y
_atom_site_fract_z
Zn1	Zn	-0.297110	1.552666	-0.409734
Zn2	Zn	0.202890	2.052666	0.090266
Zn3	Zn	-0.409757	1.552537	-0.297085
Zn4	Zn	0.090243	2.052537	0.202915
Zn5	Zn	-0.292111	1.385706	-0.292091
Zn6	Zn	0.207889	1.885706	0.207909
Zn7	Zn	-0.414737	1.370073	-0.414710
Zn8	Zn	0.085263	1.870073	0.085290
O9	O	-0.353428	1.465246	-0.353405
O10	O	0.146572	1.965246	0.146595
O11	O	-0.312060	1.698884	-0.394799
O12	O	0.187940	2.198884	0.105201
O13	O	-0.389974	1.536895	-0.197962
O14	O	0.110026	2.036895	0.302038
O15	O	-0.194311	1.414451	-0.303524
O16	O	0.305689	1.914451	0.196476
O17	O	-0.394822	1.698789	-0.312036
O18	O	0.105178	2.198789	0.187964
O19	O	-0.197984	1.537115	-0.389956
O20	O	0.302016	2.037115	0.110044
O21	O	-0.303540	1.414325	-0.194293
O22	O	0.196460	1.914325	0.305707
O23	O	-0.308369	1.237398	-0.308349
O24	O	0.191631	1.737398	0.191651
O25	O	-0.403310	1.387806	-0.512510
O26	O	0.096690	1.887806	-0.012510
O27	O	-0.398462	1.225912	-0.398436
O28	O	0.101538	1.725912	0.101564
O29	O	-0.316890	1.521957	-0.508855
O30	O	0.183110	2.021957	-0.008855
O31	O	-0.508880	1.521736	-0.316861
O32	O	-0.008880	2.021736	0.183139
O33	O	-0.512539	1.387681	-0.403279
O34	O	-0.012539	1.887681	0.096721
C35	C	-0.353414	1.193738	-0.353391
C36	C	0.146586	1.693738	0.146609
C37	C	-0.353426	1.077583	-0.353403
C38	C	0.146574	1.577583	0.146597
C39	C	-0.536240	1.453025	-0.361167
C40	C	-0.036240	1.953025	0.138833
C41	C	-0.614449	1.447892	-0.364511
C42	C	-0.114449	1.947892	0.135489
C43	C	-0.398071	1.020142	-0.397918
C44	C	0.101929	1.520142	0.102082
C45	C	-0.398084	0.900090	-0.397930
C46	C	0.101916	1.400090	0.102070
C47	C	-0.649265	1.515325	-0.321126
C48	C	-0.149265	2.015325	0.178874
C49	C	-0.722751	1.510502	-0.324275
C50	C	-0.222751	2.010502	0.175725
C51	C	-0.761419	1.438241	-0.370806
C52	C	-0.261419	1.938241	0.129194
C53	C	-0.726598	1.370805	-0.414196
C54	C	-0.226598	1.870805	0.085804
C55	C	-0.653114	1.375633	-0.411050
C56	C	-0.153114	1.875633	0.088950
C57	C	-0.983391	1.420173	-0.382558
C58	C	-0.483391	1.920173	0.117442
C59	C	-1.056880	1.415348	-0.385699
C60	C	-0.556880	1.915348	0.114301
C61	C	-1.053027	1.555047	-0.295779
C62	C	-0.553027	2.055047	0.204221
C63	C	-0.979542	1.559865	-0.292634
C64	C	-0.479542	2.059865	0.207366
C65	C	-0.944727	1.492432	-0.336026
C66	C	-0.444727	1.992432	0.163974
C67	C	-0.836533	1.433308	-0.374025
C68	C	-0.336533	1.933308	0.125975
C69	C	-0.869615	1.497371	-0.332811
C70	C	-0.369615	1.997371	0.167189
C71	C	-0.169903	1.477541	-0.345628
C72	C	0.330097	1.977541	0.154372
C73	C	-0.091696	1.482781	-0.342314
C74	C	0.408304	1.982781	0.157686
C75	C	-0.361213	1.453152	-0.536926
C76	C	0.138787	1.953152	-0.036926
C77	C	-0.364530	1.447999	-0.615132
C78	C	0.135470	1.947999	-0.115132
C79	C	-0.353443	1.737814	-0.353420
C80	C	0.146557	2.237814	0.146580
C81	C	-0.353449	1.853966	-0.353426
C82	C	0.146551	2.353966	0.146574
C83	C	-0.321096	1.515419	-0.649971
C84	C	0.178904	2.015419	-0.149971
C85	C	-0.324211	1.510564	-0.723453
C86	C	0.175789	2.010564	-0.223453
C87	C	-0.370763	1.438293	-0.762096
C88	C	0.129237	1.938293	-0.262096
C89	C	-0.414198	1.370866	-0.727251
C90	C	0.085802	1.870866	-0.227251
C91	C	-0.411080	1.375716	-0.653770
C92	C	0.088920	1.875716	-0.153770
C93	C	-0.382425	1.420148	-0.984057
C94	C	0.117575	1.920148	-0.484057
C95	C	-0.385542	1.415305	-1.057543
C96	C	0.114458	1.915305	-0.557543
C97	C	-0.295553	1.555002	-1.053740
C98	C	0.204447	2.055002	-0.553740
C99	C	-0.292442	1.559851	-0.980258
C100	C	0.207558	2.059851	-0.480258
C101	C	-0.335875	1.492420	-0.945420
C102	C	0.164125	1.992420	-0.445420
C103	C	-0.373949	1.433331	-0.837207
C104	C	0.126051	1.933331	-0.337207
C105	C	-0.332685	1.497378	-0.870310
C106	C	0.167315	1.997378	-0.370310
C107	C	-0.345624	1.477356	-0.170596
C108	C	0.154376	1.977356	0.329404
C109	C	-0.342108	1.482725	-0.092382
C110	C	0.157892	1.982725	0.407618
H111	H	-0.436281	1.059843	-0.436021
H112	H	0.063719	1.559843	0.063979
Br113	Br	-0.437127	1.335254	-0.889655
Br114	Br	0.062873	1.835254	-0.389655
H115	H	-0.446441	1.320805	-0.625405
H116	H	0.053559	1.820805	-0.125405
Br117	Br	-0.461800	0.817801	-0.461450
Br118	Br	0.038200	1.317801	0.038550
H119	H	-0.315228	0.903336	-0.315310
H120	H	0.184772	1.403336	0.184690
H121	H	-0.423452	1.356450	-1.089004
H122	H	0.076548	1.856450	-0.589004
Br123	Br	-0.889018	1.335243	-0.437174
Br124	Br	-0.389018	1.835243	0.062826
Br125	Br	-0.769999	1.602029	-0.265397
Br126	Br	-0.269999	2.102029	0.234603
Br127	Br	-0.289726	1.011424	-0.289899
Br128	Br	0.210274	1.511424	0.210101
H129	H	-0.955051	1.365265	-0.417889
H130	H	-0.455051	1.865265	0.082111
H131	H	-0.288844	1.565467	-0.751816
H132	H	0.211156	2.065467	-0.251816
H133	H	-0.617786	1.574163	-0.283232
H134	H	-0.117786	2.074163	0.216768
H135	H	-0.948059	1.618705	-0.254744
H136	H	-0.448059	2.118705	0.245256
H137	H	-1.088362	1.356516	-0.423603
H138	H	-0.588362	1.856516	0.076397
Br139	Br	-1.100279	1.646562	-0.236896
Br140	Br	-0.600279	2.146562	0.263104
H141	H	-0.624768	1.320723	-0.446380
H142	H	-0.124768	1.820723	0.053620
Br143	Br	-0.779076	1.272743	-0.477353
Br144	Br	-0.279076	1.772743	0.022647
Br145	Br	-0.229264	1.657939	-0.927820
Br146	Br	0.270736	2.157939	-0.427820
H147	H	-0.260191	1.609899	-1.082113
H148	H	0.239809	2.109899	-0.582113
H149	H	-0.838129	1.556210	-0.294928
H150	H	-0.338129	2.056210	0.205072
Br151	Br	-0.257921	1.613513	-0.597535
Br152	Br	0.242079	2.113513	-0.097535
Br153	Br	-0.477373	1.272776	-0.779693
Br154	Br	0.022627	1.772776	-0.279693
H155	H	-0.294779	1.556216	-0.838844
H156	H	0.205221	2.056216	-0.338844
H157	H	-0.417802	1.365256	-0.955701
H158	H	0.082198	1.865256	-0.455701
