data_functionalizedCrystal
_audit_creation_method	'MofGen! by Chris Wilmer'
_symmetry_space_group_name_H-M	'P1'
_symmetry_Int_Tables_number	1
_symmetry_cell_setting	triclinic
loop_
_symmetry_equiv_pos_as_xyz
  x,y,z
_cell_length_a	27.732048
_cell_length_b	26.210047
_cell_length_c	27.732048
_cell_angle_alpha	89.999521
_cell_angle_beta	97.357345
_cell_angle_gamma	90.003465
loop_
_atom_site_label
_atom_site_type_symbol
_atom_site_fract_x
_atom_site_fract_y
_atom_site_fract_z
O1	O	0.640931	0.042369	-0.057510
O2	O	0.500138	0.042385	-0.066256
O3	O	0.574907	0.042367	0.008514
O4	O	0.566162	0.042387	-0.132279
O5	O	0.574893	-0.042491	0.008502
O6	O	0.500123	-0.042473	-0.066267
O7	O	0.640917	-0.042489	-0.057522
Cu8	Cu	0.570519	-0.050229	-0.061896
Cu9	Cu	0.570536	0.050125	-0.061882
O10	O	0.566147	-0.042471	-0.132291
C11	C	0.482124	-0.000042	-0.066078
C12	C	0.428469	-0.000036	-0.065525
N13	N	0.570510	-0.120813	-0.061905
C14	C	0.089654	-0.000053	-0.106229
C15	C	-0.112006	-0.000057	-0.104178
O16	O	-0.143262	-0.000074	-0.141398
N17	N	-0.131130	-0.000063	-0.059843
C18	C	-0.099835	-0.000071	-0.016017
O19	O	-0.120728	-0.000081	0.021740
C20	C	0.101824	-0.000069	-0.018068
C21	C	0.120944	-0.000059	-0.062407
C22	C	0.108775	-0.000043	-0.150563
C23	C	0.159187	-0.000039	-0.151076
C24	C	0.190477	-0.000045	-0.107253
C25	C	0.171356	-0.000055	-0.062919
C26	C	0.133117	-0.000081	0.025757
C27	C	0.183535	-0.000082	0.025240
C28	C	0.202655	-0.000071	-0.019098
C29	C	0.253059	-0.000057	-0.019609
N30	N	0.272183	-0.000051	-0.063944
C31	C	0.240892	-0.000045	-0.107766
C32	C	-0.205709	-0.000070	-0.014943
C33	C	-0.256124	-0.000070	-0.014430
C34	C	-0.268291	-0.000057	-0.102591
C35	C	-0.217876	-0.000054	-0.103104
C36	C	-0.186585	-0.000065	-0.059278
C37	C	0.346761	-0.000036	-0.108839
C38	C	0.397178	-0.000030	-0.109347
C39	C	0.409341	-0.000045	-0.021186
C40	C	0.358929	-0.000049	-0.020678
C41	C	0.327639	-0.000046	-0.064508
O42	O	0.284343	-0.000046	0.017592
O43	O	0.261794	-0.000047	-0.145518
C44	C	0.039242	-0.000057	-0.105716
C45	C	0.020120	-0.000067	-0.061382
C46	C	0.051411	-0.000073	-0.017560
C47	C	-0.030294	-0.000066	-0.060869
C48	C	-0.061585	-0.000060	-0.104691
C49	C	-0.042461	-0.000054	-0.149026
C50	C	0.007951	-0.000050	-0.149539
C51	C	0.032287	-0.000078	0.026775
C52	C	-0.018125	-0.000082	0.027284
C53	C	-0.049416	-0.000076	-0.016538
C54	C	0.603640	-0.473336	-0.028781
C55	C	0.603651	-0.686994	-0.028774
O56	O	0.631801	-0.714623	-0.000614
N57	N	0.570538	-0.713707	-0.061871
C58	C	0.537419	-0.687003	-0.094970
O59	O	0.509251	-0.714626	-0.123117
C60	C	0.537406	-0.473345	-0.094974
C61	C	0.570524	-0.446635	-0.061878
C62	C	0.636755	-0.446625	0.004312
C63	C	0.636754	-0.393214	0.004308
C64	C	0.603638	-0.366513	-0.028789
C65	C	0.570523	-0.393223	-0.061882
C66	C	0.504284	-0.446641	-0.128070
C67	C	0.504283	-0.393223	-0.128067
C68	C	0.537401	-0.366513	-0.094971
C69	C	0.537405	-0.313111	-0.094983
N70	N	0.570518	-0.286397	-0.061886
C71	C	0.603634	-0.313098	-0.028789
C72	C	0.537428	-0.799176	-0.094966
C73	C	0.537432	-0.852590	-0.094965
C74	C	0.603664	-0.852578	-0.028769
C75	C	0.603662	-0.799163	-0.028773
C76	C	0.570541	-0.772463	-0.061869
C77	C	0.603629	-0.200931	-0.028800
C78	C	0.603626	-0.147514	-0.028808
C79	C	0.537393	-0.147531	-0.095002
C80	C	0.537397	-0.200943	-0.094996
C81	C	0.570517	-0.227641	-0.061891
O82	O	0.509267	-0.285449	-0.123125
O83	O	0.631790	-0.285466	-0.000639
C84	C	0.603641	-0.526747	-0.028777
C85	C	0.570527	-0.553457	-0.061871
C86	C	0.537410	-0.526756	-0.094968
C87	C	0.570530	-0.606872	-0.061870
C88	C	0.603646	-0.633573	-0.028773
C89	C	0.636759	-0.606859	0.004323
C90	C	0.636758	-0.553448	0.004320
C91	C	0.504298	-0.553470	-0.128064
C92	C	0.504302	-0.606881	-0.128058
C93	C	0.537418	-0.633582	-0.094961
C94	C	0.658931	-0.000061	-0.057699
C95	C	0.712586	-0.000064	-0.058252
C96	C	0.574716	-0.000064	0.026515
C97	C	0.574164	-0.000068	0.080170
N98	N	0.570548	0.120709	-0.061868
C99	C	0.566338	-0.000040	-0.150292
C100	C	0.566891	-0.000032	-0.203947
C101	C	0.614867	-0.000046	0.418985
C102	C	0.612816	-0.000039	0.620645
O103	O	0.650037	-0.000021	0.651900
N104	N	0.568481	-0.000034	0.639768
C105	C	0.524656	-0.000028	0.608474
O106	O	0.486899	-0.000019	0.629367
C107	C	0.526707	-0.000032	0.406815
C108	C	0.571045	-0.000042	0.387694
C109	C	0.659202	-0.000056	0.399864
C110	C	0.659714	-0.000060	0.349452
C111	C	0.615892	-0.000056	0.318161
C112	C	0.571557	-0.000046	0.337282
C113	C	0.482882	-0.000022	0.375521
C114	C	0.483399	-0.000022	0.325104
C115	C	0.527737	-0.000032	0.305983
C116	C	0.528247	-0.000046	0.255580
N117	N	0.572583	-0.000051	0.236456
C118	C	0.616405	-0.000056	0.267747
C119	C	0.523582	-0.000027	0.714348
C120	C	0.523069	-0.000027	0.764762
C121	C	0.611230	-0.000037	0.776930
C122	C	0.611742	-0.000041	0.726514
C123	C	0.567917	-0.000032	0.695224
C124	C	0.617477	-0.000066	0.161878
C125	C	0.617986	-0.000073	0.111461
C126	C	0.529825	-0.000060	0.099298
C127	C	0.529316	-0.000056	0.149710
C128	C	0.573147	-0.000057	0.180999
O129	O	0.491047	-0.000059	0.224296
O130	O	0.654156	-0.000054	0.246844
C131	C	0.614355	-0.000042	0.469397
C132	C	0.570021	-0.000033	0.488518
C133	C	0.526198	-0.000028	0.457228
C134	C	0.569508	-0.000033	0.538933
C135	C	0.613330	-0.000037	0.570223
C136	C	0.657665	-0.000042	0.551100
C137	C	0.658177	-0.000046	0.500688
C138	C	0.481863	-0.000023	0.476351
C139	C	0.481355	-0.000019	0.526764
C140	C	0.525177	-0.000024	0.558054
H141	H	0.412743	-0.000021	-0.145454
F142	F	0.442651	-0.000053	0.025450
F143	F	0.672006	-0.525027	0.039545
F144	F	0.435219	-0.000017	0.443055
H145	H	0.694889	-0.000058	0.425336
F146	F	0.313468	-0.000034	-0.155488
F147	F	0.469029	-0.364811	-0.163293
F148	F	0.179530	-0.000030	-0.198267
H149	H	0.654093	-0.000082	0.095896
H150	H	0.630629	-0.777418	-0.001823
H151	H	0.493213	-0.000062	0.165279
F152	F	0.434160	-0.000012	0.547107
H153	H	0.663725	-0.628608	0.031271
F154	F	0.476933	-0.000018	0.681052
F155	F	0.469035	-0.475059	-0.163294
H156	H	0.695819	-0.000066	0.333889
F157	F	-0.172413	-0.000081	0.031705
F158	F	0.436752	-0.000011	0.291805
F159	F	0.075480	-0.000036	-0.197209
F160	F	0.216833	-0.000094	0.071886
F161	F	-0.197531	-0.000044	-0.150294
F162	F	0.705368	-0.000054	0.480345
H163	H	-0.293777	-0.000053	-0.138273
H164	H	0.510432	-0.125783	-0.121951
H165	H	0.653168	-0.000065	0.187348
H166	H	0.646911	-0.000041	0.802415
F167	F	-0.276468	-0.000070	0.032761
F168	F	0.469053	-0.635303	-0.163288
H169	H	0.117558	-0.000090	0.061861
F170	F	0.469049	-0.525058	-0.163292
F171	F	0.338578	-0.000060	0.026511
H172	H	0.630629	-0.874327	-0.001821
F173	F	0.658932	-0.000051	0.706169
F174	F	0.502189	-0.881012	-0.130196
F175	F	0.502175	-0.770765	-0.130195
F176	F	0.483189	-0.000055	0.065987
F177	F	0.475878	-0.000026	0.785106
F178	F	0.028294	-0.000039	-0.196730
F179	F	0.502154	-0.229369	-0.130225
H180	H	0.057760	-0.000085	0.062462
F181	F	-0.075772	-0.000045	-0.195665
H182	H	0.446777	-0.000011	0.391080
H183	H	-0.033688	-0.000086	0.063392
F184	F	0.638877	-0.119090	0.006417
F185	F	0.704304	-0.000049	0.584410
H186	H	0.663720	-0.371469	0.031259
F187	F	0.638879	-0.229337	0.006434
H188	H	0.663722	-0.468360	0.031266
