data_functionalizedCrystal
_audit_creation_method	'MofGen! by Chris Wilmer'
_symmetry_space_group_name_H-M	'P1'
_symmetry_Int_Tables_number	1
_symmetry_cell_setting	triclinic
loop_
_symmetry_equiv_pos_as_xyz
  x,y,z
_cell_length_a	14.044220
_cell_length_b	23.532407
_cell_length_c	12.503572
_cell_angle_alpha	93.496478
_cell_angle_beta	86.164750
_cell_angle_gamma	88.018778
loop_
_atom_site_label
_atom_site_type_symbol
_atom_site_fract_x
_atom_site_fract_y
_atom_site_fract_z
O1	O	1.261903	0.134222	-0.089227
O2	O	0.985982	0.129269	-0.089253
O3	O	1.132262	0.049265	-0.089219
O4	O	1.115623	0.214225	-0.089260
O5	O	1.121261	0.055293	0.089420
O6	O	0.974981	0.135296	0.089386
O7	O	1.250902	0.140249	0.089413
Cu8	Cu	1.111937	0.138323	0.105711
Cu9	Cu	1.124947	0.131195	-0.105551
O10	O	1.104622	0.220253	0.089379
C11	C	0.945188	0.130115	0.000063
C12	C	0.840023	0.123648	0.000054
C13	C	0.647472	0.111828	0.000078
C14	C	0.589407	0.157687	0.000072
C15	C	0.482265	0.151110	0.000085
C16	C	0.754624	0.118404	0.000065
C17	C	1.126337	0.031040	0.000103
C18	C	1.125063	-0.032246	0.000111
C19	C	1.203641	-0.427092	0.000060
C20	C	1.202458	-0.486556	0.000051
O21	O	1.275300	-0.519354	0.000019
N22	N	1.115494	-0.513896	0.000044
C23	C	1.029708	-0.481769	0.000034
O24	O	0.955630	-0.510484	0.000026
C25	C	1.030893	-0.422305	0.000034
C26	C	1.117862	-0.394968	0.000053
C27	C	1.290603	-0.399754	0.000077
C28	C	1.291786	-0.340294	0.000087
C29	C	1.206006	-0.308170	0.000080
C30	C	1.119044	-0.335508	0.000063
C31	C	0.945109	-0.390179	0.000016
C32	C	0.946301	-0.330712	0.000016
C33	C	1.033270	-0.303375	0.000035
C34	C	1.034447	-0.243924	0.000066
N35	N	1.121411	-0.216584	0.000074
C36	C	1.207191	-0.248707	0.000081
C37	C	1.027228	-0.606646	0.000031
C38	C	1.026042	-0.666108	0.000038
C39	C	1.198792	-0.670891	0.000053
C40	C	1.199976	-0.611428	0.000054
C41	C	1.114192	-0.579306	0.000038
C42	C	1.209668	-0.123835	0.000103
C43	C	1.210842	-0.064369	0.000118
C44	C	1.038093	-0.059591	0.000097
C45	C	1.036917	-0.119052	0.000088
C46	C	1.122713	-0.151173	0.000087
O47	O	0.961644	-0.211090	0.000095
O48	O	1.281258	-0.219985	0.000075
C49	C	1.291696	0.139403	0.000094
C50	C	1.396861	0.145869	0.000096
C51	C	1.110547	0.238478	0.000054
C52	C	1.111822	0.301763	0.000039
N53	N	1.102793	0.143337	0.254301
N54	N	1.134098	0.126177	-0.254141
C55	C	1.089342	0.150717	0.473413
C56	C	1.147546	0.118799	0.526753
C57	C	1.140062	0.122905	0.648675
C58	C	1.096825	0.146611	0.351480
H59	H	0.620163	0.201888	0.000055
O60	O	1.023069	0.186932	0.528115
C61	C	0.855997	0.213206	0.562752
C62	C	0.930945	0.172146	0.500737
H63	H	0.781499	0.201274	0.540623
H64	H	0.861592	0.210091	0.652763
H65	H	0.869427	0.258683	0.540725
H66	H	0.917563	0.126652	0.522673
H67	H	0.925331	0.175310	0.410741
O68	O	0.943836	-0.575510	-0.000112
C69	C	0.802267	-0.556328	-0.092697
C70	C	0.896668	-0.591633	-0.092655
H71	H	0.764114	-0.569342	-0.167521
H72	H	0.754780	-0.564338	-0.017990
H73	H	0.818057	-0.509132	-0.092642
H74	H	0.880966	-0.638840	-0.092748
H75	H	0.944126	-0.583574	-0.167355
O76	O	0.860640	-0.416747	0.000177
C77	C	0.753341	-0.478012	0.092642
C78	C	0.849021	-0.447946	0.092613
H79	H	0.743925	-0.503254	0.167356
H80	H	0.692201	-0.444853	0.092696
H81	H	0.753094	-0.508220	0.017839
H82	H	0.849361	-0.417740	0.167402
H83	H	0.910118	-0.481136	0.092502
H84	H	0.616718	0.067631	0.000095
H85	H	1.281666	-0.042114	0.000136
O86	O	1.293092	-0.154945	0.000155
C87	C	1.464562	-0.153399	0.000121
C88	C	1.370156	-0.118099	0.000079
H89	H	1.526895	-0.123625	0.000037
H90	H	1.463792	-0.178828	0.074896
H91	H	1.472890	-0.183887	-0.074624
H92	H	1.361769	-0.087581	0.074774
H93	H	1.370969	-0.092709	-0.074746
H94	H	1.362605	-0.318041	0.000098
O95	O	1.374021	-0.430866	0.000135
C96	C	1.545491	-0.429316	0.000107
C97	C	1.451083	-0.394019	0.000055
H98	H	1.607821	-0.399541	0.000020
H99	H	1.544720	-0.454741	0.074888
H100	H	1.553822	-0.459808	-0.074632
H101	H	1.442691	-0.363496	0.074744
H102	H	1.451896	-0.368633	-0.074776
H103	H	1.270794	-0.589174	0.000068
O104	O	0.862876	-0.299594	0.000049
C105	C	0.691413	-0.301133	-0.000051
C106	C	0.785816	-0.336441	-0.000064
H107	H	0.629087	-0.330910	-0.000165
H108	H	0.682968	-0.270672	0.074729
H109	H	0.692306	-0.275675	-0.074791
H110	H	0.784990	-0.361933	0.074625
H111	H	0.794225	-0.366866	-0.074894
H112	H	0.955222	-0.688360	0.000041
O113	O	1.282109	-0.702133	-0.000142
C114	C	1.386681	-0.775189	-0.092671
C115	C	1.292316	-0.739838	-0.092594
H116	H	1.394954	-0.805691	-0.167399
H117	H	1.449088	-0.745469	-0.092734
H118	H	1.385829	-0.800608	-0.017882
H119	H	1.293075	-0.714415	-0.167371
H120	H	1.229951	-0.769588	-0.092475
H121	H	1.202998	0.088389	0.480853
H122	H	0.966098	-0.141310	0.000102
O123	O	0.954809	-0.028361	-0.000104
C124	C	0.861642	0.038472	-0.092641
C125	C	0.955994	0.003123	-0.092549
H126	H	0.862577	0.063945	-0.167364
H127	H	0.799242	0.008749	-0.092725
H128	H	0.853284	0.068924	-0.017846
H129	H	0.964444	-0.027332	-0.167331
H130	H	1.018346	0.032880	-0.092409
