data_functionalizedCrystal
_audit_creation_method	'MofGen! by Chris Wilmer'
_symmetry_space_group_name_H-M	'P1'
_symmetry_Int_Tables_number	1
_symmetry_cell_setting	triclinic
loop_
_symmetry_equiv_pos_as_xyz
  x,y,z
_cell_length_a	10.654550
_cell_length_b	9.730223
_cell_length_c	10.654550
_cell_angle_alpha	89.998791
_cell_angle_beta	95.515069
_cell_angle_gamma	89.996981
loop_
_atom_site_label
_atom_site_type_symbol
_atom_site_fract_x
_atom_site_fract_y
_atom_site_fract_z
O1	O	1.667834	0.114187	-0.176394
O2	O	1.302355	0.114212	-0.193200
O3	O	1.493498	0.114190	-0.002057
O4	O	1.476692	0.114209	-0.367536
O5	O	1.493496	-0.114390	-0.002062
O6	O	1.302353	-0.114368	-0.193204
O7	O	1.667832	-0.114393	-0.176398
Zn8	Zn	1.485092	-0.150672	-0.184802
Zn9	Zn	1.485095	0.150492	-0.184796
O10	O	1.476689	-0.114371	-0.367541
C11	C	1.255556	-0.000075	-0.191968
C12	C	1.116113	-0.000065	-0.188276
N13	N	1.485099	-0.356209	-0.184806
C14	C	1.036628	-0.000064	-0.300818
C15	C	0.905607	-0.000088	-0.297341
C16	C	0.933570	-0.000109	-0.068772
C17	C	1.064588	-0.000095	-0.072250
C18	C	1.569759	-0.428144	-0.100197
C19	C	1.569756	-0.572027	-0.100182
C20	C	1.400429	-0.572026	-0.269395
C21	C	1.400427	-0.428146	-0.269403
C22	C	1.654431	-0.356207	-0.015599
C23	C	1.739099	-0.428143	0.069015
C24	C	1.739096	-0.572026	0.069031
C25	C	1.654425	-0.643973	-0.015569
C26	C	1.714631	-0.000103	-0.177630
C27	C	1.854074	-0.000104	-0.181322
C28	C	1.492263	-0.000099	0.044738
C29	C	1.488571	-0.000096	0.184181
N30	N	1.485098	0.356028	-0.184782
C31	C	1.477925	-0.000079	-0.414336
C32	C	1.481617	-0.000072	-0.553779
C33	C	1.601112	-0.000104	0.263667
C34	C	1.597636	-0.000087	0.394688
C35	C	1.369066	-0.000061	0.366725
C36	C	1.372544	-0.000068	0.235706
H37	H	1.078574	-0.000049	-0.395294
C38	C	1.241448	-0.000049	0.423407
H39	H	1.255493	-0.000061	0.512821
H40	H	1.195058	0.079663	0.396189
H41	H	1.195065	-0.079769	0.396192
H42	H	1.129309	-0.000100	0.019401
C43	C	1.654436	-0.197942	-0.015620
H44	H	1.591894	-0.165402	-0.078133
H45	H	1.636566	-0.165374	0.064809
H46	H	1.734855	-0.165411	-0.033578
C47	C	0.818178	-0.000076	-0.421137
H48	H	0.867634	-0.000046	-0.490731
H49	H	0.766496	-0.079792	-0.424544
H50	H	0.766477	0.079640	-0.424522
H51	H	1.808028	-0.369556	0.137901
C52	C	1.307311	-0.651165	-0.362456
H53	H	1.319447	-0.747157	-0.350341
H54	H	1.223375	-0.627585	-0.348043
H55	H	1.321686	-0.627587	-0.446409
C56	C	1.307310	-0.349011	-0.362477
H57	H	1.256896	-0.412459	-0.412872
H58	H	1.254644	-0.292876	-0.316814
H59	H	1.352949	-0.292892	-0.415185
C60	C	1.721428	-0.000089	0.482122
H61	H	1.702745	-0.000064	0.567533
H62	H	1.768956	-0.079805	0.466406
H63	H	1.768951	0.079627	0.466381
C64	C	1.248746	-0.000053	0.148261
H65	H	1.267437	-0.000044	0.062853
H66	H	1.201207	-0.079754	0.163984
H67	H	1.201230	0.079678	0.163986
H68	H	1.808026	-0.630595	0.137935
C69	C	0.876894	-0.000126	0.058850
H70	H	0.943001	-0.000136	0.125378
H71	H	0.826355	0.079581	0.064961
H72	H	0.826375	-0.079851	0.064955
C73	C	1.654412	-0.802241	-0.015551
H74	H	1.591860	-0.834783	-0.078049
H75	H	1.734825	-0.834804	-0.033481
H76	H	1.636520	-0.834776	0.064890
H77	H	1.695588	-0.000124	0.221720
