data_functionalizedCrystal
_audit_creation_method	'MofGen! by Chris Wilmer'
_symmetry_space_group_name_H-M	'P1'
_symmetry_Int_Tables_number	1
_symmetry_cell_setting	triclinic
loop_
_symmetry_equiv_pos_as_xyz
  x,y,z
_cell_length_a	15.995350
_cell_length_b	19.288865
_cell_length_c	17.766277
_cell_angle_alpha	90.011603
_cell_angle_beta	89.997008
_cell_angle_gamma	96.685688
loop_
_atom_site_label
_atom_site_type_symbol
_atom_site_fract_x
_atom_site_fract_y
_atom_site_fract_z
O1	O	1.110654	-0.089532	-0.062492
O2	O	0.866837	-0.100588	-0.062519
O3	O	0.995790	0.006052	-0.062490
O4	O	0.981700	-0.196172	-0.062521
O5	O	0.995768	0.006058	0.062699
O6	O	0.866814	-0.100582	0.062670
O7	O	1.110631	-0.089526	0.062697
Cu8	Cu	0.988720	-0.095054	0.074114
Cu9	Cu	0.988747	-0.095060	-0.073936
O10	O	0.981677	-0.196166	0.062667
C11	C	0.835632	-0.100128	0.000072
C12	C	0.742687	-0.098757	0.000063
C13	C	0.995326	0.031933	0.000107
C14	C	0.993965	0.109040	0.000113
C15	C	1.141835	-0.089986	0.000104
C16	C	1.234781	-0.091356	0.000109
C17	C	1.572509	-0.096277	0.000078
C18	C	1.524789	-0.172224	0.000349
C19	C	1.428104	-0.170854	0.000075
C20	C	1.404958	-0.093836	0.000094
C21	C	1.446173	-0.056380	-0.071391
C22	C	1.542802	-0.058287	-0.071459
C23	C	1.543173	-0.056713	0.070904
C24	C	1.446228	-0.056731	0.071857
C25	C	1.310266	-0.092453	0.000100
C26	C	1.667202	-0.097659	0.000066
C27	C	0.982142	-0.222047	0.000069
C28	C	0.983503	-0.299154	0.000058
N29	N	0.988708	-0.095049	0.178244
C30	C	1.069629	0.153540	0.000125
C31	C	1.068350	0.225990	0.000113
C32	C	0.991403	0.253937	0.000104
C33	C	0.915729	0.209428	0.000088
C34	C	0.917010	0.136979	0.000092
C35	C	0.930906	0.362384	0.043948
C36	C	0.929628	0.434832	0.043949
C37	C	0.987450	0.477393	0.000087
C38	C	1.046563	0.447500	-0.043765
C39	C	1.047844	0.375051	-0.043760
C40	C	0.990006	0.332495	0.000099
C41	C	1.061733	0.600453	0.000085
C42	C	1.060451	0.672904	0.000068
C43	C	0.907827	0.656340	0.000050
C44	C	0.909111	0.583890	0.000060
C45	C	0.986066	0.555951	0.000080
N46	N	0.988766	-0.095060	-0.178066
C47	C	1.045827	-0.047852	0.217644
C48	C	1.045832	-0.047848	0.296446
C49	C	0.988725	-0.095054	0.335845
C50	C	0.931596	-0.142255	0.296435
C51	C	0.931587	-0.142252	0.217635
C52	C	0.977516	-0.158313	0.460672
C53	C	0.977531	-0.158317	0.539471
C54	C	0.988748	-0.095063	0.578891
C55	C	0.999968	-0.031802	0.539503
C56	C	0.999959	-0.031800	0.460702
C57	C	0.988728	-0.095062	0.421290
C58	C	1.045875	-0.047858	0.703737
C59	C	1.045874	-0.047854	0.782540
C60	C	0.931642	-0.142267	0.782528
C61	C	0.931639	-0.142265	0.703726
C62	C	0.988760	-0.095061	0.664336
H63	H	1.543210	-0.202578	0.051606
C64	C	1.154279	0.122810	0.000134
C65	C	1.217050	0.139619	0.065145
C66	C	1.301701	0.108889	0.065149
C67	C	1.323581	0.061351	0.000143
C68	C	1.260809	0.044540	-0.064872
C69	C	1.176158	0.075269	-0.064877
H70	H	1.200854	0.174812	0.113270
H71	H	1.348169	0.121334	0.113278
H72	H	1.386245	0.038603	0.000146
H73	H	1.277005	0.009347	-0.112998
H74	H	1.129690	0.062824	-0.113005
H75	H	1.009102	0.019705	0.571597
C76	C	0.868815	-0.194189	0.660380
C77	C	0.806019	-0.246136	0.703709
C78	C	0.743190	-0.298061	0.660362
C79	C	0.743157	-0.298039	0.573685
C80	C	0.805955	-0.246090	0.530350
C81	C	0.868784	-0.194165	0.573698
H82	H	0.806042	-0.246154	0.767877
H83	H	0.696703	-0.336517	0.692442
H84	H	0.696648	-0.336477	0.541596
H85	H	0.805933	-0.246072	0.466182
H86	H	0.915271	-0.155709	0.541618
H87	H	1.009093	0.019709	0.428636
H88	H	1.129967	0.262229	0.000120
C89	C	1.110170	0.494308	-0.092021
C90	C	1.175185	0.461428	-0.140257
C91	C	1.238790	0.508239	-0.188510
C92	C	1.237380	0.587929	-0.188527
C93	C	1.172361	0.620813	-0.140290
C94	C	1.108756	0.574002	-0.092036
H95	H	1.176232	0.402432	-0.140246
H96	H	1.286921	0.483895	-0.224219
H97	H	1.284464	0.622581	-0.224247
H98	H	1.171315	0.679809	-0.140300
H99	H	1.060626	0.598346	-0.056328
H100	H	0.885142	-0.180700	0.814606
C101	C	1.108671	0.004068	0.339796
C102	C	1.171524	0.055967	0.296466
C103	C	1.234365	0.107883	0.339813
C104	C	1.234353	0.107899	0.426490
C105	C	1.171497	0.055998	0.469825
C106	C	1.108657	0.004083	0.426478
H107	H	1.171535	0.055957	0.232298
H108	H	1.280894	0.146303	0.307733
H109	H	1.280871	0.146330	0.458578
H110	H	1.171486	0.056009	0.533993
H111	H	1.062127	-0.034338	0.458558
H112	H	1.544265	-0.202447	-0.050638
H113	H	1.095974	0.350715	-0.079468
H114	H	1.092384	-0.009420	0.671664
H115	H	1.092385	-0.009417	0.814620
H116	H	0.845176	0.679094	0.000039
H117	H	0.968400	-0.209827	0.571535
C118	C	0.965181	-0.227898	0.417314
C119	C	0.952855	-0.297480	0.460635
C120	C	0.940520	-0.367062	0.417278
C121	C	0.940511	-0.367062	0.330601
C122	C	0.952837	-0.297478	0.287276
C123	C	0.965172	-0.227896	0.330632
H124	H	0.952861	-0.297482	0.524803
H125	H	0.931395	-0.418573	0.449351
H126	H	0.931380	-0.418571	0.298506
H127	H	0.952830	-0.297476	0.223108
H128	H	0.974297	-0.176385	0.298560
H129	H	1.431080	-0.000566	0.076186
C130	C	1.427379	0.020060	-0.074975
C131	C	1.379402	0.045693	-0.142736
C132	C	1.360606	0.122132	-0.146319
C133	C	1.389787	0.172937	-0.082141
C134	C	1.437767	0.147304	-0.014374
C135	C	1.456563	0.070865	-0.010791
H136	H	1.357797	0.008084	-0.190249
H137	H	1.325088	0.141107	-0.196485
H138	H	1.375874	0.229522	-0.084793
H139	H	1.459372	0.184914	0.033139
H140	H	1.492081	0.051891	0.039374
C141	C	1.390297	-0.210901	-0.069276
C142	C	1.448093	-0.244226	-0.124584
C143	C	1.410286	-0.284276	-0.193937
C144	C	1.314684	-0.291000	-0.207983
C145	C	1.256882	-0.257674	-0.152674
C146	C	1.294688	-0.217624	-0.083320
H147	H	1.518869	-0.239249	-0.114187
H148	H	1.453076	-0.308946	-0.234881
H149	H	1.286697	-0.320647	-0.259323
H150	H	1.186106	-0.262651	-0.163070
H151	H	1.251899	-0.192954	-0.042377
C152	C	1.567389	-0.095196	-0.143657
C153	C	1.660227	-0.104571	-0.158664
C154	C	1.684809	-0.141481	-0.230863
C155	C	1.616554	-0.169017	-0.288055
C156	C	1.523710	-0.159643	-0.273050
C157	C	1.499128	-0.122733	-0.200850
H158	H	1.710759	-0.084186	-0.116325
H159	H	1.753539	-0.148420	-0.241970
H160	H	1.634751	-0.196340	-0.341501
H161	H	1.473178	-0.180027	-0.315388
H162	H	1.430398	-0.115794	-0.189743
H163	H	1.124394	0.577704	0.000098
H164	H	1.575143	-0.000716	0.071393
H165	H	1.417667	-0.082382	-0.124593
H166	H	0.853078	0.232187	0.000079
H167	H	1.563624	-0.081540	0.125081
H168	H	1.418829	-0.084081	0.124740
C169	C	0.825878	0.534935	0.000060
C170	C	0.741236	0.565671	0.000052
C171	C	0.657998	0.516716	0.000052
C172	C	0.659404	0.437025	0.000059
C173	C	0.744049	0.406285	0.000066
C174	C	0.827287	0.455240	0.000067
H175	H	0.740193	0.624667	0.000047
H176	H	0.595338	0.539472	0.000046
H177	H	0.597786	0.400785	0.000058
H178	H	0.745093	0.347289	0.000072
H179	H	0.889947	0.432484	0.000073
H180	H	0.885073	-0.180686	0.185555
C181	C	0.864604	0.467711	0.092181
C182	C	0.800988	0.420897	0.140414
C183	C	0.735960	0.453774	0.188646
C184	C	0.734549	0.533465	0.188645
C185	C	0.798168	0.580283	0.140411
C186	C	0.863195	0.547406	0.092179
H187	H	0.802030	0.361901	0.140416
H188	H	0.688866	0.419116	0.224352
H189	H	0.686412	0.557802	0.224349
H190	H	0.797125	0.639279	0.140408
H191	H	0.910290	0.582064	0.056472
H192	H	1.122068	0.709136	0.000074
H193	H	0.885098	-0.180689	0.328518
C194	C	0.833774	0.088024	0.000086
C195	C	0.770654	0.091136	-0.064929
C196	C	0.687417	0.042180	-0.064933
C197	C	0.667300	-0.009887	0.000078
C198	C	0.730422	-0.013001	0.065097
C199	C	0.813658	0.035955	0.065101
H200	H	0.785544	0.129680	-0.113058
H201	H	0.640690	0.044484	-0.113065
H202	H	0.605683	-0.046128	0.000075
H203	H	0.715531	-0.051546	0.113226
H204	H	0.860385	0.033651	0.113234
H205	H	1.399573	-0.200301	0.051315
H206	H	1.575260	-0.002529	-0.074705
H207	H	0.883818	0.327735	0.079670
H208	H	1.092336	-0.009414	0.185574
