data_functionalizedCrystal
_audit_creation_method	'MofGen! by Chris Wilmer'
_symmetry_space_group_name_H-M	'P1'
_symmetry_Int_Tables_number	1
_symmetry_cell_setting	triclinic
loop_
_symmetry_equiv_pos_as_xyz
  x,y,z
_cell_length_a	8.634740
_cell_length_b	14.044220
_cell_length_c	7.088929
_cell_angle_alpha	96.793068
_cell_angle_beta	82.825325
_cell_angle_gamma	96.879592
loop_
_atom_site_label
_atom_site_type_symbol
_atom_site_fract_x
_atom_site_fract_y
_atom_site_fract_z
O1	O	2.074435	0.321381	0.159014
O2	O	1.621873	0.295137	0.159014
O3	O	1.841363	0.169653	0.158995
O4	O	1.854945	0.446865	0.159033
O5	O	1.870689	0.152839	-0.158983
O6	O	1.651200	0.278322	-0.158964
O7	O	2.103762	0.304567	-0.158964
Cu8	Cu	1.880158	0.289909	-0.187998
Cu9	Cu	1.845476	0.309794	0.188048
O10	O	1.884272	0.430051	-0.158945
C11	C	1.578269	0.280784	0.000025
C12	C	1.404647	0.263058	0.000024
C13	C	1.850079	0.125388	0.000005
C14	C	1.832341	0.018542	0.000003
C15	C	1.799908	-0.177080	0.000030
C16	C	1.925719	-0.223222	0.000036
C17	C	1.907673	-0.332073	0.000052
C18	C	1.817951	-0.068219	0.000015
C19	C	2.147366	0.318919	0.000029
C20	C	2.320986	0.336647	0.000042
C21	C	1.875555	0.474316	0.000049
C22	C	1.893293	0.581162	0.000064
N23	N	1.904563	0.275924	-0.452488
N24	N	1.821083	0.323773	0.452538
H25	H	1.382189	0.413210	0.000035
H26	H	1.991099	0.226344	-0.534151
H27	H	1.343434	0.186491	0.000069
H28	H	2.046970	-0.180970	0.000164
H29	H	1.678654	-0.219323	0.000035
H30	H	1.734565	0.373358	-0.465808
