data_functionalizedCrystal
_audit_creation_method	'MofGen! by Chris Wilmer'
_symmetry_space_group_name_H-M	'P1'
_symmetry_Int_Tables_number	1
_symmetry_cell_setting	triclinic
loop_
_symmetry_equiv_pos_as_xyz
  x,y,z
_cell_length_a	12.594517
_cell_length_b	12.594516
_cell_length_c	12.594509
_cell_angle_alpha	89.973801
_cell_angle_beta	89.988522
_cell_angle_gamma	90.011939
loop_
_atom_site_label
_atom_site_type_symbol
_atom_site_fract_x
_atom_site_fract_y
_atom_site_fract_z
Zn1	Zn	1.627267	-0.423827	-0.601595
Zn2	Zn	1.627158	-0.601837	-0.423623
Zn3	Zn	1.449271	-0.423860	-0.423655
Zn4	Zn	1.449253	-0.601751	-0.601584
O5	O	1.538237	-0.512819	-0.512614
O6	O	1.776198	-0.447463	-0.577979
O7	O	1.603522	-0.578278	-0.274681
O8	O	1.472935	-0.274910	-0.447277
O9	O	1.776118	-0.578246	-0.447223
O10	O	1.603708	-0.274886	-0.578009
O11	O	1.472830	-0.447519	-0.274705
O12	O	1.300323	-0.447436	-0.447266
O13	O	1.472905	-0.578099	-0.750531
O14	O	1.300310	-0.578131	-0.577989
O15	O	1.603691	-0.447379	-0.750540
O16	O	1.603505	-0.750772	-0.447212
O17	O	1.472799	-0.750708	-0.577959
C18	C	1.261696	-0.512779	-0.512630
C19	C	1.143391	-0.512787	-0.512663
C20	C	1.538167	-0.789360	-0.512604
C21	C	1.538235	-0.907665	-0.512635
C22	C	1.074161	-0.584012	-0.583626
C23	C	1.003353	-0.486966	-0.609800
C24	C	1.003400	-0.609913	-0.486464
C25	C	1.074140	-0.415689	-0.538888
C26	C	1.074194	-0.538702	-0.415507
C27	C	1.003417	-0.441590	-0.441645
C28	C	1.467137	-0.976923	-0.583698
C29	C	1.441204	-1.047786	-0.486580
C30	C	1.564265	-1.047601	-0.609770
C31	C	1.512250	-0.976971	-0.415465
C32	C	1.635357	-0.976779	-0.538721
C33	C	1.609460	-1.047610	-0.441535
C34	C	1.815858	-0.512860	-0.512599
C35	C	1.934163	-0.512878	-0.512592
C36	C	1.538308	-0.512726	-0.790235
C37	C	1.538339	-0.512686	-0.908541
C38	C	1.538336	-0.235198	-0.512648
C39	C	1.538378	-0.116893	-0.512662
C40	C	1.467227	-0.583744	-0.977789
C41	C	1.564347	-0.609757	-1.048564
C42	C	1.441294	-0.486609	-1.048565
C43	C	1.635510	-0.538750	-0.977757
C44	C	1.512391	-0.415556	-0.977752
C45	C	1.609579	-0.441532	-1.048495
C46	C	1.538227	-0.512835	-0.236073
C47	C	1.538403	-0.512575	-0.117768
H48	H	0.972236	-0.465078	-0.691933
O49	O	0.966402	-0.369780	-0.370032
C50	C	0.854463	-0.371205	-0.370192
H51	H	0.825343	-0.450894	-0.401702
H52	H	0.823531	-0.304654	-0.423196
C53	C	0.849072	-0.257141	-0.217499
C54	C	0.813307	-0.355020	-0.256192
H55	H	0.823684	-0.247152	-0.147180
H56	H	0.924488	-0.256177	-0.217393
H57	H	0.823292	-0.201693	-0.261680
H58	H	0.839098	-0.410467	-0.212019
H59	H	0.737894	-0.355993	-0.256287
O60	O	1.733189	-0.939359	-0.565001
C61	C	1.731959	-0.827426	-0.563683
H62	H	1.664671	-0.798659	-0.510421
H63	H	1.719294	-0.796353	-0.647764
C64	C	1.921264	-0.821321	-0.586030
C65	C	1.838624	-0.785989	-0.520605
H66	H	1.987061	-0.795759	-0.559462
H67	H	1.922093	-0.896732	-0.586922
H68	H	1.910696	-0.795424	-0.656093
H69	H	1.849186	-0.811896	-0.450548
H70	H	1.837800	-0.710581	-0.519701
H71	H	1.105335	-0.560619	-0.333398
O72	O	1.111224	-0.317790	-0.565436
C73	C	1.223167	-0.318929	-0.565171
H74	H	1.252485	-0.403749	-0.576876
H75	H	1.253476	-0.287206	-0.486014
C76	C	1.228887	-0.144268	-0.641620
C77	C	1.264897	-0.248445	-0.656006
H78	H	1.254631	-0.100787	-0.697647
H79	H	1.153470	-0.143499	-0.641795
H80	H	1.254149	-0.117848	-0.575652
H81	H	1.239625	-0.274868	-0.721965
H82	H	1.340312	-0.249217	-0.655843
H83	H	1.359136	-1.078999	-0.464538
O84	O	1.111280	-0.655851	-0.655157
C85	C	1.172901	-0.732849	-0.602174
H86	H	1.148794	-0.736038	-0.514981
H87	H	1.260507	-0.710941	-0.608504
C88	C	1.184043	-0.838325	-0.760623
C89	C	1.154428	-0.842248	-0.653533
H90	H	1.172653	-0.905807	-0.792306
H91	H	1.142531	-0.786449	-0.796321
H92	H	1.257047	-0.820064	-0.765884
H93	H	1.081423	-0.860495	-0.648274
H94	H	1.195927	-0.894130	-0.617835
H95	H	1.407136	-0.643929	-0.946744
O96	O	0.966204	-0.707774	-0.459929
C97	C	0.904682	-0.700366	-0.366686
H98	H	0.874145	-0.615677	-0.357387
H99	H	0.955624	-0.722122	-0.295098
C100	C	0.847421	-0.881302	-0.385519
C101	C	0.809908	-0.777288	-0.374103
H102	H	0.788963	-0.928754	-0.390090
H103	H	0.888873	-0.886295	-0.448336
H104	H	0.889873	-0.899417	-0.325860
H105	H	0.767469	-0.759170	-0.433767
H106	H	0.768447	-0.772294	-0.311295
O107	O	1.485907	-0.939942	-0.317525
C108	C	1.486130	-0.827999	-0.318698
H109	H	1.474226	-0.798659	-0.403503
H110	H	1.565347	-0.797641	-0.287140
C111	C	1.410067	-0.822400	-0.143890
C112	C	1.395437	-0.786363	-0.248048
H113	H	1.354127	-0.796715	-0.100306
H114	H	1.409920	-0.897818	-0.143097
H115	H	1.476084	-0.797098	-0.117606
H116	H	1.329428	-0.811676	-0.274335
H117	H	1.395571	-0.710948	-0.248844
O118	O	1.485951	-0.317683	-0.940654
C119	C	1.383503	-0.290542	-0.976689
H120	H	1.337563	-0.365950	-0.996585
H121	H	1.390260	-0.238864	-1.050724
C122	C	1.380946	-0.136226	-0.864731
C123	C	1.324519	-0.228843	-0.889159
H124	H	1.344563	-0.098162	-0.810741
H125	H	1.449969	-0.154508	-0.840456
H126	H	1.386574	-0.093173	-0.926435
H127	H	1.318904	-0.271900	-0.827460
H128	H	1.255494	-0.210566	-0.913421
H129	H	1.586224	-1.078626	-0.691905
O130	O	1.590745	-0.707620	-1.085739
C131	C	1.683965	-0.700243	-1.147310
H132	H	1.730357	-0.626383	-1.123131
H133	H	1.661921	-0.694644	-1.234923
C134	C	1.695925	-0.890237	-1.158578
C135	C	1.752909	-0.799525	-1.128873
H136	H	1.738452	-0.951480	-1.147209
H137	H	1.633119	-0.895208	-1.117099
H138	H	1.677558	-0.885556	-1.231587
H139	H	1.771263	-0.804201	-1.055863
H140	H	1.815721	-0.794557	-1.170339
H141	H	1.717630	-0.560853	-0.946785
O142	O	1.343276	-0.460468	-1.085547
C143	C	1.268534	-0.535673	-1.049544
H144	H	1.300031	-0.576259	-0.975013
H145	H	1.254615	-0.597627	-1.114026
C146	C	1.124459	-0.429459	-1.115329
C147	C	1.163141	-0.479301	-1.023784
H148	H	1.059445	-0.394688	-1.099443
H149	H	1.174813	-0.378793	-1.139589
H150	H	1.112868	-0.481096	-1.169056
H151	H	1.174743	-0.427663	-0.970064
H152	H	1.112785	-0.529957	-0.999514
H153	H	1.406904	-0.945884	-0.643707
H154	H	1.669647	-1.078453	-0.381382
H155	H	1.669813	-0.381393	-1.079345
