data_functionalizedCrystal
_audit_creation_method	'MofGen! by Chris Wilmer'
_symmetry_space_group_name_H-M	'P1'
_symmetry_Int_Tables_number	1
_symmetry_cell_setting	triclinic
loop_
_symmetry_equiv_pos_as_xyz
  x,y,z
_cell_length_a	14.044191
_cell_length_b	14.044220
_cell_length_c	11.295483
_cell_angle_alpha	94.468632
_cell_angle_beta	85.522629
_cell_angle_gamma	93.190327
loop_
_atom_site_label
_atom_site_type_symbol
_atom_site_fract_x
_atom_site_fract_y
_atom_site_fract_z
O1	O	1.283056	0.224317	-0.098972
O2	O	1.006385	0.216004	-0.098987
O3	O	1.140567	0.081826	-0.098968
O4	O	1.148874	0.358496	-0.098991
O5	O	1.128780	0.093591	0.099081
O6	O	0.994598	0.227769	0.099062
O7	O	1.271269	0.236083	0.099077
Cu8	Cu	1.131857	0.233000	0.117153
Cu9	Cu	1.145797	0.219086	-0.117063
O10	O	1.137087	0.370261	0.099058
C11	C	0.964869	0.218250	0.000036
C12	C	0.858727	0.207402	0.000030
C13	C	0.613268	0.264503	0.000037
C14	C	0.664393	0.187587	0.000042
C15	C	0.772530	0.198615	0.000035
C16	C	0.505121	0.253477	0.000044
C17	C	1.131038	0.052086	0.000057
C18	C	1.120193	-0.054057	0.000058
C19	C	1.100368	-0.248396	0.000039
C20	C	1.177283	-0.299524	0.000040
C21	C	1.166252	-0.407661	0.000030
C22	C	1.111398	-0.140249	0.000050
C23	C	1.312785	0.233837	0.000051
C24	C	1.418928	0.244684	0.000049
C25	C	1.146616	0.400000	0.000030
C26	C	1.157462	0.506143	0.000022
N27	N	1.122060	0.242787	0.281888
N28	N	1.155601	0.209293	-0.281798
C29	C	1.226125	0.138793	0.531192
C30	C	1.218728	0.146196	0.655855
C31	C	1.099865	0.264990	0.655878
C32	C	1.107262	0.257587	0.531215
C33	C	1.170395	0.194487	0.468877
C34	C	1.177796	0.187090	0.344212
C35	C	1.058928	0.305879	0.344237
C36	C	1.051532	0.313282	0.468900
H37	H	0.650710	0.338629	0.000028
H38	H	0.626954	0.113450	-0.000036
H39	H	1.048457	0.316357	0.706650
C40	C	1.001453	-0.298174	0.000223
C41	C	0.945926	-0.265508	0.102103
C42	C	0.854799	-0.311343	0.102308
H43	H	1.006943	-0.365277	0.000280
H44	H	0.971805	-0.284303	-0.068803
H45	H	0.975568	-0.279385	0.171111
H46	H	0.940410	-0.198410	0.102067
H47	H	0.825150	-0.297473	0.033282
H48	H	0.860298	-0.378445	0.102362
H49	H	0.817110	-0.289180	0.171426
C50	C	1.276048	-0.249427	0.000120
C51	C	1.267497	-0.150573	0.000161
C52	C	1.358454	-0.104388	0.000254
H53	H	1.313948	-0.271350	-0.068921
H54	H	1.305644	-0.263220	0.069216
H55	H	1.237915	-0.136786	-0.068929
H56	H	1.229615	-0.128622	0.069196
H57	H	1.388050	-0.118181	0.069351
H58	H	1.396347	-0.126319	-0.068788
H59	H	1.352664	-0.037310	0.000293
H60	H	1.229205	0.135714	0.293457
H61	H	1.013552	0.351232	0.293486
H62	H	1.277537	0.087422	0.480435
C63	C	1.279185	0.085562	0.723362
C64	C	1.257583	-0.011372	0.693023
C65	C	1.313265	-0.067259	0.755176
H66	H	1.265794	0.098879	0.806553
H67	H	1.345009	0.100079	0.702892
H68	H	1.191774	-0.025882	0.713501
H69	H	1.270978	-0.024718	0.609843
H70	H	1.379089	-0.052742	0.734706
H71	H	1.299870	-0.053934	0.838364
H72	H	1.298623	-0.133034	0.734592
C73	C	0.983083	0.381768	0.536803
C74	C	0.988548	0.376349	0.659315
C75	C	0.925518	0.439438	0.721901
H76	H	0.919654	0.364839	0.516531
H77	H	1.000063	0.445180	0.516436
H78	H	0.971562	0.312952	0.679674
H79	H	1.051962	0.393288	0.679623
H80	H	0.942498	0.502849	0.701534
H81	H	0.862094	0.422503	0.701619
H82	H	0.929224	0.435776	0.805032
