data_functionalizedCrystal
_audit_creation_method	'MofGen! by Chris Wilmer'
_symmetry_space_group_name_H-M	'P1'
_symmetry_Int_Tables_number	1
_symmetry_cell_setting	triclinic
loop_
_symmetry_equiv_pos_as_xyz
  x,y,z
_cell_length_a	6.817900
_cell_length_b	19.551136
_cell_length_c	16.306216
_cell_angle_alpha	95.888180
_cell_angle_beta	103.467292
_cell_angle_gamma	101.650842
loop_
_atom_site_label
_atom_site_type_symbol
_atom_site_fract_x
_atom_site_fract_y
_atom_site_fract_z
V1	V	-4.017338	-0.097224	-0.263444
O2	O	-4.014322	0.004110	-0.258001
O3	O	-3.959984	-0.192238	-0.262053
O4	O	-3.968905	-0.095975	-0.378153
O5	O	-4.005340	-0.092820	-0.141098
V6	V	-4.502131	-0.085074	-0.248760
O7	O	-4.275812	-0.123876	-0.295653
O8	O	-4.693855	-0.058423	-0.216551
O9	O	-4.336279	0.009940	-0.250151
O10	O	-4.622544	-0.186408	-0.254203
O11	O	-4.631527	-0.089479	-0.371106
O12	O	-4.327358	-0.086323	-0.134051
C13	C	-3.802807	-0.215393	-0.258003
C14	C	-3.837200	-0.293069	-0.257631
C15	C	-3.814186	-0.092599	-0.406099
C16	C	-3.855811	-0.092207	-0.499877
C17	C	-3.814162	-0.319399	-0.180148
C18	C	-3.846549	-0.392382	-0.179772
C19	C	-3.901934	-0.439034	-0.256883
C20	C	-3.924984	-0.412697	-0.334376
C21	C	-3.892617	-0.339715	-0.334750
C22	C	-3.866429	-0.560161	-0.312794
C23	C	-3.898781	-0.633141	-0.312417
C24	C	-4.001775	-0.664135	-0.255733
C25	C	-4.072380	-0.622138	-0.199411
C26	C	-4.040013	-0.549156	-0.199785
C27	C	-3.937036	-0.518172	-0.256486
C28	C	-4.013855	-0.769601	-0.177837
C29	C	-4.046256	-0.842587	-0.177464
C30	C	-4.124672	-0.862900	-0.332071
C31	C	-4.092291	-0.789916	-0.332441
C32	C	-4.036873	-0.743270	-0.255322
C33	C	-4.006900	-0.090799	-0.840623
C34	C	-4.210885	-0.095434	-0.810195
C35	C	-4.167602	-0.095574	-0.712604
C36	C	-3.931944	-0.091498	-0.671575
C37	C	-3.802721	-0.022193	-0.691484
C38	C	-3.847389	-0.021762	-0.789080
C39	C	-3.914285	-0.155222	-0.814783
C40	C	-3.875591	-0.156590	-0.717472
C41	C	-3.889570	-0.091890	-0.576036
C42	C	-4.049265	-0.090402	-0.936162
C43	C	-4.156797	0.033091	-0.254198
C44	C	-4.101643	0.110767	-0.254576
C45	C	-4.145419	-0.089701	-0.106100
C46	C	-4.083033	-0.090090	-0.012321
H47	H	-3.769052	-0.281424	-0.117351
H48	H	-4.169769	-0.900883	-0.394856
H49	H	-3.970084	-0.450685	-0.397161
N50	N	-4.177611	-0.653777	-0.141505
N51	N	-4.240643	-0.616274	-0.091228
H52	H	-4.314957	-0.638621	-0.050331
N53	N	-3.826627	-0.676032	-0.369934
N54	N	-3.637731	-0.664413	-0.366890
H55	H	-3.586767	-0.694704	-0.407514
H56	H	-3.911386	-0.318280	-0.397849
N57	N	-3.822963	-0.419283	-0.100618
N58	N	-3.691702	-0.454995	-0.079903
H59	H	-3.675037	-0.473991	-0.024000
H60	H	-3.968730	-0.731620	-0.115041
N61	N	-3.850721	0.038456	-0.651030
N62	N	-3.979987	0.030812	-0.607513
H63	H	-4.013899	0.073644	-0.578942
N64	N	-4.112139	-0.506268	-0.142254
N65	N	-4.204088	-0.533942	-0.091642
H66	H	-4.255035	-0.503653	-0.051010
N67	N	-4.022734	-0.869472	-0.098306
N68	N	-3.973258	-0.827814	-0.029460
H69	H	-3.956644	-0.846801	0.026448
H70	H	-4.111037	-0.768479	-0.395536
N71	N	-4.230365	-0.037354	-0.674268
N72	N	-4.149063	0.024479	-0.680721
H73	H	-4.193390	0.065601	-0.653648
N74	N	-3.761219	-0.528517	-0.370707
N75	N	-3.698168	-0.566017	-0.420979
H76	H	-3.623865	-0.543669	-0.461879
H77	H	-4.268269	-0.145390	-0.699950
H78	H	-4.333227	-0.145085	-0.844970
H79	H	-4.282007	-0.049160	-0.827547
N80	N	-3.923703	0.039376	-0.807828
N81	N	-3.943670	0.081429	-0.748881
H82	H	-3.997569	0.124609	-0.762116
H83	H	-3.695059	-0.015517	-0.808279
N84	N	-3.585430	-0.015295	-0.656971
N85	N	-3.523239	-0.061491	-0.617220
H86	H	-3.369777	-0.056622	-0.592844
N87	N	-4.050260	-0.220550	-0.860037
N88	N	-4.217098	-0.220419	-0.911890
H89	H	-4.313148	-0.266554	-0.943854
H90	H	-3.971385	-0.207826	-0.705770
H91	H	-3.706605	-0.157660	-0.690066
H92	H	-3.762684	-0.152377	-0.833931
