data_functionalizedCrystal
_audit_creation_method	'MofGen! by Chris Wilmer'
_symmetry_space_group_name_H-M	'P1'
_symmetry_Int_Tables_number	1
_symmetry_cell_setting	triclinic
loop_
_symmetry_equiv_pos_as_xyz
  x,y,z
_cell_length_a	12.645331
_cell_length_b	12.645330
_cell_length_c	12.645323
_cell_angle_alpha	89.976029
_cell_angle_beta	90.022676
_cell_angle_gamma	89.974834
loop_
_atom_site_label
_atom_site_type_symbol
_atom_site_fract_x
_atom_site_fract_y
_atom_site_fract_z
Zn1	Zn	1.620669	0.422060	0.599453
Zn2	Zn	1.620524	0.599348	0.422196
Zn3	Zn	1.443383	0.422096	0.422197
Zn4	Zn	1.443339	0.599279	0.599411
O5	O	1.531979	0.510695	0.510814
O6	O	1.768997	0.445591	0.575956
O7	O	1.596984	0.575879	0.273849
O8	O	1.466980	0.273744	0.445729
O9	O	1.768890	0.575844	0.445726
O10	O	1.597231	0.273717	0.575958
O11	O	1.466839	0.445653	0.273850
O12	O	1.295030	0.445585	0.445688
O13	O	1.466904	0.575726	0.747764
O14	O	1.294997	0.575761	0.575886
O15	O	1.597187	0.445524	0.747795
O16	O	1.596941	0.747686	0.445686
O17	O	1.466764	0.747635	0.575885
C18	C	1.256549	0.510670	0.510784
C19	C	1.138719	0.510685	0.510796
C20	C	1.531860	0.786125	0.510804
C21	C	1.531907	0.903955	0.510835
C22	C	0.971140	0.428415	0.429340
C23	C	1.093700	0.428628	0.428981
C24	C	1.094182	0.622359	0.480283
C25	C	0.971584	0.621910	0.479727
C26	C	0.971574	0.482344	0.623079
C27	C	1.094180	0.479849	0.622455
C28	C	1.450325	1.071531	0.592998
C29	C	1.449926	0.948972	0.592732
C30	C	1.501655	0.948549	0.399113
C31	C	1.501139	1.071147	0.399614
C32	C	1.644183	1.071047	0.539492
C33	C	1.643513	0.948440	0.541933
C34	C	1.808484	0.510722	0.510846
C35	C	1.926314	0.510733	0.510859
C36	C	1.532057	0.510614	0.787320
C37	C	1.532090	0.510579	0.905150
C38	C	1.532089	1.234190	0.510852
C39	C	1.532041	1.116360	0.510878
C40	C	1.531962	0.510701	0.235385
C41	C	1.532134	0.510437	0.117555
C42	C	1.449876	0.592103	1.072695
C43	C	1.450091	0.592506	0.950135
C44	C	1.643785	0.540899	0.949670
C45	C	1.643334	0.541410	1.072268
C46	C	1.503665	0.398278	1.072346
C47	C	1.501173	0.398951	0.949739
H48	H	1.123813	0.345817	0.448106
Cl49	Cl	1.478542	0.719661	1.120355
Cl50	Cl	1.742483	0.901114	0.456318
H51	H	1.367708	1.102431	0.574283
Cl52	Cl	0.925795	0.719813	0.567390
Cl53	Cl	1.139151	0.352980	0.657995
Cl54	Cl	1.321582	0.903826	0.563467
Cl55	Cl	1.738184	1.115825	0.447166
H56	H	1.468883	0.675654	0.920822
H57	H	1.367265	0.573532	0.920032
H58	H	0.941688	0.345355	0.448259
Cl59	Cl	0.923490	0.457041	0.301705
H60	H	0.940689	0.402333	0.650830
H61	H	1.667467	0.623400	1.100880
Cl62	Cl	1.589029	1.116943	0.301918
Cl63	Cl	1.380104	0.355609	1.120052
Cl64	Cl	1.741109	0.453505	1.118094
Cl65	Cl	1.374260	0.363650	0.904826
Cl66	Cl	1.374574	1.115447	0.362191
Cl67	Cl	1.590643	0.903536	0.302059
Cl68	Cl	1.681687	0.666160	0.902296
Cl69	Cl	1.376419	0.901295	0.361009
H70	H	1.469071	1.100944	0.676112
Cl71	Cl	1.596164	0.304339	1.117138
H72	H	1.706716	0.483299	0.920534
Cl73	Cl	1.479144	0.902412	0.720633
H74	H	1.671769	1.101891	0.619576
Cl75	Cl	1.678741	0.903436	0.668876
Cl76	Cl	1.139187	0.719586	0.569081
Cl77	Cl	1.138906	0.457592	0.300587
Cl78	Cl	0.927347	0.659074	0.353065
Cl79	Cl	1.141499	0.660170	0.354979
H80	H	1.366804	0.573311	1.102168
H81	H	1.124829	0.535432	0.686442
H82	H	0.942586	0.542301	0.683818
Cl83	Cl	1.586930	0.300041	0.902479
