data_functionalizedCrystal
_audit_creation_method	'MofGen! by Chris Wilmer'
_symmetry_space_group_name_H-M	'P1'
_symmetry_Int_Tables_number	1
_symmetry_cell_setting	triclinic
loop_
_symmetry_equiv_pos_as_xyz
  x,y,z
_cell_length_a	15.698487
_cell_length_b	23.196401
_cell_length_c	23.196402
_cell_angle_alpha	60.008734
_cell_angle_beta	90.005102
_cell_angle_gamma	60.004824
loop_
_atom_site_label
_atom_site_type_symbol
_atom_site_fract_x
_atom_site_fract_y
_atom_site_fract_z
Zr1	Zr	0.820725	0.630943	-0.075568
O2	O	0.684722	0.751192	-0.167599
O3	O	0.862401	0.510692	-0.047368
O4	O	0.862409	0.630943	-0.167619
O5	O	0.684726	0.630943	0.047521
O6	O	1.002590	0.630945	-0.167620
O7	O	0.684714	0.630942	-0.047348
O8	O	1.002575	0.415838	0.047486
O9	O	0.684741	0.846050	-0.167585
O10	O	0.984810	0.560156	-0.035327
O11	O	0.880203	0.560155	0.035474
O12	O	0.880213	0.701735	-0.106106
O13	O	0.775607	0.701734	-0.035304
Zr14	Zr	1.044316	0.630949	0.075736
Zr15	Zr	1.044298	0.630947	-0.075571
Zr16	Zr	0.820744	0.630946	0.075738
Zr17	Zr	0.820755	0.782230	-0.075546
Zr18	Zr	1.044287	0.479663	0.075714
O19	O	1.002641	0.751201	0.047536
O20	O	1.002614	0.751198	-0.167602
O21	O	0.684749	0.751196	0.047539
O22	O	1.180319	0.510700	0.167767
O23	O	1.180292	0.510697	-0.047371
O24	O	0.862427	0.510695	0.167770
O25	O	1.180316	0.630950	-0.047354
O26	O	1.002632	0.630950	0.167787
O27	O	0.862451	0.630948	0.167788
O28	O	1.180328	0.630951	0.047516
O29	O	0.862451	0.846053	-0.167587
O30	O	1.002590	0.415840	0.167755
O31	O	1.180300	0.415843	0.167753
O32	O	1.180285	0.415841	0.047484
O33	O	0.684756	0.846052	-0.047317
O34	O	0.862466	0.846054	-0.047318
O35	O	0.984828	0.560158	0.106273
O36	O	1.089435	0.560159	0.035472
O37	O	0.984838	0.701738	-0.035306
O38	O	0.880231	0.701737	0.035495
C39	C	0.652865	0.630942	0.000087
C40	C	0.557953	0.630940	0.000088
C41	C	0.932544	0.630949	0.189345
C42	C	0.932552	0.630950	0.253579
C43	C	0.932558	0.820183	0.000112
C44	C	0.932570	0.884408	0.000122
C45	C	0.384167	0.630955	0.000081
C46	C	0.480871	0.630950	0.000083
C47	C	1.212176	0.630951	0.000081
C48	C	1.307088	0.630953	0.000080
C49	C	0.932483	0.441710	0.000056
C50	C	0.932471	0.377485	0.000046
C51	C	0.877955	0.914591	0.037069
C52	C	0.877947	0.974950	0.037065
C53	C	0.932541	1.005136	0.000100
C54	C	0.987169	0.974943	-0.036849
C55	C	0.987183	0.914578	-0.036838
C56	C	0.924719	1.134345	-0.061818
C57	C	0.924696	1.194711	-0.061831
C58	C	0.932502	1.191317	0.000067
C59	C	0.940308	1.127555	0.061977
C60	C	0.940323	1.067191	0.061988
C61	C	0.932532	1.070590	0.000084
C62	C	0.877875	1.286947	0.037013
C63	C	0.877875	1.347304	0.037011
C64	C	0.987089	1.347301	-0.036910
C65	C	0.987097	1.286940	-0.036901
C66	C	0.932484	1.256769	0.000059
C67	C	0.932497	0.630943	-0.189178
C68	C	0.932489	0.630943	-0.253411
C69	C	0.877959	0.704851	0.246809
C70	C	0.877943	0.704852	0.307163
C71	C	0.932542	0.630948	0.374287
C72	C	0.987138	0.557038	0.381055
C73	C	0.987143	0.557039	0.320701
C74	C	1.023998	0.574329	0.498215
C75	C	1.023996	0.574331	0.558567
C76	C	0.932525	0.630942	0.560441
C77	C	0.841057	0.687565	0.501950
C78	C	0.841062	0.687566	0.441596
C79	C	0.932542	0.630939	0.439735
C80	C	0.877909	0.704849	0.619111
C81	C	0.877891	0.704847	0.679468
C82	C	0.987096	0.557031	0.753360
C83	C	0.987104	0.557035	0.693004
C84	C	0.932513	0.630946	0.625882
C85	C	1.212139	0.441715	0.000053
C86	C	1.307039	0.377491	0.000042
C87	C	0.932507	0.441713	0.189317
C88	C	0.932503	0.377489	0.253541
C89	C	1.212163	0.441718	0.189314
C90	C	1.307070	0.377495	0.253537
C91	C	0.652879	0.820175	-0.189147
C92	C	0.557971	0.884398	-0.253370
C93	C	0.652902	0.820178	0.000115
C94	C	0.558003	0.884402	0.000125
C95	C	0.932534	0.820180	-0.189149
C96	C	0.932539	0.884404	-0.253374
C97	C	1.296992	0.347330	-0.036925
C98	C	1.386152	0.286993	-0.036949
C99	C	1.485358	0.256815	-0.000001
C100	C	1.495402	0.286983	0.036968
C101	C	1.406243	0.347322	0.036987
C102	C	0.987113	0.347330	0.320665
C103	C	0.987105	0.286993	0.381016
C104	C	0.932492	0.256812	0.374242
C105	C	0.877874	0.286977	0.307112
C106	C	0.877877	0.347317	0.246762
C107	C	1.406253	0.347336	0.246740
C108	C	1.495438	0.287000	0.307078
C109	C	1.485437	0.256821	0.374214
C110	C	1.386244	0.286986	0.381010
C111	C	1.297062	0.347325	0.320673
C112	C	0.458788	0.914564	-0.246572
C113	C	0.369604	0.974919	-0.306910
C114	C	0.379604	1.005101	-0.374046
C115	C	0.478797	0.974932	-0.380843
C116	C	0.567980	0.914583	-0.320505
C117	C	0.568049	0.914570	0.037087
C118	C	0.478890	0.974923	0.037094
C119	C	0.379684	1.005103	0.000144
C120	C	0.369639	0.974932	-0.036822
C121	C	0.458798	0.914585	-0.036833
C122	C	0.987163	0.914566	-0.246577
C123	C	0.987188	0.974903	-0.306917
C124	C	0.932581	1.005082	-0.374052
C125	C	0.877956	0.974914	-0.380847
C126	C	0.877938	0.914573	-0.320508
H127	H	0.833488	0.890027	0.067167
N128	N	0.447954	0.882049	-0.076701
H129	H	0.371576	0.910328	-0.100103
H130	H	0.482557	0.821474	-0.042777
N131	N	1.417070	0.379875	0.174338
H132	H	1.382509	0.440451	0.147659
H133	H	1.382525	0.369313	0.147703
N134	N	0.932589	1.070170	-0.439133
H135	H	0.963662	1.049172	-0.468187
H136	H	0.975461	1.084675	-0.424583
N137	N	0.819068	0.784580	0.174425
H138	H	0.764105	0.787893	0.147721
H139	H	0.869223	0.787835	0.147798
N140	N	0.819002	0.882059	-0.327852
H141	H	0.764044	0.892568	-0.304464
H142	H	0.869130	0.821494	-0.304483
H143	H	1.576197	0.262446	0.301532
H144	H	1.031546	1.371875	-0.067005
H145	H	1.414438	0.371872	0.067095
H146	H	1.216221	0.371900	-0.067022
N147	N	1.122656	0.513255	0.496203
H148	H	1.180598	0.477389	0.542411
H149	H	1.143017	0.543088	0.456249
N150	N	1.046110	1.007429	-0.299572
H151	H	1.017461	1.032467	-0.272909
H152	H	1.037834	1.050198	-0.348001
N153	N	1.046084	0.882020	-0.076693
H154	H	1.122473	0.856995	-0.057316
H155	H	1.017355	0.928088	-0.128382
H156	H	1.031545	0.496857	0.808013
N157	N	1.581632	0.191742	0.439290
H158	H	1.645978	0.177218	0.424790
H159	H	1.581582	0.141706	0.468306
N160	N	0.819056	0.784562	0.299869
H161	H	0.784473	0.831383	0.248190
H162	H	0.869204	0.787774	0.323310
H163	H	1.378117	0.262405	0.435680
N164	N	1.046062	0.882025	-0.174172
H165	H	1.080669	0.910293	-0.179033
H166	H	1.100950	0.821448	-0.147532
N167	N	0.819061	1.007467	-0.453258
H168	H	0.827364	1.050271	-0.490446
H169	H	0.742694	1.032467	-0.458849
H170	H	0.766585	0.733669	0.393974
H171	H	0.450626	0.889993	-0.191912
H172	H	0.833465	0.999534	0.067148
N173	N	1.190087	0.379847	0.328010
H174	H	1.197295	0.351567	0.379697
H175	H	1.150707	0.369335	0.304585
H176	H	1.031565	1.262366	-0.066991
H177	H	0.833410	0.371864	0.192110
H178	H	0.288845	0.999472	-0.301363
N179	N	0.948760	0.998417	0.128761
H180	H	1.013215	0.944664	0.142587
H181	H	0.884970	0.999160	0.120411
N182	N	0.283410	1.070191	-0.439122
H183	H	0.219064	1.084715	-0.424622
H184	H	0.283444	1.049146	-0.468149
H185	H	0.833409	1.262379	0.067110
N186	N	0.948719	1.123883	0.128742
H187	H	0.947529	1.171795	0.119345
H188	H	1.016230	1.071450	0.166847
H189	H	1.576188	0.262403	0.067050
H190	H	1.031586	0.371897	0.326193
N191	N	0.818978	1.379853	0.076872
H192	H	0.784387	1.351578	0.100286
H193	H	0.764080	1.440427	0.042941
N194	N	1.046023	0.254456	0.453416
H195	H	1.017400	0.300500	0.459072
H196	H	1.122399	0.229407	0.459013
N197	N	0.916267	1.263483	-0.128602
H198	H	0.911336	1.256470	-0.167810
H199	H	0.980020	1.262775	-0.120231
H200	H	0.932498	0.207680	0.423388
N201	N	0.818979	0.254416	0.299812
H202	H	0.827277	0.211612	0.348232
H203	H	0.847655	0.229415	0.273127
H204	H	1.557948	0.207682	-0.000022
N205	N	0.916307	1.138008	-0.128581
H206	H	0.911352	1.187561	-0.167802
H207	H	0.851872	1.141641	-0.142341
H208	H	0.288854	0.999514	-0.066906
H209	H	1.098476	0.528229	0.606185
N210	N	1.046048	1.007498	-0.076724
H211	H	1.100990	0.997023	-0.042842
H212	H	0.995883	1.068059	-0.113915
N213	N	0.742390	0.748634	0.503957
H214	H	0.756261	0.740041	0.551066
H215	H	0.686080	0.741052	0.497188
N216	N	0.489575	1.007489	-0.453255
H217	H	0.418023	1.050293	-0.490442
H218	H	0.528988	0.961406	-0.458859
H219	H	0.833452	0.765032	0.564457
H220	H	1.031591	0.496865	0.435712
N221	N	0.674954	0.882046	-0.327842
H222	H	0.667746	0.910326	-0.379529
H223	H	0.714319	0.821471	-0.304429
N224	N	0.675043	0.882026	0.076943
H225	H	0.667863	0.910306	0.100353
H226	H	0.714418	0.892527	0.043007
N227	N	0.489737	1.007455	0.076967
H228	H	0.566114	0.979169	0.100377
H229	H	0.455115	0.996958	0.114120
H230	H	1.377953	0.262438	-0.067054
N231	N	0.283524	1.070192	0.000159
H232	H	0.304952	1.084718	0.029185
H233	H	0.240637	1.049146	0.021176
H234	H	0.833428	0.765028	0.673949
N235	N	1.046008	0.477327	0.700302
H236	H	1.100958	0.474043	0.676910
H237	H	0.995858	0.474078	0.676911
H238	H	1.031601	0.496858	0.326219
