data_functionalizedCrystal
_audit_creation_method	'MofGen! by Chris Wilmer'
_symmetry_space_group_name_H-M	'P1'
_symmetry_Int_Tables_number	1
_symmetry_cell_setting	triclinic
loop_
_symmetry_equiv_pos_as_xyz
  x,y,z
_cell_length_a	27.731994
_cell_length_b	27.732048
_cell_length_c	14.185569
_cell_angle_alpha	76.951782
_cell_angle_beta	103.046021
_cell_angle_gamma	82.631595
loop_
_atom_site_label
_atom_site_type_symbol
_atom_site_fract_x
_atom_site_fract_y
_atom_site_fract_z
O1	O	0.629914	0.068419	-0.083290
O2	O	1.129914	0.568419	0.416710
O3	O	0.489112	0.077197	-0.083325
O4	O	0.989112	0.577197	0.416675
O5	O	0.563889	0.002408	-0.083288
O6	O	1.063889	0.502408	0.416712
O7	O	0.555137	0.143208	-0.083328
O8	O	1.055137	0.643208	0.416672
O9	O	0.585978	-0.019683	0.083558
O10	O	1.085978	0.480317	0.583558
O11	O	0.511202	0.055106	0.083520
O12	O	1.011202	0.555106	0.583520
O13	O	0.652004	0.046328	0.083555
O14	O	1.152004	0.546328	0.583555
Cu15	Cu	0.583620	0.048700	0.098772
Cu16	Cu	1.083620	0.548700	0.598772
Cu17	Cu	0.557496	0.074825	-0.098542
Cu18	Cu	1.057496	0.574825	0.401458
O19	O	0.577227	0.121117	0.083518
O20	O	1.077227	0.621117	0.583518
C21	C	0.482149	0.065972	0.000093
C22	C	0.982149	0.565972	0.500093
C23	C	0.428491	0.065431	0.000081
C24	C	0.928491	0.565431	0.500081
C25	C	0.107819	0.049968	0.091068
C26	C	0.607819	0.549968	0.591068
C27	C	-0.093838	0.047905	0.091080
C28	C	0.406162	0.547905	0.591080
O29	O	-0.109670	0.037376	0.168427
O30	O	0.390330	0.537376	0.668427
N31	N	-0.131094	0.059691	0.000133
N32	N	0.368906	0.559691	0.500133
C33	C	-0.117933	0.071990	-0.090824
C34	C	0.382067	0.571990	0.409176
O35	O	-0.154247	0.081962	-0.168180
O36	O	0.345753	0.581962	0.331820
C37	C	0.083724	0.074049	-0.090835
C38	C	0.583724	0.574049	0.409165
C39	C	0.120977	0.062268	0.000118
C40	C	0.620977	0.562268	0.500118
C41	C	0.145071	0.038187	0.182014
C42	C	0.645071	0.538187	0.682014
C43	C	0.195482	0.038705	0.182010
C44	C	0.695482	0.538705	0.682010
C45	C	0.208640	0.051005	0.091060
C46	C	0.708640	0.551005	0.591060
C47	C	0.171388	0.062786	0.000114
C48	C	0.671388	0.562786	0.500114
C49	C	0.096884	0.086345	-0.181791
C50	C	0.596884	0.586345	0.318209
C51	C	0.147303	0.086858	-0.181786
C52	C	0.647303	0.586858	0.318214
C53	C	0.184556	0.075076	-0.090832
C54	C	0.684556	0.575076	0.409168
C55	C	0.234956	0.075605	-0.090839
C56	C	0.734956	0.575605	0.409161
N57	N	0.272212	0.063819	0.000108
N58	N	0.772212	0.563819	0.500108
C59	C	0.259054	0.051519	0.091058
C60	C	0.759054	0.551519	0.591058
C61	C	-0.223804	0.070909	-0.090812
C62	C	0.276196	0.570909	0.409188
C63	C	-0.274218	0.070395	-0.090810
C64	C	0.225782	0.570395	0.409190
C65	C	-0.250120	0.046309	0.091095
C66	C	0.249880	0.546309	0.591095
C67	C	-0.199706	0.046826	0.091092
C68	C	0.300294	0.546826	0.591092
C69	C	-0.186549	0.059123	0.000135
C70	C	0.313451	0.559123	0.500135
C71	C	0.364919	0.052609	0.091043
C72	C	0.864919	0.552609	0.591043
C73	C	0.415333	0.053131	0.091031
C74	C	0.915333	0.553131	0.591031
C75	C	0.391230	0.077214	-0.090873
C76	C	0.891230	0.577214	0.409127
C77	C	0.340820	0.076695	-0.090862
C78	C	0.840820	0.576695	0.409138
C79	C	0.327667	0.064390	0.000104
C80	C	0.827667	0.564390	0.500104
O81	O	0.250826	0.086123	-0.168146
O82	O	0.750826	0.586123	0.331854
O83	O	0.295377	0.041538	0.168402
O84	O	0.795377	0.541538	0.668402
C85	C	0.057408	0.049450	0.091072
C86	C	0.557408	0.549450	0.591072
C87	C	0.020156	0.061231	0.000126
C88	C	0.520156	0.561231	0.500126
C89	C	0.033314	0.073530	-0.090824
C90	C	0.533314	0.573530	0.409176
C91	C	-0.030258	0.060717	0.000129
C92	C	0.469742	0.560717	0.500129
C93	C	-0.043416	0.048417	0.091078
C94	C	0.456584	0.548417	0.591078
C95	C	-0.006161	0.036631	0.182026
C96	C	0.493839	0.536631	0.682026
C97	C	0.044250	0.037150	0.182022
C98	C	0.544250	0.537150	0.682022
C99	C	-0.003942	0.085316	-0.181771
C100	C	0.496058	0.585316	0.318229
C101	C	-0.054352	0.084797	-0.181760
C102	C	0.445648	0.584797	0.318240
C103	C	-0.067510	0.072497	-0.090810
C104	C	0.432490	0.572497	0.409190
C105	C	0.574750	-0.026645	0.000138
C106	C	1.074750	0.473355	0.500138
C107	C	0.574198	-0.080301	0.000146
C108	C	1.074198	0.419699	0.500146
C109	C	0.614898	-0.419119	0.000105
C110	C	1.114898	0.080881	0.500105
C111	C	0.612845	-0.620776	0.000090
C112	C	1.112845	-0.120776	0.500090
O113	O	0.650062	-0.652034	0.000055
O114	O	1.150062	-0.152034	0.500055
N115	N	0.568507	-0.639890	0.000080
N116	N	1.068507	-0.139890	0.500080
C117	C	0.524679	-0.608585	0.000067
C118	C	1.024679	-0.108585	0.500067
O119	O	0.486918	-0.629468	0.000048
O120	O	0.986918	-0.129468	0.500048
C121	C	0.526731	-0.406927	0.000074
C122	C	1.026731	0.093073	0.500074
C123	C	0.571073	-0.387818	0.000095
C124	C	1.071073	0.112182	0.500095
C125	C	0.659236	-0.400008	0.000124
C126	C	1.159236	0.099992	0.500124
C127	C	0.659749	-0.349598	0.000133
C128	C	1.159749	0.150402	0.500133
C129	C	0.615925	-0.318297	0.000123
C130	C	1.115925	0.181703	0.500123
C131	C	0.571587	-0.337407	0.000104
C132	C	1.071587	0.162593	0.500104
C133	C	0.482902	-0.375623	0.000054
C134	C	0.982902	0.124377	0.500054
C135	C	0.483419	-0.325205	0.000053
C136	C	0.983419	0.174795	0.500053
C137	C	0.527761	-0.306096	0.000074
C138	C	1.027761	0.193904	0.500074
C139	C	0.528275	-0.255696	0.000103
C140	C	1.028275	0.244304	0.500103
N141	N	0.572613	-0.236582	0.000113
N142	N	1.072613	0.263418	0.500113
C143	C	0.616438	-0.267883	0.000123
C144	C	1.116438	0.232117	0.500123
C145	C	0.523604	-0.714458	0.000065
C146	C	1.023604	-0.214458	0.500065
C147	C	0.523091	-0.764873	0.000065
C148	C	1.023091	-0.264873	0.500065
C149	C	0.611257	-0.777060	0.000086
C150	C	1.111257	-0.277060	0.500086
C151	C	0.611771	-0.726646	0.000094
C152	C	1.111771	-0.226646	0.500094
C153	C	0.567942	-0.695345	0.000075
C154	C	1.067942	-0.195345	0.500075
C155	C	0.617513	-0.162017	0.000143
C156	C	1.117513	0.337983	0.500143
C157	C	0.618023	-0.111602	0.000156
C158	C	1.118023	0.388398	0.500156
C159	C	0.529856	-0.099418	0.000130
C160	C	1.029856	0.400582	0.500130
C161	C	0.529347	-0.149829	0.000122
C162	C	1.029347	0.350171	0.500122
C163	C	0.573178	-0.181127	0.000125
C164	C	1.073178	0.318873	0.500125
O165	O	0.491077	-0.224408	0.000126
O166	O	0.991077	0.275592	0.500126
O167	O	0.654190	-0.246987	0.000120
O168	O	1.154190	0.253013	0.500120
C169	C	0.614384	-0.469529	0.000095
C170	C	1.114384	0.030471	0.500095
C171	C	0.570046	-0.488639	0.000076
C172	C	1.070046	0.011361	0.500076
C173	C	0.526221	-0.457339	0.000066
C174	C	1.026221	0.042661	0.500066
C175	C	0.569533	-0.539054	0.000076
C176	C	1.069533	-0.039054	0.500076
C177	C	0.613358	-0.570354	0.000086
C178	C	1.113358	-0.070354	0.500086
C179	C	0.657695	-0.551240	0.000096
C180	C	1.157695	-0.051240	0.500096
C181	C	0.658209	-0.500830	0.000106
C182	C	1.158209	-0.000830	0.500106
C183	C	0.481884	-0.476453	0.000056
C184	C	0.981884	0.023547	0.500056
C185	C	0.481374	-0.526864	0.000048
C186	C	0.981374	-0.026864	0.500048
C187	C	0.525199	-0.558164	0.000058
C188	C	1.025199	-0.058164	0.500058
C189	C	0.658966	0.057553	0.000134
C190	C	1.158966	0.557553	0.500134
C191	C	0.712623	0.058095	0.000140
C192	C	1.212623	0.558095	0.500140
C193	C	0.566365	0.150170	0.000090
C194	C	1.066365	0.650170	0.500090
C195	C	0.566916	0.203827	0.000075
C196	C	1.066916	0.703827	0.500075
N197	N	0.601997	0.030324	0.237552
N198	N	1.101997	0.530324	0.737552
N199	N	0.539123	0.093196	-0.237322
N200	N	1.039123	0.593196	0.262678
C201	C	0.485130	0.147162	0.605144
C202	C	0.985130	0.647162	1.105144
C203	C	0.499054	0.133246	0.710172
C204	C	0.999054	0.633246	1.210172
C205	C	0.565281	0.067045	0.710166
C206	C	1.065281	0.567045	1.210166
C207	C	0.551361	0.080954	0.605136
C208	C	1.051361	0.580954	1.105136
C209	C	0.511286	0.121013	0.552633
C210	C	1.011286	0.621013	1.052633
C211	C	0.577517	0.054804	0.552625
C212	C	1.077517	0.554804	1.052625
C213	C	0.563600	0.068714	0.447603
C214	C	1.063600	0.568714	0.947603
C215	C	0.523527	0.108773	0.395093
C216	C	1.023527	0.608773	0.895093
C217	C	0.497368	0.134922	0.447611
C218	C	0.997368	0.634922	0.947611
C219	C	0.617595	0.014748	0.605130
C220	C	1.117595	0.514748	1.105130
C221	C	0.643751	-0.011402	0.552619
C222	C	1.143751	0.488598	1.052619
C223	C	0.629832	0.002505	0.447595
C224	C	1.129832	0.502505	0.947595
C225	C	0.589758	0.042564	0.395085
C226	C	1.089758	0.542564	0.895085
C227	C	0.655990	-0.023644	0.395077
C228	C	1.155990	0.476356	0.895077
C229	C	0.642073	-0.009735	0.290056
C230	C	1.142073	0.490265	0.790056
C231	C	0.575841	0.056474	0.290063
C232	C	1.075841	0.556474	0.790063
H233	H	-0.260841	0.036295	0.165150
H234	H	0.239159	0.536295	0.665150
H235	H	0.628927	0.003426	0.690645
H236	H	1.128927	0.503426	1.190645
H237	H	0.512197	0.120099	0.309577
H238	H	1.012197	0.620099	0.809577
H239	H	0.477751	0.154544	0.752921
H240	H	0.977751	0.654544	1.252921
H241	H	0.134365	0.028169	0.256081
H242	H	0.634365	0.528169	0.756081
H243	H	0.663372	-0.031028	0.247301
H244	H	1.163372	0.468972	0.747301
H245	H	0.676383	-0.044017	0.595379
H246	H	1.176383	0.455983	1.095379
H247	H	0.694925	-0.425488	0.000128
H248	H	1.194925	0.074512	0.500128
H249	H	0.464731	0.167539	0.404861
H250	H	0.964731	0.667539	0.904861
H251	H	0.445264	-0.542419	0.000041
H252	H	0.945264	-0.042419	0.500041
H253	H	0.446195	-0.450972	0.000046
H254	H	0.946195	0.049028	0.500046
H255	H	0.494176	-0.073924	0.000125
H256	H	0.994176	0.426076	0.500125
H257	H	-0.213099	0.080922	-0.164884
H258	H	0.286901	0.580922	0.335116
H259	H	0.653204	-0.187494	0.000142
H260	H	1.153204	0.312506	0.500142
H261	H	0.694317	-0.485276	0.000122
H262	H	1.194317	0.014724	0.500122
H263	H	-0.016883	0.026619	0.256081
H264	H	0.483117	0.526619	0.756081
H265	H	-0.084682	0.094396	-0.255831
H266	H	0.415318	0.594396	0.244169
H267	H	0.597913	0.034429	0.752927
H268	H	1.097913	0.534429	1.252927
H269	H	0.688623	-0.056258	0.437839
H270	H	1.188623	0.443742	0.937839
H271	H	0.006765	0.095331	-0.255835
H272	H	0.506765	0.595331	0.244165
H273	H	0.693380	-0.576735	0.000109
H274	H	1.193380	-0.076735	0.500109
H275	H	0.654133	-0.096046	0.000175
H276	H	1.154133	0.403954	0.500175
H277	H	-0.304548	0.079996	-0.164873
H278	H	0.195452	0.579996	0.335127
H279	H	0.452493	0.179779	0.562393
H280	H	0.952493	0.679779	1.062393
H281	H	0.445664	0.043538	0.165099
H282	H	0.945664	0.543538	0.665099
H283	H	0.225811	0.029109	0.256074
H284	H	0.725811	0.529109	0.756074
H285	H	0.354216	0.042594	0.165116
H286	H	0.854216	0.542594	0.665116
H287	H	0.647878	-0.711091	0.000109
H288	H	1.147878	-0.211091	0.500109
H289	H	0.074578	0.027556	0.256086
H290	H	0.574578	0.527556	0.756086
H291	H	-0.169376	0.037233	0.165154
H292	H	0.330624	0.537233	0.665154
H293	H	0.066560	0.095938	-0.255855
H294	H	0.566560	0.595938	0.244145
H295	H	0.158011	0.096871	-0.255855
H296	H	0.658011	0.596871	0.244145
H297	H	0.310486	0.086297	-0.164924
H298	H	0.810486	0.586297	0.335076
H299	H	0.401953	0.087230	-0.164922
H300	H	0.901953	0.587230	0.335078
H301	H	0.695857	-0.334043	0.000145
H302	H	1.195857	0.165957	0.500145
H303	H	0.486986	-0.780429	0.000066
H304	H	0.986986	-0.280429	0.500066
H305	H	0.646941	-0.802554	0.000095
H306	H	1.146941	-0.302554	0.500095
H307	H	0.487911	-0.688977	0.000051
H308	H	0.987911	-0.188977	0.500051
H309	H	0.446793	-0.391171	0.000032
H310	H	0.946793	0.108829	0.500032
H311	H	0.493244	-0.165392	0.000133
H312	H	0.993244	0.334608	0.500133
H313	H	0.543204	0.089091	0.247313
H314	H	1.043204	0.589091	0.747313
H315	H	0.447727	-0.299721	0.000037
H316	H	0.947727	0.200279	0.500037
