data_functionalizedCrystal
_audit_creation_method	'MofGen! by Chris Wilmer'
_symmetry_space_group_name_H-M	'P1'
_symmetry_Int_Tables_number	1
_symmetry_cell_setting	triclinic
loop_
_symmetry_equiv_pos_as_xyz
  x,y,z
_cell_length_a	11.792254
_cell_length_b	11.792254
_cell_length_c	9.798715
_cell_angle_alpha	89.996677
_cell_angle_beta	89.996361
_cell_angle_gamma	84.198598
loop_
_atom_site_label
_atom_site_type_symbol
_atom_site_fract_x
_atom_site_fract_y
_atom_site_fract_z
O1	O	1.506906	0.155633	-0.113491
O2	O	1.756906	0.405633	0.136509
O3	O	2.006906	0.655633	0.386509
O4	O	2.256906	0.905633	0.636509
O5	O	1.176568	0.171651	-0.113494
O6	O	1.426568	0.421651	0.136506
O7	O	1.676568	0.671651	0.386506
O8	O	1.926568	0.921651	0.636506
O9	O	1.349746	-0.001527	-0.113482
O10	O	1.599746	0.248473	0.136518
O11	O	1.849746	0.498473	0.386518
O12	O	2.099746	0.748473	0.636518
O13	O	1.333728	0.328811	-0.113502
O14	O	1.583728	0.578811	0.136498
O15	O	1.833728	0.828811	0.386498
O16	O	2.083728	1.078811	0.636498
O17	O	1.349733	-0.001528	0.113500
O18	O	1.599733	0.248472	0.363500
O19	O	1.849733	0.498472	0.613500
O20	O	2.099733	0.748472	0.863500
O21	O	1.176555	0.171650	0.113489
O22	O	1.426555	0.421650	0.363489
O23	O	1.676555	0.671650	0.613489
O24	O	1.926555	0.921650	0.863489
O25	O	1.506893	0.155632	0.113492
O26	O	1.756893	0.405632	0.363492
O27	O	2.006893	0.655632	0.613492
O28	O	2.256893	0.905632	0.863492
Zn29	Zn	1.341722	0.163641	0.149528
Zn30	Zn	1.591722	0.413641	0.399528
Zn31	Zn	1.841722	0.663641	0.649528
Zn32	Zn	2.091722	0.913641	0.899528
Zn33	Zn	1.341739	0.163642	-0.149530
Zn34	Zn	1.591739	0.413642	0.100470
Zn35	Zn	1.841739	0.663642	0.350470
Zn36	Zn	2.091739	0.913642	0.600470
O37	O	1.333715	0.328811	0.113480
O38	O	1.583715	0.578811	0.363480
O39	O	1.833715	0.828811	0.613480
O40	O	2.083715	1.078811	0.863480
C41	C	1.134271	0.170642	-0.000003
C42	C	1.384271	0.420642	0.249997
C43	C	1.634271	0.670642	0.499997
C44	C	1.884271	0.920642	0.749997
C45	C	1.008257	0.167621	-0.000004
C46	C	1.258257	0.417621	0.249996
C47	C	1.508257	0.667621	0.499996
C48	C	1.758257	0.917621	0.749996
C49	C	0.905921	0.165168	-0.000009
C50	C	1.155921	0.415168	0.249991
C51	C	1.405921	0.665168	0.499991
C52	C	1.655921	0.915168	0.749991
C53	C	0.777534	0.162099	-0.000010
C54	C	1.027534	0.412099	0.249990
C55	C	1.277534	0.662099	0.499990
C56	C	1.527534	0.912099	0.749990
C57	C	1.348730	-0.043818	0.000008
C58	C	1.598730	0.206182	0.250008
C59	C	1.848730	0.456182	0.500008
C60	C	2.098730	0.706182	0.750008
C61	C	1.345710	-0.169832	0.000007
C62	C	1.595710	0.080168	0.250007
C63	C	1.845710	0.330168	0.500007
C64	C	2.095710	0.580168	0.750007
C65	C	1.343256	-0.272168	0.000002
C66	C	1.593256	-0.022168	0.250002
C67	C	1.843256	0.227832	0.500002
C68	C	2.093256	0.477832	0.750002
C69	C	1.340188	-0.400555	-0.000010
C70	C	1.590188	-0.150555	0.249990
C71	C	1.840188	0.099445	0.499990
C72	C	2.090188	0.349445	0.749990
C73	C	1.549190	0.156642	-0.000002
C74	C	1.799190	0.406642	0.249998
C75	C	2.049190	0.656642	0.499998
C76	C	2.299190	0.906642	0.749998
C77	C	1.675204	0.159662	-0.000010
C78	C	1.925204	0.409662	0.249990
C79	C	2.175204	0.659662	0.499990
C80	C	2.425204	0.909662	0.749990
C81	C	1.334731	0.371102	-0.000013
C82	C	1.584731	0.621102	0.249987
C83	C	1.834731	0.871102	0.499987
C84	C	2.084731	1.121102	0.749987
C85	C	1.337751	0.497115	-0.000021
C86	C	1.587751	0.747115	0.249979
C87	C	1.837751	0.997115	0.499979
C88	C	2.087751	1.247115	0.749979
N89	N	1.341719	0.163640	0.353628
N90	N	1.591719	0.413640	0.603628
N91	N	1.841719	0.663640	0.853628
N92	N	2.091719	0.913640	1.103628
N93	N	1.341751	0.163634	-0.353630
N94	N	1.591751	0.413634	-0.103630
N95	N	1.841751	0.663634	0.146370
N96	N	2.091751	0.913634	0.396370
C97	C	1.414432	0.090608	0.421410
C98	C	1.664432	0.340608	0.671410
C99	C	1.914432	0.590608	0.921410
C100	C	2.164432	0.840608	1.171410
C101	C	1.414450	0.090604	0.578572
C102	C	1.664450	0.340604	0.828572
C103	C	1.914450	0.590604	1.078572
C104	C	2.164450	0.840604	1.328572
H105	H	1.476668	0.028080	0.363091
H106	H	1.726668	0.278080	0.613091
H107	H	1.976668	0.528080	0.863091
H108	H	2.226668	0.778080	1.113091
H109	H	1.476708	0.028082	0.636862
H110	H	1.726708	0.278082	0.886862
H111	H	1.976708	0.528082	1.136862
H112	H	2.226708	0.778082	1.386862
Cl113	Cl	1.245635	0.260183	0.556390
Cl114	Cl	1.495635	0.510183	0.806390
Cl115	Cl	1.745635	0.760183	1.056390
Cl116	Cl	1.995635	1.010183	1.306390
H117	H	1.279475	0.226159	0.411949
H118	H	1.529475	0.476159	0.661949
H119	H	1.779475	0.726159	0.911949
H120	H	2.029475	0.976159	1.161949
