data_functionalizedCrystal
_audit_creation_method	'MofGen! by Chris Wilmer'
_symmetry_space_group_name_H-M	'P1'
_symmetry_Int_Tables_number	1
_symmetry_cell_setting	triclinic
loop_
_symmetry_equiv_pos_as_xyz
  x,y,z
_cell_length_a	15.297475
_cell_length_b	18.215405
_cell_length_c	18.215399
_cell_angle_alpha	90.030551
_cell_angle_beta	80.315508
_cell_angle_gamma	99.673149
loop_
_atom_site_label
_atom_site_type_symbol
_atom_site_fract_x
_atom_site_fract_y
_atom_site_fract_z
Zn1	Zn	1.379205	0.487998	-0.610456
Zn2	Zn	1.879205	0.987998	-0.110456
Zn3	Zn	1.379093	0.611053	-0.487369
Zn4	Zn	1.879093	1.111053	0.012631
Zn5	Zn	1.228339	0.466690	-0.466144
Zn6	Zn	1.728339	0.966690	0.033856
Zn7	Zn	1.228297	0.589690	-0.589144
Zn8	Zn	1.728297	1.089690	-0.089144
O9	O	1.303733	0.538858	-0.538278
O10	O	1.803733	1.038858	-0.038278
O11	O	1.505437	0.522179	-0.611930
O12	O	2.005437	1.022179	-0.111930
O13	O	1.359065	0.591926	-0.381565
O14	O	1.859065	1.091926	0.118435
O15	O	1.248416	0.366541	-0.485324
O16	O	1.748416	0.866541	0.014676
O17	O	1.505354	0.612588	-0.521498
O18	O	2.005354	1.112588	-0.021498
O19	O	1.359257	0.382196	-0.591350
O20	O	1.859257	0.882196	-0.091350
O21	O	1.248307	0.485863	-0.365971
O22	O	1.748307	0.985863	0.134029
O23	O	1.102087	0.465148	-0.464658
O24	O	1.602087	0.965148	0.035342
O25	O	1.248345	0.576178	-0.694959
O26	O	1.748345	1.076178	-0.194959
O27	O	1.102056	0.555516	-0.555026
O28	O	1.602056	1.055516	-0.055026
O29	O	1.359216	0.501465	-0.710618
O30	O	1.859216	1.001465	-0.210618
O31	O	1.359025	0.711195	-0.500833
O32	O	1.859025	1.211195	-0.000833
O33	O	1.248236	0.695499	-0.575606
O34	O	1.748236	1.195499	-0.075606
C35	C	1.069337	0.505703	-0.505227
C36	C	1.569337	1.005703	-0.005227
C37	C	0.969061	0.491536	-0.491104
C38	C	1.469061	0.991536	0.008896
C39	C	1.303638	0.730051	-0.538229
C40	C	1.803638	1.230051	-0.038229
C41	C	1.303680	0.811856	-0.538245
C42	C	1.803680	1.311856	-0.038245
C43	C	1.303788	0.538815	-0.730239
C44	C	1.803788	1.038815	-0.230239
C45	C	1.303812	0.538797	-0.812041
C46	C	1.803812	1.038797	-0.312041
C47	C	0.686437	0.640112	-0.639213
C48	C	1.186437	1.140112	-0.139213
C49	C	0.780651	0.653427	-0.652480
C50	C	1.280651	1.153427	-0.152480
C51	C	0.827758	0.612956	-0.612137
C52	C	1.327758	1.112956	-0.112137
C53	C	0.780642	0.559166	-0.558526
C54	C	1.280642	1.059166	-0.058526
C55	C	0.686419	0.545854	-0.545254
C56	C	1.186419	1.045854	-0.045254
C57	C	0.827740	0.518697	-0.518178
C58	C	1.327740	1.018697	-0.018178
C59	C	0.780624	0.464908	-0.464566
C60	C	1.280624	0.964908	0.035434
C61	C	0.686410	0.451598	-0.451297
C62	C	1.186410	0.951598	0.048703
C63	C	0.639303	0.492069	-0.491640
C64	C	1.139303	0.992069	0.008360
C65	C	0.921963	0.532010	-0.531450
C66	C	1.421963	1.032010	-0.031450
C67	C	0.921945	0.437752	-0.437490
C68	C	1.421945	0.937752	0.062510
C69	C	0.827731	0.424436	-0.424224
C70	C	1.327731	0.924436	0.075776
C71	C	1.539045	0.572143	-0.571459
C72	C	2.039045	1.072143	-0.071459
C73	C	1.639321	0.586328	-0.585599
C74	C	2.139321	1.086328	-0.085599
C75	C	1.303854	0.346922	-0.538347
C76	C	1.803854	0.846922	-0.038347
C77	C	1.303905	0.265130	-0.538376
C78	C	1.803905	0.765130	-0.038376
C79	C	1.361503	1.008217	-0.499416
C80	C	1.861503	1.508217	0.000584
C81	C	1.361544	1.085081	-0.499439
C82	C	1.861544	1.585081	0.000561
C83	C	1.246079	1.068763	-0.577210
C84	C	1.746079	1.568763	-0.077210
C85	C	1.246044	0.991901	-0.577190
C86	C	1.746044	1.491901	-0.077190
C87	C	1.303755	0.961630	-0.538289
C88	C	1.803755	1.461630	-0.038289
C89	C	1.303830	1.115356	-0.538332
C90	C	1.803830	1.615356	-0.038332
C91	C	1.303874	1.198696	-0.538358
C92	C	1.803874	1.698696	-0.038358
C93	C	1.303713	0.878285	-0.538264
C94	C	1.803713	1.378285	-0.038264
C95	C	1.361563	0.499853	-1.008393
C96	C	1.861563	0.999853	-0.508393
C97	C	1.361574	0.499833	-1.085253
C98	C	1.861574	0.999833	-0.585253
C99	C	1.246124	0.577636	-1.068937
C100	C	1.746124	1.077636	-0.568937
C101	C	1.246110	0.577651	-0.992077
C102	C	1.746110	1.077651	-0.492077
C103	C	1.303834	0.538761	-0.961808
C104	C	1.803834	1.038761	-0.461808
C105	C	1.303860	0.538726	-1.115528
C106	C	1.803860	1.038726	-0.615528
C107	C	1.303871	0.538705	-1.198863
C108	C	1.803871	1.038705	-0.698863
C109	C	1.303822	0.538781	-0.878467
C110	C	1.803822	1.038781	-0.378467
C111	C	1.303731	0.538855	-0.347072
C112	C	1.803731	1.038855	0.152928
C113	C	1.303882	0.538691	-0.265294
C114	C	1.803882	1.038691	0.234706
H115	H	0.960316	0.575805	-0.575101
H116	H	1.460316	1.075805	-0.075101
H117	H	1.408582	0.468148	-1.123179
H118	H	1.908582	0.968148	-0.623179
C119	C	0.931396	0.627617	-0.626720
C120	C	1.431396	1.127617	-0.126720
N121	N	1.009461	0.638666	-0.637704
N122	N	1.509461	1.138666	-0.137704
H123	H	1.199018	0.953967	-0.608849
H124	H	1.699018	1.453967	-0.108849
C125	C	1.425054	0.457065	-0.975098
C126	C	1.925054	0.957065	-0.475098
N127	N	1.472874	0.424833	-0.950023
N128	N	1.972874	0.924833	-0.450023
H129	H	0.648051	0.407806	-0.407636
H130	H	1.148051	0.907806	0.092364
H131	H	1.199092	1.093420	-0.608881
H132	H	1.699092	1.593420	-0.108881
C133	C	1.182629	0.620411	-1.102241
C134	C	1.682629	1.120411	-0.602241
N135	N	1.134802	0.652630	-1.127324
N136	N	1.634802	1.152630	-0.627324
C137	C	0.634613	0.684627	-0.683581
C138	C	1.134613	1.184627	-0.183581
N139	N	0.595578	0.718159	-0.717001
N140	N	1.095578	1.218159	-0.217001
C141	C	1.182597	0.620453	-0.940830
C142	C	1.682597	1.120453	-0.440830
N143	N	1.134759	0.652688	-0.902231
N144	N	1.634759	1.152688	-0.402231
C145	C	0.973760	0.393228	-0.393112
C146	C	1.473760	0.893228	0.106888
N147	N	1.012792	0.359696	-0.359690
N148	N	1.512792	0.859696	0.140310
H149	H	0.562586	0.481229	-0.480843
H150	H	1.062586	0.981229	0.019157
H151	H	0.819006	0.697224	-0.696129
H152	H	1.319006	1.197224	-0.196129
H153	H	1.408569	1.123010	-0.467786
H154	H	1.908569	1.623010	0.032214
H155	H	1.408496	0.983572	-0.467741
H156	H	1.908496	1.483572	0.032259
H157	H	0.789356	0.380641	-0.380573
H158	H	1.289356	0.880641	0.119427
