data_functionalizedCrystal
_audit_creation_method	'MofGen! by Chris Wilmer'
_symmetry_space_group_name_H-M	'P1'
_symmetry_Int_Tables_number	1
_symmetry_cell_setting	triclinic
loop_
_symmetry_equiv_pos_as_xyz
  x,y,z
_cell_length_a	12.759401
_cell_length_b	13.897448
_cell_length_c	12.759393
_cell_angle_alpha	89.966449
_cell_angle_beta	89.982620
_cell_angle_gamma	90.017853
loop_
_atom_site_label
_atom_site_type_symbol
_atom_site_fract_x
_atom_site_fract_y
_atom_site_fract_z
Zn1	Zn	1.606222	-0.383952	-0.593968
Zn2	Zn	1.606111	-0.545282	-0.418283
Zn3	Zn	1.430527	-0.384003	-0.418308
Zn4	Zn	1.430503	-0.545207	-0.593924
O5	O	1.518341	-0.464611	-0.506121
O6	O	1.753228	-0.405363	-0.570671
O7	O	1.582782	-0.523941	-0.271265
O8	O	1.453890	-0.249015	-0.441638
O9	O	1.753146	-0.523891	-0.441596
O10	O	1.582972	-0.248977	-0.570695
O11	O	1.453782	-0.405450	-0.271283
O12	O	1.283503	-0.405377	-0.441596
O13	O	1.453849	-0.523764	-0.740951
O14	O	1.283486	-0.523813	-0.570621
O15	O	1.582949	-0.405290	-0.740984
O16	O	1.582759	-0.680254	-0.441554
O17	O	1.453741	-0.680199	-0.570597
C18	C	1.245373	-0.464593	-0.506107
C19	C	1.128597	-0.464609	-0.506125
C20	C	1.073753	-0.526377	-0.573198
C21	C	0.964029	-0.526389	-0.573209
C22	C	0.964002	-0.402862	-0.439067
C23	C	1.073724	-0.402846	-0.439062
C24	C	1.128626	-0.588140	-0.640261
C25	C	1.073782	-0.649914	-0.707338
C26	C	0.964058	-0.649927	-0.707349
C27	C	0.909178	-0.588165	-0.640284
C28	C	1.518264	-0.715225	-0.506090
C29	C	1.518327	-0.822439	-0.506113
C30	C	1.518438	-1.018734	-0.506178
C31	C	1.518373	-0.909502	-0.506145
C32	C	1.792374	-0.464630	-0.506136
C33	C	1.909151	-0.464637	-0.506142
C34	C	1.518409	-0.464513	-0.780154
C35	C	1.518438	-0.464471	-0.896931
C36	C	1.518446	-0.213018	-0.506174
C37	C	1.518491	-0.105804	-0.506197
C38	C	1.451296	-0.402761	-0.951809
C39	C	1.451328	-0.402733	-1.061533
C40	C	1.585653	-0.526126	-1.061492
C41	C	1.585615	-0.526159	-0.951770
C42	C	1.384119	-0.341074	-0.896970
C43	C	1.316973	-0.279358	-0.951847
C44	C	1.317005	-0.279329	-1.061571
C45	C	1.384183	-0.341016	-1.116418
C46	C	1.518333	-0.464639	-0.233154
C47	C	1.518508	-0.464409	-0.116377
H48	H	1.118379	-0.352542	-0.384454
C49	C	1.134140	-0.717844	-0.781110
H50	H	1.085760	-0.754625	-0.821065
H51	H	1.176920	-0.759824	-0.740838
H52	H	1.176966	-0.680983	-0.826958
H53	H	1.217969	-0.588139	-0.640258
H54	H	0.919407	-0.700219	-0.761974
C55	C	1.243131	-0.211467	-1.121939
H56	H	1.252759	-0.220292	-1.195141
H57	H	1.258516	-0.146659	-1.103986
H58	H	1.172530	-0.225601	-1.103944
C59	C	0.788484	-0.588157	-0.640321
H60	H	0.763678	-0.633787	-0.689877
H61	H	0.763702	-0.525928	-0.658614
H62	H	0.763612	-0.604769	-0.572495
H63	H	1.262273	-0.229140	-0.907184
H64	H	0.919310	-0.352579	-0.384465
C65	C	1.659551	-0.593965	-1.121821
H66	H	1.649965	-0.585100	-1.195027
H67	H	1.644147	-0.658781	-1.103825
H68	H	1.730144	-0.579850	-1.103838
H69	H	1.384201	-0.340990	-1.205763
H70	H	1.384088	-0.341088	-0.807627
H71	H	1.640302	-0.576395	-0.907088
