data_functionalizedCrystal
_audit_creation_method	'MofGen! by Chris Wilmer'
_symmetry_space_group_name_H-M	'P1'
_symmetry_Int_Tables_number	1
_symmetry_cell_setting	triclinic
loop_
_symmetry_equiv_pos_as_xyz
  x,y,z
_cell_length_a	14.853566
_cell_length_b	15.995292
_cell_length_c	13.930277
_cell_angle_alpha	89.998637
_cell_angle_beta	89.995631
_cell_angle_gamma	83.551515
loop_
_atom_site_label
_atom_site_type_symbol
_atom_site_fract_x
_atom_site_fract_y
_atom_site_fract_z
O1	O	1.196197	0.109315	-0.079760
O2	O	0.933717	0.122339	-0.079775
O3	O	1.072159	-0.006056	-0.079769
O4	O	1.057755	0.237709	-0.079767
O5	O	1.072140	-0.006059	0.079893
O6	O	0.933698	0.122336	0.079886
O7	O	1.196178	0.109312	0.079901
Zn8	Zn	1.064935	0.115823	0.105244
Zn9	Zn	1.064960	0.115827	-0.105118
O10	O	1.057736	0.237707	0.079895
C11	C	0.900120	0.121747	0.000053
C12	C	0.800039	0.119979	0.000047
C13	C	0.376876	0.112504	-0.086967
C14	C	0.376876	0.112501	0.087102
C15	C	0.470908	0.114161	0.087099
C16	C	0.517928	0.114994	0.000062
C17	C	0.470916	0.114166	-0.086973
C18	C	0.517926	0.114997	0.174132
C19	C	0.611963	0.116659	0.174133
C20	C	0.658985	0.117485	0.087094
C21	C	0.611967	0.116657	0.000056
C22	C	0.658987	0.117489	-0.086982
C23	C	0.611972	0.116655	-0.174021
C24	C	0.517938	0.114993	-0.174012
C25	C	0.753019	0.119147	0.087085
C26	C	0.753027	0.119152	-0.086987
C27	C	1.071564	-0.037254	0.000059
C28	C	1.069806	-0.130209	0.000052
C29	C	1.063344	-0.467955	0.000061
C30	C	1.163268	-0.444526	0.000423
C31	C	1.165168	-0.347849	0.000060
C32	C	1.066551	-0.300395	0.000057
C33	C	1.016604	-0.329552	-0.091118
C34	C	1.015401	-0.426344	-0.091191
C35	C	1.013339	-0.426207	0.090375
C36	C	1.017042	-0.329710	0.091576
C37	C	1.068357	-0.205697	0.000052
C38	C	1.061535	-0.562652	0.000059
C39	C	1.229775	0.109903	0.000070
C40	C	1.329856	0.111671	0.000070
C41	C	1.058331	0.268904	0.000064
C42	C	1.060089	0.361859	0.000065
N43	N	1.064924	0.115820	0.248810
N44	N	1.064978	0.115823	-0.248684
C45	C	1.003656	0.172658	0.701076
C46	C	1.126290	0.058990	0.701051
C47	C	1.126279	0.058987	0.600556
C48	C	1.064956	0.115822	0.550315
C49	C	1.003645	0.172659	0.600571
C50	C	1.187596	0.002157	0.550292
C51	C	1.187588	0.002153	0.449790
C52	C	1.126261	0.058984	0.399549
C53	C	1.064946	0.115822	0.449810
C54	C	1.003623	0.172657	0.399570
C55	C	0.942303	0.229492	0.449830
C56	C	0.942317	0.229490	0.550329
C57	C	1.126247	0.058986	0.299050
C58	C	1.003612	0.172658	0.299065
H59	H	1.201776	-0.472480	0.065808
H60	H	1.237527	-0.044112	0.591201
H61	H	0.953673	0.218936	0.258166
H62	H	1.176221	0.012721	0.741960
H63	H	0.479650	0.114313	-0.244874
O64	O	1.214016	-0.482897	-0.085697
H65	H	1.284463	-0.465978	-0.084744
O66	O	1.192360	-0.002311	0.244827
H67	H	1.262641	0.008466	0.264089
O68	O	0.937526	0.233967	0.755273
H69	H	0.893724	0.198651	0.801076
O70	O	0.803728	0.120057	0.180950
H71	H	0.793734	0.062714	0.222693
O72	O	0.662659	0.117573	0.268010
H73	H	0.652663	0.060231	0.309754
H74	H	0.791304	0.119827	-0.157865
O75	O	0.326172	0.111592	-0.180840
H76	H	0.374670	0.112441	-0.241360
O77	O	0.662695	0.117557	-0.267893
H78	H	0.614210	0.116703	-0.328417
O79	O	0.326085	0.112212	0.180973
H80	H	0.252768	0.111135	0.166354
O81	O	0.467104	0.114914	0.268000
H82	H	0.393779	0.113905	0.253377
H83	H	1.053410	-0.311104	0.159027
O84	O	1.217000	-0.322580	0.086615
H85	H	1.240935	-0.379462	0.129110
H86	H	1.050008	-0.453119	-0.159343
O87	O	1.217294	-0.323393	-0.086666
H88	H	1.241235	-0.380652	-0.128515
O89	O	1.062789	-0.303240	-0.180998
H90	H	1.121277	-0.269366	-0.160963
H91	H	0.942137	-0.440979	-0.095324
H92	H	0.944036	-0.297769	-0.094509
O93	O	1.054793	-0.463586	0.181915
H94	H	1.018356	-0.433108	0.244526
O95	O	0.921702	-0.286134	0.098896
H96	H	0.908050	-0.242716	0.037135
O97	O	0.915915	-0.444859	0.091205
H98	H	0.903126	-0.483669	0.027643
O99	O	0.876148	0.290779	0.395641
H100	H	0.886441	0.281220	0.317316
H101	H	0.892393	0.275764	0.591257
H102	H	1.237517	-0.044126	0.408875
