data_functionalizedCrystal
_audit_creation_method	'MofGen! by Chris Wilmer'
_symmetry_space_group_name_H-M	'P1'
_symmetry_Int_Tables_number	1
_symmetry_cell_setting	triclinic
loop_
_symmetry_equiv_pos_as_xyz
  x,y,z
_cell_length_a	25.639242
_cell_length_b	25.639240
_cell_length_c	12.594509
_cell_angle_alpha	90.041310
_cell_angle_beta	90.021966
_cell_angle_gamma	90.025061
loop_
_atom_site_label
_atom_site_type_symbol
_atom_site_fract_x
_atom_site_fract_y
_atom_site_fract_z
Zn1	Zn	0.799286	-0.208242	0.601781
Zn2	Zn	0.799207	-0.295685	0.423762
Zn3	Zn	0.711851	-0.208253	0.423808
Zn4	Zn	0.711816	-0.295637	0.601690
O5	O	0.755540	-0.251954	0.512760
O6	O	0.872441	-0.219857	0.578186
O7	O	0.787600	-0.284111	0.274822
O8	O	0.723496	-0.135087	0.447474
O9	O	0.872382	-0.284101	0.447396
O10	O	0.787735	-0.135079	0.578230
O11	O	0.723420	-0.219876	0.274856
O12	O	0.638681	-0.219830	0.447386
O13	O	0.723438	-0.284019	0.750648
O14	O	0.638656	-0.284030	0.578075
O15	O	0.787702	-0.219811	0.750715
O16	O	0.787567	-0.368844	0.447307
O17	O	0.723361	-0.368808	0.578030
C18	C	0.619697	-0.251926	0.512726
C19	C	0.561583	-0.251927	0.512737
C20	C	0.755466	-0.387797	0.512677
C21	C	0.755482	-0.445911	0.512677
C22	C	0.310428	-0.218562	0.580987
C23	C	0.365032	-0.218557	0.580981
O24	O	0.393302	-0.190167	0.639002
N25	N	0.392309	-0.251948	0.512773
C26	C	0.364979	-0.285351	0.444574
O27	O	0.393194	-0.313752	0.386557
C28	C	0.310376	-0.285358	0.444586
C29	C	0.283102	-0.251961	0.512791
C30	C	0.283154	-0.185168	0.649187
C31	C	0.228553	-0.185173	0.649192
C32	C	0.201227	-0.218571	0.580996
C33	C	0.228501	-0.251965	0.512795
C34	C	0.283047	-0.318763	0.376393
C35	C	0.228440	-0.318767	0.376412
C36	C	0.201166	-0.285370	0.444617
C37	C	0.146574	-0.285369	0.444604
N38	N	0.119297	-0.251977	0.512812
C39	C	0.146624	-0.218579	0.581008
C40	C	0.479650	-0.285333	0.444554
C41	C	0.534252	-0.285324	0.444536
C42	C	0.534302	-0.218530	0.580945
C43	C	0.479698	-0.218538	0.580957
C44	C	0.452373	-0.251942	0.512763
C45	C	0.031959	-0.218591	0.581011
C46	C	-0.022647	-0.218597	0.581007
C47	C	-0.022691	-0.285391	0.444602
C48	C	0.031909	-0.285384	0.444602
C49	C	0.059233	-0.251982	0.512816
O50	O	0.118270	-0.313746	0.386615
O51	O	0.118402	-0.190187	0.639024
C52	C	0.789005	-0.806231	0.580968
C53	C	0.789021	-0.860836	0.580990
O54	O	0.817436	-0.889036	0.638967
N55	N	0.755612	-0.888193	0.512863
C56	C	0.722183	-0.860944	0.444719
O57	O	0.693767	-0.889228	0.386775
C58	C	0.722165	-0.806341	0.444703
C59	C	0.755579	-0.778986	0.512826
C60	C	0.822417	-0.778876	0.649086
C61	C	0.822402	-0.724276	0.649063
C62	C	0.788976	-0.697030	0.580921
C63	C	0.755564	-0.724385	0.512803
C64	C	0.688733	-0.779092	0.376565
C65	C	0.688718	-0.724485	0.376555
C66	C	0.722132	-0.697130	0.444679
C67	C	0.722124	-0.642539	0.444638
N68	N	0.755532	-0.615181	0.512764
C69	C	0.788958	-0.642427	0.580906
C70	C	0.722222	-0.975615	0.444758
C71	C	0.722242	-1.030217	0.444767
C72	C	0.789079	-1.030105	0.581040
C73	C	0.789062	-0.975501	0.581024
C74	C	0.755630	-0.948257	0.512884
C75	C	0.788925	-0.527762	0.580851
C76	C	0.788908	-0.473157	0.580819
C77	C	0.722069	-0.473273	0.444550
C78	C	0.722087	-0.527874	0.444578
C79	C	0.755517	-0.555117	0.512737
O80	O	0.693722	-0.614304	0.386693
O81	O	0.817364	-0.614136	0.638850
C82	C	0.891913	-0.251983	0.512796
C83	C	0.950027	-0.251995	0.512811
C84	C	0.755575	-0.251909	0.790381
C85	C	0.755590	-0.251889	0.908687
C86	C	0.755628	-0.115581	0.512867
C87	C	0.755666	-0.057467	0.512913
C88	C	0.755535	-0.251962	0.236219
C89	C	0.755621	-0.251834	0.117915
C90	C	0.720648	-0.286792	0.977904
C91	C	0.768352	-0.299573	1.048689
C92	C	0.707923	-0.239076	1.048701
C93	C	0.803319	-0.264695	0.977914
C94	C	0.742858	-0.204176	0.977919
C95	C	0.790595	-0.216939	1.048673
H96	H	-0.044851	-0.191398	0.636547
F97	F	0.728742	-0.151481	0.937254
H98	H	0.667599	-0.228262	1.079795
F99	F	0.686640	-0.946623	0.372222
H100	H	0.849636	-0.801054	0.704582
F101	F	0.061031	-0.183040	0.653611
F102	F	0.682055	-0.325431	0.937286
F103	F	0.856040	-0.278895	0.937448
H104	H	0.816296	-1.052298	0.636526
F105	F	0.857963	-0.695169	0.721576
F106	F	0.686684	-1.059324	0.372247
F107	F	0.824625	-0.946393	0.653530
F108	F	0.199533	-0.149630	0.721793
F109	F	0.653167	-0.808194	0.304060
H110	H	0.661492	-0.702305	0.321069
H111	H	0.820192	-0.187399	1.079550
H112	H	0.694882	-0.550148	0.389099
H113	H	0.779138	-0.339900	1.079776
F114	F	0.312229	-0.149619	0.721780
F115	F	0.563394	-0.182984	0.653526
F116	F	0.450676	-0.182993	0.653551
F117	F	0.450573	-0.320884	0.371958
F118	F	0.312062	-0.354303	0.303785
F119	F	0.563273	-0.320861	0.371925
F120	F	0.686497	-0.444267	0.372032
H121	H	0.206194	-0.345971	0.320881
H122	H	-0.044950	-0.312582	0.389074
F123	F	0.824475	-0.444046	0.653326
F124	F	0.060937	-0.320930	0.372015
H125	H	0.816142	-0.549937	0.636360
