data_functionalizedCrystal
_audit_creation_method	'MofGen! by Chris Wilmer'
_symmetry_space_group_name_H-M	'P1'
_symmetry_Int_Tables_number	1
_symmetry_cell_setting	triclinic
loop_
_symmetry_equiv_pos_as_xyz
  x,y,z
_cell_length_a	17.077404
_cell_length_b	10.685194
_cell_length_c	17.077396
_cell_angle_alpha	85.602381
_cell_angle_beta	89.981638
_cell_angle_gamma	94.375067
loop_
_atom_site_label
_atom_site_type_symbol
_atom_site_fract_x
_atom_site_fract_y
_atom_site_fract_z
Zn1	Zn	1.176177	-0.502477	-0.419859
Zn2	Zn	1.166055	-0.713523	-0.278530
Zn3	Zn	1.044907	-0.502513	-0.288608
Zn4	Zn	1.034852	-0.713439	-0.409760
O5	O	1.105498	-0.607988	-0.349190
O6	O	1.284680	-0.530492	-0.401121
O7	O	1.149957	-0.685582	-0.170018
O8	O	1.070764	-0.325911	-0.314463
O9	O	1.277244	-0.685547	-0.297287
O10	O	1.167208	-0.325884	-0.410893
O11	O	1.060950	-0.530553	-0.177422
O12	O	0.933727	-0.530473	-0.304671
O13	O	1.053627	-0.685405	-0.520949
O14	O	0.926340	-0.685440	-0.393681
O15	O	1.157458	-0.530411	-0.528369
O16	O	1.140207	-0.890109	-0.287494
O17	O	1.043812	-0.890047	-0.383908
C18	C	0.901552	-0.607952	-0.349174
C19	C	0.814301	-0.607967	-0.349184
C20	C	0.777177	-0.527374	-0.403320
C21	C	0.695196	-0.527382	-0.403323
C22	C	0.650341	-0.607991	-0.349194
C23	C	0.687470	-0.688588	-0.295052
C24	C	0.769450	-0.688572	-0.295045
C25	C	0.516599	-0.688616	-0.295070
C26	C	0.434613	-0.688634	-0.295077
C27	C	0.442345	-0.527426	-0.403348
C28	C	0.524325	-0.527411	-0.403342
C29	C	0.561449	-0.608009	-0.349200
C30	C	1.089841	-0.935868	-0.333529
C31	C	1.083215	-1.076136	-0.326855
C32	C	1.310240	-0.608025	-0.349206
C33	C	1.397489	-0.608040	-0.349213
C34	C	1.105550	-0.607895	-0.553938
C35	C	1.105572	-0.607855	-0.641190
C36	C	1.121237	-0.278828	-0.364929
C37	C	1.127944	-0.138559	-0.371636
C38	C	1.159639	-0.527143	-0.686045
C39	C	1.159650	-0.527101	-0.768028
C40	C	1.105598	-0.607779	-0.805153
C41	C	1.051525	-0.688494	-0.760292
C42	C	1.051511	-0.688529	-0.678312
C43	C	1.051560	-0.688418	-0.931166
C44	C	1.051576	-0.688385	-1.013152
C45	C	1.159700	-0.526991	-1.020882
C46	C	1.159685	-0.527026	-0.938902
C47	C	1.105613	-0.607743	-0.894046
C48	C	1.105496	-0.607989	-0.145242
C49	C	1.105642	-0.607674	-0.058007
H50	H	0.546822	-0.754245	-0.250980
O51	O	0.993234	-0.775466	-0.882785
H52	H	1.001964	-0.874510	-0.893778
O53	O	0.572710	-0.440462	-0.461717
H54	H	0.533125	-0.384406	-0.499359
O55	O	0.402313	-0.440480	-0.461740
H56	H	0.337772	-0.454017	-0.452645
H57	H	1.203704	-0.461338	-0.908676
H58	H	0.398094	-0.754273	-0.251000
H59	H	1.007512	-0.754178	-0.790526
O60	O	0.993269	-0.775378	-1.053203
H61	H	1.001972	-0.874440	-1.032736
H62	H	1.007476	-0.754240	-0.641792
H63	H	0.813693	-0.461736	-0.447401
O64	O	1.025761	-1.147479	-0.269302
H65	H	1.040436	-1.122288	-0.208893
H66	H	1.203726	-0.461266	-1.057408
H67	H	1.171309	-1.084694	-0.415084
H68	H	0.650942	-0.754215	-0.250975
O69	O	1.217939	-0.440127	-0.646003
H70	H	1.255531	-0.383988	-0.690971
H71	H	0.799675	-0.754199	-0.250962
O72	O	0.655152	-0.440456	-0.461712
H73	H	0.700115	-0.384412	-0.499356
O74	O	1.217969	-0.440056	-0.816410
H75	H	1.255560	-0.383977	-0.776821
