data_functionalizedCrystal
_audit_creation_method	'MofGen! by Chris Wilmer'
_symmetry_space_group_name_H-M	'P1'
_symmetry_Int_Tables_number	1
_symmetry_cell_setting	triclinic
loop_
_symmetry_equiv_pos_as_xyz
  x,y,z
_cell_length_a	16.120490
_cell_length_b	16.120484
_cell_length_c	12.759393
_cell_angle_alpha	87.135992
_cell_angle_beta	92.918609
_cell_angle_gamma	90.164100
loop_
_atom_site_label
_atom_site_type_symbol
_atom_site_fract_x
_atom_site_fract_y
_atom_site_fract_z
Zn1	Zn	1.254506	-0.395627	0.699333
Zn2	Zn	1.247342	-0.534698	0.532065
Zn3	Zn	1.115437	-0.388600	0.514343
Zn4	Zn	1.108358	-0.527572	0.698376
O5	O	1.181411	-0.461624	0.611029
O6	O	1.369922	-0.419999	0.684962
O7	O	1.229809	-0.515359	0.382693
O8	O	1.139846	-0.273169	0.531866
O9	O	1.364658	-0.522174	0.562071
O10	O	1.242019	-0.278333	0.667777
O11	O	1.132899	-0.408021	0.369673
O12	O	0.998132	-0.401111	0.530937
O13	O	1.127781	-0.510028	0.845524
O14	O	0.992931	-0.503214	0.666146
O15	O	1.235155	-0.413089	0.846227
O16	O	1.222945	-0.650115	0.561143
O17	O	1.120834	-0.644880	0.683331
C18	C	0.965359	-0.450627	0.596515
C19	C	0.872930	-0.445943	0.590332
C20	C	1.170366	-0.677670	0.624080
C21	C	1.165717	-0.770099	0.629704
C22	C	1.157234	-0.939329	0.639993
C23	C	1.205737	-0.983086	0.582092
C24	C	1.201017	-1.077252	0.587817
C25	C	1.161953	-0.845155	0.634270
C26	C	0.659963	-0.485917	0.643103
C27	C	0.703707	-0.437398	0.579043
C28	C	0.797871	-0.442154	0.585326
C29	C	0.565790	-0.481162	0.636821
C30	C	1.398306	-0.472665	0.625600
C31	C	1.490734	-0.477370	0.631810
C32	C	1.181477	-0.461548	0.885062
C33	C	1.181505	-0.461515	1.001838
C34	C	1.192522	-0.244736	0.597951
C35	C	1.197256	-0.152311	0.592378
C36	C	1.181396	-0.461643	0.338062
C37	C	1.181541	-0.461450	0.221283
C38	C	1.237420	-0.411030	1.057068
C39	C	1.237436	-0.410995	1.166791
C40	C	1.125620	-0.511936	1.166045
C41	C	1.125601	-0.511967	1.056324
H42	H	1.112168	-0.972586	0.693858
C43	C	0.704898	-0.546861	0.723557
H44	H	0.665071	-0.576678	0.762930
H45	H	0.736923	-0.584726	0.687687
H46	H	0.740420	-0.516770	0.769702
C47	C	1.266597	-0.938162	0.509286
H48	H	1.261812	-0.879847	0.514921
H49	H	1.321778	-0.955114	0.529282
H50	H	1.253727	-0.951797	0.438721
H51	H	1.080063	-0.553076	1.011354
C52	C	1.298901	-0.355525	0.997136
H53	H	1.332197	-0.325447	1.045747
H54	H	1.333499	-0.389184	0.958685
H55	H	1.268931	-0.317684	0.950013
C56	C	1.298945	-0.355466	1.227540
H57	H	1.332238	-0.325430	1.179373
H58	H	1.269004	-0.317601	1.266017
H59	H	1.333555	-0.389115	1.274697
C60	C	0.658768	-0.376453	0.498583
H61	H	0.600456	-0.381213	0.504858
H62	H	0.675807	-0.321300	0.511628
H63	H	0.672304	-0.389261	0.429619
H64	H	1.080107	-0.553014	1.210421
