data_functionalizedCrystal
_audit_creation_method	'MofGen! by Chris Wilmer'
_symmetry_space_group_name_H-M	'P1'
_symmetry_Int_Tables_number	1
_symmetry_cell_setting	triclinic
loop_
_symmetry_equiv_pos_as_xyz
  x,y,z
_cell_length_a	19.121102
_cell_length_b	19.121063
_cell_length_c	16.120297
_cell_angle_alpha	95.179432
_cell_angle_beta	90.563713
_cell_angle_gamma	90.126902
loop_
_atom_site_label
_atom_site_type_symbol
_atom_site_fract_x
_atom_site_fract_y
_atom_site_fract_z
Zn1	Zn	1.035783	-0.347015	-0.541312
Zn2	Zn	1.036635	-0.458791	-0.407594
Zn3	Zn	0.925017	-0.336083	-0.395761
Zn4	Zn	0.913533	-0.459183	-0.540754
O5	O	0.977742	-0.400268	-0.471355
O6	O	1.133771	-0.366254	-0.528760
O7	O	1.026990	-0.437775	-0.289383
O8	O	0.944160	-0.239237	-0.410349
O9	O	1.134396	-0.448375	-0.430518
O10	O	1.025540	-0.247269	-0.517285
O11	O	0.944985	-0.347622	-0.280689
O12	O	0.825619	-0.348001	-0.409808
O13	O	0.924588	-0.449042	-0.657469
O14	O	0.817182	-0.438442	-0.516334
O15	O	1.014405	-0.366633	-0.657879
O16	O	1.015855	-0.557139	-0.429977
O17	O	0.925413	-0.557427	-0.527809
C18	C	0.796023	-0.392078	-0.461727
C19	C	0.718281	-0.388593	-0.457629
C20	C	0.677384	-0.434107	-0.511085
C21	C	0.604337	-0.430822	-0.507238
C22	C	0.572189	-0.382027	-0.449930
C23	C	0.613092	-0.336508	-0.396471
C24	C	0.686137	-0.339789	-0.400323
C25	C	0.351859	-0.369756	-0.435533
C26	C	0.278808	-0.366480	-0.431684
C27	C	0.270059	-0.460794	-0.542452
C28	C	0.343106	-0.464074	-0.546295
C29	C	0.384002	-0.418553	-0.492840
C30	C	0.497524	-0.378670	-0.445994
C31	C	0.458666	-0.421907	-0.496780
C32	C	0.969498	-0.582772	-0.480136
C33	C	0.966035	-0.660852	-0.483923
C34	C	1.011528	-0.697364	-0.434813
C35	C	1.008274	-0.770729	-0.438380
C36	C	0.959523	-0.807580	-0.491054
C37	C	0.914027	-0.771062	-0.540170
C38	C	0.917285	-0.697699	-0.536606
C39	C	0.947332	-1.029097	-0.504364
C40	C	0.944077	-1.102466	-0.507922
C41	C	1.038325	-1.102127	-0.406133
C42	C	1.041576	-1.028763	-0.402570
C43	C	0.996083	-0.992252	-0.451689
C44	C	0.956194	-0.882570	-0.494700
C45	C	0.999415	-0.917263	-0.448047
C46	C	1.160171	-0.408490	-0.481021
C47	C	1.237911	-0.411994	-0.485140
C48	C	0.968120	-0.409101	-0.688763
C49	C	0.964020	-0.412865	-0.781410
C50	C	0.986036	-0.217053	-0.462559
C51	C	0.989570	-0.138978	-0.458811
C52	C	0.956509	-0.419720	-0.951034
C53	C	0.999122	-0.380612	-0.992525
C54	C	0.994943	-0.384426	-1.086910
C55	C	0.960687	-0.415906	-0.856641
C56	C	0.987369	-0.391421	-0.254792
C57	C	0.991613	-0.387465	-0.162144
H58	H	0.571042	-0.467886	-0.550767
Br59	Br	1.107750	-0.978757	-0.331093
Br60	Br	0.885591	-0.979556	-0.571026
Br61	Br	1.065176	-0.320050	-0.933590
H62	H	0.369275	-0.503810	-0.592960
H63	H	0.385148	-0.332695	-0.391999
Br64	Br	0.847869	-0.821073	-0.611664
H65	H	0.703553	-0.473844	-0.557749
Br66	Br	0.214554	-0.522572	-0.614992
H67	H	0.252636	-0.326736	-0.385021
Br68	Br	0.569463	-0.270278	-0.318702
H69	H	0.719435	-0.302723	-0.356797
Br70	Br	0.502296	-0.488126	-0.574555
Br71	Br	0.890477	-0.480297	-1.009973
H72	H	0.471341	-0.338942	-0.399332
Br73	Br	1.077688	-0.647359	-0.363315
H74	H	1.045320	-0.800454	-0.398389
Br75	Br	1.100066	-1.151682	-0.339479
Br76	Br	0.877898	-1.152476	-0.579398
H77	H	0.880240	-0.667971	-0.576598
H78	H	1.039111	-0.887257	-0.405163
H79	H	0.916499	-0.912582	-0.537585
