data_functionalizedCrystal
_audit_creation_method	'MofGen! by Chris Wilmer'
_symmetry_space_group_name_H-M	'P1'
_symmetry_Int_Tables_number	1
_symmetry_cell_setting	triclinic
loop_
_symmetry_equiv_pos_as_xyz
  x,y,z
_cell_length_a	23.532407
_cell_length_b	15.944551
_cell_length_c	14.421503
_cell_angle_alpha	89.996660
_cell_angle_beta	89.997762
_cell_angle_gamma	96.826292
loop_
_atom_site_label
_atom_site_type_symbol
_atom_site_fract_x
_atom_site_fract_y
_atom_site_fract_z
O1	O	0.755658	-0.101953	-0.076998
O2	O	1.005658	0.148047	0.173002
O3	O	1.255658	0.398047	0.423002
O4	O	1.505658	0.648047	0.673002
O5	O	0.589852	-0.116706	-0.077025
O6	O	0.839852	0.133294	0.172975
O7	O	1.089852	0.383294	0.422975
O8	O	1.339852	0.633294	0.672975
O9	O	0.677283	0.012983	-0.077003
O10	O	0.927283	0.262983	0.172997
O11	O	1.177283	0.512983	0.422997
O12	O	1.427283	0.762983	0.672997
O13	O	0.668227	-0.231642	-0.077021
O14	O	0.918227	0.018358	0.172979
O15	O	1.168227	0.268358	0.422979
O16	O	1.418227	0.518358	0.672979
O17	O	0.677268	0.012964	0.077221
O18	O	0.927268	0.262964	0.327221
O19	O	1.177268	0.512964	0.577221
O20	O	1.427268	0.762964	0.827221
O21	O	0.589837	-0.116726	0.077198
O22	O	0.839837	0.133274	0.327198
O23	O	1.089837	0.383274	0.577198
O24	O	1.339837	0.633274	0.827198
O25	O	0.755643	-0.101972	0.077225
O26	O	1.005643	0.148028	0.327225
O27	O	1.255643	0.398028	0.577225
O28	O	1.505643	0.648028	0.827225
Cu29	Cu	0.672739	-0.109351	0.091294
Cu30	Cu	0.922739	0.140649	0.341294
Cu31	Cu	1.172739	0.390649	0.591294
Cu32	Cu	1.422739	0.640649	0.841294
Cu33	Cu	0.672756	-0.109328	-0.091094
Cu34	Cu	0.922756	0.140672	0.158906
Cu35	Cu	1.172756	0.390672	0.408906
Cu36	Cu	1.422756	0.640672	0.658906
O37	O	0.668213	-0.231662	0.077203
O38	O	0.918213	0.018338	0.327203
O39	O	1.168213	0.268338	0.577203
O40	O	1.418213	0.518338	0.827203
C41	C	0.568627	-0.116340	0.000083
C42	C	0.818627	0.133660	0.250083
C43	C	1.068627	0.383660	0.500083
C44	C	1.318627	0.633660	0.750083
C45	C	0.505406	-0.115211	0.000073
C46	C	0.755406	0.134789	0.250073
C47	C	1.005406	0.384789	0.500073
C48	C	1.255406	0.634789	0.750073
C49	C	0.676899	0.044265	0.000109
C50	C	0.926899	0.294265	0.250109
C51	C	1.176899	0.544265	0.500109
C52	C	1.426899	0.794265	0.750109
C53	C	0.675772	0.137501	0.000110
C54	C	0.925772	0.387501	0.250110
C55	C	1.175772	0.637501	0.500110
C56	C	1.425772	0.887501	0.750110
N57	N	0.672731	-0.109366	0.219575
N58	N	0.922731	0.140634	0.469575
N59	N	1.172731	0.390634	0.719575
N60	N	1.422731	0.640634	0.969575
C61	C	0.106572	-0.184874	0.000109
C62	C	0.356572	0.065126	0.250109
C63	C	0.606572	0.315126	0.500109
C64	C	0.856572	0.565126	0.750109
C65	C	0.047168	-0.183824	0.000115
C66	C	0.297168	0.066176	0.250115
C67	C	0.547168	0.316176	0.500115
C68	C	0.797168	0.566176	0.750115
O69	O	0.010674	-0.248403	0.000144
O70	O	0.260674	0.001597	0.250144
O71	O	0.510674	0.251597	0.500144
O72	O	0.760674	0.501597	0.750144
N73	N	0.024243	-0.106724	0.000119
N74	N	0.274243	0.143276	0.250119
N75	N	0.524243	0.393276	0.500119
N76	N	0.774243	0.643276	0.750119
C77	C	0.060726	-0.030668	0.000127
C78	C	0.310726	0.219332	0.250127
C79	C	0.560726	0.469332	0.500127
C80	C	0.810726	0.719332	0.750127
O81	O	0.035772	0.035009	0.000132
O82	O	0.285772	0.285009	0.250132
O83	O	0.535772	0.535009	0.500132
O84	O	0.785772	0.785009	0.750132
C85	C	0.120129	-0.031718	0.000128
C86	C	0.370129	0.218282	0.250128
C87	C	0.620129	0.468282	0.500128
C88	C	0.870129	0.718282	0.750128
C89	C	0.143051	-0.108823	0.000114
C90	C	0.393051	0.141177	0.250114
C91	C	0.643051	0.391177	0.500114
C92	C	0.893051	0.641177	0.750114
C93	C	0.129494	-0.261973	0.000097
C94	C	0.379494	-0.011973	0.250097
C95	C	0.629494	0.238027	0.500097
C96	C	0.879494	0.488027	0.750097
C97	C	0.188894	-0.263022	0.000089
C98	C	0.438894	-0.013022	0.250089
C99	C	0.688894	0.236978	0.500089
C100	C	0.938894	0.486978	0.750089
C101	C	0.225373	-0.186971	0.000094
C102	C	0.475373	0.063029	0.250094
C103	C	0.725373	0.313029	0.500094
C104	C	0.975373	0.563029	0.750094
C105	C	0.202451	-0.109872	0.000107
C106	C	0.452451	0.140128	0.250107
C107	C	0.702451	0.390128	0.500107
C108	C	0.952451	0.640128	0.750107
C109	C	0.156611	0.044337	0.000143
C110	C	0.406611	0.294337	0.250143
C111	C	0.656611	0.544337	0.500143
C112	C	0.906611	0.794337	0.750143
C113	C	0.216018	0.043281	0.000144
C114	C	0.466018	0.293281	0.250144
C115	C	0.716018	0.543281	0.500144
C116	C	0.966018	0.793281	0.750144
C117	C	0.238939	-0.033825	0.000131
C118	C	0.488939	0.216175	0.250131
C119	C	0.738939	0.466175	0.500131
C120	C	0.988939	0.716175	0.750131
C121	C	0.298329	-0.034871	0.000105
C122	C	0.548329	0.215129	0.250105
C123	C	0.798329	0.465129	0.500105
C124	C	1.048329	0.715129	0.750105
N125	N	0.321254	-0.111971	0.000100
N126	N	0.571254	0.138029	0.250100
N127	N	0.821254	0.388029	0.500100
N128	N	1.071254	0.638029	0.750100
C129	C	0.284776	-0.188022	0.000095
C130	C	0.534776	0.061978	0.250095
C131	C	0.784776	0.311978	0.500095
C132	C	1.034776	0.561978	0.750095
C133	C	-0.064025	-0.028468	0.000127
C134	C	0.185975	0.221532	0.250127
C135	C	0.435975	0.471532	0.500127
C136	C	0.685975	0.721532	0.750127
C137	C	-0.123427	-0.027417	0.000119
C138	C	0.126573	0.222583	0.250119
C139	C	0.376573	0.472583	0.500119
C140	C	0.626573	0.722583	0.750119
C141	C	-0.136981	-0.180574	0.000109
C142	C	0.113019	0.069426	0.250109
C143	C	0.363019	0.319426	0.500109
C144	C	0.613019	0.569426	0.750109
C145	C	-0.077578	-0.181624	0.000110
C146	C	0.172422	0.068376	0.250110
C147	C	0.422422	0.318376	0.500110
C148	C	0.672422	0.568376	0.750110
C149	C	-0.041100	-0.105569	0.000123
C150	C	0.208900	0.144431	0.250123
C151	C	0.458900	0.394431	0.500123
C152	C	0.708900	0.644431	0.750123
C153	C	0.409521	-0.190219	0.000079
C154	C	0.659521	0.059781	0.250079
C155	C	0.909521	0.309781	0.500079
C156	C	1.159521	0.559781	0.750079
C157	C	0.468927	-0.191261	0.000067
C158	C	0.718927	0.058739	0.250067
C159	C	0.968927	0.308739	0.500067
C160	C	1.218927	0.558739	0.750067
C161	C	0.482476	-0.038104	0.000083
C162	C	0.732476	0.211896	0.250083
C163	C	0.982476	0.461896	0.500083
C164	C	1.232476	0.711896	0.750083
C165	C	0.423075	-0.037062	0.000089
C166	C	0.673075	0.212938	0.250089
C167	C	0.923075	0.462938	0.500089
C168	C	1.173075	0.712938	0.750089
C169	C	0.386599	-0.113126	0.000090
C170	C	0.636599	0.136874	0.250090
C171	C	0.886599	0.386874	0.500090
C172	C	1.136599	0.636874	0.750090
O173	O	0.334859	0.029673	0.000080
O174	O	0.584859	0.279673	0.250080
O175	O	0.834859	0.529673	0.500080
O176	O	1.084859	0.779673	0.750080
O177	O	0.309738	-0.253687	0.000103
O178	O	0.559738	-0.003687	0.250103
O179	O	0.809738	0.246313	0.500103
O180	O	1.059738	0.496313	0.750103
C181	C	0.776868	-0.102338	0.000115
C182	C	1.026868	0.147662	0.250115
C183	C	1.276868	0.397662	0.500115
C184	C	1.526868	0.647662	0.750115
C185	C	0.840090	-0.103468	0.000119
C186	C	1.090090	0.146532	0.250119
C187	C	1.340090	0.396532	0.500119
C188	C	1.590090	0.646532	0.750119
C189	C	0.668596	-0.262943	0.000089
C190	C	0.918596	-0.012943	0.250089
C191	C	1.168596	0.237057	0.500089
C192	C	1.418596	0.487057	0.750089
C193	C	0.669723	-0.356179	0.000082
C194	C	0.919723	-0.106179	0.250082
C195	C	1.169723	0.143821	0.500082
C196	C	1.419723	0.393821	0.750082
C197	C	0.618885	0.351879	0.000087
C198	C	0.868885	0.601879	0.250087
C199	C	1.118885	0.851879	0.500087
C200	C	1.368885	1.101879	0.750087
C201	C	0.645294	0.413109	0.076133
C202	C	0.895294	0.663109	0.326133
C203	C	1.145294	0.913109	0.576133
C204	C	1.395294	1.163109	0.826133
C205	C	0.673733	0.308210	0.000102
C206	C	0.923733	0.558210	0.250102
C207	C	1.173733	0.808210	0.500102
C208	C	1.423733	1.058210	0.750102
C209	C	0.645322	0.413111	-0.075919
C210	C	0.895322	0.663111	0.174081
C211	C	1.145322	0.913111	0.424081
C212	C	1.395322	1.163111	0.674081
C213	C	0.671760	0.473106	0.000091
C214	C	0.921760	0.723106	0.250091
C215	C	1.171760	0.973106	0.500091
C216	C	1.421760	1.223106	0.750091
C217	C	0.700158	0.368212	0.076211
C218	C	0.950158	0.618212	0.326211
C219	C	1.200158	0.868212	0.576211
C220	C	1.450158	1.118212	0.826211
C221	C	0.700178	0.368208	-0.075910
C222	C	0.950178	0.618208	0.174090
C223	C	1.200178	0.868208	0.424090
C224	C	1.450178	1.118208	0.674090
C225	C	0.726627	0.429421	0.000155
C226	C	0.976627	0.679421	0.250155
C227	C	1.226627	0.929421	0.500155
C228	C	1.476627	1.179421	0.750155
C229	C	0.674869	0.213217	0.000109
C230	C	0.924869	0.463217	0.250109
C231	C	1.174869	0.713217	0.500109
C232	C	1.424869	0.963217	0.750109
C233	C	0.670629	0.568097	0.000090
C234	C	0.920629	0.818097	0.250090
C235	C	1.170629	1.068097	0.500090
C236	C	1.420629	1.318097	0.750090
N237	N	0.672769	-0.109306	-0.219375
N238	N	0.922769	0.140694	0.030625
N239	N	1.172769	0.390694	0.280625
N240	N	1.422769	0.640694	0.530625
C241	C	0.632296	-0.169308	0.469218
C242	C	0.882296	0.080692	0.719218
C243	C	1.132296	0.330692	0.969218
C244	C	1.382296	0.580692	1.219218
C245	C	0.683757	-0.185182	0.531028
C246	C	0.933757	0.064818	0.781028
C247	C	1.183757	0.314818	1.031028
C248	C	1.433757	0.564818	1.281028
C249	C	0.672745	-0.109346	0.408736
C250	C	0.922745	0.140654	0.658736
C251	C	1.172745	0.390654	0.908736
C252	C	1.422745	0.640654	1.158736
C253	C	0.621298	-0.093492	0.531020
C254	C	0.871298	0.156508	0.781020
C255	C	1.121298	0.406508	1.031020
C256	C	1.371298	0.656508	1.281020
C257	C	0.672754	-0.109328	0.591458
C258	C	0.922754	0.140672	0.841458
C259	C	1.172754	0.390672	1.091458
C260	C	1.422754	0.640672	1.341458
C261	C	0.724232	-0.125257	0.469185
C262	C	0.974232	0.124743	0.719185
C263	C	1.224232	0.374743	0.969185
C264	C	1.474232	0.624743	1.219185
C265	C	0.661739	-0.033535	0.469172
C266	C	0.911739	0.216465	0.719172
C267	C	1.161739	0.466465	0.969172
C268	C	1.411739	0.716465	1.219172
C269	C	0.713237	-0.049376	0.530954
C270	C	0.963237	0.200624	0.780954
C271	C	1.213237	0.450624	1.030954
C272	C	1.463237	0.700624	1.280954
C273	C	0.672739	-0.109358	0.303475
C274	C	0.922739	0.140642	0.553475
C275	C	1.172739	0.390642	0.803475
C276	C	1.422739	0.640642	1.053475
C277	C	0.672766	-0.109315	0.696717
C278	C	0.922766	0.140685	0.946717
C279	C	1.172766	0.390685	1.196717
C280	C	1.422766	0.640685	1.446717
H281	H	0.487586	-0.254052	0.000056
H282	H	0.737586	-0.004052	0.250056
H283	H	0.987586	0.245948	0.500056
H284	H	1.237586	0.495948	0.750056
F285	F	0.730449	0.342332	0.160335
F286	F	0.980449	0.592332	0.410335
F287	F	1.230449	0.842332	0.660335
F288	F	1.480449	1.092332	0.910335
F289	F	0.254837	0.124232	0.000160
F290	F	0.504837	0.374232	0.250160
F291	F	0.754837	0.624232	0.500160
F292	F	1.004837	0.874232	0.750160
H293	H	0.598124	-0.220056	0.442111
H294	H	0.848124	0.029944	0.692111
H295	H	1.098124	0.279944	0.942111
H296	H	1.348124	0.529944	1.192111
H297	H	0.577786	-0.080090	0.558184
H298	H	0.827786	0.169910	0.808184
H299	H	1.077786	0.419910	1.058184
H300	H	1.327786	0.669910	1.308184
F301	F	0.132230	0.126405	0.000144
F302	F	0.382230	0.376405	0.250144
F303	F	0.632230	0.626405	0.500144
F304	F	0.882230	0.876405	0.750144
H305	H	0.622089	0.433014	0.140416
H306	H	0.872089	0.683014	0.390416
H307	H	1.122089	0.933014	0.640416
H308	H	1.372089	1.183014	0.890416
H309	H	0.404412	0.025724	0.000087
H310	H	0.654412	0.275724	0.250087
H311	H	0.904412	0.525724	0.500087
H312	H	1.154412	0.775724	0.750087
F313	F	0.695936	-0.268969	0.566541
F314	F	0.945936	-0.018969	0.816541
F315	F	1.195936	0.231031	1.066541
F316	F	1.445936	0.481031	1.316541
H317	H	0.772194	0.462964	0.000205
H318	H	1.022194	0.712964	0.250205
H319	H	1.272194	0.962964	0.500205
H320	H	1.522194	1.212964	0.750205
H321	H	0.512187	0.023814	0.000083
H322	H	0.762187	0.273814	0.250083
H323	H	1.012187	0.523814	0.500083
H324	H	1.262187	0.773814	0.750083
H325	H	0.723363	0.348281	-0.140196
H326	H	0.973363	0.598281	0.109804
H327	H	1.223363	0.848281	0.359804
H328	H	1.473363	1.098281	0.609804
F329	F	0.614994	0.439126	-0.159945
F330	F	0.864994	0.689126	0.090055
F331	F	1.114994	0.939126	0.340055
F332	F	1.364994	1.189126	0.590055
H333	H	0.767753	-0.138736	0.442138
H334	H	1.017753	0.111264	0.692138
H335	H	1.267753	0.361264	0.942138
H336	H	1.517753	0.611264	1.192138
H337	H	0.747484	0.001343	0.557891
H338	H	0.997484	0.251343	0.807891
H339	H	1.247484	0.501343	1.057891
H340	H	1.497484	0.751343	1.307891
F341	F	0.649539	0.050228	0.433629
F342	F	0.899539	0.300228	0.683629
F343	F	1.149539	0.550228	0.933629
F344	F	1.399539	0.800228	1.183629
H345	H	0.099799	-0.323906	0.000096
H346	H	0.349799	-0.073906	0.250096
H347	H	0.599799	0.176094	0.500096
H348	H	0.849799	0.426094	0.750096
F349	F	0.213281	-0.345089	0.000079
F350	F	0.463281	-0.095089	0.250079
F351	F	0.713281	0.154911	0.500079
F352	F	0.963281	0.404911	0.750079
F353	F	-0.053189	-0.263689	0.000097
F354	F	0.196811	-0.013689	0.250097
F355	F	0.446811	0.236311	0.500097
F356	F	0.696811	0.486311	0.750097
F357	F	-0.175814	-0.261514	0.000107
F358	F	0.074186	-0.011514	0.250107
F359	F	0.324186	0.238486	0.500107
F360	F	0.574186	0.488486	0.750107
F361	F	-0.147815	0.054649	0.000113
F362	F	0.102185	0.304649	0.250113
F363	F	0.352185	0.554649	0.500113
F364	F	0.602185	0.804649	0.750113
F365	F	-0.025207	0.052486	0.000132
F366	F	0.224793	0.302486	0.250132
F367	F	0.474793	0.552486	0.500132
F368	F	0.724793	0.802486	0.750132
F369	F	0.370708	-0.271175	0.000081
F370	F	0.620708	-0.021175	0.250081
F371	F	0.870708	0.228825	0.500081
F372	F	1.120708	0.478825	0.750081
H373	H	0.573358	0.318187	0.000156
H374	H	0.823358	0.568187	0.250156
H375	H	1.073358	0.818187	0.500156
H376	H	1.323358	1.068187	0.750156
