data_functionalizedCrystal
_audit_creation_method	'MofGen! by Chris Wilmer'
_symmetry_space_group_name_H-M	'P1'
_symmetry_Int_Tables_number	1
_symmetry_cell_setting	triclinic
loop_
_symmetry_equiv_pos_as_xyz
  x,y,z
_cell_length_a	23.532407
_cell_length_b	10.654550
_cell_length_c	9.130313
_cell_angle_alpha	90.000110
_cell_angle_beta	89.997326
_cell_angle_gamma	96.333210
loop_
_atom_site_label
_atom_site_type_symbol
_atom_site_fract_x
_atom_site_fract_y
_atom_site_fract_z
O1	O	0.756249	-0.152433	-0.121878
O2	O	0.590530	-0.174490	-0.121863
O3	O	0.677200	0.019399	-0.121865
O4	O	0.669579	-0.346321	-0.121876
O5	O	0.677199	0.019393	0.121733
O6	O	0.590529	-0.174495	0.121736
O7	O	0.756248	-0.152438	0.121721
Cu8	Cu	0.673388	-0.163467	0.143971
Cu9	Cu	0.673390	-0.163461	-0.144113
O10	O	0.669578	-0.346326	0.121723
C11	C	0.569310	-0.173931	-0.000061
C12	C	0.506081	-0.172242	-0.000055
C13	C	0.676640	0.066176	-0.000068
C14	C	0.674966	0.205567	-0.000073
C15	C	0.777469	-0.152997	-0.000084
C16	C	0.840697	-0.154686	-0.000100
C17	C	1.239121	-0.050539	-0.000046
C18	C	1.298532	-0.052107	-0.000040
O19	O	1.334647	0.044438	0.000016
N20	N	1.321909	-0.167374	-0.000047
C21	C	1.285872	-0.281079	-0.000046
O22	O	1.311211	-0.379266	-0.000050
C23	C	1.226463	-0.279509	-0.000042
C24	C	1.203089	-0.164235	-0.000049
C25	C	1.215747	0.064726	-0.000052
C26	C	1.156341	0.066294	-0.000061
C27	C	1.120308	-0.047402	-0.000064
C28	C	1.143683	-0.162667	-0.000059
C29	C	1.190427	-0.393213	-0.000031
C30	C	1.131014	-0.391633	-0.000025
C31	C	1.107641	-0.276359	-0.000033
C32	C	1.048244	-0.274795	-0.000071
N33	N	1.024867	-0.159529	-0.000064
C34	C	1.060899	-0.045832	-0.000060
C35	C	1.410636	-0.284368	-0.000052
C36	C	1.470044	-0.285939	-0.000066
C37	C	1.482700	-0.056967	-0.000057
C38	C	1.423290	-0.055397	-0.000053
C39	C	1.387259	-0.169101	-0.000045
C40	C	0.936141	-0.042548	-0.000081
C41	C	0.876729	-0.040989	-0.000096
C42	C	0.864078	-0.269961	-0.000098
C43	C	0.923485	-0.271520	-0.000090
C44	C	0.959516	-0.157803	-0.000077
O45	O	1.012094	-0.371290	-0.000120
O46	O	1.035552	0.052339	-0.000037
C47	C	0.670138	-0.393104	-0.000078
C48	C	0.671812	-0.532494	-0.000082
N49	N	0.673392	-0.163470	0.346593
C50	C	0.725996	0.286669	-0.000073
C51	C	0.724419	0.417640	-0.000083
C52	C	0.620779	0.386393	-0.000086
C53	C	0.622356	0.255425	-0.000087
C54	C	0.785832	0.304710	-0.000065
C55	C	0.784256	0.435681	-0.000075
N56	N	0.673391	-0.163447	-0.346736
C57	C	0.711779	-0.077645	0.423244
C58	C	0.711778	-0.077630	0.576581
C59	C	0.634999	-0.249276	0.576603
C60	C	0.634999	-0.249285	0.423269
C61	C	0.756108	0.021450	0.423233
C62	C	0.756107	0.021465	0.576570
H63	H	0.857702	0.052884	-0.000106
F64	F	1.372293	-0.405396	-0.000058
H65	H	0.746385	0.117674	0.381617
H66	H	0.577945	0.427004	-0.000099
F67	F	0.738019	0.140119	0.638730
F68	F	0.810146	-0.016832	0.361057
F69	F	1.254087	0.185749	-0.000044
H70	H	0.942517	-0.365385	-0.000086
H71	H	0.806800	0.478153	0.101867
F72	F	0.568043	0.169113	-0.000117
H73	H	0.603736	-0.319159	0.360861
H74	H	0.809236	0.276096	-0.102006
F75	F	0.813306	-0.004839	0.630966
F76	F	0.810728	0.258921	0.137418
H77	H	0.603740	-0.319143	0.639048
H78	H	0.802339	0.481899	-0.105256
H79	H	1.209447	-0.487081	-0.000031
H80	H	0.834731	-0.362530	-0.000108
F81	F	1.092670	-0.512657	-0.000010
H82	H	1.404264	0.038469	-0.000058
F83	F	0.974479	0.078483	-0.000068
H84	H	1.512048	0.035611	-0.000054
F85	F	1.131472	0.188985	-0.000080
F86	F	1.494913	-0.408629	-0.000087
