data_functionalizedCrystal
_audit_creation_method	'MofGen! by Chris Wilmer'
_symmetry_space_group_name_H-M	'P1'
_symmetry_Int_Tables_number	1
_symmetry_cell_setting	triclinic
loop_
_symmetry_equiv_pos_as_xyz
  x,y,z
_cell_length_a	21.395364
_cell_length_b	21.395361
_cell_length_c	21.395355
_cell_angle_alpha	89.978489
_cell_angle_beta	89.975448
_cell_angle_gamma	90.045659
loop_
_atom_site_label
_atom_site_type_symbol
_atom_site_fract_x
_atom_site_fract_y
_atom_site_fract_z
Zn1	Zn	0.957859	-0.249261	-0.354248
Zn2	Zn	0.957762	-0.354021	-0.249466
Zn3	Zn	0.853074	-0.249289	-0.249485
Zn4	Zn	0.853043	-0.354032	-0.354206
O5	O	0.905435	-0.301651	-0.301851
O6	O	1.045524	-0.263142	-0.340358
O7	O	0.943847	-0.340135	-0.161790
O8	O	0.867028	-0.161607	-0.263408
O9	O	1.045453	-0.340108	-0.263375
O10	O	0.944013	-0.161587	-0.340378
O11	O	0.866933	-0.263188	-0.161805
O12	O	0.765392	-0.263199	-0.263367
O13	O	0.866975	-0.340127	-0.441889
O14	O	0.765370	-0.340154	-0.340305
O15	O	0.943983	-0.263152	-0.441921
O16	O	0.943817	-0.441700	-0.263333
O17	O	0.866881	-0.441709	-0.340286
C18	C	0.905352	-0.464438	-0.301816
C19	C	0.905374	-0.534080	-0.301822
C20	C	0.742647	-0.301681	-0.301834
C21	C	0.673006	-0.301709	-0.301841
C22	C	0.945470	-0.566768	-0.261794
C23	C	0.945499	-0.632203	-0.261808
C24	C	0.905421	-0.664948	-0.301844
C25	C	0.865322	-0.632252	-0.341880
C26	C	0.865298	-0.566818	-0.341869
C27	C	0.849006	-0.768678	-0.306754
C28	C	0.849029	-0.834111	-0.306760
C29	C	0.905494	-0.866769	-0.301881
C30	C	0.961938	-0.833986	-0.296982
C31	C	0.961915	-0.768551	-0.296971
C32	C	0.905442	-0.735900	-0.301860
C33	C	0.945625	-0.970409	-0.261866
C34	C	0.945655	-1.035846	-0.261884
C35	C	0.865473	-1.035893	-0.341952
C36	C	0.865448	-0.970458	-0.341937
C37	C	0.905523	-0.937720	-0.301890
C38	C	0.640352	-0.261698	-0.341988
C39	C	0.574917	-0.261682	-0.341991
C40	C	0.542137	-0.301687	-0.301852
C41	C	0.574799	-0.341701	-0.261697
C42	C	0.640233	-0.341712	-0.261692
C43	C	0.438413	-0.358112	-0.296812
C44	C	0.372980	-0.358102	-0.296822
C45	C	0.340317	-0.301653	-0.301866
C46	C	0.373094	-0.245212	-0.306914
C47	C	0.438528	-0.245223	-0.306908
C48	C	0.471185	-0.301679	-0.301854
C49	C	0.236711	-0.261620	-0.342018
C50	C	0.171274	-0.261603	-0.342016
C51	C	0.171157	-0.341627	-0.261726
C52	C	0.236593	-0.341640	-0.261725
C53	C	0.269365	-0.301637	-0.301874
C54	C	1.068858	-0.301621	-0.301869
C55	C	1.138499	-0.301608	-0.301877
C56	C	0.905487	-0.301638	-0.465275
C57	C	0.905509	-0.301633	-0.534916
C58	C	0.905535	-0.138227	-0.301900
C59	C	0.905577	-0.068586	-0.301921
C60	C	0.945605	-0.261550	-0.567646
C61	C	0.945604	-0.261523	-0.633082
C62	C	0.905514	-0.301590	-0.665784
C63	C	0.865410	-0.341675	-0.633046
C64	C	0.865407	-0.341697	-0.567612
C65	C	0.900538	-0.358007	-0.769447
C66	C	0.900545	-0.357986	-0.834880
C67	C	0.905518	-0.301524	-0.867605
C68	C	0.910497	-0.245080	-0.834889
C69	C	0.910494	-0.245101	-0.769455
C70	C	0.905512	-0.301571	-0.736737
C71	C	0.945615	-0.261409	-0.971288
C72	C	0.945610	-0.261381	-1.036725
C73	C	0.865419	-0.341538	-1.036688
C74	C	0.865421	-0.341561	-0.971252
C75	C	0.905522	-0.301497	-0.938556
C76	C	0.905419	-0.301618	-0.139064
C77	C	0.905518	-0.301447	-0.069423
H78	H	0.978103	-0.540114	-0.229188
C79	C	0.821195	-0.530860	-0.385913
N80	N	0.787979	-0.503775	-0.419090
C81	C	0.821319	-0.385613	-1.072657
N82	N	0.788101	-0.418811	-1.099751
H83	H	0.667032	-0.229125	-0.374681
C84	C	0.272513	-0.385660	-0.217564
N85	N	0.299568	-0.418818	-0.184299
H86	H	0.346298	-0.404059	-0.292715
C87	C	0.538991	-0.217669	-0.386161
N88	N	0.511933	-0.184519	-0.419432
C89	C	0.538740	-0.385707	-0.217545
N90	N	0.511581	-0.418853	-0.184288
H91	H	0.465213	-0.199267	-0.311016
H92	H	0.914547	-0.199143	-0.742821
C93	C	0.821234	-0.668273	-0.385916
N94	N	0.788026	-0.695403	-0.419087
C95	C	0.989719	-0.217431	-0.669093
N96	N	1.022947	-0.184223	-0.696214
C97	C	0.337170	-0.183112	-0.312457
N98	N	0.310108	-0.136340	-0.316631
H99	H	0.263396	-0.229044	-0.374706
C100	C	0.474336	-0.420215	-0.291266
N101	N	0.501393	-0.466989	-0.287090
C102	C	0.989606	-0.668167	-0.217770
N103	N	1.022827	-0.695253	-0.184598
H104	H	0.144689	-0.229017	-0.374708
C105	C	0.821298	-0.385794	-0.531607
N106	N	0.788075	-0.419010	-0.504487
H107	H	0.144469	-0.374200	-0.229045
C108	C	0.989720	-0.217283	-1.072728
N109	N	1.022945	-0.184069	-1.099846
C110	C	0.786939	-0.870166	-0.312147
N111	N	0.740171	-0.897321	-0.316206
H112	H	1.007873	-0.741861	-0.292984
C113	C	0.821314	-0.385658	-0.935247
N114	N	0.788088	-0.418872	-0.908129
H115	H	0.914547	-0.199103	-0.861533
H116	H	0.832766	-0.374296	-0.659676
H117	H	0.978258	-0.228926	-0.541029
H118	H	0.978265	-0.228783	-0.944666
C119	C	1.024056	-0.869904	-0.291619
N120	N	1.070841	-0.896961	-0.287580
H121	H	0.896494	-0.403946	-0.861512
C122	C	0.676153	-0.385732	-0.217527
N123	N	0.703209	-0.418890	-0.184263
C124	C	0.895079	-0.420125	-0.733456
N125	N	0.890972	-0.466912	-0.706348
C126	C	0.989718	-0.934395	-0.217823
N127	N	1.022931	-0.907271	-0.184653
H128	H	0.832843	-1.062554	-0.374552
C129	C	0.989766	-1.071802	-0.217847
N130	N	1.022990	-1.098886	-0.184676
H131	H	0.803022	-0.742094	-0.310730
C132	C	0.821351	-0.934500	-0.385984
N133	N	0.788142	-0.907416	-0.419170
