data_functionalizedCrystal
_audit_creation_method	'MofGen! by Chris Wilmer'
_symmetry_space_group_name_H-M	'P1'
_symmetry_Int_Tables_number	1
_symmetry_cell_setting	triclinic
loop_
_symmetry_equiv_pos_as_xyz
  x,y,z
_cell_length_a	17.699083
_cell_length_b	26.809956
_cell_length_c	17.699083
_cell_angle_alpha	89.996556
_cell_angle_beta	83.283015
_cell_angle_gamma	90.002782
loop_
_atom_site_label
_atom_site_type_symbol
_atom_site_fract_x
_atom_site_fract_y
_atom_site_fract_z
O1	O	1.004082	0.041411	0.095701
O2	O	1.337415	0.374744	0.429034
O3	O	1.670748	0.708077	0.762367
O4	O	0.783703	0.041427	0.108153
O5	O	1.117037	0.374760	0.441486
O6	O	1.450370	0.708094	0.774820
O7	O	0.900119	0.041414	-0.008262
O8	O	1.233452	0.374747	0.325071
O9	O	1.566785	0.708081	0.658404
O10	O	0.887666	0.041424	0.212116
O11	O	1.221000	0.374757	0.545449
O12	O	1.554333	0.708090	0.878783
O13	O	0.900097	-0.041545	-0.008245
O14	O	1.233430	0.291788	0.325089
O15	O	1.566763	0.625121	0.658422
O16	O	0.783681	-0.041532	0.108171
O17	O	1.117015	0.291801	0.441504
O18	O	1.450348	0.625135	0.774837
O19	O	1.004060	-0.041549	0.095718
O20	O	1.337393	0.291785	0.429052
O21	O	1.670726	0.625118	0.762385
Zn22	Zn	0.893867	-0.054712	0.101947
Zn23	Zn	1.227200	0.278621	0.435281
Zn24	Zn	1.560534	0.611955	0.768614
Zn25	Zn	0.893896	0.054590	0.101924
Zn26	Zn	1.227229	0.387924	0.435257
Zn27	Zn	1.560563	0.721257	0.768591
O28	O	0.887644	-0.041535	0.212134
O29	O	1.220978	0.291798	0.545467
O30	O	1.554311	0.625131	0.878800
C31	C	0.755495	-0.000050	0.107716
C32	C	1.088829	0.333283	0.441049
C33	C	1.422162	0.666616	0.774382
C34	C	0.671477	-0.000044	0.106377
C35	C	1.004811	0.333289	0.439710
C36	C	1.338144	0.666622	0.773044
C37	C	0.622856	-0.000041	0.174711
C38	C	0.956190	0.333292	0.508044
C39	C	1.289523	0.666625	0.841377
C40	C	0.543913	-0.000048	0.173448
C41	C	0.877246	0.333285	0.506782
C42	C	1.210580	0.666619	0.840115
C43	C	0.513592	-0.000054	0.103852
C44	C	0.846926	0.333280	0.437185
C45	C	1.180259	0.666613	0.770518
C46	C	0.562219	-0.000058	0.035513
C47	C	0.895553	0.333275	0.368846
C48	C	1.228886	0.666609	0.702180
C49	C	0.641161	-0.000055	0.036776
C50	C	0.974495	0.333278	0.370110
C51	C	1.307828	0.666612	0.703443
C52	C	0.243856	-0.000071	0.030418
C53	C	0.577190	0.333263	0.363751
C54	C	0.910523	0.666596	0.697085
C55	C	0.164908	-0.000072	0.029160
C56	C	0.498242	0.333261	0.362493
C57	C	0.831575	0.666595	0.695827
C58	C	0.146608	-0.000063	0.167090
C59	C	0.479942	0.333270	0.500423
C60	C	0.813275	0.666603	0.833757
C61	C	0.225550	-0.000060	0.168353
C62	C	0.558883	0.333273	0.501686
C63	C	0.892217	0.666606	0.835020
C64	C	0.274170	-0.000067	0.100015
C65	C	0.607504	0.333266	0.433348
C66	C	0.940837	0.666599	0.766681
C67	C	0.359769	-0.000061	0.101384
C68	C	0.693103	0.333272	0.434718
C69	C	1.026436	0.666605	0.768051
C70	C	0.427995	-0.000056	0.102481
C71	C	0.761328	0.333277	0.435815
C72	C	1.094661	0.666610	0.769148
N73	N	0.893853	-0.129308	0.101963
N74	N	1.227186	0.204025	0.435296
N75	N	1.560520	0.537359	0.768629
C76	C	0.945438	-0.473940	0.050388
C77	C	1.278772	-0.140606	0.383721
C78	C	1.612105	0.192727	0.717055
C79	C	0.945456	-0.682817	0.050376
C80	C	1.278789	-0.349484	0.383710
C81	C	1.612123	-0.016151	0.717043
O82	O	0.989285	-0.709826	0.006530
O83	O	1.322618	-0.376493	0.339863
O84	O	1.655952	-0.043160	0.673197
N85	N	0.893900	-0.708935	0.101907
N86	N	1.227234	-0.375602	0.435241
N87	N	1.560567	-0.042268	0.768574
C88	C	0.842333	-0.682830	0.153441
C89	C	1.175666	-0.349497	0.486775
C90	C	1.508999	-0.016163	0.820108
O91	O	0.798476	-0.709837	0.197266
O92	O	1.131810	-0.376504	0.530599
O93	O	1.465143	-0.043171	0.863933
C94	C	0.842312	-0.473953	0.153449
C95	C	1.175645	-0.140620	0.486782
C96	C	1.508978	0.192713	0.820115
C97	C	0.893876	-0.447838	0.101920
C98	C	1.227210	-0.114505	0.435253
C99	C	1.560543	0.218828	0.768586
C100	C	0.996998	-0.447825	-0.001138
C101	C	1.330331	-0.114492	0.332196
C102	C	1.663665	0.218842	0.665529
C103	C	0.996996	-0.395609	-0.001131
C104	C	1.330329	-0.062275	0.332202
C105	C	1.663662	0.271058	0.665535
C106	C	0.945434	-0.369507	0.050400
C107	C	1.278767	-0.036174	0.383734
C108	C	1.612100	0.297160	0.717067
C109	C	0.893874	-0.395622	0.101926
C110	C	1.227207	-0.062289	0.435259
C111	C	1.560541	0.271045	0.768592
C112	C	0.790741	-0.447849	0.204979
C113	C	1.124075	-0.114516	0.538312
C114	C	1.457408	0.218818	0.871645
C115	C	0.790739	-0.395627	0.204975
C116	C	1.124073	-0.062293	0.538308
C117	C	1.457406	0.271040	0.871641
C118	C	0.842304	-0.369512	0.153445
C119	C	1.175637	-0.036178	0.486779
C120	C	1.508971	0.297155	0.820112
C121	C	0.842310	-0.317304	0.153464
C122	C	1.175643	0.016029	0.486797
C123	C	1.508977	0.349362	0.820130
N124	N	0.893866	-0.291187	0.101933
N125	N	1.227199	0.042147	0.435266
N126	N	1.560532	0.375480	0.768599
C127	C	0.945428	-0.317288	0.050401
C128	C	1.278761	0.016045	0.383734
C129	C	1.612094	0.349378	0.717068
C130	C	0.842348	-0.792493	0.153435
C131	C	1.175682	-0.459160	0.486768
C132	C	1.509015	-0.125827	0.820102
C133	C	0.842354	-0.844712	0.153434
C134	C	1.175688	-0.511379	0.486767
C135	C	1.509021	-0.178045	0.820101
C136	C	0.945477	-0.844696	0.050368
C137	C	1.278810	-0.511363	0.383701
C138	C	1.612144	-0.178029	0.717035
C139	C	0.945474	-0.792476	0.050373
C140	C	1.278807	-0.459143	0.383706
C141	C	1.612141	-0.125810	0.717040
C142	C	0.893904	-0.766376	0.101904
C143	C	1.227238	-0.433042	0.435237
C144	C	1.560571	-0.099709	0.768571
C145	C	0.945420	-0.207630	0.050418
C146	C	1.278753	0.125703	0.383752
C147	C	1.612086	0.459036	0.717085
C148	C	0.945415	-0.155409	0.050431
C149	C	1.278748	0.177924	0.383764
C150	C	1.612081	0.511257	0.717098
C151	C	0.842290	-0.155430	0.153494
C152	C	1.175623	0.177903	0.486828
C153	C	1.508957	0.511237	0.820161
C154	C	0.842297	-0.207646	0.153485
C155	C	1.175630	0.125687	0.486818
C156	C	1.508964	0.459020	0.820151
C157	C	0.893865	-0.233745	0.101940
C158	C	1.227198	0.099588	0.435274
C159	C	1.560531	0.432922	0.768607
O160	O	0.798498	-0.290263	0.197281
O161	O	1.131832	0.043070	0.530614
O162	O	1.465165	0.376403	0.863948
O163	O	0.989266	-0.290272	0.006572
O164	O	1.322600	0.043062	0.339905
O165	O	1.655933	0.376395	0.673238
C166	C	0.945440	-0.526156	0.050382
C167	C	1.278774	-0.192823	0.383715
C168	C	1.612107	0.140511	0.717048
C169	C	0.893881	-0.552271	0.101907
C170	C	1.227214	-0.218938	0.435241
C171	C	1.560547	0.114396	0.768574
C172	C	0.842319	-0.526170	0.153439
C173	C	1.175652	-0.192836	0.486772
C174	C	1.508985	0.140497	0.820106
C175	C	0.893887	-0.604490	0.101907
C176	C	1.227220	-0.271157	0.435240
C177	C	1.560553	0.062177	0.768573
C178	C	0.945449	-0.630591	0.050375
C179	C	1.278782	-0.297258	0.383708
C180	C	1.612115	0.036075	0.717042
C181	C	0.997005	-0.604474	-0.001156
C182	C	1.330338	-0.271140	0.332177
C183	C	1.663671	0.062193	0.665511
C184	C	0.997002	-0.552257	-0.001150
C185	C	1.330336	-0.218924	0.332183
C186	C	1.663669	0.114409	0.665517
C187	C	0.790763	-0.552287	0.204970
C188	C	1.124096	-0.218954	0.538303
C189	C	1.457430	0.114380	0.871637
C190	C	0.790770	-0.604503	0.204960
C191	C	1.124103	-0.271170	0.538293
C192	C	1.457437	0.062163	0.871627
C193	C	0.842332	-0.630605	0.153428
C194	C	1.175665	-0.297271	0.486762
C195	C	1.508999	0.036062	0.820095
C196	C	1.032268	-0.000070	0.096156
C197	C	1.365601	0.333263	0.429489
C198	C	1.698934	0.666597	0.762822
C199	C	1.116286	-0.000073	0.097494
C200	C	1.449619	0.333261	0.430828
C201	C	1.782953	0.666594	0.764161
C202	C	0.899662	-0.000066	-0.036451
C203	C	1.232995	0.333268	0.296883
C204	C	1.566328	0.666601	0.630216
C205	C	0.898323	-0.000066	-0.120469
C206	C	1.231656	0.333268	0.212865
C207	C	1.564990	0.666601	0.546198
N208	N	0.893916	0.129186	0.101902
N209	N	1.227250	0.462520	0.435236
N210	N	1.560583	0.795853	0.768569
C211	C	0.966656	-0.000072	-0.169090
C212	C	1.299990	0.333262	0.164244
C213	C	1.633323	0.666595	0.497577
C214	C	0.965394	-0.000067	-0.248033
C215	C	1.298727	0.333266	0.085300
C216	C	1.632061	0.666600	0.418634
C217	C	0.895798	-0.000060	-0.278354
C218	C	1.229131	0.333273	0.054980
C219	C	1.562464	0.666606	0.388313
C220	C	0.827459	-0.000053	-0.229727
C221	C	1.160792	0.333280	0.103607
C222	C	1.494126	0.666614	0.436940
C223	C	0.828722	-0.000054	-0.150785
C224	C	1.162055	0.333279	0.182549
C225	C	1.495389	0.666613	0.515882
C226	C	0.822364	-0.000049	-0.548090
C227	C	1.155697	0.333285	-0.214756
C228	C	1.489030	0.666618	0.118577
C229	C	0.821106	-0.000049	-0.627038
C230	C	1.154439	0.333284	-0.293704
C231	C	1.487773	0.666618	0.039629
C232	C	0.959036	-0.000062	-0.645338
C233	C	1.292369	0.333272	-0.312004
C234	C	1.625702	0.666605	0.021329
C235	C	0.960299	-0.000063	-0.566396
C236	C	1.293632	0.333271	-0.233063
C237	C	1.626966	0.666604	0.100271
C238	C	0.891961	-0.000053	-0.517776
C239	C	1.225294	0.333281	-0.184442
C240	C	1.558627	0.666614	0.148891
C241	C	0.893330	-0.000057	-0.432177
C242	C	1.226664	0.333277	-0.098843
C243	C	1.559997	0.666610	0.234490
C244	C	0.894427	-0.000060	-0.363951
C245	C	1.227761	0.333273	-0.030618
C246	C	1.561094	0.666607	0.302715
C247	C	0.888102	-0.000055	0.240322
C248	C	1.221435	0.333279	0.573655
C249	C	1.554768	0.666612	0.906989
C250	C	0.889440	-0.000051	0.324340
C251	C	1.222773	0.333282	0.657673
C252	C	1.556107	0.666615	0.991007
H253	H	0.680748	-0.000057	-0.018868
H254	H	1.014082	0.333276	0.314465
H255	H	1.347415	0.666609	0.647799
H256	H	0.504328	-0.000045	0.229092
H257	H	0.837662	0.333288	0.562426
H258	H	1.170995	0.666622	0.895759
H259	H	0.766718	-0.000041	-0.508512
H260	H	1.100052	0.333293	-0.175179
H261	H	1.433385	0.666626	0.158155
H262	H	1.038991	-0.625734	-0.043113
H263	H	1.372325	-0.292401	0.290221
H264	H	1.705658	0.040933	0.623554
H265	H	1.038986	-0.469072	-0.043104
H266	H	1.372319	-0.135739	0.290229
H267	H	1.705652	0.197595	0.623562
H268	H	0.283434	-0.000077	-0.025228
H269	H	0.616767	0.333257	0.308106
H270	H	0.950101	0.666590	0.641439
H271	H	0.987407	-0.134148	0.008470
H272	H	1.320741	0.199185	0.341803
H273	H	1.654074	0.532518	0.675137
H274	H	1.014680	-0.000067	-0.684934
H275	H	1.348013	0.333266	-0.351601
H276	H	1.681347	0.666599	-0.018268
H277	H	0.800374	-0.865971	0.195402
H278	H	1.133707	-0.532638	0.528735
H279	H	1.467041	-0.199305	0.862068
H280	H	0.770792	-0.000044	-0.254420
H281	H	1.104126	0.333289	0.078913
H282	H	1.437459	0.666622	0.412247
H283	H	0.987410	-0.228874	0.008445
H284	H	1.320743	0.104459	0.341779
H285	H	1.654076	0.437793	0.675112
H286	H	0.537526	-0.000070	-0.021154
H287	H	0.870859	0.333263	0.312180
H288	H	1.204193	0.666597	0.645513
H289	H	0.764429	-0.000045	-0.651721
H290	H	1.097762	0.333289	-0.318388
H291	H	1.431096	0.666622	0.014946
N292	N	0.094176	-0.000073	0.240806
N293	N	0.427510	0.333260	0.574140
N294	N	0.760843	0.666593	0.907473
H295	H	0.103911	0.030680	0.271175
H296	H	0.437245	0.364014	0.604508
H297	H	0.770578	0.697347	0.937841
H298	H	0.039584	-0.000100	0.229397
H299	H	0.372918	0.333233	0.562730
H300	H	0.706251	0.666566	0.896064
N301	N	1.039098	-0.000078	-0.300471
N302	N	1.372432	0.333256	0.032862
N303	N	1.705765	0.666589	0.366195
H304	H	1.041635	-0.030830	-0.333631
H305	H	1.374969	0.302504	-0.000297
H306	H	1.708302	0.635837	0.333036
H307	H	1.041618	0.030697	-0.333585
H308	H	1.374952	0.364030	-0.000252
H309	H	1.708285	0.697363	0.333082
N310	N	0.755020	-0.000045	-0.098340
N311	N	1.088354	0.333289	0.234994
N312	N	1.421687	0.666622	0.568327
H313	H	0.710739	-0.000041	-0.129525
H314	H	1.044072	0.333293	0.203809
H315	H	1.377406	0.666626	0.537142
H316	H	0.752529	-0.030798	-0.065182
H317	H	1.085863	0.302536	0.268151
H318	H	1.419196	0.635869	0.601485
H319	H	1.016971	-0.000071	-0.541714
H320	H	1.350305	0.333263	-0.208380
H321	H	1.683638	0.666596	0.124953
N322	N	0.786682	-0.235810	0.209067
N323	N	1.120015	0.097523	0.542401
N324	N	1.453349	0.430856	0.875734
H325	H	0.753225	-0.257472	0.180184
H326	H	1.086558	0.075861	0.513517
H327	H	1.419891	0.409194	0.846850
H328	H	0.815588	-0.257451	0.242531
H329	H	1.148921	0.075882	0.575864
H330	H	1.482255	0.409216	0.909197
N331	N	1.052606	-0.367444	-0.056714
N332	N	1.385939	-0.034111	0.276619
N333	N	1.719273	0.299222	0.609953
H334	H	1.106304	-0.376533	-0.048067
H335	H	1.439637	-0.043199	0.285267
H336	H	1.772970	0.290134	0.618600
H337	H	1.043920	-0.376545	-0.110394
H338	H	1.377254	-0.043212	0.222939
H339	H	1.710587	0.290122	0.556273
H340	H	0.987462	-0.771217	0.008413
H341	H	1.320795	-0.437883	0.341747
H342	H	1.654128	-0.104550	0.675080
H343	H	0.140225	-0.000078	-0.027517
H344	H	0.473558	0.333256	0.305816
H345	H	0.806892	0.666589	0.639150
N346	N	1.001093	-0.872853	-0.005213
N347	N	1.334426	-0.539520	0.328120
N348	N	1.667759	-0.206186	0.661454
H349	H	0.993267	-0.909895	0.002610
H350	H	1.326600	-0.576562	0.335944
H351	H	1.659934	-0.243229	0.669277
H352	H	0.992445	-0.863726	-0.058895
H353	H	1.325779	-0.530392	0.274439
H354	H	1.659112	-0.197059	0.607772
N355	N	0.786721	-0.764345	0.209016
N356	N	1.120054	-0.431012	0.542349
N357	N	1.453387	-0.097679	0.875682
H358	H	0.754066	-0.788819	0.241656
H359	H	1.087400	-0.455486	0.574989
H360	H	1.420733	-0.122152	0.908322
H361	H	0.815623	-0.742678	0.242445
H362	H	1.148956	-0.409344	0.575778
H363	H	1.482290	-0.076011	0.909112
H364	H	0.800311	-0.134170	0.195453
H365	H	1.133644	0.199163	0.528786
H366	H	1.466977	0.532497	0.862120
N367	N	1.052619	-0.524094	-0.056728
N368	N	1.385952	-0.190761	0.276606
N369	N	1.719285	0.142572	0.609939
H370	H	1.085278	-0.548560	-0.089370
H371	H	1.418611	-0.215226	0.243964
H372	H	1.751945	0.118107	0.577297
H373	H	1.023710	-0.502429	-0.090155
H374	H	1.357044	-0.169095	0.243178
H375	H	1.690377	0.164238	0.576512
H376	H	0.748753	-0.469105	0.246938
H377	H	1.082086	-0.135771	0.580271
H378	H	1.415419	0.197562	0.913604
H379	H	0.647537	-0.000036	0.231384
H380	H	0.980870	0.333297	0.564717
H381	H	1.314204	0.666630	0.898051
H382	H	0.250232	-0.000053	0.225025
H383	H	0.583566	0.333280	0.558359
H384	H	0.916899	0.666613	0.891692
N385	N	1.041722	-0.000080	-0.136389
N386	N	1.375055	0.333253	0.196944
N387	N	1.708389	0.666587	0.530277
H388	H	1.045312	-0.030835	-0.104045
H389	H	1.378645	0.302498	0.229289
H390	H	1.711978	0.635831	0.562622
H391	H	1.084774	-0.000064	-0.179215
H392	H	1.418107	0.333269	0.154119
H393	H	1.751440	0.666603	0.487452
H394	H	0.748743	-0.374378	0.246937
H395	H	1.082076	-0.041045	0.580270
H396	H	1.415409	0.292289	0.913603
N397	N	0.735148	-0.632667	0.260539
N398	N	1.068481	-0.299334	0.593873
N399	N	1.401815	0.033999	0.927206
H400	H	0.702483	-0.608204	0.293179
H401	H	1.035816	-0.274870	0.626512
H402	H	1.369150	0.058463	0.959846
H403	H	0.701748	-0.654328	0.231593
H404	H	1.035081	-0.320995	0.564927
H405	H	1.368414	0.012339	0.898260
N406	N	0.735143	-0.524139	0.260549
N407	N	1.068476	-0.190806	0.593883
N408	N	1.401810	0.142528	0.927216
H409	H	0.702486	-0.548612	0.293188
H410	H	1.035819	-0.215279	0.626521
H411	H	1.369153	0.118055	0.959854
H412	H	0.764048	-0.502474	0.293980
H413	H	1.097382	-0.169141	0.627313
H414	H	1.430715	0.164192	0.960646
