data_functionalizedCrystal
_audit_creation_method	'MofGen! by Chris Wilmer'
_symmetry_space_group_name_H-M	'P1'
_symmetry_Int_Tables_number	1
_symmetry_cell_setting	triclinic
loop_
_symmetry_equiv_pos_as_xyz
  x,y,z
_cell_length_a	19.851628
_cell_length_b	21.606444
_cell_length_c	21.606444
_cell_angle_alpha	119.998500
_cell_angle_beta	90.005276
_cell_angle_gamma	120.003084
loop_
_atom_site_label
_atom_site_type_symbol
_atom_site_fract_x
_atom_site_fract_y
_atom_site_fract_z
Zr1	Zr	0.648962	-0.677382	-0.081127
O2	O	0.541388	-0.806516	-0.179961
O3	O	0.681941	-0.548258	-0.050832
O4	O	0.681932	-0.677382	-0.179950
O5	O	0.541403	-0.677387	0.051011
O6	O	0.792793	-0.677370	-0.179938
O7	O	0.541397	-0.677392	-0.050843
O8	O	0.792810	-0.446391	0.051031
O9	O	0.541386	-0.908367	-0.179958
O10	O	0.778739	-0.601355	-0.037898
O11	O	0.696008	-0.601361	0.038105
O12	O	0.695998	-0.753388	-0.113915
O13	O	0.613267	-0.753394	-0.037912
Zr14	Zr	0.825783	-0.677355	0.081338
Zr15	Zr	0.825774	-0.677362	-0.081107
Zr16	Zr	0.648971	-0.677375	0.081319
Zr17	Zr	0.648960	-0.839822	-0.081121
Zr18	Zr	0.825785	-0.514915	0.081333
O19	O	0.792804	-0.806479	0.051044
O20	O	0.792791	-0.806489	-0.179933
O21	O	0.541401	-0.806506	0.051015
O22	O	0.933357	-0.548221	0.180173
O23	O	0.933344	-0.548231	-0.050804
O24	O	0.681954	-0.548248	0.180145
O25	O	0.933342	-0.677350	-0.050799
O26	O	0.792813	-0.677355	0.180162
O27	O	0.681952	-0.677367	0.180149
O28	O	0.933348	-0.677345	0.051055
O29	O	0.681928	-0.908352	-0.179942
O30	O	0.792817	-0.446385	0.180154
O31	O	0.933359	-0.446370	0.180169
O32	O	0.933352	-0.446376	0.051047
O33	O	0.541393	-0.908361	-0.050835
O34	O	0.681935	-0.908346	-0.050819
O35	O	0.778747	-0.601349	0.114127
O36	O	0.861478	-0.601343	0.038123
O37	O	0.778737	-0.753376	-0.037893
O38	O	0.696006	-0.753381	0.038110
C39	C	0.737376	-0.474180	0.000099
C40	C	0.737377	-0.405220	0.000096
C41	C	0.780560	-0.372820	-0.039578
C42	C	0.780563	-0.308019	-0.039573
C43	C	0.737378	-0.275626	0.000102
C44	C	0.694194	-0.308029	0.039781
C45	C	0.694196	-0.372823	0.039780
C46	C	0.694185	-0.046719	0.039787
C47	C	0.694184	0.018078	0.039783
C48	C	0.780552	0.018084	-0.039566
C49	C	0.780554	-0.046710	-0.039567
C50	C	0.737374	-0.079104	0.000115
C51	C	0.737372	-0.149367	0.000110
C52	C	0.737374	-0.205369	0.000103
C53	C	0.516208	-0.677392	0.000081
C54	C	0.441147	-0.677400	0.000073
C55	C	0.214688	-0.760276	-0.041349
C56	C	0.192325	-0.718841	-0.071385
C57	C	0.303740	-0.677378	0.000094
C58	C	0.192362	-0.718817	0.030116
C59	C	0.171008	-0.677362	0.000115
C60	C	0.282366	-0.635943	-0.029983
C61	C	0.282400	-0.635931	0.071558
C62	C	0.260091	-0.594436	0.041540
C63	C	0.380202	-0.677389	0.000081
C64	C	0.094551	-0.677344	0.000127
C65	C	0.958537	-0.677345	0.000131
C66	C	1.033598	-0.677337	0.000139
C67	C	0.737370	0.119444	0.000112
C68	C	0.737372	0.050484	0.000113
C69	C	0.737361	-0.677377	-0.203089
C70	C	0.737357	-0.677380	-0.272051
C71	C	0.694167	-0.756739	-0.344130
C72	C	0.694174	-0.756737	-0.408925
C73	C	0.737367	-0.677374	-0.401639
C74	C	0.780563	-0.598009	-0.329553
C75	C	0.780561	-0.598013	-0.264760
C76	C	0.780576	-0.597994	-0.590856
C77	C	0.780574	-0.597997	-0.655657
C78	C	0.694190	-0.756718	-0.735021
C79	C	0.694187	-0.756721	-0.670228
C80	C	0.737386	-0.677357	-0.598147
C81	C	0.737379	-0.677361	-0.527890
C82	C	0.737370	-0.677370	-0.471895
C83	C	0.737384	-0.677360	0.203300
C84	C	0.737388	-0.677357	0.272263
C85	C	0.958540	-0.474156	0.000123
C86	C	1.033603	-0.405188	0.000129
C87	C	0.737387	-0.474172	0.203293
C88	C	0.737392	-0.405208	0.272253
C89	C	0.958551	-0.474148	0.203318
C90	C	1.033618	-0.405176	0.272286
C91	C	0.516194	-0.880589	-0.203106
C92	C	0.441128	-0.949561	-0.272075
C93	C	0.516205	-0.880581	0.000088
C94	C	0.441143	-0.949549	0.000082
C95	C	0.737358	-0.880565	-0.203082
C96	C	0.737353	-0.949529	-0.272042
C97	C	1.025664	-0.372806	-0.039557
C98	C	1.096186	-0.308012	-0.039567
C99	C	1.174646	-0.275597	0.000115
C100	C	1.182584	-0.307985	0.039803
C101	C	1.112062	-0.372782	0.039808
C102	C	0.780583	-0.372816	0.344327
C103	C	0.780584	-0.308027	0.409129
C104	C	0.737399	-0.275627	0.401855
C105	C	0.694202	-0.308025	0.329773
C106	C	0.694197	-0.372818	0.264973
C107	C	1.112061	-0.372784	0.265002
C108	C	1.182601	-0.307987	0.329799
C109	C	1.174694	-0.275580	0.401880
C110	C	1.096242	-0.307979	0.409163
C111	C	1.025705	-0.372779	0.344367
C112	C	0.362684	-0.981961	-0.264790
C113	C	0.292144	-1.046778	-0.329587
C114	C	0.300051	-1.079189	-0.401668
C115	C	0.378503	-1.046786	-0.408951
C116	C	0.449040	-0.981974	-0.344155
C117	C	0.449081	-0.981937	0.039762
C118	C	0.378559	-1.046749	0.039754
C119	C	0.300099	-1.079167	0.000069
C120	C	0.292162	-1.046776	-0.039615
C121	C	0.362683	-0.981969	-0.039611
C122	C	0.780547	-0.981908	-0.264744
C123	C	0.780559	-1.046698	-0.329533
C124	C	0.737371	-1.079111	-0.401619
C125	C	0.694176	-1.046725	-0.408916
C126	C	0.694170	-0.981932	-0.344128
H127	H	0.815715	0.044470	-0.071875
H128	H	0.659028	-0.399183	0.206290
H129	H	0.815763	-0.281656	0.467814
H130	H	0.356230	-0.955576	-0.206104
F131	F	0.942221	-0.407242	0.352131
F132	F	1.266087	-0.273515	0.322031
F133	F	1.266094	-0.273475	0.082035
H134	H	0.512911	-0.955594	-0.350095
F135	F	0.208658	-1.081250	-0.321820
F136	F	0.208651	-1.081284	-0.081845
F137	F	0.224970	-1.148167	-0.470624
H138	H	0.242682	-1.131937	0.000072
H139	H	0.659016	0.044452	0.072094
F140	F	0.386904	-1.081287	-0.485671
F141	F	0.826513	-0.081186	-0.081798
F142	F	0.648232	-0.081185	0.082023
F143	F	0.532578	-0.947450	0.082000
F144	F	0.387024	-1.081208	0.081996
F145	F	0.648236	-0.407304	0.082009
H146	H	0.659036	-0.281644	0.072090
F147	F	0.141647	-0.764629	0.063293
H148	H	0.356207	-0.955600	-0.071921
H149	H	0.196233	-0.830369	-0.076447
H150	H	0.815716	-0.955527	-0.206053
H151	H	0.815750	-0.399189	0.350264
F152	F	0.826531	-1.081158	-0.321751
F153	F	0.737383	-1.148072	-0.470567
H154	H	0.737410	-0.222869	0.454625
H155	H	0.278701	-0.524285	0.076588
F156	F	0.141591	-0.764637	-0.150367
H157	H	0.659042	-0.281636	0.323862
F158	F	0.648209	-1.081236	-0.485642
F159	F	0.826549	-0.513525	-0.647898
F160	F	0.332930	-0.590201	-0.063266
H161	H	0.658992	-0.955576	-0.350081
H162	H	1.089707	-0.281650	-0.071885
H163	H	0.815722	-0.399194	-0.071890
H164	H	0.815726	-0.281639	-0.071878
F165	F	1.120495	-0.407267	0.188294
H166	H	0.321212	-0.600923	0.131973
F167	F	1.249775	-0.206612	0.470836
F168	F	0.942167	-0.407296	-0.081797
H169	H	0.659006	-0.821358	-0.467612
F170	F	0.648192	-0.841209	-0.351892
H171	H	0.659011	-0.821346	-0.676167
H172	H	0.659017	-0.821340	-0.793718
F173	F	1.120524	-0.407234	0.082055
F174	F	0.826525	-0.513528	-0.514151
F175	F	0.826535	-0.513546	-0.321801
F176	F	0.826537	-0.513548	-0.188046
H177	H	1.089817	-0.281583	0.467860
H178	H	1.232063	-0.222834	0.000106
