data_functionalizedCrystal
_audit_creation_method	'MofGen! by Chris Wilmer'
_symmetry_space_group_name_H-M	'P1'
_symmetry_Int_Tables_number	1
_symmetry_cell_setting	triclinic
loop_
_symmetry_equiv_pos_as_xyz
  x,y,z
_cell_length_a	6.817900
_cell_length_b	12.200722
_cell_length_c	14.125465
_cell_angle_alpha	94.993976
_cell_angle_beta	100.398878
_cell_angle_gamma	107.140920
loop_
_atom_site_label
_atom_site_type_symbol
_atom_site_fract_x
_atom_site_fract_y
_atom_site_fract_z
V1	V	-4.009703	-0.157727	-0.300078
O2	O	-3.978506	0.008593	-0.294261
O3	O	-3.979643	-0.313722	-0.298127
O4	O	-3.945510	-0.154856	-0.430906
O5	O	-4.012876	-0.151372	-0.160562
V6	V	-4.493001	-0.137886	-0.283378
O7	O	-4.271455	-0.201251	-0.336710
O8	O	-4.681446	-0.094362	-0.246747
O9	O	-4.299854	0.018109	-0.285330
O10	O	-4.641594	-0.304206	-0.289196
O11	O	-4.607225	-0.144241	-0.422894
O12	O	-4.333987	-0.140757	-0.152550
C13	C	-3.829616	-0.351764	-0.293419
C14	C	-3.886221	-0.479288	-0.292696
C15	C	-3.932184	-0.582851	-0.292099
C16	C	-3.989867	-0.712776	-0.291356
C17	C	-3.786076	-0.149113	-0.462791
C18	C	-3.814996	-0.147798	-0.569744
C19	C	-3.868005	-0.145386	-0.765566
C20	C	-4.054067	-0.150225	-0.817890
C21	C	-4.083564	-0.148882	-0.926852
C22	C	-3.838500	-0.146728	-0.656594
C23	C	-4.113223	0.056145	-0.290035
C24	C	-4.035857	0.183668	-0.290764
C25	C	-4.156764	-0.146503	-0.120660
C26	C	-4.107082	-0.147813	-0.013706
H27	H	-4.191212	-0.155386	-0.780855
Cl28	Cl	-3.656291	-0.137448	-0.822746
