data_functionalizedCrystal
_audit_creation_method	'MofGen! by Chris Wilmer'
_symmetry_space_group_name_H-M	'P1'
_symmetry_Int_Tables_number	1
_symmetry_cell_setting	triclinic
loop_
_symmetry_equiv_pos_as_xyz
  x,y,z
_cell_length_a	15.944551
_cell_length_b	19.188930
_cell_length_c	15.021413
_cell_angle_alpha	89.998889
_cell_angle_beta	89.997174
_cell_angle_gamma	83.321760
loop_
_atom_site_label
_atom_site_type_symbol
_atom_site_fract_x
_atom_site_fract_y
_atom_site_fract_z
O1	O	1.114192	0.090039	-0.073949
O2	O	0.869601	0.101141	-0.073973
O3	O	0.998955	-0.006048	-0.073943
O4	O	0.984838	0.197227	-0.073979
O5	O	0.998934	-0.006033	0.074121
O6	O	0.869580	0.101156	0.074091
O7	O	1.114171	0.090054	0.074115
Zn8	Zn	0.991873	0.095607	0.097611
Zn9	Zn	0.991900	0.095587	-0.097470
O10	O	0.984817	0.197242	0.074085
C11	C	0.838298	0.100687	0.000056
C12	C	0.745057	0.099306	0.000048
C13	C	0.530462	0.029563	0.000078
C14	C	0.469331	0.061941	-0.072931
C15	C	0.574341	0.096806	0.000059
C16	C	0.469332	0.061972	0.073048
C17	C	0.409437	0.094386	0.000074
C18	C	0.514438	0.129203	-0.073010
C19	C	0.514446	0.129225	0.073035
C20	C	0.453332	0.161652	0.000008
C21	C	0.669338	0.098198	0.000050
C22	C	0.314441	0.093000	0.000076
C23	C	0.998487	-0.032052	0.000091
C24	C	0.997115	-0.109560	0.000099
C25	C	1.073016	-0.154288	0.000111
C26	C	1.071726	-0.227115	0.000096
C27	C	0.994532	-0.255211	0.000088
C28	C	0.918622	-0.210474	0.000072
C29	C	0.919913	-0.137648	0.000077
N30	N	0.935519	-0.363364	0.050472
N31	N	0.934298	-0.432546	0.050468
C32	C	0.990637	-0.474630	0.000070
N33	N	1.048256	-0.444921	-0.050314
N34	N	1.049480	-0.375733	-0.050307
C35	C	0.993123	-0.334178	0.000082
C36	C	1.065145	-0.598326	0.000064
C37	C	1.063852	-0.671154	0.000044
C38	C	0.910745	-0.654511	0.000029
C39	C	0.912040	-0.581685	0.000040
C40	C	0.989242	-0.553597	0.000062
C41	C	1.145474	0.090507	0.000083
C42	C	1.238715	0.091889	0.000086
C43	C	0.985285	0.223247	0.000048
C44	C	0.986657	0.300755	0.000035
N45	N	0.991860	0.095621	0.230749
N46	N	0.991919	0.095568	-0.230607
C47	C	0.932038	0.145161	0.470418
C48	C	1.007887	0.158716	0.529757
C49	C	0.991882	0.095603	0.412356
C50	C	0.916053	0.082064	0.529759
C51	C	0.991896	0.095588	0.587780
C52	C	1.067770	0.109189	0.470388
C53	C	0.975885	0.032510	0.470384
C54	C	1.051789	0.046038	0.529697
C55	C	0.991872	0.095614	0.311299
C56	C	0.991914	0.095577	0.688835
H57	H	0.534463	0.157649	0.134752
H58	H	0.858103	-0.101230	0.000068
H59	H	0.449335	0.033494	-0.134646
Cl60	Cl	1.162196	-0.563012	0.000097
H61	H	1.133536	-0.263540	0.000102
Cl62	Cl	0.438474	0.018055	0.168344
Cl63	Cl	1.028799	0.241082	0.570024
Cl64	Cl	0.582210	-0.056610	-0.000015
H65	H	0.962318	-0.020823	0.444285
Cl66	Cl	0.545141	0.173071	-0.168413
H67	H	1.102459	0.004119	0.555561
H68	H	0.855769	-0.233354	0.000063
H69	H	0.851919	0.070620	0.555840
H70	H	1.131917	0.120698	0.444419
H71	H	0.881481	0.187105	0.444391
Cl72	Cl	0.401810	0.247900	-0.000067
H73	H	1.135880	-0.131424	0.000125
Cl74	Cl	1.159279	-0.727385	0.000053
H75	H	0.847892	-0.677386	0.000018
H76	H	0.850233	-0.545266	0.000035
