data_functionalizedCrystal
_audit_creation_method	'MofGen! by Chris Wilmer'
_symmetry_space_group_name_H-M	'P1'
_symmetry_Int_Tables_number	1
_symmetry_cell_setting	triclinic
loop_
_symmetry_equiv_pos_as_xyz
  x,y,z
_cell_length_a	25.639242
_cell_length_b	18.215405
_cell_length_c	18.215399
_cell_angle_alpha	89.969449
_cell_angle_beta	90.028456
_cell_angle_gamma	89.979588
loop_
_atom_site_label
_atom_site_type_symbol
_atom_site_fract_x
_atom_site_fract_y
_atom_site_fract_z
Zn1	Zn	0.799308	0.293080	0.416272
Zn2	Zn	1.132641	0.626413	0.749605
Zn3	Zn	1.465974	0.959746	1.082939
Zn4	Zn	0.799243	0.416151	0.293200
Zn5	Zn	1.132576	0.749484	0.626533
Zn6	Zn	1.465909	1.082817	0.959867
Zn7	Zn	0.711874	0.293093	0.293201
Zn8	Zn	1.045208	0.626426	0.626534
Zn9	Zn	1.378541	0.959760	0.959867
Zn10	Zn	0.711850	0.416099	0.416206
Zn11	Zn	1.045183	0.749433	0.749540
Zn12	Zn	1.378517	1.082766	1.082873
O13	O	0.755569	0.354606	0.354720
O14	O	1.088902	0.687939	0.688053
O15	O	1.422235	1.021272	1.021386
O16	O	0.872464	0.309421	0.399973
O17	O	1.205798	0.642754	0.733307
O18	O	1.539131	0.976088	1.066640
O19	O	0.787636	0.399854	0.190216
O20	O	1.120969	0.733188	0.523549
O21	O	1.454303	1.066521	0.856882
O22	O	0.723510	0.190107	0.309554
O23	O	1.056843	0.523440	0.642887
O24	O	1.390177	0.856774	0.976221
O25	O	0.872416	0.399841	0.309553
O26	O	1.205750	0.733174	0.642886
O27	O	1.539083	1.066508	0.976219
O28	O	0.787747	0.190097	0.399974
O29	O	1.121080	0.523430	0.733307
O30	O	1.454414	0.856764	1.066641
O31	O	0.723447	0.309444	0.190216
O32	O	1.056780	0.642778	0.523550
O33	O	1.390114	0.976111	0.856883
O34	O	0.638706	0.309394	0.309491
O35	O	0.972039	0.642728	0.642824
O36	O	1.305373	0.976061	0.976157
O37	O	0.723469	0.399753	0.519199
O38	O	1.056802	0.733087	0.852533
O39	O	1.390135	1.066420	1.185866
O40	O	0.638688	0.399766	0.399862
O41	O	0.972022	0.733100	0.733196
O42	O	1.305355	1.066433	1.066529
O43	O	0.787723	0.309371	0.519247
O44	O	1.121057	0.642705	0.852581
O45	O	1.454390	0.976038	1.185914
O46	O	0.787612	0.519128	0.309489
O47	O	1.120946	0.852462	0.642823
O48	O	1.454279	1.185795	0.976156
O49	O	0.723406	0.519090	0.399862
O50	O	1.056739	0.852424	0.733195
O51	O	1.390072	1.185757	1.066528
C52	C	0.755514	0.545812	0.354684
C53	C	1.088847	0.879145	0.688018
C54	C	1.422180	1.212479	1.021351
C55	C	0.755538	0.627611	0.354694
C56	C	1.088871	0.960944	0.688027
C57	C	1.422204	1.294278	1.021360
C58	C	0.619726	0.354577	0.354670
C59	C	0.953060	0.687910	0.688003
C60	C	1.286393	1.021243	1.021336
C61	C	0.561612	0.354582	0.354666
C62	C	0.894945	0.687915	0.687999
C63	C	1.228279	1.021249	1.021333
C64	C	0.755601	0.354555	0.546673
C65	C	1.088934	0.687888	0.880006
C66	C	1.422267	1.021222	1.213339
C67	C	0.755614	0.354533	0.628472
C68	C	1.088947	0.687867	0.961805
C69	C	1.422281	1.021200	1.295138
C70	C	0.201249	0.401741	0.401732
C71	C	0.534582	0.735074	0.735065
C72	C	0.867915	1.068408	1.068398
C73	C	0.146644	0.401746	0.401743
C74	C	0.479978	0.735079	0.735077
C75	C	0.813311	1.068412	1.068410
O76	O	0.118407	0.441806	0.441718
O77	O	0.451741	0.775139	0.775051
O78	O	0.785074	1.108473	1.108385
N79	N	0.119330	0.354626	0.354768
N80	N	0.452663	0.687959	0.688101
N81	N	0.785996	1.021293	1.021434
C82	C	0.146622	0.307493	0.307783
C83	C	0.479955	0.640827	0.641116
C84	C	0.813289	0.974160	0.974449
O85	O	0.118375	0.267414	0.267828
O86	O	0.451708	0.600748	0.601161
O87	O	0.785041	0.934081	0.934495
C88	C	0.201225	0.307486	0.307775
C89	C	0.534559	0.640819	0.641109
C90	C	0.867892	0.974152	0.974442
C91	C	0.228537	0.354614	0.354749
C92	C	0.561871	0.687947	0.688082
C93	C	0.895204	1.021280	1.021415
C94	C	0.228561	0.448865	0.448702
C95	C	0.561894	0.782198	0.782035
C96	C	0.895227	1.115531	1.115368
C97	C	0.283161	0.448861	0.448689
C98	C	0.616494	0.782194	0.782022
C99	C	0.949828	1.115528	1.115356
C100	C	0.310450	0.401734	0.401706
C101	C	0.643783	0.735067	0.735039
C102	C	0.977116	1.068400	1.068373
C103	C	0.283138	0.354610	0.354736
C104	C	0.616471	0.687943	0.688069
C105	C	0.949804	1.021277	1.021403
C106	C	0.228517	0.260350	0.260795
C107	C	0.561850	0.593683	0.594128
C108	C	0.895183	0.927017	0.927461
C109	C	0.283124	0.260346	0.260792
C110	C	0.616457	0.593679	0.594125
C111	C	0.949791	0.927013	0.927458
C112	C	0.310436	0.307474	0.307765
C113	C	0.643769	0.640807	0.641099
C114	C	0.977102	0.974141	0.974432
C115	C	0.365027	0.307479	0.307740
C116	C	0.698360	0.640812	0.641074
C117	C	1.031694	0.974146	0.974407
N118	N	0.392342	0.354599	0.354716
N119	N	0.725675	0.687932	0.688049
N120	N	1.059008	1.021265	1.021383
C121	C	0.365053	0.401726	0.401699
C122	C	0.698386	0.735059	0.735032
C123	C	1.031720	1.068393	1.068365
C124	C	0.031951	0.307512	0.307803
C125	C	0.365285	0.640846	0.641136
C126	C	0.698618	0.974179	0.974469
C127	C	-0.022651	0.307523	0.307806
C128	C	0.310682	0.640856	0.641139
C129	C	0.644016	0.974190	0.974472
C130	C	-0.022625	0.401774	0.401767
C131	C	0.310709	0.735108	0.735101
C132	C	0.644042	1.068441	1.068434
C133	C	0.031979	0.401767	0.401760
C134	C	0.365312	0.735100	0.735093
C135	C	0.698645	1.068433	1.068427
C136	C	0.059266	0.354632	0.354778
C137	C	0.392600	0.687965	0.688112
C138	C	0.725933	1.021299	1.021445
C139	C	0.479718	0.401715	0.401668
C140	C	0.813051	0.735048	0.735001
C141	C	1.146385	1.068382	1.068335
C142	C	0.534324	0.401709	0.401649
C143	C	0.867657	0.735043	0.734982
C144	C	1.200990	1.068376	1.068315
C145	C	0.534293	0.307456	0.307690
C146	C	0.867626	0.640789	0.641024
C147	C	1.200959	0.974122	0.974357
C148	C	0.479692	0.307464	0.307706
C149	C	0.813025	0.640797	0.641040
C150	C	1.146359	0.974130	0.974373
C151	C	0.452406	0.354596	0.354701
C152	C	0.785740	0.687929	0.688034
C153	C	1.119073	1.021263	1.021368
O154	O	0.393299	0.267437	0.267788
O155	O	0.726632	0.600770	0.601121
O156	O	1.059965	0.934104	0.934455
O157	O	0.393307	0.441792	0.441654
O158	O	0.726640	0.775125	0.774987
O159	O	1.059974	1.108458	1.108320
C160	C	0.891942	0.354635	0.354770
C161	C	1.225275	0.687969	0.688104
C162	C	1.558608	1.021302	1.021437
C163	C	0.950056	0.354648	0.354792
C164	C	1.283389	0.687981	0.688125
C165	C	1.616722	1.021315	1.021458
C166	C	0.755638	0.162653	0.354771
C167	C	1.088972	0.495986	0.688105
C168	C	1.422305	0.829319	1.021438
C169	C	0.755668	0.080854	0.354793
C170	C	1.089001	0.414187	0.688127
C171	C	1.422335	0.747521	1.021460
C172	C	0.789049	0.815800	0.307724
C173	C	1.122382	1.149133	0.641057
C174	C	1.455715	1.482467	0.974390
C175	C	0.789072	0.892659	0.307741
C176	C	1.122405	1.225992	0.641075
C177	C	1.455739	1.559325	0.974408
C178	C	0.722156	0.892659	0.401769
C179	C	1.055489	1.225993	0.735102
C180	C	1.388822	1.559326	1.068435
C181	C	0.722135	0.815802	0.401754
C182	C	1.055469	1.149135	0.735087
C183	C	1.388802	1.482469	1.068421
C184	C	0.755581	0.777374	0.354727
C185	C	1.088914	1.110708	0.688061
C186	C	1.422248	1.444041	1.021394
C187	C	0.755625	0.931090	0.354760
C188	C	1.088958	1.264424	0.688093
C189	C	1.422291	1.597757	1.021426
C190	C	0.755650	1.014424	0.354779
C191	C	1.088983	1.347757	0.688113
C192	C	1.422317	1.681091	1.021446
C193	C	0.755557	0.694035	0.354708
C194	C	1.088890	1.027369	0.688042
C195	C	1.422223	1.360702	1.021375
C196	C	0.755567	0.354603	0.163513
C197	C	1.088900	0.687936	0.496847
C198	C	1.422234	1.021270	0.830180
C199	C	0.755655	0.354417	0.081715
C200	C	1.088988	0.687751	0.415048
C201	C	1.422321	1.021084	0.748382
C202	C	0.789084	0.307427	0.816692
C203	C	1.122417	0.640761	1.150025
C204	C	1.455750	0.974094	1.483359
C205	C	0.789090	0.307406	0.893551
C206	C	1.122423	0.640739	1.226884
C207	C	1.455756	0.974073	1.560217
C208	C	0.722182	0.401525	0.893489
C209	C	1.055515	0.734859	1.226823
C210	C	1.388848	1.068192	1.560156
C211	C	0.722173	0.401543	0.816632
C212	C	1.055507	0.734876	1.149965
C213	C	1.388840	1.068209	1.483299
C214	C	0.755627	0.354495	0.778235
C215	C	1.088960	0.687828	1.111569
C216	C	1.422294	1.021161	1.444902
C217	C	0.755642	0.354456	0.931951
C218	C	1.088975	0.687789	1.265285
C219	C	1.422309	1.021123	1.598618
C220	C	0.755648	0.354433	1.015285
C221	C	1.088982	0.687767	1.348618
C222	C	1.422315	1.021100	1.681952
C223	C	0.755620	0.354516	0.694896
C224	C	1.088953	0.687850	1.028230
C225	C	1.422287	1.021183	1.361563
H226	H	0.556558	0.440089	0.439901
H227	H	0.889892	0.773423	0.773234
H228	H	1.223225	1.106756	1.106567
H229	H	0.694924	0.923956	0.440055
H230	H	1.028258	1.257290	0.773389
H231	H	1.361591	1.590623	1.106722
H232	H	0.694925	0.439870	0.785320
H233	H	1.028259	0.773203	1.118653
H234	H	1.361592	1.106537	1.451986
Br235	Br	0.676784	0.465376	0.945604
Br236	Br	1.010117	0.798709	1.278937
Br237	Br	1.343451	1.132042	1.612270
Br238	Br	0.068979	0.243541	0.244031
Br239	Br	0.402313	0.576875	0.577364
Br240	Br	0.735646	0.910208	0.910698
Br241	Br	-0.059710	0.243573	0.244042
Br242	Br	0.273623	0.576906	0.577375
Br243	Br	0.606956	0.910239	0.910709
H244	H	0.694882	0.784514	0.440034
H245	H	1.028215	1.117847	0.773367
H246	H	1.361548	1.451180	1.106700
H247	H	0.816323	0.269116	0.785432
H248	H	1.149656	0.602449	1.118765
H249	H	1.482989	0.935783	1.452098
H250	H	0.816333	0.269078	0.924859
H251	H	1.149666	0.602411	1.258192
H252	H	1.482999	0.935744	1.591525
H253	H	0.457508	0.440093	0.439937
H254	H	0.790842	0.773426	0.773271
H255	H	1.124175	1.106760	1.106604
H256	H	0.457454	0.269090	0.269455
H257	H	0.790787	0.602423	0.602789
H258	H	1.124120	0.935756	0.936122
Br259	Br	0.320219	0.512821	0.512445
Br260	Br	0.653552	0.846154	0.845779
Br261	Br	0.986886	1.179487	1.179112
H262	H	0.206348	0.487242	0.486965
H263	H	0.539681	0.820575	0.820298
H264	H	0.873015	1.153908	1.153632
Br265	Br	0.069039	0.465728	0.465512
Br266	Br	0.402372	0.799061	0.798845
Br267	Br	0.735706	1.132395	1.132178
H268	H	0.206289	0.221975	0.222542
H269	H	0.539622	0.555309	0.555875
H270	H	0.872955	0.888642	0.889209
H271	H	-0.044853	0.440146	0.440026
H272	H	0.288480	0.773479	0.773359
H273	H	0.621814	1.106813	1.106693
Br274	Br	0.571338	0.243500	0.243930
Br275	Br	0.904671	0.576834	0.577264
Br276	Br	1.238004	0.910167	0.910597
Br277	Br	0.320154	0.196371	0.197029
Br278	Br	0.653487	0.529705	0.530362
Br279	Br	0.986821	0.863038	0.863696
H280	H	0.816283	0.784514	0.269433
H281	H	1.149616	1.117847	0.602766
H282	H	1.482950	1.451181	0.936099
H283	H	0.816326	0.923942	0.269467
H284	H	1.149659	1.257275	0.602801
H285	H	1.482992	1.590608	0.936134
