data_functionalizedCrystal
_audit_creation_method	'MofGen! by Chris Wilmer'
_symmetry_space_group_name_H-M	'P1'
_symmetry_Int_Tables_number	1
_symmetry_cell_setting	triclinic
loop_
_symmetry_equiv_pos_as_xyz
  x,y,z
_cell_length_a	16.109301
_cell_length_b	14.519709
_cell_length_c	15.186229
_cell_angle_alpha	89.995307
_cell_angle_beta	89.999362
_cell_angle_gamma	83.570813
loop_
_atom_site_label
_atom_site_type_symbol
_atom_site_fract_x
_atom_site_fract_y
_atom_site_fract_z
O1	O	1.103336	0.118540	-0.073175
O2	O	1.603336	0.618540	0.426825
O3	O	0.861299	0.133292	-0.073189
O4	O	1.361299	0.633292	0.426811
O5	O	0.988735	-0.008336	-0.073174
O6	O	1.488735	0.491664	0.426826
O7	O	0.975900	0.260168	-0.073190
O8	O	1.475900	0.760168	0.426810
O9	O	0.988726	-0.008338	0.073284
O10	O	1.488726	0.491662	0.573284
O11	O	0.861291	0.133290	0.073268
O12	O	1.361291	0.633290	0.573268
O13	O	1.103327	0.118538	0.073282
O14	O	1.603327	0.618538	0.573282
Zn15	Zn	0.982308	0.125914	0.096529
Zn16	Zn	1.482308	0.625914	0.596529
Zn17	Zn	0.982319	0.125916	-0.096435
Zn18	Zn	1.482319	0.625916	0.403565
O19	O	0.975892	0.260166	0.073267
O20	O	1.475892	0.760166	0.573267
C21	C	0.830319	0.132693	0.000038
C22	C	1.330319	0.632693	0.500038
C23	C	0.738021	0.130902	0.000033
C24	C	1.238021	0.630902	0.500033
C25	C	0.515887	0.210775	0.000038
C26	C	1.015887	0.710775	0.500038
C27	C	0.429163	0.209085	0.000044
C28	C	0.929163	0.709085	0.500044
C29	C	0.448747	0.041048	0.000050
C30	C	0.948747	0.541048	0.500050
C31	C	0.535468	0.042739	0.000051
C32	C	1.035468	0.542739	0.500051
C33	C	0.569036	0.127606	0.000040
C34	C	1.069036	0.627606	0.500040
C35	C	0.395591	0.124224	0.000045
C36	C	0.895591	0.624224	0.500045
C37	C	0.301562	0.122390	0.000052
C38	C	0.801562	0.622390	0.500052
C39	C	0.663071	0.129440	0.000036
C40	C	1.163071	0.629440	0.500036
C41	C	0.988132	-0.042696	0.000055
C42	C	1.488132	0.457304	0.500055
C43	C	0.986340	-0.145073	0.000056
C44	C	1.486340	0.354927	0.500056
C45	C	0.979741	-0.519955	0.000032
C46	C	1.479741	-0.019955	0.500032
C47	C	0.981574	-0.415651	0.000039
C48	C	1.481574	0.084349	0.500039
C49	C	0.983041	-0.332517	0.000045
C50	C	1.483041	0.167483	0.500045
C51	C	0.984873	-0.228207	0.000050
C52	C	1.484873	0.271793	0.500050
C53	C	1.134307	0.119136	0.000054
C54	C	1.634307	0.619136	0.500054
C55	C	1.226606	0.120928	0.000053
C56	C	1.726606	0.620928	0.500053
C57	C	0.976494	0.294526	0.000036
C58	C	1.476494	0.794526	0.500036
C59	C	0.978287	0.396903	0.000030
C60	C	1.478287	0.896903	0.500030
N61	N	0.982306	0.125911	0.228221
N62	N	1.482306	0.625911	0.728221
N63	N	0.982327	0.125911	-0.228128
N64	N	1.482327	0.625911	0.271872
C65	C	1.038754	0.063219	0.453951
C66	C	1.538754	0.563219	0.953951
C67	C	1.038756	0.063217	0.546141
C68	C	1.538756	0.563217	1.046141
C69	C	0.925873	0.188606	0.546136
C70	C	1.425873	0.688606	1.046136
C71	C	0.925867	0.188603	0.453948
C72	C	1.425867	0.688603	0.953948
C73	C	0.982312	0.125911	0.407858
C74	C	1.482312	0.625911	0.907858
C75	C	0.982321	0.125912	0.592236
C76	C	1.482321	0.625912	1.092236
C77	C	0.982323	0.125910	0.692192
C78	C	1.482323	0.625910	1.192192
C79	C	0.982309	0.125911	0.307895
C80	C	1.482309	0.625911	0.807895
H81	H	0.543214	0.279879	0.000036
H82	H	1.043214	0.779879	0.500036
O83	O	0.416178	-0.041411	0.000206
O84	O	0.916178	0.458589	0.500206
C85	C	0.443340	-0.092127	0.076047
C86	C	0.943340	0.407873	0.576047
H87	H	0.461446	-0.042509	0.129066
H88	H	0.961446	0.457491	0.629066
H89	H	0.390750	-0.131355	0.101503
H90	H	0.890750	0.368645	0.601503
H91	H	0.499786	-0.143529	0.058900
H92	H	0.999786	0.356471	0.558900
H93	H	1.084715	0.012167	0.583667
H94	H	1.584715	0.512167	1.083667
H95	H	0.578745	-0.024991	0.000055
H96	H	1.078745	0.475009	0.500055
H97	H	1.084714	0.012170	0.416427
H98	H	1.584714	0.512170	0.916427
O99	O	0.871017	0.249380	0.591009
O100	O	1.371017	0.749380	1.091009
C101	C	0.819646	0.199976	0.644330
C102	C	1.319646	0.699976	1.144330
H103	H	0.852653	0.127820	0.658144
H104	H	1.352653	0.627820	1.158144
H105	H	0.806559	0.238467	0.709155
H106	H	1.306559	0.738467	1.209155
H107	H	0.758189	0.193691	0.608811
H108	H	1.258189	0.693691	1.108811
O109	O	0.871120	0.249635	0.409208
O110	O	1.371120	0.749635	0.909208
C111	C	0.884756	0.340935	0.431737
C112	C	1.384756	0.840935	0.931737
H113	H	0.951319	0.341408	0.457075
H114	H	1.451319	0.841408	0.957075
H115	H	0.875258	0.387212	0.371105
H116	H	1.375258	0.887212	0.871105
H117	H	0.838718	0.368011	0.485248
H118	H	1.338718	0.868011	0.985248
O119	O	0.377653	0.289961	-0.000001
O120	O	0.877653	0.789961	0.499999
C121	C	0.425881	0.365224	0.000014
C122	C	0.925881	0.865224	0.500014
H123	H	0.490569	0.341797	-0.027714
H124	H	0.990569	0.841797	0.472286
H125	H	0.393977	0.423497	-0.042509
H126	H	0.893977	0.923497	0.457491
H127	H	0.432096	0.391236	0.070275
H128	H	0.932096	0.891236	0.570275
