data_functionalizedCrystal
_audit_creation_method	'MofGen! by Chris Wilmer'
_symmetry_space_group_name_H-M	'P1'
_symmetry_Int_Tables_number	1
_symmetry_cell_setting	triclinic
loop_
_symmetry_equiv_pos_as_xyz
  x,y,z
_cell_length_a	7.681455
_cell_length_b	19.288835
_cell_length_c	19.288865
_cell_angle_alpha	83.130103
_cell_angle_beta	83.565900
_cell_angle_gamma	83.564524
loop_
_atom_site_label
_atom_site_type_symbol
_atom_site_fract_x
_atom_site_fract_y
_atom_site_fract_z
O1	O	-0.146790	-0.915497	-0.080689
O2	O	-0.146721	-0.713236	-0.092402
O3	O	-0.146722	-0.820213	0.014584
O4	O	-0.146788	-0.808521	-0.187675
O5	O	0.146127	-0.831903	0.002898
O6	O	0.146129	-0.724927	-0.104088
O7	O	0.146060	-0.927188	-0.092375
Zn8	Zn	0.192591	-0.827913	-0.100087
Zn9	Zn	-0.193252	-0.812511	-0.084690
O10	O	0.146062	-0.820211	-0.199361
C11	C	-0.000286	-0.693205	-0.097872
C12	C	-0.000258	-0.616102	-0.096753
N13	N	0.455918	-0.838430	-0.110595
C14	C	-0.159893	-0.573526	-0.089844
C15	C	-0.159910	-0.501078	-0.088783
C16	C	-0.000283	-0.471211	-0.094616
C17	C	0.159372	-0.513796	-0.101530
C18	C	0.159385	-0.586241	-0.102598
C19	C	0.122007	-0.366765	-0.057121
C20	C	0.121987	-0.294321	-0.056048
C21	C	-0.000316	-0.247766	-0.091325
C22	C	-0.122630	-0.273663	-0.127665
C23	C	-0.122617	-0.346108	-0.128733
C24	C	-0.000279	-0.392657	-0.093459
C25	C	-0.159980	-0.126633	-0.083266
C26	C	-0.159991	-0.054183	-0.082209
C27	C	0.159296	-0.066904	-0.094949
C28	C	0.159302	-0.139351	-0.096013
C29	C	-0.000341	-0.169211	-0.090168
N30	N	0.543421	-0.801995	-0.074182
C31	C	-0.000292	-0.825682	0.034617
C32	C	-0.000276	-0.824553	0.111720
C33	C	-0.000365	0.052781	-0.086910
C34	C	-0.000363	-0.024322	-0.088044
C35	C	-0.000373	-0.814742	-0.219394
C36	C	-0.000400	-0.815870	-0.296497
C37	C	-0.000289	-0.887322	0.156424
C38	C	-0.000317	-0.886260	0.228872
C39	C	-0.000296	-0.822428	0.256611
C40	C	-0.000293	-0.759651	0.211898
C41	C	-0.000283	-0.760714	0.139453
C42	C	0.102300	-0.776343	0.360799
C43	C	0.102301	-0.775283	0.433244
C44	C	-0.000334	-0.819147	0.480058
C45	C	-0.102948	-0.864082	0.454420
C46	C	-0.102938	-0.865145	0.381974
C47	C	-0.000308	-0.821268	0.335166
C48	C	-0.000380	-0.880768	0.603319
C49	C	-0.000418	-0.879703	0.675768
C50	C	-0.000376	-0.753093	0.658793
C51	C	-0.000356	-0.754159	0.586346
C52	C	-0.000349	-0.817998	0.558613
H53	H	-0.289887	-0.597833	-0.085085
C54	C	0.557471	-0.888680	-0.160799
N55	N	0.633973	-0.926530	-0.198613
H56	H	0.468239	-0.764795	-0.037022
H57	H	-0.000290	-0.939305	0.133849
H58	H	-0.289990	-0.019518	-0.076588
C59	C	0.215223	-0.728090	0.309309
N60	N	0.300277	-0.691747	0.270528
H61	H	-0.000335	-0.703046	0.549946
H62	H	-0.289908	-0.466406	-0.083158
H63	H	-0.000334	-0.937375	0.265277
C64	C	-0.215825	-0.914568	0.353775
N65	N	-0.300860	-0.951792	0.332535
C66	C	0.215178	-0.725853	0.461438
N67	N	0.300196	-0.688620	0.482673
H68	H	-0.186525	-0.899800	0.492536
C69	C	-0.257080	-0.374590	-0.168746
N70	N	-0.358331	-0.396042	-0.198900
H71	H	-0.222215	-0.235757	-0.156394
C72	C	-0.000257	-0.689436	0.242413
N73	N	-0.000231	-0.636547	0.265396
C74	C	-0.000399	-0.950991	0.572812
N75	N	-0.000419	-1.003884	0.549836
C76	C	-0.000423	-0.948757	0.724943
N77	N	-0.000418	-1.000771	0.761982
C78	C	-0.000359	-0.682876	0.689303
N79	N	-0.000351	-0.629986	0.712286
C80	C	0.334962	-0.480942	-0.107946
N81	N	0.467222	-0.456195	-0.112780
H82	H	-0.289971	-0.150945	-0.078514
C83	C	0.334888	-0.034055	-0.101368
N84	N	0.467149	-0.009310	-0.106203
H85	H	-0.000272	-0.709599	0.103054
C86	C	0.334916	-0.186188	-0.103603
N87	N	0.467196	-0.221466	-0.109321
H88	H	0.221574	-0.273242	-0.026454
H89	H	0.289383	-0.620907	-0.108225
C90	C	0.256555	-0.417970	-0.018308
N91	N	0.357892	-0.456537	0.010926
