data_functionalizedCrystal
_audit_creation_method	'MofGen! by Chris Wilmer'
_symmetry_space_group_name_H-M	'P1'
_symmetry_Int_Tables_number	1
_symmetry_cell_setting	triclinic
loop_
_symmetry_equiv_pos_as_xyz
  x,y,z
_cell_length_a	10.654550
_cell_length_b	14.971486
_cell_length_c	14.048226
_cell_angle_alpha	89.997111
_cell_angle_beta	89.991770
_cell_angle_gamma	84.049516
loop_
_atom_site_label
_atom_site_type_symbol
_atom_site_fract_x
_atom_site_fract_y
_atom_site_fract_z
O1	O	-1.666494	-0.125628	0.079239
O2	O	-1.300887	-0.137598	0.079224
O3	O	-1.493490	-0.001466	0.079225
O4	O	-1.473892	-0.261760	0.079238
O5	O	-1.493472	-0.001467	-0.079096
O6	O	-1.300869	-0.137599	-0.079097
O7	O	-1.666476	-0.125629	-0.079082
Zn8	Zn	-1.483670	-0.131614	-0.104226
Zn9	Zn	-1.483694	-0.131613	0.104369
O10	O	-1.473873	-0.261761	-0.079083
C11	C	-1.254090	-0.136719	0.000062
C12	C	-1.114675	-0.134090	0.000056
C13	C	-1.492605	0.031863	0.000065
C14	C	-1.489978	0.131174	0.000066
C15	C	-1.713274	-0.126508	0.000083
C16	C	-1.852689	-0.129137	0.000095
C17	C	-1.034329	-0.214242	0.000073
C18	C	-0.903335	-0.211766	0.000090
C19	C	-0.933045	-0.048979	0.000074
C20	C	-1.064036	-0.051456	0.000051
C21	C	-1.084968	-0.296876	0.000078
C22	C	-1.004621	-0.377035	0.000097
C23	C	-0.873626	-0.374559	0.000113
C24	C	-0.822979	-0.291924	0.000110
C25	C	-1.474759	-0.295090	0.000079
C26	C	-1.477386	-0.394401	0.000085
N27	N	-1.483663	-0.131615	-0.246587
C28	C	-1.603127	0.187784	0.000070
C29	C	-1.600651	0.281097	0.000079
C30	C	-1.485026	0.317798	0.000078
C31	C	-1.371868	0.261181	0.000077
C32	C	-1.374345	0.167870	0.000074
C33	C	-1.366714	0.455672	0.000080
C34	C	-1.364237	0.548989	0.000081
C35	C	-1.593020	0.568898	0.000085
C36	C	-1.595497	0.475587	0.000082
C37	C	-1.482339	0.418977	0.000080
C38	C	-1.407469	-0.076850	-0.703461
C39	C	-1.407465	-0.076847	-0.603803
C40	C	-1.483696	-0.131605	-0.553957
C41	C	-1.559946	-0.186363	-0.603774
C42	C	-1.559957	-0.186360	-0.703430
C43	C	-1.559916	-0.186366	-0.396060
C44	C	-1.559904	-0.186370	-0.296397
C45	C	-1.407424	-0.076853	-0.296433
C46	C	-1.407435	-0.076850	-0.396089
C47	C	-1.483684	-0.131609	-0.445899
N48	N	-1.483711	-0.131605	0.246729
H49	H	-1.191628	-0.298901	0.000069
O50	O	-1.325186	-0.017791	-0.242710
H51	H	-1.272166	0.020276	-0.294114
H52	H	-1.345386	-0.032264	-0.744038
H53	H	-1.129456	0.013811	0.000039
H54	H	-1.282207	0.121779	0.000071
O55	O	-0.681690	-0.289256	0.000114
H56	H	-0.659975	-0.218332	0.000104
H57	H	-1.622021	-0.230943	-0.563182
H58	H	-1.045867	-0.444313	0.000091
H59	H	-0.808211	-0.439828	0.000119
O60	O	-1.642138	-0.245416	-0.242628
H61	H	-1.695179	-0.283481	-0.294004
O62	O	-1.715075	0.629950	0.000084
H63	H	-1.770424	0.616803	0.064605
H64	H	-1.270084	0.578868	0.000064
O65	O	-1.642148	-0.245430	-0.449789
H66	H	-1.695143	-0.283516	-0.398388
H67	H	-1.622041	-0.230947	-0.743984
O68	O	-1.247157	0.300766	0.000064
H69	H	-1.240564	0.342809	0.064586
H70	H	-0.891796	0.018298	0.000088
H71	H	-1.697283	0.157909	0.000065
O72	O	-1.325224	-0.017797	-0.550076
H73	H	-1.272204	0.020270	-0.601479
O74	O	-1.325261	-0.017762	-0.449858
H75	H	-1.272263	0.020333	-0.398481
H76	H	-1.692789	0.327185	0.000080
H77	H	-1.274568	0.409581	0.000080
O78	O	-1.720203	0.435996	0.000096
H79	H	-1.798473	0.491035	0.000112
