data_functionalizedCrystal
_audit_creation_method	'MofGen! by Chris Wilmer'
_symmetry_space_group_name_H-M	'P1'
_symmetry_Int_Tables_number	1
_symmetry_cell_setting	triclinic
loop_
_symmetry_equiv_pos_as_xyz
  x,y,z
_cell_length_a	18.050589
_cell_length_b	14.908783
_cell_length_c	14.909241
_cell_angle_alpha	96.414852
_cell_angle_beta	93.322478
_cell_angle_gamma	93.319292
loop_
_atom_site_label
_atom_site_type_symbol
_atom_site_fract_x
_atom_site_fract_y
_atom_site_fract_z
Zn1	Zn	-0.200479	1.413380	0.591799
Zn2	Zn	-0.332292	1.404521	0.440435
Zn3	Zn	-0.215711	1.253268	0.431700
Zn4	Zn	-0.332233	1.261953	0.583010
O5	O	-0.270179	1.333280	0.511736
O6	O	-0.211615	1.538878	0.579053
O7	O	-0.323227	1.377114	0.312606
O8	O	-0.109761	1.274580	0.452961
O9	O	-0.308457	1.532369	0.467847
O10	O	-0.098570	1.392214	0.570584
O11	O	-0.237575	1.265990	0.306189
O12	O	-0.237517	1.127747	0.444438
O13	O	-0.308356	1.289382	0.710845
O14	O	-0.323126	1.134128	0.555605
O15	O	-0.211557	1.400635	0.717303
O16	O	-0.436213	1.385536	0.459325
O17	O	-0.436170	1.280791	0.564074
C18	C	-0.281968	1.098093	0.498121
C19	C	-0.287029	0.997480	0.492317
C20	C	-0.195817	0.815203	0.597389
C21	C	-0.200569	0.720669	0.591939
C22	C	-0.301281	0.713874	0.475964
C23	C	-0.296529	0.808408	0.481414
C24	C	-0.243796	0.859070	0.542129
C25	C	-0.239048	0.953607	0.547583
C26	C	-0.339756	0.946810	0.431604
C27	C	-0.344508	0.852275	0.426155
C28	C	-0.463137	1.333170	0.511715
C29	C	-0.545680	1.333208	0.511740
C30	C	-0.745132	1.276306	0.568685
C31	C	-0.799834	1.249471	0.484812
C32	C	-0.696805	1.333297	0.511757
C33	C	-0.789182	1.360177	0.595642
C34	C	-0.842785	1.333383	0.511781
C35	C	-0.750424	1.306417	0.427838
C36	C	-0.739764	1.417164	0.538726
C37	C	-0.794444	1.390357	0.454798
C38	C	-0.612710	1.333246	0.511745
C39	C	-0.926879	1.333433	0.511784
C40	C	-0.076465	1.333417	0.511779
C41	C	0.006085	1.333475	0.511797
C42	C	-0.258251	1.346966	0.747836
C43	C	-0.253168	1.352797	0.848448
C44	C	-0.258343	1.569386	0.525405
C45	C	-0.253300	1.670001	0.531230
C46	C	-0.282004	1.319700	0.276557
C47	C	-0.286869	1.314044	0.175956
C48	C	-0.344430	1.247910	1.030787
C49	C	-0.339657	1.253387	1.125320
C50	C	-0.238852	1.369231	1.132051
C51	C	-0.243625	1.363754	1.037518
C52	C	-0.296415	1.303091	0.986888
C53	C	-0.301185	1.297611	0.892353
C54	C	-0.200384	1.413459	0.899086
C55	C	-0.195611	1.418935	0.993619
H56	H	-0.196111	0.994854	0.597021
N57	N	-0.717953	1.215762	0.628985
N58	N	-0.673773	1.245058	0.694787
H59	H	-0.654576	1.202298	0.737370
H60	H	-0.161283	1.458386	0.863334
N61	N	-0.728979	1.277835	0.338821
N62	N	-0.746249	1.321637	0.274820
H63	H	-0.731101	1.301448	0.211954
N64	N	-0.832709	1.160540	0.456208
N65	N	-0.817863	1.096589	0.500310
H66	H	-0.841078	1.033779	0.480114
H67	H	-0.387401	1.198499	0.989563
N68	N	-0.388759	0.991617	0.375139
N69	N	-0.388481	0.976202	0.291014
H70	H	-0.423090	1.007847	0.251137
N71	N	-0.151563	0.675847	0.648378
N72	N	-0.108455	0.621268	0.613587
H73	H	-0.073842	0.589612	0.653449
N74	N	-0.821435	1.450856	0.394338
N75	N	-0.810015	1.437889	0.312147
H76	H	-0.829079	1.480613	0.269444
N77	N	-0.355132	0.662102	0.413948
N78	N	-0.359360	0.577697	0.409090
H79	H	-0.397393	0.541131	0.365290
N80	N	-0.141947	0.866946	0.659402
N81	N	-0.074238	0.856077	0.652932
H82	H	-0.036190	0.892619	0.696729
H83	H	-0.378756	1.208454	1.161058
H84	H	-0.152632	1.468328	1.034854
H85	H	-0.195879	1.418627	1.173290
N86	N	-0.706867	1.506070	0.567372
N87	N	-0.717145	1.544071	0.644298
H88	H	-0.693910	1.606863	0.664539
H89	H	-0.387439	0.811013	0.376719
N90	N	-0.810763	1.388642	0.684625
N91	N	-0.794017	1.344401	0.748467
H92	H	-0.809257	1.364497	0.811313
H93	H	-0.344162	1.248206	0.851131
