data_functionalizedCrystal
_audit_creation_method	'MofGen! by Chris Wilmer'
_symmetry_space_group_name_H-M	'P1'
_symmetry_Int_Tables_number	1
_symmetry_cell_setting	triclinic
loop_
_symmetry_equiv_pos_as_xyz
  x,y,z
_cell_length_a	12.759387
_cell_length_b	18.215407
_cell_length_c	18.215405
_cell_angle_alpha	89.974667
_cell_angle_beta	89.963393
_cell_angle_gamma	90.021604
loop_
_atom_site_label
_atom_site_type_symbol
_atom_site_fract_x
_atom_site_fract_y
_atom_site_fract_z
Zn1	Zn	-0.594031	-1.125085	-0.292939
Zn2	Zn	-0.094031	-0.625085	0.207061
Zn3	Zn	-0.418333	-1.124989	-0.416023
Zn4	Zn	0.081667	-0.624989	0.083977
Zn5	Zn	-0.418360	-1.002014	-0.292976
Zn6	Zn	0.081640	-0.502014	0.207024
Zn7	Zn	-0.593964	-1.001983	-0.415969
Zn8	Zn	-0.093964	-0.501983	0.084031
O9	O	-0.506172	-1.063518	-0.354477
O10	O	-0.006172	-0.563518	0.145523
O11	O	-0.570741	-1.228056	-0.309274
O12	O	-0.070741	-0.728056	0.190726
O13	O	-0.271315	-1.108649	-0.399739
O14	O	0.228685	-0.608649	0.100261
O15	O	-0.441703	-1.018392	-0.189987
O16	O	0.058297	-0.518392	0.310013
O17	O	-0.441656	-1.227986	-0.399703
O18	O	0.058344	-0.727986	0.100297
O19	O	-0.570768	-1.108812	-0.189960
O20	O	-0.070768	-0.608812	0.310040
O21	O	-0.271336	-1.018299	-0.309337
O22	O	0.228664	-0.518299	0.190663
O23	O	-0.441638	-0.899025	-0.309284
O24	O	0.058362	-0.399025	0.190716
O25	O	-0.740994	-1.018340	-0.399611
O26	O	-0.240994	-0.518340	0.100389
O27	O	-0.570653	-0.899003	-0.399647
O28	O	-0.070653	-0.399003	0.100353
O29	O	-0.741044	-1.108782	-0.309221
O30	O	-0.241044	-0.608782	0.190779
O31	O	-0.441591	-1.108620	-0.519000
O32	O	0.058409	-0.608620	-0.019000
O33	O	-0.570627	-1.018248	-0.518961
O34	O	-0.070627	-0.518248	-0.018961
C35	C	-0.506122	-1.063440	-0.545683
C36	C	-0.006122	-0.563440	-0.045683
C37	C	-0.506135	-1.063474	-0.627482
C38	C	-0.006135	-0.563474	-0.127482
C39	C	-0.506142	-0.872312	-0.354464
C40	C	-0.006142	-0.372312	0.145536
C41	C	-0.506154	-0.790513	-0.354477
C42	C	-0.006154	-0.290513	0.145523
C43	C	-0.780206	-1.063569	-0.354406
C44	C	-0.280206	-0.563569	0.145594
C45	C	-0.896983	-1.063590	-0.354376
C46	C	-0.396983	-0.563590	0.145624
C47	C	-1.116477	-1.157814	-0.260201
C48	C	-0.616477	-0.657814	0.239799
C49	C	-1.061641	-1.204894	-0.213153
C50	C	-0.561641	-0.704894	0.286847
C51	C	-0.951919	-1.204873	-0.213178
C52	C	-0.451919	-0.704873	0.286822
C53	C	-0.897031	-1.157769	-0.260256
C54	C	-0.397031	-0.657769	0.239744
C55	C	-0.951868	-1.110690	-0.307304
C56	C	-0.451868	-0.610690	0.192696
C57	C	-1.061592	-1.110714	-0.307273
C58	C	-0.561592	-0.610714	0.192727
C59	C	-0.951819	-1.016511	-0.401423
C60	C	-0.451819	-0.516511	0.098577
C61	C	-1.061541	-1.016527	-0.401396
C62	C	-0.561541	-0.516527	0.098604
C63	C	-0.896931	-0.969408	-0.448502
C64	C	-0.396931	-0.469408	0.051498
C65	C	-0.951768	-0.922324	-0.495546
C66	C	-0.451768	-0.422324	0.004454
C67	C	-1.061496	-0.922346	-0.495519
C68	C	-0.561496	-0.422346	0.004481
C69	C	-1.116377	-0.969448	-0.448443
C70	C	-0.616377	-0.469448	0.051557
C71	C	-0.233205	-1.063510	-0.354495
C72	C	0.266795	-0.563510	0.145505
C73	C	-0.116429	-1.063631	-0.354318
C74	C	0.383571	-0.563631	0.145682
C75	C	-0.506203	-1.255471	-0.354490
C76	C	-0.006203	-0.755471	0.145510
C77	C	-0.506216	-1.337270	-0.354496
C78	C	-0.006216	-0.837270	0.145504
C79	C	-0.573248	-0.602326	-0.401603
C80	C	-0.073248	-0.102326	0.098397
C81	C	-0.573261	-0.525468	-0.401605
C82	C	-0.073261	-0.025468	0.098395
C83	C	-0.439119	-0.525461	-0.307365
C84	C	0.060881	-0.025461	0.192635
C85	C	-0.439112	-0.602319	-0.307359
C86	C	0.060888	-0.102319	0.192641
C87	C	-0.506175	-0.640749	-0.354482
C88	C	-0.006175	-0.140749	0.145518
C89	C	-0.506195	-0.487033	-0.354490
C90	C	-0.006195	0.012967	0.145510
C91	C	-0.506209	-0.403699	-0.354492
C92	C	-0.006209	0.096301	0.145508
C93	C	-0.506163	-0.724088	-0.354479
C94	C	-0.006163	-0.224088	0.145521
C95	C	-0.439070	-1.110641	-0.815672
C96	C	0.060930	-0.610641	-0.315672
C97	C	-0.439095	-1.110674	-0.892531
C98	C	0.060905	-0.610674	-0.392531
C99	C	-0.573350	-1.016488	-0.892530
C100	C	-0.073350	-0.516488	-0.392530
C101	C	-0.573329	-1.016460	-0.815672
C102	C	-0.073329	-0.516460	-0.315672
C103	C	-0.506183	-1.063535	-0.777246
C104	C	-0.006183	-0.563535	-0.277246
C105	C	-0.506229	-1.063597	-0.930962
C106	C	-0.006229	-0.563597	-0.430962
C107	C	-0.506257	-1.063632	-1.014295
C108	C	-0.006257	-0.563632	-0.514295
C109	C	-0.506156	-1.063501	-0.693907
C110	C	-0.006156	-0.563501	-0.193907
C111	C	-0.506246	-1.063616	-0.162524
C112	C	-0.006246	-0.563616	0.337476
C113	C	-0.506277	-1.063658	-0.080725
C114	C	-0.006277	-0.563658	0.419275
H115	H	-1.106343	-1.243246	-0.174825
H116	H	-0.606343	-0.743246	0.325175
O117	O	-0.638268	-0.488063	-0.447415
O118	O	-0.138268	0.011937	0.052585
C119	C	-0.652156	-0.401289	-0.546821
C120	C	-0.152156	0.098711	-0.046821
C121	C	-0.578414	-0.443590	-0.494975
C122	C	-0.078414	0.056410	0.005025
H123	H	-0.603792	-0.365335	-0.585296
H124	H	-0.103792	0.134665	-0.085296
H125	H	-0.707168	-0.365289	-0.513121
H126	H	-0.207168	0.134711	-0.013121
H127	H	-0.700107	-0.441976	-0.580463
H128	H	-0.200107	0.058024	-0.080463
H129	H	-0.530394	-0.402957	-0.461321
H130	H	-0.030394	0.097043	0.038679
H131	H	-0.523470	-0.479602	-0.528717
H132	H	-0.023470	0.020398	-0.028717
O133	O	-0.638716	-0.970837	-0.929827
O134	O	-0.138716	-0.470837	-0.429827
C135	C	-0.817382	-0.935018	-0.953238
C136	C	-0.317382	-0.435018	-0.453238
C137	C	-0.743476	-0.986778	-0.910969
C138	C	-0.243476	-0.486778	-0.410969
H139	H	-0.902094	-0.947877	-0.937995
H140	H	-0.402094	-0.447877	-0.437995
H141	H	-0.805958	-0.943131	-1.014780
H142	H	-0.305958	-0.443131	-0.514780
H143	H	-0.798792	-0.875683	-0.938194
H144	H	-0.298792	-0.375683	-0.438194
H145	H	-0.762020	-1.046132	-0.925951
H146	H	-0.262020	-0.546132	-0.425951
H147	H	-0.754914	-0.978601	-0.849437
H148	H	-0.254914	-0.478601	-0.349437
O149	O	-0.374102	-0.639680	-0.261507
O150	O	0.125898	-0.139680	0.238493
C151	C	-0.360217	-0.726525	-0.162163
C152	C	0.139783	-0.226525	0.337837
C153	C	-0.433952	-0.684246	-0.214032
C154	C	0.066048	-0.184246	0.285968
H155	H	-0.408574	-0.762578	-0.123776
H156	H	0.091426	-0.262578	0.376224
H157	H	-0.312298	-0.685890	-0.128434
H158	H	0.187702	-0.185890	0.371566
H159	H	-0.305174	-0.762446	-0.195921
H160	H	0.194826	-0.262446	0.304079
H161	H	-0.489058	-0.648323	-0.180331
H162	H	0.010942	-0.148323	0.319669
H163	H	-0.481797	-0.724920	-0.247763
H164	H	0.018203	-0.224920	0.252237
H165	H	-0.384397	-1.148974	-0.784387
H166	H	0.115603	-0.648974	-0.284387
H167	H	-0.384447	-1.149034	-0.923815
H168	H	0.115553	-0.649034	-0.423815
H169	H	-0.384517	-0.494162	-0.269000
H170	H	0.115483	0.005838	0.231000
H171	H	-0.627986	-0.978100	-0.784383
H172	H	-0.127986	-0.478100	-0.284383
H173	H	-0.907272	-1.243210	-0.174869
H174	H	-0.407272	-0.743210	0.325131
O175	O	-1.223060	-1.157950	-0.260241
O176	O	-0.723060	-0.657950	0.239759
C177	C	-1.380522	-1.228534	-0.279069
C178	C	-0.880522	-0.728534	0.220931
C179	C	-1.259818	-1.228476	-0.279067
C180	C	-0.759818	-0.728476	0.220933
H181	H	-1.410277	-1.285552	-0.294274
H182	H	-0.910277	-0.785552	0.205726
H183	H	-1.410343	-1.186838	-0.320807
H184	H	-0.910343	-0.686838	0.179193
H185	H	-1.410307	-1.213260	-0.222070
H186	H	-0.910307	-0.713260	0.277930
H187	H	-1.229944	-1.243769	-0.336036
H188	H	-0.729944	-0.743769	0.163964
H189	H	-1.230068	-1.270157	-0.237291
H190	H	-0.730068	-0.770157	0.262709
O191	O	-0.898329	-0.876679	-0.541310
O192	O	-0.398329	-0.376679	-0.041310
C193	C	-0.774449	-0.866723	-0.640726
C194	C	-0.274449	-0.366723	-0.140726
C195	C	-0.834892	-0.918496	-0.588934
C196	C	-0.334892	-0.418496	-0.088934
H197	H	-0.723162	-0.900512	-0.679253
H198	H	-0.223162	-0.400512	-0.179253
H199	H	-0.723007	-0.828269	-0.606988
H200	H	-0.223007	-0.328269	-0.106988
H201	H	-0.832497	-0.833054	-0.674316
H202	H	-0.332497	-0.333054	-0.174316
H203	H	-0.776919	-0.952213	-0.555333
H204	H	-0.276919	-0.452213	-0.055333
H205	H	-0.886349	-0.956902	-0.622715
H206	H	-0.386349	-0.456902	-0.122715
O207	O	-1.114598	-0.876543	-0.541247
O208	O	-0.614598	-0.376543	-0.041247
C209	C	-1.102956	-0.783161	-0.634641
C210	C	-0.602956	-0.283161	-0.134641
C211	C	-1.042693	-0.834983	-0.582880
C212	C	-0.542693	-0.334983	-0.082880
H213	H	-1.044847	-0.749557	-0.668326
H214	H	-0.544847	-0.249557	-0.168326
H215	H	-1.154303	-0.744656	-0.600875
H216	H	-0.654303	-0.244656	-0.100875
H217	H	-1.154344	-0.816950	-0.673080
H218	H	-0.654344	-0.316950	-0.173080
H219	H	-0.991248	-0.801253	-0.544431
H220	H	-0.491248	-0.301253	-0.044431
H221	H	-0.991412	-0.873490	-0.616692
H222	H	-0.491412	-0.373490	-0.116692
H223	H	-0.807690	-1.157763	-0.260278
H224	H	-0.307690	-0.657763	0.239722
H225	H	-1.205718	-0.969466	-0.448412
H226	H	-0.705718	-0.469466	0.051588
O227	O	-0.638497	-0.639545	-0.447394
O228	O	-0.138497	-0.139545	0.052606
C229	C	-0.771512	-0.631435	-0.540892
C230	C	-0.271512	-0.131435	-0.040892
C231	C	-0.697684	-0.589197	-0.489060
C232	C	-0.197684	-0.089197	0.010940
H233	H	-0.819368	-0.590748	-0.574604
H234	H	-0.319368	-0.090748	-0.074604
H235	H	-0.826599	-0.667427	-0.507180
H236	H	-0.326599	-0.167427	-0.007180
H237	H	-0.723163	-0.667409	-0.579302
H238	H	-0.223163	-0.167409	-0.079302
H239	H	-0.745948	-0.553184	-0.450640
H240	H	-0.245948	-0.053184	0.049360
H241	H	-0.642594	-0.553252	-0.522819
H242	H	-0.142594	-0.053252	-0.022819
H243	H	-0.807590	-0.969397	-0.448521
H244	H	-0.307590	-0.469397	0.051479
