data_functionalizedCrystal
_audit_creation_method	'MofGen! by Chris Wilmer'
_symmetry_space_group_name_H-M	'P1'
_symmetry_Int_Tables_number	1
_symmetry_cell_setting	triclinic
loop_
_symmetry_equiv_pos_as_xyz
  x,y,z
_cell_length_a	13.339070
_cell_length_b	19.288864
_cell_length_c	18.366186
_cell_angle_alpha	90.022894
_cell_angle_beta	89.997828
_cell_angle_gamma	80.617230
loop_
_atom_site_label
_atom_site_type_symbol
_atom_site_fract_x
_atom_site_fract_y
_atom_site_fract_z
O1	O	0.126087	-0.945923	-0.060787
O2	O	0.143095	-0.746977	-0.060738
O3	O	-0.012569	-0.823618	-0.060755
O4	O	0.281750	-0.869283	-0.060770
O5	O	-0.012576	-0.823598	0.060345
O6	O	0.143088	-0.746958	0.060362
O7	O	0.126079	-0.945904	0.060312
Zn8	Zn	0.134582	-0.846427	0.079564
Zn9	Zn	0.134592	-0.846453	-0.079989
O10	O	0.281743	-0.869263	0.060329
C11	C	0.142544	-0.720984	-0.000182
C12	C	0.140901	-0.643560	-0.000162
C13	C	-0.050226	-0.815894	-0.000204
C14	C	-0.162423	-0.792901	-0.000201
C15	C	0.126630	-0.971897	-0.000245
C16	C	0.128273	-1.049320	-0.000269
C17	C	-0.528031	-0.971681	-0.000245
C18	C	-0.422617	-0.993286	-0.000244
C19	C	-0.357563	-0.943192	-0.000233
C20	C	-0.397934	-0.871489	-0.000224
C21	C	-0.503359	-0.849881	-0.000220
C22	C	-0.332891	-0.821392	-0.000208
C23	C	-0.373262	-0.749689	-0.000198
C24	C	-0.478677	-0.728085	-0.000195
C25	C	-0.543730	-0.778180	-0.000205
C26	C	-0.227467	-0.842999	-0.000212
C27	C	-0.202795	-0.721199	-0.000187
C28	C	-0.308209	-0.699594	-0.000188
C29	C	0.319401	-0.876987	-0.000223
C30	C	0.431598	-0.899980	-0.000231
N31	N	0.134575	-0.846415	0.188455
C32	C	0.232238	-0.616663	-0.000179
C33	C	0.230694	-0.543915	-0.000187
C34	C	0.137809	-0.498067	-0.000193
C35	C	0.046461	-0.524972	-0.000173
C36	C	0.048007	-0.597719	-0.000157
C37	C	0.064794	-0.375583	-0.042640
C38	C	0.063252	-0.302838	-0.042660
C39	C	0.133037	-0.273691	-0.000237
C40	C	0.204382	-0.317301	0.042197
C41	C	0.205928	-0.390048	0.042212
C42	C	0.136123	-0.419184	-0.000209
C43	C	0.222706	-0.167913	-0.000261
C44	C	0.221159	-0.095163	-0.000264
C45	C	0.036923	-0.076222	-0.000257
C46	C	0.038473	-0.148970	-0.000247
C47	C	0.131367	-0.194812	-0.000252
N48	N	0.134592	-0.846470	-0.188881
C49	C	0.065680	-0.880373	0.226548
C50	C	0.065676	-0.880377	0.302776
C51	C	0.134583	-0.846432	0.340908
C52	C	0.203482	-0.812466	0.302806
C53	C	0.203478	-0.812457	0.226580
C54	C	0.226676	-0.855080	0.461665
C55	C	0.226682	-0.855093	0.537890
C56	C	0.134596	-0.846454	0.576016
C57	C	0.042500	-0.837815	0.537907
C58	C	0.042496	-0.837806	0.461681
C59	C	0.134595	-0.846437	0.423563
C60	C	0.065691	-0.880418	0.696763
C61	C	0.065685	-0.880416	0.772993
C62	C	0.203500	-0.812510	0.773021
C63	C	0.203497	-0.812507	0.696793
C64	C	0.134594	-0.846464	0.658669
H65	H	-0.194607	-0.901380	-0.000219
H66	H	-0.629568	-0.760592	-0.000209
O67	O	-0.379071	-1.070617	-0.000269
H68	H	-0.442014	-1.101821	-0.000287
O69	O	-0.598190	-1.025708	-0.000248
H70	H	-0.678275	-0.998635	-0.000244
O71	O	-0.008634	-0.917030	0.655635
H72	H	-0.056556	-0.940634	0.694933
O73	O	-0.008615	-0.917054	0.814085
H74	H	-0.056515	-0.940672	0.774765
H75	H	0.009573	-0.908021	0.195510
O76	O	-0.050514	-0.626731	-0.000144
H77	H	-0.054219	-0.659389	0.049224
O78	O	0.332425	-0.666109	-0.000178
H79	H	0.337526	-0.699679	0.049185
O80	O	-0.522226	-0.650750	-0.000175
H81	H	-0.459285	-0.619545	-0.000174
O82	O	-0.063267	-0.026784	-0.000259
H83	H	-0.068385	0.006782	-0.049625
H84	H	-0.341094	-0.641212	-0.000180
O85	O	-0.132645	-0.667160	-0.000178
H86	H	-0.052559	-0.694230	-0.000191
H87	H	-0.029167	-0.487638	-0.000188
H88	H	0.305074	-0.522011	-0.000198
H89	H	0.009572	-0.908031	0.333797
O90	O	-0.060040	-0.177989	-0.000235
H91	H	-0.124891	-0.133888	-0.000245
H92	H	0.259602	-0.784858	0.665776
H93	H	0.259581	-0.784803	0.195564
O94	O	-0.056825	-0.828477	0.420574
H95	H	-0.120863	-0.822465	0.459885
H96	H	0.005163	-0.267337	-0.077215
O97	O	0.277828	-0.775898	0.814136
H98	H	0.266262	-0.781612	0.873542
O99	O	0.282833	-0.437082	0.088006
H100	H	0.331089	-0.404598	0.117518
H101	H	-0.271731	-0.960787	-0.000232
O102	O	0.279654	-0.285878	0.087963
H103	H	0.266588	-0.227966	0.080834
H104	H	-0.032485	-0.830780	0.568947
O105	O	-0.010474	-0.407018	-0.088403
H106	H	-0.060329	-0.364476	-0.117921
O107	O	0.326007	-0.864425	0.578992
H108	H	0.390039	-0.870421	0.539676
O109	O	0.326003	-0.864404	0.420545
H110	H	0.390041	-0.870425	0.459848
H111	H	0.298346	-0.205239	-0.000254
H112	H	0.295539	-0.073266	-0.000273
H113	H	0.259586	-0.784826	0.333857
