data_functionalizedCrystal
_audit_creation_method	'MofGen! by Chris Wilmer'
_symmetry_space_group_name_H-M	'P1'
_symmetry_Int_Tables_number	1
_symmetry_cell_setting	triclinic
loop_
_symmetry_equiv_pos_as_xyz
  x,y,z
_cell_length_a	18.050591
_cell_length_b	18.050590
_cell_length_c	19.805399
_cell_angle_alpha	90.027426
_cell_angle_beta	90.014260
_cell_angle_gamma	90.017393
loop_
_atom_site_label
_atom_site_type_symbol
_atom_site_fract_x
_atom_site_fract_y
_atom_site_fract_z
Zn1	Zn	1.135370	-0.295700	0.382624
Zn2	Zn	1.135293	-0.419892	0.269436
Zn3	Zn	1.011181	-0.295718	0.269460
Zn4	Zn	1.011158	-0.419850	0.382594
O5	O	1.073250	-0.357790	0.326029
O6	O	1.239284	-0.312184	0.367613
O7	O	1.118807	-0.403445	0.174723
O8	O	1.027696	-0.191791	0.284494
O9	O	1.239228	-0.403427	0.284454
O10	O	1.118937	-0.191777	0.367635
O11	O	1.027622	-0.312215	0.174740
O12	O	0.907253	-0.312174	0.284464
O13	O	1.027657	-0.403356	0.477314
O14	O	0.907236	-0.403373	0.367583
O15	O	1.118915	-0.312143	0.477337
O16	O	1.118785	-0.523811	0.284425
O17	O	1.027583	-0.523780	0.367561
C18	C	0.880298	-0.357772	0.326023
C19	C	0.797752	-0.357782	0.326037
C20	C	0.548939	-0.407479	0.371175
C21	C	0.598308	-0.425554	0.309395
C22	C	0.500632	-0.357805	0.326035
C23	C	0.598345	-0.339753	0.387813
C24	C	0.646617	-0.357795	0.326039
C25	C	0.548913	-0.375916	0.264223
C26	C	0.548946	-0.290083	0.342682
C27	C	0.598293	-0.308133	0.280859
C28	C	0.416534	-0.357812	0.326034
C29	C	0.730714	-0.357788	0.326034
C30	C	1.073193	-0.550742	0.326002
C31	C	1.073237	-0.633288	0.326013
C32	C	1.122935	-0.832728	0.280866
C33	C	1.141075	-0.882062	0.342640
C34	C	1.073279	-0.784418	0.326040
C35	C	1.055215	-0.882165	0.264294
C36	C	1.073321	-0.930403	0.326060
C37	C	1.091454	-0.832665	0.387845
C38	C	1.005561	-0.832764	0.309458
C39	C	1.023675	-0.882076	0.371274
C40	C	1.073257	-0.700320	0.326027
C41	C	1.073343	-1.014500	0.326080
C42	C	1.266956	-0.357808	0.326035
C43	C	1.349502	-0.357816	0.326037
C44	C	1.073292	-0.357743	0.502571
C45	C	1.073310	-0.357723	0.577803
C46	C	1.073328	-0.164084	0.326070
C47	C	1.073361	-0.081538	0.326088
C48	C	1.073252	-0.357783	0.150173
C49	C	1.073378	-0.357593	0.074941
C50	C	1.120829	-0.310226	0.613160
C51	C	1.120836	-0.310205	0.683849
C52	C	1.073328	-0.357684	0.719179
C53	C	1.025804	-0.405183	0.683817
C54	C	1.025793	-0.405200	0.613130
C55	C	1.025846	-0.405114	0.968891
C56	C	1.025862	-0.405095	1.039583
C57	C	1.120889	-0.310118	1.039609
C58	C	1.120878	-0.310135	0.968922
C59	C	1.073352	-0.357631	0.933566
C60	C	1.073343	-0.357653	0.856918
C61	C	1.073340	-0.357667	0.795826
H62	H	0.527247	-0.232832	0.356782
H63	H	0.527269	-0.449522	0.409299
O64	O	0.979556	-0.451238	0.578756
C65	C	0.931608	-0.408967	0.537860
H66	H	0.927048	-0.350469	0.559171
H67	H	0.874445	-0.435824	0.537051
H68	H	0.954559	-0.406429	0.484288
H69	H	0.619990	-0.482822	0.295312
H70	H	1.039919	-0.903908	0.212068
O71	O	0.624161	-0.321624	0.450186
C72	C	0.599030	-0.374160	0.497607
H73	H	0.547017	-0.402423	0.477506
H74	H	0.585742	-0.345116	0.547271
H75	H	0.644010	-0.417422	0.506388
H76	H	0.527292	-0.391250	0.211966
O77	O	0.623900	-0.257922	0.235314
C78	C	0.597652	-0.186788	0.252417
H79	H	0.545383	-0.192206	0.284333
H80	H	0.584417	-0.154667	0.204361
H81	H	0.641929	-0.155971	0.282386
H82	H	1.159518	-0.271565	0.584400
H83	H	1.159585	-0.271442	1.068405
O84	O	1.173146	-0.806906	0.235415
C85	C	1.244488	-0.832041	0.253157
H86	H	1.245856	-0.845855	0.309303
H87	H	1.286848	-0.786853	0.241894
H88	H	1.258448	-0.883737	0.222621
H89	H	0.987172	-0.443760	1.068347
H90	H	1.159533	-0.271530	0.712633
O91	O	1.209469	-0.907773	0.359367
C92	C	1.257571	-0.847437	0.370520
H93	H	1.235701	-0.796598	0.342817
H94	H	1.315168	-0.861717	0.350834
H95	H	1.260742	-0.835206	0.426925
H96	H	1.106693	-0.811014	0.440116
H97	H	0.987157	-0.443799	0.940112
O98	O	0.973683	-0.907733	0.417000
C99	C	0.993016	-0.882356	0.481998
H100	H	1.054626	-0.868531	0.483331
H101	H	0.980538	-0.927402	0.520688
H102	H	0.959517	-0.830617	0.494535
H103	H	0.948292	-0.811091	0.295402
H104	H	1.159567	-0.271475	0.940160
O105	O	0.979722	-0.451280	0.718239
C106	C	0.989908	-0.441069	0.788212
H107	H	1.047233	-0.416752	0.797878
H108	H	0.984850	-0.496690	0.815063
H109	H	0.945878	-0.401510	0.808277
