data_functionalizedCrystal
_audit_creation_method	'MofGen! by Chris Wilmer'
_symmetry_space_group_name_H-M	'P1'
_symmetry_Int_Tables_number	1
_symmetry_cell_setting	triclinic
loop_
_symmetry_equiv_pos_as_xyz
  x,y,z
_cell_length_a	16.992694
_cell_length_b	16.992695
_cell_length_c	15.455313
_cell_angle_alpha	92.847427
_cell_angle_beta	87.142206
_cell_angle_gamma	90.668223
loop_
_atom_site_label
_atom_site_type_symbol
_atom_site_fract_x
_atom_site_fract_y
_atom_site_fract_z
O1	O	1.054080	0.163694	-0.072023
O2	O	0.825681	0.161862	-0.072048
O3	O	0.938965	0.048579	-0.072029
O4	O	0.940797	0.276978	-0.072042
O5	O	0.932485	0.055028	0.072232
O6	O	0.819202	0.168312	0.072213
O7	O	1.047601	0.170144	0.072238
Cu8	Cu	0.932809	0.169817	0.085398
Cu9	Cu	0.940473	0.162189	-0.085207
O10	O	0.934317	0.283428	0.072219
C11	C	0.793081	0.162731	0.000079
C12	C	0.705597	0.155702	0.000070
C13	C	0.933369	0.022443	0.000102
C14	C	0.926341	-0.065041	0.000101
C15	C	0.659607	0.223520	0.000066
C16	C	0.577405	0.216911	0.000079
C17	C	0.541197	0.142484	0.000088
C18	C	0.587193	0.074661	0.000094
C19	C	0.669393	0.081271	0.000088
C20	C	0.295881	0.115091	0.000113
C21	C	0.213676	0.108486	0.000116
C22	C	0.203893	0.250737	0.000103
C23	C	0.286095	0.257340	0.000091
C24	C	0.332084	0.189517	0.000102
N25	N	0.457174	0.135727	0.000098
N26	N	0.416105	0.196275	0.000098
C27	C	0.994158	-0.111032	0.000109
C28	C	0.987550	-0.193233	0.000100
C29	C	0.913123	-0.229442	0.000089
C30	C	0.845300	-0.183445	0.000078
C31	C	0.851910	-0.101246	0.000081
C32	C	0.885729	-0.474757	0.000074
C33	C	0.879124	-0.556962	0.000074
C34	C	1.021375	-0.566744	0.000094
C35	C	1.027977	-0.484543	0.000102
C36	C	0.960155	-0.438554	0.000087
N37	N	0.906366	-0.313464	0.000082
N38	N	0.966913	-0.354533	0.000087
C39	C	1.080201	0.169275	0.000109
C40	C	1.167685	0.176304	0.000113
C41	C	0.939913	0.309563	0.000087
C42	C	0.946942	0.397047	0.000082
N43	N	0.927425	0.175181	0.205392
N44	N	0.945863	0.156819	-0.205202
C45	C	0.975571	0.127074	0.250795
C46	C	0.971507	0.131139	0.341602
C47	C	0.919301	0.183315	0.387005
C48	C	0.871149	0.231424	0.341596
C49	C	0.875210	0.227355	0.250791
C50	C	0.901772	0.200858	0.658584
C51	C	0.897717	0.204926	0.749395
C52	C	0.998074	0.104639	0.749395
C53	C	1.002133	0.100578	0.658588
C54	C	0.953979	0.148684	0.613187
N55	N	0.915147	0.187473	0.479825
N56	N	0.958129	0.144522	0.520369
H57	H	0.689081	0.284126	0.000058
H58	H	0.830503	-0.437322	0.000061
C59	C	0.763429	-0.223278	0.000073
N60	N	0.701761	-0.253278	0.000075
H61	H	0.796685	-0.063801	0.000073
C62	C	0.848909	0.253885	0.608655
N63	N	0.809129	0.293867	0.571045
H64	H	0.836004	0.266527	0.213825
C65	C	1.051033	0.051720	0.799343
N66	N	1.090921	0.011856	0.836964
H67	H	0.539963	0.272136	0.000075
C68	C	1.033002	0.069676	0.200860
N69	N	1.076259	0.026439	0.163251
H70	H	1.088584	-0.455068	0.000112
H71	H	1.010711	0.091966	0.378568
C72	C	1.076034	-0.071210	0.000122
N73	N	1.137706	-0.041219	0.000127
C74	C	0.325917	0.339216	0.000095
N75	N	0.355912	0.400886	0.000099
H76	H	1.076591	-0.604197	0.000106
H77	H	1.044644	0.058092	0.621622
C78	C	0.797245	-0.596790	0.000055
N79	N	0.735577	-0.626788	0.000040
C80	C	0.813714	0.288811	0.391543
N81	N	0.770452	0.332035	0.429162
C82	C	0.840281	0.262323	0.799337
N83	N	0.797022	0.305554	0.836953
C84	C	0.346459	0.040482	0.000119
N85	N	0.384558	-0.015716	0.000122
H86	H	0.184198	0.047876	0.000123
C87	C	1.062154	-0.243819	0.000124
N88	N	1.118350	-0.281919	0.000145
H89	H	0.166440	0.305954	0.000096
H90	H	0.557705	0.014061	0.000114
H91	H	0.706838	0.026046	0.000090
