data_functionalizedCrystal
_audit_creation_method	'MofGen! by Chris Wilmer'
_symmetry_space_group_name_H-M	'P1'
_symmetry_Int_Tables_number	1
_symmetry_cell_setting	triclinic
loop_
_symmetry_equiv_pos_as_xyz
  x,y,z
_cell_length_a	14.044220
_cell_length_b	15.944551
_cell_length_c	13.101039
_cell_angle_alpha	93.361595
_cell_angle_beta	86.340132
_cell_angle_gamma	88.343808
loop_
_atom_site_label
_atom_site_type_symbol
_atom_site_fract_x
_atom_site_fract_y
_atom_site_fract_z
O1	O	1.262927	0.198266	-0.085109
O2	O	0.986959	0.190957	-0.085135
O3	O	1.132479	0.072901	-0.085112
O4	O	1.117408	0.316322	-0.085132
O5	O	1.122038	0.081387	0.085316
O6	O	0.976518	0.199443	0.085293
O7	O	1.252486	0.206752	0.085319
Zn8	Zn	1.112845	0.204444	0.112365
Zn9	Zn	1.126601	0.193264	-0.112181
O10	O	1.106967	0.324807	0.085296
C11	C	0.946424	0.192001	0.000076
C12	C	0.841198	0.182459	0.000066
C13	C	0.648535	0.165017	0.000088
C14	C	0.590906	0.232688	0.000087
C15	C	0.483701	0.222982	0.000099
C16	C	0.755749	0.174721	0.000076
C17	C	1.126633	0.045803	0.000102
C18	C	1.124757	-0.047583	0.000102
C19	C	1.030074	-0.269531	0.000079
C20	C	1.068894	-0.323071	0.084115
C21	C	1.121364	-0.218563	0.000094
C22	C	1.079209	-0.331419	-0.083914
C23	C	1.118080	-0.383723	0.000082
C24	C	1.160204	-0.270871	0.084199
C25	C	1.170512	-0.279217	-0.083905
C26	C	1.209397	-0.332734	0.000151
C27	C	1.123253	-0.123419	0.000102
C28	C	1.116197	-0.478865	0.000081
C29	C	1.293021	0.205707	0.000106
C30	C	1.398248	0.215249	0.000108
C31	C	1.112813	0.351905	0.000079
C32	C	1.114689	0.445291	0.000072
N33	N	1.103463	0.212075	0.265612
N34	N	1.135990	0.185628	-0.265429
C35	C	1.090699	0.222464	0.474653
C36	C	1.148750	0.175242	0.525537
C37	C	1.141649	0.181022	0.641855
C38	C	1.097800	0.216684	0.358325
H39	H	0.617361	0.099799	0.000099
H40	H	1.285236	-0.360212	0.000205
C41	C	1.032455	-0.454995	-0.179279
C42	C	1.032942	-0.367216	-0.179821
H43	H	1.003881	-0.477089	-0.238481
H44	H	1.096149	-0.476729	-0.179387
H45	H	0.996988	-0.470695	-0.119605
H46	H	1.068415	-0.351516	-0.239491
H47	H	0.969237	-0.345474	-0.179722
H48	H	1.203784	0.130473	0.481744
C49	C	0.874802	-0.254128	0.088283
C50	C	0.927778	-0.232212	0.000179
H51	H	0.811654	-0.231083	0.088349
H52	H	0.872874	-0.313595	0.088885
H53	H	0.903946	-0.232556	0.147368
H54	H	0.898638	-0.253790	-0.058907
H55	H	0.929702	-0.172733	-0.000432
H56	H	1.025929	-0.342534	0.155153
H57	H	1.035671	0.267230	0.518441
C58	C	1.185908	-0.283495	-0.267725
C59	C	1.228466	-0.252905	-0.179806
H60	H	1.221680	-0.267244	-0.326934
H61	H	1.184661	-0.343066	-0.268755
H62	H	1.122525	-0.260907	-0.267116
H63	H	1.291847	-0.275498	-0.180411
H64	H	1.229724	-0.193322	-0.178776
H65	H	1.194427	-0.244450	0.155322
C66	C	0.607653	0.360058	-0.087560
C67	C	0.632974	0.320743	0.000058
H68	H	0.633621	0.414420	-0.087577
H69	H	0.632081	0.327442	-0.146974
H70	H	0.540082	0.364987	-0.087539
H71	H	0.700545	0.315809	0.000033
H72	H	0.608550	0.353367	0.059488
