data_functionalizedCrystal
_audit_creation_method	'MofGen! by Chris Wilmer'
_symmetry_space_group_name_H-M	'P1'
_symmetry_Int_Tables_number	1
_symmetry_cell_setting	triclinic
loop_
_symmetry_equiv_pos_as_xyz
  x,y,z
_cell_length_a	25.639243
_cell_length_b	25.639240
_cell_length_c	13.897441
_cell_angle_alpha	90.041488
_cell_angle_beta	90.024451
_cell_angle_gamma	90.035481
loop_
_atom_site_label
_atom_site_type_symbol
_atom_site_fract_x
_atom_site_fract_y
_atom_site_fract_z
Zn1	Zn	0.799290	-0.208096	0.545404
Zn2	Zn	1.299290	0.291904	1.045404
Zn3	Zn	0.799210	-0.295539	0.384075
Zn4	Zn	1.299210	0.204461	0.884075
Zn5	Zn	0.711854	-0.208123	0.384112
Zn6	Zn	1.211854	0.291877	0.884112
Zn7	Zn	0.711821	-0.295506	0.545317
Zn8	Zn	1.211821	0.204494	1.045317
O9	O	0.755544	-0.251816	0.464727
O10	O	1.255544	0.248184	0.964727
O11	O	0.872445	-0.219698	0.524024
O12	O	1.372445	0.280302	1.024024
O13	O	0.787602	-0.283968	0.249098
O14	O	1.287602	0.216032	0.749098
O15	O	0.723500	-0.134954	0.405560
O16	O	1.223500	0.365046	0.905560
O17	O	0.872386	-0.283941	0.405496
O18	O	1.372386	0.216059	0.905496
O19	O	0.787739	-0.134934	0.524060
O20	O	1.287739	0.365066	1.024060
O21	O	0.723422	-0.219744	0.249125
O22	O	1.223422	0.280256	0.749125
O23	O	0.638684	-0.219713	0.405475
O24	O	1.138684	0.280287	0.905475
O25	O	0.723444	-0.283887	0.680310
O26	O	1.223444	0.216113	1.180310
O27	O	0.638660	-0.283913	0.523912
O28	O	1.138660	0.216087	1.023912
O29	O	0.787707	-0.219666	0.680374
O30	O	1.287707	0.280334	1.180374
O31	O	0.787570	-0.368700	0.405412
O32	O	1.287570	0.131300	0.905412
O33	O	0.723366	-0.368676	0.523876
O34	O	1.223366	0.131324	1.023876
C35	C	0.619701	-0.251813	0.464689
C36	C	1.119701	0.248187	0.964689
C37	C	0.561587	-0.251824	0.464695
C38	C	1.061587	0.248176	0.964695
C39	C	0.201249	-0.218417	0.526547
C40	C	0.701249	0.281583	1.026547
C41	C	0.146645	-0.218417	0.526553
C42	C	0.646645	0.281583	1.026553
O43	O	0.118430	-0.190003	0.579094
O44	O	0.618430	0.309997	1.079094
N45	N	0.119305	-0.251815	0.464753
N46	N	0.619305	0.248185	0.964753
C47	C	0.146572	-0.285212	0.402936
C48	C	0.646572	0.214788	0.902936
O49	O	0.118303	-0.313619	0.350371
O50	O	0.618303	0.186381	0.850371
C51	C	0.201175	-0.285209	0.402926
C52	C	0.701175	0.214791	0.902926
C53	C	0.228512	-0.251812	0.464737
C54	C	0.728512	0.248188	0.964737
C55	C	0.228587	-0.185023	0.588352
C56	C	0.728587	0.314977	1.088352
C57	C	0.283187	-0.185024	0.588347
C58	C	0.783187	0.314976	1.088347
C59	C	0.310450	-0.218420	0.526537
C60	C	0.810450	0.281580	1.026537
C61	C	0.283113	-0.251814	0.464732
C62	C	0.783113	0.248186	0.964732
C63	C	0.228441	-0.318603	0.341105
C64	C	0.728441	0.181397	0.841105
C65	C	0.283048	-0.318597	0.341100
C66	C	0.783048	0.181403	0.841100
C67	C	0.310385	-0.285201	0.402911
C68	C	0.810385	0.214799	0.902911
C69	C	0.364976	-0.285210	0.402917
C70	C	0.864976	0.214790	0.902917
N71	N	0.392317	-0.251812	0.464717
N72	N	0.892317	0.248188	0.964717
C73	C	0.365054	-0.218417	0.526527
C74	C	0.865054	0.281583	1.026527
C75	C	0.031901	-0.285214	0.402961
C76	C	0.531901	0.214786	0.902961
C77	C	-0.022701	-0.285219	0.402976
C78	C	0.477299	0.214781	0.902976
C79	C	-0.022624	-0.218424	0.526591
C80	C	0.477376	0.281576	1.026591
C81	C	0.031979	-0.218421	0.526581
C82	C	0.531979	0.281579	1.026581
C83	C	0.059241	-0.251816	0.464761
C84	C	0.559241	0.248184	0.964761
C85	C	0.479719	-0.218422	0.526513
C86	C	0.979719	0.281578	1.026513
C87	C	0.534324	-0.218428	0.526505
C88	C	1.034324	0.281572	1.026505
C89	C	0.534242	-0.285222	0.402886
C90	C	1.034242	0.214778	0.902886
C91	C	0.479642	-0.285218	0.402897
C92	C	0.979642	0.214782	0.902897
C93	C	0.452381	-0.251814	0.464713
C94	C	0.952381	0.248186	0.964713
O95	O	0.393226	-0.313608	0.350400
O96	O	0.893226	0.186392	0.850400
O97	O	0.393329	-0.190010	0.579075
O98	O	0.893329	0.309990	1.079075
C99	C	0.755470	-0.387659	0.464651
C100	C	1.255470	0.112341	0.964651
C101	C	0.755486	-0.445773	0.464651
C102	C	1.255486	0.054227	0.964651
C103	C	0.789010	-0.806087	0.526541
C104	C	1.289010	-0.306087	1.026541
C105	C	0.789025	-0.860691	0.526561
C106	C	1.289025	-0.360691	1.026561
O107	O	0.817440	-0.888886	0.579105
O108	O	1.317440	-0.388886	1.079105
N109	N	0.755616	-0.888055	0.464820
N110	N	1.255616	-0.388055	0.964820
C111	C	0.722186	-0.860812	0.403062
C112	C	1.222186	-0.360812	0.903062
O113	O	0.693770	-0.889101	0.350549
O114	O	1.193770	-0.389101	0.850549
C115	C	0.722168	-0.806209	0.403048
C116	C	1.222168	-0.306209	0.903048
C117	C	0.755583	-0.778848	0.464786
C118	C	1.255583	-0.278848	0.964786
C119	C	0.822422	-0.778726	0.588275
C120	C	1.322422	-0.278726	1.088275
C121	C	0.822407	-0.724125	0.588254
C122	C	1.322407	-0.224125	1.088254
C123	C	0.788980	-0.696886	0.526499
C124	C	1.288980	-0.196886	1.026499
C125	C	0.755568	-0.724247	0.464765
C126	C	1.255568	-0.224247	0.964765
C127	C	0.688736	-0.778966	0.341296
C128	C	1.188736	-0.278966	0.841296
C129	C	0.688721	-0.724359	0.341288
C130	C	1.188721	-0.224359	0.841288
C131	C	0.722136	-0.696998	0.403026
C132	C	1.222136	-0.196998	0.903026
C133	C	0.722127	-0.642407	0.402989
C134	C	1.222127	-0.142407	0.902989
N135	N	0.755536	-0.615043	0.464730
N136	N	1.255536	-0.115043	0.964730
C137	C	0.788962	-0.642283	0.526485
C138	C	1.288962	-0.142283	1.026485
C139	C	0.722225	-0.975483	0.403098
C140	C	1.222225	-0.475483	0.903098
C141	C	0.722245	-1.030085	0.403106
C142	C	1.222245	-0.530085	0.903106
C143	C	0.789084	-1.029960	0.526606
C144	C	1.289084	-0.529960	1.026606
C145	C	0.789066	-0.975357	0.526592
C146	C	1.289066	-0.475357	1.026592
C147	C	0.755634	-0.948119	0.464839
C148	C	1.255634	-0.448119	0.964839
C149	C	0.788929	-0.527617	0.526435
C150	C	1.288929	-0.027617	1.026435
C151	C	0.788913	-0.473012	0.526406
C152	C	1.288913	0.026988	1.026406
C153	C	0.722072	-0.473141	0.402910
C154	C	1.222072	0.026859	0.902910
C155	C	0.722090	-0.527742	0.402935
C156	C	1.222090	-0.027742	0.902935
C157	C	0.755520	-0.554979	0.464706
C158	C	1.255520	-0.054979	0.964706
O159	O	0.693725	-0.614177	0.350475
O160	O	1.193725	-0.114177	0.850475
O161	O	0.817369	-0.613987	0.578998
O162	O	1.317369	-0.113987	1.078998
C163	C	0.891917	-0.251820	0.464766
C164	C	1.391917	0.248180	0.964766
C165	C	0.950031	-0.251822	0.464782
C166	C	1.450031	0.248178	0.964782
C167	C	0.755581	-0.251770	0.716320
C168	C	1.255581	0.248230	1.216320
C169	C	0.755597	-0.251750	0.823534
C170	C	1.255597	0.248250	1.323534
C171	C	0.755632	-0.115443	0.464824
C172	C	1.255632	0.384557	0.964824
C173	C	0.755670	-0.057329	0.464865
C174	C	1.255670	0.442671	0.964865
C175	C	0.755537	-0.251824	0.214112
C176	C	1.255537	0.248176	0.714112
C177	C	0.755622	-0.251697	0.106899
C178	C	1.255622	0.248303	0.606899
C179	C	0.755611	-0.251715	1.019829
C180	C	1.255611	0.248285	1.519829
C181	C	0.755601	-0.251736	0.910597
C182	C	1.255601	0.248264	1.410597
H183	H	0.556580	-0.191232	0.576842
H184	H	1.056580	0.308768	1.076842
F185	F	0.824659	-1.058960	0.592333
F186	F	1.324659	-0.558960	1.092333
F187	F	0.450714	-0.182870	0.592304
F188	F	0.950714	0.317130	1.092304
H189	H	0.305441	-0.157828	0.638678
H190	H	0.805441	0.342172	1.138678
H191	H	0.849614	-0.701851	0.638529
H192	H	1.349614	-0.201851	1.138529
F193	F	0.858000	-0.807708	0.654013
F194	F	1.358000	-0.307708	1.154013
H195	H	0.054094	-0.312412	0.352623
H196	H	0.554094	0.187588	0.852623
H197	H	-0.044955	-0.312420	0.352654
H198	H	0.455045	0.187580	0.852654
F199	F	0.199358	-0.354141	0.275302
F200	F	0.699358	0.145859	0.775302
H201	H	0.206395	-0.157825	0.638685
H202	H	0.706395	0.342175	1.138685
H203	H	0.054234	-0.191225	0.576911
H204	H	0.554234	0.308775	1.076911
H205	H	-0.044832	-0.191230	0.576918
H206	H	0.455168	0.308770	1.076918
H207	H	0.457382	-0.312418	0.352577
H208	H	0.957382	0.187582	0.852577
H209	H	0.695041	-1.052358	0.352822
H210	H	1.195041	-0.552358	0.852822
F211	F	0.312059	-0.354142	0.275302
F212	F	0.812059	0.145858	0.775302
H213	H	0.556450	-0.312413	0.352564
H214	H	1.056450	0.187587	0.852564
F215	F	0.824480	-0.443895	0.592117
F216	F	1.324480	0.056105	1.092117
H217	H	0.816147	-0.549787	0.576742
H218	H	1.316147	-0.049787	1.076742
F219	F	0.653169	-0.808074	0.275587
F220	F	1.153169	-0.308074	0.775587
H221	H	0.816275	-0.953083	0.576865
H222	H	1.316275	-0.453083	1.076865
F223	F	0.686643	-0.946498	0.337361
F224	F	1.186643	-0.446498	0.837361
F225	F	0.653137	-0.695373	0.275560
F226	F	1.153137	-0.195373	0.775560
F227	F	0.686533	-0.556863	0.337215
F228	F	1.186533	-0.056863	0.837215
H229	H	0.694858	-0.450955	0.352627
H230	H	1.194858	0.049045	0.852627
