data_functionalizedCrystal
_audit_creation_method	'MofGen! by Chris Wilmer'
_symmetry_space_group_name_H-M	'P1'
_symmetry_Int_Tables_number	1
_symmetry_cell_setting	triclinic
loop_
_symmetry_equiv_pos_as_xyz
  x,y,z
_cell_length_a	10.723024
_cell_length_b	15.500227
_cell_length_c	10.723024
_cell_angle_alpha	87.143660
_cell_angle_beta	84.467869
_cell_angle_gamma	92.871156
loop_
_atom_site_label
_atom_site_type_symbol
_atom_site_fract_x
_atom_site_fract_y
_atom_site_fract_z
O1	O	1.662943	0.071936	0.169284
O2	O	2.162943	0.571936	0.669284
O3	O	1.299791	0.071939	0.186037
O4	O	1.799791	0.571939	0.686037
O5	O	1.489743	0.071934	-0.003915
O6	O	1.989743	0.571934	0.496085
O7	O	1.472991	0.071941	0.359237
O8	O	1.972991	0.571941	0.859237
O9	O	1.478216	-0.071954	0.007566
O10	O	1.978216	0.428046	0.507566
O11	O	1.288264	-0.071950	0.197519
O12	O	1.788264	0.428050	0.697519
O13	O	1.651416	-0.071952	0.180765
O14	O	2.151416	0.428048	0.680765
Cu15	Cu	1.468787	-0.085089	0.190190
Cu16	Cu	1.968787	0.414911	0.690190
Cu17	Cu	1.482420	0.085076	0.176612
Cu18	Cu	1.982420	0.585076	0.676612
O19	O	1.461464	-0.071948	0.370718
O20	O	1.961464	0.428052	0.870718
C21	C	1.247528	-0.000005	0.190559
C22	C	1.747528	0.499995	0.690559
C23	C	1.108974	-0.000004	0.186911
C24	C	1.608974	0.499996	0.686911
N25	N	1.459208	-0.204774	0.199740
N26	N	1.959208	0.295226	0.699740
C27	C	1.033991	-0.000001	0.293198
C28	C	1.533991	0.499999	0.793198
C29	C	0.890788	-0.000000	0.289431
C30	C	1.390788	0.500000	0.789431
C31	C	1.539726	-0.250052	0.119280
C32	C	2.039726	0.249948	0.619280
C33	C	1.532493	-0.340625	0.126514
C34	C	2.032493	0.159375	0.626514
C35	C	1.444748	-0.385917	0.214214
C36	C	1.944748	0.114083	0.714214
C37	C	1.364221	-0.340632	0.294676
C38	C	1.864221	0.159368	0.794676
C39	C	1.371449	-0.250061	0.287436
C40	C	1.871449	0.249939	0.787436
C41	C	1.418710	-0.659384	0.240276
C42	C	1.918710	-0.159384	0.740276
C43	C	1.411491	-0.749961	0.247513
C44	C	1.911491	-0.249961	0.747513
C45	C	1.579762	-0.749947	0.079348
C46	C	2.079762	-0.249947	0.579348
C47	C	1.586987	-0.659375	0.072120
C48	C	2.086987	-0.159375	0.572120
C49	C	1.506456	-0.614098	0.152578
C50	C	2.006456	-0.114098	0.652578
C51	C	1.437355	-0.478497	0.221612
C52	C	1.937355	0.021503	0.721612
C53	C	1.513844	-0.521519	0.145173
C54	C	2.013844	-0.021519	0.645173
C55	C	1.703679	-0.000006	0.176244
C56	C	2.203679	0.499994	0.676244
C57	C	1.842234	-0.000002	0.179891
C58	C	2.342234	0.499998	0.679891
C59	C	1.482761	-0.000009	-0.044674
C60	C	1.982761	0.499991	0.455326
C61	C	1.479113	-0.000006	-0.183229
C62	C	1.979113	0.499994	0.316771
N63	N	1.492008	0.204760	0.167053
N64	N	1.992008	0.704760	0.667053
C65	C	1.585401	-0.000005	-0.258211
C66	C	2.085401	0.499995	0.241789
C67	C	1.581634	-0.000002	-0.401415
C68	C	2.081634	0.499998	0.098585
C69	C	1.468446	-0.000003	0.411477
C70	C	1.968446	0.499997	0.911477
C71	C	1.472094	0.000000	0.550031
C72	C	1.972094	0.500000	1.050031
H73	H	1.075813	-0.000005	0.386985
H74	H	1.575813	0.499995	0.886985
H75	H	0.826356	0.000005	0.380421
H76	H	1.326356	0.500005	0.880421
H77	H	0.906659	0.000002	0.088895
H78	H	1.406659	0.500002	0.588895
H79	H	1.381098	-0.000006	-0.385543
H80	H	1.881098	0.499994	0.114457
H81	H	1.611183	-0.213181	0.047871
H82	H	2.111183	0.286819	0.547871
H83	H	1.385328	0.000001	-0.225051
H84	H	1.885328	0.500001	0.274949
H85	H	1.585282	-0.484640	0.073763
H86	H	2.085282	0.015360	0.573763
H87	H	1.067153	0.000017	0.093123
H88	H	1.567153	0.500017	0.593123
H89	H	1.305881	-0.213196	0.352953
H90	H	1.805881	0.286804	0.852953
F91	F	1.707991	-0.000001	-0.203554
F92	F	2.207991	0.499999	0.296446
H93	H	1.598056	-0.377490	0.060997
H94	H	2.098056	0.122510	0.560997
F95	F	1.343972	-0.526706	0.314950
F96	F	1.843972	-0.026706	0.814950
F97	F	1.700569	-0.000008	-0.485629
F98	F	2.200569	0.499992	0.014371
F99	F	1.680377	-0.611172	-0.021218
F100	F	2.180377	-0.111172	0.478782
H101	H	1.645325	-0.786820	0.013841
H102	H	2.145325	-0.286820	0.513841
H103	H	1.340034	-0.786834	0.318934
H104	H	1.840034	-0.286834	0.818934
F105	F	1.333007	-0.611203	0.325908
F106	F	1.833007	-0.111203	0.825908
H107	H	1.292770	-0.377515	0.366079
H108	H	1.792770	0.122485	0.866079
