data_functionalizedCrystal
_audit_creation_method	'MofGen! by Chris Wilmer'
_symmetry_space_group_name_H-M	'P1'
_symmetry_Int_Tables_number	1
_symmetry_cell_setting	triclinic
loop_
_symmetry_equiv_pos_as_xyz
  x,y,z
_cell_length_a	18.215407
_cell_length_b	12.594516
_cell_length_c	18.215399
_cell_angle_alpha	90.022106
_cell_angle_beta	90.019833
_cell_angle_gamma	90.016501
loop_
_atom_site_label
_atom_site_type_symbol
_atom_site_fract_x
_atom_site_fract_y
_atom_site_fract_z
Zn1	Zn	1.125117	-0.423740	0.416146
Zn2	Zn	1.375117	-0.173740	0.666146
Zn3	Zn	1.625117	0.076260	0.916146
Zn4	Zn	1.875117	0.326260	1.166146
Zn5	Zn	1.125045	-0.601738	0.293092
Zn6	Zn	1.375045	-0.351738	0.543092
Zn7	Zn	1.625045	-0.101738	0.793092
Zn8	Zn	1.875045	0.148262	1.043092
Zn9	Zn	1.002050	-0.423775	0.293093
Zn10	Zn	1.252050	-0.173775	0.543093
Zn11	Zn	1.502050	0.076225	0.793093
Zn12	Zn	1.752050	0.326225	1.043093
Zn13	Zn	1.002035	-0.601679	0.416117
Zn14	Zn	1.252035	-0.351679	0.666117
Zn15	Zn	1.502035	-0.101679	0.916117
Zn16	Zn	1.752035	0.148321	1.166117
O17	O	1.063561	-0.512733	0.354612
O18	O	1.313561	-0.262733	0.604612
O19	O	1.563561	-0.012733	0.854612
O20	O	1.813561	0.237267	1.104612
O21	O	1.228092	-0.447362	0.399834
O22	O	1.478092	-0.197362	0.649834
O23	O	1.728092	0.052638	0.899834
O24	O	1.978092	0.302638	1.149834
O25	O	1.108705	-0.578170	0.190108
O26	O	1.358705	-0.328170	0.440108
O27	O	1.608705	-0.078170	0.690108
O28	O	1.858705	0.171830	0.940108
O29	O	1.018412	-0.274825	0.309429
O30	O	1.268412	-0.024825	0.559429
O31	O	1.518412	0.225175	0.809429
O32	O	1.768412	0.475175	1.059429
O33	O	1.228038	-0.578136	0.309427
O34	O	1.478038	-0.328136	0.559427
O35	O	1.728038	-0.078136	0.809427
O36	O	1.978038	0.171864	1.059427
O37	O	1.108829	-0.274799	0.399835
O38	O	1.358829	-0.024799	0.649835
O39	O	1.608829	0.225201	0.899835
O40	O	1.858829	0.475201	1.149835
O41	O	1.018341	-0.447422	0.190109
O42	O	1.268341	-0.197422	0.440109
O43	O	1.518341	0.052578	0.690109
O44	O	1.768341	0.302578	0.940109
O45	O	0.899063	-0.447364	0.309401
O46	O	1.149063	-0.197364	0.559401
O47	O	1.399063	0.052636	0.809401
O48	O	1.649063	0.302636	1.059401
O49	O	1.018386	-0.578035	0.519105
O50	O	1.268386	-0.328035	0.769105
O51	O	1.518386	-0.078035	1.019105
O52	O	1.768386	0.171965	1.269105
O53	O	0.899052	-0.578069	0.399786
O54	O	1.149052	-0.328069	0.649786
O55	O	1.399052	-0.078069	0.899786
O56	O	1.649052	0.171931	1.149786
O57	O	1.108814	-0.447305	0.519126
O58	O	1.358814	-0.197305	0.769126
O59	O	1.608814	0.052695	1.019126
O60	O	1.858814	0.302695	1.269126
O61	O	1.108690	-0.750676	0.309399
O62	O	1.358690	-0.500676	0.559399
O63	O	1.608690	-0.250676	0.809399
O64	O	1.858690	-0.000676	1.059399
O65	O	1.018315	-0.750632	0.399785
O66	O	1.268315	-0.500632	0.649785
O67	O	1.518315	-0.250632	0.899785
O68	O	1.768315	-0.000632	1.149785
C69	C	0.872355	-0.512715	0.354591
C70	C	1.122355	-0.262715	0.604591
C71	C	1.372355	-0.012715	0.854591
C72	C	1.622355	0.237285	1.104591
C73	C	0.790556	-0.512733	0.354599
C74	C	1.040556	-0.262733	0.604599
C75	C	1.290556	-0.012733	0.854599
C76	C	1.540556	0.237267	1.104599
C77	C	1.063513	-0.789274	0.354605
C78	C	1.313513	-0.539274	0.604605
C79	C	1.563513	-0.289274	0.854605
C80	C	1.813513	-0.039274	1.104605
C81	C	1.063560	-0.907579	0.354626
C82	C	1.313560	-0.657579	0.604626
C83	C	1.563560	-0.407579	0.854626
C84	C	1.813560	-0.157579	1.104626
C85	C	0.602376	-0.580898	0.401604
C86	C	0.852376	-0.330898	0.651604
C87	C	1.102376	-0.080898	0.901604
C88	C	1.352376	0.169102	1.151604
C89	C	0.525517	-0.580901	0.401613
C90	C	0.775517	-0.330901	0.651613
C91	C	1.025517	-0.080901	0.901613
C92	C	1.275517	0.169099	1.151613
C93	C	0.525499	-0.444588	0.307636
C94	C	0.775499	-0.194588	0.557636
C95	C	1.025499	0.055412	0.807636
C96	C	1.275499	0.305412	1.057636
C97	C	0.602356	-0.444580	0.307631
C98	C	0.852356	-0.194580	0.557631
C99	C	1.102356	0.055420	0.807631
C100	C	1.352356	0.305420	1.057631
C101	C	0.640793	-0.512741	0.354614
C102	C	0.890793	-0.262741	0.604614
C103	C	1.140793	-0.012741	0.854614
C104	C	1.390793	0.237259	1.104614
C105	C	0.487077	-0.512752	0.354628
C106	C	0.737077	-0.262752	0.604628
C107	C	0.987077	-0.012752	0.854628
C108	C	1.237077	0.237248	1.104628
C109	C	0.403743	-0.512755	0.354638
C110	C	0.653743	-0.262755	0.604638
C111	C	0.903743	-0.012755	0.854638
C112	C	1.153743	0.237245	1.104638
C113	C	0.724132	-0.512737	0.354606
C114	C	0.974132	-0.262737	0.604606
C115	C	1.224132	-0.012737	0.854606
C116	C	1.474132	0.237263	1.104606
C117	C	1.014400	-0.976847	0.403753
C118	C	1.264400	-0.726847	0.653753
C119	C	1.514400	-0.476847	0.903753
C120	C	1.764400	-0.226847	1.153753
C121	C	0.996471	-1.047706	0.336600
C122	C	1.246471	-0.797706	0.586600
C123	C	1.496471	-0.547706	0.836600
C124	C	1.746471	-0.297706	1.086600
C125	C	1.081556	-1.047520	0.421791
C126	C	1.331556	-0.797520	0.671791
C127	C	1.581556	-0.547520	0.921791
C128	C	1.831556	-0.297520	1.171791
C129	C	1.045595	-0.976880	0.287438
C130	C	1.295595	-0.726880	0.537438
C131	C	1.545595	-0.476880	0.787438
C132	C	1.795595	-0.226880	1.037438
C133	C	1.130712	-0.976687	0.372674
C134	C	1.380712	-0.726687	0.622674
C135	C	1.630712	-0.476687	0.872674
C136	C	1.880712	-0.226687	1.122674
C137	C	1.112808	-1.047514	0.305475
C138	C	1.362808	-0.797514	0.555475
C139	C	1.612808	-0.547514	0.805475
C140	C	1.862808	-0.297514	1.055475
C141	C	1.255514	-0.512752	0.354634
C142	C	1.505514	-0.262752	0.604634
C143	C	1.755514	-0.012752	0.854634
C144	C	2.005514	0.237248	1.104634
C145	C	1.337313	-0.512760	0.354643
C146	C	1.587313	-0.262760	0.604643
C147	C	1.837313	-0.012760	0.854643
C148	C	2.087313	0.237240	1.104643
C149	C	1.063606	-0.512660	0.546565
C150	C	1.313606	-0.262660	0.796565
C151	C	1.563606	-0.012660	1.046565
C152	C	1.813606	0.237340	1.296565
C153	C	1.063625	-0.512628	0.628364
C154	C	1.313625	-0.262628	0.878364
C155	C	1.563625	-0.012628	1.128364
C156	C	1.813625	0.237372	1.378364
C157	C	1.063630	-0.235112	0.354635
C158	C	1.313630	0.014888	0.604635
C159	C	1.563630	0.264888	0.854635
C160	C	1.813630	0.514888	1.104635
C161	C	1.063659	-0.116807	0.354645
C162	C	1.313659	0.133193	0.604645
C163	C	1.563659	0.383193	0.854645
C164	C	1.813659	0.633193	1.104645
C165	C	1.063559	-0.512729	0.163406
C166	C	1.313559	-0.262729	0.413406
C167	C	1.563559	-0.012729	0.663406
C168	C	1.813559	0.237271	0.913406
C169	C	1.063683	-0.512461	0.081607
C170	C	1.313683	-0.262461	0.331607
C171	C	1.563683	-0.012461	0.581607
C172	C	1.813683	0.237539	0.831607
C173	C	1.110728	-0.444493	0.816570
C174	C	1.360728	-0.194493	1.066570
C175	C	1.610728	0.055507	1.316570
C176	C	1.860728	0.305507	1.566570
C177	C	1.110737	-0.444462	0.893429
C178	C	1.360737	-0.194462	1.143429
C179	C	1.610737	0.055538	1.393429
C180	C	1.860737	0.305538	1.643429
C181	C	1.016575	-0.580599	0.893396
C182	C	1.266575	-0.330599	1.143396
C183	C	1.516575	-0.080599	1.393396
C184	C	1.766575	0.169401	1.643396
C185	C	1.016563	-0.580624	0.816538
C186	C	1.266563	-0.330624	1.066538
C187	C	1.516563	-0.080624	1.316538
C188	C	1.766563	0.169376	1.566538
C189	C	1.063644	-0.512572	0.778127
C190	C	1.313644	-0.262572	1.028127
C191	C	1.563644	-0.012572	1.278127
C192	C	1.813644	0.237428	1.528127
C193	C	1.063664	-0.512517	0.931844
C194	C	1.313664	-0.262517	1.181844
C195	C	1.563664	-0.012517	1.431844
C196	C	1.813664	0.237483	1.681844
C197	C	1.063674	-0.512483	1.015177
C198	C	1.313674	-0.262483	1.265177
C199	C	1.563674	-0.012483	1.515177
C200	C	1.813674	0.237517	1.765177
C201	C	1.063634	-0.512604	0.694788
C202	C	1.313634	-0.262604	0.944788
C203	C	1.563634	-0.012604	1.194788
C204	C	1.813634	0.237396	1.444788
H205	H	0.494241	-0.636400	0.439878
H206	H	0.744241	-0.386400	0.689878
H207	H	0.994241	-0.136400	0.939878
H208	H	1.244241	0.113600	1.189878
N209	N	0.643830	-0.654411	0.452278
N210	N	0.893830	-0.404411	0.702278
N211	N	1.143830	-0.154411	0.952278
N212	N	1.393830	0.095589	1.202278
H213	H	0.630480	-0.637975	0.504879
H214	H	0.880480	-0.387975	0.754879
H215	H	1.130480	-0.137975	1.004879
H216	H	1.380480	0.112025	1.254879
H217	H	0.698336	-0.644036	0.445082
H218	H	0.948336	-0.394036	0.695082
H219	H	1.198336	-0.144036	0.945082
H220	H	1.448336	0.105964	1.195082
H221	H	0.494195	-0.389095	0.269384
H222	H	0.744195	-0.139095	0.519384
H223	H	0.994195	0.110905	0.769384
H224	H	1.244195	0.360905	1.019384
H225	H	0.633636	-0.389071	0.269367
H226	H	0.883636	-0.139071	0.519367
H227	H	1.133636	0.110929	0.769367
H228	H	1.383636	0.360929	1.019367
H229	H	1.149077	-0.389024	0.924726
H230	H	1.399077	-0.139024	1.174726
H231	H	1.649077	0.110976	1.424726
H232	H	1.899077	0.360976	1.674726
H233	H	1.187442	-0.945472	0.387956
H234	H	1.437442	-0.695472	0.637956
H235	H	1.687442	-0.445472	0.887956
H236	H	1.937442	-0.195472	1.137956
N237	N	0.965799	-0.654008	0.934815
N238	N	1.215799	-0.404008	1.184815
N239	N	1.465799	-0.154008	1.434815
N240	N	1.715799	0.095992	1.684815
H241	H	0.913220	-0.637474	0.921427
H242	H	1.163220	-0.387474	1.171427
H243	H	1.413220	-0.137474	1.421427
H244	H	1.663220	0.112526	1.671427
H245	H	0.973007	-0.643642	0.989326
H246	H	1.223007	-0.393642	1.239326
H247	H	1.473007	-0.143642	1.489326
H248	H	1.723007	0.106358	1.739326
H249	H	0.972753	-0.945818	0.445237
H250	H	1.222753	-0.695818	0.695237
H251	H	1.472753	-0.445818	0.945237
H252	H	1.722753	-0.195818	1.195237
N253	N	1.167928	-1.088365	0.250392
N254	N	1.417928	-0.838365	0.500392
N255	N	1.667928	-0.588365	0.750392
N256	N	1.917928	-0.338365	1.000392
H257	H	1.167969	-1.168553	0.251000
H258	H	1.417969	-0.918553	0.501000
H259	H	1.667969	-0.668553	0.751000
H260	H	1.917969	-0.418553	1.001000
H261	H	1.218437	-1.061311	0.263593
H262	H	1.468437	-0.811311	0.513593
H263	H	1.718437	-0.561311	0.763593
H264	H	1.968437	-0.311311	1.013593
N265	N	1.161508	-0.371098	0.775144
N266	N	1.411508	-0.121098	1.025144
N267	N	1.661508	0.128902	1.275144
N268	N	1.911508	0.378902	1.525144
H269	H	1.195600	-0.414373	0.743264
H270	H	1.445600	-0.164373	0.993264
H271	H	1.695600	0.085627	1.243264
H272	H	1.945600	0.335627	1.493264
H273	H	1.191287	-0.327987	0.811213
H274	H	1.441287	-0.077987	1.061213
H275	H	1.691287	0.172013	1.311213
H276	H	1.941287	0.422013	1.561213
N277	N	0.921307	-1.089018	0.316373
N278	N	1.171307	-0.839018	0.566373
N279	N	1.421307	-0.589018	0.816373
N280	N	1.671307	-0.339018	1.066373
H281	H	0.884168	-1.063317	0.353501
H282	H	1.134168	-0.813317	0.603501
H283	H	1.384168	-0.563317	0.853501
H284	H	1.634168	-0.313317	1.103501
H285	H	0.922084	-1.169199	0.316047
H286	H	1.172084	-0.919199	0.566047
H287	H	1.422084	-0.669199	0.816047
H288	H	1.672084	-0.419199	1.066047
H289	H	0.978215	-0.636061	0.785237
H290	H	1.228215	-0.386061	1.035237
H291	H	1.478215	-0.136061	1.285237
H292	H	1.728215	0.113939	1.535237
H293	H	1.096738	-1.078549	0.478583
H294	H	1.346738	-0.828549	0.728583
H295	H	1.596738	-0.578549	0.978583
H296	H	1.846738	-0.328549	1.228583
N297	N	1.025402	-0.935961	0.212186
N298	N	1.275402	-0.685961	0.462186
N299	N	1.525402	-0.435961	0.712186
N300	N	1.775402	-0.185961	0.962186
H301	H	1.025467	-0.855770	0.212648
H302	H	1.275467	-0.605770	0.462648
H303	H	1.525467	-0.355770	0.712648
H304	H	1.775467	-0.105770	0.962648
H305	H	0.974892	-0.962500	0.198494
H306	H	1.224892	-0.712500	0.448494
H307	H	1.474892	-0.462500	0.698494
H308	H	1.724892	-0.212500	0.948494
