data_functionalizedCrystal
_audit_creation_method	'MofGen! by Chris Wilmer'
_symmetry_space_group_name_H-M	'P1'
_symmetry_Int_Tables_number	1
_symmetry_cell_setting	triclinic
loop_
_symmetry_equiv_pos_as_xyz
  x,y,z
_cell_length_a	16.959455
_cell_length_b	16.625545
_cell_length_c	16.959447
_cell_angle_alpha	89.970073
_cell_angle_beta	89.979626
_cell_angle_gamma	90.022578
loop_
_atom_site_label
_atom_site_type_symbol
_atom_site_fract_x
_atom_site_fract_y
_atom_site_fract_z
Zn1	Zn	1.208354	-0.321050	-0.447038
Zn2	Zn	1.208264	-0.455897	-0.314861
Zn3	Zn	1.076182	-0.321075	-0.314862
Zn4	Zn	1.076134	-0.455837	-0.446985
O5	O	1.142233	-0.388465	-0.380937
O6	O	1.318953	-0.338952	-0.429527
O7	O	1.190725	-0.438049	-0.204250
O8	O	1.093773	-0.208239	-0.332418
O9	O	1.318886	-0.438024	-0.332416
O10	O	1.190879	-0.208221	-0.429528
O11	O	1.093685	-0.338995	-0.204251
O12	O	0.965565	-0.338937	-0.332367
O13	O	1.093691	-0.437921	-0.557603
O14	O	0.965530	-0.437946	-0.429437
O15	O	1.190832	-0.338894	-0.557642
O16	O	1.190679	-0.568722	-0.332365
O17	O	1.093604	-0.568677	-0.429436
C18	C	1.142148	-0.597956	-0.380912
C19	C	1.142183	-0.687577	-0.380928
C20	C	0.936867	-0.388439	-0.380897
C21	C	0.849011	-0.388447	-0.380899
C22	C	0.477490	-0.440000	-0.330346
C23	C	0.477580	-0.336996	-0.431624
C24	C	0.560126	-0.336983	-0.431605
C25	C	0.601358	-0.388480	-0.380956
C26	C	0.560043	-0.439990	-0.330326
C27	C	0.601446	-0.285479	-0.482239
C28	C	0.683997	-0.285464	-0.482223
C29	C	0.725230	-0.336958	-0.431569
C30	C	0.683911	-0.388470	-0.380937
C31	C	0.725143	-0.439967	-0.330288
C32	C	0.683825	-0.491476	-0.279651
C33	C	0.601276	-0.491484	-0.279673
C34	C	0.807779	-0.336950	-0.431547
C35	C	0.807696	-0.439957	-0.330269
C36	C	1.142214	-0.760359	-0.380943
C37	C	1.142260	-0.851668	-0.380961
C38	C	1.142301	-0.924444	-0.380971
C39	C	1.142346	-1.015758	-0.380987
C40	C	1.348402	-0.388492	-0.380977
C41	C	1.436258	-0.388503	-0.380994
C42	C	1.142266	-0.388398	-0.587105
C43	C	1.142280	-0.388370	-0.674962
C44	C	1.142341	-0.178156	-0.380979
C45	C	1.142387	-0.088535	-0.380997
C46	C	1.091798	-0.439844	-1.046420
C47	C	1.192952	-0.336726	-1.046455
C48	C	1.192931	-0.336743	-0.963909
C49	C	1.142343	-0.388312	-0.922615
C50	C	1.091777	-0.439864	-0.963866
C51	C	1.243502	-0.285197	-0.922652
C52	C	1.243483	-0.285213	-0.840101
C53	C	1.192891	-0.336779	-0.798805
C54	C	1.142322	-0.388332	-0.840061
C55	C	1.091735	-0.439902	-0.798767
C56	C	1.041161	-0.491452	-0.840021
C57	C	1.041185	-0.491430	-0.922570
C58	C	1.192868	-0.336800	-0.716256
C59	C	1.091714	-0.439922	-0.716213
C60	C	1.142246	-0.388473	-0.175570
C61	C	1.142385	-0.388274	-0.087714
H62	H	0.717406	-0.533409	-0.238417
O63	O	0.556715	-0.547039	-0.225063
H64	H	0.492388	-0.538399	-0.233593
H65	H	1.234142	-0.294745	-1.080082
O66	O	0.432935	-0.495554	-0.275730
H67	H	0.368605	-0.486915	-0.284250
O68	O	0.986596	-0.547071	-0.795481
H69	H	0.995080	-0.538418	-0.731150
H70	H	0.841261	-0.481890	-0.289021
O71	O	0.433115	-0.281449	-0.486246
H72	H	0.368772	-0.290105	-0.477749
O73	O	1.037145	-0.495543	-0.671680
H74	H	1.045621	-0.486896	-0.607347
H75	H	1.284692	-0.243217	-0.956280
O76	O	0.556980	-0.229931	-0.536859
H77	H	0.492637	-0.238583	-0.528354
H78	H	0.717631	-0.243523	-0.523454
H79	H	1.000013	-0.533402	-0.956167
O80	O	1.298024	-0.229613	-0.795605
H81	H	1.333200	-0.193749	-0.838189
O82	O	0.852346	-0.281399	-0.486151
H83	H	0.809807	-0.245590	-0.521372
O84	O	1.247407	-0.281208	-0.671757
H85	H	1.282586	-0.245344	-0.714340
H86	H	1.050620	-0.481812	-1.080013
