data_functionalizedCrystal
_audit_creation_method	'MofGen! by Chris Wilmer'
_symmetry_space_group_name_H-M	'P1'
_symmetry_Int_Tables_number	1
_symmetry_cell_setting	triclinic
loop_
_symmetry_equiv_pos_as_xyz
  x,y,z
_cell_length_a	13.635800
_cell_length_b	27.923497
_cell_length_c	11.102291
_cell_angle_alpha	84.480506
_cell_angle_beta	108.605752
_cell_angle_gamma	81.035752
loop_
_atom_site_label
_atom_site_type_symbol
_atom_site_fract_x
_atom_site_fract_y
_atom_site_fract_z
V1	V	2.031726	-0.067134	0.397096
O2	O	2.036439	0.003220	0.388676
O3	O	1.996485	-0.133109	0.395209
O4	O	2.020487	-0.066104	0.569906
O5	O	2.012271	-0.064249	0.212770
V6	V	2.273291	-0.058718	0.374949
O7	O	2.162786	-0.085593	0.445679
O8	O	2.367329	-0.040258	0.326366
O9	O	2.196928	0.007257	0.376836
O10	O	2.327276	-0.129072	0.383369
O11	O	2.351444	-0.061603	0.559275
O12	O	2.172926	-0.059748	0.202139
V13	V	2.531726	-0.067134	0.397096
O14	O	2.536439	0.003220	0.388676
O15	O	2.496485	-0.133109	0.395209
O16	O	2.520487	-0.066104	0.569906
O17	O	2.512271	-0.064249	0.212770
V18	V	2.773291	-0.058718	0.374949
O19	O	2.662786	-0.085593	0.445679
O20	O	2.867329	-0.040258	0.326366
O21	O	2.696928	0.007257	0.376836
O22	O	2.827276	-0.129072	0.383369
O23	O	2.851444	-0.061603	0.559275
O24	O	2.672926	-0.059748	0.202139
C25	C	1.915881	-0.149192	0.389158
C26	C	1.927797	-0.203127	0.388767
C27	C	1.974159	-0.530648	0.269731
C28	C	2.018975	-0.733355	0.268192
O29	O	2.001337	-0.753674	0.168942
N30	N	2.052180	-0.765631	0.384474
C31	C	2.074188	-0.747228	0.501149
O32	O	2.103469	-0.779332	0.600020
C33	C	2.029379	-0.544521	0.502688
C34	C	1.996163	-0.512247	0.386397
C35	C	1.940947	-0.498375	0.153450
C36	C	1.929738	-0.447701	0.153836
C37	C	1.951742	-0.429300	0.270502
C38	C	1.984955	-0.461574	0.386783
C39	C	2.051395	-0.526119	0.619363
C40	C	2.040192	-0.475438	0.619737
C41	C	2.006976	-0.443165	0.503447
C42	C	1.995751	-0.392499	0.503835
N43	N	1.962546	-0.360223	0.387553
C44	C	1.940542	-0.378624	0.270886
C45	C	2.097709	-0.853651	0.500333
C46	C	2.108910	-0.904327	0.499949
C47	C	2.053698	-0.890451	0.266991
C48	C	2.042490	-0.839774	0.267376
C49	C	2.064505	-0.821375	0.384051
C50	C	1.917004	-0.272206	0.271705
C51	C	1.905793	-0.221528	0.272101
C52	C	1.961011	-0.235408	0.505058
C53	C	1.972217	-0.286081	0.504663
C54	C	1.950214	-0.304478	0.387976
O55	O	2.013381	-0.372146	0.603034
O56	O	1.911285	-0.346513	0.172032
C57	C	1.985368	-0.581322	0.269345
C58	C	2.018580	-0.613595	0.385626
C59	C	2.040584	-0.595195	0.502293
C60	C	2.029781	-0.664271	0.385242
C61	C	2.007777	-0.682672	0.268575
C62	C	1.974572	-0.650396	0.152293
C63	C	1.963364	-0.599722	0.152679
C64	C	2.073789	-0.627470	0.618575
C65	C	2.084994	-0.678144	0.618179
C66	C	2.062990	-0.696544	0.501513
C67	C	1.946496	-0.063720	0.612000
C68	C	1.977876	-0.063314	0.753278
C69	C	2.109203	0.023337	0.382883
C70	C	2.086906	0.077272	0.383283
C71	C	2.078587	-0.062134	0.160038
C72	C	2.036827	-0.062537	0.018759
C73	C	2.415881	-0.149192	0.389158
C74	C	2.427797	-0.203127	0.388767
C75	C	2.446496	-0.063720	0.612000
C76	C	2.477876	-0.063314	0.753278
C77	C	2.083755	-0.065543	0.826153
C78	C	2.113231	-0.065153	0.958895
C79	C	1.930938	-0.060306	0.945873
C80	C	1.901463	-0.060693	0.813133
C81	C	2.189001	-0.068344	0.833673
C82	C	2.218477	-0.067954	0.966415
C83	C	2.609203	0.023337	0.382883
C84	C	2.586906	0.077272	0.383283
C85	C	2.578587	-0.062134	0.160038
C86	C	2.536827	-0.062537	0.018759
C87	C	2.524525	-0.230930	0.394964
C88	C	2.535741	-0.281609	0.394616
C89	C	2.450225	-0.304485	0.388062
C90	C	2.353491	-0.276679	0.381868
C91	C	2.342279	-0.226001	0.382225
C92	C	2.662672	0.105075	0.377089
C93	C	2.641729	0.155754	0.377443
C94	C	2.545021	0.178629	0.384000
C95	C	2.469248	0.150823	0.390191
C96	C	2.490189	0.100146	0.389827
C97	C	2.583755	-0.065543	0.826153
C98	C	2.613231	-0.065153	0.958895
C99	C	2.430938	-0.060306	0.945873
C100	C	2.401463	-0.060693	0.813133
C101	C	2.689001	-0.068344	0.833673
C102	C	2.718477	-0.067954	0.966415
H103	H	1.878741	-0.195252	0.177399
H104	H	2.594165	-0.212311	0.400293
C105	C	2.462567	-0.360231	0.387658
C106	C	2.444923	-0.393356	0.494902
C107	C	2.457271	-0.449102	0.494493
C108	C	2.487264	-0.471723	0.386840
C109	C	2.504910	-0.438598	0.279588
C110	C	2.492562	-0.382852	0.279997
H111	H	2.422719	-0.376611	0.574601
H112	H	2.444208	-0.473623	0.573889
H113	H	2.496405	-0.512989	0.386538
H114	H	2.527114	-0.455343	0.199889
H115	H	2.505625	-0.358331	0.200601
C116	C	1.950371	-0.670643	0.023958
C117	C	1.839256	-0.655613	-0.078162
C118	C	1.815064	-0.675863	-0.206490
C119	C	1.901988	-0.711143	-0.232696
C120	C	2.013112	-0.726176	-0.130573
C121	C	2.037303	-0.705926	-0.002246
H122	H	1.774903	-0.629494	-0.058765
H123	H	1.732803	-0.664734	-0.282088
H124	H	1.884081	-0.726133	-0.327692
H125	H	2.077465	-0.752294	-0.149971
H126	H	2.119564	-0.717054	0.073352
C127	C	2.064405	-0.455200	0.748085
C128	C	2.001921	-0.465545	0.838055
C129	C	2.026131	-0.445307	0.966400
C130	C	2.112824	-0.414725	1.004774
C131	C	2.175313	-0.404379	0.914802
C132	C	2.151104	-0.424617	0.786457
H133	H	1.937741	-0.488185	0.809650
H134	H	1.979872	-0.452966	1.033004
H135	H	2.130745	-0.399744	1.099783
H136	H	2.239493	-0.381739	0.943207
H137	H	2.197363	-0.416958	0.719854
C138	C	2.235932	-0.117221	0.801224
C139	C	2.309380	-0.117797	0.720709
C140	C	2.356309	-0.166675	0.688260
C141	C	2.329790	-0.214978	0.736326
C142	C	2.256338	-0.214404	0.816846
C143	C	2.209409	-0.165526	0.849295
H144	H	2.329015	-0.082039	0.685123
H145	H	2.410683	-0.167100	0.628653
H146	H	2.364530	-0.251160	0.712305
H147	H	2.236704	-0.250162	0.852431
H148	H	2.155035	-0.165101	0.908901
H149	H	2.710532	-0.035413	0.786167
H150	H	2.527983	0.219895	0.384295
H151	H	2.723741	-0.104526	0.809661
H152	H	2.741423	0.086457	0.371751
H153	H	2.614513	-0.304242	0.399656
C154	C	2.218078	-0.023857	0.769480
C155	C	2.271293	0.012400	0.851844
C156	C	2.300368	0.056886	0.787652
C157	C	2.276227	0.065114	0.641095
C158	C	2.223008	0.028855	0.558722
C159	C	2.193933	-0.015630	0.622915
H160	H	2.289167	0.006310	0.960342
H161	H	2.339764	0.083727	0.848630
H162	H	2.297749	0.098044	0.593575
H163	H	2.205135	0.034945	0.450224
H164	H	2.154537	-0.042471	0.561937
C165	C	2.725093	0.186332	0.370649
C166	C	2.834672	0.174792	0.476314
C167	C	2.918037	0.205367	0.469522
C168	C	2.891824	0.247483	0.357065
C169	C	2.782239	0.259025	0.251392
C170	C	2.698874	0.228450	0.258184
H171	H	2.854082	0.143613	0.559568
H172	H	2.999159	0.196823	0.547748
H173	H	2.953536	0.270117	0.352037
H174	H	2.762830	0.290204	0.168138
H175	H	2.617752	0.236994	0.179957
C176	C	2.759793	-0.021422	1.005167
C177	C	2.764827	0.018048	0.901614
C178	C	2.806140	0.064578	0.940370
C179	C	2.842419	0.071638	1.082678
C180	C	2.837385	0.032167	1.186240
C181	C	2.796072	-0.014364	1.147485
H182	H	2.737971	0.012823	0.796261
H183	H	2.809866	0.093798	0.863705
H184	H	2.873001	0.106083	1.111367
H185	H	2.864242	0.037392	1.291593
H186	H	2.792346	-0.043583	1.224149
C187	C	2.259789	-0.021421	1.005160
C188	C	2.187960	0.029496	0.950060
C189	C	2.229268	0.076029	0.988805
C190	C	2.342403	0.071644	1.082650
C191	C	2.414239	0.020725	1.137755
C192	C	2.372931	-0.025808	1.099010
H193	H	2.104204	0.032744	0.880586
H194	H	2.176090	0.113723	0.948012
H195	H	2.372982	0.106090	1.111331
H196	H	2.497995	0.017477	1.207230
H197	H	2.426109	-0.063502	1.139803
H198	H	2.390508	0.169456	0.395528
H199	H	2.277761	-0.103035	1.019699
C200	C	2.798558	-0.115345	1.038418
C201	C	2.909669	-0.112426	1.126906
C202	C	2.989742	-0.159816	1.198912
C203	C	2.958703	-0.210125	1.182430
C204	C	2.847586	-0.213046	1.093939
C205	C	2.767513	-0.165656	1.021933
H206	H	2.932651	-0.075183	1.139110
H207	H	3.071998	-0.157654	1.264419
H208	H	3.017978	-0.245206	1.235733
H209	H	2.824604	-0.250289	1.081734
H210	H	2.685257	-0.167818	0.956425
H211	H	1.899086	-0.287178	0.176688
H212	H	1.902698	-0.421427	0.059140
C213	C	1.916730	-0.518608	0.025102
C214	C	1.979204	-0.508261	-0.064878
C215	C	1.954973	-0.528489	-0.193237
C216	C	1.868267	-0.559064	-0.231616
C217	C	1.805787	-0.569412	-0.141635
C218	C	1.830018	-0.549185	-0.013276
H219	H	2.043394	-0.485626	-0.036469
H220	H	2.001226	-0.520828	-0.259847
H221	H	1.850330	-0.574037	-0.326636
H222	H	1.741597	-0.592047	-0.170044
H223	H	1.783766	-0.556846	0.053334
H224	H	2.015442	-0.813499	0.172682
H225	H	2.035778	-0.905441	0.171996
H226	H	2.428490	0.077512	0.394882
H227	H	2.315249	-0.058878	0.753802
H228	H	2.283869	-0.295312	0.376532
H229	H	2.135940	-0.930600	0.594643
H230	H	2.115636	-0.838676	0.595349
C231	C	2.087954	-0.561604	0.747301
C232	C	2.016480	-0.596006	0.773079
C233	C	2.053049	-0.631488	0.901033
C234	C	2.161093	-0.632568	1.003209
C235	C	2.232574	-0.598165	0.977434
C236	C	2.196004	-0.562683	0.849480
H237	H	1.936493	-0.595207	0.697439
H238	H	2.000134	-0.656955	0.920112
H239	H	2.188164	-0.658833	1.097928
H240	H	2.312561	-0.598963	1.053074
H241	H	2.248919	-0.537216	0.830401
H242	H	1.999247	-0.312360	0.599355
H243	H	1.978920	-0.220417	0.600045
H244	H	1.868730	-0.058171	0.994623
H245	H	2.263509	-0.203367	0.377172
H246	H	2.112035	-0.704418	0.712884
H247	H	1.936317	-0.573449	0.057983
H248	H	2.091709	-0.612495	0.713581
H249	H	2.368730	-0.058171	0.994623
H250	H	1.815249	-0.058878	0.753802
