data_functionalizedCrystal
_audit_creation_method	'MofGen! by Chris Wilmer'
_symmetry_space_group_name_H-M	'P1'
_symmetry_Int_Tables_number	1
_symmetry_cell_setting	triclinic
loop_
_symmetry_equiv_pos_as_xyz
  x,y,z
_cell_length_a	14.044220
_cell_length_b	14.044220
_cell_length_c	13.101039
_cell_angle_alpha	93.667477
_cell_angle_beta	86.340132
_cell_angle_gamma	93.188878
loop_
_atom_site_label
_atom_site_type_symbol
_atom_site_fract_x
_atom_site_fract_y
_atom_site_fract_z
O1	O	1.281968	0.225348	-0.085109
O2	O	1.781968	0.725348	0.414891
O3	O	1.005298	0.217041	-0.085135
O4	O	1.505298	0.717041	0.414865
O5	O	1.139480	0.082860	-0.085112
O6	O	1.639480	0.582860	0.414888
O7	O	1.147787	0.359530	-0.085132
O8	O	1.647787	0.859530	0.414868
O9	O	1.129854	0.092504	0.085316
O10	O	1.629854	0.592504	0.585316
O11	O	0.995673	0.226686	0.085293
O12	O	1.495673	0.726686	0.585293
O13	O	1.272343	0.234993	0.085319
O14	O	1.772343	0.734993	0.585319
Zn15	Zn	1.132479	0.232371	0.112365
Zn16	Zn	1.632479	0.732371	0.612365
Zn17	Zn	1.145162	0.219663	-0.112181
Zn18	Zn	1.645162	0.719663	0.387819
O19	O	1.138161	0.369175	0.085296
O20	O	1.638161	0.869175	0.585296
C21	C	0.964864	0.218228	0.000076
C22	C	1.464864	0.718228	0.500076
C23	C	0.858722	0.207383	0.000066
C24	C	1.358722	0.707383	0.500066
C25	C	0.664383	0.187558	0.000088
C26	C	1.164383	0.687558	0.500088
C27	C	0.613253	0.264472	0.000087
C28	C	1.113253	0.764472	0.500087
C29	C	0.505116	0.253441	0.000099
C30	C	1.005116	0.753441	0.500099
C31	C	0.772529	0.198587	0.000076
C32	C	1.272529	0.698587	0.500076
C33	C	1.131031	0.052060	0.000102
C34	C	1.631031	0.552060	0.500102
C35	C	1.120187	-0.054083	0.000102
C36	C	1.620187	0.445917	0.500102
C37	C	1.100362	-0.248421	0.000086
C38	C	1.600362	0.251579	0.500086
C39	C	1.177276	-0.299551	0.000090
C40	C	1.677276	0.200449	0.500090
C41	C	1.166245	-0.407688	0.000080
C42	C	1.666245	0.092312	0.500080
C43	C	1.111391	-0.140275	0.000095
C44	C	1.611391	0.359725	0.500095
C45	C	1.312777	0.233806	0.000106
C46	C	1.812777	0.733806	0.500106
C47	C	1.418920	0.244651	0.000109
C48	C	1.918920	0.744651	0.500109
C49	C	1.146610	0.399974	0.000080
C50	C	1.646610	0.899974	0.500080
C51	C	1.157455	0.506116	0.000073
C52	C	1.657455	1.006116	0.500073
N53	N	1.123831	0.241043	0.265612
N54	N	1.623831	0.741043	0.765612
N55	N	1.153817	0.210984	-0.265428
N56	N	1.653817	0.710984	0.234572
C57	C	1.112065	0.252851	0.474653
C58	C	1.612065	0.752851	0.974653
C59	C	1.165580	0.199179	0.525538
C60	C	1.665580	0.699179	1.025538
C61	C	1.159034	0.205749	0.641855
C62	C	1.659034	0.705749	1.141855
C63	C	1.118610	0.246282	0.358325
C64	C	1.618610	0.746282	0.858325
H65	H	0.626945	0.113431	0.000099
H66	H	1.126945	0.613431	0.500099
H67	H	0.650693	0.338605	0.000077
H68	H	1.150693	0.838605	0.500077
O69	O	1.265645	-0.254739	0.000153
O70	O	1.765645	0.245261	0.500153
C71	C	1.257134	-0.155182	0.000135
C72	C	1.757134	0.344818	0.500135
H73	H	1.182749	-0.136395	0.032388
H74	H	1.682749	0.363605	0.532388
H75	H	1.313087	-0.116967	0.049631
H76	H	1.813087	0.383033	0.549631
H77	H	1.268686	-0.131677	-0.081624
H78	H	1.768686	0.368323	0.418376
H79	H	1.026235	-0.285859	0.000076
H80	H	1.526235	0.214141	0.500076
O81	O	1.051465	0.313575	0.526730
O82	O	1.551465	0.813575	1.026730
C83	C	1.003008	0.362214	0.456517
C84	C	1.503008	0.862214	0.956517
H85	H	1.002785	0.318735	0.380003
H86	H	1.502785	0.818735	0.880003
H87	H	0.926297	0.372149	0.487621
H88	H	1.426297	0.872149	0.987621
H89	H	1.040756	0.435086	0.445150
H90	H	1.540756	0.935086	0.945150
H91	H	1.216314	0.148295	0.481744
H92	H	1.716314	0.648295	0.981744
