data_functionalizedCrystal
_audit_creation_method	'MofGen! by Chris Wilmer'
_symmetry_space_group_name_H-M	'P1'
_symmetry_Int_Tables_number	1
_symmetry_cell_setting	triclinic
loop_
_symmetry_equiv_pos_as_xyz
  x,y,z
_cell_length_a	11.792254
_cell_length_b	10.654550
_cell_length_c	9.130313
_cell_angle_alpha	90.004369
_cell_angle_beta	89.996532
_cell_angle_gamma	95.658236
loop_
_atom_site_label
_atom_site_type_symbol
_atom_site_fract_x
_atom_site_fract_y
_atom_site_fract_z
O1	O	1.507296	-0.172211	-0.121798
O2	O	1.176998	-0.189935	-0.121801
O3	O	1.349742	0.001688	-0.121790
O4	O	1.334553	-0.363833	-0.121809
O5	O	1.349730	0.001693	0.121809
O6	O	1.176986	-0.189929	0.121798
O7	O	1.507285	-0.172205	0.121801
Cu8	Cu	1.342134	-0.181067	0.144042
Cu9	Cu	1.342148	-0.181073	-0.144042
O10	O	1.334541	-0.363828	0.121790
C11	C	1.134699	-0.188815	-0.000002
C12	C	1.008678	-0.185474	-0.000003
C13	C	0.906335	-0.182758	-0.000009
C14	C	0.777941	-0.179363	-0.000010
C15	C	1.348620	0.048485	0.000009
C16	C	1.345284	0.187919	0.000006
C17	C	1.549584	-0.173325	-0.000001
C18	C	1.675605	-0.176666	-0.000010
C19	C	1.335662	-0.410625	-0.000012
C20	C	1.338999	-0.550059	-0.000019
N21	N	1.342133	-0.181061	0.346665
C22	C	1.446992	0.267687	0.000007
C23	C	1.443850	0.398699	-0.000011
C24	C	1.237283	0.370162	-0.000024
C25	C	1.240426	0.239153	-0.000016
N26	N	1.342159	-0.181069	-0.346664
C27	C	1.418649	-0.096247	0.423321
C28	C	1.418660	-0.096247	0.576658
C29	C	1.265634	-0.265887	0.576668
C30	C	1.265619	-0.265880	0.423334
H31	H	1.532374	0.225978	0.000022
H32	H	1.480966	-0.027182	0.639068
H33	H	1.203304	-0.334947	0.360916
H34	H	1.151911	0.411893	-0.000039
H35	H	1.203339	-0.334947	0.639108
H36	H	1.526672	0.463642	-0.000014
H37	H	1.157597	0.174202	-0.000021
H38	H	1.480950	-0.027181	0.360901
