data_functionalizedCrystal
_audit_creation_method	'MofGen! by Chris Wilmer'
_symmetry_space_group_name_H-M	'P1'
_symmetry_Int_Tables_number	1
_symmetry_cell_setting	triclinic
loop_
_symmetry_equiv_pos_as_xyz
  x,y,z
_cell_length_a	21.395364
_cell_length_b	14.908520
_cell_length_c	14.908854
_cell_angle_alpha	89.778335
_cell_angle_beta	93.278007
_cell_angle_gamma	93.316489
loop_
_atom_site_label
_atom_site_type_symbol
_atom_site_fract_x
_atom_site_fract_y
_atom_site_fract_z
Zn1	Zn	0.923492	-0.328708	-0.529058
Zn2	Zn	0.922721	-0.487761	-0.387371
Zn3	Zn	0.824391	-0.337410	-0.378715
Zn4	Zn	0.812322	-0.479016	-0.537679
O5	O	0.870731	-0.408224	-0.458206
O6	O	1.011066	-0.349825	-0.510278
O7	O	0.914406	-0.475118	-0.260400
O8	O	0.842911	-0.210429	-0.391428
O9	O	1.010500	-0.466680	-0.406181
O10	O	0.915719	-0.204036	-0.501884
O11	O	0.842164	-0.364656	-0.254040
O12	O	0.735114	-0.356176	-0.399787
O13	O	0.822340	-0.451776	-0.662358
O14	O	0.726246	-0.460213	-0.516577
O15	O	0.904016	-0.341345	-0.656025
O16	O	0.902703	-0.612428	-0.414540
O17	O	0.821593	-0.606003	-0.524970
C18	C	0.707946	-0.408191	-0.458179
C19	C	0.638304	-0.408197	-0.458190
C20	C	0.136791	-0.347507	-0.512523
C21	C	0.202226	-0.347500	-0.512523
C22	C	0.234662	-0.408250	-0.458228
C23	C	0.201656	-0.469027	-0.403946
C24	C	0.136221	-0.469038	-0.403955
C25	C	0.341068	-0.419909	-0.377595
C26	C	0.406502	-0.419892	-0.377584
C27	C	0.436485	-0.408222	-0.458201
C28	C	0.401027	-0.396550	-0.538830
C29	C	0.335592	-0.396560	-0.538839
C30	C	0.305615	-0.408245	-0.458212
C31	C	0.540436	-0.347446	-0.512483
C32	C	0.605873	-0.347445	-0.512484
C33	C	0.605302	-0.468968	-0.403900
C34	C	0.539866	-0.468973	-0.403907
C35	C	0.507437	-0.408207	-0.458197
C36	C	0.860771	-0.641840	-0.471650
C37	C	0.856566	-0.741780	-0.477431
C38	C	0.933203	-0.936202	-0.373397
C39	C	0.929254	-1.030105	-0.378826
C40	C	0.844723	-1.023490	-0.493723
C41	C	0.848672	-0.929587	-0.488294
C42	C	0.892913	-0.885946	-0.428128
C43	C	0.896858	-0.792042	-0.422694
C44	C	0.812330	-0.785429	-0.537595
C45	C	0.808381	-0.879332	-0.543024
C46	C	1.034152	-0.408258	-0.458234
C47	C	1.103792	-0.408272	-0.458245
C48	C	0.861918	-0.394614	-0.692728
C49	C	0.858162	-0.388815	-0.792668
C50	C	0.880747	-0.173694	-0.444729
C51	C	0.885015	-0.073752	-0.438986
C52	C	0.926345	-0.492939	-0.987089
C53	C	0.922818	-0.487492	-1.080991
C54	C	0.847584	-0.372472	-1.074376
C55	C	0.851111	-0.377918	-0.980474
C56	C	0.890492	-0.438154	-0.936834
C57	C	0.894015	-0.443605	-0.842930
C58	C	0.818786	-0.328580	-0.836317
C59	C	0.815259	-0.323134	-0.930219
C60	C	0.879550	-0.421715	-0.224592
C61	C	0.883438	-0.427262	-0.124638
H62	H	0.110391	-0.298030	-0.556734
H63	H	0.815526	-0.323425	-1.109924
Cl64	Cl	0.765755	-0.247411	-0.985089
Cl65	Cl	0.967893	-0.556365	-1.144167
Cl66	Cl	0.789119	-1.078367	-0.569365
Cl67	Cl	0.773690	-0.259734	-0.773135
Cl68	Cl	0.943520	-0.519332	-0.788069
H69	H	0.229099	-0.298014	-0.556721
H70	H	0.969222	-0.900670	-0.324401
H71	H	0.306724	-0.387059	-0.604490
Cl72	Cl	0.752769	-0.934202	-0.618660
Cl73	Cl	0.094735	-0.545431	-0.335710
Cl74	Cl	0.952472	-0.737181	-0.347055
H75	H	0.435368	-0.429390	-0.311931
H76	H	0.425438	-0.387042	-0.604475
Cl77	Cl	0.303382	-0.434596	-0.276240
H78	H	0.514032	-0.297967	-0.556689
H79	H	0.631710	-0.518438	-0.359699
Cl80	Cl	0.647357	-0.271054	-0.580734
H81	H	0.512999	-0.518451	-0.359704
H82	H	0.228069	-0.518492	-0.359742
Cl83	Cl	0.761668	-0.722246	-0.606392
Cl84	Cl	0.975842	-0.568672	-0.932224
H85	H	0.962064	-1.071019	-0.334260
