data_functionalizedCrystal
_audit_creation_method	'MofGen! by Chris Wilmer'
_symmetry_space_group_name_H-M	'P1'
_symmetry_Int_Tables_number	1
_symmetry_cell_setting	triclinic
loop_
_symmetry_equiv_pos_as_xyz
  x,y,z
_cell_length_a	11.169417
_cell_length_b	21.295417
_cell_length_c	21.295420
_cell_angle_alpha	90.018953
_cell_angle_beta	90.003038
_cell_angle_gamma	90.031386
loop_
_atom_site_label
_atom_site_type_symbol
_atom_site_fract_x
_atom_site_fract_y
_atom_site_fract_z
Zn1	Zn	1.834595	-0.250683	0.355855
Zn2	Zn	2.334595	0.249317	0.855855
Zn3	Zn	1.834473	-0.355930	0.250580
Zn4	Zn	2.334473	0.144070	0.750580
Zn5	Zn	1.633940	-0.250680	0.250606
Zn6	Zn	2.133940	0.249320	0.750606
Zn7	Zn	1.633818	-0.355920	0.355818
Zn8	Zn	2.133818	0.144080	0.855818
O9	O	1.734206	-0.303303	0.303215
O10	O	2.234206	0.196697	0.803215
O11	O	2.002529	-0.264650	0.341894
O12	O	2.502529	0.235350	0.841894
O13	O	1.807871	-0.341971	0.162494
O14	O	2.307871	0.158029	0.662494
O15	O	1.660660	-0.162591	0.264594
O16	O	2.160660	0.337409	0.764594
O17	O	2.002439	-0.341974	0.264550
O18	O	2.502439	0.158026	0.764550
O19	O	1.808080	-0.162593	0.341919
O20	O	2.308080	0.337407	0.841919
O21	O	1.660541	-0.264645	0.162513
O22	O	2.160541	0.235355	0.662513
O23	O	1.465974	-0.264635	0.264558
O24	O	1.965974	0.235365	0.764558
O25	O	1.660452	-0.341957	0.443912
O26	O	2.160452	0.158043	0.943912
O27	O	1.465884	-0.341954	0.341857
O28	O	1.965884	0.158046	0.841857
O29	O	1.807962	-0.264640	0.443939
O30	O	2.307962	0.235360	0.943939
O31	O	1.807753	-0.444018	0.264514
O32	O	2.307753	0.055982	0.764514
O33	O	1.660333	-0.444011	0.341832
O34	O	2.160333	0.055989	0.841832
C35	C	1.422382	-0.303294	0.303207
C36	C	1.922382	0.196706	0.803207
C37	C	1.288982	-0.303305	0.303218
C38	C	1.788982	0.196695	0.803218
C39	C	1.734049	-0.466855	0.303180
C40	C	2.234049	0.033145	0.803180
C41	C	1.734092	-0.536823	0.303186
C42	C	2.234092	-0.036823	0.803186
C43	C	1.810922	-0.569672	0.262968
C44	C	2.310922	-0.069672	0.762968
C45	C	1.810978	-0.635415	0.262982
C46	C	2.310978	-0.135415	0.762982
C47	C	1.734183	-0.668305	0.303208
C48	C	2.234183	-0.168305	0.803208
C49	C	1.657347	-0.635448	0.343434
C50	C	2.157347	-0.135448	0.843434
C51	C	1.657302	-0.569707	0.343423
C52	C	2.157302	-0.069707	0.843423
N53	N	1.629190	-0.771573	0.308004
N54	N	2.129190	-0.271573	0.808004
N55	N	1.629237	-0.834025	0.308010
N56	N	2.129237	-0.334025	0.808010
C57	C	1.734317	-0.866380	0.303244
C58	C	2.234317	-0.366380	0.803244
N59	N	1.839352	-0.833925	0.298458
N60	N	2.339352	-0.333925	0.798458
N61	N	1.839303	-0.771468	0.298448
N62	N	2.339303	-0.271468	0.798448
C63	C	1.734224	-0.739591	0.303224
C64	C	2.234224	-0.239591	0.803224
C65	C	1.811214	-0.970515	0.263039
C66	C	2.311214	-0.470515	0.763039
C67	C	1.811273	-1.036259	0.263057
C68	C	2.311273	-0.536259	0.763057
C69	C	1.657632	-1.036291	0.343506
C70	C	2.157632	-0.536291	0.843506
C71	C	1.657584	-0.970548	0.343490
C72	C	2.157584	-0.470548	0.843490
C73	C	1.734374	-0.937664	0.303254
C74	C	2.234374	-0.437664	0.803254
C75	C	2.047249	-0.303313	0.303223
C76	C	2.547249	0.196687	0.803223
C77	C	2.180649	-0.303318	0.303227
C78	C	2.680649	0.196682	0.803227
C79	C	1.734207	-0.303298	0.467405
C80	C	2.234207	0.196702	0.967405
C81	C	1.734207	-0.303295	0.537373
C82	C	2.234207	0.196705	1.037373
C83	C	1.734397	-0.139113	0.303263
C84	C	2.234397	0.360887	0.803263
C85	C	1.734478	-0.069145	0.303284
C86	C	2.234478	0.430855	0.803284
C87	C	1.810962	-0.263043	1.036846
C88	C	2.310962	0.236957	1.536846
C89	C	1.810975	-0.263044	0.971104
C90	C	2.310975	0.236956	1.471104
C91	C	1.734177	-0.303298	0.938212
C92	C	2.234177	0.196702	1.438212
C93	C	1.657383	-0.343564	0.971069
C94	C	2.157383	0.156436	1.471069
C95	C	1.657381	-0.343566	1.036811
C96	C	2.157381	0.156434	1.536811
N97	N	1.629118	-0.308120	0.834987
N98	N	2.129118	0.191880	1.334987
N99	N	1.629123	-0.308115	0.772536
N100	N	2.129123	0.191885	1.272536
C101	C	1.734180	-0.303295	0.740138
C102	C	2.234180	0.196705	1.240138
N103	N	1.839234	-0.298469	0.772551
N104	N	2.339234	0.201531	1.272551
N105	N	1.839227	-0.298471	0.835008
N106	N	2.339227	0.201529	1.335008
C107	C	1.734171	-0.303300	0.866927
C108	C	2.234171	0.196700	1.366927
C109	C	1.810990	-0.263035	0.636003
C110	C	2.310990	0.236965	1.136003
C111	C	1.811004	-0.263041	0.570260
C112	C	2.311004	0.236959	1.070260
C113	C	1.657401	-0.343557	0.570227
C114	C	2.157401	0.156443	1.070227
C115	C	1.657397	-0.343555	0.635969
C116	C	2.157397	0.156445	1.135969
C117	C	1.734190	-0.303291	0.668853
C118	C	2.234190	0.196709	1.168853
C119	C	1.734191	-0.303317	1.139663
C120	C	2.234191	0.196683	1.639663
C121	C	1.734173	-0.303302	1.069695
C122	C	2.234173	0.196698	1.569695
H123	H	1.873451	-0.542900	0.230206
H124	H	2.373451	-0.042900	0.730206
Cl125	Cl	1.560867	-0.394169	0.528884
Cl126	Cl	2.060867	0.105831	1.028884
H127	H	1.873499	-0.230260	1.063616
H128	H	2.373499	0.269740	1.563616
Cl129	Cl	1.560706	-0.528408	0.393986
Cl130	Cl	2.060706	-0.028408	0.893986
H131	H	1.873546	-0.662166	0.230232
H132	H	2.373546	-0.162166	0.730232
Cl133	Cl	1.907517	-0.212429	0.929799
Cl134	Cl	2.407517	0.287571	1.429799
H135	H	1.594823	-0.662231	0.376187
H136	H	2.094823	-0.162231	0.876187
H137	H	1.594862	-0.376336	0.662715
H138	H	2.094862	0.123664	1.162715
H139	H	1.873544	-0.230259	0.543515
H140	H	2.373544	0.269741	1.043515
H141	H	1.873745	-0.943740	0.230277
H142	H	2.373745	-0.443740	0.730277
H143	H	1.594855	-0.376340	0.944285
H144	H	2.094855	0.123660	1.444285
H145	H	1.594848	-0.376351	1.063556
H146	H	2.094848	0.123649	1.563556
H147	H	1.873844	-1.063004	0.230308
H148	H	2.373844	-0.563004	0.730308
Cl149	Cl	1.561096	-1.077632	0.394080
Cl150	Cl	2.061096	-0.577632	0.894080
Cl151	Cl	1.560987	-0.929249	0.394051
Cl152	Cl	2.060987	-0.429249	0.894051
H153	H	1.873518	-0.230249	0.662779
H154	H	2.373518	0.269751	1.162779
