data_functionalizedCrystal
_audit_creation_method	'MofGen! by Chris Wilmer'
_symmetry_space_group_name_H-M	'P1'
_symmetry_Int_Tables_number	1
_symmetry_cell_setting	triclinic
loop_
_symmetry_equiv_pos_as_xyz
  x,y,z
_cell_length_a	12.811457
_cell_length_b	10.489716
_cell_length_c	11.892095
_cell_angle_alpha	93.932635
_cell_angle_beta	91.498327
_cell_angle_gamma	84.284886
loop_
_atom_site_label
_atom_site_type_symbol
_atom_site_fract_x
_atom_site_fract_y
_atom_site_fract_z
O1	O	1.390509	0.175987	0.048557
O2	O	1.087268	0.191987	0.017469
O3	O	1.245802	-0.001593	0.033718
O4	O	1.231975	0.369567	0.032308
O5	O	1.232584	0.014522	0.220371
O6	O	1.074049	0.208102	0.204122
O7	O	1.377291	0.192102	0.235210
Zn8	Zn	1.223571	0.202661	0.249301
Zn9	Zn	1.240987	0.181428	0.003378
O10	O	1.218756	0.385682	0.218961
C11	C	1.041829	0.198654	0.106814
C12	C	0.926128	0.194496	0.094952
C13	C	0.694302	0.204229	0.276173
C14	C	0.585591	0.200322	0.265033
C15	C	0.599992	0.182766	0.061533
C16	C	0.708704	0.186673	0.072673
C17	C	0.755854	0.197406	0.179997
C18	C	0.864567	0.201322	0.191136
C19	C	0.878967	0.183757	-0.012363
C20	C	0.770256	0.179850	-0.023503
C21	C	1.238154	-0.041071	0.126934
C22	C	1.235047	-0.182712	0.126605
C23	C	1.332264	-0.280098	0.136582
C24	C	1.287409	-0.365556	0.039289
C25	C	1.274354	-0.349631	0.223312
C26	C	1.190238	-0.266310	0.029240
C27	C	1.177191	-0.250373	0.213347
C28	C	1.132266	-0.335784	0.116024
C29	C	1.422730	0.185435	0.145862
C30	C	1.538431	0.189592	0.157717
C31	C	1.226404	0.425160	0.125742
C32	C	1.229512	0.566800	0.126064
N33	N	1.211693	0.217151	0.417138
N34	N	1.252874	0.166929	-0.164458
C35	C	1.335528	0.066028	0.666478
C36	C	1.327233	0.076166	0.783970
C37	C	1.186803	0.247557	0.769614
C38	C	1.195098	0.237419	0.652123
C39	C	1.269464	0.146653	0.600559
C40	C	1.277764	0.136522	0.483066
C41	C	1.137330	0.307906	0.468712
C42	C	1.129034	0.318044	0.586204
H43	H	0.902954	0.210070	0.278524
H44	H	1.083539	0.373560	0.415027
H45	H	1.047643	-0.360468	0.107298
O46	O	1.316605	-0.393454	0.321173
C47	C	1.288422	-0.500809	0.488955
C48	C	1.240440	-0.451273	0.378157
H49	H	1.226859	-0.547543	0.535069
H50	H	1.358243	-0.574472	0.469436
H51	H	1.315674	-0.416990	0.544425
H52	H	1.213125	-0.535008	0.322633
H53	H	1.170664	-0.377573	0.397758
O54	O	1.056709	0.406238	0.636113
C55	C	0.918340	0.575215	0.609477
C56	C	1.000186	0.475370	0.552811
H57	H	0.872633	0.631154	0.542155
H58	H	0.861919	0.524173	0.659071
H59	H	0.959933	0.644298	0.669173
H60	H	0.958682	0.406258	0.493062
H61	H	1.056602	0.526498	0.503288
O62	O	1.350023	0.048247	0.433151
C63	C	1.488470	-0.120634	0.459799
C64	C	1.406667	-0.020734	0.516467
H65	H	1.534304	-0.176414	0.527136
H66	H	1.446940	-0.189857	0.400176
H67	H	1.544778	-0.069516	0.410126
H68	H	1.350336	-0.071742	0.566199
H69	H	1.448267	0.048483	0.576026
O70	O	0.739948	0.214605	0.380505
C71	C	0.714186	0.231696	0.581173
C72	C	0.662362	0.219918	0.463085
H73	H	0.651479	0.236023	0.647971
H74	H	0.773563	0.144867	0.592456
H75	H	0.755885	0.323020	0.590508
H76	H	0.620606	0.128646	0.453668
H77	H	0.603042	0.306813	0.451855
O78	O	0.554103	0.172562	-0.042687
C79	C	0.428665	0.268186	-0.174440
C80	C	0.480571	0.279918	-0.056391
H81	H	0.369188	0.354956	-0.185549
H82	H	0.491272	0.264057	-0.241330
H83	H	0.387056	0.176794	-0.183807
H84	H	0.522175	0.371303	-0.046915
H85	H	0.417919	0.283973	0.010441
H86	H	1.396086	-0.007869	0.624495
O87	O	1.391519	-0.002215	0.847840
C88	C	1.531631	-0.173343	0.849670
C89	C	1.458910	-0.084629	0.777205
H90	H	1.586120	-0.240015	0.792590
H91	H	1.580290	-0.112823	0.910023
H92	H	1.482258	-0.232928	0.900050
H93	H	1.508202	-0.025026	0.726755
H94	H	1.410246	-0.145222	0.716922
O95	O	1.121701	-0.190370	0.301064
C96	C	1.061845	0.011301	0.399047
C97	C	1.124689	-0.056488	0.299635
H98	H	1.064258	0.119554	0.397938
H99	H	0.976957	-0.012540	0.391160
H100	H	1.097861	-0.022944	0.481694
H101	H	1.088764	-0.022281	0.216940
H102	H	1.209572	-0.032648	0.307621
O103	O	0.724275	0.169486	-0.127668
C104	C	0.563190	0.155610	-0.235019
C105	C	0.615121	0.167375	-0.116984
H106	H	0.474935	0.153872	-0.226422
H107	H	0.579161	0.241152	-0.283927
H108	H	0.597052	0.062994	-0.282099
H109	H	0.581292	0.259939	-0.069811
H110	H	0.599158	0.081766	-0.068162
O111	O	1.114469	0.335735	0.819529
C112	C	0.976074	0.504686	0.792908
C113	C	1.057935	0.404868	0.736234
H114	H	0.930359	0.560625	0.725592
H115	H	0.919663	0.453620	0.842495
H116	H	1.017655	0.573773	0.852614
H117	H	1.016444	0.335753	0.676477
H118	H	1.114341	0.456019	0.686718
O119	O	0.938601	0.177167	-0.105914
C120	C	0.941417	0.159262	-0.308933
C121	C	0.873757	0.166738	-0.203087
H122	H	0.889021	0.150801	-0.387523
H123	H	0.983771	0.249749	-0.309791
H124	H	1.001571	0.071599	-0.307838
H125	H	0.813547	0.254344	-0.204112
H126	H	0.831477	0.076190	-0.202269
H127	H	1.416834	-0.255181	0.145158
O128	O	1.342852	-0.425162	-0.048637
C129	C	1.362252	-0.448751	-0.250206
C130	C	1.299380	-0.381141	-0.150740
H131	H	1.327116	-0.413206	-0.332781
H132	H	1.447450	-0.426286	-0.241447
H133	H	1.358695	-0.556898	-0.250023
H134	H	1.302852	-0.272980	-0.150862
H135	H	1.214211	-0.403711	-0.159536
O136	O	1.147978	-0.222625	-0.068666
C137	C	1.103487	-0.039282	-0.178189
C138	C	1.151381	-0.088587	-0.067271
H139	H	1.106201	0.069096	-0.177088
H140	H	1.150189	-0.087782	-0.252333
H141	H	1.018534	-0.062660	-0.187231
H142	H	1.236326	-0.065221	-0.058120
H143	H	1.104600	-0.040090	0.006817
H144	H	0.535477	0.205884	0.343351
