data_functionalizedCrystal
_audit_creation_method	'MofGen! by Chris Wilmer'
_symmetry_space_group_name_H-M	'P1'
_symmetry_Int_Tables_number	1
_symmetry_cell_setting	triclinic
loop_
_symmetry_equiv_pos_as_xyz
  x,y,z
_cell_length_a	14.971486
_cell_length_b	14.971494
_cell_length_c	13.448316
_cell_angle_alpha	89.995115
_cell_angle_beta	89.998199
_cell_angle_gamma	83.615843
loop_
_atom_site_label
_atom_site_type_symbol
_atom_site_fract_x
_atom_site_fract_y
_atom_site_fract_z
O1	O	1.186951	0.116564	-0.082574
O2	O	1.520284	0.449898	0.250760
O3	O	1.853618	0.783231	0.584093
O4	O	0.926551	0.130523	-0.082600
O5	O	1.259884	0.463856	0.250733
O6	O	1.593218	0.797190	0.584066
O7	O	1.063726	-0.006656	-0.082584
O8	O	1.397060	0.326677	0.250749
O9	O	1.730393	0.660011	0.584083
O10	O	1.049776	0.253743	-0.082590
O11	O	1.383109	0.587077	0.250743
O12	O	1.716442	0.920410	0.584077
O13	O	1.063709	-0.006664	0.082800
O14	O	1.397043	0.326669	0.416133
O15	O	1.730376	0.660002	0.749466
O16	O	0.926534	0.130515	0.082784
O17	O	1.259867	0.463848	0.416117
O18	O	1.593201	0.797181	0.749450
O19	O	1.186934	0.116556	0.082810
O20	O	1.520267	0.449889	0.416144
O21	O	1.853600	0.783223	0.749477
Cu22	Cu	1.056732	0.123534	0.097898
Cu23	Cu	1.390066	0.456868	0.431231
Cu24	Cu	1.723399	0.790201	0.764564
Cu25	Cu	1.056753	0.123544	-0.097688
Cu26	Cu	1.390086	0.456878	0.235646
Cu27	Cu	1.723419	0.790211	0.568979
O28	O	1.049758	0.253735	0.082794
O29	O	1.383092	0.587068	0.416127
O30	O	1.716425	0.920401	0.749461
C31	C	0.893218	0.129895	0.000088
C32	C	1.226551	0.463228	0.333422
C33	C	1.559884	0.796561	0.666755
C34	C	0.793921	0.128024	0.000078
C35	C	1.127254	0.461357	0.333411
C36	C	1.460587	0.794691	0.666745
C37	C	0.736698	0.208613	0.000078
C38	C	1.070031	0.541946	0.333411
C39	C	1.403364	0.875279	0.666744
C40	C	0.643398	0.206850	0.000092
C41	C	0.976732	0.540183	0.333426
C42	C	1.310065	0.873516	0.666759
C43	C	0.607323	0.124497	0.000101
C44	C	0.940657	0.457830	0.333434
C45	C	1.273990	0.791163	0.666767
C46	C	0.664554	0.043902	0.000104
C47	C	0.997887	0.377235	0.333437
C48	C	1.331220	0.710568	0.666771
C49	C	0.757851	0.045666	0.000096
C50	C	1.091185	0.378999	0.333430
C51	C	1.424518	0.712332	0.666763
C52	C	0.470091	0.040231	0.000118
C53	C	0.803424	0.373564	0.333451
C54	C	1.136758	0.706897	0.666784
C55	C	0.376787	0.038466	0.000124
C56	C	0.710120	0.371799	0.333457
C57	C	1.043454	0.705133	0.666790
C58	C	0.355638	0.201415	0.000114
C59	C	0.688971	0.534748	0.333447
C60	C	1.022305	0.868081	0.666781
C61	C	0.448936	0.203179	0.000106
C62	C	0.782269	0.536512	0.333440
C63	C	1.115602	0.869845	0.666773
C64	C	0.506160	0.122583	0.000108
C65	C	0.839493	0.455916	0.333441
C66	C	1.172826	0.789250	0.666774
C67	C	1.063093	-0.039985	0.000106
C68	C	1.396426	0.293349	0.333440
C69	C	1.729759	0.626682	0.666773
C70	C	1.061219	-0.139281	0.000102
C71	C	1.394552	0.194052	0.333435
C72	C	1.727886	0.527385	0.666768
C73	C	1.060350	-0.185921	-0.090050
C74	C	1.393683	0.147412	0.243283
C75	C	1.727017	0.480745	0.576616
C76	C	1.058584	-0.279221	-0.090052
C77	C	1.391917	0.054113	0.243282
C78	C	1.725250	0.387446	0.576615
C79	C	1.057693	-0.325879	0.000100
C80	C	1.391026	0.007455	0.333433
C81	C	1.724359	0.340788	0.666766
C82	C	1.058559	-0.279232	0.090259
C83	C	1.391892	0.054102	0.423592
C84	C	1.725226	0.387435	0.756925
C85	C	1.060319	-0.185933	0.090259
C86	C	1.393652	0.147400	0.423592
C87	C	1.726985	0.480733	0.756926
C88	C	1.054893	-0.473695	0.090252
C89	C	1.388226	-0.140361	0.423585
C90	C	1.721560	0.192972	0.756918
C91	C	1.053135	-0.567000	0.090252
C92	C	1.386468	-0.233666	0.423585
C93	C	1.719801	0.099667	0.756918
C94	C	1.053158	-0.566982	-0.090059
C95	C	1.386491	-0.233649	0.243274
C96	C	1.719825	0.099685	0.576607
C97	C	1.054918	-0.473684	-0.090059
C98	C	1.388251	-0.140350	0.243274
C99	C	1.721585	0.192983	0.576608
C100	C	1.055786	-0.427043	0.000100
C101	C	1.389119	-0.093710	0.333434
C102	C	1.722452	0.239623	0.666767
C103	C	1.220267	0.117184	0.000120
C104	C	1.553600	0.450518	0.333453
C105	C	1.886934	0.783851	0.666786
C106	C	1.319564	0.119055	0.000123
C107	C	1.652897	0.452388	0.333457
C108	C	1.986231	0.785722	0.666790
C109	C	1.050392	0.287064	0.000101
C110	C	1.383725	0.620397	0.333435
C111	C	1.717059	0.953730	0.666768
C112	C	1.052266	0.386360	0.000100
C113	C	1.385599	0.719694	0.333433
C114	C	1.718933	1.053027	0.666766
N115	N	1.056724	0.123527	0.235462
N116	N	1.390058	0.456860	0.568795
N117	N	1.723391	0.790194	0.902129
N118	N	1.056768	0.123545	-0.235252
N119	N	1.390101	0.456878	0.098081
N120	N	1.723434	0.790212	0.431415
C121	C	1.117484	0.062809	0.287510
C122	C	1.450818	0.396142	0.620843
C123	C	1.784151	0.729476	0.954176
C124	C	1.117490	0.062808	0.391613
C125	C	1.450823	0.396142	0.724946
C126	C	1.784157	0.729475	1.058280
C127	C	1.056739	0.123530	0.443667
C128	C	1.390072	0.456864	0.777000
C129	C	1.723406	0.790197	1.110333
C130	C	0.995973	0.184251	0.391612
C131	C	1.329306	0.517584	0.724945
C132	C	1.662639	0.850918	1.058278
C133	C	0.995963	0.184247	0.287510
C134	C	1.329297	0.517580	0.620844
C135	C	1.662630	0.850914	0.954177
C136	C	0.995997	0.184257	0.608592
C137	C	1.329331	0.517590	0.941925
C138	C	1.662664	0.850924	1.275259
C139	C	0.996007	0.184263	0.712700
C140	C	1.329341	0.517596	1.046034
C141	C	1.662674	0.850929	1.379367
C142	C	1.117524	0.062819	0.712694
C143	C	1.450857	0.396152	1.046028
C144	C	1.784191	0.729485	1.379361
C145	C	1.117515	0.062814	0.608593
C146	C	1.450848	0.396148	0.941926
C147	C	1.784182	0.729481	1.275260
C148	C	1.056749	0.123536	0.556545
C149	C	1.390083	0.456870	0.889879
C150	C	1.723416	0.790203	1.223212
H151	H	0.635174	-0.023152	0.000125
H152	H	0.968508	0.310182	0.333458
H153	H	1.301841	0.643515	0.666792
H154	H	1.052402	-0.604985	0.163661
H155	H	1.385735	-0.271652	0.496994
H156	H	1.719068	0.061682	0.830328
H157	H	0.804442	-0.019958	0.000096
H158	H	1.137776	0.313375	0.333429
H159	H	1.471109	0.646708	0.666763
F160	F	1.061242	-0.136296	0.186211
F161	F	1.394576	0.197037	0.519544
F162	F	1.727909	0.530371	0.852878
H163	H	1.061080	-0.147940	-0.163463
H164	H	1.394414	0.185394	0.169871
H165	H	1.727747	0.518727	0.503204
F166	F	0.530991	-0.045549	0.000123
F167	F	0.864325	0.287784	0.333456
F168	F	1.197658	0.621118	0.666789
H169	H	0.946503	0.233689	0.434000
H170	H	1.279837	0.567023	0.767333
H171	H	1.613170	0.900356	1.100667
F172	F	0.582501	0.292624	0.000088
F173	F	0.915834	0.625957	0.333421
F174	F	1.249167	0.959290	0.666754
F175	F	1.055818	-0.424059	0.186210
F176	F	1.389151	-0.090726	0.519543
F177	F	1.722485	0.242608	0.852877
H178	H	1.052449	-0.604961	-0.163470
H179	H	1.385783	-0.271627	0.169863
H180	H	1.719116	0.061706	0.503196
H181	H	0.946512	0.233701	0.566218
H182	H	1.279846	0.567034	0.899551
H183	H	1.613179	0.900367	1.232885
H184	H	0.946485	0.233688	0.245134
H185	H	1.279819	0.567022	0.578468
H186	H	1.613152	0.900355	0.911801
F187	F	0.775082	0.296265	0.000062
F188	F	1.108416	0.629599	0.333396
F189	F	1.441749	0.962932	0.666729
H190	H	0.478304	0.270238	0.000090
H191	H	0.811638	0.603571	0.333423
H192	H	1.144971	0.936904	0.666757
H193	H	0.946537	0.233708	0.755077
H194	H	1.279870	0.567041	1.088411
H195	H	1.613203	0.900375	1.421744
F196	F	0.294735	0.287191	0.000114
F197	F	0.628069	0.620524	0.333448
F198	F	0.961402	0.953858	0.666781
F199	F	1.057601	-0.328890	0.186205
F200	F	1.390934	0.004444	0.519539
F201	F	1.724267	0.337777	0.852872
H202	H	0.347418	-0.028593	0.000132
H203	H	0.680752	0.304741	0.333465
H204	H	1.014085	0.638074	0.666798
F205	F	1.057660	-0.328854	-0.186004
F206	F	1.390993	0.004479	0.147329
F207	F	1.724327	0.337812	0.480663
H208	H	1.167001	0.013377	0.755078
H209	H	1.500334	0.346710	1.088411
H210	H	1.833668	0.680043	1.421744
H211	H	1.166959	0.013366	0.245134
H212	H	1.500292	0.346699	0.578468
H213	H	1.833625	0.680033	0.911801
F214	F	1.055874	-0.424029	-0.186008
F215	F	1.389207	-0.090696	0.147325
F216	F	1.722541	0.242637	0.480659
H217	H	1.166965	0.013367	0.433990
H218	H	1.500298	0.346700	0.767323
H219	H	1.833632	0.680033	1.100656
H220	H	1.166987	0.013374	0.566211
H221	H	1.500320	0.346708	0.899544
H222	H	1.833654	0.680041	1.232878
