data_functionalizedCrystal
_audit_creation_method	'MofGen! by Chris Wilmer'
_symmetry_space_group_name_H-M	'P1'
_symmetry_Int_Tables_number	1
_symmetry_cell_setting	triclinic
loop_
_symmetry_equiv_pos_as_xyz
  x,y,z
_cell_length_a	21.395362
_cell_length_b	29.839126
_cell_length_c	21.395361
_cell_angle_alpha	90.025490
_cell_angle_beta	89.953415
_cell_angle_gamma	89.960696
loop_
_atom_site_label
_atom_site_type_symbol
_atom_site_fract_x
_atom_site_fract_y
_atom_site_fract_z
Zn1	Zn	0.957831	-0.254237	0.249221
Zn2	Zn	1.457831	0.245763	0.749221
Zn3	Zn	0.957742	-0.179105	0.353988
Zn4	Zn	1.457742	0.320895	0.853988
Zn5	Zn	0.853054	-0.179094	0.249257
Zn6	Zn	1.353054	0.320906	0.749257
Zn7	Zn	0.853015	-0.254181	0.353994
Zn8	Zn	1.353015	0.245819	0.853994
O9	O	0.905410	-0.216654	0.301615
O10	O	1.405410	0.283346	0.801615
O11	O	1.045497	-0.244299	0.263101
O12	O	1.545497	0.255701	0.763101
O13	O	0.943834	-0.116236	0.340108
O14	O	1.443834	0.383764	0.840108
O15	O	0.867007	-0.189080	0.161575
O16	O	1.367007	0.310920	0.661575
O17	O	1.045432	-0.189100	0.340073
O18	O	1.545432	0.310900	0.840073
O19	O	0.943986	-0.244288	0.161548
O20	O	1.443986	0.255712	0.661548
O21	O	0.866920	-0.116228	0.263163
O22	O	1.366920	0.383772	0.763163
O23	O	0.765371	-0.189026	0.263169
O24	O	1.265371	0.310974	0.763169
O25	O	0.866940	-0.317055	0.340082
O26	O	1.366940	0.182945	0.840082
O27	O	0.765342	-0.244192	0.340118
O28	O	1.265342	0.255808	0.840118
O29	O	0.943948	-0.317097	0.263106
O30	O	1.443948	0.182903	0.763106
O31	O	0.943796	-0.189045	0.441667
O32	O	1.443796	0.310955	0.941667
O33	O	0.866853	-0.244203	0.441671
O34	O	1.366853	0.255797	0.941671
C35	C	0.742623	-0.216602	0.301648
C36	C	1.242623	0.283398	0.801648
C37	C	0.672981	-0.216590	0.301677
C38	C	1.172981	0.283410	0.801677
C39	C	0.640270	-0.245272	0.341798
C40	C	1.140270	0.254728	0.841798
C41	C	0.574834	-0.245292	0.341783
C42	C	1.074834	0.254708	0.841783
C43	C	0.542113	-0.216622	0.301653
C44	C	1.042113	0.283378	0.801653
C45	C	0.574833	-0.187938	0.261525
C46	C	1.074833	0.312062	0.761525
C47	C	0.640267	-0.187922	0.261537
C48	C	1.140267	0.312078	0.761537
C49	C	0.438393	-0.176179	0.296610
C50	C	0.938393	0.323821	0.796610
C51	C	0.372960	-0.176194	0.296602
C52	C	0.872960	0.323806	0.796602
C53	C	0.340293	-0.216672	0.301612
C54	C	0.840293	0.283328	0.801612
C55	C	0.373066	-0.257136	0.306644
C56	C	0.873066	0.242864	0.806644
C57	C	0.438500	-0.257120	0.306656
C58	C	0.938500	0.242880	0.806656
C59	C	0.471161	-0.216637	0.301635
C60	C	0.971161	0.283363	0.801635
C61	C	0.236628	-0.245378	0.341719
C62	C	0.736628	0.254622	0.841719
C63	C	0.171192	-0.245399	0.341699
C64	C	0.671192	0.254601	0.841699
C65	C	0.171191	-0.188041	0.261444
C66	C	0.671191	0.311959	0.761444
C67	C	0.236627	-0.188024	0.261461
C68	C	0.736627	0.311976	0.761461
C69	C	0.269341	-0.216692	0.301601
C70	C	0.769341	0.283308	0.801601
C71	C	0.905449	-0.333832	0.301591
C72	C	1.405449	0.166168	0.801591
C73	C	0.905466	-0.383767	0.301581
C74	C	1.405466	0.116233	0.801581
C75	C	0.865429	-0.693409	0.261453
C76	C	1.365429	-0.193409	0.761453
C77	C	0.865447	-0.881082	0.261409
C78	C	1.365447	-0.381082	0.761409
O79	O	0.831375	-0.905346	0.227353
O80	O	1.331375	-0.405346	0.727353
N81	N	0.905495	-0.904552	0.301463
N82	N	1.405495	-0.404552	0.801463
C83	C	0.945539	-0.881101	0.341534
C84	C	1.445539	-0.381101	0.841534
O85	O	0.979599	-0.905370	0.375606
O86	O	1.479599	-0.405370	0.875606
C87	C	0.945518	-0.693429	0.341580
C88	C	1.445518	-0.193429	0.841580
C89	C	0.905471	-0.669961	0.301519
C90	C	1.405471	-0.169961	0.801519
C91	C	0.825386	-0.669941	0.221395
C92	C	1.325386	-0.169941	0.721395
C93	C	0.825384	-0.623026	0.221404
C94	C	1.325384	-0.123026	0.721404
C95	C	0.865426	-0.599578	0.261470
C96	C	1.365426	-0.099578	0.761470
C97	C	0.905470	-0.623046	0.301528
C98	C	1.405470	-0.123046	0.801528
C99	C	0.985558	-0.669979	0.381653
C100	C	1.485558	-0.169979	0.881653
C101	C	0.985548	-0.623058	0.381662
C102	C	1.485548	-0.123058	0.881662
C103	C	0.945502	-0.599590	0.341601
C104	C	1.445502	-0.099590	0.841601
C105	C	0.945510	-0.552682	0.341603
C106	C	1.445510	-0.052682	0.841603
N107	N	0.905462	-0.529212	0.301549
N108	N	1.405462	-0.029212	0.801549
C109	C	0.865420	-0.552660	0.261483
C110	C	1.365420	-0.052660	0.761483
C111	C	0.945549	-0.979632	0.341506
C112	C	1.445549	-0.479632	0.841506
C113	C	0.945555	-1.026550	0.341494
C114	C	1.445555	-0.526550	0.841494
C115	C	0.865462	-1.026527	0.261370
C116	C	1.365462	-0.526527	0.761370
C117	C	0.865459	-0.979609	0.261379
C118	C	1.365459	-0.479609	0.761379
C119	C	0.905500	-0.956162	0.301452
C120	C	1.405500	-0.456162	0.801452
C121	C	0.865420	-0.454134	0.261504
C122	C	1.365420	0.045866	0.761504
C123	C	0.865424	-0.407215	0.261515
C124	C	1.365424	0.092785	0.761515
C125	C	0.945514	-0.407241	0.341641
C126	C	1.445514	0.092759	0.841641
C127	C	0.945513	-0.454157	0.341628
C128	C	1.445513	0.045843	0.841628
C129	C	0.905461	-0.477602	0.301558
C130	C	1.405461	0.022398	0.801558
O131	O	0.979559	-0.528390	0.375646
O132	O	1.479559	-0.028390	0.875646
O133	O	0.831356	-0.528383	0.227426
O134	O	1.331356	-0.028383	0.727426
C135	C	0.865431	-0.740324	0.261444
C136	C	1.365431	-0.240324	0.761444
C137	C	0.905475	-0.763792	0.301501
C138	C	1.405475	-0.263792	0.801501
C139	C	0.945517	-0.740344	0.341567
C140	C	1.445517	-0.240344	0.841567
C141	C	0.905481	-0.810710	0.301489
C142	C	1.405481	-0.310710	0.801489
C143	C	0.865439	-0.834158	0.261423
C144	C	1.365439	-0.334158	0.761423
C145	C	0.825391	-0.810688	0.221369
C146	C	1.325391	-0.310688	0.721369
C147	C	0.825389	-0.763772	0.221378
C148	C	1.325389	-0.263772	0.721378
C149	C	0.985565	-0.763814	0.381621
C150	C	1.485565	-0.263814	0.881621
C151	C	0.985564	-0.810730	0.381609
C152	C	1.485564	-0.310730	0.881609
C153	C	0.945522	-0.834178	0.341543
C154	C	1.445522	-0.334178	0.841543
C155	C	1.068834	-0.216707	0.301582
C156	C	1.568834	0.283293	0.801582
C157	C	1.138475	-0.216729	0.301568
C158	C	1.638475	0.283271	0.801568
C159	C	0.905328	-0.216629	0.464403
C160	C	1.405328	0.283371	0.964403
C161	C	0.905350	-0.216633	0.534044
C162	C	1.405350	0.283367	1.034044
C163	C	0.905408	-0.099932	0.301594
C164	C	1.405408	0.400068	0.801594
C165	C	0.905513	-0.049997	0.301427
C166	C	1.405513	0.450003	0.801427
C167	C	0.905511	-0.216689	0.138192
C168	C	1.405511	0.283311	0.638192
C169	C	0.905553	-0.216704	0.068550
C170	C	1.405553	0.283296	0.568550
C171	C	0.945449	-0.187942	0.566734
C172	C	1.445449	0.312058	1.066734
C173	C	0.945478	-0.187952	0.632169
C174	C	1.445478	0.312048	1.132169
C175	C	0.905397	-0.216649	0.664912
C176	C	1.405397	0.283351	1.164912
C177	C	0.865295	-0.245346	0.632214
C178	C	1.365295	0.254654	1.132214
C179	C	0.865271	-0.245338	0.566780
C180	C	1.365271	0.254662	1.066780
C181	C	0.848982	-0.220156	0.768643
C182	C	1.348982	0.279844	1.268643
C183	C	0.849004	-0.220160	0.834076
C184	C	1.349004	0.279840	1.334076
C185	C	0.905470	-0.216675	0.866733
C186	C	1.405470	0.283325	1.366733
C187	C	0.961915	-0.213176	0.833949
C188	C	1.461915	0.286824	1.333949
C189	C	0.961891	-0.213168	0.768515
C190	C	1.461891	0.286832	1.268515
C191	C	0.905418	-0.216661	0.735865
C192	C	1.405418	0.283339	1.235865
C193	C	0.945604	-0.187993	0.970376
C194	C	1.445604	0.312007	1.470376
C195	C	0.945634	-0.188007	1.035812
C196	C	1.445634	0.311993	1.535812
C197	C	0.865445	-0.245398	1.035856
C198	C	1.365445	0.254602	1.535856
C199	C	0.865420	-0.245387	0.970420
C200	C	1.365420	0.254613	1.470420
C201	C	0.905499	-0.216682	0.937684
C202	C	1.405499	0.283318	1.437684
H203	H	0.832813	-0.388109	0.228889
H204	H	1.332813	0.111891	0.728889
H205	H	0.832850	-0.960504	0.228758
H206	H	1.332850	-0.460504	0.728758
H207	H	0.548195	-0.268650	0.374453
H208	H	1.048195	0.231350	0.874453
H209	H	1.007850	-0.210321	0.741824
H210	H	1.507850	0.289679	1.241824
H211	H	0.802997	-0.222995	0.742060
H212	H	1.302997	0.277005	1.242060
H213	H	0.465182	-0.290067	0.310750
H214	H	0.965182	0.209933	0.810750
H215	H	1.007894	-0.210338	0.860537
H216	H	1.507894	0.289662	1.360537
H217	H	0.978292	-0.164644	1.062427
H218	H	1.478292	0.335356	1.562427
H219	H	0.978134	-0.164588	0.658791
H220	H	1.478134	0.335412	1.158791
H221	H	0.666902	-0.268617	0.374483
H222	H	1.166902	0.231383	0.874483
H223	H	0.346469	-0.290097	0.310722
H224	H	0.846469	0.209903	0.810722
H225	H	0.263266	-0.268724	0.374400
H226	H	0.763266	0.231276	0.874400
H227	H	0.978241	-0.164622	0.943721
H228	H	1.478241	0.335378	1.443721
H229	H	0.832813	-0.268765	1.062514
H230	H	1.332813	0.231235	1.562514
H231	H	0.666901	-0.164566	0.228864
H232	H	1.166901	0.335434	0.728864
H233	H	0.978155	-0.960546	0.374141
H234	H	1.478155	-0.460546	0.874141
H235	H	0.792772	-0.603923	0.188785
H236	H	1.292772	-0.103923	0.688785
H237	H	0.803043	-0.223005	0.860763
H238	H	1.303043	0.276995	1.360763
H239	H	0.144559	-0.268758	0.374369
H240	H	0.644559	0.231242	0.874369
H241	H	0.144551	-0.164699	0.228767
H242	H	0.644551	0.335301	0.728767
H243	H	0.832661	-0.268711	0.658878
H244	H	1.332661	0.231289	1.158878
H245	H	0.263261	-0.164666	0.228793
H246	H	0.763261	0.335334	0.728793
H247	H	0.346281	-0.143246	0.292509
H248	H	0.846281	0.356754	0.792509
H249	H	0.792789	-0.829787	0.188743
H250	H	1.292789	-0.329787	0.688743
H251	H	0.792775	-0.689027	0.188768
H252	H	1.292775	-0.189027	0.688768
H253	H	0.464986	-0.143214	0.292527
H254	H	0.964986	0.356786	0.792527
H255	H	0.978129	-0.473265	0.374242
H256	H	1.478129	0.026735	0.874242
H257	H	0.548187	-0.164596	0.228850
H258	H	1.048187	0.335404	0.728850
H259	H	0.832806	-0.473218	0.228874
H260	H	1.332806	0.026782	0.728874
H261	H	1.018181	-0.829833	0.414230
H262	H	1.518181	-0.329833	0.914230
H263	H	0.978117	-0.388141	0.374260
H264	H	1.478117	0.111859	0.874260
H265	H	0.832765	-0.268748	0.943802
H266	H	1.332765	0.231252	1.443802
H267	H	0.832617	-0.268702	0.540163
H268	H	1.332617	0.231298	1.040163
H269	H	0.832859	-1.045627	0.228745
H270	H	1.332859	-0.545627	0.728745
H271	H	0.978172	-1.045653	0.374108
H272	H	1.478172	-0.545653	0.874108
H273	H	1.018168	-0.689078	0.414276
H274	H	1.518168	-0.189078	0.914276
H275	H	1.018159	-0.603970	0.414291
H276	H	1.518159	-0.103970	0.914291
H277	H	0.792779	-0.744669	0.188756
H278	H	1.292779	-0.244669	0.688756
H279	H	0.978085	-0.164570	0.540082
H280	H	1.478085	0.335430	1.040082
H281	H	1.018171	-0.744728	0.414251
H282	H	1.518171	-0.244728	0.914251
