data_functionalizedCrystal
_audit_creation_method	'MofGen! by Chris Wilmer'
_symmetry_space_group_name_H-M	'P1'
_symmetry_Int_Tables_number	1
_symmetry_cell_setting	triclinic
loop_
_symmetry_equiv_pos_as_xyz
  x,y,z
_cell_length_a	23.532407
_cell_length_b	23.532407
_cell_length_c	15.186229
_cell_angle_alpha	89.991614
_cell_angle_beta	89.999328
_cell_angle_gamma	82.848712
loop_
_atom_site_label
_atom_site_type_symbol
_atom_site_fract_x
_atom_site_fract_y
_atom_site_fract_z
O1	O	0.755259	0.069135	-0.073182
O2	O	1.255259	0.569135	0.426818
O3	O	0.589395	0.079138	-0.073197
O4	O	1.089395	0.579138	0.426803
O5	O	0.677329	-0.008796	-0.073173
O6	O	1.177329	0.491204	0.426827
O7	O	0.667325	0.157068	-0.073206
O8	O	1.167325	0.657068	0.426794
O9	O	0.677323	-0.008797	0.073284
O10	O	1.177323	0.491203	0.573284
O11	O	0.589389	0.079136	0.073260
O12	O	1.089389	0.579136	0.573260
O13	O	0.755253	0.069133	0.073275
O14	O	1.255253	0.569133	0.573275
Zn15	Zn	0.672320	0.074135	0.096521
Zn16	Zn	1.172320	0.574135	0.596521
Zn17	Zn	0.672328	0.074136	-0.096443
Zn18	Zn	1.172328	0.574136	0.403557
O19	O	0.667319	0.157067	0.073251
O20	O	1.167319	0.657067	0.573251
C21	C	0.568176	0.078882	0.000030
C22	C	1.068176	0.578882	0.500030
C23	C	0.504959	0.078116	0.000025
C24	C	1.004959	0.578116	0.500025
C25	C	0.238792	0.022921	0.000060
C26	C	0.738792	0.522921	0.500060
C27	C	0.298192	0.023632	0.000059
C28	C	0.798192	0.523632	0.500059
O29	O	0.334937	-0.020153	0.000099
O30	O	0.834937	0.479847	0.500099
N31	N	0.320818	0.075909	0.000043
N32	N	0.820818	0.575909	0.500043
C33	C	0.284041	0.127477	0.000036
C34	C	0.784041	0.627477	0.500036
O35	O	0.308740	0.172007	0.000023
O36	O	0.808740	0.672007	0.500023
C37	C	0.224642	0.126765	0.000043
C38	C	0.724642	0.626765	0.500043
C39	C	0.202019	0.074485	0.000050
C40	C	0.702019	0.574485	0.500050
C41	C	0.216169	-0.029354	0.000068
C42	C	0.716169	0.470646	0.500068
C43	C	0.156772	-0.030066	0.000067
C44	C	0.656772	0.469934	0.500067
C45	C	0.119999	0.021499	0.000057
C46	C	0.619999	0.521499	0.500057
C47	C	0.142623	0.073774	0.000049
C48	C	0.642623	0.573774	0.500049
C49	C	0.187865	0.178333	0.000042
C50	C	0.687865	0.678333	0.500042
C51	C	0.128463	0.177616	0.000049
C52	C	0.628463	0.677616	0.500049
C53	C	0.105840	0.125336	0.000057
C54	C	0.605840	0.625336	0.500057
C55	C	0.046454	0.124627	0.000038
C56	C	0.546454	0.624627	0.500038
N57	N	0.023828	0.072351	0.000054
N58	N	0.523828	0.572351	0.500054
C59	C	0.060600	0.020787	0.000064
C60	C	0.560600	0.520787	0.500064
C61	C	0.408783	0.128968	0.000023
C62	C	0.908783	0.628968	0.500023
C63	C	0.468181	0.129681	0.000010
C64	C	0.968181	0.629681	0.500010
C65	C	0.482328	0.025836	0.000036
C66	C	0.982328	0.525836	0.500036
C67	C	0.422929	0.025124	0.000042
C68	C	0.922929	0.525124	0.500042
C69	C	0.386157	0.076692	0.000040
C70	C	0.886157	0.576692	0.500040
C71	C	-0.064136	0.019297	0.000060
C72	C	0.435864	0.519297	0.500060
C73	C	-0.123538	0.018590	0.000056
C74	C	0.376462	0.518590	0.500056
C75	C	-0.137680	0.122435	0.000035
C76	C	0.362320	0.622435	0.500035
C77	C	-0.078284	0.123142	0.000035
C78	C	0.421716	0.623142	0.500035
C79	C	-0.041512	0.071568	0.000051
C80	C	0.458488	0.571568	0.500051
O81	O	0.009675	0.168390	0.000002
O82	O	0.509675	0.668390	0.500002
O83	O	0.035892	-0.023737	0.000089
O84	O	0.535892	0.476263	0.500089
C85	C	0.677071	-0.030012	0.000058
C86	C	1.177071	0.469988	0.500058
C87	C	0.676305	-0.093229	0.000065
C88	C	1.176305	0.406771	0.500065
C89	C	0.723538	-0.492332	0.000021
C90	C	1.223538	0.007668	0.500021
C91	C	0.722827	-0.551733	0.000014
C92	C	1.222827	-0.051733	0.500014
O93	O	0.766613	-0.588477	-0.000015
O94	O	1.266613	-0.088477	0.499985
N95	N	0.670551	-0.574359	0.000010
N96	N	1.170551	-0.074359	0.500010
C97	C	0.618982	-0.537581	0.000003
C98	C	1.118982	-0.037581	0.500003
O99	O	0.574452	-0.562281	-0.000001
O100	O	1.074452	-0.062281	0.499999
C101	C	0.619695	-0.478182	0.000004
C102	C	1.119695	0.021818	0.500004
C103	C	0.671974	-0.455559	0.000017
C104	C	1.171974	0.044441	0.500017
C105	C	0.775814	-0.469709	0.000033
C106	C	1.275814	0.030291	0.500033
C107	C	0.776525	-0.410313	0.000041
C108	C	1.276525	0.089687	0.500041
C109	C	0.724961	-0.373540	0.000038
C110	C	1.224961	0.126460	0.500038
C111	C	0.672685	-0.396163	0.000025
C112	C	1.172685	0.103837	0.500025
C113	C	0.568127	-0.441406	-0.000009
C114	C	1.068127	0.058594	0.499991
C115	C	0.568843	-0.382003	-0.000009
C116	C	1.068843	0.117997	0.499991
C117	C	0.621123	-0.359381	0.000004
C118	C	1.121123	0.140619	0.500004
C119	C	0.621832	-0.299994	0.000030
C120	C	1.121832	0.200006	0.500030
N121	N	0.674109	-0.277368	0.000034
N122	N	1.174109	0.222632	0.500034
C123	C	0.725673	-0.314141	0.000038
C124	C	1.225673	0.185859	0.500038
C125	C	0.617491	-0.662324	0.000001
C126	C	1.117491	-0.162324	0.500001
C127	C	0.616778	-0.721722	0.000007
C128	C	1.116778	-0.221722	0.500007
C129	C	0.720623	-0.735869	0.000016
C130	C	1.220623	-0.235869	0.500016
C131	C	0.721335	-0.676470	0.000016
C132	C	1.221335	-0.176470	0.500016
C133	C	0.669767	-0.639698	0.000005
C134	C	1.169767	-0.139698	0.500005
C135	C	0.727163	-0.189404	0.000056
C136	C	1.227163	0.310596	0.500056
C137	C	0.727869	-0.130002	0.000068
C138	C	1.227869	0.369998	0.500068
C139	C	0.624025	-0.115860	0.000055
C140	C	1.124025	0.384140	0.500055
C141	C	0.623318	-0.175257	0.000047
C142	C	1.123318	0.324743	0.500047
C143	C	0.674891	-0.212028	0.000045
C144	C	1.174891	0.287972	0.500045
O145	O	0.578069	-0.263215	0.000055
O146	O	1.078069	0.236785	0.500055
O147	O	0.770196	-0.289433	0.000031
O148	O	1.270196	0.210567	0.500031
C149	C	0.776472	0.069389	0.000047
C150	C	1.276472	0.569389	0.500047
C151	C	0.839689	0.070155	0.000046
C152	C	1.339689	0.570155	0.500046
C153	C	0.667577	0.178283	0.000018
C154	C	1.167577	0.678283	0.500018
C155	C	0.668343	0.241500	0.000006
C156	C	1.168343	0.741500	0.500006
N157	N	0.672319	0.074133	0.228214
N158	N	1.172319	0.574133	0.728214
N159	N	0.672333	0.074133	-0.228135
N160	N	1.172333	0.574133	0.271865
C161	C	0.711269	0.035209	0.453947
C162	C	1.211269	0.535209	0.953947
C163	C	0.711271	0.035208	0.546137
C164	C	1.211271	0.535208	1.046137
C165	C	0.633379	0.113059	0.546125
C166	C	1.133379	0.613059	1.046125
C167	C	0.633375	0.113057	0.453937
C168	C	1.133375	0.613057	0.953937
C169	C	0.672323	0.074133	0.407850
C170	C	1.172323	0.574133	0.907850
C171	C	0.672329	0.074133	0.592228
C172	C	1.172329	0.574133	1.092228
C173	C	0.672331	0.074132	0.692184
C174	C	1.172331	0.574132	1.192184
C175	C	0.672321	0.074133	0.307888
C176	C	1.172321	0.574133	0.807888
H177	H	0.246104	-0.071347	0.000079
H178	H	0.746104	0.428653	0.500079
O179	O	0.753268	-0.006777	0.404235
O180	O	1.253268	0.493223	0.904235
H181	H	0.780345	-0.033847	0.451781
H182	H	1.280345	0.466153	0.951781
O183	O	0.591382	0.155047	0.595838
O184	O	1.091382	0.655047	1.095838
H185	H	0.564298	0.182111	0.548293
H186	H	1.064298	0.682111	1.048293
H187	H	0.574207	-0.740135	0.000011
H188	H	1.074207	-0.240135	0.500011
O189	O	0.753283	-0.006766	0.595859
O190	O	1.253283	0.493234	1.095859
H191	H	0.780368	-0.033827	0.548322
H192	H	1.280368	0.466173	1.048322
H193	H	0.601658	0.144754	0.416402
H194	H	1.101658	0.644754	0.916402
H195	H	-0.141954	-0.023984	0.000059
H196	H	0.358046	0.476016	0.500059
O197	O	0.212258	0.234720	0.000038
O198	O	0.712258	0.734720	0.500038
H199	H	0.238985	0.237523	0.059729
H200	H	0.738985	0.737523	0.559729
H201	H	-0.034204	-0.022699	0.000073
H202	H	0.465796	0.477301	0.500073
H203	H	0.098525	0.219610	0.000051
H204	H	0.598525	0.719610	0.500051
H205	H	0.404515	-0.017447	0.000049
H206	H	0.904515	0.482553	0.500049
H207	H	0.769159	-0.219337	0.000051
H208	H	1.269159	0.280663	0.500051
O209	O	0.511737	-0.465794	-0.000030
O210	O	1.011737	0.034206	0.499970
H211	H	0.508914	-0.492520	0.059663
H212	H	1.008914	0.007480	0.559663
O213	O	0.492579	0.186068	-0.000010
O214	O	0.992579	0.686068	0.499990
H215	H	0.519305	0.188876	0.059680
H216	H	1.019305	0.688876	0.559680
H217	H	-0.059864	0.165712	0.000028
H218	H	0.440136	0.665712	0.500028
O219	O	0.561867	-0.622663	0.000002
O220	O	1.061867	-0.122663	0.500002
H221	H	0.559708	-0.595267	0.059694
H222	H	1.059708	-0.095267	0.559694
O223	O	0.568410	-0.076193	0.000050
O224	O	1.068410	0.423807	0.500050
H225	H	0.577693	-0.031090	0.000047
H226	H	1.077693	0.468910	0.500047
H227	H	-0.167631	0.164417	0.000023
H228	H	0.332369	0.664417	0.500023
H229	H	0.512280	-0.016150	0.000044
H230	H	1.012280	0.483850	0.500044
O231	O	0.132375	-0.086453	0.000098
O232	O	0.632375	0.413547	0.500098
H233	H	0.167932	-0.122184	0.000118
H234	H	0.667932	0.377816	0.500118
O235	O	0.369121	0.184591	0.000006
O236	O	0.869121	0.684591	0.500006
H237	H	0.394839	0.221057	-0.000015
H238	H	0.894839	0.721057	0.499985
O239	O	0.832915	-0.385921	0.000030
O240	O	1.332915	0.114079	0.500030
H241	H	0.857681	-0.400728	0.059716
H242	H	1.357681	0.099272	0.559716
O243	O	0.784258	-0.105601	0.000069
O244	O	1.284258	0.394399	0.500069
H245	H	0.819993	-0.141154	0.000057
H246	H	1.319993	0.358846	0.500057
O247	O	0.831434	-0.509368	0.000049
O248	O	1.331434	-0.009368	0.500049
H249	H	0.867898	-0.483647	0.000067
H250	H	1.367898	0.016353	0.500067
H251	H	0.762610	-0.765821	0.000015
H252	H	1.262610	-0.265821	0.500015
O253	O	0.777721	-0.652070	0.000014
O254	O	1.277721	-0.152070	0.500014
H255	H	0.813454	-0.687625	0.000009
H256	H	1.313454	-0.187625	0.500009
H257	H	0.526850	-0.352065	-0.000019
H258	H	1.026850	0.147935	0.499981
O259	O	0.566933	-0.199663	0.000036
O260	O	1.066933	0.300337	0.500036
H261	H	0.531197	-0.164111	0.000031
H262	H	1.031197	0.335889	0.500031
