data_functionalizedCrystal
_audit_creation_method	'MofGen! by Chris Wilmer'
_symmetry_space_group_name_H-M	'P1'
_symmetry_Int_Tables_number	1
_symmetry_cell_setting	triclinic
loop_
_symmetry_equiv_pos_as_xyz
  x,y,z
_cell_length_a	16.109302
_cell_length_b	15.995350
_cell_length_c	14.586319
_cell_angle_alpha	89.998440
_cell_angle_beta	89.994552
_cell_angle_gamma	83.477078
loop_
_atom_site_label
_atom_site_type_symbol
_atom_site_fract_x
_atom_site_fract_y
_atom_site_fract_z
O1	O	1.103159	0.107627	-0.076277
O2	O	1.436493	0.440960	0.257056
O3	O	1.769826	0.774294	0.590390
O4	O	0.861101	0.121020	-0.076269
O5	O	1.194434	0.454353	0.257064
O6	O	1.527768	0.787687	0.590398
O7	O	0.988747	-0.007566	-0.076272
O8	O	1.322080	0.325767	0.257061
O9	O	1.655414	0.659101	0.590394
O10	O	0.975513	0.236213	-0.076274
O11	O	1.308847	0.569546	0.257060
O12	O	1.642180	0.902880	0.590393
O13	O	0.988738	-0.007568	0.076208
O14	O	1.322072	0.325766	0.409542
O15	O	1.655405	0.659099	0.742875
O16	O	0.861092	0.121018	0.076212
O17	O	1.194426	0.454351	0.409545
O18	O	1.527759	0.787685	0.742878
O19	O	1.103151	0.107625	0.076204
O20	O	1.436484	0.440958	0.409537
O21	O	1.769817	0.774292	0.742871
Cu22	Cu	0.982121	0.114321	0.090130
Cu23	Cu	1.315454	0.447655	0.423464
Cu24	Cu	1.648787	0.780988	0.756797
Cu25	Cu	0.982131	0.114324	-0.090196
Cu26	Cu	1.315464	0.447657	0.243138
Cu27	Cu	1.648798	0.780990	0.576471
O28	O	0.975505	0.236211	0.076207
O29	O	1.308838	0.569544	0.409540
O30	O	1.642171	0.902878	0.742874
C31	C	0.830122	0.120476	-0.000028
C32	C	1.163455	0.453810	0.333306
C33	C	1.496788	0.787143	0.666639
C34	C	0.737826	0.118850	-0.000025
C35	C	1.071159	0.452183	0.333308
C36	C	1.404493	0.785516	0.666642
C37	C	0.525479	0.115087	0.083083
C38	C	0.858813	0.448420	0.416417
C39	C	1.192146	0.781754	0.749750
C40	C	0.438759	0.113549	0.083080
C41	C	0.772092	0.446883	0.416413
C42	C	1.105425	0.780216	0.749747
C43	C	0.438779	0.113556	-0.083163
C44	C	0.772112	0.446889	0.250170
C45	C	1.105446	0.780222	0.583504
C46	C	0.525499	0.115087	-0.083159
C47	C	0.858832	0.448421	0.250175
C48	C	1.192165	0.781754	0.583508
C49	C	0.568846	0.115857	-0.000033
C50	C	0.902179	0.449190	0.333300
C51	C	1.235513	0.782524	0.666634
C52	C	0.395406	0.112788	-0.000040
C53	C	0.728739	0.446121	0.333293
C54	C	1.062072	0.779455	0.666626
C55	C	0.301380	0.111121	-0.000044
C56	C	0.634713	0.444454	0.333289
C57	C	0.968046	0.777788	0.666622
C58	C	0.662878	0.117523	-0.000029
C59	C	0.996212	0.450856	0.333305
C60	C	1.329545	0.784189	0.666638
C61	C	0.988196	-0.038761	-0.000034
C62	C	1.321529	0.294572	0.333300
C63	C	1.654862	0.627905	0.666633
C64	C	0.986555	-0.131711	-0.000039
C65	C	1.319889	0.201622	0.333295
C66	C	1.653222	0.534955	0.666628
C67	C	0.980665	-0.469457	-0.000036
C68	C	1.313998	-0.136124	0.333298
C69	C	1.647332	0.197209	0.666631
C70	C	0.889758	-0.421999	-0.000375
C71	C	1.223091	-0.088665	0.332959
C72	C	1.556425	0.244668	0.666292
C73	C	0.891398	-0.325309	-0.000031
C74	C	1.224732	0.008024	0.333302
C75	C	1.558065	0.341358	0.666636
C76	C	0.983587	-0.301898	-0.000038
C77	C	1.316920	0.031436	0.333296
C78	C	1.650253	0.364769	0.666629
C79	C	1.028420	-0.342988	0.087033
C80	C	1.361754	-0.009655	0.420367
C81	C	1.695087	0.323678	0.753700
C82	C	1.026137	-0.439623	0.087106
C83	C	1.359470	-0.106290	0.420440
C84	C	1.692803	0.227043	0.753773
C85	C	1.028025	-0.439980	-0.086293
C86	C	1.361358	-0.106646	0.247040
C87	C	1.694691	0.226687	0.580374
C88	C	1.028003	-0.343034	-0.087444
C89	C	1.361336	-0.009701	0.245890
C90	C	1.694670	0.323632	0.579223
C91	C	0.985243	-0.207201	-0.000036
C92	C	1.318576	0.126133	0.333297
C93	C	1.651910	0.459466	0.666631
C94	C	0.979012	-0.564155	-0.000031
C95	C	1.312345	-0.230821	0.333302
C96	C	1.645678	0.102512	0.666635
C97	C	1.134130	0.108169	-0.000039
C98	C	1.467463	0.441502	0.333294
C99	C	1.800797	0.774835	0.666627
C100	C	1.226426	0.109796	-0.000048
C101	C	1.559759	0.443129	0.333285
C102	C	1.893092	0.776462	0.666618
C103	C	0.976056	0.267407	-0.000034
C104	C	1.309389	0.600740	0.333300
C105	C	1.642723	0.934073	0.666633
C106	C	0.977696	0.360357	-0.000034
C107	C	1.311030	0.693690	0.333299
C108	C	1.644363	1.027023	0.666632
N109	N	0.982119	0.114319	0.216962
N110	N	1.315453	0.447653	0.550296
N111	N	1.648786	0.780986	0.883629
N112	N	0.982139	0.114319	-0.217027
N113	N	1.315472	0.447652	0.116306
N114	N	1.648806	0.780986	0.449639
C115	C	1.038660	0.057401	0.451967
C116	C	1.371993	0.390734	0.785301
C117	C	1.705326	0.724067	1.118634
C118	C	1.038662	0.057399	0.547948
C119	C	1.371995	0.390732	0.881282
C120	C	1.705329	0.724065	1.214615
C121	C	0.925593	0.171241	0.547961
C122	C	1.258926	0.504574	0.881294
C123	C	1.592259	0.837907	1.214627
C124	C	0.925587	0.171238	0.451981
C125	C	1.258920	0.504571	0.785315
C126	C	1.592254	0.837905	1.118648
C127	C	0.982125	0.114319	0.403987
C128	C	1.315458	0.447652	0.737320
C129	C	1.648792	0.780986	1.070654
C130	C	0.982133	0.114320	0.595948
C131	C	1.315467	0.447653	0.929281
C132	C	1.648800	0.780986	1.262614
C133	C	0.982135	0.114318	0.700015
C134	C	1.315469	0.447651	1.033348
C135	C	1.648802	0.780984	1.366682
C136	C	0.982122	0.114319	0.299913
C137	C	1.315455	0.447653	0.633247
C138	C	1.648789	0.780986	0.966580
H139	H	0.856156	-0.296877	-0.062447
H140	H	1.189489	0.036457	0.270887
H141	H	1.522823	0.369790	0.604220
F142	F	0.842349	-0.447879	0.080565
F143	F	1.175683	-0.114545	0.413898
F144	F	1.509016	0.218788	0.747231
F145	F	0.392608	0.112730	0.171544
F146	F	0.725942	0.446064	0.504877
F147	F	1.059275	0.779397	0.838211
H148	H	0.403475	0.112930	-0.150841
H149	H	0.736808	0.446263	0.182492
H150	H	1.070141	0.779597	0.515826
F151	F	0.571656	0.115902	-0.171627
F152	F	0.904989	0.449235	0.161706
F153	F	1.238323	0.782568	0.495039
F154	F	0.842268	-0.446205	-0.081989
F155	F	1.175601	-0.112871	0.251344
F156	F	1.508934	0.220462	0.584677
H157	H	0.855912	-0.297435	0.062494
H158	H	1.189245	0.035898	0.395827
H159	H	1.522578	0.369231	0.729160
H160	H	0.879546	0.217588	0.412913
H161	H	1.212879	0.550921	0.746246
H162	H	1.546212	0.884255	1.079580
H163	H	1.096148	-0.328881	0.090267
H164	H	1.429482	0.004452	0.423600
H165	H	1.762815	0.337786	0.756933
F166	F	1.113371	-0.481800	0.092273
F167	F	1.446705	-0.148467	0.425607
F168	F	1.780038	0.184867	0.758940
F169	F	0.571610	0.115903	0.171553
F170	F	0.904944	0.449236	0.504886
F171	F	1.238277	0.782569	0.838220
H172	H	0.995224	-0.315776	-0.151857
H173	H	1.328557	0.017557	0.181477
H174	H	1.661891	0.350891	0.514810
F175	F	0.983392	-0.463536	0.172183
F176	F	1.316725	-0.130203	0.505516
F177	F	1.650059	0.203130	0.838850
H178	H	0.997274	-0.314599	0.151833
H179	H	1.330607	0.018734	0.485166
H180	H	1.663941	0.352067	0.818500
F181	F	0.989175	-0.466806	-0.172554
F182	F	1.322509	-0.133472	0.160779
F183	F	1.655842	0.199861	0.494113
F184	F	1.115874	-0.322975	-0.094328
F185	F	1.449208	0.010358	0.239005
F186	F	1.782541	0.343691	0.572339
F187	F	1.098831	-0.003180	0.400892
F188	F	1.432164	0.330153	0.734225
F189	F	1.765497	0.663487	1.067559
F190	F	1.115631	-0.481518	-0.087066
F191	F	1.448964	-0.148184	0.246267
F192	F	1.782297	0.185149	0.579600
H193	H	1.084696	0.011050	0.587011
H194	H	1.418030	0.344383	0.920345
H195	H	1.751363	0.677716	1.253678
H196	H	0.879562	0.217584	0.587047
H197	H	1.212895	0.550917	0.920381
H198	H	1.546228	0.884251	1.253714
