data_functionalizedCrystal
_audit_creation_method	'MofGen! by Chris Wilmer'
_symmetry_space_group_name_H-M	'P1'
_symmetry_Int_Tables_number	1
_symmetry_cell_setting	triclinic
loop_
_symmetry_equiv_pos_as_xyz
  x,y,z
_cell_length_a	21.395364
_cell_length_b	16.625545
_cell_length_c	21.395355
_cell_angle_alpha	90.016313
_cell_angle_beta	89.975273
_cell_angle_gamma	89.977630
loop_
_atom_site_label
_atom_site_type_symbol
_atom_site_fract_x
_atom_site_fract_y
_atom_site_fract_z
Zn1	Zn	0.957888	0.321131	-0.354274
Zn2	Zn	0.957803	0.455946	-0.249500
Zn3	Zn	0.853103	0.321127	-0.249510
Zn4	Zn	0.853084	0.455921	-0.354240
O5	O	0.905470	0.388531	-0.301881
O6	O	1.045555	0.339026	-0.340385
O7	O	0.943886	0.438071	-0.161824
O8	O	0.867047	0.208295	-0.263426
O9	O	1.045492	0.438074	-0.263409
O10	O	0.944032	0.208298	-0.340395
O11	O	0.866964	0.339020	-0.161831
O12	O	0.765423	0.338996	-0.263393
O13	O	0.867015	0.438032	-0.441923
O14	O	0.765409	0.438029	-0.340338
O15	O	0.944014	0.339002	-0.441947
O16	O	0.943868	0.568775	-0.263376
O17	O	0.866932	0.568757	-0.340328
C18	C	0.742682	0.388510	-0.301863
C19	C	0.673041	0.388520	-0.301870
C20	C	0.171254	0.440192	-0.341908
C21	C	0.236689	0.440192	-0.341901
C22	C	0.269402	0.388549	-0.301901
C23	C	0.236675	0.336916	-0.261893
C24	C	0.171241	0.336923	-0.261897
C25	C	0.373085	0.315884	-0.297048
C26	C	0.438518	0.315876	-0.297049
C27	C	0.471223	0.388528	-0.301887
C28	C	0.438488	0.461190	-0.306738
C29	C	0.373054	0.461197	-0.306741
C30	C	0.340355	0.388536	-0.301893
C31	C	0.574895	0.440161	-0.341882
C32	C	0.640332	0.440163	-0.341871
C33	C	0.640316	0.336880	-0.261867
C34	C	0.574881	0.336885	-0.261875
C35	C	0.542174	0.388525	-0.301886
C36	C	0.905406	0.598022	-0.301861
C37	C	0.905436	0.687643	-0.301874
C38	C	0.905538	1.015819	-0.301948
C39	C	0.905508	0.924510	-0.301929
C40	C	0.905487	0.851734	-0.301911
C41	C	0.905457	0.760420	-0.301892
C42	C	1.068893	0.388554	-0.301900
C43	C	1.138534	0.388563	-0.301908
C44	C	0.905545	1.178222	-0.301923
C45	C	0.905564	1.088601	-0.301959
C46	C	0.905522	0.388515	-0.465305
C47	C	0.905544	0.388508	-0.534946
C48	C	0.945635	0.336941	-0.567673
C49	C	0.945634	0.336906	-0.633108
C50	C	0.905549	0.388453	-0.665814
C51	C	0.865449	0.440024	-0.633079
C52	C	0.865447	0.440051	-0.567645
C53	C	0.900579	0.461054	-0.769482
C54	C	0.900586	0.461027	-0.834915
C55	C	0.905553	0.388368	-0.867635
C56	C	0.910525	0.315732	-0.834914
C57	C	0.910523	0.315760	-0.769480
C58	C	0.905547	0.388429	-0.736767
C59	C	0.945645	0.336759	-0.971315
C60	C	0.945640	0.336723	-1.036751
C61	C	0.865458	0.439847	-1.036721
C62	C	0.865460	0.439876	-0.971286
C63	C	0.905557	0.388333	-0.938586
C64	C	0.905454	0.388489	-0.139094
C65	C	0.905553	0.388269	-0.069453
H66	H	0.548264	0.482210	-0.374461
C67	C	0.676290	0.280071	-0.217863
C68	C	0.721303	0.216810	-0.245088
C69	C	0.757279	0.160003	-0.201079
C70	C	0.748241	0.166457	-0.129844
C71	C	0.703226	0.229721	-0.102615
C72	C	0.667250	0.286528	-0.146624
H73	H	0.727995	0.212030	-0.297823
H74	H	0.790602	0.113170	-0.221236
H75	H	0.774872	0.124405	-0.097266
H76	H	0.696534	0.234501	-0.049880
H77	H	0.633927	0.333361	-0.126467
H78	H	0.548240	0.294841	-0.229304
C79	C	0.337044	0.541121	-0.312068
C80	C	0.265069	0.541125	-0.312069
C81	C	0.229059	0.621050	-0.317392
C82	C	0.265025	0.700970	-0.322713
C83	C	0.337004	0.700969	-0.322712
C84	C	0.373013	0.621045	-0.317389
H85	H	0.238442	0.481961	-0.308130
H86	H	0.175775	0.621050	-0.317393
H87	H	0.238368	0.760136	-0.326653
H88	H	0.363631	0.760134	-0.326651
H89	H	0.426297	0.621044	-0.317388
H90	H	0.263335	0.482235	-0.374476
H91	H	0.465115	0.520350	-0.310683
H92	H	0.346461	0.256719	-0.293097
H93	H	0.896541	0.520172	-0.861551
C94	C	0.135280	0.497005	-0.385912
C95	C	0.090271	0.560266	-0.358680
C96	C	0.054296	0.617082	-0.402683
C97	C	0.063330	0.610637	-0.473918
C98	C	0.108341	0.547373	-0.501154
C99	C	0.144316	0.490557	-0.457151
H100	H	0.083581	0.565040	-0.305944
H101	H	0.020976	0.663915	-0.382520
H102	H	0.036699	0.652695	-0.506492
H103	H	0.115030	0.542599	-0.553890
H104	H	0.177636	0.443724	-0.477314
C105	C	0.895117	0.540986	-0.733493
C106	C	0.889658	0.620881	-0.769481
C107	C	0.884195	0.700810	-0.733493
C108	C	0.884191	0.700843	-0.661518
C109	C	0.889651	0.620946	-0.625526
C110	C	0.895114	0.541017	-0.661514
H111	H	0.889660	0.620858	-0.822764
H112	H	0.880153	0.759955	-0.760136
H113	H	0.880148	0.760011	-0.634878
H114	H	0.889649	0.620968	-0.572243
H115	H	0.899155	0.481871	-0.634871
C116	C	0.821355	0.496727	-0.669053
C117	C	0.821359	0.496704	-0.741028
C118	C	0.777260	0.553407	-0.777000
C119	C	0.733158	0.610133	-0.740998
C120	C	0.733153	0.610158	-0.669019
C121	C	0.777252	0.553456	-0.633046
H122	H	0.854007	0.454710	-0.767683
H123	H	0.777264	0.553387	-0.830284
H124	H	0.700514	0.652107	-0.767627
H125	H	0.700505	0.652152	-0.642364
H126	H	0.777247	0.553475	-0.579762
H127	H	0.832797	0.482042	-0.540999
C128	C	0.474521	0.235948	-0.291716
C129	C	0.465511	0.181972	-0.233934
C130	C	0.501512	0.102041	-0.228602
C131	C	0.546522	0.076087	-0.281053
C132	C	0.555534	0.130064	-0.338839
C133	C	0.519534	0.209995	-0.344171
H134	H	0.432190	0.201184	-0.195103
H135	H	0.494840	0.062084	-0.185825
H136	H	0.573172	0.016918	-0.277106
H137	H	0.588855	0.110852	-0.377670
H138	H	0.526205	0.249952	-0.386948
C139	C	0.676325	0.496960	-0.385875
C140	C	0.667299	0.588613	-0.380650
C141	C	0.703292	0.645411	-0.424655
C142	C	0.748312	0.610555	-0.473885
C143	C	0.757341	0.518897	-0.479112
C144	C	0.721347	0.462099	-0.435107
H145	H	0.633971	0.614420	-0.344205
H146	H	0.696609	0.713263	-0.420785
H147	H	0.774957	0.652600	-0.506460
H148	H	0.790669	0.493090	-0.515557
H149	H	0.728031	0.394247	-0.438977
C150	C	0.989743	0.280055	-0.935340
C151	C	1.033837	0.223319	-0.971343
C152	C	1.077934	0.166614	-0.935370
C153	C	1.077937	0.166646	-0.863395
C154	C	1.033841	0.223384	-0.827389
C155	C	0.989744	0.280089	-0.863361
H156	H	1.033836	0.223294	-1.024627
H157	H	1.110576	0.124613	-0.962025
H158	H	1.110580	0.124669	-0.836767
H159	H	1.033841	0.223409	-0.774105
H160	H	0.957102	0.322090	-0.836706
H161	H	0.914570	0.256617	-0.742841
H162	H	0.978286	0.294726	-1.063397
H163	H	0.263314	0.294869	-0.229324
H164	H	0.144601	0.294878	-0.229324
C165	C	0.989734	0.280234	-0.531707
C166	C	0.962606	0.216942	-0.486714
C167	C	1.006702	0.160231	-0.450747
C168	C	1.077927	0.166812	-0.459773
C169	C	1.105060	0.230106	-0.504768
C170	C	1.060963	0.286817	-0.540735
H171	H	0.909877	0.212068	-0.480030
H172	H	0.986617	0.113377	-0.417439
H173	H	1.110570	0.124831	-0.433149
H174	H	1.157788	0.234980	-0.511452
H175	H	1.081048	0.333672	-0.574043
C176	C	0.989740	0.280184	-0.669120
C177	C	1.038913	0.315126	-0.714125
C178	C	1.083019	0.258406	-0.750135
C179	C	1.077952	0.166744	-0.741139
C180	C	1.028778	0.131799	-0.696132
C181	C	0.984672	0.188518	-0.660122
H182	H	1.042665	0.382983	-0.720785
H183	H	1.119421	0.284275	-0.783452
H184	H	1.110602	0.124757	-0.767796
H185	H	1.025026	0.063941	-0.689472
H186	H	0.948270	0.162649	-0.626805
C187	C	0.916005	0.235800	-0.870897
C188	C	0.916014	0.235764	-0.942872
C189	C	0.921504	0.155837	-0.978858
C190	C	0.926985	0.075946	-0.942868
C191	C	0.926976	0.075979	-0.870889
C192	C	0.921486	0.155907	-0.834904
H193	H	0.911957	0.294907	-0.969517
H194	H	0.921511	0.155813	-1.032142
H195	H	0.931049	0.016779	-0.969507
H196	H	0.931033	0.016837	-0.844244
H197	H	0.921479	0.155931	-0.781620
C198	C	0.821362	0.496550	-1.072689
C199	C	0.821361	0.496522	-1.144665
C200	C	0.777260	0.553223	-1.180636
C201	C	0.733161	0.609952	-1.144633
C202	C	0.733160	0.609982	-1.072654
C203	C	0.777261	0.553281	-1.036682
H204	H	0.854007	0.454526	-1.171320
H205	H	0.777261	0.553201	-1.233920
H206	H	0.700515	0.651925	-1.171261
H207	H	0.700514	0.651978	-1.045998
H208	H	0.777260	0.553303	-0.983398
C209	C	0.821355	0.496603	-0.935287
C210	C	0.772173	0.461668	-0.890290
C211	C	0.728059	0.518392	-0.854294
C212	C	0.733127	0.610052	-0.863295
C213	C	0.782311	0.644992	-0.908294
C214	C	0.826425	0.588268	-0.944290
H215	H	0.768419	0.393811	-0.883625
H216	H	0.691650	0.492526	-0.820982
H217	H	0.700471	0.652043	-0.836649
H218	H	0.786064	0.712849	-0.914959
H219	H	0.862834	0.614134	-0.977602
