data_functionalizedCrystal
_audit_creation_method	'MofGen! by Chris Wilmer'
_symmetry_space_group_name_H-M	'P1'
_symmetry_Int_Tables_number	1
_symmetry_cell_setting	triclinic
loop_
_symmetry_equiv_pos_as_xyz
  x,y,z
_cell_length_a	15.944551
_cell_length_b	13.339070
_cell_length_c	12.376897
_cell_angle_alpha	99.011576
_cell_angle_beta	102.660398
_cell_angle_gamma	99.564016
loop_
_atom_site_label
_atom_site_type_symbol
_atom_site_fract_x
_atom_site_fract_y
_atom_site_fract_z
O1	O	-1.126550	-0.113177	0.093876
O2	O	-0.885744	-0.129258	0.093903
O3	O	-0.978511	0.026048	0.093889
O4	O	-1.033783	-0.268483	0.093890
O5	O	-1.015298	-0.008585	-0.094113
O6	O	-0.922531	-0.163891	-0.094099
O7	O	-1.163338	-0.147810	-0.094126
Zn8	Zn	-1.048775	-0.161349	-0.123962
Zn9	Zn	-1.000306	-0.115719	0.123739
O10	O	-1.070571	-0.303116	-0.094112
C11	C	-0.987567	0.046422	-0.000109
C12	C	-0.959736	0.158727	-0.000101
C13	C	-0.872687	-0.145906	-0.000094
C14	C	-0.778972	-0.143902	-0.000083
C15	C	-1.176394	-0.131162	-0.000126
C16	C	-1.270107	-0.133164	-0.000129
C17	C	-0.540574	-0.042853	-0.000106
C18	C	-0.472350	-0.072703	0.092589
C19	C	-0.607405	-0.140283	-0.000097
C20	C	-0.508647	-0.106871	-0.092766
C21	C	-0.441679	-0.136780	-0.000115
C22	C	-0.540401	-0.170145	0.092675
C23	C	-0.576717	-0.204315	-0.092764
C24	C	-0.508523	-0.234231	-0.000046
C25	C	-0.702875	-0.142297	-0.000086
C26	C	-0.346210	-0.134772	-0.000118
C27	C	-1.061513	-0.323489	-0.000111
C28	C	-1.089344	-0.435793	-0.000112
N29	N	-1.081860	-0.192490	-0.293011
C30	C	-1.176133	0.523500	-0.000126
C31	C	-1.202286	0.417983	-0.000140
C32	C	-1.141651	0.353164	-0.000130
C33	C	-1.054858	0.393872	-0.000107
C34	C	-1.028704	0.499398	-0.000102
C35	C	-0.994221	0.329062	-0.000106
C36	C	-0.907428	0.369769	-0.000083
C37	C	-0.881279	0.475285	-0.000077
C38	C	-0.941914	0.540104	-0.000087
C39	C	-1.020375	0.223536	-0.000111
C40	C	-0.872946	0.199433	-0.000086
C41	C	-0.846793	0.304950	-0.000073
C42	C	-0.890393	-0.012274	-0.648049
C43	C	-0.867223	0.009524	-0.529716
C44	C	-0.920880	-0.040978	-0.470534
C45	C	-0.997712	-0.113281	-0.529697
C46	C	-1.020888	-0.135075	-0.648042
C47	C	-1.051375	-0.163779	-0.470526
C48	C	-1.128206	-0.236082	-0.529689
C49	C	-1.151378	-0.257873	-0.648022
C50	C	-1.097721	-0.207371	-0.707204
C51	C	-1.028199	-0.141985	-0.352181
C52	C	-1.158693	-0.264786	-0.352174
C53	C	-1.181863	-0.286584	-0.470507
N54	N	-0.967226	-0.084570	0.292788
H55	H	-0.427303	-0.017057	0.170956
N56	N	-0.832533	0.042182	-0.711891
H57	H	-0.772029	0.026067	-0.691315
H58	H	-0.827991	0.119551	-0.691270
H59	H	-0.621778	-0.259927	-0.171134
N60	N	-0.784360	0.087503	-0.465920
H61	H	-0.731923	0.063800	-0.486527
H62	H	-0.777896	0.093624	-0.381992
N63	N	-0.807532	0.129541	-0.000068
H64	H	-0.784392	0.129798	-0.069756
H65	H	-0.837319	0.056555	-0.000027
N66	N	-0.559727	0.064282	0.000000
H67	H	-0.547442	0.088712	-0.069293
H68	H	-0.521085	0.113796	0.070131
H69	H	-1.162950	0.267248	-0.000141
H70	H	-1.116580	-0.225120	-0.803561
N71	N	-1.295892	0.374077	-0.000170
H72	H	-1.330336	0.431148	-0.000174
H73	H	-1.296322	0.343654	0.069519
N74	N	-1.264734	-0.364562	-0.534313
H75	H	-1.249313	-0.423092	-0.583421
H76	H	-1.305167	-0.329506	-0.583336
N77	N	-1.216573	-0.319255	-0.288351
H78	H	-1.181923	-0.359703	-0.239262
H79	H	-1.268755	-0.368303	-0.343855
H80	H	-0.494214	-0.315165	0.000006
N81	N	-0.559241	-0.205547	0.196596
H82	H	-0.622836	-0.206645	0.195980
H83	H	-0.520105	-0.156121	0.266466
H84	H	-0.494288	-0.080080	-0.171129
H85	H	-0.902010	-0.023226	-0.374181
H86	H	-1.091043	0.190402	-0.000130
N87	N	-1.241530	0.593404	-0.000157
H88	H	-1.211791	0.666425	-0.000157
H89	H	-1.264661	0.593070	0.069528
H90	H	-0.920624	0.626027	-0.000072
N91	N	-0.787675	0.519189	-0.000085
H92	H	-0.753230	0.462118	-0.000083
H93	H	-0.759970	0.575286	0.069607
H94	H	-1.213944	-0.316738	-0.696190
N95	N	-0.753183	0.348853	-0.000056
H96	H	-0.725413	0.404933	0.069639
H97	H	-0.752755	0.379201	-0.069792
H98	H	-0.965642	-0.083116	-0.304022
