data_functionalizedCrystal
_audit_creation_method	'MofGen! by Chris Wilmer'
_symmetry_space_group_name_H-M	'P1'
_symmetry_Int_Tables_number	1
_symmetry_cell_setting	triclinic
loop_
_symmetry_equiv_pos_as_xyz
  x,y,z
_cell_length_a	12.827893
_cell_length_b	18.050589
_cell_length_c	12.827885
_cell_angle_alpha	89.970449
_cell_angle_beta	89.980728
_cell_angle_gamma	90.028191
loop_
_atom_site_label
_atom_site_type_symbol
_atom_site_fract_x
_atom_site_fract_y
_atom_site_fract_z
Zn1	Zn	1.597576	-0.295624	-0.590850
Zn2	Zn	1.597431	-0.419832	-0.416111
Zn3	Zn	1.422818	-0.295660	-0.416124
Zn4	Zn	1.422764	-0.419777	-0.590811
O5	O	1.510147	-0.357723	-0.503474
O6	O	1.743793	-0.312109	-0.567682
O7	O	1.574230	-0.403399	-0.269877
O8	O	1.446083	-0.191731	-0.439323
O9	O	1.743687	-0.403364	-0.439302
O10	O	1.574478	-0.191704	-0.567694
O11	O	1.445943	-0.312170	-0.269886
O12	O	1.276575	-0.312117	-0.439286
O13	O	1.445991	-0.403269	-0.737053
O14	O	1.276535	-0.403304	-0.567628
O15	O	1.574425	-0.312055	-0.737081
O16	O	1.574178	-0.523749	-0.439264
O17	O	1.445851	-0.523709	-0.567615
C18	C	1.238638	-0.357709	-0.503454
C19	C	1.122484	-0.357721	-0.503471
C20	C	1.510021	-0.550675	-0.503457
C21	C	1.510063	-0.633221	-0.503484
C22	C	1.070708	-0.402914	-0.566880
C23	C	0.950657	-0.402927	-0.566899
C24	C	1.440347	-0.832677	-0.573257
C25	C	1.414870	-0.882124	-0.477900
C26	C	1.510166	-0.784351	-0.503498
C27	C	1.535694	-0.881986	-0.598866
C28	C	1.510263	-0.930337	-0.503520
C29	C	1.484639	-0.832712	-0.408091
C30	C	1.605506	-0.832569	-0.529120
C31	C	1.580066	-0.881994	-0.433698
C32	C	1.510107	-0.700253	-0.503487
C33	C	1.510322	-1.014433	-0.503520
C34	C	1.782718	-0.357738	-0.503495
C35	C	1.898871	-0.357745	-0.503504
C36	C	1.510219	-0.357652	-0.776045
C37	C	1.510249	-0.357622	-0.892198
C38	C	1.510303	-0.164018	-0.503515
C39	C	1.510369	-0.081472	-0.503532
C40	C	1.573809	-0.312477	-0.943997
C41	C	1.573842	-0.312444	-1.064047
C42	C	1.510137	-0.357741	-0.231964
C43	C	1.510309	-0.357562	-0.115812
H44	H	0.906131	-0.441621	-0.621183
H45	H	1.455850	-0.396243	-0.936728
H46	H	0.943391	-0.319054	-0.449210
C47	C	1.647292	-0.260296	-0.883851
H48	H	1.637636	-0.267167	-0.811054
H49	H	1.632065	-0.210380	-0.901695
H50	H	1.717522	-0.271160	-0.901689
H51	H	1.686069	-0.810788	-0.550818
C52	C	1.306014	-0.911534	-0.448623
H53	H	1.310811	-0.940508	-0.386963
H54	H	1.279816	-0.941227	-0.503845
H55	H	1.260258	-0.871004	-0.436984
C56	C	1.130879	-0.455171	-0.640204
H57	H	1.203673	-0.448310	-0.630568
H58	H	1.113081	-0.444376	-0.710462
H59	H	1.113014	-0.505073	-0.624802
H60	H	1.077936	-0.319036	-0.449201
H61	H	1.381217	-0.811021	-0.632167
C62	C	1.647360	-0.260232	-1.124216
H63	H	1.637735	-0.267058	-1.197010
H64	H	1.717575	-0.271099	-1.106379
H65	H	1.632113	-0.210323	-1.106392
H66	H	1.455894	-0.396217	-1.071273
H67	H	1.639151	-0.903512	-0.374645
C68	C	1.455386	-0.803599	-0.299122
H69	H	1.455491	-0.750969	-0.299789
H70	H	1.504701	-0.820878	-0.249534
H71	H	1.387898	-0.820980	-0.280827
C72	C	1.564816	-0.911224	-0.707803
H73	H	1.515106	-0.894329	-0.757271
H74	H	1.565269	-0.963846	-0.706881
H75	H	1.632034	-0.893521	-0.726475
