data_functionalizedCrystal
_audit_creation_method	'MofGen! by Chris Wilmer'
_symmetry_space_group_name_H-M	'P1'
_symmetry_Int_Tables_number	1
_symmetry_cell_setting	triclinic
loop_
_symmetry_equiv_pos_as_xyz
  x,y,z
_cell_length_a	6.817900
_cell_length_b	17.982723
_cell_length_c	17.982968
_cell_angle_alpha	95.930238
_cell_angle_beta	102.451960
_cell_angle_gamma	102.447564
loop_
_atom_site_label
_atom_site_type_symbol
_atom_site_fract_x
_atom_site_fract_y
_atom_site_fract_z
V1	V	-4.009918	-0.106128	-0.237875
O2	O	-4.003034	0.004365	-0.233013
O3	O	-3.956470	-0.209727	-0.236568
O4	O	-3.956489	-0.104817	-0.341474
O5	O	-4.003015	-0.101270	-0.127382
V6	V	-4.494852	-0.092873	-0.224620
O7	O	-4.268082	-0.135202	-0.266950
O8	O	-4.686885	-0.063799	-0.195544
O9	O	-4.325093	0.010726	-0.225926
O10	O	-4.619133	-0.203367	-0.229481
O11	O	-4.619152	-0.097731	-0.335113
O12	O	-4.325074	-0.094184	-0.121021
C13	C	-3.800406	-0.234972	-0.232898
C14	C	-3.837959	-0.319668	-0.232521
C15	C	-3.800429	-0.101149	-0.366715
C16	C	-3.837995	-0.100763	-0.451410
C17	C	-4.250276	-0.843438	-0.233974
C18	C	-4.214981	-0.763858	-0.234332
C19	C	-4.015595	-0.720179	-0.230698
C20	C	-3.851491	-0.756083	-0.226698
C21	C	-3.886785	-0.835662	-0.226334
C22	C	-3.709150	-0.435153	-0.228163
C23	C	-3.673869	-0.355570	-0.228529
C24	C	-4.037346	-0.363349	-0.236160
C25	C	-4.072640	-0.442927	-0.235797
C26	C	-3.908532	-0.478824	-0.231793
C27	C	-3.946804	-0.565114	-0.231403
C28	C	-3.977324	-0.633891	-0.231093
C29	C	-4.037378	-0.104400	-0.495092
C30	C	-4.072664	-0.104037	-0.574672
C31	C	-3.908566	-0.100043	-0.610568
C32	C	-3.709166	-0.096403	-0.566879
C33	C	-3.673880	-0.096761	-0.487300
C34	C	-3.851463	-0.094960	-0.887811
C35	C	-3.886767	-0.094606	-0.967397
C36	C	-4.250247	-0.102236	-0.975183
C37	C	-4.214961	-0.102594	-0.895605
C38	C	-4.015563	-0.098951	-0.851922
C39	C	-3.977304	-0.099343	-0.765632
C40	C	-3.946825	-0.099656	-0.696857
C41	C	-4.144500	0.035967	-0.229594
C42	C	-4.086184	0.120662	-0.229976
C43	C	-4.144477	-0.097855	-0.095776
C44	C	-4.086149	-0.098237	-0.011080
H45	H	-4.412637	-0.878997	-0.236937
F46	F	-3.534521	-0.092152	-0.605084
F47	F	-3.712135	-0.873868	-0.222079
H48	H	-3.753126	-0.091351	-0.996620
F49	F	-4.284876	-0.107915	-0.621161
H50	H	-4.348605	-0.734633	-0.237590
F51	F	-4.284851	-0.489410	-0.239668
F52	F	-3.461668	-0.092884	-0.440809
H53	H	-4.412608	-0.105200	-1.010759
F54	F	-4.389621	-0.106849	-0.857406
H55	H	-3.575513	-0.464369	-0.224893
H56	H	-3.689121	-0.092021	-0.852259
H57	H	-4.170965	-0.334112	-0.239417
F58	F	-4.212044	-0.108656	-0.456897
H59	H	-3.511499	-0.320008	-0.225570
H60	H	-3.689143	-0.720513	-0.223734
