data_functionalizedCrystal
_audit_creation_method	'MofGen! by Chris Wilmer'
_symmetry_space_group_name_H-M	'P1'
_symmetry_Int_Tables_number	1
_symmetry_cell_setting	triclinic
loop_
_symmetry_equiv_pos_as_xyz
  x,y,z
_cell_length_a	16.109301
_cell_length_b	16.109301
_cell_length_c	14.586319
_cell_angle_alpha	90.003802
_cell_angle_beta	90.000787
_cell_angle_gamma	83.461532
loop_
_atom_site_label
_atom_site_type_symbol
_atom_site_fract_x
_atom_site_fract_y
_atom_site_fract_z
O1	O	-1.103131	-0.106866	-0.076182
O2	O	-0.603131	0.393134	0.423818
O3	O	-0.861069	-0.120165	-0.076197
O4	O	-0.361069	0.379835	0.423803
O5	O	-0.988749	0.007515	-0.076183
O6	O	-0.488749	0.507515	0.423817
O7	O	-0.975450	-0.234547	-0.076196
O8	O	-0.475450	0.265453	0.423804
O9	O	-0.988741	0.007517	0.076298
O10	O	-0.488741	0.507517	0.576298
O11	O	-0.861060	-0.120164	0.076284
O12	O	-0.361060	0.379836	0.576284
O13	O	-1.103122	-0.106864	0.076298
O14	O	-0.603122	0.393136	0.576298
Cu15	Cu	-0.982090	-0.113514	0.090214
Cu16	Cu	-0.482090	0.386486	0.590214
Cu17	Cu	-0.982101	-0.113516	-0.090112
Cu18	Cu	-0.482101	0.386484	0.409888
O19	O	-0.975441	-0.234545	0.076285
O20	O	-0.475441	0.265455	0.576285
C21	C	-0.830090	-0.119626	0.000042
C22	C	-0.330090	0.380374	0.500042
C23	C	-0.737794	-0.118011	0.000036
C24	C	-0.237794	0.381989	0.500036
N25	N	-0.982089	-0.113512	0.217046
N26	N	-0.482089	0.386488	0.717046
C27	C	-0.988206	0.038491	0.000057
C28	C	-0.488206	0.538491	0.500057
C29	C	-0.986591	0.130786	0.000055
C30	C	-0.486591	0.630786	0.500055
C31	C	-1.134101	-0.107404	0.000058
C32	C	-0.634101	0.392596	0.500058
C33	C	-1.226397	-0.109019	0.000057
C34	C	-0.726397	0.390981	0.500057
C35	C	-0.515522	-0.190018	0.000043
C36	C	-0.015522	0.309982	0.500043
C37	C	-0.428802	-0.188494	0.000049
C38	C	0.071198	0.311506	0.500049
C39	C	-0.448676	-0.037006	0.000053
C40	C	0.051324	0.462994	0.500053
C41	C	-0.535395	-0.038530	0.000054
C42	C	-0.035395	0.461470	0.500054
C43	C	-0.568815	-0.115039	0.000044
C44	C	-0.068815	0.384961	0.500044
C45	C	-0.395376	-0.111990	0.000049
C46	C	0.104624	0.388010	0.500049
C47	C	-0.301350	-0.110337	0.000056
C48	C	0.198650	0.389663	0.500056
C49	C	-0.662847	-0.116693	0.000039
C50	C	-0.162847	0.383307	0.500039
C51	C	-0.975985	-0.265521	0.000043
C52	C	-0.475985	0.234479	0.500043
C53	C	-0.977600	-0.357816	0.000038
C54	C	-0.477600	0.142184	0.500038
C55	C	-1.057074	0.439785	0.000044
C56	C	-0.557074	0.939785	0.500044
C57	C	-1.058600	0.353064	0.000049
C58	C	-0.558600	0.853064	0.500049
C59	C	-0.907111	0.333191	0.000052
C60	C	-0.407111	0.833191	0.500052
C61	C	-0.905586	0.419910	0.000053
C62	C	-0.405586	0.919910	0.500053
C63	C	-0.980571	0.473205	0.000045
C64	C	-0.480571	0.973205	0.500045
C65	C	-0.983620	0.299766	0.000049
C66	C	-0.483620	0.799766	0.500049
C67	C	-0.985274	0.205740	0.000055
C68	C	-0.485274	0.705740	0.500055
C69	C	-0.978917	0.567237	0.000041
C70	C	-0.478917	1.067237	0.500041
N71	N	-0.982109	-0.113511	-0.216944
N72	N	-0.482109	0.386489	0.283056
C73	C	-1.038645	-0.056994	0.452058
C74	C	-0.538645	0.443006	0.952058
C75	C	-1.038647	-0.056992	0.548039
C76	C	-0.538647	0.443008	1.048039
C77	C	-0.925547	-0.170032	0.548037
C78	C	-0.425547	0.329968	1.048037
C79	C	-0.925541	-0.170030	0.452057
C80	C	-0.425541	0.329970	0.952057
C81	C	-0.982095	-0.113511	0.404070
C82	C	-0.482095	0.386489	0.904070
C83	C	-0.982103	-0.113512	0.596031
C84	C	-0.482103	0.386488	1.096031
C85	C	-0.982105	-0.113510	0.700098
C86	C	-0.482105	0.386490	1.200098
C87	C	-0.982092	-0.113512	0.299997
C88	C	-0.482092	0.386488	0.799997
H89	H	-0.542730	-0.252317	0.000042
H90	H	-0.042730	0.247683	0.500042
O91	O	-0.831317	0.452477	-0.000071
O92	O	-0.331317	0.952477	0.499929
C93	C	-0.741662	0.538811	-0.079092
C94	C	-0.241662	1.038811	0.420908
C95	C	-0.825803	0.502001	-0.079058
C96	C	-0.325803	1.002001	0.420942
H97	H	-0.737168	0.578845	-0.142956
H98	H	-0.237168	1.078845	0.357044
H99	H	-0.737149	0.578971	-0.015321
H100	H	-0.237149	1.078971	0.484679
H101	H	-0.688345	0.485811	-0.079049
H102	H	-0.188345	0.985811	0.420951
H103	H	-0.879167	0.554947	-0.079133
H104	H	-0.379167	1.054947	0.420867
H105	H	-0.830242	0.461819	-0.142823
H106	H	-0.330242	0.961819	0.357177
H107	H	-0.578788	0.022530	0.000057
H108	H	-0.078788	0.522530	0.500057
H109	H	-1.084694	-0.010969	0.587108
H110	H	-0.584694	0.489031	1.087108
H111	H	-1.118131	0.483175	0.000037
H112	H	-0.618131	0.983175	0.500037
H113	H	-1.084693	-0.010972	0.412990
H114	H	-0.584693	0.489028	0.912990
H115	H	-0.879488	-0.216053	0.412983
H116	H	-0.379488	0.283947	0.912983
H117	H	-0.879503	-0.216049	0.587117
H118	H	-0.379503	0.283951	1.087117
O119	O	-0.834352	0.281301	0.000013
O120	O	-0.334352	0.781301	0.500013
C121	C	-0.769561	0.138899	0.000062
C122	C	-0.269561	0.638899	0.500062
C123	C	-0.852024	0.197566	0.000089
C124	C	-0.352024	0.697566	0.500089
H125	H	-0.783820	0.071187	0.000143
H126	H	-0.283820	0.571187	0.500143
H127	H	-0.731900	0.150984	-0.063765
H128	H	-0.231900	0.650984	0.436235
H129	H	-0.731909	0.151101	0.063861
H130	H	-0.231909	0.651101	0.563861
H131	H	-0.889742	0.185398	-0.063667
H132	H	-0.389742	0.685398	0.436333
H133	H	-0.889622	0.185468	0.063958
H134	H	-0.389622	0.685468	0.563958
H135	H	-0.385413	-0.249550	0.000050
H136	H	0.114587	0.250450	0.500050
H137	H	-1.120896	0.325859	0.000050
H138	H	-0.620896	0.825859	0.500050
O139	O	-0.416071	0.037239	0.000015
O140	O	0.083929	0.537239	0.500015
C141	C	-0.291285	0.106727	0.000066
C142	C	0.208715	0.606727	0.500066
C143	C	-0.328095	0.022586	0.000091
C144	C	0.171905	0.522586	0.500091
H145	H	-0.220152	0.094910	0.000147
H146	H	0.279848	0.594910	0.500147
H147	H	-0.313177	0.143788	-0.063761
H148	H	0.186823	0.643788	0.436239
H149	H	-0.313283	0.143781	0.063865
H150	H	0.186717	0.643781	0.563865
H151	H	-0.306114	-0.014535	-0.063665
H152	H	0.193886	0.485465	0.436335
H153	H	-0.306207	-0.014411	0.063960
H154	H	0.193793	0.485589	0.563960
