data_functionalizedCrystal
_audit_creation_method	'MofGen! by Chris Wilmer'
_symmetry_space_group_name_H-M	'P1'
_symmetry_Int_Tables_number	1
_symmetry_cell_setting	triclinic
loop_
_symmetry_equiv_pos_as_xyz
  x,y,z
_cell_length_a	9.065218
_cell_length_b	19.288865
_cell_length_c	18.366186
_cell_angle_alpha	89.993214
_cell_angle_beta	90.006491
_cell_angle_gamma	95.923934
loop_
_atom_site_label
_atom_site_type_symbol
_atom_site_fract_x
_atom_site_fract_y
_atom_site_fract_z
O1	O	1.956839	-0.101837	0.060561
O2	O	1.527261	-0.110191	0.060563
O3	O	1.754463	-0.004980	0.060548
O4	O	1.729637	-0.207048	0.060577
O5	O	1.754433	-0.004984	-0.060552
O6	O	1.527232	-0.110194	-0.060536
O7	O	1.956809	-0.101841	-0.060538
Zn8	Zn	1.742016	-0.106018	-0.079764
Zn9	Zn	1.742055	-0.106014	0.079789
O10	O	1.729608	-0.207052	-0.060523
C11	C	1.472288	-0.109390	0.000014
C12	C	1.308529	-0.106989	0.000014
C13	C	1.753649	0.020901	-0.000004
C14	C	1.751251	0.098023	-0.000010
N15	N	1.742000	-0.106021	-0.188655
C16	C	2.011782	-0.102642	0.000013
C17	C	2.175541	-0.105043	0.000018
C18	C	1.730421	-0.232933	0.000031
C19	C	1.732819	-0.310055	0.000042
C20	C	1.884563	0.141684	-0.000015
C21	C	1.882310	0.214149	-0.000003
C22	C	1.746738	0.242949	-0.000002
C23	C	1.613409	0.199278	0.000006
C24	C	1.615666	0.126815	0.000002
C25	C	1.640153	0.352062	-0.042420
C26	C	1.637902	0.424524	-0.042420
C27	C	1.739773	0.466448	0.000014
C28	C	1.843920	0.435903	0.042440
C29	C	1.846176	0.363440	0.042436
C30	C	1.744276	0.321522	0.000003
C31	C	1.870651	0.588685	0.000024
C32	C	1.868392	0.661150	0.000040
C33	C	1.599488	0.646278	0.000042
C34	C	1.601750	0.573814	0.000033
C35	C	1.737335	0.545022	0.000021
C36	C	1.831269	-0.148712	-0.773199
C37	C	1.831254	-0.148719	-0.696971
C38	C	1.742068	-0.106006	-0.658867
C39	C	1.652863	-0.063297	-0.696996
C40	C	1.652870	-0.063297	-0.773223
C41	C	1.738401	-0.043353	-0.538109
C42	C	1.738405	-0.043352	-0.461884
C43	C	1.742039	-0.106008	-0.423759
C44	C	1.745701	-0.168666	-0.461868
C45	C	1.745707	-0.168665	-0.538095
C46	C	1.742051	-0.106002	-0.576212
C47	C	1.831214	-0.148725	-0.302984
C48	C	1.831189	-0.148733	-0.226755
C49	C	1.652806	-0.063305	-0.226781
C50	C	1.652824	-0.063303	-0.303009
C51	C	1.742036	-0.106012	-0.341106
N52	N	1.742082	-0.106005	0.188681
H53	H	1.994967	0.118247	-0.000022
H54	H	1.503025	0.222732	0.000009
H55	H	1.926873	0.470037	0.076995
C56	C	2.015054	0.709178	0.000031
N57	N	2.125522	0.745354	0.000022
H58	H	1.580244	-0.028522	-0.665967
H59	H	1.990872	0.249704	-0.000004
H60	H	1.748685	-0.219683	-0.569120
H61	H	1.748661	-0.219686	-0.430828
H62	H	1.489102	0.669726	0.000046
H63	H	1.735434	0.007668	-0.430862
H64	H	1.903849	-0.183504	-0.334004
C65	C	1.929308	-0.195716	-0.184822
N66	N	2.003217	-0.231103	-0.153238
C67	C	1.469006	0.078785	0.000004
N68	N	1.358539	0.042608	0.000005
C69	C	1.554656	-0.016341	-0.184871
N70	N	1.480709	0.019025	-0.153300
H71	H	1.735428	0.007671	-0.569145
H72	H	1.903879	-0.183498	-0.665928
H73	H	1.580204	-0.028524	-0.334047
H74	H	1.580240	-0.028519	-0.804260
H75	H	1.981053	0.565241	0.000017
C76	C	1.960725	0.329842	0.089108
N77	N	2.047000	0.304536	0.124266
H78	H	1.493193	0.538264	0.000032
C79	C	1.523339	0.458117	-0.089089
N80	N	1.437044	0.483418	-0.124240
H81	H	1.557193	0.317933	-0.076979
H82	H	1.903910	-0.183490	-0.804213
