data_functionalizedCrystal
_audit_creation_method	'MofGen! by Chris Wilmer'
_symmetry_space_group_name_H-M	'P1'
_symmetry_Int_Tables_number	1
_symmetry_cell_setting	triclinic
loop_
_symmetry_equiv_pos_as_xyz
  x,y,z
_cell_length_a	15.298852
_cell_length_b	21.295419
_cell_length_c	15.296720
_cell_angle_alpha	99.657722
_cell_angle_beta	88.404329
_cell_angle_gamma	99.650947
loop_
_atom_site_label
_atom_site_type_symbol
_atom_site_fract_x
_atom_site_fract_y
_atom_site_fract_z
Zn1	Zn	-0.434016	-0.962250	0.435050
Zn2	Zn	-0.555143	-0.997576	0.263259
Zn3	Zn	-0.408743	-0.871626	0.288582
Zn4	Zn	-0.580472	-0.877726	0.409680
O5	O	-0.494593	-0.927295	0.349143
O6	O	-0.450060	-1.055021	0.412281
O7	O	-0.514546	-0.993100	0.144043
O8	O	-0.289534	-0.866312	0.329227
O9	O	-0.539052	-1.080974	0.286067
O10	O	-0.308102	-0.932893	0.436836
O11	O	-0.406986	-0.900565	0.162649
O12	O	-0.431547	-0.784351	0.304627
O13	O	-0.582221	-0.876707	0.535620
O14	O	-0.557715	-0.788832	0.393596
O15	O	-0.474621	-0.938807	0.554259
O16	O	-0.681064	-0.999014	0.261466
O17	O	-0.699673	-0.910960	0.369041
C18	C	-0.494638	-0.763753	0.349107
C19	C	-0.494681	-0.693790	0.349108
C20	C	-0.448451	-0.647436	0.414898
C21	C	-0.448431	-0.581690	0.414904
C22	C	-0.494658	-0.562302	0.349126
C23	C	-0.540890	-0.608665	0.283325
C24	C	-0.540902	-0.674409	0.283316
N25	N	-0.570113	-0.470583	0.329036
N26	N	-0.570100	-0.408128	0.329050
C27	C	-0.494624	-0.364221	0.349149
N28	N	-0.419162	-0.385125	0.369250
N29	N	-0.419176	-0.447585	0.369240
C30	C	-0.494650	-0.491016	0.349129
C31	C	-0.448367	-0.246577	0.414948
C32	C	-0.448345	-0.180831	0.414948
C33	C	-0.540812	-0.207807	0.283373
C34	C	-0.540826	-0.273552	0.283370
C35	C	-0.494606	-0.292933	0.349162
C36	C	-0.722151	-0.959497	0.309772
C37	C	-0.819506	-0.973329	0.292958
C38	C	-1.132780	-0.828845	0.469398
C39	C	-1.041311	-0.815850	0.485201
C40	C	-0.985855	-0.855219	0.437142
C41	C	-1.021877	-0.907584	0.373276
C42	C	-1.113356	-0.920582	0.357476
C43	C	-0.966431	-0.946956	0.325220
C44	C	-1.002453	-0.999321	0.261354
C45	C	-1.093923	-1.012317	0.245557
C46	C	-1.149378	-0.972949	0.293616
C47	C	-0.874952	-0.933958	0.341020
C48	C	-0.855528	-1.025695	0.229098
C49	C	-0.946997	-1.038689	0.213295
C50	C	-0.266151	-0.894981	0.388687
C51	C	-0.168802	-0.881211	0.405538
C52	C	-0.534066	-0.904497	0.577610
C53	C	-0.550886	-0.894782	0.674970
C54	C	-0.494560	-0.091477	0.349173
C55	C	-0.494571	-0.161447	0.349169
C56	C	-0.455212	-0.950031	0.121575
C57	C	-0.438144	-0.959833	0.024259
C58	C	-0.374220	-0.996731	0.988227
C59	C	-0.358418	-1.005863	0.896753
C60	C	-0.406533	-0.978094	0.841302
C61	C	-0.470454	-0.941191	0.877335
C62	C	-0.486263	-0.932062	0.968817
C63	C	-0.518576	-0.913424	0.821893
C64	C	-0.582497	-0.876521	0.857926
C65	C	-0.598303	-0.867394	0.949400
C66	C	-0.550187	-0.895164	1.004850
C67	C	-0.502767	-0.922553	0.730411
C68	C	-0.614810	-0.857883	0.711002
C69	C	-0.630613	-0.848751	0.802476
H70	H	-0.578451	-0.192022	0.229815
H71	H	-0.410780	-0.543942	0.468477
H72	H	-0.410726	-0.262357	0.468516
Br73	Br	-0.603563	-0.336464	0.194073
H74	H	-0.563050	-0.887730	1.079336
H75	H	-0.393663	-0.985531	0.766821
Br76	Br	-1.273527	-0.990604	0.272206
Br77	Br	-0.995895	-1.109755	0.126624
H78	H	-1.177940	-0.796800	0.508525
Br79	Br	-0.826077	-0.862894	0.427693
H80	H	-0.410693	-0.143089	0.468521
H81	H	-0.911378	-0.844635	0.450012
Br82	Br	-1.142811	-1.083393	0.158897
H83	H	-0.578527	-0.592875	0.229768
Br84	Br	-0.992430	-0.744790	0.571876
H85	H	-0.810377	-1.057753	0.189966
H86	H	-0.650359	-0.837351	0.978733
H87	H	-0.450721	-0.952599	0.701083
Br88	Br	-0.271674	-1.055945	0.847856
Br89	Br	-0.603642	-0.737322	0.194020
H90	H	-0.335056	-1.019342	1.033381
Br91	Br	-0.717360	-0.798670	0.851388
H92	H	-0.410814	-0.663211	0.468471
Br93	Br	-0.680122	-0.820200	0.635754
