data_functionalizedCrystal
_audit_creation_method	'MofGen! by Chris Wilmer'
_symmetry_space_group_name_H-M	'P1'
_symmetry_Int_Tables_number	1
_symmetry_cell_setting	triclinic
loop_
_symmetry_equiv_pos_as_xyz
  x,y,z
_cell_length_a	13.339070
_cell_length_b	19.288865
_cell_length_c	18.366186
_cell_angle_alpha	89.988521
_cell_angle_beta	90.008803
_cell_angle_gamma	80.617229
loop_
_atom_site_label
_atom_site_type_symbol
_atom_site_fract_x
_atom_site_fract_y
_atom_site_fract_z
O1	O	1.340704	-0.347912	0.060609
O2	O	1.840704	0.152088	0.560609
O3	O	1.046385	-0.302246	0.060601
O4	O	1.546385	0.197754	0.560601
O5	O	1.202049	-0.225606	0.060591
O6	O	1.702049	0.274394	0.560591
O7	O	1.185040	-0.424552	0.060619
O8	O	1.685040	0.075448	0.560619
O9	O	1.202022	-0.225596	-0.060509
O10	O	1.702022	0.274404	0.439491
O11	O	1.046358	-0.302236	-0.060499
O12	O	1.546358	0.197764	0.439501
O13	O	1.340677	-0.347901	-0.060490
O14	O	1.840677	0.152099	0.439510
Zn15	Zn	1.193514	-0.325067	-0.079722
Zn16	Zn	1.693514	0.174933	0.420278
Zn17	Zn	1.193548	-0.325081	0.079832
Zn18	Zn	1.693548	0.174919	0.579832
O19	O	1.185014	-0.424542	-0.060480
O20	O	1.685014	0.075458	0.439520
C21	C	1.008718	-0.294527	0.000050
C22	C	1.508718	0.205473	0.500050
C23	C	0.896521	-0.271535	0.000046
C24	C	1.396521	0.228465	0.500046
C25	C	1.201488	-0.199618	0.000039
C26	C	1.701488	0.300382	0.500039
C27	C	1.199845	-0.122194	0.000032
C28	C	1.699845	0.377806	0.500032
N29	N	1.193497	-0.325059	-0.188613
N30	N	1.693497	0.174941	0.311387
C31	C	0.530913	-0.450315	0.000083
C32	C	1.030913	0.049685	0.500083
C33	C	0.636327	-0.471920	0.000089
C34	C	1.136327	0.028080	0.500089
C35	C	0.701381	-0.421825	0.000078
C36	C	1.201381	0.078175	0.500078
C37	C	0.661010	-0.350122	0.000061
C38	C	1.161010	0.149878	0.500061
C39	C	0.555585	-0.328515	0.000061
C40	C	1.055585	0.171485	0.500061
C41	C	0.726053	-0.300025	0.000056
C42	C	1.226053	0.199975	0.500056
C43	C	0.685682	-0.228322	0.000039
C44	C	1.185682	0.271678	0.500039
C45	C	0.580267	-0.206719	0.000039
C46	C	1.080267	0.293281	0.500039
C47	C	0.515214	-0.256813	0.000050
C48	C	1.015214	0.243187	0.500050
C49	C	0.831477	-0.321633	0.000056
C50	C	1.331477	0.178367	0.500056
C51	C	0.856149	-0.199833	0.000034
C52	C	1.356149	0.300167	0.500034
C53	C	0.750735	-0.178228	0.000028
C54	C	1.250735	0.321772	0.500028
C55	C	1.378345	-0.355620	0.000063
C56	C	1.878345	0.144380	0.500063
C57	C	1.490542	-0.378613	0.000071
C58	C	1.990542	0.121387	0.500071
C59	C	1.185574	-0.450530	0.000073
C60	C	1.685574	0.049470	0.500073
C61	C	1.187217	-0.527954	0.000085
C62	C	1.687217	-0.027954	0.500085
C63	C	1.291182	-0.095296	0.000032
C64	C	1.791182	0.404704	0.500032
C65	C	1.289638	-0.022549	0.000043
C66	C	1.789638	0.477451	0.500043
C67	C	1.196753	0.023300	0.000041
C68	C	1.696753	0.523300	0.500041
C69	C	1.105405	-0.003605	0.000046
C70	C	1.605405	0.496395	0.500046
C71	C	1.106951	-0.076352	0.000042
C72	C	1.606951	0.423648	0.500042
C73	C	1.123725	0.145820	-0.042380
C74	C	1.623725	0.645820	0.457620
C75	C	1.122183	0.218565	-0.042380
C76	C	1.622183	0.718565	0.457620
C77	C	1.191981	0.247675	0.000057
C78	C	1.691981	0.747675	0.500057
C79	C	1.263338	0.204030	0.042485
C80	C	1.763338	0.704030	0.542485
C81	C	1.264884	0.131283	0.042481
C82	C	1.764884	0.631283	0.542481
C83	C	1.195067	0.102182	0.000046
C84	C	1.695067	0.602182	0.500046
C85	C	1.281650	0.353454	0.000070
C86	C	1.781650	0.853454	0.500070
C87	C	1.280103	0.426203	0.000086
C88	C	1.780103	0.926203	0.500086
C89	C	1.095867	0.445145	0.000081
C90	C	1.595867	0.945145	0.500081
C91	C	1.097416	0.372397	0.000072
C92	C	1.597416	0.872397	0.500072
C93	C	1.190311	0.326555	0.000063
C94	C	1.690311	0.826555	0.500063
C95	C	1.262448	-0.291150	-0.226717
C96	C	1.762448	0.208850	0.273283
C97	C	1.262454	-0.291148	-0.302945
C98	C	1.762454	0.208852	0.197055
C99	C	1.193520	-0.325069	-0.341065
C100	C	1.693520	0.174931	0.158935
C101	C	1.124556	-0.358979	-0.302951
C102	C	1.624556	0.141021	0.197049
C103	C	1.124545	-0.358974	-0.226725
C104	C	1.624545	0.141026	0.273275
C105	C	1.179990	-0.385720	-0.461817
C106	C	1.679990	0.114280	0.038183
C107	C	1.180008	-0.385727	-0.538042
C108	C	1.680008	0.114273	-0.038042
C109	C	1.193549	-0.325083	-0.576173
C110	C	1.693549	0.174917	-0.076173
C111	C	1.207092	-0.264433	-0.538069
C112	C	1.707092	0.235567	-0.038069
C113	C	1.207081	-0.264428	-0.461843
C114	C	1.707081	0.235572	0.038157
C115	C	1.193524	-0.325078	-0.423720
C116	C	1.693524	0.174922	0.076280
C117	C	1.262510	-0.291169	-0.696933
C118	C	1.762510	0.208831	-0.196933
C119	C	1.262509	-0.291165	-0.773162
C120	C	1.762509	0.208835	-0.273162
C121	C	1.124616	-0.359003	-0.773167
C122	C	1.624616	0.140997	-0.273167
C123	C	1.124612	-0.359000	-0.696939
C124	C	1.624612	0.141000	-0.196939
C125	C	1.193564	-0.325085	-0.658826
C126	C	1.693564	0.174915	-0.158826
N127	N	1.193573	-0.325085	0.188723
N128	N	1.693573	0.174915	0.688723
H129	H	0.787213	-0.439421	0.000084
H130	H	1.287213	0.060579	0.500084
N131	N	0.401516	-0.233500	0.000046
N132	N	0.901516	0.266500	0.500046
H133	H	0.380964	-0.204381	-0.044850
H134	H	0.880964	0.295619	0.455150
H135	H	0.366504	-0.276145	0.000079
H136	H	0.866504	0.223855	0.500079
N137	N	1.336872	-0.254589	-0.655819
N138	N	1.836872	0.245411	-0.155819
H139	H	1.380549	-0.233102	-0.691528
H140	H	1.880549	0.266898	-0.191528
H141	H	1.298318	-0.216437	-0.624206
H142	H	1.798318	0.283563	-0.124206
N143	N	0.707188	-0.100893	0.000005
N144	N	1.207188	0.399107	0.500005
H145	H	0.630536	-0.094810	0.000005
H146	H	1.130536	0.405190	0.500005
H147	H	0.731009	-0.078073	0.044892
H148	H	1.231009	0.421927	0.544892
N149	N	0.679854	-0.549253	0.000102
N150	N	1.179854	-0.049253	0.500102
H151	H	0.723031	-0.560932	-0.044788
H152	H	1.223031	-0.060932	0.455212
H153	H	0.723001	-0.560887	0.045025
H154	H	1.223001	-0.060887	0.545025
N155	N	0.536716	-0.129384	0.000026
N156	N	1.036716	0.370616	0.500026
H157	H	0.560470	-0.106522	0.044912
H158	H	1.060470	0.393478	0.544912
H159	H	0.560453	-0.106576	-0.044901
H160	H	1.060453	0.393424	0.455099
N161	N	1.221686	-0.199017	-0.420747
N162	N	1.721686	0.300983	0.079253
H163	H	1.219628	-0.208220	-0.366673
H164	H	1.719628	0.291780	0.133327
H165	H	1.289573	-0.185809	-0.434063
H166	H	1.789573	0.314191	0.065937
H167	H	1.068396	-0.386587	-0.195700
H168	H	1.568396	0.113413	0.304300
N169	N	0.926301	-0.145795	0.000027
N170	N	1.426301	0.354205	0.500027
H171	H	0.999208	-0.170363	0.000027
H172	H	1.499208	0.329637	0.500027
H173	H	0.913250	-0.115421	-0.044870
H174	H	1.413250	0.384579	0.455130
N175	N	1.391371	-0.144739	0.000023
N176	N	1.891371	0.355261	0.500023
H177	H	1.448998	-0.116656	0.000025
H178	H	1.948998	0.383344	0.500025
H179	H	1.396039	-0.175347	0.044915
H180	H	1.896039	0.324653	0.544915
N181	N	1.341838	0.084208	0.088239
N182	N	1.841838	0.584208	0.588239
H183	H	1.385824	0.113682	0.115125
H184	H	1.885824	0.613682	0.615125
H185	H	1.305292	0.057840	0.124474
H186	H	1.805292	0.557840	0.624474
H187	H	0.864337	-0.380014	0.000067
H188	H	1.364337	0.119986	0.500067
H189	H	1.318654	-0.263548	-0.804187
H190	H	1.818654	0.236452	-0.304187
H191	H	0.477938	-0.491094	0.000098
H192	H	0.977938	0.008906	0.500098
N193	N	1.388154	0.006474	0.000044
N194	N	1.888154	0.506474	0.500044
H195	H	1.447236	-0.033605	0.000039
H196	H	1.947236	0.466395	0.500039
H197	H	1.391506	0.036257	-0.044849
H198	H	1.891506	0.536257	0.455151
N199	N	1.008427	-0.105359	0.000031
N200	N	1.508427	0.394641	0.500031
H201	H	1.004955	-0.135104	-0.044865
H202	H	1.504955	0.364896	0.455135
H203	H	1.005024	-0.135101	0.044948
H204	H	1.505024	0.364899	0.544948
N205	N	1.338631	0.235414	0.088258
N206	N	1.838631	0.735414	0.588258
H207	H	1.326824	0.288121	0.081828
H208	H	1.826824	0.788121	0.581828
H209	H	1.329464	0.223652	0.141176
H210	H	1.829464	0.723652	0.641176
N211	N	1.381837	0.304004	0.000063
N212	N	1.881837	0.804004	0.500063
H213	H	1.439466	0.332085	0.000070
H214	H	1.939466	0.832085	0.500070
H215	H	1.386500	0.273393	0.044952
H216	H	1.886500	0.773393	0.544952
N217	N	1.045227	0.265628	-0.088148
N218	N	1.545227	0.765628	0.411852
H219	H	0.974387	0.260277	-0.072307
H220	H	1.474387	0.760277	0.427693
H221	H	1.054927	0.316109	-0.081698
H222	H	1.554927	0.816109	0.418302
N223	N	1.050256	-0.395583	-0.814271
N224	N	1.550256	0.104417	-0.314271
H225	H	1.060722	-0.390439	-0.868343
H226	H	1.560722	0.109561	-0.368343
H227	H	1.061698	-0.447069	-0.800933
H228	H	1.561698	0.052931	-0.300933
H229	H	1.354483	0.448100	0.000089
H230	H	1.854483	0.948100	0.500089
N231	N	1.048443	0.114437	-0.088169
N232	N	1.548443	0.614437	0.411831
H233	H	1.086204	0.080451	-0.124450
H234	H	1.586204	0.580451	0.375550
H235	H	1.005688	0.088745	-0.055636
H236	H	1.505688	0.588745	0.444364
H237	H	1.168986	-0.435113	-0.569060
H238	H	1.668986	0.064887	-0.069060
N239	N	1.336811	-0.254569	-0.185610
N240	N	1.836811	0.245431	0.314390
H241	H	1.380491	-0.233086	-0.221321
H242	H	1.880491	0.266914	0.278679
H243	H	1.298257	-0.216413	-0.154002
H244	H	1.798257	0.283587	0.345998
H245	H	1.020238	0.482474	0.000083
H246	H	1.520238	0.982474	0.500083
N247	N	0.998903	0.343380	0.000069
N248	N	1.498903	0.843380	0.500069
H249	H	0.939824	0.383461	0.000069
H250	H	1.439824	0.883461	0.500069
H251	H	0.995522	0.313622	-0.044826
H252	H	1.495522	0.813622	0.455174
H253	H	1.068470	-0.386615	-0.665912
H254	H	1.568470	0.113385	-0.165912
H255	H	1.218118	-0.215050	-0.569114
H256	H	1.718118	0.284950	-0.069114
N257	N	1.336822	-0.254571	-0.344057
N258	N	1.836822	0.245429	0.155943
H259	H	1.380499	-0.233085	-0.308346
H260	H	1.880499	0.266915	0.191654
H261	H	1.381378	-0.289775	-0.375665
H262	H	1.881378	0.210225	0.124335
N263	N	1.165386	-0.451133	-0.420693
N264	N	1.665386	0.048867	0.079307
H265	H	1.156819	-0.489556	-0.456396
H266	H	1.656819	0.010444	0.043604
H267	H	1.226765	-0.467038	-0.389054
H268	H	1.726765	0.032962	0.110946
H269	H	1.029777	0.033729	0.000046
H270	H	1.529777	0.533729	0.500046
N271	N	1.050199	-0.395561	-0.344061
N272	N	1.550199	0.104439	0.155939
H273	H	1.060670	-0.390420	-0.398133
H274	H	1.560670	0.109580	0.101867
H275	H	1.061639	-0.447045	-0.330721
H276	H	1.561639	0.052955	0.169279
