data_functionalizedCrystal
_audit_creation_method	'MofGen! by Chris Wilmer'
_symmetry_space_group_name_H-M	'P1'
_symmetry_Int_Tables_number	1
_symmetry_cell_setting	triclinic
loop_
_symmetry_equiv_pos_as_xyz
  x,y,z
_cell_length_a	11.792254
_cell_length_b	11.792241
_cell_length_c	13.330367
_cell_angle_alpha	89.995231
_cell_angle_beta	89.992500
_cell_angle_gamma	84.196007
loop_
_atom_site_label
_atom_site_type_symbol
_atom_site_fract_x
_atom_site_fract_y
_atom_site_fract_z
O1	O	1.506905	0.155636	-0.083423
O2	O	1.176566	0.171653	-0.083425
O3	O	1.349752	-0.001526	-0.083417
O4	O	1.333719	0.328815	-0.083431
O5	O	1.349727	-0.001530	0.083430
O6	O	1.176541	0.171649	0.083422
O7	O	1.506880	0.155632	0.083424
Cu8	Cu	1.341708	0.163640	0.098657
Cu9	Cu	1.341738	0.163645	-0.098659
O10	O	1.333694	0.328811	0.083416
C11	C	1.134263	0.170642	-0.000002
C12	C	1.008250	0.167622	-0.000003
C13	C	0.905913	0.165168	-0.000007
C14	C	0.777527	0.162100	-0.000007
C15	C	1.348732	-0.043819	0.000006
C16	C	1.345718	-0.169832	0.000005
C17	C	1.340175	-0.400545	-0.000012
C18	C	1.343255	-0.272160	-0.000003
C19	C	1.549183	0.156643	-0.000001
C20	C	1.675196	0.159663	-0.000007
C21	C	1.334714	0.371104	-0.000010
C22	C	1.337728	0.497118	-0.000015
N23	N	1.341695	0.163636	0.237439
N24	N	1.341760	0.163640	-0.237440
C25	C	1.265048	0.240298	0.710058
C26	C	1.418459	0.086983	0.710033
C27	C	1.418446	0.086979	0.605015
C28	C	1.341734	0.163638	0.552513
C29	C	1.265035	0.240299	0.605030
C30	C	1.495151	0.010327	0.552491
C31	C	1.495143	0.010321	0.447466
C32	C	1.418424	0.086975	0.394962
C33	C	1.341721	0.163639	0.447485
C34	C	1.265009	0.240297	0.394984
C35	C	1.188300	0.316956	0.447505
C36	C	1.188316	0.316953	0.552526
C37	C	1.418407	0.086978	0.289941
C38	C	1.264996	0.240298	0.289956
H39	H	1.202524	0.302719	0.247215
H40	H	1.557602	-0.052100	0.404709
H41	H	1.125845	0.379377	0.404746
C42	C	1.120237	0.385039	0.713527
C43	C	1.104014	0.401222	0.610259
H44	H	1.068199	0.437070	0.749169
H45	H	1.107444	0.309214	0.730744
H46	H	1.196067	0.397876	0.730703
H47	H	1.028186	0.388377	0.593082
H48	H	1.116798	0.477065	0.593036
C49	C	1.570055	-0.064560	0.300470
C50	C	1.502716	0.002721	0.232210
H51	H	1.622100	-0.116584	0.264828
H52	H	1.611169	-0.017032	0.341415
H53	H	1.522560	-0.105708	0.341451
H54	H	1.550211	0.043876	0.191233
H55	H	1.461599	-0.044812	0.191248
C56	C	1.483886	-0.109056	0.742374
C57	C	1.502767	0.002717	0.767745
H58	H	1.535938	-0.161082	0.778003
H59	H	1.408070	-0.121875	0.759601
H60	H	1.494864	-0.120018	0.672309
H61	H	1.491781	0.013682	0.837808
H62	H	1.578601	0.015540	0.750524
C63	C	1.691221	-0.055019	0.584795
C64	C	1.579461	-0.073949	0.610190
H65	H	1.743266	-0.107053	0.620422
H66	H	1.702185	-0.065980	0.514738
H67	H	1.704009	0.020813	0.602018
H68	H	1.566671	-0.149778	0.592961
H69	H	1.568492	-0.062997	0.680262
H70	H	1.202589	0.302710	0.752824
