data_functionalizedCrystal
_audit_creation_method	'MofGen! by Chris Wilmer'
_symmetry_space_group_name_H-M	'P1'
_symmetry_Int_Tables_number	1
_symmetry_cell_setting	triclinic
loop_
_symmetry_equiv_pos_as_xyz
  x,y,z
_cell_length_a	9.065215
_cell_length_b	19.188924
_cell_length_c	18.266242
_cell_angle_alpha	89.993436
_cell_angle_beta	90.004876
_cell_angle_gamma	95.921636
loop_
_atom_site_label
_atom_site_type_symbol
_atom_site_fract_x
_atom_site_fract_y
_atom_site_fract_z
O1	O	-1.956850	0.102361	-0.060873
O2	O	-1.527273	0.110760	-0.060877
O3	O	-1.754463	0.005001	-0.060866
O4	O	-1.729659	0.208120	-0.060884
O5	O	-1.754439	0.004998	0.060896
O6	O	-1.527248	0.110758	0.060885
O7	O	-1.956825	0.102359	0.060889
Zn8	Zn	-1.742033	0.106558	0.080219
Zn9	Zn	-1.742065	0.106561	-0.080207
O10	O	-1.729635	0.208118	0.060878
C11	C	-1.472302	0.109952	0.000003
C12	C	-1.308542	0.107540	0.000002
C13	C	-1.753649	-0.021018	0.000015
C14	C	-1.751243	-0.098541	0.000017
C15	C	-1.750134	-0.134947	-0.066355
C16	C	-1.747852	-0.207788	-0.066361
C17	C	-1.746709	-0.244221	0.000010
C18	C	-1.747811	-0.207805	0.066391
C19	C	-1.750078	-0.134965	0.066395
N20	N	-1.827091	-0.363261	0.049409
N21	N	-1.824940	-0.432456	0.049401
C22	C	-1.739876	-0.463683	0.000003
N23	N	-1.657062	-0.423102	-0.049398
N24	N	-1.659219	-0.353901	-0.049392
C25	C	-1.744250	-0.323203	0.000013
C26	C	-1.736290	-0.579071	-0.066381
C27	C	-1.733999	-0.651912	-0.066383
C28	C	-1.733973	-0.651929	0.066371
C29	C	-1.736249	-0.579089	0.066372
C30	C	-1.737415	-0.542664	-0.000006
C31	C	-1.011796	0.103167	0.000007
C32	C	-1.175555	0.105579	0.000002
C33	C	-1.730448	0.234136	-0.000005
C34	C	-1.732855	0.311660	-0.000012
N35	N	-1.742021	0.106555	0.189706
N36	N	-1.742088	0.106559	-0.189694
C37	C	-1.842690	0.059741	0.771988
C38	C	-1.842692	0.059743	0.695343
C39	C	-1.742066	0.106555	0.657019
C40	C	-1.641457	0.153381	0.695345
C41	C	-1.641467	0.153383	0.771989
N42	N	-1.611463	0.114589	0.536690
N43	N	-1.611457	0.114583	0.463882
C44	C	-1.742030	0.106553	0.426096
N45	N	-1.872613	0.098516	0.463869
N46	N	-1.872617	0.098518	0.536684
C47	C	-1.742044	0.106558	0.573912
C48	C	-1.842643	0.059735	0.304672
C49	C	-1.842646	0.059742	0.228025
C50	C	-1.641398	0.153376	0.228029
C51	C	-1.641407	0.153373	0.304674
C52	C	-1.742028	0.106549	0.342991
H53	H	-1.746939	-0.237435	-0.120411
H54	H	-1.559528	0.191497	0.664138
H55	H	-1.733088	-0.681552	-0.120434
H56	H	-1.924625	0.021616	0.803184
C57	C	-1.552067	0.194947	0.422163
C58	C	-1.530808	0.204830	0.346798
H59	H	-1.483790	0.226720	0.448167
H60	H	-1.536351	0.148251	0.434727
H61	H	-1.650474	0.203180	0.434708
H62	H	-1.432403	0.196592	0.334253
H63	H	-1.546512	0.251537	0.334230
C64	C	-1.874814	-0.035215	0.142053
C65	C	-1.953060	0.008112	0.185999
H66	H	-1.942930	-0.067135	0.116134
H67	H	-1.813385	-0.060560	0.172026
H68	H	-1.815078	-0.007331	0.108187
H69	H	-2.012788	-0.019771	0.219869
H70	H	-2.014515	0.033460	0.156023
C71	C	-2.043512	0.045896	0.390856
C72	C	-1.953252	0.008271	0.346793
H73	H	-2.111790	0.014122	0.416860
H74	H	-2.096378	0.075303	0.360951
H75	H	-1.983576	0.073772	0.424648
H76	H	-2.013187	-0.019601	0.312997
H77	H	-1.900382	-0.021147	0.376701
H78	H	-1.750975	-0.105324	0.120445
H79	H	-1.751078	-0.105295	-0.120405
C80	C	-1.618466	-0.282685	0.143393
C81	C	-1.746553	-0.247850	0.139348
H82	H	-1.617690	-0.307408	0.188434
H83	H	-1.533358	-0.249488	0.140635
H84	H	-1.617497	-0.314793	0.103859
H85	H	-1.747516	-0.215738	0.178879
H86	H	-1.831683	-0.281050	0.142113
H87	H	-1.559472	0.191494	0.196826
C88	C	-1.930113	-0.060550	0.671694
C89	C	-1.953271	0.008295	0.653187
H90	H	-1.998373	-0.092306	0.645659
H91	H	-1.944565	-0.067267	0.722813
H92	H	-1.831698	-0.068770	0.659150
H93	H	-2.051683	0.016516	0.665736
H94	H	-1.938831	0.015014	0.602057
C95	C	-1.606446	-0.667301	0.179511
C96	C	-1.732701	-0.691960	0.139333
H97	H	-1.605651	-0.692018	0.224555
H98	H	-1.607975	-0.618715	0.189003
H99	H	-1.520086	-0.674458	0.152227
H100	H	-1.819062	-0.684799	0.166615
H101	H	-1.731185	-0.740558	0.129843
H102	H	-1.559544	0.191508	0.803188
H103	H	-1.737165	-0.549447	0.120420
C104	C	-1.736069	-0.586366	-0.197601
C105	C	-1.737547	-0.539026	-0.139340
H106	H	-1.736834	-0.561644	-0.242643
H107	H	-1.821185	-0.619558	-0.194844
H108	H	-1.649168	-0.609994	-0.194835
H109	H	-1.824454	-0.515402	-0.142104
H110	H	-1.652423	-0.505822	-0.142099
