data_functionalizedCrystal
_audit_creation_method	'MofGen! by Chris Wilmer'
_symmetry_space_group_name_H-M	'P1'
_symmetry_Int_Tables_number	1
_symmetry_cell_setting	triclinic
loop_
_symmetry_equiv_pos_as_xyz
  x,y,z
_cell_length_a	12.759395
_cell_length_b	13.897447
_cell_length_c	12.759387
_cell_angle_alpha	89.968560
_cell_angle_beta	89.980569
_cell_angle_gamma	90.019375
loop_
_atom_site_label
_atom_site_type_symbol
_atom_site_fract_x
_atom_site_fract_y
_atom_site_fract_z
Zn1	Zn	1.606233	-0.383968	-0.593970
Zn2	Zn	1.606109	-0.545296	-0.418289
Zn3	Zn	1.430532	-0.384016	-0.418310
Zn4	Zn	1.430509	-0.545222	-0.593931
O5	O	1.518346	-0.464625	-0.506125
O6	O	1.753238	-0.405379	-0.570673
O7	O	1.582776	-0.523952	-0.271270
O8	O	1.453900	-0.249028	-0.441637
O9	O	1.753147	-0.523906	-0.441601
O10	O	1.582988	-0.248993	-0.570694
O11	O	1.453780	-0.405461	-0.271286
O12	O	1.283508	-0.405390	-0.441600
O13	O	1.453862	-0.523781	-0.740957
O14	O	1.283491	-0.523827	-0.570627
O15	O	1.582966	-0.405308	-0.740986
O16	O	1.582754	-0.680268	-0.441563
O17	O	1.453741	-0.680214	-0.570606
C18	C	1.245378	-0.464606	-0.506112
C19	C	1.128602	-0.464621	-0.506131
C20	C	1.128677	-0.341399	-0.640752
C21	C	1.073854	-0.279799	-0.708070
C22	C	0.964133	-0.279817	-0.708083
C23	C	0.909232	-0.341438	-0.640768
C24	C	0.964055	-0.403037	-0.573450
C25	C	1.073779	-0.403016	-0.573446
C26	C	0.963979	-0.526253	-0.438826
C27	C	1.073700	-0.526243	-0.438816
C28	C	0.909078	-0.587875	-0.371511
C29	C	0.963901	-0.649480	-0.304196
C30	C	1.073629	-0.649462	-0.304187
C31	C	1.128523	-0.587842	-0.371498
C32	C	1.518260	-0.715240	-0.506101
C33	C	1.518320	-0.822454	-0.506125
C34	C	1.518371	-0.909523	-0.506149
C35	C	1.518444	-1.018756	-0.506176
C36	C	1.792379	-0.464645	-0.506139
C37	C	1.909156	-0.464654	-0.506144
C38	C	1.518425	-0.464531	-0.780159
C39	C	1.518459	-0.464491	-0.896935
C40	C	1.518460	-0.213032	-0.506172
C41	C	1.518509	-0.105819	-0.506193
C42	C	1.652904	-0.341133	-0.896985
C43	C	1.720141	-0.279440	-0.951871
C44	C	1.720167	-0.279405	-1.061593
C45	C	1.652946	-0.341067	-1.116431
C46	C	1.585709	-0.402761	-1.061545
C47	C	1.585692	-0.402791	-0.951821
C48	C	1.451260	-0.526112	-1.061496
C49	C	1.451238	-0.526153	-0.951774
C50	C	1.384039	-0.587775	-1.116334
C51	C	1.316805	-0.649474	-1.061449
C52	C	1.316783	-0.649508	-0.951720
C53	C	1.384001	-0.587847	-0.896888
C54	C	1.518327	-0.464650	-0.233158
C55	C	1.518497	-0.464419	-0.116381
H56	H	0.919496	-0.229651	-0.762894
O57	O	1.235260	-0.341237	-0.640848
C58	C	1.392760	-0.273657	-0.714764
C59	C	1.272056	-0.273727	-0.714741
H60	H	1.422546	-0.219095	-0.774516
H61	H	1.422583	-0.253484	-0.633475
H62	H	1.422511	-0.348403	-0.736366
H63	H	1.242215	-0.199004	-0.693184
H64	H	1.242304	-0.293954	-0.796039
O65	O	1.127073	-0.219996	-0.773607
C66	C	1.160778	-0.173430	-0.952417
C67	C	1.100429	-0.241201	-0.878317
H68	H	1.139276	-0.190563	-1.037091
H69	H	1.139194	-0.095615	-0.934217
H70	H	1.248610	-0.183984	-0.940795
H71	H	1.012583	-0.230733	-0.889898
H72	H	1.122100	-0.318991	-0.896535
H73	H	0.819737	-0.587882	-0.371524
O74	O	0.910409	-0.709301	-0.238912
C75	C	0.741337	-0.763883	-0.179213
C76	C	0.801790	-0.696102	-0.253217
H77	H	0.653508	-0.753221	-0.190737
H78	H	0.762817	-0.841703	-0.197510
H79	H	0.762945	-0.746857	-0.094540
H80	H	0.780215	-0.713042	-0.337915
H81	H	0.780305	-0.618302	-0.234829
H82	H	1.262019	-0.699735	-0.907039
O83	O	1.785327	-0.219409	-0.898645
C84	C	1.836463	-0.055356	-0.865160
C85	C	1.762562	-0.123230	-0.925481
H86	H	1.818099	0.022418	-0.886851
H87	H	1.824895	-0.065895	-0.777299
H88	H	1.921166	-0.072355	-0.886729
H89	H	1.677830	-0.106273	-0.903999
H90	H	1.774220	-0.112678	-1.013327
O91	O	1.126718	-0.709393	-0.238759
C92	C	1.115049	-0.831570	-0.105182
C93	C	1.054801	-0.763761	-0.179242
H94	H	1.056931	-0.875530	-0.057027
H95	H	1.166398	-0.882123	-0.153261
H96	H	1.166435	-0.787199	-0.050376
H97	H	1.003359	-0.808055	-0.234063
H98	H	1.003519	-0.713205	-0.131097
H99	H	0.819890	-0.341438	-0.640777
H100	H	1.217865	-0.587816	-0.371492
O101	O	1.384067	-0.587919	-1.222917
C102	C	1.411100	-0.680344	-1.380350
C103	C	1.411082	-0.680314	-1.259646
H104	H	1.432961	-0.755031	-1.410082
H105	H	1.329755	-0.660367	-1.410194
H106	H	1.470674	-0.625623	-1.410134
H107	H	1.351559	-0.735035	-1.229772
H108	H	1.492465	-0.700247	-1.229873
O109	O	1.785328	-0.219374	-1.114961
C110	C	1.799557	-0.089156	-1.238933
C111	C	1.725643	-0.157064	-1.178541
H112	H	1.751332	-0.038774	-1.290369
H113	H	1.847577	-0.045017	-1.180945
H114	H	1.854496	-0.133459	-1.290251
H115	H	1.670640	-0.112836	-1.127221
H116	H	1.677697	-0.201206	-1.236586
H117	H	1.652900	-0.341165	-0.807644
H118	H	1.652964	-0.341025	-1.205772
H119	H	1.262074	-0.699670	-1.106107
H120	H	1.383994	-0.587872	-0.807547
