data_functionalizedCrystal
_audit_creation_method	'MofGen! by Chris Wilmer'
_symmetry_space_group_name_H-M	'P1'
_symmetry_Int_Tables_number	1
_symmetry_cell_setting	triclinic
loop_
_symmetry_equiv_pos_as_xyz
  x,y,z
_cell_length_a	10.540553
_cell_length_b	12.837943
_cell_length_c	11.295483
_cell_angle_alpha	94.538773
_cell_angle_beta	85.875256
_cell_angle_gamma	89.680147
loop_
_atom_site_label
_atom_site_type_symbol
_atom_site_fract_x
_atom_site_fract_y
_atom_site_fract_z
O1	O	-0.322570	-1.384841	-0.099067
O2	O	-0.306254	-1.082914	-0.099071
O3	O	-0.130466	-1.240755	-0.099025
O4	O	-0.498358	-1.227000	-0.099114
O5	O	-0.145880	-1.226891	0.099022
O6	O	-0.321668	-1.069050	0.098975
O7	O	-0.337983	-1.370977	0.098979
Cu8	Cu	-0.331233	-1.218748	0.117061
Cu9	Cu	-0.313005	-1.235143	-0.117153
O10	O	-0.513772	-1.213136	0.098933
C11	C	-0.308449	-1.037321	-0.000048
C12	C	-0.292011	-0.922121	-0.000047
C13	C	-0.090757	-1.232787	0.000007
C14	C	0.050528	-1.229689	0.000033
C15	C	0.099861	-1.114433	0.000031
C16	C	0.246853	-1.111206	-0.000414
C17	C	0.262857	-1.290189	-0.112832
C18	C	0.115830	-1.292656	-0.112931
C19	C	0.098255	-1.278567	0.112293
C20	C	0.245071	-1.273124	0.113781
C21	C	0.446516	-1.221087	-0.000058
C22	C	0.305219	-1.224136	0.000039
C23	C	-0.335788	-1.416571	-0.000047
C24	C	-0.352226	-1.531771	-0.000056
C25	C	-0.489627	-0.682636	-0.000077
C26	C	-0.474188	-0.574395	-0.000076
C27	C	-0.245695	-0.597396	-0.000033
C28	C	-0.261134	-0.705637	-0.000035
C29	C	-0.383104	-0.748253	-0.000059
C30	C	-0.398541	-0.856496	-0.000069
C31	C	-0.170051	-0.879494	-0.000018
C32	C	-0.154612	-0.771253	-0.000017
N33	N	-0.344054	-1.207224	0.281794
N34	N	-0.300175	-1.246676	-0.281886
C35	C	-0.207812	-1.329632	0.531119
C36	C	-0.217511	-1.320931	0.655780
C37	C	-0.373143	-1.181115	0.655779
C38	C	-0.363444	-1.189817	0.531118
C39	C	-0.280777	-1.264078	0.468792
C40	C	-0.271086	-1.272784	0.344129
C41	C	-0.426710	-1.132965	0.344130
C42	C	-0.436409	-1.124263	0.468792
H43	H	0.056464	-1.064513	0.080952
C44	C	-0.137253	-1.393037	0.724341
H45	H	-0.154858	-1.377216	0.807512
H46	H	-0.157874	-1.463811	0.703890
H47	H	-0.049497	-1.382553	0.703931
H48	H	0.067468	-1.076577	-0.080794
C49	C	0.281223	-1.208072	0.226593
H50	H	0.244551	-1.238096	0.295097
H51	H	0.371149	-1.207449	0.228690
H52	H	0.250251	-1.138535	0.225596
H53	H	-0.440439	-1.120646	0.706541
C54	C	-0.506991	-1.060864	0.275569
H55	H	-0.489379	-1.076681	0.192398
H56	H	-0.594737	-1.071350	0.295990
H57	H	-0.486370	-0.990082	0.296009
C58	C	-0.020453	-0.724374	0.000004
H59	H	0.040776	-0.778959	0.000020
H60	H	-0.004314	-0.687459	-0.069056
H61	H	-0.015049	-0.677797	0.069079
H62	H	0.286604	-1.071652	-0.081800
H63	H	-0.083311	-0.932932	-0.000011
C64	C	-0.116890	-1.411317	0.462557
H65	H	-0.074819	-1.449111	0.517532
H66	H	-0.164063	-1.458238	0.413903
H67	H	-0.055674	-1.376989	0.413951
H68	H	0.086556	-1.259317	-0.197628
C69	C	-0.623780	-0.729524	-0.000114
H70	H	-0.617717	-0.803387	-0.000121
H71	H	-0.673572	-0.702227	0.068935
H72	H	-0.662808	-0.711896	-0.069200
C73	C	0.284749	-1.042115	0.108857
H74	H	0.210239	-1.015767	0.153918
H75	H	0.332987	-1.082464	0.156885
H76	H	0.334380	-0.985467	0.083176
H77	H	-0.497855	-0.891192	-0.000086
C78	C	-0.111541	-0.550510	-0.000004
H79	H	-0.050306	-0.605089	0.000013
H80	H	-0.095401	-0.513591	-0.069062
H81	H	-0.106147	-0.503933	0.069073
C82	C	-0.527340	-1.042586	0.537356
H83	H	-0.522674	-1.046796	0.620527
H84	H	-0.503544	-0.974663	0.516947
H85	H	-0.611916	-1.055927	0.516904
C86	C	0.319340	-1.244258	-0.226742
H87	H	0.293157	-1.284769	-0.294569
H88	H	0.290164	-1.174242	-0.228022
H89	H	0.409548	-1.245441	-0.227915
C90	C	0.072669	-1.407245	-0.119436
H91	H	-0.017397	-1.409527	-0.119534
H92	H	0.109692	-1.443259	-0.190367
H93	H	0.099072	-1.439636	-0.052404
H94	H	-0.203778	-1.333254	0.293384
H95	H	0.301376	-1.373632	-0.116704
H96	H	0.284491	-1.355071	0.120945
C97	C	0.037280	-1.221879	0.227897
H98	H	-0.017863	-1.167866	0.208775
H99	H	-0.009981	-1.270285	0.272268
H100	H	0.102078	-1.192482	0.273955
H101	H	-0.560931	-0.520973	-0.000088
C102	C	0.055576	-1.393013	0.113779
H103	H	0.008895	-1.410960	0.046358
H104	H	0.128226	-1.437446	0.111479
H105	H	0.003249	-1.401231	0.184409
