data_functionalizedCrystal
_audit_creation_method	'MofGen! by Chris Wilmer'
_symmetry_space_group_name_H-M	'P1'
_symmetry_Int_Tables_number	1
_symmetry_cell_setting	triclinic
loop_
_symmetry_equiv_pos_as_xyz
  x,y,z
_cell_length_a	14.971486
_cell_length_b	19.188930
_cell_length_c	13.448316
_cell_angle_alpha	89.988273
_cell_angle_beta	89.998199
_cell_angle_gamma	83.379455
loop_
_atom_site_label
_atom_site_type_symbol
_atom_site_fract_x
_atom_site_fract_y
_atom_site_fract_z
O1	O	1.186467	0.090988	-0.082589
O2	O	0.926009	0.101884	-0.082618
O3	O	1.063754	-0.005195	-0.082583
O4	O	1.048722	0.198067	-0.082624
O5	O	1.063737	-0.005202	0.082801
O6	O	0.925992	0.101877	0.082766
O7	O	1.186450	0.090981	0.082795
Cu8	Cu	1.056219	0.096429	0.097881
Cu9	Cu	1.056239	0.096437	-0.097704
O10	O	1.048704	0.198061	0.082760
C11	C	0.892678	0.101393	0.000071
C12	C	0.793389	0.099933	0.000061
C13	C	1.063259	-0.031211	0.000112
C14	C	1.061797	-0.108721	0.000120
C15	C	0.735831	0.162839	0.000050
C16	C	0.642539	0.161463	0.000065
C17	C	0.606806	0.097180	0.000084
C18	C	0.664371	0.034269	0.000098
C19	C	0.757662	0.035646	0.000090
C20	C	0.469924	0.031403	0.000112
C21	C	0.376627	0.030026	0.000119
C22	C	0.354801	0.157221	0.000087
C23	C	0.448092	0.158598	0.000079
C24	C	0.505650	0.095686	0.000091
C25	C	1.142622	-0.153384	0.000134
C26	C	1.141249	-0.226213	0.000118
C27	C	1.059047	-0.254374	0.000108
C28	C	0.978212	-0.209700	0.000089
C29	C	0.979587	-0.136874	0.000095
N30	N	0.996208	-0.362583	0.056384
N31	N	0.994907	-0.431766	0.056381
C32	C	1.054899	-0.473796	0.000087
N33	N	1.116254	-0.444030	-0.056190
N34	N	1.117558	-0.374842	-0.056182
C35	C	1.057547	-0.333341	0.000101
C36	C	1.134240	-0.597429	0.000082
C37	C	1.132864	-0.670258	0.000060
C38	C	0.969825	-0.653744	0.000041
C39	C	0.971203	-0.580916	0.000053
C40	C	1.053413	-0.552763	0.000078
C41	C	1.219780	0.091472	0.000104
C42	C	1.319070	0.092932	0.000107
C43	C	1.049200	0.224077	0.000063
C44	C	1.050661	0.301586	0.000048
N45	N	1.056211	0.096423	0.235446
N46	N	1.056254	0.096437	-0.235268
C47	C	1.117224	0.049028	0.287501
C48	C	1.117229	0.049027	0.391604
C49	C	1.056226	0.096426	0.443650
C50	C	0.995207	0.143823	0.391587
C51	C	0.995198	0.143820	0.287486
C52	C	0.995232	0.143828	0.608567
C53	C	0.995242	0.143832	0.712676
C54	C	1.117263	0.049035	0.712686
C55	C	1.117254	0.049032	0.608585
C56	C	1.056236	0.096430	0.556529
H57	H	0.764917	0.215186	0.000034
H58	H	1.166903	0.010433	0.245132
H59	H	0.905387	-0.544550	0.000048
H60	H	1.201180	-0.574506	0.000098
H61	H	1.198683	-0.706623	0.000065
H62	H	1.166909	0.010434	0.433988
H63	H	0.477182	0.210943	0.000054
H64	H	0.902894	-0.676672	0.000028
O65	O	1.176624	0.002965	0.763093
C66	C	1.297627	-0.091079	0.752117
C67	C	1.230461	-0.038940	0.694903
H68	H	1.341160	-0.124982	0.697010
H69	H	1.342249	-0.060906	0.800809
H70	H	1.259146	-0.125981	0.800901
H71	H	1.268869	-0.004024	0.646065
H72	H	1.185840	-0.069156	0.646273
H73	H	0.945533	0.182414	0.433969
O74	O	0.342063	-0.032478	0.000183
C75	C	0.373551	-0.158493	0.000160
C76	C	0.412814	-0.087756	0.000113
H77	H	0.430733	-0.203204	0.000082
H78	H	0.330451	-0.162362	0.069390
H79	H	0.330390	-0.162276	-0.069035
H80	H	0.456015	-0.083925	0.069261
H81	H	0.455863	-0.083917	-0.069163
H82	H	1.166931	0.010440	0.566209
H83	H	0.945566	0.182428	0.755046
H84	H	0.945515	0.182413	0.245103
O85	O	0.935928	0.189939	0.558153
C86	C	0.814874	0.283944	0.569123
C87	C	0.881994	0.231771	0.626341
H88	H	0.771238	0.317769	0.624228
H89	H	0.853303	0.318919	0.520396
H90	H	0.770348	0.253730	0.520374
H91	H	0.926537	0.261928	0.675144
H92	H	0.843508	0.196796	0.675005
H93	H	0.307932	0.208445	0.000082
O94	O	0.586755	0.222635	0.000009
C95	C	0.574952	0.348940	0.000034
C96	C	0.638229	0.279712	0.000071
H97	H	0.616543	0.395104	0.000105
H98	H	0.530740	0.351525	-0.069189
H99	H	0.530719	0.351436	0.069236
H100	H	0.682519	0.277169	-0.069085
H101	H	0.682380	0.277155	0.069340
H102	H	0.635271	-0.018072	0.000128
O103	O	0.525930	-0.029661	-0.000011
C104	C	0.643886	-0.101935	-0.085723
C105	C	0.580526	-0.032750	-0.085689
H106	H	0.688030	-0.104461	-0.154997
H107	H	0.688175	-0.104483	-0.016562
H108	H	0.602308	-0.148107	-0.085664
H109	H	0.622033	0.013461	-0.085783
H110	H	0.536234	-0.030262	-0.154844
O111	O	0.813540	-0.025480	-0.000080
C112	C	0.860707	-0.133786	-0.085709
C113	C	0.797389	-0.064579	-0.085656
H114	H	0.847658	-0.165424	-0.154879
H115	H	0.933539	-0.121801	-0.085780
H116	H	0.847756	-0.165391	-0.016457
H117	H	0.810259	-0.032940	-0.154897
H118	H	0.724578	-0.076614	-0.085534
H119	H	1.209564	-0.130467	0.000151
O120	O	1.219740	-0.269639	-0.000038
C121	C	1.312793	-0.361470	-0.085661
C122	C	1.223880	-0.312321	-0.085623
H123	H	1.316161	-0.396001	-0.154838
H124	H	1.371822	-0.328875	-0.085707
H125	H	1.316192	-0.395954	-0.016416
H126	H	1.220394	-0.277827	-0.154857
H127	H	1.164893	-0.344959	-0.085525
O128	O	0.898305	-0.236969	0.000212
C129	C	0.758549	-0.245187	0.085897
C130	C	0.849006	-0.214247	0.085877
H131	H	0.718672	-0.226839	0.155160
H132	H	0.718569	-0.226766	0.016725
H133	H	0.771470	-0.304909	0.085849
H134	H	0.836166	-0.154523	0.085960
H135	H	0.888957	-0.232723	0.155043
H136	H	0.913768	-0.100507	0.000084
