data_functionalizedCrystal
_audit_creation_method	'MofGen! by Chris Wilmer'
_symmetry_space_group_name_H-M	'P1'
_symmetry_Int_Tables_number	1
_symmetry_cell_setting	triclinic
loop_
_symmetry_equiv_pos_as_xyz
  x,y,z
_cell_length_a	8.559649
_cell_length_b	13.596369
_cell_length_c	14.519731
_cell_angle_alpha	89.993029
_cell_angle_beta	103.266241
_cell_angle_gamma	90.005227
loop_
_atom_site_label
_atom_site_type_symbol
_atom_site_fract_x
_atom_site_fract_y
_atom_site_fract_z
O1	O	2.120036	0.081774	0.031278
O2	O	2.453369	0.415108	0.364611
O3	O	2.786703	0.748441	0.697944
O4	O	1.654975	0.081781	-0.016339
O5	O	1.988308	0.415114	0.316994
O6	O	2.321641	0.748447	0.650327
O7	O	1.899818	0.081768	0.142590
O8	O	2.233151	0.415102	0.475923
O9	O	2.566485	0.748435	0.809257
O10	O	1.875193	0.081787	-0.127652
O11	O	2.208526	0.415120	0.205682
O12	O	2.541859	0.748453	0.539015
O13	O	1.899794	-0.081815	0.142596
O14	O	2.233127	0.251519	0.475929
O15	O	2.566460	0.584852	0.809263
O16	O	1.654950	-0.081802	-0.016334
O17	O	1.988283	0.251531	0.317000
O18	O	2.321617	0.584864	0.650333
O19	O	2.120012	-0.081809	0.031283
O20	O	2.453345	0.251525	0.364617
O21	O	2.786678	0.584858	0.697950
Zn22	Zn	1.887477	-0.107778	0.007476
Zn23	Zn	2.220810	0.225556	0.340809
Zn24	Zn	2.554144	0.558889	0.674143
Zn25	Zn	1.887509	0.107750	0.007468
Zn26	Zn	2.220843	0.441083	0.340802
Zn27	Zn	2.554176	0.774416	0.674135
O28	O	1.875168	-0.081796	-0.127646
O29	O	2.208502	0.251537	0.205687
O30	O	2.541835	0.584870	0.539021
C31	C	1.595443	-0.000010	-0.019945
C32	C	1.928777	0.333323	0.313388
C33	C	2.262110	0.666657	0.646722
C34	C	1.418095	-0.000008	-0.030686
C35	C	1.751429	0.333326	0.302647
C36	C	2.084762	0.666659	0.635980
N37	N	1.887467	-0.254870	0.007482
N38	N	2.220800	0.078464	0.340816
N39	N	2.554133	0.411797	0.674149
C40	C	1.887507	-0.656161	0.007467
C41	C	2.220840	-0.322827	0.340801
C42	C	2.554174	0.010506	0.674134
C43	C	1.887491	-0.544509	0.007468
C44	C	2.220824	-0.211176	0.340801
C45	C	2.554158	0.122157	0.674135
C46	C	1.887488	-0.455519	0.007474
C47	C	2.220821	-0.122185	0.340807
C48	C	2.554154	0.211148	0.674141
C49	C	1.887470	-0.343860	0.007476
C50	C	2.220804	-0.010527	0.340810
C51	C	2.554137	0.322806	0.674143
C52	C	2.179543	-0.000016	0.034889
C53	C	2.512876	0.333317	0.368222
C54	C	2.846210	0.666651	0.701556
C55	C	2.356891	-0.000012	0.045630
C56	C	2.690224	0.333322	0.378964
C57	C	3.023558	0.666655	0.712297
C58	C	1.898652	-0.000023	0.176870
C59	C	2.231985	0.333310	0.510203
C60	C	2.565319	0.666643	0.843536
C61	C	1.895194	-0.000024	0.279002
C62	C	2.228528	0.333309	0.612335
C63	C	2.561861	0.666643	0.945668
N64	N	1.887532	0.254842	0.007470
N65	N	2.220865	0.588175	0.340803
N66	N	2.554199	0.921508	0.674137
C67	C	1.876334	-0.000003	-0.161925
C68	C	2.209668	0.333331	0.171408
C69	C	2.543001	0.666664	0.504741
C70	C	1.879792	0.000004	-0.264057
C71	C	2.213125	0.333338	0.069276
C72	C	2.546459	0.666671	0.402609
C73	C	1.892385	-0.000022	0.361944
C74	C	2.225718	0.333312	0.695277
C75	C	2.559052	0.666645	1.028611
C76	C	1.888874	-0.000014	0.466001
C77	C	2.222208	0.333319	0.799334
C78	C	2.555541	0.666653	1.132668
C79	C	1.886088	-0.000008	0.548940
C80	C	2.219422	0.333326	0.882273
C81	C	2.552755	0.666659	1.215607
C82	C	1.882578	-0.000002	0.653003
C83	C	2.215911	0.333331	0.986337
C84	C	2.549245	0.666665	1.319670
H85	H	1.334809	0.000002	-0.104247
H86	H	1.668143	0.333336	0.229087
H87	H	2.001476	0.666669	0.562420
H88	H	1.440168	-0.000012	0.119186
H89	H	1.773501	0.333322	0.452519
H90	H	2.106835	0.666655	0.785853
