data_functionalizedCrystal
_audit_creation_method	'MofGen! by Chris Wilmer'
_symmetry_space_group_name_H-M	'P1'
_symmetry_Int_Tables_number	1
_symmetry_cell_setting	triclinic
loop_
_symmetry_equiv_pos_as_xyz
  x,y,z
_cell_length_a	6.817900
_cell_length_b	7.076028
_cell_length_c	17.513329
_cell_angle_alpha	89.836573
_cell_angle_beta	106.556532
_cell_angle_gamma	117.700652
loop_
_atom_site_label
_atom_site_type_symbol
_atom_site_fract_x
_atom_site_fract_y
_atom_site_fract_z
V1	V	-4.215901	-0.666962	-0.109054
O2	O	-4.182871	-0.652226	0.006548
O3	O	-4.182420	-0.664362	-0.217494
O4	O	-4.242556	-0.956952	-0.106803
O5	O	-4.122318	-0.357611	-0.104909
V6	V	-4.687870	-0.629723	-0.095295
O7	O	-4.502503	-0.748649	-0.139237
O8	O	-4.851465	-0.548035	-0.065112
O9	O	-4.498145	-0.632322	0.013144
O10	O	-4.838297	-0.644459	-0.210897
O11	O	-4.898850	-0.939074	-0.099440
O12	O	-4.438009	-0.339733	-0.097546
C13	C	-4.028621	-0.654347	-0.243947
C14	C	-4.083033	-0.654154	-0.332594
C15	C	-4.400032	-0.653359	-0.834152
C16	C	-4.348904	-0.653568	-0.750861
C17	C	-4.137865	-0.642973	-0.705179
C18	C	-3.977933	-0.632145	-0.742793
C19	C	-4.029055	-0.631920	-0.826082
C20	C	-3.974224	-0.643102	-0.453496
C21	C	-3.923116	-0.643334	-0.370202
C22	C	-4.294089	-0.664753	-0.378275
C23	C	-4.345201	-0.664540	-0.461567
C24	C	-4.185261	-0.653701	-0.499172
C25	C	-4.085602	-0.643193	-0.620042
C26	C	-4.237517	-0.653465	-0.584307
C27	C	-4.238560	-0.269102	-0.101601
C28	C	-4.112296	-0.027564	-0.102744
C29	C	-4.315285	-0.642332	0.039593
C30	C	-4.240114	-0.642539	0.128239
H31	H	-4.517048	-0.673171	-0.498755
H32	H	-3.751263	-0.634718	-0.333010
H33	H	-3.913770	-0.634570	-0.582839
H34	H	-4.571885	-0.662000	-0.871341
H35	H	-3.843971	-0.634250	-0.484103
H36	H	-4.479134	-0.662389	-0.720245
H37	H	-3.898838	-0.623127	-0.856702
H38	H	-3.806091	-0.623504	-0.705592
H39	H	-4.424296	-0.673574	-0.347647
H40	H	-4.409338	-0.662075	-0.621503
