data_functionalizedCrystal
_audit_creation_method	'MofGen! by Chris Wilmer'
_symmetry_space_group_name_H-M	'P1'
_symmetry_Int_Tables_number	1
_symmetry_cell_setting	triclinic
loop_
_symmetry_equiv_pos_as_xyz
  x,y,z
_cell_length_a	17.639617
_cell_length_b	25.639240
_cell_length_c	17.639306
_cell_angle_alpha	101.177631
_cell_angle_beta	65.670249
_cell_angle_gamma	101.215675
loop_
_atom_site_label
_atom_site_type_symbol
_atom_site_fract_x
_atom_site_fract_y
_atom_site_fract_z
Zn1	Zn	1.354195	-0.123762	-0.721101
Zn2	Zn	1.326228	-0.196499	-0.583248
Zn3	Zn	1.188518	-0.123742	-0.555394
Zn4	Zn	1.216285	-0.225839	-0.693105
O5	O	1.271307	-0.167460	-0.638212
O6	O	1.465833	-0.121140	-0.726188
O7	O	1.284636	-0.174560	-0.464228
O8	O	1.210579	-0.050576	-0.577435
O9	O	1.445286	-0.174579	-0.624908
O10	O	1.332302	-0.050591	-0.699179
O11	O	1.183461	-0.121106	-0.443764
O12	O	1.076853	-0.149556	-0.550288
O13	O	1.257904	-0.224586	-0.812143
O14	O	1.097253	-0.224566	-0.651463
O15	O	1.359226	-0.149590	-0.832712
O16	O	1.311560	-0.273559	-0.597761
O17	O	1.230785	-0.295115	-0.678472
C18	C	1.057145	-0.190243	-0.594816
C19	C	0.965530	-0.200005	-0.576270
C20	C	0.717754	-0.093315	-0.779305
C21	C	0.631664	-0.102498	-0.761862
C22	C	0.610260	-0.158018	-0.656247
C23	C	0.696350	-0.148841	-0.673684
C24	C	0.750091	-0.116488	-0.735213
C25	C	0.728687	-0.172014	-0.629592
C26	C	0.814769	-0.162836	-0.647025
C27	C	0.868515	-0.130484	-0.708550
C28	C	0.836173	-0.107310	-0.752646
C29	C	0.674944	-0.204364	-0.568059
C30	C	0.707281	-0.227537	-0.523968
C31	C	0.793365	-0.218362	-0.541404
C32	C	0.847111	-0.186010	-0.602929
C33	C	0.825707	-0.241536	-0.497308
C34	C	0.911789	-0.232357	-0.514741
C35	C	0.933193	-0.176831	-0.620362
C36	C	1.271177	-0.303308	-0.638124
C37	C	1.271203	-0.361420	-0.638129
C38	C	1.334733	-0.721756	-0.701705
C39	C	1.334760	-0.776360	-0.701726
O40	O	1.388624	-0.804582	-0.755686
N41	N	1.271437	-0.803696	-0.638315
C42	C	1.208077	-0.776426	-0.574882
O43	O	1.154218	-0.804692	-0.520948
C44	C	1.208047	-0.721825	-0.574864
C45	C	1.271379	-0.694491	-0.638275
C46	C	1.398059	-0.694422	-0.765111
C47	C	1.398032	-0.639822	-0.765088
C48	C	1.334679	-0.612557	-0.701659
C49	C	1.271352	-0.639891	-0.638253
C50	C	1.144684	-0.694557	-0.511436
C51	C	1.144659	-0.639952	-0.511424
C52	C	1.207991	-0.612618	-0.574835
C53	C	1.207971	-0.558025	-0.574801
N54	N	1.271295	-0.530689	-0.638212
C55	C	1.334648	-0.557955	-0.701641
C56	C	1.208145	-0.891094	-0.574925
C57	C	1.208178	-0.945693	-0.574938
C58	C	1.334860	-0.945623	-0.701784
C59	C	1.334830	-0.891022	-0.701766
C60	C	1.271468	-0.863758	-0.638336
C61	C	1.334587	-0.443291	-0.701588
C62	C	1.334556	-0.388686	-0.701558
C63	C	1.207872	-0.388761	-0.574716
C64	C	1.207904	-0.443361	-0.574743
C65	C	1.271266	-0.470625	-0.638187
O66	O	1.154133	-0.529769	-0.520870
O67	O	1.388493	-0.529685	-0.755573
C68	C	1.486305	-0.144589	-0.681778
C69	C	1.577924	-0.134842	-0.700343
C70	C	1.314782	-0.190363	-0.853166
C71	C	1.333308	-0.200122	-0.944767
C72	C	1.271463	-0.031081	-0.638323
C73	C	1.271529	0.027035	-0.638370
C74	C	1.130884	-0.093088	-1.192785
C75	C	1.148311	-0.102268	-1.278862
C76	C	1.253653	-0.157924	-1.300149
C77	C	1.236238	-0.148747	-1.214073
C78	C	1.174851	-0.116329	-1.160398
C79	C	1.280206	-0.171987	-1.181685
C80	C	1.262788	-0.162813	-1.095617
C81	C	1.201403	-0.130398	-1.041935
C82	C	1.157434	-0.107155	-1.074329
C83	C	1.341588	-0.204408	-1.235362
C84	C	1.385556	-0.227648	-1.202974
C85	C	1.368143	-0.218471	-1.116904
C86	C	1.306758	-0.186056	-1.063223
C87	C	1.412112	-0.241714	-1.084511
C88	C	1.394695	-0.232540	-0.998442
C89	C	1.289340	-0.176882	-0.977154
C90	C	1.228048	-0.144604	-0.424104
C91	C	1.209682	-0.134680	-0.332536
H92	H	0.566492	-0.184357	-0.606147
C93	C	1.443055	-0.258105	-0.962812
H94	H	1.482113	-0.278722	-1.007107
H95	H	1.404701	-0.280662	-0.922829
H96	H	1.472200	-0.230701	-0.936528
H97	H	0.938607	-0.123009	-0.722740
H98	H	1.386178	-0.465484	-0.753255
H99	H	0.604847	-0.211822	-0.553849
C100	C	0.895297	-0.071726	-0.820331
H101	H	0.951196	-0.069583	-0.824399
H102	H	0.878790	-0.036813	-0.805529
H103	H	0.892391	-0.086839	-0.872827
C104	C	1.467690	-0.609761	-0.834845
H105	H	1.458612	-0.573335	-0.825756
H106	H	1.466778	-0.625889	-0.887753
H107	H	1.520660	-0.611509	-0.834055
H108	H	1.355769	-0.211875	-1.305444
C109	C	0.776875	-0.057732	-0.846992
H110	H	0.745290	-0.045243	-0.870757
H111	H	0.817701	-0.078009	-0.889633
H112	H	0.804098	-0.027984	-0.822334
H113	H	1.187218	-0.122933	-0.971852
C114	C	1.321177	-0.193578	-1.359196
H115	H	1.325257	-0.195711	-1.415096
H116	H	1.306226	-0.228489	-1.342615
H117	H	1.373715	-0.178522	-1.356315
C118	C	1.453083	-0.263300	-1.262018
H119	H	1.476773	-0.275828	-1.230400
H120	H	1.495810	-0.243054	-1.302885
H121	H	1.428323	-0.293021	-1.289186
C122	C	0.596099	-0.077011	-0.810375
H123	H	0.640437	-0.056434	-0.849520
H124	H	0.556159	-0.054429	-0.772125
H125	H	0.569769	-0.104453	-0.839424
H126	H	1.107456	-0.080751	-1.030624
C127	C	0.648163	-0.263124	-0.456293
H128	H	0.592265	-0.265275	-0.452228
H129	H	0.651073	-0.248022	-0.403800
H130	H	0.664676	-0.298039	-0.471113
H131	H	0.976953	-0.150489	-0.670468
H132	H	0.938118	-0.251228	-0.478837
C133	C	0.766586	-0.277119	-0.429628
H134	H	0.710688	-0.279267	-0.425563
H135	H	0.769499	-0.262013	-0.377137
H136	H	0.783094	-0.312035	-0.444443
C137	C	1.404219	-0.358622	-0.771319
H138	H	1.441946	-0.382686	-0.809102
H139	H	1.433784	-0.330132	-0.747106
H140	H	1.379896	-0.344512	-0.800798
C141	C	1.138243	-0.473429	-0.504992
H142	H	1.100506	-0.449369	-0.467216
H143	H	1.162549	-0.487550	-0.475513
H144	H	1.108680	-0.501915	-0.529223
C145	C	1.467759	-0.724405	-0.834885
H146	H	1.505466	-0.700298	-0.872635
H147	H	1.443481	-0.752895	-0.864389
H148	H	1.497346	-0.738510	-0.810674
C149	C	1.138451	-0.861106	-0.505139
H150	H	1.100751	-0.885208	-0.467376
H151	H	1.108862	-0.846994	-0.529335
H152	H	1.162747	-0.832619	-0.475641
H153	H	1.239362	-0.150478	-0.933450
H154	H	1.386400	-0.868770	-0.753401
C155	C	1.404545	-0.975624	-0.771559
H156	H	1.395483	-1.012058	-0.762488
H157	H	1.457507	-0.959477	-0.770771
H158	H	1.403623	-0.973853	-0.824466
H159	H	1.156292	-0.366552	-0.523070
C160	C	1.138517	-0.975754	-0.505182
H161	H	1.100782	-0.951691	-0.467410
H162	H	1.162824	-0.989870	-0.475700
H163	H	1.108951	-1.004242	-0.529406
H164	H	1.093113	-0.716803	-0.459799
C165	C	1.074961	-0.609965	-0.441648
H166	H	1.037255	-0.634066	-0.403887
H167	H	1.045380	-0.595852	-0.465851
H168	H	1.099254	-0.581479	-0.412146
C169	C	1.063350	-0.057436	-1.133735
H170	H	1.039651	-0.044911	-1.165348
H171	H	1.088102	-0.027721	-1.106557
H172	H	1.020621	-0.077691	-1.092876
C173	C	1.479633	-0.277371	-1.143556
H174	H	1.503323	-0.289900	-1.111939
H175	H	1.522361	-0.257128	-1.184427
H176	H	1.454865	-0.307090	-1.170719
C177	C	1.099945	-0.076699	-1.314486
H178	H	1.060896	-0.056076	-1.270190
H179	H	1.070803	-0.104099	-1.340770
H180	H	1.138301	-0.054138	-1.354468
