data_functionalizedCrystal
_audit_creation_method	'MofGen! by Chris Wilmer'
_symmetry_space_group_name_H-M	'P1'
_symmetry_Int_Tables_number	1
_symmetry_cell_setting	triclinic
loop_
_symmetry_equiv_pos_as_xyz
  x,y,z
_cell_length_a	12.759401
_cell_length_b	12.594516
_cell_length_c	12.759393
_cell_angle_alpha	90.029124
_cell_angle_beta	90.018496
_cell_angle_gamma	90.016214
loop_
_atom_site_label
_atom_site_type_symbol
_atom_site_fract_x
_atom_site_fract_y
_atom_site_fract_z
Zn1	Zn	1.606246	-0.423675	0.593999
Zn2	Zn	1.606136	-0.601694	0.418327
Zn3	Zn	1.430547	-0.423730	0.418339
Zn4	Zn	1.430532	-0.601612	0.593968
O5	O	1.518365	-0.512678	0.506158
O6	O	1.753252	-0.447300	0.570704
O7	O	1.582804	-0.578144	0.271307
O8	O	1.453907	-0.274777	0.441658
O9	O	1.753171	-0.578090	0.441638
O10	O	1.582991	-0.274736	0.570715
O11	O	1.453800	-0.447395	0.271316
O12	O	1.283524	-0.447316	0.441628
O13	O	1.453880	-0.577951	0.740993
O14	O	1.283513	-0.578005	0.570663
O15	O	1.582976	-0.447221	0.741016
O16	O	1.582789	-0.750629	0.441608
O17	O	1.453774	-0.750569	0.570651
C18	C	1.245398	-0.512658	0.506144
C19	C	1.128621	-0.512676	0.506163
C20	C	1.073781	-0.580834	0.573240
C21	C	0.964057	-0.580848	0.573251
C22	C	0.964023	-0.444541	0.439099
C23	C	1.073745	-0.444523	0.439094
C24	C	1.073799	-0.659533	0.650688
C25	C	0.964075	-0.659547	0.650700
C26	C	1.518296	-0.789219	0.506148
C27	C	1.518363	-0.907524	0.506179
C28	C	1.448185	-0.976783	0.576316
C29	C	1.422585	-1.047654	0.480449
C30	C	1.544058	-1.047453	0.602062
C31	C	1.492713	-0.976836	0.410261
C32	C	1.614230	-0.976629	0.531938
C33	C	1.588667	-1.047468	0.436006
C34	C	1.792398	-0.512698	0.506173
C35	C	1.909175	-0.512707	0.506179
C36	C	1.518439	-0.512570	0.780192
C37	C	1.518470	-0.512525	0.896968
C38	C	1.518463	-0.235057	0.506192
C39	C	1.518505	-0.116752	0.506206
C40	C	1.518352	-0.512708	0.233191
C41	C	1.518525	-0.512454	0.116415
C42	C	1.585700	-0.444447	0.951844
C43	C	1.585725	-0.444409	1.061568
C44	C	1.451288	-0.580534	1.061531
C45	C	1.451258	-0.580567	0.951809
C46	C	1.663319	-0.365859	0.951866
C47	C	1.663344	-0.365821	1.061590
H48	H	0.930078	-0.630122	0.728050
H49	H	1.396564	-0.635930	1.106196
H50	H	0.919330	-0.389052	0.384496
H51	H	0.934278	-0.741961	0.628771
H52	H	1.388731	-0.945746	0.635542
H53	H	1.341578	-1.078874	0.458684
H54	H	1.118392	-0.389014	0.384480
H55	H	1.740590	-0.395410	0.917831
C56	C	1.463307	-0.935121	0.300697
C57	C	1.540610	-0.864391	0.239772
C58	C	1.511204	-0.822675	0.130209
C59	C	1.404496	-0.851689	0.081571
C60	C	1.327186	-0.922423	0.142496
C61	C	1.356591	-0.964138	0.252059
H62	H	1.619608	-0.842909	0.275777
H63	H	1.568434	-0.770314	0.085109
H64	H	1.382728	-0.820809	0.000466
H65	H	1.248188	-0.943904	0.106492
H66	H	1.299361	-1.016500	0.297159
H67	H	1.648075	-1.078309	0.376636
C68	C	1.573348	-1.089358	0.711587
C69	C	1.679642	-1.059710	0.760759
C70	C	1.708922	-1.101610	0.870286
C71	C	1.631908	-1.173158	0.930643
C72	C	1.525607	-1.202811	0.881472
C73	C	1.496327	-1.160911	0.771944
H74	H	1.736658	-1.006741	0.716079
H75	H	1.787613	-1.079659	0.906686
H76	H	1.653582	-1.204175	1.011722
H77	H	1.468590	-1.255779	0.926151
H78	H	1.417636	-1.182862	0.735545
H79	H	1.634232	-0.287500	1.095635
C80	C	1.723639	-0.934445	0.561402
C81	C	1.812873	-1.012732	0.586449
C82	C	1.922282	-0.970545	0.615927
C83	C	1.942456	-0.850071	0.620359
C84	C	1.853219	-0.771776	0.595312
C85	C	1.743810	-0.813963	0.565834
H86	H	1.797941	-1.101921	0.583168
H87	H	1.988341	-1.028505	0.634469
H88	H	2.023447	-0.818842	0.642181
H89	H	1.868151	-0.682587	0.598593
H90	H	1.677752	-0.756003	0.547292
H91	H	1.396510	-0.635998	0.907134
C92	C	1.773252	-0.395673	1.101842
C93	C	1.821540	-0.503764	1.072685
C94	C	1.931438	-0.533626	1.112943
C95	C	1.993049	-0.455398	1.182358
C96	C	1.944763	-0.347300	1.211519
C97	C	1.834864	-0.317438	1.171261
H98	H	1.775931	-0.561680	1.021297
H99	H	1.967183	-0.613648	1.091355
H100	H	2.074403	-0.477503	1.212159
H101	H	1.990371	-0.289384	1.262907
H102	H	1.799120	-0.237416	1.192848
C103	C	1.119756	-0.765262	0.611141
C104	C	1.094385	-0.804546	0.499671
C105	C	1.140342	-0.910275	0.460122
C106	C	1.211671	-0.976719	0.532043
C107	C	1.237046	-0.937437	0.643520
C108	C	1.191089	-0.831708	0.683069
H109	H	1.041580	-0.755359	0.446425
H110	H	1.121557	-0.939354	0.377599
H111	H	1.245691	-1.054986	0.502767
H112	H	1.289851	-0.986624	0.696766
H113	H	1.209873	-0.802629	0.765592
H114	H	1.103608	-0.637550	0.732094
H115	H	1.641552	-0.283430	0.922107
