data_functionalizedCrystal
_audit_creation_method	'MofGen! by Chris Wilmer'
_symmetry_space_group_name_H-M	'P1'
_symmetry_Int_Tables_number	1
_symmetry_cell_setting	triclinic
loop_
_symmetry_equiv_pos_as_xyz
  x,y,z
_cell_length_a	15.297327
_cell_length_b	15.297475
_cell_length_c	15.296720
_cell_angle_alpha	91.617114
_cell_angle_beta	72.680778
_cell_angle_gamma	88.374454
loop_
_atom_site_label
_atom_site_type_symbol
_atom_site_fract_x
_atom_site_fract_y
_atom_site_fract_z
Zn1	Zn	-0.695081	-1.116342	0.823122
Zn2	Zn	-0.823682	-1.116246	0.694497
Zn3	Zn	-0.644908	-1.005113	0.644396
Zn4	Zn	-0.814903	-0.946204	0.814406
O5	O	-0.744644	-1.045976	0.744105
O6	O	-0.736812	-1.234042	0.830675
O7	O	-0.782644	-1.126118	0.562870
O8	O	-0.526600	-1.044561	0.650785
O9	O	-0.831295	-1.233972	0.736174
O10	O	-0.563461	-1.126281	0.782095
O11	O	-0.651299	-1.044469	0.526062
O12	O	-0.642787	-0.879585	0.642333
O13	O	-0.816332	-0.944159	0.940543
O14	O	-0.767682	-0.836305	0.767239
O15	O	-0.728299	-1.069159	0.946946
O16	O	-0.947482	-1.068996	0.727722
O17	O	-0.941032	-0.944066	0.815819
C18	C	-0.698838	-0.827423	0.698404
C19	C	-0.679267	-0.733917	0.678877
C20	C	-0.976666	-1.000147	0.776286
C21	C	-1.075946	-0.980613	0.790099
C22	C	-0.776933	-1.000098	0.977057
C23	C	-0.790693	-0.980548	1.076327
C24	C	-1.369169	-1.185880	0.645759
C25	C	-1.275889	-1.204235	0.632777
C26	C	-1.225899	-1.148331	0.672106
C27	C	-1.269198	-1.074069	0.724420
C28	C	-1.362485	-1.055710	0.737398
C29	C	-1.219215	-1.018160	0.763745
C30	C	-1.262513	-0.943898	0.816059
C31	C	-1.355791	-0.925542	0.829035
C32	C	-1.405781	-0.981446	0.789706
C33	C	-1.125928	-1.036520	0.750767
C34	C	-1.119243	-0.906349	0.842406
C35	C	-1.212523	-0.887995	0.855389
C36	C	-0.511723	-1.092003	0.711823
C37	C	-0.412466	-1.111617	0.698067
C38	C	-0.790629	-1.265382	0.789986
C39	C	-0.810225	-1.358880	0.809537
C40	C	-0.884531	-0.380296	0.883671
C41	C	-0.902925	-0.468149	0.902016
C42	C	-0.847012	-0.534595	0.846233
C43	C	-0.772701	-0.513180	0.772102
C44	C	-0.754309	-0.425318	0.753750
C45	C	-0.716791	-0.579617	0.716312
C46	C	-0.642480	-0.558202	0.642181
C47	C	-0.624091	-0.470348	0.623833
C48	C	-0.680004	-0.403902	0.679616
C49	C	-0.735183	-0.667479	0.734664
C50	C	-0.604961	-0.712501	0.604743
C51	C	-0.586567	-0.624648	0.586398
C52	C	-0.712426	-1.091736	0.512061
C53	C	-0.698449	-1.111499	0.412791
C54	C	-0.646151	-1.185768	1.369491
C55	C	-0.633225	-1.204141	1.276224
C56	C	-0.672591	-1.148244	1.226245
C57	C	-0.724884	-1.073971	1.269543
C58	C	-0.737817	-1.055600	1.362821
C59	C	-0.764257	-1.018076	1.219575
C60	C	-0.816551	-0.943803	1.262873
C61	C	-0.829480	-0.925434	1.356142
C62	C	-0.790115	-0.981331	1.406121
C63	C	-0.751324	-1.036448	1.126296
C64	C	-0.842991	-0.906280	1.119626
C65	C	-0.855916	-0.887906	1.212894
H66	H	-1.090683	-1.096984	0.708172
C67	C	-0.945976	-0.307212	0.945077
H68	H	-0.992853	-0.332546	0.991870
H69	H	-0.910050	-0.272047	0.972135
H70	H	-0.972937	-0.271962	0.909124
H71	H	-0.800636	-0.966375	1.482068
H72	H	-1.481738	-0.966508	0.800276
C73	C	-0.602860	-1.247250	1.424465
H74	H	-0.569866	-1.294118	1.385324
H75	H	-0.562253	-1.215598	1.448737
H76	H	-0.649759	-1.269983	1.473245
C77	C	-1.403416	-0.843854	0.886574
H78	H	-1.360289	-0.813193	0.908145
H79	H	-1.427438	-0.806791	0.849791
H80	H	-1.451896	-0.861189	0.937297
C81	C	-1.260153	-0.806309	0.912929
H82	H	-1.217028	-0.775645	0.934502
H83	H	-1.284177	-0.769248	0.876147
H84	H	-1.308631	-0.823648	0.963652
C85	C	-0.542346	-0.446788	0.542299
H86	H	-0.539402	-0.384948	0.539359
H87	H	-0.487210	-0.470440	0.550170
H88	H	-0.550002	-0.470433	0.487064
C89	C	-1.064268	-0.844850	0.885675
H90	H	-1.103411	-0.797987	0.918678
H91	H	-1.039969	-0.876500	0.926269
H92	H	-1.015510	-0.822110	0.838757
H93	H	-0.795687	-0.684906	0.795023
H94	H	-0.861993	-0.606128	0.861175
H95	H	-0.963431	-0.485578	0.962373
H96	H	-0.590650	-1.264616	1.240978
C97	C	-1.123297	-1.168525	0.657835
H98	H	-1.104671	-1.220763	0.621054
H99	H	-1.088724	-1.121447	0.628075
H100	H	-1.113198	-1.175845	0.715581
H101	H	-0.526062	-0.607199	0.526039
C102	C	-1.228269	-1.285919	0.575243
H103	H	-1.271401	-1.316589	0.553686
H104	H	-1.179788	-1.268594	0.524523
H105	H	-1.204252	-1.322982	0.612036
H106	H	-0.665029	-0.332363	0.664685
C107	C	-0.887005	-0.843739	1.403769
H108	H	-0.908591	-0.813075	1.360646
H109	H	-0.937703	-0.861058	1.452277
H110	H	-0.850197	-0.806673	1.427753
H111	H	-0.708746	-1.096921	1.091052
C112	C	-0.913442	-0.806213	1.260526
H113	H	-0.935032	-0.775547	1.217406
H114	H	-0.964137	-0.823535	1.309034
H115	H	-0.876634	-0.769147	1.284509
H116	H	-0.875047	-0.860765	1.078934
H117	H	-0.662064	-1.163209	1.150302
C118	C	-1.424158	-1.247366	0.602507
H119	H	-1.485915	-1.225797	0.617734
H120	H	-1.398019	-1.249926	0.537801
H121	H	-1.422479	-1.304313	0.625316
H122	H	-0.559433	-0.766603	0.559318
