data_functionalizedCrystal
_audit_creation_method	'MofGen! by Chris Wilmer'
_symmetry_space_group_name_H-M	'P1'
_symmetry_Int_Tables_number	1
_symmetry_cell_setting	triclinic
loop_
_symmetry_equiv_pos_as_xyz
  x,y,z
_cell_length_a	18.050589
_cell_length_b	18.050591
_cell_length_c	14.908308
_cell_angle_alpha	86.726628
_cell_angle_beta	86.730698
_cell_angle_gamma	90.024669
loop_
_atom_site_label
_atom_site_type_symbol
_atom_site_fract_x
_atom_site_fract_y
_atom_site_fract_z
Zn1	Zn	-0.319953	1.111075	0.510227
Zn2	Zn	0.180047	1.611075	1.010227
Zn3	Zn	-0.436989	1.118145	0.359380
Zn4	Zn	0.063011	1.618145	0.859380
Zn5	Zn	-0.312809	0.994054	0.359373
Zn6	Zn	0.187191	1.494054	0.859373
Zn7	Zn	-0.444096	0.986845	0.510175
Zn8	Zn	0.055904	1.486845	1.010175
O9	O	-0.378462	1.052530	0.434789
O10	O	0.121538	1.552530	0.934789
O11	O	-0.335494	1.215936	0.490242
O12	O	0.164506	1.715936	0.990242
O13	O	-0.414552	1.107661	0.233138
O14	O	0.085448	1.607661	0.733138
O15	O	-0.209833	1.009636	0.379403
O16	O	0.290167	1.509636	0.879403
O17	O	-0.421479	1.221131	0.379415
O18	O	0.078521	1.721131	0.879415
O19	O	-0.215082	1.095610	0.490235
O20	O	0.284918	1.595610	0.990235
O21	O	-0.323318	1.016492	0.233133
O22	O	0.176682	1.516492	0.733133
O23	O	-0.330209	0.889175	0.379353
O24	O	0.169791	1.389175	0.879353
O25	O	-0.433592	0.997348	0.636423
O26	O	0.066408	1.497348	1.136423
O27	O	-0.426665	0.883878	0.490147
O28	O	0.073335	1.383878	0.990147
O29	O	-0.342385	1.088619	0.636461
O30	O	0.157615	1.588619	1.136461
O31	O	-0.541855	1.100670	0.379365
O32	O	-0.041855	1.600670	0.879365
O33	O	-0.547077	1.004204	0.490153
O34	O	-0.047077	1.504204	0.990153
C35	C	-0.378434	0.859580	0.434744
C36	C	0.121566	1.359580	0.934744
C37	C	-0.378440	0.777034	0.434746
C38	C	0.121560	1.277034	0.934746
C39	C	-0.325943	0.531061	0.374639
C40	C	0.174057	1.031061	0.874639
C41	C	-0.311763	0.576585	0.456967
C42	C	0.188237	1.076585	0.956967
C43	C	-0.378482	0.479910	0.434820
C44	C	0.121518	0.979910	0.934820
C45	C	-0.392607	0.581469	0.352460
C46	C	0.107393	1.081469	0.852460
C47	C	-0.378459	0.625897	0.434779
C48	C	0.121541	1.125897	0.934779
C49	C	-0.364269	0.524345	0.517192
C50	C	0.135731	1.024345	1.017192
C51	C	-0.445141	0.529227	0.412629
C52	C	0.054859	1.029227	0.912629
C53	C	-0.430990	0.574727	0.495014
C54	C	0.069010	1.074727	0.995014
C55	C	-0.378493	0.395811	0.434842
C56	C	0.121507	0.895811	0.934842
C57	C	-0.378449	0.709994	0.434766
C58	C	0.121551	1.209994	0.934766
C59	C	-0.571413	1.052441	0.434774
C60	C	-0.071413	1.552441	0.934774
C61	C	-0.653960	1.052469	0.434798
C62	C	-0.153960	1.552469	0.934798
C63	C	-0.856276	1.000061	0.495024
C64	C	-0.356276	1.500061	0.995024
C65	C	-0.901808	0.985870	0.412702
C66	C	-0.401808	1.485870	0.912702
C67	C	-0.805091	1.052542	0.434810
C68	C	-0.305091	1.552542	0.934810
C69	C	-0.906641	1.066768	0.517140
C70	C	-0.406641	1.566768	1.017140
C71	C	-0.951077	1.052610	0.434828
C72	C	-0.451077	1.552610	0.934828
C73	C	-0.849534	1.038318	0.352445
C74	C	-0.349534	1.538318	0.852445
C75	C	-0.854365	1.119245	0.456938
C76	C	-0.354365	1.619245	0.956938
C77	C	-0.899872	1.105083	0.374560
C78	C	-0.399872	1.605083	0.874560
C79	C	-0.720992	1.052501	0.434800
C80	C	-0.220992	1.552501	0.934800
C81	C	-1.035174	1.052652	0.434828
C82	C	-0.535174	1.552652	0.934828
C83	C	-0.184758	1.052638	0.434824
C84	C	0.315242	1.552638	0.934824
C85	C	-0.102213	1.052685	0.434839
C86	C	0.397787	1.552685	0.934839
C87	C	-0.389578	1.041391	0.670091
C88	C	0.110422	1.541391	1.170091
C89	C	-0.394315	1.036644	0.770362
C90	C	0.105685	1.536644	1.270362
C91	C	-0.378491	1.246233	0.434835
C92	C	0.121509	1.746233	0.934835
C93	C	-0.378503	1.328778	0.434854
C94	C	0.121497	1.828778	0.934854
C95	C	-0.367335	1.063669	0.200403
C96	C	0.132665	1.563669	0.700403
C97	C	-0.362389	1.068559	0.100132
C98	C	0.137611	1.568559	0.600132
C99	C	-0.308226	1.122763	0.958824
C100	C	0.191774	1.622763	1.458824
C101	C	-0.312674	1.118305	1.053038
C102	C	0.187326	1.618305	1.553038
C103	C	-0.407656	1.023267	1.053006
C104	C	0.092344	1.523267	1.553006
C105	C	-0.403208	1.027725	0.958792
C106	C	0.096792	1.527725	1.458792
C107	C	-0.353492	1.077475	0.911704
C108	C	0.146508	1.577475	1.411704
C109	C	-0.349048	1.081936	0.817488
C110	C	0.150952	1.581936	1.317488
C111	C	-0.444026	0.986895	0.817458
C112	C	0.055974	1.486895	1.317458
C113	C	-0.448474	0.982437	0.911672
C114	C	0.051526	1.482437	1.411672
H115	H	-0.352246	0.499471	0.586846
H116	H	0.147754	0.999471	1.086846
O117	O	-0.939696	1.082679	0.609356
O118	O	-0.439696	1.582679	1.109356
H119	H	-0.922310	1.039004	0.659194
H120	H	-0.422310	1.539004	1.159194
H121	H	-0.475413	0.593853	0.545949
H122	H	0.024587	1.093853	1.045949
H123	H	-0.448133	0.982763	1.091361
H124	H	0.051867	1.482763	1.591361
H125	H	-0.404563	0.606434	0.282826
H126	H	0.095437	1.106434	0.782826
O127	O	-0.502092	0.928777	0.962459
O128	O	-0.002092	1.428777	1.462459
H129	H	-0.497583	0.933285	1.035889
H130	H	0.002417	1.433285	1.535889
H131	H	-0.837036	0.955621	0.545872
H132	H	-0.337036	1.455621	1.045872
H133	H	-0.308567	1.122446	0.779151
H134	H	0.191433	1.622446	1.279151
H135	H	-0.275812	1.155181	1.091399
H136	H	0.224188	1.655181	1.591399
O137	O	-0.519798	0.501594	0.387754
O138	O	-0.019798	1.001594	0.887754
H139	H	-0.531405	0.524549	0.319342
H140	H	-0.031405	1.024549	0.819342
O141	O	-0.929459	0.911194	0.387903
O142	O	-0.429459	1.411194	0.887903
H143	H	-0.912090	0.867694	0.437972
H144	H	-0.412090	1.367694	0.937972
O145	O	-0.816606	1.022322	0.260199
O146	O	-0.316606	1.522322	0.760199
H147	H	-0.755152	1.022389	0.260925
H148	H	-0.255152	1.522389	0.760925
O149	O	-0.492848	0.938025	0.766655
O150	O	0.007152	1.438025	1.266655
H151	H	-0.528617	0.973260	0.723725
H152	H	-0.028617	1.473260	1.223725
O153	O	-0.267072	0.505525	0.307332
O154	O	0.232928	1.005525	0.807332
H155	H	-0.211783	0.524452	0.325956
H156	H	0.288217	1.024452	0.825956
O157	O	-0.237085	0.604197	0.481816
O158	O	0.262915	1.104197	0.981816
H159	H	-0.193575	0.586803	0.431781
H160	H	0.306425	1.086803	0.931781
O161	O	-0.925176	1.163917	0.307052
O162	O	-0.425176	1.663917	0.807052
H163	H	-0.902090	1.151957	0.238815
H164	H	-0.402090	1.651957	0.738815
H165	H	-0.267749	1.163275	0.920485
H166	H	0.232251	1.663275	1.420485
O167	O	-0.826854	1.193993	0.481653
O168	O	-0.326854	1.693993	0.981653
H169	H	-0.849863	1.205681	0.550012
H170	H	-0.349863	1.705681	1.050012
