data_functionalizedCrystal
_audit_creation_method	'MofGen! by Chris Wilmer'
_symmetry_space_group_name_H-M	'P1'
_symmetry_Int_Tables_number	1
_symmetry_cell_setting	triclinic
loop_
_symmetry_equiv_pos_as_xyz
  x,y,z
_cell_length_a	14.519731
_cell_length_b	14.519709
_cell_length_c	9.730223
_cell_angle_alpha	89.994652
_cell_angle_beta	89.996618
_cell_angle_gamma	83.684499
loop_
_atom_site_label
_atom_site_type_symbol
_atom_site_fract_x
_atom_site_fract_y
_atom_site_fract_z
O1	O	1.223854	0.120984	-0.114296
O2	O	1.557187	0.454318	0.219037
O3	O	1.890520	0.787651	0.552371
O4	O	0.955380	0.135201	-0.114298
O5	O	1.288713	0.468534	0.219035
O6	O	1.622046	0.801867	0.552368
O7	O	1.096735	-0.006145	-0.114285
O8	O	1.430068	0.327188	0.219049
O9	O	1.763402	0.660521	0.552382
O10	O	1.082498	0.262330	-0.114310
O11	O	1.415832	0.595664	0.219024
O12	O	1.749165	0.928997	0.552357
O13	O	1.096726	-0.006149	0.114295
O14	O	1.430059	0.327184	0.447629
O15	O	1.763393	0.660517	0.780962
O16	O	0.955370	0.135197	0.114282
O17	O	1.288704	0.468530	0.447615
O18	O	1.622037	0.801863	0.780948
O19	O	1.223845	0.120981	0.114284
O20	O	1.557178	0.454314	0.447617
O21	O	1.890511	0.787647	0.780951
Zn22	Zn	1.089606	0.128088	0.150575
Zn23	Zn	1.422940	0.461421	0.483908
Zn24	Zn	1.756273	0.794755	0.817242
Zn25	Zn	1.089618	0.128093	-0.150589
Zn26	Zn	1.422951	0.461426	0.182744
Zn27	Zn	1.756285	0.794760	0.516078
O28	O	1.082489	0.262327	0.114270
O29	O	1.415823	0.595660	0.447604
O30	O	1.749156	0.928993	0.780937
C31	C	0.921016	0.134532	-0.000009
C32	C	1.254349	0.467866	0.333325
C33	C	1.587682	0.801199	0.666658
C34	C	0.818635	0.132536	-0.000009
C35	C	1.151969	0.465870	0.333324
C36	C	1.485302	0.799203	0.666658
C37	C	1.096067	-0.040507	0.000006
C38	C	1.429400	0.292826	0.333339
C39	C	1.762734	0.626160	0.666672
C40	C	1.094079	-0.142889	0.000006
C41	C	1.427412	0.190445	0.333340
C42	C	1.760745	0.523778	0.666673
C43	C	0.735491	0.130915	-0.000015
C44	C	1.068825	0.464248	0.333319
C45	C	1.402158	0.797581	0.666652
C46	C	0.631182	0.128888	-0.000015
C47	C	0.964516	0.462221	0.333319
C48	C	1.297849	0.795555	0.666652
C49	C	0.548043	0.127280	-0.000015
C50	C	0.881377	0.460613	0.333319
C51	C	1.214710	0.793946	0.666652
C52	C	0.443728	0.125253	-0.000017
C53	C	0.777061	0.458586	0.333316
C54	C	1.110395	0.791920	0.666649
C55	C	1.086759	-0.517785	-0.000029
C56	C	1.420093	-0.184452	0.333304
C57	C	1.753426	0.148882	0.666637
C58	C	1.088792	-0.413477	-0.000019
C59	C	1.422125	-0.080143	0.333314
C60	C	1.755459	0.253190	0.666648
C61	C	1.090419	-0.330340	-0.000010
C62	C	1.423752	0.002993	0.333323
C63	C	1.757085	0.336327	0.666656
C64	C	1.092452	-0.226025	-0.000002
C65	C	1.425785	0.107308	0.333331
C66	C	1.759118	0.440641	0.666664
C67	C	1.258209	0.121649	-0.000009
C68	C	1.591542	0.454982	0.333325
C69	C	1.924875	0.788315	0.666658
C70	C	1.360589	0.123645	-0.000017
C71	C	1.693922	0.456978	0.333316
C72	C	2.027256	0.790311	0.666649
C73	C	1.083157	0.296688	-0.000023
C74	C	1.416491	0.630022	0.333311
C75	C	1.749824	0.963355	0.666644
C76	C	1.085146	0.399070	-0.000033
C77	C	1.418479	0.732403	0.333301
C78	C	1.751812	1.065736	0.666634
N79	N	1.089605	0.128084	0.356111
N80	N	1.422938	0.461417	0.689445
N81	N	1.756271	0.794751	1.022778
N82	N	1.089627	0.128090	-0.356125
N83	N	1.422960	0.461423	-0.022792
N84	N	1.756294	0.794756	0.310541
C85	C	1.152218	0.065522	0.428043
C86	C	1.485551	0.398856	0.761377
C87	C	1.818885	0.732189	1.094710
C88	C	1.152227	0.065523	0.571926
C89	C	1.485561	0.398856	0.905260
C90	C	1.818894	0.732189	1.238593
C91	C	1.027007	0.190654	0.571932
C92	C	1.360340	0.523988	0.905266
C93	C	1.693673	0.857321	1.238599
C94	C	1.026994	0.190649	0.428052
C95	C	1.360327	0.523982	0.761385
C96	C	1.693661	0.857316	1.094719
H97	H	1.203198	0.014577	0.369472
H98	H	1.536532	0.347910	0.702806
H99	H	1.869865	0.681244	1.036139
C100	C	1.276008	-0.058154	0.557458
C101	C	1.609341	0.275179	0.890791
C102	C	1.942674	0.608512	1.224125
C103	C	1.221058	-0.003243	0.650994
C104	C	1.554391	0.330090	0.984327
C105	C	1.887725	0.663423	1.317660
H106	H	1.318505	-0.100605	0.606274
H107	H	1.651838	0.232728	0.939607
H108	H	1.985172	0.566061	1.272940
H109	H	1.237567	-0.091419	0.501360
H110	H	1.570901	0.241914	0.834693
H111	H	1.904234	0.575247	1.168027
H112	H	1.309229	-0.019676	0.501320
H113	H	1.642562	0.313658	0.834654
H114	H	1.975896	0.646991	1.167987
H115	H	1.187831	-0.041722	0.707125
H116	H	1.521164	0.291612	1.040458
H117	H	1.854498	0.624945	1.373792
H118	H	1.259503	0.030024	0.707115
H119	H	1.592837	0.363357	1.040449
H120	H	1.926170	0.696691	1.373782
C121	C	0.973096	0.350184	0.616195
C122	C	1.306430	0.683517	0.949528
C123	C	1.639763	1.016850	1.282862
C124	C	0.958188	0.259429	0.651007
C125	C	1.291521	0.592762	0.984340
C126	C	1.624855	0.926096	1.317673
H127	H	0.930605	0.392642	0.665004
H128	H	1.263938	0.725975	0.998337
H129	H	1.597271	1.059309	1.331670
H130	H	1.034650	0.360342	0.639765
H131	H	1.367983	0.693675	0.973099
H132	H	1.701317	1.027008	1.306432
H133	H	0.964129	0.359118	0.520206
H134	H	1.297462	0.692452	0.853540
H135	H	1.630796	1.025785	1.186873
H136	H	0.967162	0.250492	0.746994
H137	H	1.300495	0.583825	1.080328
H138	H	1.633829	0.917159	1.413661
H139	H	0.896620	0.249267	0.627446
H140	H	1.229953	0.582600	0.960779
H141	H	1.563286	0.915934	1.294112
H142	H	0.976002	0.241595	0.369481
H143	H	1.309336	0.574928	0.702815
H144	H	1.642669	0.908261	1.036148
