data_functionalizedCrystal
_audit_creation_method	'MofGen! by Chris Wilmer'
_symmetry_space_group_name_H-M	'P1'
_symmetry_Int_Tables_number	1
_symmetry_cell_setting	triclinic
loop_
_symmetry_equiv_pos_as_xyz
  x,y,z
_cell_length_a	15.712078
_cell_length_b	15.625429
_cell_length_c	14.750779
_cell_angle_alpha	59.907167
_cell_angle_beta	106.492891
_cell_angle_gamma	101.022721
loop_
_atom_site_label
_atom_site_type_symbol
_atom_site_fract_x
_atom_site_fract_y
_atom_site_fract_z
O1	O	1.084597	0.539447	-0.267790
O2	O	1.584597	1.039447	0.232210
O3	O	0.838831	0.466530	-0.242365
O4	O	1.338831	0.966530	0.257635
O5	O	0.979639	0.365977	-0.207390
O6	O	1.479639	0.865977	0.292610
O7	O	0.943789	0.640000	-0.302766
O8	O	1.443789	1.140000	0.197234
O9	O	1.019444	0.337557	-0.037854
O10	O	1.519444	0.837557	0.462146
O11	O	0.878636	0.438110	-0.072830
O12	O	1.378636	0.938110	0.427170
O13	O	1.124402	0.511027	-0.098255
O14	O	1.624402	1.011027	0.401745
Zn15	Zn	1.007838	0.470056	-0.058625
Zn16	Zn	1.507838	0.970056	0.441375
Zn17	Zn	0.955394	0.507501	-0.281995
Zn18	Zn	1.455394	1.007501	0.218005
O19	O	0.983594	0.611580	-0.133230
O20	O	1.483594	1.111580	0.366770
C21	C	0.827492	0.440408	-0.153446
C22	C	1.327492	0.940408	0.346554
C23	C	0.734403	0.404903	-0.141071
C24	C	1.234403	0.904903	0.358929
C25	C	0.342990	0.706335	-0.246052
C26	C	0.842990	1.206335	0.253948
C27	C	0.255514	0.672958	-0.234459
C28	C	0.755514	1.172958	0.265541
C29	C	0.289614	0.505692	-0.176243
C30	C	0.789614	1.005692	0.323757
C31	C	0.377094	0.539056	-0.187836
C32	C	0.877094	1.039056	0.312164
C33	C	0.403775	0.639378	-0.222740
C34	C	0.903775	1.139378	0.277260
C35	C	0.437879	0.472099	-0.164524
C36	C	0.937879	0.972099	0.335476
C37	C	0.525352	0.505460	-0.176112
C38	C	1.025352	1.005460	0.323888
C39	C	0.552041	0.605778	-0.211011
C40	C	1.052041	1.105778	0.288989
C41	C	0.491248	0.672739	-0.234328
C42	C	0.991248	1.172739	0.265672
C43	C	0.411198	0.371776	-0.129613
C44	C	0.911198	0.871776	0.370387
C45	C	0.471983	0.304819	-0.106302
C46	C	0.971983	0.804819	0.393698
C47	C	0.559456	0.338181	-0.117896
C48	C	1.059456	0.838181	0.382104
C49	C	0.586145	0.438499	-0.152795
C50	C	1.086145	0.938499	0.347205
C51	C	0.620249	0.271220	-0.094580
C52	C	1.120249	0.771220	0.405420
C53	C	0.707723	0.304581	-0.106167
C54	C	1.207723	0.804581	0.393833
C55	C	0.673619	0.471860	-0.164383
C56	C	1.173619	0.971860	0.335617
C57	C	1.001865	0.315886	-0.110135
C58	C	1.501865	0.815886	0.389865
C59	C	1.008778	0.208968	-0.072927
C60	C	1.508778	0.708968	0.427073
C61	C	1.135741	0.537149	-0.187177
C62	C	1.635741	1.037149	0.312823
C63	C	1.228828	0.572655	-0.199558
C64	C	1.728828	1.072655	0.300442
C65	C	0.923014	-0.065226	-0.412582
C66	C	1.423014	0.434774	0.087418
C67	C	0.929514	-0.165698	-0.377586
C68	C	1.429514	0.334302	0.122414
C69	C	0.972906	-0.196667	-0.192770
C70	C	1.472906	0.303333	0.307230
C71	C	0.966414	-0.096195	-0.227750
C72	C	1.466414	0.403805	0.272250
C73	C	0.941467	-0.030482	-0.337657
C74	C	1.441467	0.469518	0.162343
C75	C	0.984867	-0.061450	-0.152826
C76	C	1.484867	0.438550	0.347174
C77	C	0.978371	0.039012	-0.187803
C78	C	1.478371	0.539012	0.312197
C79	C	0.953422	0.104730	-0.297705
C80	C	1.453422	0.604730	0.202295
C81	C	0.934971	0.069980	-0.372634
C82	C	1.434971	0.569980	0.127366
C83	C	1.009808	-0.127166	-0.042919
C84	C	1.509808	0.372834	0.457081
C85	C	1.028260	-0.092421	0.032005
C86	C	1.528260	0.407579	0.532005
C87	C	1.021771	0.008044	-0.002972
C88	C	1.521771	0.508044	0.497028
C89	C	0.996822	0.073762	-0.112874
C90	C	1.496822	0.573762	0.387126
C91	C	1.040222	0.042793	0.071957
C92	C	1.540222	0.542793	0.571957
C93	C	1.033726	0.143256	0.036980
C94	C	1.533726	0.643256	0.536980
C95	C	0.990326	0.174224	-0.147851
C96	C	1.490326	0.674224	0.352149
C97	C	0.961367	0.661672	-0.230487
C98	C	1.461367	1.161672	0.269513
C99	C	0.954452	0.768590	-0.267702
C100	C	1.454452	1.268590	0.232298
N101	N	1.043636	0.444502	0.093819
N102	N	1.543636	0.944502	0.593819
N103	N	0.919604	0.533050	-0.434438
N104	N	1.419604	1.033050	0.065562
C105	C	0.819629	0.604376	0.390029
C106	C	1.319629	1.104376	0.890029
C107	C	0.844720	0.586478	0.496753
C108	C	1.344720	1.086478	0.996753
C109	C	0.969425	0.497495	0.527667
C110	C	1.469425	0.997495	1.027667
C111	C	0.944342	0.515381	0.420945
C112	C	1.444342	1.015381	0.920945
C113	C	0.869444	0.568823	0.352133
C114	C	1.369444	1.068823	0.852133
C115	C	0.994157	0.479828	0.383048
C116	C	1.494157	0.979828	0.883048
C117	C	0.969079	0.497718	0.276334
C118	C	1.469079	0.997718	0.776334
C119	C	0.894186	0.551160	0.207515
C120	C	1.394186	1.051160	0.707515
C121	C	0.844366	0.586712	0.245418
C122	C	1.344366	1.086712	0.745418
C123	C	1.069059	0.426392	0.451860
C124	C	1.569059	0.926392	0.951860
C125	C	1.118874	0.390840	0.413964
C126	C	1.618874	0.890840	0.913964
C127	C	1.093793	0.408723	0.307249
C128	C	1.593793	0.908723	0.807249
C129	C	1.018899	0.462165	0.238430
C130	C	1.518899	0.962165	0.738430
C131	C	1.143612	0.373170	0.269346
C132	C	1.643612	0.873170	0.769346
C133	C	1.118534	0.391060	0.162631
C134	C	1.618534	0.891060	0.662631
C135	C	0.993821	0.480055	0.131715
C136	C	1.493821	0.980055	0.631715
H137	H	0.512973	0.754432	-0.262748
H138	H	1.012973	1.254432	0.237252
F139	F	0.318101	0.336271	-0.117273
F140	F	0.818101	0.836271	0.382727
F141	F	0.867499	0.570204	0.093936
F142	F	1.367499	1.070204	0.593936
H143	H	0.932826	0.523564	0.075688
H144	H	1.432826	1.023564	0.575688
H145	H	1.048734	0.171540	0.097993
H146	H	1.548734	0.671540	0.597993
H147	H	1.204600	0.329666	0.325383
H148	H	1.704600	0.829666	0.825383
F149	F	0.645148	0.641278	-0.223306
F150	F	1.145148	1.141278	0.276694
F151	F	0.791692	0.624327	0.537075
F152	F	1.291692	1.124327	1.037075
F153	F	0.772418	0.233318	-0.081354
F154	F	1.272418	0.733318	0.418646
F155	F	0.946510	0.211653	-0.334932
F156	F	1.446510	0.711653	0.165068
H157	H	0.914478	-0.193982	-0.438607
H158	H	1.414478	0.306018	0.061393
F159	F	0.908430	0.139925	-0.489611
F160	F	1.408430	0.639925	0.010389
H161	H	1.159100	0.362110	0.131777
H162	H	1.659100	0.862110	0.631777
F163	F	1.054803	-0.162368	0.148973
F164	F	1.554803	0.337632	0.648973
F165	F	0.896473	0.004718	-0.529558
F166	F	1.396473	0.504718	-0.029558
H167	H	1.015087	-0.208970	-0.014443
H168	H	1.515087	0.291030	0.485557
H169	H	0.206024	0.727489	-0.253440
H170	H	0.706024	1.227489	0.246560
F171	F	0.591844	0.164451	-0.057421
F172	F	1.091844	0.664451	0.442579
F173	F	0.702016	0.578637	-0.201543
F174	F	1.202016	1.078637	0.298457
F175	F	0.963785	0.244169	-0.264828
F176	F	1.463785	0.744169	0.235172
H177	H	0.364714	0.788027	-0.274473
H178	H	0.864714	1.288027	0.225527
H179	H	0.783371	0.630222	0.189391
H180	H	1.283371	1.130222	0.689391
F181	F	0.261209	0.398924	-0.139093
F182	F	0.761209	0.898924	0.360907
F183	F	0.443578	0.198051	-0.069152
F184	F	0.943578	0.698051	0.430848
H185	H	0.993215	-0.250183	-0.103284
H186	H	1.493215	0.249817	0.396716
F187	F	1.066757	-0.027157	0.188925
F188	F	1.566757	0.472843	0.688925
H189	H	0.758634	0.647885	0.334002
H190	H	1.258634	1.147885	0.834002
F191	F	1.049137	0.440622	0.600908
F192	F	1.549137	0.940622	1.100908
F193	F	1.095749	0.407361	0.565434
F194	F	1.595749	0.907361	1.065434
F195	F	1.198586	0.333967	0.487205
F196	F	1.698586	0.833967	0.987205
