data_functionalizedCrystal
_audit_creation_method	'MofGen! by Chris Wilmer'
_symmetry_space_group_name_H-M	'P1'
_symmetry_Int_Tables_number	1
_symmetry_cell_setting	triclinic
loop_
_symmetry_equiv_pos_as_xyz
  x,y,z
_cell_length_a	14.853569
_cell_length_b	15.944493
_cell_length_c	13.930277
_cell_angle_alpha	90.001318
_cell_angle_beta	89.994756
_cell_angle_gamma	83.555304
loop_
_atom_site_label
_atom_site_type_symbol
_atom_site_fract_x
_atom_site_fract_y
_atom_site_fract_z
O1	O	1.196202	0.109674	-0.079774
O2	O	0.933723	0.122736	-0.079784
O3	O	1.072158	-0.006065	-0.079787
O4	O	1.057768	0.238475	-0.079771
O5	O	1.072138	-0.006068	0.079875
O6	O	0.933704	0.122734	0.079878
O7	O	1.196183	0.109671	0.079888
Zn8	Zn	1.064940	0.116202	0.105233
Zn9	Zn	1.064966	0.116205	-0.105129
O10	O	1.057749	0.238472	0.079890
C11	C	0.900126	0.122143	0.000045
C12	C	0.800045	0.120368	0.000041
C13	C	0.763785	0.043025	0.000033
C14	C	0.742265	0.196045	0.000053
C15	C	0.648233	0.194380	0.000054
C16	C	0.611973	0.117037	0.000046
C17	C	0.669745	0.041358	0.000036
C18	C	0.590455	0.270058	0.000073
C19	C	0.496417	0.268396	0.000075
C20	C	0.460155	0.191052	0.000060
C21	C	0.517933	0.115370	0.000050
C22	C	0.481673	0.038027	0.000041
C23	C	0.539449	-0.037656	0.000024
C24	C	0.633483	-0.035986	0.000021
C25	C	0.366121	0.189382	0.000063
C26	C	0.387633	0.036360	0.000045
C27	C	1.071560	-0.037362	0.000040
C28	C	1.069797	-0.130613	0.000028
C29	C	1.151282	-0.366281	0.000049
C30	C	1.107350	-0.416897	-0.078674
C31	C	1.066529	-0.301337	0.000039
C32	C	1.107311	-0.416876	0.078740
C33	C	1.063380	-0.466250	0.000055
C34	C	1.022620	-0.350725	-0.078748
C35	C	1.022593	-0.350700	0.078736
C36	C	0.978598	-0.401283	-0.000006
C37	C	1.068346	-0.206335	0.000030
C38	C	1.061556	-0.561250	0.000058
C39	C	1.229780	0.110264	0.000056
C40	C	1.329861	0.112039	0.000054
C41	C	1.058346	0.269769	0.000062
C42	C	1.060110	0.363020	0.000068
N43	N	1.064930	0.116199	0.248799
N44	N	1.064984	0.116202	-0.248695
C45	C	1.003665	0.173216	0.701069
C46	C	1.126292	0.059188	0.701036
C47	C	1.126281	0.059185	0.600540
C48	C	1.064962	0.116200	0.550304
C49	C	1.003654	0.173217	0.600564
C50	C	1.187594	0.002175	0.550273
C51	C	1.187587	0.002171	0.449771
C52	C	1.126263	0.059182	0.399533
C53	C	1.064951	0.116201	0.449799
C54	C	1.003632	0.173215	0.399563
C55	C	0.942316	0.230231	0.449827
C56	C	0.942330	0.230228	0.550326
C57	C	1.126249	0.059184	0.299035
C58	C	1.003622	0.173216	0.299058
H59	H	0.680533	-0.097603	0.000009
C60	C	1.155716	-0.455954	-0.168578
N61	N	1.192151	-0.485372	-0.236290
H62	H	0.319084	0.251002	0.000085
H63	H	1.143113	-0.445768	0.145290
H64	H	0.986856	-0.321944	-0.145374
C65	C	0.879898	-0.422292	-0.000067
N66	N	0.805558	-0.438117	-0.000117
H67	H	0.986824	-0.321781	0.145291
C68	C	0.936187	0.235959	0.243807
N69	N	0.885404	0.283226	0.202192
C70	C	1.193693	-0.003528	0.243749
N71	N	1.244494	-0.050769	0.202109
H72	H	0.619985	0.333027	0.000086
H73	H	0.892393	0.276656	0.408914
H74	H	1.237513	-0.044255	0.408852
H75	H	0.892409	0.276649	0.591257
C76	C	0.936214	0.235925	0.756359
N77	N	0.885407	0.283156	0.798006
C78	C	1.193739	-0.003524	0.756299
N79	N	1.244541	-0.050763	0.797927
H80	H	0.358118	-0.026623	0.000033
H81	H	1.237523	-0.044241	0.591179
H82	H	0.509914	-0.100629	0.000011
H83	H	0.810830	-0.018594	0.000015
H84	H	0.771794	0.259014	0.000066
H85	H	1.224286	-0.350571	-0.000027
C86	C	0.432871	0.351648	0.000096
N87	N	0.385008	0.414355	0.000111
