data_functionalizedCrystal
_audit_creation_method	'MofGen! by Chris Wilmer'
_symmetry_space_group_name_H-M	'P1'
_symmetry_Int_Tables_number	1
_symmetry_cell_setting	triclinic
loop_
_symmetry_equiv_pos_as_xyz
  x,y,z
_cell_length_a	10.654565
_cell_length_b	9.730223
_cell_length_c	10.654551
_cell_angle_alpha	89.998531
_cell_angle_beta	95.511660
_cell_angle_gamma	89.994095
loop_
_atom_site_label
_atom_site_type_symbol
_atom_site_fract_x
_atom_site_fract_y
_atom_site_fract_z
O1	O	-1.667823	0.114462	0.176487
O2	O	-1.302347	0.114424	0.193272
O3	O	-1.493488	0.114445	0.002141
O4	O	-1.476683	0.114442	0.367618
O5	O	-1.493485	-0.114135	0.002146
O6	O	-1.302345	-0.114156	0.193277
O7	O	-1.667821	-0.114118	0.176492
Zn8	Zn	-1.485083	-0.150429	0.184885
Zn9	Zn	-1.485086	0.150735	0.184879
O10	O	-1.476681	-0.114138	0.367623
C11	C	-1.255549	0.000130	0.192038
C12	C	-1.116106	0.000115	0.188339
C13	C	-1.050574	-0.124476	0.186616
C14	C	-0.919552	-0.124460	0.183149
C15	C	-0.919605	0.124750	0.183135
C16	C	-1.050626	0.124733	0.186592
C17	C	-1.116055	-0.249093	0.188362
C18	C	-1.050523	-0.373695	0.186641
C19	C	-0.919501	-0.373680	0.183174
C20	C	-0.854011	-0.249062	0.181430
N21	N	-1.485090	-0.355965	0.184889
C22	C	-1.569749	-0.427882	0.100285
C23	C	-1.569745	-0.571765	0.100270
C24	C	-1.400420	-0.571801	0.269474
C25	C	-1.400419	-0.427921	0.269482
C26	C	-1.654420	-0.355926	0.015692
C27	C	-1.739087	-0.427843	-0.068918
C28	C	-1.739083	-0.571726	-0.068933
C29	C	-1.654413	-0.643692	0.015661
C30	C	-0.714620	0.000166	0.177723
C31	C	-0.854063	0.000149	0.181415
C32	C	-1.492252	0.000158	-0.044655
C33	C	-1.488560	0.000167	-0.184098
N34	N	-1.485088	0.356272	0.184865
C35	C	-1.486829	0.124763	-0.249613
C36	C	-1.483349	0.124756	-0.380633
C37	C	-1.483336	-0.124454	-0.380613
C38	C	-1.486807	-0.124446	-0.249594
C39	C	-1.486842	0.268643	-0.249626
C40	C	-1.483361	0.268636	-0.380646
C41	C	-1.477916	0.000152	0.414419
C42	C	-1.481608	0.000152	0.553862
H43	H	-1.103982	0.226186	0.188001
O44	O	-1.586808	0.334541	-0.436079
C45	C	-1.583119	0.334383	-0.568006
H46	H	-1.481558	0.321009	-0.591105
H47	H	-1.642993	0.246046	-0.611012
C48	C	-1.760142	0.488030	-0.594446
C49	C	-1.635401	0.471615	-0.622817
H50	H	-1.792397	0.572678	-0.628259
H51	H	-1.762631	0.488133	-0.505565
H52	H	-1.810022	0.414407	-0.630287
H53	H	-1.585521	0.545227	-0.586964
H54	H	-1.632905	0.471527	-0.711694
O55	O	-0.856190	0.245918	0.181406
C56	C	-0.942123	0.355886	0.183704
H57	H	-1.040359	0.319352	0.146470
H58	H	-0.943787	0.394188	0.284652
C59	C	-0.780389	0.518494	0.145879
C60	C	-0.901042	0.473624	0.100138
H61	H	-0.755047	0.591123	0.094337
H62	H	-0.722492	0.444407	0.144335
H63	H	-0.781791	0.550402	0.230002
H64	H	-0.899635	0.441701	0.016023
H65	H	-0.958938	0.547709	0.101665
O66	O	-1.481417	-0.245533	-0.444154
C67	C	-1.373702	-0.321353	-0.398831
H68	H	-1.298773	-0.248448	-0.353542
H69	H	-1.400266	-0.399038	-0.325774
C70	C	-1.413406	-0.487264	-0.564814
C71	C	-1.321371	-0.397718	-0.509199
H72	H	-1.381127	-0.534376	-0.632892
H73	H	-1.485978	-0.436186	-0.595348
H74	H	-1.435534	-0.551989	-0.503922
H75	H	-1.299257	-0.332986	-0.570087
H76	H	-1.248794	-0.448788	-0.478678
H77	H	-1.103855	-0.475154	0.188052
O78	O	-1.821133	-0.357817	-0.151188
C79	C	-1.753171	-0.274648	-0.229311
H80	H	-1.655354	-0.253081	-0.180171
H81	H	-1.743785	-0.330132	-0.322187
C82	C	-1.943886	-0.164471	-0.315925
C83	C	-1.823750	-0.137972	-0.255565
H84	H	-1.987424	-0.080165	-0.332126
H85	H	-1.989675	-0.220507	-0.263296
H86	H	-1.936048	-0.210711	-0.393315
H87	H	-1.831590	-0.091749	-0.178170
H88	H	-1.777964	-0.081925	-0.308182
H89	H	-1.578441	0.313294	-0.220055
O90	O	-1.318305	-0.641918	0.351604
C91	C	-1.336442	-0.784332	0.333434
H92	H	-1.435881	-0.803962	0.287426
H93	H	-1.264816	-0.825167	0.269775
C94	C	-1.196550	-0.834107	0.518239
C95	C	-1.318687	-0.858218	0.461740
H96	H	-1.185592	-0.879686	0.597382
H97	H	-1.184326	-0.738160	0.530478
H98	H	-1.136875	-0.868137	0.465176
H99	H	-1.378358	-0.824173	0.514794
H100	H	-1.330920	-0.954161	0.449512
H101	H	-1.331480	-0.369366	0.338373
O102	O	-1.383339	0.334723	-0.194565
C103	C	-1.382394	0.471304	-0.238666
H104	H	-1.440997	0.478519	-0.333748
H105	H	-1.424153	0.542007	-0.168161
C106	C	-1.173810	0.506385	-0.136856
C107	C	-1.245779	0.515243	-0.253644
H108	H	-1.089540	0.533492	-0.146090
H109	H	-1.174448	0.414369	-0.107140
H110	H	-1.208624	0.565304	-0.078114
H111	H	-1.210974	0.456312	-0.312378
H112	H	-1.245131	0.607250	-0.283370
O113	O	-1.821439	-0.641375	-0.151168
C114	C	-1.896143	-0.547006	-0.225848
H115	H	-1.898004	-0.444450	-0.174331
H116	H	-1.854564	-0.531693	-0.319531
C117	C	-2.029112	-0.729102	-0.313738
C118	C	-2.031406	-0.603145	-0.250459
H119	H	-2.112547	-0.763732	-0.328926
H120	H	-1.978780	-0.792682	-0.263430
H121	H	-1.994457	-0.716324	-0.391800
H122	H	-2.066045	-0.615927	-0.172393
H123	H	-2.081747	-0.539568	-0.300756
H124	H	-1.488210	-0.225904	-0.196256
O125	O	-1.654605	-0.783460	0.015510
C126	C	-1.747453	-0.831510	-0.077335
H127	H	-1.822082	-0.748591	-0.098529
H128	H	-1.701853	-0.857019	-0.167011
C129	C	-1.718003	-1.063392	-0.002958
C130	C	-1.809669	-0.961553	-0.028980
H131	H	-1.756377	-1.143612	0.026866
H132	H	-1.655445	-1.031022	0.059591
H133	H	-1.680010	-1.084633	-0.077693
H134	H	-1.847648	-0.940302	0.045757
H135	H	-1.872234	-0.993923	-0.091516
H136	H	-1.222739	-0.249120	0.191189
H137	H	-0.866149	-0.475136	0.181763
H138	H	-0.747324	-0.249059	0.178604
H139	H	-1.391766	0.313284	-0.410220
H140	H	-1.654433	-0.238769	0.015699
