data_functionalizedCrystal
_audit_creation_method	'MofGen! by Chris Wilmer'
_symmetry_space_group_name_H-M	'P1'
_symmetry_Int_Tables_number	1
_symmetry_cell_setting	triclinic
loop_
_symmetry_equiv_pos_as_xyz
  x,y,z
_cell_length_a	19.805407
_cell_length_b	16.120484
_cell_length_c	19.805399
_cell_angle_alpha	92.871043
_cell_angle_beta	89.980427
_cell_angle_gamma	92.925608
loop_
_atom_site_label
_atom_site_type_symbol
_atom_site_fract_x
_atom_site_fract_y
_atom_site_fract_z
Zn1	Zn	1.021075	-0.331927	-0.396377
Zn2	Zn	1.015252	-0.471346	-0.288925
Zn3	Zn	0.907889	-0.331950	-0.283203
Zn4	Zn	0.902117	-0.471302	-0.402070
O5	O	0.961584	-0.401631	-0.342644
O6	O	1.115019	-0.350431	-0.382136
O7	O	1.000989	-0.452883	-0.193451
O8	O	0.927756	-0.215281	-0.293438
O9	O	1.110741	-0.452861	-0.303191
O10	O	1.010913	-0.215264	-0.376587
O11	O	0.922109	-0.350470	-0.189246
O12	O	0.812407	-0.350427	-0.298958
O13	O	0.917919	-0.452785	-0.496030
O14	O	0.808167	-0.452807	-0.386290
O15	O	1.005317	-0.350388	-0.491848
O16	O	0.995392	-0.588006	-0.308712
O17	O	0.912273	-0.587974	-0.391839
C18	C	0.785728	-0.401615	-0.342621
C19	C	0.710496	-0.401629	-0.342628
C20	C	0.952593	-0.618240	-0.351529
C21	C	0.948809	-0.710906	-0.355353
C22	C	0.672958	-0.455019	-0.388035
C23	C	0.602269	-0.455020	-0.388045
C24	C	0.569120	-0.401635	-0.342644
C25	C	0.606663	-0.348239	-0.297235
C26	C	0.677350	-0.348234	-0.297229
C27	C	0.321589	-0.348258	-0.297258
C28	C	0.250896	-0.348269	-0.297266
C29	C	0.246508	-0.455043	-0.388074
C30	C	0.317195	-0.455038	-0.388068
C31	C	0.354732	-0.401640	-0.342662
C32	C	0.431381	-0.401638	-0.342653
C33	C	0.492472	-0.401641	-0.342649
C34	C	0.941903	-0.880568	-0.362347
C35	C	0.981385	-0.921854	-0.322951
C36	C	0.977543	-1.016260	-0.326843
C37	C	0.945745	-0.786154	-0.358456
C38	C	1.138126	-0.401648	-0.342667
C39	C	1.213357	-0.401655	-0.342677
C40	C	0.961624	-0.401579	-0.519184
C41	C	0.961641	-0.401556	-0.594416
C42	C	0.970628	-0.184177	-0.333739
C43	C	0.974482	-0.091511	-0.329944
C44	C	1.007150	-0.348235	-0.627583
C45	C	1.007158	-0.348211	-0.698270
C46	C	0.961659	-0.401513	-0.735789
C47	C	0.916145	-0.454836	-0.702617
C48	C	0.916135	-0.454856	-0.631931
C49	C	0.916187	-0.454759	-0.987688
C50	C	0.916202	-0.454737	-1.058379
C51	C	1.007210	-0.348114	-1.054027
C52	C	1.007199	-0.348133	-0.983340
C53	C	0.961683	-0.401453	-0.950174
C54	C	0.961674	-0.401478	-0.873527
C55	C	0.961671	-0.401493	-0.812436
C56	C	0.961585	-0.401623	-0.166787
C57	C	0.961709	-0.401411	-0.091547
H58	H	0.571709	-0.498496	-0.425019
C59	C	0.757299	-0.336502	-0.205716
C60	C	0.718618	-0.289551	-0.247316
H61	H	0.782778	-0.300269	-0.174906
H62	H	0.728207	-0.372776	-0.181267
H63	H	0.787152	-0.368293	-0.232764
H64	H	0.688761	-0.257765	-0.220269
H65	H	0.747712	-0.253262	-0.271767
C66	C	1.021233	-0.236029	-0.773153
C67	C	1.057180	-0.289588	-0.734720
H68	H	1.052116	-0.199829	-0.795650
H69	H	0.994148	-0.267767	-0.805616
H70	H	0.993064	-0.204158	-0.744254
H71	H	1.085346	-0.321464	-0.763620
H72	H	1.084277	-0.257847	-0.702254
C73	C	0.826193	-0.560272	-0.643329
C74	C	0.866121	-0.513482	-0.595472
H75	H	0.795320	-0.596471	-0.620820
H76	H	0.801811	-0.523942	-0.669401
H77	H	0.854372	-0.592146	-0.672216
H78	H	0.837943	-0.481604	-0.566588
H79	H	0.890505	-0.549817	-0.569388
H80	H	0.879097	-0.498232	-0.733171
C81	C	1.047636	-0.300720	-1.160451
C82	C	1.057236	-0.289492	-1.090485
H83	H	1.078518	-0.264527	-1.182956
H84	H	1.055216	-0.356726	-1.174330
H85	H	1.002667	-0.288509	-1.171519
H86	H	1.102204	-0.301709	-1.079417
H87	H	1.049661	-0.233473	-1.076600
H88	H	0.879149	-0.498143	-1.088925
H89	H	1.018071	-0.886299	-0.286299
C90	C	0.898106	-1.014146	-0.406137
C91	C	0.892373	-0.928559	-0.411817
H92	H	0.867523	-1.043779	-0.436673
H93	H	0.943006	-1.028302	-0.416665
H94	H	0.887665	-1.028402	-0.361222
H95	H	0.902819	-0.914302	-0.456731
H96	H	0.847463	-0.914398	-0.401294
H97	H	1.044202	-0.304833	-0.597039
H98	H	1.044251	-0.304733	-0.952796
H99	H	0.879134	-0.498187	-0.960693
C100	C	0.527618	-0.336509	-0.205731
C101	C	0.570225	-0.289555	-0.247331
H102	H	0.505127	-0.300278	-0.174919
H103	H	0.495148	-0.368301	-0.232774
H104	H	0.553685	-0.372784	-0.181278
H105	H	0.544157	-0.253285	-0.271788
H106	H	0.602699	-0.257749	-0.220284
H107	H	0.699943	-0.498494	-0.425004
C108	C	0.396244	-0.466755	-0.479568
C109	C	0.353634	-0.513717	-0.437976
H110	H	0.418741	-0.502982	-0.510378
H111	H	0.370181	-0.430483	-0.504018
H112	H	0.428714	-0.434962	-0.452516
H113	H	0.321160	-0.545506	-0.465028
H114	H	0.379698	-0.550004	-0.413525
H115	H	0.223908	-0.304791	-0.260295
C116	C	0.166573	-0.466781	-0.479602
C117	C	0.205245	-0.513732	-0.437994
H118	H	0.141104	-0.503014	-0.510421
H119	H	0.136717	-0.434996	-0.452565
H120	H	0.195674	-0.430501	-0.504047
H121	H	0.176143	-0.550008	-0.413545
H122	H	0.235104	-0.545532	-0.465034
C123	C	0.318816	-0.242713	-0.207499
C124	C	0.362843	-0.289564	-0.247347
H125	H	0.344288	-0.206480	-0.176683
H126	H	0.292577	-0.210881	-0.235729
H127	H	0.289731	-0.279008	-0.183050
H128	H	0.391925	-0.253270	-0.271800
H129	H	0.389093	-0.321399	-0.219113
