data_functionalizedCrystal
_audit_creation_method	'MofGen! by Chris Wilmer'
_symmetry_space_group_name_H-M	'P1'
_symmetry_Int_Tables_number	1
_symmetry_cell_setting	triclinic
loop_
_symmetry_equiv_pos_as_xyz
  x,y,z
_cell_length_a	16.959455
_cell_length_b	21.295411
_cell_length_c	16.959454
_cell_angle_alpha	90.013189
_cell_angle_beta	89.982978
_cell_angle_gamma	89.976585
loop_
_atom_site_label
_atom_site_type_symbol
_atom_site_fract_x
_atom_site_fract_y
_atom_site_fract_z
Zn1	Zn	1.208455	-0.355929	0.314836
Zn2	Zn	1.208356	-0.250670	0.446997
Zn3	Zn	1.076262	-0.250676	0.314830
Zn4	Zn	1.076248	-0.355904	0.446969
O5	O	1.142330	-0.303295	0.380908
O6	O	1.319052	-0.341974	0.332382
O7	O	1.190798	-0.162582	0.429474
O8	O	1.093845	-0.264651	0.204220
O9	O	1.318980	-0.264641	0.429480
O10	O	1.190966	-0.341980	0.204224
O11	O	1.093750	-0.162586	0.332371
O12	O	0.965649	-0.264627	0.332344
O13	O	1.093821	-0.443997	0.429433
O14	O	0.965639	-0.341937	0.429426
O15	O	1.190952	-0.444015	0.332355
O16	O	1.190785	-0.264616	0.557604
O17	O	1.093725	-0.341931	0.557584
C18	C	0.936964	-0.303280	0.380882
C19	C	0.849107	-0.303289	0.380890
C20	C	0.477613	-0.263123	0.330316
C21	C	0.477651	-0.343502	0.431565
C22	C	0.560197	-0.343498	0.431554
C23	C	0.601454	-0.303306	0.380924
C24	C	0.560166	-0.263117	0.330305
C25	C	0.601491	-0.383682	0.482178
C26	C	0.684042	-0.383679	0.482169
C27	C	0.725301	-0.343489	0.431534
C28	C	0.684008	-0.303299	0.380912
C29	C	0.725266	-0.263107	0.330282
C30	C	0.683974	-0.222920	0.279656
C31	C	0.601426	-0.222927	0.279670
C32	C	0.807849	-0.343482	0.431520
C33	C	0.807819	-0.263100	0.330271
C34	C	1.142396	-0.467485	0.380891
C35	C	1.142424	-0.537453	0.380884
C36	C	1.192998	-0.570331	0.330334
C37	C	1.192997	-0.636073	0.330299
C38	C	1.142430	-0.668936	0.380830
C39	C	1.091846	-0.636051	0.431384
C40	C	1.091843	-0.570309	0.431411
N41	N	1.136344	-0.772159	0.449976
N42	N	1.136352	-0.834611	0.449948
C43	C	1.142435	-0.867011	0.380750
N44	N	1.148526	-0.834600	0.311579
N45	N	1.148522	-0.772143	0.311608
C46	C	1.142427	-0.740221	0.380806
C47	C	1.193011	-0.971174	0.330158
C48	C	1.193004	-1.036917	0.330122
C49	C	1.091857	-1.036894	0.431214
C50	C	1.091859	-0.971151	0.431242
C51	C	1.142441	-0.938295	0.380715
C52	C	1.348498	-0.303310	0.380935
C53	C	1.436355	-0.303316	0.380946
C54	C	1.142264	-0.303284	0.586274
C55	C	1.142308	-0.303301	0.674131
C56	C	1.142310	-0.139743	0.380868
C57	C	1.142436	-0.069776	0.380652
C58	C	1.142418	-0.303319	0.174740
C59	C	1.142456	-0.303330	0.086883
C60	C	1.091865	-0.343548	1.045626
C61	C	1.193016	-0.263105	1.045587
C62	C	1.192988	-0.263100	0.963041
C63	C	1.142397	-0.303318	0.921784
C64	C	1.091834	-0.343543	0.963072
C65	C	1.243545	-0.222872	0.921747
C66	C	1.243519	-0.222864	0.839196
C67	C	1.192931	-0.263086	0.797937
C68	C	1.142366	-0.303312	0.839230
C69	C	1.091775	-0.343531	0.797973
C70	C	1.041214	-0.383761	0.839265
C71	C	1.041246	-0.383765	0.921813
C72	C	1.192899	-0.263082	0.715388
C73	C	1.091745	-0.343525	0.715419
H74	H	0.841465	-0.376200	0.472742
N75	N	0.433086	-0.219774	0.275720
H76	H	0.447429	-0.174782	0.287918
H77	H	0.447490	-0.229677	0.219282
N78	N	0.852309	-0.219752	0.275651
H79	H	0.837910	-0.174759	0.287841
H80	H	0.910856	-0.225895	0.283346
H81	H	1.234187	-1.063685	0.288953
H82	H	0.717577	-0.190192	0.238436
N83	N	1.247583	-0.219727	1.090074
H84	H	1.235330	-0.174742	1.075730
H85	H	1.239909	-0.225883	1.148621
N86	N	0.556994	-0.427024	0.536791
H87	H	0.498435	-0.420931	0.529113
H88	H	0.571453	-0.471998	0.524576
N89	N	1.037332	-0.386933	1.090161
H90	H	0.980857	-0.377113	1.075837
H91	H	1.049641	-0.431901	1.075749
H92	H	1.284689	-0.190107	0.805581
N93	N	1.247549	-0.534893	0.275838
H94	H	1.279588	-0.565701	0.243808
H95	H	1.215390	-0.507605	0.239263
N96	N	1.037320	-1.072331	0.485718
H97	H	1.005282	-1.041524	0.517750
H98	H	1.000754	-1.099593	0.453527
H99	H	1.234193	-0.944421	0.289011
N100	N	1.247420	-0.219693	0.670851
H101	H	1.279470	-0.194213	0.709514
H102	H	1.283974	-0.245339	0.636567
H103	H	1.050681	-0.944382	0.472411
N104	N	0.433147	-0.386849	0.486166
H105	H	0.447540	-0.431842	0.473968
H106	H	0.447513	-0.376945	0.542602
N107	N	0.556892	-0.179566	0.225094
H108	H	0.498337	-0.185661	0.232796
H109	H	0.571305	-0.134598	0.237337
H110	H	0.717654	-0.416403	0.523392
H111	H	1.234179	-0.662847	0.289131
N112	N	1.037292	-0.671491	0.485873
H113	H	1.044966	-0.718127	0.478184
H114	H	1.049557	-0.660011	0.542335
N115	N	1.037181	-0.386907	0.670922
H116	H	1.005159	-0.412391	0.709608
H117	H	1.000602	-0.361254	0.636709
N118	N	0.986646	-0.427132	0.794756
H119	H	1.018738	-0.456320	0.760468
H120	H	0.954628	-0.452577	0.833482
H121	H	1.050655	-0.543541	0.472575
N122	N	0.986713	-0.427150	0.966348
H123	H	0.994406	-0.421046	1.024902
H124	H	0.930263	-0.417308	0.951958
H125	H	1.284728	-0.190123	0.955345
