data_functionalizedCrystal
_audit_creation_method	'MofGen! by Chris Wilmer'
_symmetry_space_group_name_H-M	'P1'
_symmetry_Int_Tables_number	1
_symmetry_cell_setting	triclinic
loop_
_symmetry_equiv_pos_as_xyz
  x,y,z
_cell_length_a	19.077105
_cell_length_b	19.077068
_cell_length_c	12.759393
_cell_angle_alpha	87.737652
_cell_angle_beta	92.320093
_cell_angle_gamma	90.115316
loop_
_atom_site_label
_atom_site_type_symbol
_atom_site_fract_x
_atom_site_fract_y
_atom_site_fract_z
Zn1	Zn	1.063019	-0.322938	0.677057
Zn2	Zn	1.058198	-0.440458	0.508115
Zn3	Zn	0.945503	-0.318244	0.494066
Zn4	Zn	0.940754	-0.435680	0.676426
O5	O	1.001869	-0.379330	0.588916
O6	O	1.160711	-0.342491	0.660790
O7	O	1.043220	-0.424281	0.359230
O8	O	0.965097	-0.220537	0.512725
O9	O	1.157170	-0.428832	0.536669
O10	O	1.051435	-0.223986	0.647167
O11	O	0.960423	-0.334491	0.348909
O12	O	0.846542	-0.329858	0.512113
O13	O	0.957002	-0.420689	0.823530
O14	O	0.843052	-0.416138	0.646092
O15	O	1.046830	-0.337858	0.823994
O16	O	1.038614	-0.538153	0.536057
O17	O	0.952328	-0.534643	0.659714
C18	C	0.819301	-0.371971	0.577510
C19	C	0.741196	-0.368839	0.572657
C20	C	0.702702	-0.412357	0.640030
C21	C	0.629315	-0.409405	0.635474
C22	C	0.594424	-0.362939	0.563539
C23	C	0.632924	-0.319417	0.496163
C24	C	0.706310	-0.322365	0.500724
C25	C	0.375138	-0.349293	0.542432
C26	C	0.301747	-0.346349	0.537873
C27	C	0.298144	-0.436337	0.677187
C28	C	0.371531	-0.439285	0.681738
C29	C	0.410024	-0.395760	0.614365
N30	N	0.519411	-0.359923	0.558878
N31	N	0.485036	-0.398773	0.619032
C32	C	0.994452	-0.561895	0.599365
C33	C	0.991343	-0.639999	0.603875
C34	C	1.034842	-0.678499	0.541670
C35	C	1.031922	-0.751886	0.545918
C36	C	0.985500	-0.786773	0.612366
C37	C	0.941999	-0.748268	0.674578
C38	C	0.944923	-0.674882	0.670335
C39	C	0.971938	-1.006060	0.631959
C40	C	0.969016	-1.079452	0.636195
C41	C	1.058940	-1.083065	0.507535
C42	C	1.061857	-1.009677	0.503293
C43	C	1.018359	-0.971179	0.565510
N44	N	0.982513	-0.861787	0.616707
N45	N	1.021350	-0.896166	0.561173
C46	C	1.185150	-0.386718	0.600367
C47	C	1.263253	-0.389867	0.605246
C48	C	1.001924	-0.379265	0.862949
C49	C	1.001947	-0.379237	0.979725
C50	C	1.009334	-0.196053	0.578450
C51	C	1.012515	-0.117951	0.573990
C52	C	1.001856	-0.379346	0.315949
C53	C	1.001977	-0.379181	0.199170
C54	C	1.048724	-0.336100	1.034830
C55	C	1.048737	-0.336070	1.144553
C56	C	0.955195	-0.422320	1.144057
C57	C	0.955179	-0.422346	1.034336
H58	H	0.266794	-0.471772	0.732039
C59	C	0.924090	-0.963718	0.700387
H60	H	0.932482	-0.915016	0.688357
H61	H	0.876401	-0.973892	0.682705
H62	H	0.933878	-0.976116	0.772326
C63	C	0.741079	-0.463474	0.719151
H64	H	0.790298	-0.459004	0.712213
H65	H	0.729492	-0.452768	0.788438
H66	H	0.727127	-0.510191	0.705601
C67	C	0.903759	-0.469742	1.204133
H68	H	0.910473	-0.463555	1.277372
H69	H	0.856962	-0.457561	1.182611
H70	H	0.912123	-0.517375	1.189487
H71	H	1.086805	-0.300995	0.990369
H72	H	0.273342	-0.308503	0.479300
H73	H	0.904204	-0.776679	0.728686
C74	C	0.417472	-0.301430	0.468307
H75	H	0.386179	-0.273343	0.424803
H76	H	0.447358	-0.271991	0.508587
H77	H	0.444990	-0.329432	0.425778
C78	C	0.897075	-0.632530	0.738758
H79	H	0.905470	-0.583828	0.726723
H80	H	0.849386	-0.642702	0.721079
H81	H	0.906864	-0.644925	0.810698
C82	C	1.112926	-0.971306	0.430207
H83	H	1.138420	-1.004747	0.393774
H84	H	1.087203	-0.941643	0.381068
H85	H	1.144673	-0.943865	0.470698
C86	C	1.085909	-0.640130	0.468578
H87	H	1.111401	-0.673572	0.432147
H88	H	1.060187	-0.610466	0.419436
H89	H	1.117656	-0.612688	0.509067
C90	C	1.100195	-0.288623	1.205165
H91	H	1.128048	-0.262958	1.156923
H92	H	1.074573	-0.256910	1.244536
H93	H	1.129723	-0.316733	1.251418
C94	C	0.586972	-0.457318	0.709523
H95	H	0.618262	-0.485432	0.752991
H96	H	0.559427	-0.429366	0.752077
H97	H	0.557112	-0.486739	0.669164
C98	C	0.903726	-0.469804	0.973717
H99	H	0.875882	-0.495482	1.021954
H100	H	0.874199	-0.441702	0.927460
H101	H	0.929361	-0.501515	0.934349
H102	H	0.399934	-0.477124	0.740313
H103	H	0.604510	-0.281580	0.437596
H104	H	0.737651	-0.286925	0.445867
C105	C	1.079768	-0.794233	0.477486
H106	H	1.107827	-0.762944	0.437295
H107	H	1.109235	-0.824045	0.521272
H108	H	1.051755	-0.821825	0.431656
C109	C	1.106789	-1.125414	0.439112
H110	H	1.098405	-1.174116	0.451159
H111	H	1.097010	-1.113020	0.367176
H112	H	1.154479	-1.115238	0.456807
H113	H	0.931221	-1.107855	0.690324
