data_functionalizedCrystal
_audit_creation_method	'MofGen! by Chris Wilmer'
_symmetry_space_group_name_H-M	'P1'
_symmetry_Int_Tables_number	1
_symmetry_cell_setting	triclinic
loop_
_symmetry_equiv_pos_as_xyz
  x,y,z
_cell_length_a	19.288864
_cell_length_b	27.732048
_cell_length_c	17.766277
_cell_angle_alpha	89.988664
_cell_angle_beta	89.976791
_cell_angle_gamma	82.889449
loop_
_atom_site_label
_atom_site_type_symbol
_atom_site_fract_x
_atom_site_fract_y
_atom_site_fract_z
O1	O	0.920977	0.060300	-0.062844
O2	O	1.420977	0.560300	0.437156
O3	O	0.718666	0.068434	-0.062793
O4	O	1.218666	0.568434	0.437207
O5	O	0.826105	-0.006011	-0.062806
O6	O	1.326105	0.493989	0.437194
O7	O	0.813538	0.134745	-0.062831
O8	O	1.313538	0.634745	0.437169
O9	O	0.826086	-0.006014	0.062383
O10	O	1.326086	0.493986	0.562383
O11	O	0.718647	0.068430	0.062395
O12	O	1.218647	0.568430	0.562395
O13	O	0.920958	0.060296	0.062345
O14	O	1.420958	0.560296	0.562345
Cu15	Cu	0.819801	0.064363	0.073801
Cu16	Cu	1.319801	0.564363	0.573801
Cu17	Cu	0.819823	0.064367	-0.074249
Cu18	Cu	1.319823	0.564367	0.425751
O19	O	0.813519	0.134741	0.062357
O20	O	1.313519	0.634741	0.562357
C21	C	0.692781	0.068171	-0.000192
C22	C	1.192781	0.568171	0.499808
C23	C	0.615683	0.067385	-0.000172
C24	C	1.115683	0.567385	0.499828
C25	C	0.825831	-0.024020	-0.000209
C26	C	1.325831	0.475980	0.499791
C27	C	0.825037	-0.077678	-0.000203
C28	C	1.325037	0.422322	0.499797
C29	C	0.570714	0.111066	-0.000192
C30	C	1.070714	0.611066	0.499808
C31	C	0.498271	0.110328	-0.000200
C32	C	0.998271	0.610328	0.499800
C33	C	0.470801	0.065906	-0.000204
C34	C	0.970801	0.565906	0.499796
C35	C	0.515780	0.022219	-0.000180
C36	C	1.015780	0.522219	0.499820
C37	C	0.588220	0.022959	-0.000164
C38	C	1.088220	0.522959	0.499836
C39	C	0.362763	0.030987	-0.044082
C40	C	0.862763	0.530987	0.455918
C41	C	0.290324	0.030250	-0.044102
C42	C	0.790324	0.530250	0.455898
C43	C	0.247370	0.063624	-0.000249
C44	C	0.747370	0.563624	0.499751
C45	C	0.276863	0.097744	0.043615
C46	C	0.776863	0.597744	0.543615
C47	C	0.349304	0.098483	0.043631
C48	C	0.849304	0.598483	0.543631
C49	C	0.392252	0.065099	-0.000220
C50	C	0.892252	0.565099	0.499780
C51	C	0.123850	0.106507	-0.000277
C52	C	0.623850	0.606507	0.499723
C53	C	0.051406	0.105767	-0.000280
C54	C	0.551406	0.605767	0.499720
C55	C	0.068916	0.017658	-0.000267
C56	C	0.568916	0.517658	0.499733
C57	C	0.141358	0.018399	-0.000256
C58	C	0.641358	0.518399	0.499744
C59	C	0.168820	0.062825	-0.000264
C60	C	0.668820	0.562825	0.499736
C61	C	0.883526	-0.416316	-0.000256
C62	C	1.383526	0.083684	0.499744
C63	C	0.880579	-0.617985	-0.000266
C64	C	1.380579	-0.117985	0.499734
O65	O	0.934063	-0.649079	-0.000312
O66	O	1.434063	-0.149079	0.499688
N67	N	0.816872	-0.637301	-0.000249
N68	N	1.316872	-0.137301	0.499751
C69	C	0.753897	-0.606196	-0.000235
C70	C	1.253897	-0.106196	0.499765
O71	O	0.699643	-0.627253	-0.000229
O72	O	1.199643	-0.127253	0.499771
C73	C	0.756845	-0.404529	-0.000231
C74	C	1.256845	0.095471	0.499769
C75	C	0.820556	-0.385216	-0.000240
C76	C	1.320556	0.114784	0.499760
C77	C	0.947232	-0.397002	-0.000266
C78	C	1.447232	0.102998	0.499734
C79	C	0.947968	-0.346588	-0.000259
C80	C	1.447968	0.153412	0.499741
C81	C	0.884998	-0.315488	-0.000243
C82	C	1.384998	0.184512	0.499757
C83	C	0.821292	-0.334801	-0.000233
C84	C	1.321292	0.165199	0.499767
C85	C	0.693871	-0.373425	-0.000222
C86	C	1.193871	0.126575	0.499778
C87	C	0.694614	-0.323006	-0.000223
C88	C	1.194614	0.176994	0.499777
C89	C	0.758325	-0.303693	-0.000232
C90	C	1.258325	0.196307	0.499768
C91	C	0.759059	-0.253287	-0.000210
C92	C	1.259059	0.246713	0.499790
N93	N	0.822766	-0.233971	-0.000227
N94	N	1.322766	0.266029	0.499773
C95	C	0.885735	-0.265071	-0.000243
C96	C	1.385735	0.234929	0.499757
C97	C	0.752354	-0.712075	-0.000236
C98	C	1.252354	-0.212075	0.499764
C99	C	0.751617	-0.762492	-0.000236
C100	C	1.251617	-0.262492	0.499764
C101	C	0.878299	-0.774276	-0.000268
C102	C	1.378299	-0.274276	0.499732
C103	C	0.879035	-0.723859	-0.000263
C104	C	1.379035	-0.223859	0.499737
C105	C	0.816061	-0.692759	-0.000253
C106	C	1.316061	-0.192759	0.499747
C107	C	0.887276	-0.159197	-0.000229
C108	C	1.387276	0.340803	0.499771
C109	C	0.888007	-0.108778	-0.000219
C110	C	1.388007	0.391222	0.499781
C111	C	0.761325	-0.096998	-0.000191
C112	C	1.261325	0.403002	0.499809
C113	C	0.760595	-0.147412	-0.000197
C114	C	1.260595	0.352588	0.499803
C115	C	0.823576	-0.178511	-0.000218
C116	C	1.323576	0.321489	0.499782
O117	O	0.705603	-0.222164	-0.000172
O118	O	1.205603	0.277836	0.499828
O119	O	0.939982	-0.244005	-0.000266
O120	O	1.439982	0.255995	0.499734
C121	C	0.882790	-0.466730	-0.000263
C122	C	1.382790	0.033270	0.499737
C123	C	0.819084	-0.486044	-0.000253
C124	C	1.319084	0.013956	0.499747
C125	C	0.756114	-0.454943	-0.000236
C126	C	1.256114	0.045057	0.499764
C127	C	0.818347	-0.536461	-0.000253
C128	C	1.318347	-0.036461	0.499747
C129	C	0.881317	-0.567561	-0.000269
C130	C	1.381317	-0.067561	0.499731
C131	C	0.945023	-0.548245	-0.000285
C132	C	1.445023	-0.048245	0.499715
C133	C	0.945760	-0.497831	-0.000279
C134	C	1.445760	0.002169	0.499721
C135	C	0.692407	-0.474260	-0.000220
C136	C	1.192407	0.025740	0.499780
C137	C	0.691676	-0.524674	-0.000226
C138	C	1.191676	-0.024674	0.499774
C139	C	0.754646	-0.555775	-0.000242
C140	C	1.254646	-0.055775	0.499758
C141	C	0.946842	0.060560	-0.000258
C142	C	1.446842	0.560560	0.499742
C143	C	1.023941	0.061345	-0.000282
C144	C	1.523941	0.561345	0.499718
C145	C	0.813792	0.152751	-0.000241
C146	C	1.313792	0.652751	0.499759
C147	C	0.814587	0.206408	-0.000252
C148	C	1.314587	0.706408	0.499748
N149	N	0.819790	0.064359	0.177931
N150	N	1.319790	0.564359	0.677931
N151	N	0.819839	0.064367	-0.178379
N152	N	1.319839	0.564367	0.321621
C153	C	0.867380	0.031411	0.217313
C154	C	1.367380	0.531411	0.717313
C155	C	0.867384	0.031409	0.296114
C156	C	1.367384	0.531409	0.796114
C157	C	0.819805	0.064363	0.335532
C158	C	1.319805	0.564363	0.835532
C159	C	0.772207	0.097314	0.296141
C160	C	1.272207	0.597314	0.796141
C161	C	0.772200	0.097312	0.217341
C162	C	1.272200	0.597312	0.717341
C163	C	0.810231	0.108406	0.460363
C164	C	1.310231	0.608406	0.960363
C165	C	0.810244	0.108408	0.539162
C166	C	1.310244	0.608408	1.039162
C167	C	0.819823	0.064369	0.578578
C168	C	1.319823	0.564369	1.078578
C169	C	0.829406	0.020325	0.539186
C170	C	1.329406	0.520325	1.039186
C171	C	0.829399	0.020323	0.460385
C172	C	1.329399	0.520323	0.960385
C173	C	0.819807	0.064369	0.420977
C174	C	1.319807	0.564369	0.920977
C175	C	0.867420	0.031416	0.703405
C176	C	1.367420	0.531416	1.203405
C177	C	0.867419	0.031413	0.782209
C178	C	1.367419	0.531413	1.282209
C179	C	0.772245	0.097322	0.782234
C180	C	1.272245	0.597322	1.282234
C181	C	0.772243	0.097321	0.703432
C182	C	1.272243	0.597321	1.203432
C183	C	0.819834	0.064368	0.664023
C184	C	1.319834	0.564368	1.164023
H185	H	0.593069	0.147241	-0.000200
H186	H	1.093069	0.647241	0.499800
H187	H	0.998512	-0.422320	-0.000282
H188	H	1.498512	0.077680	0.499718
O189	O	1.009815	-0.327775	-0.000378
O190	O	1.509815	0.172225	0.499622
C191	C	1.014051	-0.298969	-0.065227
C192	C	1.514051	0.201031	0.434773
H193	H	0.959171	-0.286288	-0.086823
H194	H	1.459171	0.213712	0.413177
H195	H	1.045020	-0.321307	-0.110638
H196	H	1.545020	0.178693	0.389362
C197	C	1.118383	-0.270031	-0.019021
C198	C	1.618383	0.229969	0.480979
C199	C	1.050978	-0.254453	-0.045543
C200	C	1.550978	0.245547	0.454457
H201	H	1.141163	-0.242573	-0.006882
H202	H	1.641163	0.257427	0.493118
H203	H	1.115530	-0.289440	0.024667
H204	H	1.615530	0.210560	0.524667
H205	H	1.144181	-0.288647	-0.056869
H206	H	1.644181	0.211353	0.443131
H207	H	1.025178	-0.235844	-0.007693
H208	H	1.525178	0.264156	0.492307
H209	H	1.053827	-0.235041	-0.089225
H210	H	1.553827	0.264959	0.410775
H211	H	0.046551	-0.018511	-0.000317
H212	H	0.546551	0.481489	0.499683
H213	H	0.938562	-0.184513	-0.000249
H214	H	1.438562	0.315487	0.499751
H215	H	0.733494	0.124152	0.671365
H216	H	1.233494	0.624152	1.171365
H217	H	0.733446	0.124143	0.185276
H218	H	1.233446	0.624143	0.685276
H219	H	0.939890	-0.093056	-0.000224
H220	H	1.439890	0.406944	0.499776
H221	H	0.733503	0.124152	0.814327
H222	H	1.233503	0.624152	1.314327
H223	H	0.930914	-0.708138	-0.000271
H224	H	1.430914	-0.208138	0.499729
H225	H	0.906138	0.004578	0.328185
H226	H	1.406138	0.504578	0.828185
H227	H	0.701070	-0.686757	-0.000228
H228	H	1.201070	-0.186757	0.499772
H229	H	0.906169	0.004582	0.671317
H230	H	1.406169	0.504582	1.171317
H231	H	0.177973	-0.017171	-0.000244
H232	H	0.677973	0.482829	0.499756
H233	H	0.643331	-0.297686	-0.000216
H234	H	1.143331	0.202314	0.499784
H235	H	0.929571	-0.799607	-0.000281
H236	H	1.429571	-0.299607	0.499719
O237	O	0.631920	-0.392098	-0.000250
O238	O	1.131920	0.107902	0.499750
C239	C	0.576509	-0.353827	-0.000222
C240	C	1.076509	0.146173	0.499778
H241	H	0.595620	-0.319617	-0.023921
H242	H	1.095620	0.180383	0.476079
H243	H	0.557098	-0.346660	0.059840
H244	H	1.057098	0.153340	0.559840
C245	C	0.492913	-0.409937	-0.020205
C246	C	0.992913	0.090063	0.479795
C247	C	0.516385	-0.367920	-0.049318
C248	C	1.016385	0.132080	0.450682
H249	H	0.455824	-0.418630	-0.050487
H250	H	0.955824	0.081370	0.449513
H251	H	0.530244	-0.435721	-0.020221
H252	H	1.030244	0.064279	0.479779
H253	H	0.476742	-0.403958	0.029846
H254	H	0.976742	0.096042	0.529846
H255	H	0.532564	-0.373901	-0.099365
H256	H	1.032564	0.126099	0.400635
H257	H	0.479055	-0.342137	-0.049311
H258	H	0.979055	0.157863	0.450689
O259	O	0.698646	-0.166096	-0.000219
O260	O	1.198646	0.333904	0.499781
C261	C	0.643226	-0.127832	-0.000181
C262	C	1.143226	0.372168	0.499819
H263	H	0.662327	-0.093616	-0.023872
H264	H	1.162327	0.406384	0.476128
H265	H	0.623815	-0.120672	0.059883
H266	H	1.123815	0.379328	0.559883
C267	C	0.559647	-0.183952	-0.020175
C268	C	1.059647	0.316048	0.479825
C269	C	0.583106	-0.141928	-0.049279
C270	C	1.083106	0.358072	0.450721
H271	H	0.522560	-0.192647	-0.050458
H272	H	1.022560	0.307353	0.449542
H273	H	0.596983	-0.209731	-0.020198
H274	H	1.096983	0.290269	0.479802
H275	H	0.543476	-0.177980	0.029878
H276	H	1.043476	0.322020	0.529878
H277	H	0.599284	-0.147902	-0.099327
H278	H	1.099284	0.352098	0.400673
H279	H	0.545770	-0.116149	-0.049266
H280	H	1.045770	0.383851	0.450734
H281	H	0.996296	-0.573576	-0.000295
H282	H	1.496296	-0.073576	0.499705
O283	O	0.800955	0.151233	0.422195
O284	O	1.300955	0.651233	0.922195
C285	C	0.792493	0.190106	0.473858
C286	C	1.292493	0.690106	0.973858
H287	H	0.817045	0.177617	0.530023
H288	H	1.317045	0.677617	1.030023
H289	H	0.734444	0.202581	0.482260
H290	H	1.234444	0.702581	0.982260
C291	C	0.798346	0.247925	0.374089
C292	C	1.298346	0.747925	0.874089
C293	C	0.828506	0.232587	0.443070
C294	C	1.328506	0.732587	0.943070
H295	H	0.820557	0.274131	0.355097
H296	H	1.320557	0.774131	0.855097
H297	H	0.804044	0.221736	0.339282
H298	H	1.304044	0.721736	0.839282
H299	H	0.749973	0.258317	0.381100
H300	H	1.249973	0.758317	0.881100
H301	H	0.876876	0.222190	0.436057
H302	H	1.376876	0.722190	0.936057
H303	H	0.822817	0.258775	0.477876
H304	H	1.322817	0.758775	0.977876
O305	O	0.150452	0.149690	-0.000375
O306	O	0.650452	0.649690	0.499625
C307	C	0.127473	0.176309	-0.065225
C308	C	0.627473	0.676309	0.434775
H309	H	0.077375	0.163249	-0.086849
H310	H	0.577375	0.663249	0.413151
H311	H	0.169480	0.170620	-0.110619
H312	H	0.669480	0.670620	0.389381
C313	C	0.174834	0.246753	-0.018976
C314	C	0.674834	0.746753	0.481024
C315	C	0.113299	0.230716	-0.045531
C316	C	0.613299	0.730716	0.454469
H317	H	0.166094	0.280314	-0.006829
H318	H	0.666094	0.780314	0.493171
H319	H	0.190318	0.228819	0.024714
H320	H	0.690318	0.728819	0.524714
H321	H	0.209834	0.242008	-0.056808
H322	H	0.709834	0.742008	0.443192
H323	H	0.078304	0.235455	-0.007695
H324	H	0.578304	0.735455	0.492305
H325	H	0.097809	0.248652	-0.089214
H326	H	0.597809	0.748652	0.410786
H327	H	0.710057	-0.071667	-0.000175
H328	H	1.210057	0.428333	0.499825
H329	H	0.266316	0.002469	-0.079822
H330	H	0.766316	0.502469	0.420178
O331	O	0.454677	0.152806	-0.000260
O332	O	0.954677	0.652806	0.499740
C333	C	0.494450	0.192175	-0.000244
C334	C	0.994450	0.692175	0.499756
H335	H	0.548671	0.179788	-0.023924
H336	H	1.048671	0.679788	0.476076
H337	H	0.499423	0.205804	0.059812
H338	H	0.999423	0.705804	0.559812
C339	C	0.391341	0.248715	-0.020280
C340	C	0.891341	0.748715	0.479720
C341	C	0.457934	0.233502	-0.049370
C342	C	0.957934	0.733502	0.450630
H343	H	0.368815	0.274209	-0.050580
H344	H	0.868815	0.774209	0.449420
H345	H	0.364544	0.222192	-0.020288
H346	H	0.864544	0.722192	0.479712
H347	H	0.395494	0.260070	0.029766
H348	H	0.895494	0.760070	0.529766
H349	H	0.453779	0.222143	-0.099411
H350	H	0.953779	0.722143	0.400589
H351	H	0.484729	0.260025	-0.049372
H352	H	0.984729	0.760025	0.450628
O353	O	0.838588	-0.022450	0.577492
O354	O	1.338588	0.477550	1.077492
C355	C	0.779684	-0.026246	0.623118
C356	C	1.279684	0.473754	1.123118
H357	H	0.732665	-0.002064	0.599391
H358	H	1.232665	0.497936	1.099391
H359	H	0.790563	-0.014155	0.682832
H360	H	1.290563	0.485845	1.182832
C361	C	0.821908	-0.109089	0.653487
C362	C	1.321908	0.390911	1.153487
C363	C	0.764157	-0.079392	0.624341
C364	C	1.264157	0.420608	1.124341
H365	H	0.812331	-0.141872	0.654244
H366	H	1.312331	0.358128	1.154244
H367	H	0.861594	-0.106532	0.622750
H368	H	1.361594	0.393468	1.122750
H369	H	0.830968	-0.099008	0.703246
H370	H	1.330968	0.400992	1.203246
H371	H	0.755103	-0.089469	0.574580
H372	H	1.255103	0.410531	1.074580
H373	H	0.724469	-0.081952	0.655069
H374	H	1.224469	0.418048	1.155069
H375	H	0.699737	-0.778212	-0.000215
H376	H	1.199737	-0.278212	0.499785
H377	H	0.997640	-0.482111	-0.000286
H378	H	1.497640	0.017889	0.499714
H379	H	0.639791	-0.540394	-0.000212
H380	H	1.139791	-0.040394	0.499788
H381	H	0.641128	-0.448942	-0.000208
H382	H	1.141128	0.051058	0.499792
H383	H	0.906170	0.004580	0.814274
H384	H	1.406170	0.504580	1.314274
H385	H	0.906129	0.004578	0.185228
H386	H	1.406129	0.504578	0.685228
H387	H	0.373314	0.126263	0.079349
H388	H	0.873314	0.626263	0.579349
O389	O	0.838678	-0.022501	0.422236
O390	O	1.338678	0.477499	0.922236
C391	C	0.847155	-0.061374	0.473915
C392	C	1.347155	0.438626	0.973915
H393	H	0.822609	-0.048887	0.530098
H394	H	1.322609	0.451113	1.030098
H395	H	0.905207	-0.073843	0.482264
H396	H	1.405207	0.426157	0.982264
C397	C	0.841300	-0.119194	0.374188
C398	C	1.341300	0.380806	0.874188
C399	C	0.811147	-0.103859	0.443192
C400	C	1.311147	0.396141	0.943192
H401	H	0.819092	-0.145402	0.355236
H402	H	1.319092	0.354598	0.855236
H403	H	0.835592	-0.093005	0.339371
H404	H	1.335592	0.406995	0.839371
H405	H	0.889675	-0.129582	0.381156
H406	H	1.389675	0.370418	0.881156
H407	H	0.762774	-0.093466	0.436222
H408	H	1.262774	0.406534	0.936222
H409	H	0.816846	-0.130047	0.478008
H410	H	1.316846	0.369953	0.978008
O411	O	0.404382	-0.001453	-0.086759
O412	O	0.904382	0.498547	0.413241
C413	C	0.362820	-0.031728	-0.125470
C414	C	0.862820	0.468272	0.374530
H415	H	0.307263	-0.012528	-0.130773
H416	H	0.807263	0.487472	0.369227
H417	H	0.362116	-0.067108	-0.092952
H418	H	0.862116	0.432892	0.407048
C419	C	0.461654	-0.066522	-0.198004
C420	C	0.961654	0.433478	0.301996
C421	C	0.393419	-0.042939	-0.204523
C422	C	0.893419	0.457061	0.295477
H423	H	0.480531	-0.073439	-0.246766
H424	H	0.980531	0.426561	0.253234
H425	H	0.489656	-0.046126	-0.171922
H426	H	0.989656	0.453874	0.328078
H427	H	0.461059	-0.096002	-0.170903
H428	H	0.961059	0.403998	0.329097
H429	H	0.394017	-0.013456	-0.231615
H430	H	0.894017	0.486544	0.268385
H431	H	0.365418	-0.063330	-0.230612
H432	H	0.865418	0.436670	0.269388
H433	H	0.802445	0.144271	0.571229
H434	H	1.302445	0.644271	1.071229
H435	H	0.733467	0.124145	0.328238
H436	H	1.233467	0.624145	0.828238
H437	H	0.241891	0.124920	0.079325
H438	H	0.741891	0.624920	0.579325
H439	H	0.493409	-0.013949	-0.000193
H440	H	0.993409	0.486051	0.499807
H441	H	0.624835	-0.012613	-0.000148
H442	H	1.124835	0.487387	0.499852
H443	H	0.014793	0.141339	-0.000292
H444	H	0.514793	0.641339	0.499708
