data_functionalizedCrystal
_audit_creation_method	'MofGen! by Chris Wilmer'
_symmetry_space_group_name_H-M	'P1'
_symmetry_Int_Tables_number	1
_symmetry_cell_setting	triclinic
loop_
_symmetry_equiv_pos_as_xyz
  x,y,z
_cell_length_a	10.967926
_cell_length_b	10.723022
_cell_length_c	9.198806
_cell_angle_alpha	89.997988
_cell_angle_beta	102.125292
_cell_angle_gamma	84.591575
loop_
_atom_site_label
_atom_site_type_symbol
_atom_site_fract_x
_atom_site_fract_y
_atom_site_fract_z
O1	O	1.657154	0.175019	0.294274
O2	O	1.294009	0.191773	0.203293
O3	O	1.483959	0.001820	0.250888
O4	O	1.467204	0.364972	0.246679
O5	O	1.483944	0.001819	0.492669
O6	O	1.293994	0.191773	0.445075
O7	O	1.657139	0.175018	0.536055
Cu8	Cu	1.475565	0.183396	0.512641
Cu9	Cu	1.475583	0.183396	0.226707
O10	O	1.467189	0.364972	0.488460
C11	C	1.247503	0.190554	0.312534
C12	C	1.108951	0.186907	0.277822
C13	C	1.482733	-0.044680	0.371471
C14	C	1.479086	-0.183234	0.370552
C15	C	1.581600	-0.401413	0.396228
C16	C	1.585372	-0.258210	0.397179
C17	C	1.047172	0.185281	0.387597
C18	C	0.903972	0.181511	0.351723
C19	C	1.703645	0.176238	0.426810
C20	C	1.842197	0.179885	0.461513
C21	C	1.468415	0.411472	0.367874
C22	C	1.472062	0.550026	0.368783
N23	N	1.475561	0.183394	0.713754
N24	N	1.475596	0.183388	0.025596
C25	C	1.555316	0.103287	0.805935
C26	C	1.555335	0.103282	0.973352
H27	H	1.672587	-0.465856	0.419030
H28	H	1.055827	0.185505	0.157283
H29	H	0.850853	0.180109	0.231175
N30	N	1.645791	0.012437	1.078248
H31	H	1.699005	-0.041016	1.020374
H32	H	1.701464	0.060612	1.155325
N33	N	1.385123	0.274232	0.773380
H34	H	1.433500	0.329721	0.848642
H35	H	1.331916	0.327607	0.688776
N36	N	0.912545	0.181753	0.621194
H37	H	0.851640	0.180153	0.689521
H38	H	0.976020	0.105951	0.642769
N39	N	1.709610	-0.202841	0.428308
H40	H	1.694694	-0.108391	0.424577
H41	H	1.758616	-0.231615	0.530222
H42	H	1.385296	-0.225038	0.347045
N43	N	1.351539	-0.364614	0.338611
H44	H	1.347972	-0.309973	0.248094
H45	H	1.277984	-0.416774	0.320240
H46	H	1.407316	0.251979	0.946411
N47	N	1.117526	0.187129	0.547272
H48	H	1.209851	0.189560	0.550265
H49	H	1.085376	0.263759	0.596800
N50	N	1.645718	0.012407	0.746308
H51	H	1.632876	0.025279	0.635159
H52	H	1.734464	0.027330	0.795029
