data_functionalizedCrystal
_audit_creation_method	'MofGen! by Chris Wilmer'
_symmetry_space_group_name_H-M	'P1'
_symmetry_Int_Tables_number	1
_symmetry_cell_setting	triclinic
loop_
_symmetry_equiv_pos_as_xyz
  x,y,z
_cell_length_a	16.120484
_cell_length_b	12.759401
_cell_length_c	12.759393
_cell_angle_alpha	89.979434
_cell_angle_beta	87.135992
_cell_angle_gamma	87.076339
loop_
_atom_site_label
_atom_site_type_symbol
_atom_site_fract_x
_atom_site_fract_y
_atom_site_fract_z
Zn1	Zn	-0.331905	-1.584980	0.615177
Zn2	Zn	0.168095	-1.084980	1.115177
Zn3	Zn	-0.471340	-1.575928	0.448390
Zn4	Zn	0.028660	-1.075928	0.948390
Zn5	Zn	-0.331941	-1.409276	0.439516
Zn6	Zn	0.168059	-0.909276	0.939516
Zn7	Zn	-0.471274	-1.400332	0.624024
Zn8	Zn	0.028726	-0.900332	1.124024
O9	O	-0.401615	-1.492629	0.531776
O10	O	0.098385	-0.992629	1.031776
O11	O	-0.350414	-1.730799	0.593064
O12	O	0.149586	-1.230799	1.093064
O13	O	-0.452891	-1.553777	0.300194
O14	O	0.047109	-1.053777	0.800194
O15	O	-0.215271	-1.440115	0.455401
O16	O	0.284729	-0.940115	0.955401
O17	O	-0.452856	-1.724149	0.470526
O18	O	0.047144	-1.224149	0.970526
O19	O	-0.215245	-1.569204	0.584459
O20	O	0.284755	-1.069204	1.084459
O21	O	-0.350476	-1.431338	0.293674
O22	O	0.149524	-0.931338	0.793674
O23	O	-0.350411	-1.261070	0.463980
O24	O	0.149589	-0.761070	0.963980
O25	O	-0.452743	-1.424871	0.769869
O26	O	0.047257	-0.924871	1.269869
O27	O	-0.452778	-1.254498	0.599537
O28	O	0.047222	-0.754498	1.099537
O29	O	-0.350350	-1.560531	0.763369
O30	O	0.149650	-1.060531	1.263369
O31	O	-0.587996	-1.545104	0.479104
O32	O	-0.087996	-1.045104	0.979104
O33	O	-0.587948	-1.416094	0.608142
O34	O	-0.087948	-0.916094	1.108142
C35	C	-0.401592	-1.219663	0.531756
C36	C	0.098408	-0.719663	1.031756
C37	C	-0.401603	-1.102886	0.531773
C38	C	0.098397	-0.602886	1.031773
C39	C	-0.348356	-1.051481	0.595688
C40	C	0.151644	-0.551481	1.095688
C41	C	-0.348361	-0.941757	0.595693
C42	C	0.151639	-0.441757	1.095693
C43	C	-0.454867	-0.934851	0.467868
C44	C	0.045133	-0.434851	0.967868
C45	C	-0.454857	-1.044574	0.467857
C46	C	0.045143	-0.544574	0.967857
C47	C	-0.618222	-1.478675	0.545569
C48	C	-0.118222	-0.978675	1.045569
C49	C	-0.710887	-1.472801	0.551504
C50	C	-0.210887	-0.972801	1.051504
C51	C	-0.880548	-1.462084	0.562362
C52	C	-0.380548	-0.962084	1.062362
C53	C	-0.921842	-1.523363	0.501208
C54	C	-0.421842	-1.023363	1.001208
C55	C	-1.016247	-1.517400	0.507249
C56	C	-0.516247	-1.017400	1.007249
C57	C	-0.786134	-1.468045	0.556322
C58	C	-0.286134	-0.968045	1.056322
C59	C	-0.184162	-1.506667	0.517953
C60	C	0.315838	-1.006667	1.017953
C61	C	-0.091497	-1.512649	0.512063
C62	C	0.408503	-1.012649	1.012063
C63	C	-0.401535	-1.492713	0.805805
C64	C	0.098465	-0.992713	1.305805
C65	C	-0.401501	-1.492749	0.922579
C66	C	0.098499	-0.992749	1.422579
C67	C	-0.401631	-0.766661	0.531793
C68	C	0.098369	-0.266661	1.031793
C69	C	-0.401618	-0.883439	0.531789
C70	C	0.098382	-0.383439	1.031789
C71	C	-0.401635	-1.492610	0.258810
C72	C	0.098365	-0.992610	0.758810
C73	C	-0.401434	-1.492793	0.142021
C74	C	0.098566	-0.992793	0.642021
C75	C	-0.348176	-1.563392	0.974058
C76	C	0.151824	-1.063392	1.474058
C77	C	-0.348140	-1.563412	1.083780
C78	C	0.151860	-1.063412	1.583780
C79	C	-0.454761	-1.422142	1.090535
C80	C	0.045239	-0.922142	1.590535
C81	C	-0.454792	-1.422117	0.980815
C82	C	0.045208	-0.922117	1.480815
H83	H	-0.498226	-0.887360	0.415831
H84	H	0.001774	-0.387360	0.915831
C85	C	-0.928564	-1.385156	0.639206
C86	C	-0.428564	-0.885156	1.139206
H87	H	-0.986634	-1.391185	0.633224
H88	H	-0.486634	-0.891185	1.133224
H89	H	-0.914293	-1.401365	0.708919
H90	H	-0.414293	-0.901365	1.208919
H91	H	-0.914403	-1.315448	0.622863
H92	H	-0.414403	-0.815448	1.122863
C93	C	-0.513384	-1.344463	1.154598
C94	C	-0.013384	-0.844463	1.654598
H95	H	-0.505735	-1.354601	1.227317
H96	H	-0.005735	-0.854601	1.727317
H97	H	-0.501184	-1.274656	1.135832
H98	H	-0.001184	-0.774656	1.635832
H99	H	-0.569408	-1.356227	1.140176
H100	H	-0.069408	-0.856227	1.640176
H101	H	-0.304780	-1.620902	0.926646
H102	H	0.195220	-1.120902	1.426646
C103	C	-0.513430	-1.101128	0.397550
C104	C	-0.013430	-0.601128	0.897550
H105	H	-0.505790	-1.174826	0.406691
H106	H	-0.005790	-0.674826	0.906691
H107	H	-0.569463	-1.079556	0.416374
H108	H	-0.069463	-0.579556	0.916374
H109	H	-0.501157	-1.083904	0.326202
H110	H	-0.001157	-0.583904	0.826202
C111	C	-0.289772	-1.115622	0.665983
C112	C	0.210228	-0.615622	1.165983
H113	H	-0.258056	-1.069288	0.704041
H114	H	0.241944	-0.569288	1.204041
H115	H	-0.321700	-1.156394	0.713724
H116	H	0.178300	-0.656394	1.213724
H117	H	-0.253402	-1.160742	0.623542
H118	H	0.246598	-0.660742	1.123542
C119	C	-0.289793	-0.885216	0.666005
C120	C	0.210207	-0.385216	1.166005
H121	H	-0.258082	-0.935662	0.704072
H122	H	0.241918	-0.435662	1.204072
H123	H	-0.253430	-0.844733	0.623585
H124	H	0.246570	-0.344733	1.123585
H125	H	-0.321740	-0.840381	0.713754
H126	H	0.178260	-0.340381	1.213754
C127	C	-0.873825	-1.600256	0.424319
C128	C	-0.373825	-1.100256	0.924319
H129	H	-0.815754	-1.594210	0.430275
H130	H	-0.315754	-1.094210	0.930275
H131	H	-0.887975	-1.669973	0.440613
H132	H	-0.387975	-1.169973	0.940613
H133	H	-0.888114	-1.583996	0.354618
H134	H	-0.388114	-1.083996	0.854618
C135	C	-0.289487	-1.641125	1.140403
C136	C	0.210513	-1.141125	1.640403
H137	H	-0.257760	-1.683189	1.090002
H138	H	0.242240	-1.183189	1.590002
H139	H	-0.253142	-1.603296	1.180889
H140	H	0.246858	-1.103296	1.680889
H141	H	-0.321378	-1.684852	1.185238
H142	H	0.178622	-1.184852	1.685238
H143	H	-0.498215	-1.364583	0.938900
H144	H	0.001785	-0.864583	1.438900
