data_functionalizedCrystal
_audit_creation_method	'MofGen! by Chris Wilmer'
_symmetry_space_group_name_H-M	'P1'
_symmetry_Int_Tables_number	1
_symmetry_cell_setting	triclinic
loop_
_symmetry_equiv_pos_as_xyz
  x,y,z
_cell_length_a	19.188905
_cell_length_b	19.188930
_cell_length_c	13.101039
_cell_angle_alpha	93.345801
_cell_angle_beta	86.647018
_cell_angle_gamma	83.139668
loop_
_atom_site_label
_atom_site_type_symbol
_atom_site_fract_x
_atom_site_fract_y
_atom_site_fract_z
O1	O	0.930017	0.083211	-0.085395
O2	O	1.263350	0.416544	0.247938
O3	O	1.596684	0.749877	0.581272
O4	O	0.726702	0.094965	-0.085362
O5	O	1.060035	0.428298	0.247972
O6	O	1.393368	0.761631	0.581305
O7	O	0.834226	-0.012568	-0.085359
O8	O	1.167559	0.320766	0.247974
O9	O	1.500892	0.654099	0.581307
O10	O	0.822493	0.190743	-0.085397
O11	O	1.155826	0.524076	0.247936
O12	O	1.489160	0.857410	0.581269
O13	O	0.826511	-0.004840	0.085070
O14	O	1.159844	0.328494	0.418404
O15	O	1.493177	0.661827	0.751737
O16	O	0.718987	0.102693	0.085068
O17	O	1.052320	0.436026	0.418401
O18	O	1.385653	0.769359	0.751735
O19	O	0.922302	0.090939	0.085035
O20	O	1.255635	0.424272	0.418368
O21	O	1.588969	0.757605	0.751701
Zn22	Zn	0.819420	0.098043	0.112111
Zn23	Zn	1.152753	0.431376	0.445444
Zn24	Zn	1.486086	0.764709	0.778777
Zn25	Zn	0.829584	0.087861	-0.112438
Zn26	Zn	1.162917	0.421194	0.220896
Zn27	Zn	1.496251	0.754527	0.554229
O28	O	0.814778	0.198471	0.085032
O29	O	1.148111	0.531804	0.418366
O30	O	1.481445	0.865138	0.751699
C31	C	0.696833	0.098451	-0.000142
C32	C	1.030166	0.431784	0.333191
C33	C	1.363499	0.765118	0.666525
C34	C	0.619327	0.097318	-0.000129
C35	C	0.952660	0.430651	0.333205
C36	C	1.285993	0.763985	0.666538
C37	C	0.587140	0.092561	-0.093032
C38	C	0.920474	0.425894	0.240301
C39	C	1.253807	0.759227	0.573634
C40	C	0.514317	0.091487	-0.093045
C41	C	0.847651	0.424821	0.240288
C42	C	1.180984	0.758154	0.573622
C43	C	0.473685	0.095157	-0.000148
C44	C	0.807018	0.428490	0.333185
C45	C	1.140352	0.761824	0.666518
C46	C	0.505879	0.099919	0.092768
C47	C	0.839212	0.433252	0.426101
C48	C	1.172546	0.766586	0.759434
C49	C	0.578700	0.100999	0.092778
C50	C	0.912033	0.434333	0.426111
C51	C	1.245366	0.767666	0.759444
N52	N	0.361535	0.056864	0.068993
N53	N	0.694868	0.390197	0.402327
N54	N	1.028201	0.723530	0.735660
N55	N	0.292359	0.055835	0.068978
N56	N	0.625692	0.389169	0.402311
N57	N	0.959025	0.722502	0.735644
C58	C	0.254279	0.091903	-0.000172
C59	C	0.587613	0.425237	0.333161
C60	C	0.920946	0.758570	0.666494
N61	N	0.287992	0.129029	-0.069322
N62	N	0.621325	0.462362	0.264011
N63	N	0.954658	0.795695	0.597345
N64	N	0.357175	0.130054	-0.069309
N65	N	0.690508	0.463387	0.264024
N66	N	1.023841	0.796721	0.597358
C67	C	0.394722	0.093986	-0.000149
C68	C	0.728056	0.427320	0.333185
C69	C	1.061389	0.760653	0.666518
C70	C	0.143130	0.085983	-0.093096
C71	C	0.476463	0.419316	0.240237
C72	C	0.809797	0.752649	0.573570
C73	C	0.070305	0.084914	-0.093105
C74	C	0.403638	0.418247	0.240228
C75	C	0.736972	0.751580	0.573562
C76	C	0.061869	0.093338	0.092710
C77	C	0.395202	0.426672	0.426044
C78	C	0.728536	0.760005	0.759377
C79	C	0.134692	0.094414	0.092716
C80	C	0.468025	0.427748	0.426050
C81	C	0.801359	0.761081	0.759383
C82	C	0.175319	0.090733	-0.000190
C83	C	0.508652	0.424066	0.333144
C84	C	0.841985	0.757400	0.666477
C85	C	0.829988	-0.034715	-0.000141
C86	C	1.163321	0.298619	0.333192
C87	C	1.496655	0.631952	0.666525
C88	C	0.828847	-0.112219	-0.000132
C89	C	1.162180	0.221115	0.333201
C90	C	1.495514	0.554448	0.666534
C91	C	0.891939	-0.157148	-0.000138
C92	C	1.225272	0.176185	0.333195
C93	C	1.558605	0.509518	0.666529
C94	C	0.890868	-0.229973	-0.000154
C95	C	1.224201	0.103360	0.333179
C96	C	1.557534	0.436694	0.666513
C97	C	0.826700	-0.257863	-0.000144
C98	C	1.160034	0.075470	0.333189
C99	C	1.493367	0.408803	0.666522
C100	C	0.763601	-0.212924	-0.000145
C101	C	1.096934	0.120410	0.333189
C102	C	1.430267	0.453743	0.666522
C103	C	0.764674	-0.140101	-0.000139
C104	C	1.098007	0.193232	0.333195
C105	C	1.431340	0.526565	0.666528
N106	N	0.775027	-0.363233	0.057864
N107	N	1.108360	-0.029900	0.391198
N108	N	1.441693	0.303433	0.724531
N109	N	0.774011	-0.432412	0.057861
N110	N	1.107345	-0.099079	0.391194
N111	N	1.440678	0.234255	0.724527
C112	C	0.823463	-0.477272	-0.000164
C113	C	1.156797	-0.143939	0.333169
C114	C	1.490130	0.189394	0.666502
N115	N	0.873979	-0.450342	-0.058173
N116	N	1.207312	-0.117008	0.275160
N117	N	1.540645	0.216325	0.608493
N118	N	0.874996	-0.381157	-0.058165
N119	N	1.208329	-0.047823	0.275168
N120	N	1.541663	0.285510	0.608501
C121	C	0.825530	-0.336826	-0.000151
C122	C	1.158863	-0.003493	0.333182
C123	C	1.492196	0.329841	0.666515
C124	C	0.885398	-0.601168	-0.000189
C125	C	1.218732	-0.267834	0.333144
C126	C	1.552065	0.065499	0.666478
C127	C	0.884325	-0.673993	-0.000212
C128	C	1.217658	-0.340660	0.333122
C129	C	1.550992	-0.007327	0.666455
C130	C	0.757055	-0.656942	-0.000192
C131	C	1.090389	-0.323609	0.333142
C132	C	1.423722	0.009725	0.666475
C133	C	0.758131	-0.584118	-0.000180
C134	C	1.091464	-0.250785	0.333154
C135	C	1.424798	0.082548	0.666487
C136	C	0.822304	-0.556236	-0.000173
C137	C	1.155638	-0.222902	0.333160
C138	C	1.488971	0.110431	0.666493
C139	C	0.952171	0.087452	-0.000187
C140	C	1.285504	0.420785	0.333146
C141	C	1.618838	0.754119	0.666480
C142	C	1.029677	0.088585	-0.000207
C143	C	1.363011	0.421918	0.333126
C144	C	1.696344	0.755251	0.666459
C145	C	0.819016	0.220618	-0.000188
C146	C	1.152349	0.553951	0.333146
C147	C	1.485682	0.887284	0.666479
C148	C	0.820157	0.298121	-0.000204
C149	C	1.153490	0.631455	0.333130
C150	C	1.486824	0.964788	0.666463
N151	N	0.812488	0.104991	0.265359
N152	N	1.145821	0.438324	0.598692
N153	N	1.479154	0.771658	0.932026
N154	N	0.836522	0.080906	-0.265686
N155	N	1.169855	0.414240	0.067647
N156	N	1.503188	0.747573	0.400981
C157	C	0.803056	0.114451	0.474402
C158	C	1.136390	0.447785	0.807735
C159	C	1.469723	0.781118	1.141068
C160	C	0.845950	0.071449	0.525278
C161	C	1.179284	0.404782	0.858611
C162	C	1.512617	0.738115	1.191945
C163	C	0.840703	0.076712	0.641596
C164	C	1.174036	0.410046	0.974930
C165	C	1.507370	0.743379	1.308263
C166	C	0.808303	0.109188	0.358073
C167	C	1.141637	0.442522	0.691406
C168	C	1.474970	0.775855	1.024739
H169	H	0.604905	0.104874	0.168434
H170	H	0.938238	0.438207	0.501767
H171	H	1.271572	0.771541	0.835100
H172	H	0.620214	0.089563	-0.168684
H173	H	0.953548	0.422897	0.164649
H174	H	1.286881	0.756230	0.497983
H175	H	0.044100	0.081044	-0.168761
H176	H	0.377433	0.414377	0.164572
H177	H	0.710767	0.747711	0.497905
Cl178	Cl	0.963649	-0.730479	-0.000225
Cl179	Cl	1.296982	-0.397145	0.333108
Cl180	Cl	1.630315	-0.063812	0.666441
Cl181	Cl	0.175158	0.100391	0.209517
Cl182	Cl	0.508491	0.433724	0.542850
Cl183	Cl	0.841824	0.767058	0.876184
Cl184	Cl	0.194206	0.081362	-0.209890
Cl185	Cl	0.527539	0.414695	0.123444
Cl186	Cl	0.860873	0.748028	0.456777
H187	H	0.488106	0.087614	-0.168701
H188	H	0.821439	0.420948	0.164633
H189	H	1.154772	0.754281	0.497966
Cl190	Cl	0.454799	0.104537	0.209552
Cl191	Cl	0.788132	0.437870	0.542886
Cl192	Cl	1.121466	0.771204	0.876219
H193	H	0.028786	0.096331	0.168349
H194	H	0.362120	0.429664	0.501682
H195	H	0.695453	0.762997	0.835015
H196	H	0.944194	-0.134451	-0.000136
H197	H	1.277527	0.198882	0.333197
H198	H	1.610860	0.532215	0.666530
H199	H	0.762396	0.155218	0.518198
H200	H	1.095729	0.488551	0.851531
H201	H	1.429062	0.821884	1.184864
Cl202	Cl	0.908999	0.008770	0.457658
Cl203	Cl	1.242332	0.342104	0.790991
Cl204	Cl	1.575665	0.675437	1.124325
H205	H	0.942247	-0.266562	-0.000163
H206	H	1.275580	0.066771	0.333171
H207	H	1.608913	0.400105	0.666504
Cl208	Cl	0.685352	-0.083615	-0.000131
Cl209	Cl	1.018685	0.249719	0.333202
Cl210	Cl	1.352018	0.583052	0.666535
H211	H	0.937652	-0.578464	-0.000189
H212	H	1.270985	-0.245131	0.333145
H213	H	1.604319	0.088202	0.666478
Cl214	Cl	0.682933	-0.247985	-0.000141
Cl215	Cl	1.016267	0.085348	0.333193
Cl216	Cl	1.349600	0.418681	0.666526
H217	H	0.704809	-0.679650	-0.000189
H218	H	1.038143	-0.346316	0.333144
H219	H	1.371476	-0.012983	0.666478
H220	H	0.706754	-0.547535	-0.000169
H221	H	1.040088	-0.214202	0.333164
H222	H	1.373421	0.119132	0.666497
