data_functionalizedCrystal
_audit_creation_method	'MofGen! by Chris Wilmer'
_symmetry_space_group_name_H-M	'P1'
_symmetry_Int_Tables_number	1
_symmetry_cell_setting	triclinic
loop_
_symmetry_equiv_pos_as_xyz
  x,y,z
_cell_length_a	14.044202
_cell_length_b	14.519709
_cell_length_c	12.996460
_cell_angle_alpha	90.007122
_cell_angle_beta	90.001683
_cell_angle_gamma	91.563577
loop_
_atom_site_label
_atom_site_type_symbol
_atom_site_fract_x
_atom_site_fract_y
_atom_site_fract_z
O1	O	-1.258079	0.222411	0.085519
O2	O	-0.982096	0.214378	0.085532
O3	O	-1.127405	0.084746	0.085516
O4	O	-1.112770	0.352042	0.085535
O5	O	-1.127402	0.084737	-0.085618
O6	O	-0.982094	0.214368	-0.085602
O7	O	-1.258077	0.222401	-0.085615
Cu8	Cu	-1.120085	0.218384	-0.101234
Cu9	Cu	-1.120088	0.218395	0.101151
O10	O	-1.112768	0.352033	-0.085599
C11	C	-0.946774	0.210859	-0.000033
C12	C	-0.841531	0.200379	-0.000028
C13	C	-1.126722	0.050327	-0.000051
C14	C	-1.124678	-0.052219	-0.000052
C15	C	-0.591338	0.255542	-0.000034
C16	C	-0.648841	0.181233	-0.000038
C17	C	-0.756063	0.191888	-0.000032
C18	C	-0.484106	0.244889	-0.000039
C19	C	-1.117154	-0.427722	-0.000024
C20	C	-1.119243	-0.323246	-0.000032
C21	C	-1.120916	-0.239974	-0.000039
C22	C	-1.123005	-0.135491	-0.000045
C23	C	-0.293398	0.225918	-0.000047
C24	C	-0.398643	0.236393	-0.000044
C25	C	-1.113451	0.386452	-0.000029
C26	C	-1.115495	0.488999	-0.000022
N27	N	-1.120090	0.218396	0.243499
N28	N	-1.120090	0.218376	-0.243581
C29	C	-1.120086	0.218387	0.663313
C30	C	-1.120084	0.218392	0.546508
C31	C	-1.120087	0.218391	0.453409
C32	C	-1.120087	0.218397	0.336597
H33	H	-0.617544	0.109613	0.000030
O34	O	-0.628823	0.340914	0.000027
C35	C	-0.729087	0.332679	0.000006
H36	H	-0.752056	0.262574	0.032392
H37	H	-0.759641	0.389435	0.049703
H38	H	-0.756640	0.339370	-0.082093
