data_functionalizedCrystal
_audit_creation_method	'MofGen! by Chris Wilmer'
_symmetry_space_group_name_H-M	'P1'
_symmetry_Int_Tables_number	1
_symmetry_cell_setting	triclinic
loop_
_symmetry_equiv_pos_as_xyz
  x,y,z
_cell_length_a	14.971482
_cell_length_b	10.654546
_cell_length_c	14.048226
_cell_angle_alpha	90.001481
_cell_angle_beta	89.994098
_cell_angle_gamma	95.951934
loop_
_atom_site_label
_atom_site_type_symbol
_atom_site_fract_x
_atom_site_fract_y
_atom_site_fract_z
O1	O	1.187838	-0.163637	-0.079138
O2	O	0.927544	-0.183240	-0.079141
O3	O	1.063677	0.009365	-0.079145
O4	O	1.051705	-0.356242	-0.079134
O5	O	1.063661	0.009377	0.079177
O6	O	0.927527	-0.183229	0.079180
O7	O	1.187822	-0.163626	0.079184
Zn8	Zn	1.057672	-0.173425	0.104319
Zn9	Zn	1.057694	-0.173440	-0.104276
O10	O	1.051688	-0.356231	0.079187
C11	C	0.894206	-0.182359	0.000019
C12	C	0.794895	-0.179734	0.000017
C13	C	0.748234	-0.178492	0.086319
C14	C	0.654922	-0.176005	0.086320
C15	C	0.608272	-0.174771	0.000018
C16	C	0.654939	-0.176009	-0.086290
C17	C	0.748250	-0.178487	-0.086290
C18	C	0.460449	-0.170849	-0.086284
C19	C	0.367131	-0.168374	-0.086285
C20	C	0.367121	-0.168368	0.086326
C21	C	0.460432	-0.170845	0.086326
C22	C	0.507093	-0.172086	0.000017
C23	C	1.062791	0.056159	0.000012
C24	C	1.060162	0.195575	0.000002
C25	C	1.140315	0.275922	0.000002
C26	C	1.137840	0.406916	-0.000011
C27	C	0.975053	0.377203	-0.000021
C28	C	0.977529	0.246212	-0.000014
C29	C	1.222949	0.225285	0.000018
C30	C	1.303108	0.305633	0.000020
C31	C	1.300634	0.436628	0.000007
C32	C	1.217999	0.487274	-0.000008
C33	C	1.221159	-0.164507	0.000022
C34	C	1.320471	-0.167132	0.000017
C35	C	1.052577	0.596975	0.000016
C36	C	1.055212	0.457561	-0.000018
N37	N	1.057663	-0.173414	0.246680
N38	N	1.057709	-0.173441	-0.246637
C39	C	1.117963	-0.088164	0.296496
C40	C	1.117969	-0.088163	0.396154
C41	C	1.057679	-0.173420	0.445993
C42	C	0.997374	-0.258675	0.396170
C43	C	0.997364	-0.258668	0.296514
C44	C	0.997399	-0.258684	0.603884
C45	C	0.997410	-0.258692	0.703547
C46	C	1.118004	-0.088179	0.703524
C47	C	1.117994	-0.088172	0.603868
C48	C	1.057690	-0.173429	0.554051
H49	H	0.498412	-0.171858	0.156601
C50	C	0.884164	0.432912	-0.000025
H51	H	0.894170	0.522434	-0.000019
H52	H	0.851130	0.405339	-0.055233
H53	H	0.851125	0.405346	0.055194
C54	C	1.215278	0.631365	-0.000028
H55	H	1.274850	0.671967	-0.000023
H56	H	1.184663	0.655502	-0.055240
H57	H	1.184654	0.655521	0.055187
C58	C	1.388800	0.525013	-0.000004
H59	H	1.375494	0.610280	-0.000022
H60	H	1.422644	0.509661	0.055208
H61	H	1.422651	0.509635	-0.055219
H62	H	0.616937	-0.174973	0.156596
H63	H	0.786210	-0.179508	0.156596
C64	C	0.315751	-0.167561	0.181263
H65	H	0.253484	-0.166065	0.168905
H66	H	0.324801	-0.241319	0.216448
H67	H	0.337252	-0.094950	0.216997
H68	H	1.167061	-0.018743	0.255923
C69	C	0.889363	0.157825	-0.000013
H70	H	0.839795	0.206742	-0.000010
H71	H	0.886955	0.106103	-0.055221
H72	H	0.886940	0.106114	0.055206
C73	C	1.184306	0.005600	0.450948
H74	H	1.220220	0.056363	0.406992
H75	H	1.151823	0.057959	0.489836
H76	H	1.221818	-0.039683	0.489809
H77	H	0.329151	-0.167370	-0.156560
C78	C	1.184331	0.005611	0.758317
H79	H	1.175696	-0.006588	0.824807
H80	H	1.244108	-0.008163	0.741975
H81	H	1.174094	0.089453	0.741987
H82	H	0.498437	-0.171860	-0.156566
C83	C	0.603628	-0.174671	-0.181223
H84	H	0.644785	-0.175761	-0.232622
H85	H	0.560862	-0.246889	-0.184801
H86	H	0.573594	-0.100525	-0.184822
C87	C	0.931036	-0.352392	0.758369
H88	H	0.895095	-0.403132	0.714429
H89	H	0.963480	-0.404780	0.797264
H90	H	0.893555	-0.307039	0.797225
C91	C	0.799576	-0.179862	-0.181222
H92	H	0.758429	-0.178784	-0.232621
H93	H	0.842349	-0.107652	-0.184814
H94	H	0.829602	-0.254016	-0.184806
H95	H	1.224973	0.118624	0.000032
H96	H	0.948290	-0.328105	0.563327
H97	H	0.948280	-0.328088	0.436755
C98	C	1.393998	0.249928	0.000035
H99	H	1.383994	0.160406	0.000052
H100	H	1.427046	0.277488	-0.055174
H101	H	1.427023	0.277511	0.055253
H102	H	1.167091	-0.018756	0.563289
C103	C	0.931039	-0.352449	0.241716
H104	H	0.895139	-0.403234	0.285670
H105	H	0.893525	-0.307185	0.202851
H106	H	0.963537	-0.404803	0.202831
