data_functionalizedCrystal
_audit_creation_method	'MofGen! by Chris Wilmer'
_symmetry_space_group_name_H-M	'P1'
_symmetry_Int_Tables_number	1
_symmetry_cell_setting	triclinic
loop_
_symmetry_equiv_pos_as_xyz
  x,y,z
_cell_length_a	10.686220
_cell_length_b	18.050589
_cell_length_c	10.686551
_cell_angle_alpha	85.596139
_cell_angle_beta	90.308082
_cell_angle_gamma	94.409750
loop_
_atom_site_label
_atom_site_type_symbol
_atom_site_fract_x
_atom_site_fract_y
_atom_site_fract_z
Zn1	Zn	1.972217	-0.181059	-0.562396
Zn2	Zn	1.955936	-0.315479	-0.352644
Zn3	Zn	1.746328	-0.200057	-0.368714
Zn4	Zn	1.762366	-0.313974	-0.578422
O5	O	1.859212	-0.252642	-0.465544
O6	O	2.145602	-0.191569	-0.521139
O7	O	1.914605	-0.308749	-0.179231
O8	O	1.776395	-0.093607	-0.394425
O9	O	2.133640	-0.290327	-0.367036
O10	O	1.942354	-0.079649	-0.536722
O11	O	1.760607	-0.223949	-0.191038
O12	O	1.572911	-0.222489	-0.409965
O13	O	1.803729	-0.287762	-0.751841
O14	O	1.584694	-0.306184	-0.564036
O15	O	1.957906	-0.190110	-0.740067
O16	O	1.930156	-0.419209	-0.382576
O17	O	1.787942	-0.418104	-0.548454
C18	C	1.533286	-0.266235	-0.490484
C19	C	1.393856	-0.272067	-0.501183
C20	C	1.859059	-0.445602	-0.465535
C21	C	1.859111	-0.528144	-0.465564
C22	C	1.781855	-0.727018	-0.555733
C23	C	1.742482	-0.783311	-0.443604
C24	C	1.859236	-0.679268	-0.465571
C25	C	1.898671	-0.770054	-0.577708
C26	C	1.859354	-0.825247	-0.465588
C27	C	1.819798	-0.734480	-0.353387
C28	C	1.976046	-0.721212	-0.487563
C29	C	1.936711	-0.777484	-0.375352
C30	C	1.859164	-0.595174	-0.465563
C31	C	1.859425	-0.909341	-0.465583
C32	C	2.186411	-0.238997	-0.440508
C33	C	2.325843	-0.233182	-0.429838
C34	C	1.884423	-0.236649	-0.792743
C35	C	1.895166	-0.229833	-0.932176
C36	C	1.859402	-0.058926	-0.465578
C37	C	1.859483	0.023624	-0.465593
C38	C	1.834171	-0.268517	-0.139612
C39	C	1.823671	-0.275113	-0.000161
H40	H	1.374283	-0.195430	-0.360571
H41	H	1.643756	-0.810397	-0.425021
O42	O	1.978178	-0.177435	-0.989923
C43	C	2.194659	-0.130505	-1.013874
C44	C	2.100793	-0.189898	-0.948409
H45	H	2.293812	-0.140551	-0.980316
H46	H	2.188971	-0.134169	-1.119804
H47	H	2.170665	-0.072785	-0.989901
H48	H	2.124725	-0.247645	-0.972281
H49	H	2.106500	-0.186168	-0.842496
H50	H	1.345409	-0.309826	-0.570447
O51	O	1.779720	-0.715656	-0.240332
C52	C	1.625888	-0.655045	-0.129213
C53	C	1.671127	-0.676332	-0.257316
H54	H	1.538100	-0.623234	-0.142903
H55	H	1.603266	-0.707726	-0.065008
H56	H	1.702874	-0.618369	-0.084891
H57	H	1.594194	-0.712989	-0.301747
H58	H	1.693786	-0.623620	-0.321433
O59	O	1.703480	-0.700656	-0.646456
C60	C	1.491836	-0.702654	-0.725775
C61	C	1.580452	-0.732555	-0.622946
H62	H	1.392354	-0.728444	-0.706818
H63	H	1.493089	-0.639455	-0.725514
H64	H	1.524492	-0.717966	-0.821183
H65	H	1.547859	-0.717298	-0.527487
H66	H	1.579190	-0.795748	-0.623318
H67	H	1.931977	-0.785908	-0.672534
H68	H	2.002194	-0.799490	-0.299031
O69	O	2.093782	-0.688918	-0.510017
C70	C	2.268438	-0.670181	-0.653606
C71	C	2.135093	-0.706784	-0.628331
H72	H	2.301889	-0.684626	-0.749250
H73	H	2.267436	-0.607123	-0.652545
H74	H	2.334746	-0.691741	-0.577679
H75	H	2.068709	-0.685284	-0.704230
H76	H	2.136196	-0.769839	-0.629346
O77	O	1.740863	-0.327520	-0.942156
C78	C	1.654385	-0.382374	-0.745617
C79	C	1.748195	-0.322979	-0.811159
H80	H	1.660300	-0.378733	-0.639695
H81	H	1.555167	-0.372314	-0.778957
H82	H	1.678303	-0.440090	-0.769688
H83	H	1.724393	-0.265239	-0.787118
H84	H	1.847387	-0.333104	-0.777815
