data_functionalizedCrystal
_audit_creation_method	'MofGen! by Chris Wilmer'
_symmetry_space_group_name_H-M	'P1'
_symmetry_Int_Tables_number	1
_symmetry_cell_setting	triclinic
loop_
_symmetry_equiv_pos_as_xyz
  x,y,z
_cell_length_a	10.489741
_cell_length_b	17.038272
_cell_length_c	9.565339
_cell_angle_alpha	89.999972
_cell_angle_beta	89.999100
_cell_angle_gamma	87.825365
loop_
_atom_site_label
_atom_site_type_symbol
_atom_site_fract_x
_atom_site_fract_y
_atom_site_fract_z
O1	O	1.704376	0.110370	-0.116175
O2	O	1.334150	0.120730	-0.116197
O3	O	1.517063	0.001722	-0.116175
O4	O	1.521463	0.229378	-0.116197
O5	O	1.517048	0.001729	0.116345
O6	O	1.334135	0.120738	0.116323
O7	O	1.704362	0.110377	0.116345
Zn8	Zn	1.519246	0.115558	0.153252
Zn9	Zn	1.519265	0.115549	-0.153103
O10	O	1.521449	0.229385	0.116324
C11	C	1.286537	0.119951	0.000061
C12	C	1.144689	0.117610	0.000053
C13	C	1.069466	0.041889	0.000073
C14	C	0.980692	0.077655	-0.114572
C15	C	0.980714	0.077680	0.114675
C16	C	1.057783	0.153408	-0.114687
C17	C	1.057813	0.153423	0.114662
C18	C	0.969072	0.189244	-0.000011
C19	C	1.513053	-0.027426	0.000085
C20	C	1.501111	-0.114288	0.000084
C21	C	1.610749	-0.163767	0.000092
C22	C	1.599521	-0.245383	0.000078
C23	C	1.478654	-0.277518	0.000066
C24	C	1.369007	-0.228032	0.000054
C25	C	1.380237	-0.146418	0.000058
C26	C	1.438983	-0.523505	0.000044
C27	C	1.427762	-0.605126	0.000045
C28	C	1.658277	-0.622471	0.000066
C29	C	1.669495	-0.540855	0.000078
C30	C	1.559849	-0.491376	0.000059
C31	C	1.467174	-0.360942	0.000056
C32	C	1.571330	-0.407954	0.000059
C33	C	1.751974	0.111156	0.000085
C34	C	1.893822	0.113497	0.000084
C35	C	1.525458	0.258533	0.000061
C36	C	1.537400	0.345395	0.000053
N37	N	1.519242	0.115565	0.362331
N38	N	1.519279	0.115536	-0.362183
C39	C	1.434621	0.170584	0.453524
C40	C	1.551599	0.186413	0.546708
C41	C	1.402315	0.099741	0.546703
C42	C	1.636281	0.131430	0.453464
C43	C	1.486918	0.044727	0.453450
C44	C	1.603976	0.060527	0.546592
H45	H	0.925476	0.251558	-0.000079
H46	H	1.767918	-0.514697	0.000088
H47	H	1.368763	-0.387115	0.000050
H48	H	1.091847	0.185439	0.211587
O49	O	1.706154	-0.293334	0.000157
C50	C	1.815241	-0.247471	0.000146
H51	H	1.789447	-0.186751	0.044165
H52	H	1.851893	-0.241456	-0.111399
C53	C	1.951416	-0.362095	0.037285
C54	C	1.919738	-0.287520	0.091361
H55	H	2.015877	-0.386801	0.093544
H56	H	1.877923	-0.392996	0.037287
H57	H	1.981951	-0.357073	-0.055668
H58	H	1.889188	-0.292544	0.184305
H59	H	1.993229	-0.256622	0.091376
O60	O	1.349487	0.226241	0.404823
C61	C	1.384056	0.300818	0.452373
H62	H	1.490155	0.299208	0.478500
H63	H	1.326565	0.317238	0.549917
C64	C	1.225843	0.364252	0.305164
C65	C	1.356158	0.362277	0.337243
H66	H	1.208629	0.402165	0.234151
H67	H	1.202549	0.314009	0.273132
H68	H	1.177949	0.377933	0.386461
H69	H	1.404048	0.348587	0.255953
H70	H	1.379459	0.412520	0.369260
H71	H	1.349700	-0.483229	0.000029
H72	H	1.709172	-0.137610	0.000110
O73	O	0.940185	0.039307	-0.230091
C74	C	0.991624	-0.038356	-0.229700
H75	H	1.017379	-0.056353	-0.118135
H76	H	1.080943	-0.041955	-0.297651
C77	C	0.860733	-0.071912	-0.425213
C78	C	0.892357	-0.094019	-0.288185
H79	H	0.799504	-0.106248	-0.461295
H80	H	0.826081	-0.019589	-0.425481
H81	H	0.935175	-0.074912	-0.481822
H82	H	0.817919	-0.091009	-0.231575
H83	H	0.926994	-0.146343	-0.287909
O84	O	1.584066	0.257861	0.595759
C85	C	1.484043	0.289913	0.678893
H86	H	1.423750	0.240581	0.719752
H87	H	1.421870	0.332098	0.613330
C88	C	1.614268	0.395168	0.752894
C89	C	1.540222	0.334577	0.803087
H90	H	1.648919	0.422723	0.829499
H91	H	1.681654	0.373577	0.696881
H92	H	1.562445	0.430314	0.698258
H93	H	1.592048	0.299427	0.857707
H94	H	1.472845	0.356164	0.859112
O95	O	1.754192	0.147545	0.404587
C96	C	1.752731	0.147407	0.257196
H97	H	1.650936	0.159073	0.218652
H98	H	1.789905	0.087797	0.217228
C99	C	1.963457	0.197691	0.249591
C100	C	1.838431	0.212026	0.202250
H101	H	2.016325	0.237548	0.215696
H102	H	1.964444	0.197781	0.348891
H103	H	1.994417	0.148014	0.216280
H104	H	1.807468	0.261697	0.235575
H105	H	1.837441	0.211946	0.102954
H106	H	1.747544	-0.662765	0.000079
H107	H	0.946731	0.045630	0.211599
O108	O	1.097909	0.191642	-0.230499
C109	C	0.991395	0.216168	-0.311502
H110	H	0.903088	0.220828	-0.242093
H111	H	0.975866	0.171566	-0.398107
C112	C	1.123772	0.291189	-0.462005
C113	C	1.015313	0.296919	-0.376753
H114	H	1.138526	0.340998	-0.502261
H115	H	1.195534	0.274663	-0.407435
H116	H	1.110818	0.254017	-0.534164
H117	H	1.028275	0.334082	-0.304586
H118	H	0.943554	0.313453	-0.431312
O119	O	1.454014	-0.026672	0.404595
C120	C	1.330603	-0.043120	0.452047
H121	H	1.276285	0.014216	0.478253
H122	H	1.338105	-0.081520	0.549522
C123	C	1.325750	-0.157084	0.304619
C124	C	1.259032	-0.086663	0.336795
H125	H	1.281603	-0.183947	0.233531
H126	H	1.408897	-0.146006	0.272653
H127	H	1.331997	-0.189075	0.385858
H128	H	1.252800	-0.054670	0.255562
H129	H	1.175883	-0.097738	0.368745
H130	H	1.675636	0.013985	0.587199
O131	O	1.310247	-0.636213	-0.000044
C132	C	1.215877	-0.575042	-0.000032
H133	H	1.257671	-0.519406	-0.044043
H134	H	1.181607	-0.563696	0.111512
C135	C	1.051294	-0.667038	-0.037190
C136	C	1.102624	-0.598706	-0.091256
H137	H	0.981431	-0.681636	-0.093455
H138	H	1.114872	-0.708251	-0.037193
H139	H	1.022747	-0.657574	0.055762
H140	H	1.131185	-0.608174	-0.184199
H141	H	1.039048	-0.557495	-0.091271
H142	H	1.270594	-0.254202	0.000035
H143	H	1.290957	-0.106132	0.000051
O144	O	1.284271	0.083736	0.595324
C145	C	1.201169	0.073281	0.481544
H146	H	1.259118	0.055990	0.384770
H147	H	1.144450	0.130461	0.460500
C148	C	1.037560	0.029210	0.635270
C149	C	1.108733	0.007968	0.516413
H150	H	0.980536	-0.011075	0.656779
H151	H	1.093544	0.036257	0.711927
H152	H	0.990305	0.076862	0.617718
H153	H	1.155998	-0.039677	0.533972
H154	H	1.052754	0.000911	0.439759
O155	O	1.121613	-0.032418	0.000128
C156	C	1.080687	-0.072622	0.119880
H157	H	0.987563	-0.043965	0.159433
H158	H	1.156534	-0.069822	0.204909
C159	C	1.173696	-0.194229	0.033818
C160	C	1.059314	-0.159036	0.082391
H161	H	1.160518	-0.247534	0.010697
H162	H	1.201274	-0.167143	-0.046859
H163	H	1.236891	-0.191888	0.104684
H164	H	0.996127	-0.161368	0.011519
H165	H	1.031726	-0.186124	0.163056
H166	H	1.669740	-0.381786	0.000038
