data_functionalizedCrystal
_audit_creation_method	'MofGen! by Chris Wilmer'
_symmetry_space_group_name_H-M	'P1'
_symmetry_Int_Tables_number	1
_symmetry_cell_setting	triclinic
loop_
_symmetry_equiv_pos_as_xyz
  x,y,z
_cell_length_a	12.759401
_cell_length_b	15.296720
_cell_length_c	12.759400
_cell_angle_alpha	80.351640
_cell_angle_beta	89.985155
_cell_angle_gamma	99.664394
loop_
_atom_site_label
_atom_site_type_symbol
_atom_site_fract_x
_atom_site_fract_y
_atom_site_fract_z
Zn1	Zn	1.503391	-0.510017	0.521031
Zn2	Zn	1.533709	-0.359171	0.666336
Zn3	Zn	1.358113	-0.359187	0.490676
Zn4	Zn	1.327688	-0.509984	0.696663
O5	O	1.430725	-0.434590	0.593676
O6	O	1.654432	-0.490014	0.540319
O7	O	1.535837	-0.232935	0.617639
O8	O	1.377430	-0.379216	0.347685
O9	O	1.676707	-0.379188	0.647073
O10	O	1.484164	-0.490030	0.369988
O11	O	1.406828	-0.232947	0.488581
O12	O	1.207058	-0.379184	0.517988
O13	O	1.325574	-0.636227	0.698761
O14	O	1.184704	-0.489974	0.669326
O15	O	1.454662	-0.636251	0.569725
O16	O	1.506335	-0.379156	0.817376
O17	O	1.354973	-0.489957	0.839657
C18	C	1.157760	-0.434578	0.593655
C19	C	1.040981	-0.434594	0.593675
C20	C	0.974526	-0.492186	0.672565
C21	C	0.864800	-0.492196	0.672580
C22	C	0.887994	-0.377013	0.514811
C23	C	0.997717	-0.377008	0.514792
C24	C	0.961134	-0.558684	0.763654
C25	C	0.851408	-0.558694	0.763670
C26	C	1.383342	-0.669886	0.641012
C27	C	1.363150	-0.770155	0.661183
C28	C	1.575079	-1.052849	0.449323
C29	C	1.594057	-0.958641	0.430373
C30	C	1.536332	-0.911515	0.488074
C31	C	1.459626	-0.958606	0.564729
C32	C	1.440652	-1.052823	0.583687
C33	C	1.401905	-0.911489	0.622437
C34	C	1.325199	-0.958581	0.699092
C35	C	1.306228	-1.052789	0.718046
C36	C	1.363953	-1.099915	0.660345
C37	C	1.420878	-0.817272	0.603479
C38	C	1.286452	-0.817247	0.737842
C39	C	1.267474	-0.911455	0.756792
C40	C	1.704756	-0.434603	0.593699
C41	C	1.821532	-0.434608	0.593709
C42	C	1.430667	-0.434571	0.866640
C43	C	1.430732	-0.434593	0.983421
C44	C	1.477985	-0.200209	0.546449
C45	C	1.498380	-0.099940	0.525982
C46	C	1.430809	-0.434628	0.319651
C47	C	1.430844	-0.434645	0.202878
C48	C	1.509608	-0.376962	1.026659
C49	C	1.509667	-0.376990	1.136389
C50	C	1.351964	-0.492282	1.159633
C51	C	1.351910	-0.492258	1.049906
C52	C	1.600654	-0.310397	1.013240
C53	C	1.600713	-0.310425	1.122970
H54	H	0.852756	-0.330130	0.450587
H55	H	1.051821	-0.330117	0.450547
O56	O	1.637302	-1.103690	0.387084
H57	H	1.682083	-1.146623	0.442742
O58	O	1.343478	-1.201529	0.680787
H59	H	1.396505	-1.226382	0.627785
H60	H	1.243777	-1.091128	0.780472
O61	O	0.788620	-0.646663	0.742926
H62	H	0.804339	-0.702157	0.805718
O63	O	0.981952	-0.651269	0.753572
H64	H	1.068955	-0.651207	0.753574
O65	O	1.676787	-0.907855	0.347704
H66	H	1.638435	-0.864930	0.285612
H67	H	1.205019	-0.949810	0.819205
O68	O	1.266953	-0.554471	1.231347
H69	H	1.212100	-0.594546	1.182844
O70	O	1.224155	-0.766425	0.800048
H71	H	1.167630	-0.814997	0.856535
H72	H	1.287691	-0.539193	1.014705
H73	H	1.000220	-0.533539	0.835837
H74	H	1.678213	-0.329159	0.987165
H75	H	1.584920	-0.244002	0.965906
O76	O	0.816959	-0.533735	0.866382
H77	H	0.887114	-0.521499	0.916651
H78	H	1.593069	-0.240548	1.138743
O79	O	1.503605	-0.766483	0.520807
H80	H	1.481969	-0.784573	0.441987
O81	O	1.556785	-0.809904	0.467631
H82	H	1.619812	-0.785075	0.404627
O83	O	1.696401	-0.343650	1.174649
H84	H	1.747089	-0.361238	1.113308
