data_functionalizedCrystal
_audit_creation_method	'MofGen! by Chris Wilmer'
_symmetry_space_group_name_H-M	'P1'
_symmetry_Int_Tables_number	1
_symmetry_cell_setting	triclinic
loop_
_symmetry_equiv_pos_as_xyz
  x,y,z
_cell_length_a	21.295418
_cell_length_b	21.295417
_cell_length_c	21.295411
_cell_angle_alpha	90.021644
_cell_angle_beta	90.043738
_cell_angle_gamma	90.046319
loop_
_atom_site_label
_atom_site_type_symbol
_atom_site_fract_x
_atom_site_fract_y
_atom_site_fract_z
Zn1	Zn	0.962356	-0.250415	0.356234
Zn2	Zn	0.962258	-0.355667	0.250959
Zn3	Zn	0.857079	-0.250445	0.250943
Zn4	Zn	0.857048	-0.355680	0.356155
O5	O	0.909685	-0.303052	0.303573
O6	O	1.050432	-0.264360	0.342308
O7	O	0.948278	-0.341716	0.162867
O8	O	0.871098	-0.162351	0.264937
O9	O	1.050361	-0.341688	0.264963
O10	O	0.948444	-0.162330	0.342293
O11	O	0.871003	-0.264410	0.162856
O12	O	0.768985	-0.264422	0.264861
O13	O	0.871046	-0.341709	0.444255
O14	O	0.768963	-0.341738	0.342160
O15	O	0.948415	-0.264372	0.444313
O16	O	0.948248	-0.443758	0.264887
O17	O	0.870951	-0.443767	0.342175
C18	C	0.746134	-0.303085	0.303500
C19	C	0.676166	-0.303114	0.303484
C20	C	0.643304	-0.343426	0.343674
C21	C	0.577561	-0.343410	0.343702
C22	C	0.544683	-0.303090	0.303530
C23	C	0.577553	-0.262770	0.263337
C24	C	0.643294	-0.262783	0.263315
N25	N	0.441407	-0.298163	0.248472
N26	N	0.378956	-0.298155	0.248495
C27	C	0.346608	-0.303050	0.303596
N28	N	0.379072	-0.307965	0.358675
N29	N	0.441529	-0.307976	0.358650
C30	C	0.473398	-0.303072	0.303550
C31	C	0.242461	-0.343346	0.343820
C32	C	0.176717	-0.343326	0.343849
C33	C	0.176710	-0.262690	0.263479
C34	C	0.242453	-0.262707	0.263455
C35	C	0.275324	-0.303038	0.303625
C36	C	0.909603	-0.466603	0.303538
C37	C	0.909625	-0.536571	0.303544
C38	C	0.949910	-0.569412	0.263342
C39	C	0.949939	-0.635155	0.263356
C40	C	0.909673	-0.668054	0.303566
C41	C	0.869386	-0.635205	0.343776
C42	C	0.869362	-0.569464	0.343765
N43	N	0.854606	-0.771336	0.308340
N44	N	0.854630	-0.833787	0.308347
C45	C	0.909743	-0.866129	0.303602
N46	N	0.964832	-0.833659	0.298838
N47	N	0.964807	-0.771202	0.298828
C48	C	0.909695	-0.739339	0.303582
C49	C	0.950063	-0.970255	0.263413
C50	C	0.950094	-1.035999	0.263431
C51	C	0.869535	-1.036048	0.343848
C52	C	0.869510	-0.970305	0.343833
C53	C	0.909773	-0.937413	0.303612
C54	C	1.073876	-0.303019	0.303646
C55	C	1.143844	-0.303005	0.303677
C56	C	0.909738	-0.303038	0.467763
C57	C	0.909760	-0.303033	0.537731
C58	C	0.909785	-0.138861	0.303622
C59	C	0.909828	-0.068893	0.303642
C60	C	0.909670	-0.303019	0.140021
C61	C	0.909769	-0.302848	0.070054
C62	C	0.950044	-0.262761	0.570629
C63	C	0.950043	-0.262734	0.636371
C64	C	0.909765	-0.302989	0.669214
C65	C	0.869473	-0.343263	0.636308
C66	C	0.869470	-0.343285	0.570567
N67	N	0.904908	-0.358058	0.772428
N68	N	0.904914	-0.358036	0.834879
C69	C	0.909769	-0.302926	0.867289
N70	N	0.914629	-0.247837	0.834888
N71	N	0.914627	-0.247860	0.772430
C72	C	0.909763	-0.302970	0.740499
C73	C	0.950054	-0.262621	0.971472
C74	C	0.950049	-0.262593	1.037216
C75	C	0.869482	-0.343128	1.037151
C76	C	0.869484	-0.343151	0.971409
C77	C	0.909773	-0.302898	0.938573
H78	H	0.149942	-0.229857	0.230773
O79	O	0.678735	-0.219305	0.219956
H80	H	0.708749	-0.187320	0.248175
H81	H	0.269209	-0.229884	0.230726
O82	O	0.826042	-0.934885	0.387182
H83	H	0.836807	-0.947465	0.436605
H84	H	0.550800	-0.376236	0.376431
O85	O	0.826025	-0.386589	0.935935
H86	H	0.854165	-0.418626	0.905995
O87	O	0.826032	-0.386545	1.072563
H88	H	0.854185	-0.418562	1.102531
O89	O	0.542097	-0.219294	0.219993
H90	H	0.490862	-0.226067	0.226751
O91	O	0.993398	-0.670595	0.220006
H92	H	0.965252	-0.700607	0.187957
O93	O	0.993553	-1.071420	0.220072
H94	H	0.986814	-1.122661	0.226843
O95	O	0.993495	-0.219346	0.535211
H96	H	1.021504	-0.191335	0.569137
O97	O	0.993343	-0.533934	0.219972
H98	H	1.021366	-0.567820	0.192024
O99	O	0.277923	-0.386835	0.387150
H100	H	0.244024	-0.414857	0.415111
H101	H	0.982846	-0.229937	0.663162
H102	H	0.836676	-0.376038	0.663053
H103	H	0.836602	-0.661996	0.376516
H104	H	0.836557	-0.542724	0.376503
H105	H	0.982850	-0.943473	0.230664
O106	O	0.826100	-1.071521	0.387217
H107	H	0.832880	-1.122753	0.380468
O108	O	0.826004	-0.386714	0.535087
H109	H	0.836759	-0.436117	0.547705
H110	H	0.982857	-0.229842	0.944736
O111	O	0.993497	-0.219154	1.072706
H112	H	1.042895	-0.229952	1.060133
O113	O	0.678759	-0.386915	0.387006
H114	H	0.644859	-0.414939	0.414962
H115	H	0.149962	-0.376152	0.376580
