data_functionalizedCrystal
_audit_creation_method	'MofGen! by Chris Wilmer'
_symmetry_space_group_name_H-M	'P1'
_symmetry_Int_Tables_number	1
_symmetry_cell_setting	triclinic
loop_
_symmetry_equiv_pos_as_xyz
  x,y,z
_cell_length_a	11.169416
_cell_length_b	11.169417
_cell_length_c	17.077396
_cell_angle_alpha	90.018074
_cell_angle_beta	89.977334
_cell_angle_gamma	89.991438
loop_
_atom_site_label
_atom_site_type_symbol
_atom_site_fract_x
_atom_site_fract_y
_atom_site_fract_z
Zn1	Zn	-0.477864	-1.834920	-0.443845
Zn2	Zn	0.022136	-1.334920	0.056155
Zn3	Zn	-0.678576	-1.834822	-0.312592
Zn4	Zn	-0.178576	-1.334822	0.187408
Zn5	Zn	-0.477899	-1.634218	-0.312596
Zn6	Zn	0.022101	-1.134218	0.187404
Zn7	Zn	-0.678498	-1.634213	-0.443819
Zn8	Zn	-0.178498	-1.134213	0.056181
O9	O	-0.578209	-1.734543	-0.378213
O10	O	-0.078209	-1.234543	0.121787
O11	O	-0.504507	-2.002857	-0.426443
O12	O	-0.004507	-1.502857	0.073557
O13	O	-0.652003	-1.808172	-0.202745
O14	O	-0.152003	-1.308172	0.297255
O15	O	-0.309945	-1.660885	-0.330019
O16	O	0.190055	-1.160885	0.169981
O17	O	-0.651969	-2.002785	-0.330012
O18	O	-0.151969	-1.502785	0.169988
O19	O	-0.309919	-1.808340	-0.426447
O20	O	0.190081	-1.308340	0.073553
O21	O	-0.504567	-1.660790	-0.202748
O22	O	-0.004567	-1.160790	0.297252
O23	O	-0.504491	-1.466268	-0.329994
O24	O	-0.004491	-0.966268	0.170006
O25	O	-0.651836	-1.660876	-0.553669
O26	O	-0.151836	-1.160876	-0.053669
O27	O	-0.651870	-1.466264	-0.426403
O28	O	-0.151870	-0.966264	0.073597
O29	O	-0.504431	-1.808335	-0.553688
O30	O	-0.004431	-1.308335	-0.053688
O31	O	-0.846515	-1.808168	-0.329987
O32	O	-0.346515	-1.308168	0.170013
O33	O	-0.846458	-1.660781	-0.426399
O34	O	-0.346458	-1.160781	0.073601
C35	C	-0.578177	-1.422719	-0.378196
C36	C	-0.078177	-0.922719	0.121804
C37	C	-0.578191	-1.289319	-0.378208
C38	C	-0.078191	-0.789319	0.121792
C39	C	-0.890034	-1.734496	-0.378207
C40	C	-0.390034	-1.234496	0.121793
C41	C	-1.023434	-1.734585	-0.378230
C42	C	-0.523434	-1.234585	0.121770
C43	C	-0.265167	-1.734624	-0.378236
C44	C	0.234833	-1.234624	0.121764
C45	C	-0.131767	-1.734658	-0.378246
C46	C	0.368233	-1.234658	0.121754
C47	C	-0.578121	-1.734616	-0.582957
C48	C	-0.078121	-1.234616	-0.082957
C49	C	-0.578083	-1.734647	-0.670207
C50	C	-0.078083	-1.234647	-0.170207
C51	C	-0.578231	-1.047586	-0.378225
C52	C	-0.078231	-0.547586	0.121775
C53	C	-0.578211	-1.180986	-0.378216
C54	C	-0.078211	-0.680986	0.121784
C55	C	-0.501323	-1.811431	-0.711208
C56	C	-0.001323	-1.311431	-0.211208
C57	C	-0.501283	-1.811446	-0.793189
C58	C	-0.001283	-1.311446	-0.293189
C59	C	-0.578010	-1.734681	-0.834166
C60	C	-0.078010	-1.234681	-0.334166
C61	C	-0.654773	-1.657888	-0.793159
C62	C	-0.154773	-1.157888	-0.293159
C63	C	-0.654806	-1.657869	-0.711180
C64	C	-0.154806	-1.157869	-0.211180
C65	C	-0.654701	-1.657936	-0.964030
C66	C	-0.154701	-1.157936	-0.464030
C67	C	-0.654670	-1.657957	-1.046014
C68	C	-0.154670	-1.157957	-0.546014
C69	C	-0.501178	-1.811514	-1.046038
C70	C	-0.001178	-1.311514	-0.546038
C71	C	-0.501211	-1.811494	-0.964059
C72	C	-0.001211	-1.311494	-0.464059
C73	C	-0.577976	-1.734702	-0.923057
C74	C	-0.077976	-1.234702	-0.423057
C75	C	-0.578211	-1.734540	-0.174265
C76	C	-0.078211	-1.234540	0.325735
C77	C	-0.577910	-1.734742	-0.087015
C78	C	-0.077910	-1.234742	0.412985
H79	H	-0.438847	-1.873946	-0.677850
H80	H	0.061153	-1.373946	-0.177850
Cl81	Cl	-0.751206	-1.561395	-0.912486
Cl82	Cl	-0.251206	-1.061395	-0.412486
Cl83	Cl	-0.404675	-1.908053	-1.097582
Cl84	Cl	0.095325	-1.408053	-0.597582
H85	H	-0.717145	-1.595446	-1.079376
H86	H	-0.217145	-1.095446	-0.579376
H87	H	-0.717241	-1.595381	-0.826530
H88	H	-0.217241	-1.095381	-0.326530
Cl89	Cl	-0.751305	-1.561332	-0.659636
Cl90	Cl	-0.251305	-1.061332	-0.159636
H91	H	-0.438740	-1.874009	-0.930697
H92	H	0.061260	-1.374009	-0.430697
Cl93	Cl	-0.404833	-1.908032	-0.844730
Cl94	Cl	0.095167	-1.408032	-0.344730
