data_functionalizedCrystal
_audit_creation_method	'MofGen! by Chris Wilmer'
_symmetry_space_group_name_H-M	'P1'
_symmetry_Int_Tables_number	1
_symmetry_cell_setting	triclinic
loop_
_symmetry_equiv_pos_as_xyz
  x,y,z
_cell_length_a	15.944551
_cell_length_b	22.610064
_cell_length_c	15.944551
_cell_angle_alpha	90.003119
_cell_angle_beta	96.501262
_cell_angle_gamma	90.003741
loop_
_atom_site_label
_atom_site_type_symbol
_atom_site_fract_x
_atom_site_fract_y
_atom_site_fract_z
O1	O	1.114530	0.049124	-0.108321
O2	O	1.614530	0.549124	0.391679
O3	O	0.869980	0.049139	-0.121677
O4	O	1.369980	0.549139	0.378323
O5	O	0.998933	0.049126	0.007276
O6	O	1.498933	0.549126	0.507276
O7	O	0.985577	0.049137	-0.237274
O8	O	1.485577	0.549137	0.262726
O9	O	0.998910	-0.049243	0.007257
O10	O	1.498910	0.450757	0.507257
O11	O	0.869958	-0.049230	-0.121696
O12	O	1.369958	0.450770	0.378304
O13	O	1.114507	-0.049245	-0.108339
O14	O	1.614507	0.450755	0.391661
Zn15	Zn	0.992229	-0.064856	-0.115021
Zn16	Zn	1.492229	0.435144	0.384979
Zn17	Zn	0.992259	0.064750	-0.114996
Zn18	Zn	1.492259	0.564750	0.385004
O19	O	0.985554	-0.049232	-0.237292
O20	O	1.485554	0.450768	0.262708
C21	C	0.838675	-0.000044	-0.121132
C22	C	1.338675	0.499956	0.378868
C23	C	0.745429	-0.000038	-0.119470
C24	C	1.245429	0.499962	0.380530
C25	C	0.530572	-0.000054	-0.035565
C26	C	1.030572	0.499946	0.464435
C27	C	0.469563	0.048449	-0.074518
C28	C	0.969563	0.548449	0.425482
C29	C	0.574703	-0.000045	-0.116462
C30	C	1.074703	0.499955	0.383538
C31	C	0.469563	-0.048535	-0.074556
C32	C	0.969563	0.451465	0.425444
C33	C	0.409790	-0.000055	-0.113551
C34	C	0.909790	0.499945	0.386449
C35	C	0.514922	0.048498	-0.155438
C36	C	1.014922	0.548498	0.344562
C37	C	0.514929	-0.048530	-0.155464
C38	C	1.014929	0.451470	0.344536
C39	C	0.453937	-0.000015	-0.194476
C40	C	0.953937	0.499985	0.305524
C41	C	0.669705	-0.000039	-0.118137
C42	C	1.169705	0.499961	0.381863
C43	C	0.314789	-0.000057	-0.111883
C44	C	0.814789	0.499943	0.388117
N45	N	0.992214	-0.153308	-0.115037
N46	N	1.492214	0.346692	0.384963
C47	C	1.049362	-0.561956	-0.057904
C48	C	1.549362	-0.061956	0.442096
C49	C	1.049366	-0.623875	-0.057898
C50	C	1.549366	-0.123875	0.442102
O51	O	1.097919	-0.655899	-0.009334
O52	O	1.597919	-0.155899	0.490666
N53	N	0.992258	-0.654845	-0.114978
N54	N	1.492258	-0.154845	0.385022
C55	C	0.935136	-0.623892	-0.172063
C56	C	1.435136	-0.123892	0.327937
O57	O	0.886562	-0.655920	-0.220613
O58	O	1.386562	-0.155920	0.279387
C59	C	0.935129	-0.561974	-0.172064
C60	C	1.435129	-0.061974	0.327936
C61	C	0.992246	-0.531007	-0.114986
C62	C	1.492246	-0.031007	0.385014
C63	C	1.106474	-0.530989	-0.000830
C64	C	1.606474	-0.030989	0.499170
C65	C	1.106470	-0.469073	-0.000837
C66	C	1.606470	0.030927	0.499163
C67	C	1.049355	-0.438124	-0.057919
C68	C	1.549355	0.061876	0.442081
C69	C	0.992243	-0.469091	-0.114993
C70	C	1.492243	0.030909	0.385007
C71	C	0.878004	-0.531022	-0.229144
C72	C	1.378004	-0.031022	0.270856
C73	C	0.878001	-0.469099	-0.229140
C74	C	1.378001	0.030901	0.270860
C75	C	0.935118	-0.438132	-0.172062
C76	C	1.435118	0.061868	0.327938
C77	C	0.935124	-0.376227	-0.172082
C78	C	1.435124	0.123773	0.327918
N79	N	0.992232	-0.345257	-0.115002
N80	N	1.492232	0.154743	0.384998
C81	C	1.049347	-0.376205	-0.057920
C82	C	1.549347	0.123795	0.442080
C83	C	0.935156	-0.753926	-0.172054
C84	C	1.435156	-0.253926	0.327946
C85	C	0.935167	-0.815844	-0.172058
C86	C	1.435167	-0.315844	0.327942
C87	C	1.049396	-0.815822	-0.057892
C88	C	1.549396	-0.315822	0.442108
C89	C	1.049388	-0.753904	-0.057893
C90	C	1.549388	-0.253904	0.442107
C91	C	0.992264	-0.722956	-0.114974
C92	C	1.492264	-0.222956	0.385026
C93	C	1.049336	-0.246178	-0.057941
C94	C	1.549336	0.253822	0.442059
C95	C	1.049330	-0.184257	-0.057955
C96	C	1.549330	0.315743	0.442045
C97	C	0.935099	-0.184284	-0.172118
C98	C	1.435099	0.315716	0.327882
C99	C	0.935107	-0.246199	-0.172106
C100	C	1.435107	0.253801	0.327894
C101	C	0.992229	-0.277145	-0.115011
C102	C	1.492229	0.222855	0.384989
O103	O	0.886593	-0.344164	-0.220619
O104	O	1.386593	0.155836	0.279381
O105	O	1.097906	-0.344170	-0.009371
O106	O	1.597906	0.155830	0.490629
C107	C	1.145813	-0.000061	-0.108885
C108	C	1.645813	0.499939	0.391115
C109	C	1.239059	-0.000063	-0.110547
C110	C	1.739059	0.499937	0.389453
C111	C	0.998367	-0.000059	0.038561
C112	C	1.498367	0.499941	0.538561
C113	C	0.996705	-0.000059	0.131807
C114	C	1.496705	0.499941	0.631807
N115	N	0.992280	0.153202	-0.114973
N116	N	1.492280	0.653202	0.385027
C117	C	0.986120	-0.000046	-0.268577
C118	C	1.486120	0.499954	0.231423
C119	C	0.987782	-0.000042	-0.361823
C120	C	1.487782	0.499958	0.138177
C121	C	0.912801	-0.000046	0.346663
C122	C	1.412801	0.499954	0.846663
C123	C	0.951752	-0.048550	0.407671
C124	C	1.451752	0.451450	0.907671
C125	C	0.993698	-0.000054	0.302533
C126	C	1.493698	0.499946	0.802533
C127	C	0.951793	0.048434	0.407673
C128	C	1.451793	0.548434	0.907673
C129	C	0.990787	-0.000047	0.467445
C130	C	1.490787	0.499953	0.967445
C131	C	1.032671	-0.048599	0.362312
C132	C	1.532671	0.451401	0.862312
C133	C	1.032701	0.048429	0.362308
C134	C	1.532701	0.548429	0.862308
C135	C	1.071711	-0.000087	0.423298
C136	C	1.571711	0.499913	0.923298
C137	C	0.995372	-0.000059	0.207530
C138	C	1.495372	0.499941	0.707530
C139	C	0.989119	-0.000047	0.562446
C140	C	1.489119	0.499953	1.062446
H141	H	0.563905	0.000003	0.031573
H142	H	1.063905	0.500003	0.531573
H143	H	0.888605	-0.271413	-0.218593
H144	H	1.388605	0.228587	0.281407
N145	N	1.160728	-0.000130	0.467235
N146	N	1.660728	0.499870	0.967235
H147	H	1.170059	0.036503	0.503339
H148	H	1.670059	0.536503	1.003339
H149	H	1.202037	-0.000519	0.423670
H150	H	1.702037	0.499481	0.923670
H151	H	0.449463	0.089452	-0.040294
H152	H	0.949463	0.589452	0.459706
N153	N	0.442954	-0.102855	-0.029233
N154	N	0.942954	0.397145	0.470767
H155	H	0.402901	-0.127159	-0.069002
H156	H	0.902901	0.372841	0.430998
H157	H	0.413796	-0.090440	0.020973
H158	H	0.913796	0.409560	0.520973
H159	H	1.095901	-0.841032	-0.011412
H160	H	1.595901	-0.341032	0.488588
N161	N	0.906416	-0.102864	0.434289
N162	N	1.406416	0.397136	0.934289
H163	H	0.856216	-0.090491	0.463488
H164	H	1.356216	0.409509	0.963488
H165	H	0.946240	-0.127142	0.474309
H166	H	1.446240	0.372858	0.974309
H167	H	1.066849	-0.089650	0.342314
H168	H	1.566849	0.410350	0.842314
N169	N	1.110940	-0.150857	0.003607
N170	N	1.610940	0.349143	0.503607
H171	H	1.147119	-0.179863	0.039770
H172	H	1.647119	0.320137	0.539770
H173	H	1.078785	-0.125165	0.040762
H174	H	1.578785	0.374835	0.540762
N175	N	0.541401	0.102875	-0.200716
N176	N	1.041401	0.602875	0.299284
H177	H	0.604645	0.102553	-0.201534
H178	H	1.104645	0.602553	0.298466
H179	H	0.524463	0.139432	-0.170358
H180	H	1.024463	0.639432	0.329642
H181	H	1.066898	0.089434	0.342185
H182	H	1.566898	0.589434	0.842185
N183	N	0.873565	-0.849241	-0.233622
N184	N	1.373565	-0.349241	0.266378
H185	H	0.883234	-0.838468	-0.293246
H186	H	1.383234	-0.338468	0.206754
H187	H	0.813984	-0.838450	-0.223831
H188	H	1.313984	-0.338450	0.276169
H189	H	1.095849	-0.271367	-0.011447
H190	H	1.595849	0.228633	0.488553
N191	N	1.168072	-0.435677	0.060729
N192	N	1.668072	0.064323	0.560729
H193	H	1.204248	-0.464687	0.096888
H194	H	1.704248	0.035313	0.596888
H195	H	1.135915	-0.409989	0.097886
H196	H	1.635915	0.090011	0.597886
H197	H	0.888598	-0.159075	-0.218596
H198	H	1.388598	0.340925	0.281404
N199	N	0.410006	0.000020	-0.283495
N200	N	0.910006	0.500020	0.216505
H201	H	0.426484	0.036673	-0.313925
H202	H	0.926484	0.536673	0.186075
H203	H	0.346878	-0.000350	-0.281819
H204	H	0.846878	0.499650	0.218181
N205	N	1.168095	-0.564360	0.060733
N206	N	1.668095	-0.064360	0.560733
H207	H	1.136022	-0.590054	0.097961
H208	H	1.636022	-0.090054	0.597961
H209	H	1.204252	-0.535297	0.096821
H210	H	1.704252	-0.035297	0.596821
N211	N	0.541557	-0.102842	-0.200784
N212	N	1.041557	0.397158	0.299216
H213	H	0.525238	-0.139464	-0.170185
H214	H	1.025238	0.360536	0.329815
H215	H	0.604735	-0.102191	-0.202057
H216	H	1.104735	0.397809	0.297943
H217	H	1.095897	-0.728694	-0.011415
H218	H	1.595897	-0.228694	0.488585
H219	H	0.917576	0.089444	0.427758
H220	H	1.417576	0.589444	0.927758
H221	H	0.888641	-0.728731	-0.218543
H222	H	1.388641	-0.228731	0.281457
H223	H	0.831494	-0.556226	-0.275621
H224	H	1.331494	-0.056226	0.224379
H225	H	0.831481	-0.443904	-0.275621
H226	H	1.331481	0.056096	0.224379
N227	N	0.823857	-0.000097	0.302542
N228	N	1.323857	0.499903	0.802542
H229	H	0.793400	-0.036767	0.318914
H230	H	1.293400	0.463233	0.818914
H231	H	0.825673	0.000301	0.239434
H232	H	1.325673	0.500301	0.739434
