data_functionalizedCrystal
_audit_creation_method	'MofGen! by Chris Wilmer'
_symmetry_space_group_name_H-M	'P1'
_symmetry_Int_Tables_number	1
_symmetry_cell_setting	triclinic
loop_
_symmetry_equiv_pos_as_xyz
  x,y,z
_cell_length_a	6.817900
_cell_length_b	7.190334
_cell_length_c	16.305597
_cell_angle_alpha	89.328684
_cell_angle_beta	103.455834
_cell_angle_gamma	60.611776
loop_
_atom_site_label
_atom_site_type_symbol
_atom_site_fract_x
_atom_site_fract_y
_atom_site_fract_z
V1	V	-4.223035	0.665724	-0.115369
O2	O	-4.206725	0.652298	0.006928
O3	O	-4.173293	0.661894	-0.230089
O4	O	-4.260197	0.955738	-0.112987
O5	O	-4.119219	0.356420	-0.110984
V6	V	-4.695749	0.628640	-0.100813
O7	O	-4.508002	0.747068	-0.147300
O8	O	-4.860980	0.547296	-0.068882
O9	O	-4.522285	0.632470	0.013907
O10	O	-4.829456	0.642066	-0.223111
O11	O	-4.916962	0.937944	-0.105198
O12	O	-4.435380	0.338626	-0.103195
C13	C	-4.015199	0.651579	-0.258075
C14	C	-4.056386	0.650381	-0.351856
C15	C	-4.126065	1.026403	-0.108695
C16	C	-4.239821	1.267953	-0.107483
C17	C	-4.206257	0.646131	-0.692623
C18	C	-3.967093	0.634485	-0.651816
C19	C	-3.923674	0.634885	-0.554216
C20	C	-4.131903	0.648241	-0.523564
C21	C	-4.156115	0.449513	-0.549335
C22	C	-4.197485	0.448043	-0.646870
C23	C	-4.406318	0.855935	-0.671377
C24	C	-4.360575	0.859614	-0.573857
C25	C	-4.089890	0.649427	-0.428020
C26	C	-4.248269	0.644931	-0.788167
C27	C	-4.343719	0.642779	0.041888
C28	C	-4.281774	0.643991	0.135669
H29	H	-3.963063	0.775918	-0.682009
C30	C	-3.538037	0.488387	-0.459391
C31	C	-3.691939	0.430026	-0.508137
H32	H	-3.394968	0.361904	-0.430948
H33	H	-3.606051	0.572227	-0.418492
H34	H	-3.508689	0.570580	-0.495680
H35	H	-3.721301	0.347846	-0.471847
H36	H	-3.623911	0.346150	-0.549041
C37	C	-4.410001	0.263872	-0.644290
C38	C	-4.426928	0.447845	-0.683123
H39	H	-4.551636	0.263738	-0.666674
H40	H	-4.383206	0.264794	-0.584505
H41	H	-4.283701	0.138315	-0.655367
H42	H	-4.553218	0.573404	-0.672040
H43	H	-4.453750	0.446943	-0.742921
C44	C	-3.831264	0.111791	-0.560897
C45	C	-3.934278	0.238303	-0.501722
H46	H	-3.694286	-0.018591	-0.531510
H47	H	-3.790790	0.188794	-0.594804
H48	H	-3.938846	0.079343	-0.596498
H49	H	-3.826701	0.270764	-0.466124
H50	H	-3.974744	0.161284	-0.467800
C51	C	-4.308196	1.065007	-0.464616
C52	C	-4.339826	1.058133	-0.552277
H53	H	-4.295393	1.187568	-0.451292
H54	H	-4.169365	0.937666	-0.434016
H55	H	-4.438406	1.074486	-0.449095
H56	H	-4.209607	1.048638	-0.567797
H57	H	-4.478672	1.185506	-0.582887
H58	H	-4.519452	0.881703	-0.553978
C59	C	-4.793960	1.060083	-0.766112
C60	C	-4.643613	0.870280	-0.707785
H61	H	-4.940451	1.068934	-0.788586
H62	H	-4.726963	1.058788	-0.811223
H63	H	-4.816459	1.181254	-0.738076
H64	H	-4.621101	0.749108	-0.735823
H65	H	-4.710625	0.871557	-0.662666
C66	C	-3.799881	0.435742	-0.758728
C67	C	-3.764900	0.430182	-0.670434
H68	H	-3.675068	0.309595	-0.770217
H69	H	-3.804539	0.559789	-0.782248
H70	H	-3.943748	0.441576	-0.783595
H71	H	-3.621041	0.424364	-0.645567
H72	H	-3.760218	0.306101	-0.646904
H73	H	-3.899425	0.776891	-0.537012
H74	H	-4.051831	0.290196	-0.658689
H75	H	-4.423193	1.006644	-0.703584
H76	H	-4.306784	0.451682	-0.529478
