data_functionalizedCrystal
_audit_creation_method	'MofGen! by Chris Wilmer'
_symmetry_space_group_name_H-M	'P1'
_symmetry_Int_Tables_number	1
_symmetry_cell_setting	triclinic
loop_
_symmetry_equiv_pos_as_xyz
  x,y,z
_cell_length_a	23.532407
_cell_length_b	14.853579
_cell_length_c	13.330367
_cell_angle_alpha	90.005712
_cell_angle_beta	89.998492
_cell_angle_gamma	83.244241
loop_
_atom_site_label
_atom_site_type_symbol
_atom_site_fract_x
_atom_site_fract_y
_atom_site_fract_z
O1	O	-0.755743	-0.109424	0.083297
O2	O	-0.589949	-0.125259	0.083326
O3	O	-0.677271	0.013936	0.083306
O4	O	-0.668421	-0.248619	0.083317
O5	O	-0.677258	0.013914	-0.083541
O6	O	-0.589936	-0.125281	-0.083521
O7	O	-0.755730	-0.109447	-0.083550
Cu8	Cu	-0.672832	-0.117366	-0.098770
Cu9	Cu	-0.672847	-0.117340	0.098546
O10	O	-0.668408	-0.248641	-0.083530
C11	C	-0.568725	-0.124867	-0.000094
C12	C	-0.505502	-0.123655	-0.000083
C13	C	-0.676862	0.047509	-0.000117
C14	C	-0.675657	0.147579	-0.000114
C15	C	-0.776954	-0.109839	-0.000128
C16	C	-0.840177	-0.111051	-0.000133
C17	C	-0.106728	-0.198423	-0.000125
C18	C	-0.047322	-0.197297	-0.000131
O19	O	-0.010882	-0.266608	-0.000165
N20	N	-0.024333	-0.114546	-0.000133
C21	C	-0.060752	-0.032915	-0.000139
O22	O	-0.035743	0.037574	-0.000142
C23	C	-0.120156	-0.034042	-0.000140
C24	C	-0.143142	-0.116799	-0.000128
C25	C	-0.129714	-0.281173	-0.000114
C26	C	-0.189115	-0.282299	-0.000106
C27	C	-0.225530	-0.200675	-0.000109
C28	C	-0.202543	-0.117925	-0.000120
C29	C	-0.156574	0.047587	-0.000153
C30	C	-0.215981	0.046453	-0.000154
C31	C	-0.238967	-0.036304	-0.000142
C32	C	-0.298359	-0.037427	-0.000114
N33	N	-0.321348	-0.120178	-0.000113
C34	C	-0.284934	-0.201802	-0.000110
C35	C	0.064001	-0.030554	-0.000138
C36	C	0.123404	-0.029426	-0.000130
C37	C	0.136829	-0.193808	-0.000124
C38	C	0.077425	-0.194936	-0.000125
C39	C	0.041011	-0.113306	-0.000137
C40	C	-0.409681	-0.204160	-0.000092
C41	C	-0.469088	-0.205279	-0.000080
C42	C	-0.482508	-0.040897	-0.000091
C43	C	-0.423106	-0.039778	-0.000098
C44	C	-0.386694	-0.121417	-0.000102
O45	O	-0.334834	0.031848	-0.000085
O46	O	-0.309951	-0.272280	-0.000120
N47	N	-0.672825	-0.117384	-0.237552
C48	C	-0.675097	0.194600	0.090839
C49	C	-0.675089	0.194589	-0.091064
C50	C	-0.673960	0.288610	-0.091065
C51	C	-0.673400	0.335631	-0.000112
C52	C	-0.673969	0.288630	0.090841
C53	C	-0.673396	0.335619	-0.182016
C54	C	-0.672267	0.429647	-0.182020
C55	C	-0.671703	0.476669	-0.091066
C56	C	-0.672272	0.429662	-0.000110
C57	C	-0.671712	0.476683	0.090843
C58	C	-0.672277	0.429677	0.181801
C59	C	-0.673405	0.335652	0.181795
C60	C	-0.670575	0.570693	-0.091061
C61	C	-0.670584	0.570713	0.090845
C62	C	-0.668815	0.717785	-0.000107
C63	C	-0.670015	0.617714	-0.000108
C64	C	-0.707438	-0.171724	-0.710168
C65	C	-0.638274	-0.062919	-0.710149
C66	C	-0.638266	-0.062933	-0.605131
C67	C	-0.672845	-0.117342	-0.552626
C68	C	-0.707432	-0.171738	-0.605140
C69	C	-0.603684	-0.008531	-0.552609
C70	C	-0.603675	-0.008542	-0.447584
C71	C	-0.638251	-0.062957	-0.395078
C72	C	-0.672839	-0.117356	-0.447598
C73	C	-0.707417	-0.171766	-0.395093
C74	C	-0.742003	-0.226170	-0.447612
C75	C	-0.742008	-0.226153	-0.552633
C76	C	-0.638246	-0.062974	-0.290056
C77	C	-0.707411	-0.171779	-0.290065
N78	N	-0.672859	-0.117314	0.237327
H79	H	-0.487799	-0.272672	-0.000069
F80	F	0.147860	0.058654	-0.000120
H81	H	-0.770159	-0.270466	-0.404849
H82	H	0.034355	0.035923	-0.000139
H83	H	-0.735594	-0.216021	-0.752933
H84	H	-0.380040	-0.270638	-0.000098
F85	F	-0.673996	0.285573	-0.278807
H86	H	-0.137870	0.114976	-0.000163
H87	H	-0.575537	0.035774	-0.595366
F88	F	0.175595	-0.280681	-0.000126
H89	H	-0.673867	0.297372	0.255848
H90	H	-0.770166	-0.270444	-0.595403
F91	F	-0.566859	0.049346	-0.391700
H92	H	-0.610089	-0.018677	-0.247300
F93	F	-0.675706	0.144575	0.187638
H94	H	-0.671807	0.467911	-0.256084
F95	F	-0.744212	-0.229696	-0.234194
H96	H	-0.245627	0.112927	-0.000164
F97	F	-0.675689	0.144545	-0.187856
H98	H	-0.404390	0.027609	-0.000093
F99	F	-0.601477	-0.005013	-0.766031
H100	H	-0.207825	-0.349688	-0.000096
H101	H	-0.100071	-0.347645	-0.000115
F102	F	-0.521273	0.045968	-0.000095
F103	F	-0.669984	0.620748	0.187652
F104	F	0.052967	-0.283015	-0.000115
F105	F	-0.671687	0.479732	0.278596
H106	H	-0.670117	0.608962	-0.165117
