data_functionalizedCrystal
_audit_creation_method	'MofGen! by Chris Wilmer'
_symmetry_space_group_name_H-M	'P1'
_symmetry_Int_Tables_number	1
_symmetry_cell_setting	triclinic
loop_
_symmetry_equiv_pos_as_xyz
  x,y,z
_cell_length_a	16.992694
_cell_length_b	19.188930
_cell_length_c	16.053802
_cell_angle_alpha	92.551696
_cell_angle_beta	87.249047
_cell_angle_gamma	86.906503
loop_
_atom_site_label
_atom_site_type_symbol
_atom_site_fract_x
_atom_site_fract_y
_atom_site_fract_z
O1	O	1.043197	0.145267	-0.069340
O2	O	0.814918	0.143642	-0.069364
O3	O	0.935644	0.043185	-0.069335
O4	O	0.922471	0.245724	-0.069369
O5	O	0.928999	0.048690	0.069522
O6	O	0.808273	0.149147	0.069493
O7	O	1.036552	0.150772	0.069517
Zn8	Zn	0.921357	0.150834	0.091552
Zn9	Zn	0.930113	0.143581	-0.091399
O10	O	0.915826	0.251229	0.069488
C11	C	0.782390	0.144306	0.000061
C12	C	0.695368	0.138072	0.000053
C13	C	0.644922	0.198212	0.000043
C14	C	0.563155	0.192351	0.000056
C15	C	0.531836	0.126351	0.000072
C16	C	0.582288	0.066208	0.000084
C17	C	0.664054	0.072069	0.000077
C18	C	0.288320	0.102059	0.000098
C19	C	0.206548	0.096203	0.000102
C20	C	0.187420	0.222347	0.000076
C21	C	0.269188	0.228202	0.000064
C22	C	0.319633	0.168059	0.000081
N23	N	0.448257	0.120359	0.000082
N24	N	0.403210	0.174051	0.000076
C25	C	0.931895	0.019902	0.000096
C26	C	0.930614	-0.057677	0.000103
C27	C	1.001452	-0.098456	0.000114
C28	C	1.000250	-0.171350	0.000101
C29	C	0.928204	-0.203463	0.000093
C30	C	0.857356	-0.162676	0.000076
C31	C	0.858561	-0.089783	0.000081
N32	N	0.870872	-0.312817	0.047342
N33	N	0.869732	-0.382063	0.047339
C34	C	0.924569	-0.423085	0.000075
N35	N	0.980600	-0.392247	-0.047175
N36	N	0.981742	-0.322995	-0.047168
C37	C	0.926889	-0.282503	0.000086
C38	C	0.994108	-0.542905	0.000071
C39	C	0.992903	-0.615801	0.000052
C40	C	0.850007	-0.607124	0.000036
C41	C	0.851215	-0.534230	0.000046
C42	C	0.923267	-0.502125	0.000068
C43	C	1.069080	0.150109	0.000090
C44	C	1.156102	0.156342	0.000093
C45	C	0.919575	0.274513	0.000055
C46	C	0.920856	0.352091	0.000043
N47	N	0.915388	0.155784	0.216410
N48	N	0.936088	0.138625	-0.216258
C49	C	0.966776	0.113057	0.260117
C50	C	0.962607	0.116526	0.347523
C51	C	0.907054	0.162727	0.391220
C52	C	0.855661	0.205456	0.347508
C53	C	0.859826	0.201983	0.260104
C54	C	0.888860	0.177881	0.652626
C55	C	0.884700	0.181353	0.740036
C56	C	0.991646	0.092421	0.740045
C57	C	0.995810	0.088955	0.652639
C58	C	0.944414	0.131681	0.608934
N59	N	0.902794	0.166276	0.480563
N60	N	0.948671	0.128128	0.519593
H61	H	1.060123	-0.072320	0.000129
H62	H	1.033489	0.057635	0.775637
H63	H	1.057937	-0.204558	0.000107
H64	H	0.798696	-0.188827	0.000068
H65	H	0.839460	0.218978	0.775611
H66	H	0.791346	-0.633270	0.000025
H67	H	0.181053	0.042455	0.000114
C68	C	0.843696	0.295067	0.625705
C69	C	0.832373	0.224855	0.604596
H70	H	0.808824	0.324068	0.596048
H71	H	0.833270	0.303738	0.684007
H72	H	0.896672	0.305014	0.611361
H73	H	0.779398	0.214906	0.618946
H74	H	0.842793	0.216180	0.546281
H75	H	0.705127	0.023097	0.000084
C76	C	1.077871	-0.705614	-0.071331
C77	C	1.070777	-0.660625	0.000059
H78	H	1.125951	-0.733283	-0.071328
H79	H	1.034797	-0.735168	-0.071337
H80	H	1.077688	-0.678897	-0.119742
H81	H	1.070954	-0.687342	0.048471
H82	H	1.113862	-0.631067	0.000073
C83	C	0.709852	-0.532978	0.000042
C84	C	0.773345	-0.489401	0.000049
H85	H	0.661777	-0.505301	0.000047
H86	H	0.714668	-0.563498	-0.048381
H87	H	0.710044	-0.559680	0.048465
H88	H	0.773156	-0.462702	-0.048378
H89	H	0.768527	-0.458869	0.048476
H90	H	1.004451	0.081734	0.383108
H91	H	1.012016	0.075438	0.224544
C92	C	0.717196	-0.088530	0.000065
C93	C	0.780690	-0.044954	0.000077
H94	H	0.669121	-0.060852	0.000069
H95	H	0.722013	-0.119049	-0.048358
H96	H	0.717385	-0.115234	0.048487
H97	H	0.780503	-0.018254	-0.048348
H98	H	0.775870	-0.014424	0.048506
H99	H	1.052778	-0.516763	0.000085
C100	C	1.101095	0.001391	0.661430
C101	C	1.056871	0.038165	0.604609
H102	H	1.138789	-0.029966	0.631777
H103	H	1.127567	0.033390	0.695506
H104	H	1.066918	-0.024201	0.695536
H105	H	1.091047	0.063760	0.570507
H106	H	1.030397	0.006161	0.570519
C107	C	0.801796	0.250275	0.481487
C108	C	0.794597	0.256244	0.395539
H109	H	0.764101	0.281634	0.511136
H110	H	0.792759	0.203782	0.495824
H111	H	0.853408	0.261372	0.495790
H112	H	0.742986	0.245141	0.381234
H113	H	0.803628	0.302747	0.381196
H114	H	0.556782	0.012469	0.000109
H115	H	0.817980	0.236775	0.224519
C116	C	0.422147	0.055025	0.000098
C117	C	0.343764	0.035950	0.000104
H118	H	0.456377	0.014209	0.000104
H119	H	0.433924	0.079978	-0.048324
H120	H	0.429301	0.083817	0.048521
H121	H	0.336608	0.007163	-0.048323
H122	H	0.331984	0.010987	0.048531
C123	C	0.617793	0.322310	0.000027
C124	C	0.679343	0.270762	0.000028
H125	H	0.639043	0.367100	0.000025
H126	H	0.588611	0.315481	-0.048390
H127	H	0.583989	0.319313	0.048456
H128	H	0.713144	0.273756	-0.048404
H129	H	0.708538	0.277593	0.048450
C130	C	0.463512	0.256104	-0.071341
C131	C	0.507705	0.258459	0.000036
H132	H	0.429278	0.296917	-0.071349
H133	H	0.498118	0.253844	-0.119756
H134	H	0.433158	0.215957	-0.071315
H135	H	0.538064	0.298603	0.000008
H136	H	0.473096	0.260726	0.048464
H137	H	0.294682	0.281946	0.000042
H138	H	0.146339	0.271312	0.000064
