data_functionalizedCrystal
_audit_creation_method	'MofGen! by Chris Wilmer'
_symmetry_space_group_name_H-M	'P1'
_symmetry_Int_Tables_number	1
_symmetry_cell_setting	triclinic
loop_
_symmetry_equiv_pos_as_xyz
  x,y,z
_cell_length_a	14.519709
_cell_length_b	14.519709
_cell_length_c	12.996460
_cell_angle_alpha	90.004595
_cell_angle_beta	90.007122
_cell_angle_gamma	96.319855
loop_
_atom_site_label
_atom_site_type_symbol
_atom_site_fract_x
_atom_site_fract_y
_atom_site_fract_z
O1	O	0.120894	-1.223863	0.085435
O2	O	0.454227	-0.890529	0.418768
O3	O	0.787560	-0.557196	0.752102
O4	O	0.135130	-0.955386	0.085467
O5	O	0.468464	-0.622052	0.418800
O6	O	0.801797	-0.288719	0.752134
O7	O	-0.006227	-1.096742	0.085441
O8	O	0.327107	-0.763409	0.418774
O9	O	0.660440	-0.430076	0.752108
O10	O	0.262250	-1.082506	0.085461
O11	O	0.595584	-0.749173	0.418794
O12	O	0.928917	-0.415839	0.752128
O13	O	-0.006236	-1.096740	-0.085693
O14	O	0.327098	-0.763407	0.247640
O15	O	0.660431	-0.430073	0.580974
O16	O	0.135121	-0.955383	-0.085667
O17	O	0.468454	-0.622050	0.247666
O18	O	0.801788	-0.288717	0.581000
O19	O	0.120884	-1.223860	-0.085699
O20	O	0.454218	-0.890527	0.247635
O21	O	0.787551	-0.557194	0.580968
Cu22	Cu	0.128002	-1.089622	-0.101309
Cu23	Cu	0.461335	-0.756288	0.232025
Cu24	Cu	0.794668	-0.422955	0.565358
Cu25	Cu	0.128013	-1.089624	0.101077
Cu26	Cu	0.461346	-0.756291	0.434410
Cu27	Cu	0.794679	-0.422958	0.767744
O28	O	0.262241	-1.082503	-0.085673
O29	O	0.595574	-0.749170	0.247661
O30	O	0.928908	-0.415837	0.580994
C31	C	0.134462	-0.921025	-0.000096
C32	C	0.467795	-0.587691	0.333237
C33	C	0.801129	-0.254358	0.666571
C34	C	0.132474	-0.818643	-0.000084
C35	C	0.465807	-0.485310	0.333249
C36	C	0.799141	-0.151977	0.666582
C37	C	-0.040591	-1.096078	-0.000126
C38	C	0.292742	-0.762744	0.333207
C39	C	0.626076	-0.429411	0.666541
C40	C	-0.142972	-1.094090	-0.000126
C41	C	0.190361	-0.760756	0.333207
C42	C	0.523694	-0.427423	0.666540
N43	N	0.128014	-1.089627	0.243424
N44	N	0.461347	-0.756294	0.576757
N45	N	0.794680	-0.422960	0.910091
C46	C	-0.517868	-1.086770	-0.000099
C47	C	-0.184535	-0.753437	0.333234
C48	C	0.148799	-0.420103	0.666568
C49	C	-0.413560	-1.088803	-0.000107
C50	C	-0.080227	-0.755469	0.333226
C51	C	0.253107	-0.422136	0.666560
C52	C	-0.330423	-1.090430	-0.000114
C53	C	0.002910	-0.757096	0.333220
C54	C	0.336243	-0.423763	0.666553
C55	C	-0.226109	-1.092463	-0.000120
C56	C	0.107224	-0.759129	0.333214
C57	C	0.440558	-0.425796	0.666547
C58	C	0.296605	-1.083168	-0.000103
C59	C	0.629939	-0.749835	0.333230
C60	C	0.963272	-0.416502	0.666563
C61	C	0.398987	-1.085156	-0.000096
C62	C	0.732320	-0.751823	0.333237
C63	C	1.065653	-0.418490	0.666570
C64	C	0.121553	-1.258221	-0.000134
C65	C	0.454886	-0.924888	0.333200
C66	C	0.788219	-0.591554	0.666533
C67	C	0.123541	-1.360602	-0.000139
C68	C	0.456874	-1.027269	0.333195
C69	C	0.790207	-0.693936	0.666528
C70	C	0.125154	-0.443748	-0.000132
C71	C	0.458488	-0.110414	0.333202
C72	C	0.791821	0.222919	0.666535
C73	C	0.127187	-0.548056	-0.000118
C74	C	0.460520	-0.214722	0.333215
C75	C	0.793854	0.118611	0.666549
C76	C	0.128814	-0.631192	-0.000107
C77	C	0.462147	-0.297859	0.333226
C78	C	0.795481	0.035474	0.666560
C79	C	0.130847	-0.735507	-0.000095
C80	C	0.464180	-0.402173	0.333238
C81	C	0.797514	-0.068840	0.666571
N82	N	0.127993	-1.089626	-0.243656
N83	N	0.461327	-0.756293	0.089678
N84	N	0.794660	-0.422960	0.423011
C85	C	0.128005	-1.089622	0.663238
C86	C	0.461338	-0.756289	0.996572
C87	C	0.794671	-0.422956	1.329905
C88	C	0.128010	-1.089620	0.546433
C89	C	0.461343	-0.756287	0.879766
C90	C	0.794677	-0.422954	1.213100
C91	C	0.128009	-1.089624	0.453335
C92	C	0.461342	-0.756291	0.786668
C93	C	0.794675	-0.422957	1.120001
C94	C	0.128015	-1.089623	0.336522
C95	C	0.461348	-0.756290	0.669856
C96	C	0.794682	-0.422957	1.003189
