data_functionalizedCrystal
_audit_creation_method	'MofGen! by Chris Wilmer'
_symmetry_space_group_name_H-M	'P1'
_symmetry_Int_Tables_number	1
_symmetry_cell_setting	triclinic
loop_
_symmetry_equiv_pos_as_xyz
  x,y,z
_cell_length_a	6.817900
_cell_length_b	16.256275
_cell_length_c	17.110486
_cell_angle_alpha	96.309745
_cell_angle_beta	99.060439
_cell_angle_gamma	103.500333
loop_
_atom_site_label
_atom_site_type_symbol
_atom_site_fract_x
_atom_site_fract_y
_atom_site_fract_z
V1	V	-3.976952	-0.116841	-0.247001
O2	O	-3.965371	0.005874	-0.242009
O3	O	-3.928851	-0.231926	-0.245590
O4	O	-3.906809	-0.114930	-0.354600
O5	O	-3.987565	-0.111932	-0.132246
V6	V	-4.463359	-0.102177	-0.233242
O7	O	-4.231885	-0.149010	-0.277184
O8	O	-4.658623	-0.070008	-0.203059
O9	O	-4.288253	0.012908	-0.234652
O10	O	-4.592337	-0.224892	-0.238233
O11	O	-4.570142	-0.107086	-0.347997
O12	O	-4.310295	-0.104088	-0.125643
C13	C	-3.774628	-0.259985	-0.241766
C14	C	-3.816442	-0.354068	-0.241330
C15	C	-4.106770	-0.585887	-0.244391
C16	C	-4.060268	-0.650793	-0.307634
C17	C	-3.892907	-0.526317	-0.240517
C18	C	-4.013899	-0.629051	-0.176513
C19	C	-3.966781	-0.692701	-0.239729
C20	C	-3.845872	-0.589993	-0.303820
C21	C	-3.799507	-0.568237	-0.172641
C22	C	-3.752860	-0.633117	-0.235896
C23	C	-3.850355	-0.430467	-0.240972
C24	C	-4.009319	-0.788550	-0.239280
C25	C	-3.746510	-0.110744	-0.380817
C26	C	-3.770446	-0.109943	-0.468781
C27	C	-3.962989	-0.113791	-0.514148
C28	C	-3.985467	-0.113037	-0.596800
C29	C	-3.815403	-0.108443	-0.634083
C30	C	-3.622843	-0.104592	-0.588710
C31	C	-3.600365	-0.105340	-0.506059
C32	C	-3.874201	-0.105970	-0.883432
C33	C	-3.896697	-0.105226	-0.966089
C34	C	-4.259319	-0.113670	-0.974173
C35	C	-4.236826	-0.114421	-0.891521
C36	C	-4.044267	-0.110566	-0.846154
C37	C	-3.838376	-0.107676	-0.718567
C38	C	-4.021293	-0.111328	-0.761672
C39	C	-4.105819	0.040963	-0.238475
C40	C	-4.043242	0.135044	-0.238916
C41	C	-4.133937	-0.108277	-0.099422
C42	C	-4.089240	-0.109074	-0.011457
H43	H	-3.774543	-0.572663	-0.357684
H44	H	-3.603493	-0.653848	-0.232319
H45	H	-4.170891	-0.686623	-0.364703
Br46	Br	-4.355442	-0.551093	-0.250515
Br47	Br	-3.615220	-0.508486	-0.077519
H48	H	-4.375314	-0.118162	-0.861171
Br49	Br	-4.133048	-0.658134	-0.086844
H50	H	-3.699915	-0.103938	-0.748933
H51	H	-4.101481	-0.117538	-0.483799
Br52	Br	-4.246791	-0.118269	-0.658368
Br53	Br	-4.520636	-0.118899	-1.035746
Br54	Br	-3.665880	-0.098993	-1.016689
H55	H	-3.717426	-0.102861	-0.846509
H56	H	-3.484373	-0.100846	-0.619072
Br57	Br	-3.339041	-0.100106	-0.444486
H58	H	-4.159756	-0.115066	-0.731311
