data_functionalizedCrystal
_audit_creation_method	'MofGen! by Chris Wilmer'
_symmetry_space_group_name_H-M	'P1'
_symmetry_Int_Tables_number	1
_symmetry_cell_setting	triclinic
loop_
_symmetry_equiv_pos_as_xyz
  x,y,z
_cell_length_a	27.731993
_cell_length_b	27.732048
_cell_length_c	11.804365
_cell_angle_alpha	101.725897
_cell_angle_beta	78.265632
_cell_angle_gamma	82.631525
loop_
_atom_site_label
_atom_site_type_symbol
_atom_site_fract_x
_atom_site_fract_y
_atom_site_fract_z
O1	O	0.650752	0.047588	-0.098712
O2	O	0.509962	0.056353	-0.098787
O3	O	0.584727	-0.018425	-0.098724
O4	O	0.575987	0.122366	-0.098774
O5	O	0.565045	0.001242	0.099315
O6	O	0.490279	0.076020	0.099253
O7	O	0.631069	0.067254	0.099328
Cu8	Cu	0.558877	0.073433	0.117373
Cu9	Cu	0.582154	0.050175	-0.116832
O10	O	0.556304	0.142032	0.099265
C11	C	0.482114	0.066006	0.000224
C12	C	0.428461	0.065461	0.000197
C13	C	0.574702	-0.026598	0.000299
C14	C	0.574149	-0.080252	0.000308
C15	C	0.056024	0.050816	-0.107696
C16	C	0.257684	0.052879	-0.107729
O17	O	0.292882	0.044010	-0.199539
N18	N	0.272176	0.063858	0.000220
C19	C	0.236249	0.074318	0.108185
O20	O	0.253203	0.083698	0.200001
C21	C	0.034590	0.072251	0.108217
C22	C	0.020101	0.061276	0.000261
C23	C	0.041534	0.039842	-0.215643
C24	C	-0.008879	0.039328	-0.215633
C25	C	-0.044801	0.049789	-0.107677
C26	C	-0.030312	0.060763	0.000270
C27	C	-0.001336	0.082707	0.216180
C28	C	-0.051753	0.082188	0.216179
C29	C	-0.066242	0.071214	0.108223
C30	C	-0.116647	0.070711	0.108236
N31	N	-0.131139	0.059732	0.000287
C32	C	-0.095216	0.049272	-0.107669
C33	C	0.342123	0.075404	0.108161
C34	C	0.392538	0.075921	0.108153
C35	C	0.413970	0.054482	-0.107761
C36	C	0.363554	0.053968	-0.107752
C37	C	0.327632	0.064425	0.000212
C38	C	-0.201087	0.048195	-0.107641
C39	C	-0.251505	0.047685	-0.107623
C40	C	-0.272933	0.069122	0.108291
C41	C	-0.222519	0.069635	0.108273
C42	C	-0.186596	0.059169	0.000297
O43	O	-0.151871	0.079570	0.199999
O44	O	-0.112178	0.039882	-0.199472
C45	C	0.106436	0.051329	-0.107705
C46	C	0.120926	0.062303	0.000242
C47	C	0.085003	0.072764	0.108199
C48	C	0.171340	0.062820	0.000235
C49	C	0.207263	0.052360	-0.107722
C50	C	0.192772	0.041381	-0.215671
C51	C	0.142359	0.040868	-0.215661
C52	C	0.099495	0.083742	0.216147
C53	C	0.149908	0.084255	0.216129
C54	C	0.185831	0.073794	0.108173
C55	C	0.614857	-0.419079	0.000269
C56	C	0.612808	-0.620740	0.000251
O57	O	0.650033	-0.652006	0.000218
N58	N	0.568474	-0.639857	0.000229
C59	C	0.524650	-0.608556	0.000203
O60	O	0.486895	-0.629445	0.000171
C61	C	0.526700	-0.406897	0.000212
C62	C	0.571036	-0.387782	0.000246
C63	C	0.659190	-0.399963	0.000302
C64	C	0.659701	-0.349550	0.000313
C65	C	0.615880	-0.318253	0.000290
C66	C	0.571547	-0.337369	0.000257
C67	C	0.482877	-0.375598	0.000178
C68	C	0.483394	-0.325181	0.000177
C69	C	0.527730	-0.306066	0.000211
C70	C	0.528237	-0.255659	0.000246
N71	N	0.572572	-0.236542	0.000268
C72	C	0.616393	-0.267839	0.000291
C73	C	0.523576	-0.714430	0.000200
C74	C	0.523063	-0.764845	0.000200
C75	C	0.611222	-0.777025	0.000246
C76	C	0.611733	-0.726609	0.000255
C77	C	0.567910	-0.695313	0.000223
C78	C	0.617463	-0.161967	0.000314
C79	C	0.617970	-0.111549	0.000330
C80	C	0.529812	-0.099374	0.000278
C81	C	0.529304	-0.149787	0.000269
C82	C	0.573134	-0.181084	0.000283
O83	O	0.491034	-0.224366	0.000265
O84	O	0.654145	-0.246943	0.000296
C85	C	0.614346	-0.469492	0.000258
C86	C	0.570014	-0.488608	0.000225
C87	C	0.526193	-0.457311	0.000202
C88	C	0.569501	-0.539022	0.000224
C89	C	0.613322	-0.570319	0.000247
C90	C	0.657656	-0.551202	0.000269
C91	C	0.658167	-0.500789	0.000280
C92	C	0.481858	-0.476428	0.000180
C93	C	0.481351	-0.526841	0.000170
C94	C	0.525172	-0.558138	0.000193
C95	C	0.658917	0.057602	0.000314
C96	C	0.712572	0.058146	0.000334
C97	C	0.566330	0.150205	0.000240
C98	C	0.566884	0.203858	0.000222
N99	N	0.542509	0.089791	0.282100
N100	N	0.598526	0.033813	-0.281559
C101	C	0.637833	-0.005478	0.656128
C102	C	0.650215	-0.017855	0.531476
C103	C	0.623289	0.009055	0.469126
C104	C	0.583980	0.048345	0.531440
C105	C	0.571599	0.060725	0.656103
C106	C	0.557056	0.075259	0.469101
C107	C	0.517746	0.114548	0.531415
C108	C	0.505367	0.126927	0.656066
C109	C	0.532293	0.100016	0.718416
C110	C	0.569436	0.062878	0.344438
C111	C	0.503203	0.129082	0.344413
C112	C	0.490821	0.141458	0.469064
H113	H	-0.263298	0.038749	-0.195537
H114	H	0.481278	0.150995	0.293648
H115	H	0.487888	-0.688953	0.000175
H116	H	0.693336	-0.576692	0.000292
Br117	Br	0.169563	0.099155	0.362656
Br118	Br	0.412193	0.090828	0.254670
H119	H	-0.171844	0.039673	-0.195566
Br120	Br	0.674377	-0.041990	0.740745
H121	H	0.473363	0.158922	0.706802
H122	H	0.070250	0.092258	0.304061
H123	H	-0.020670	0.030390	-0.303542
Br124	Br	0.515484	0.116812	0.887594
H125	H	0.443227	0.045966	-0.195663
H126	H	0.654074	-0.095988	0.000361
H127	H	0.070779	0.031321	-0.303559
H128	H	0.633373	-0.001024	0.367629
H129	H	0.351762	0.045031	-0.195659
Br130	Br	0.293377	0.089604	0.254698
H131	H	-0.210724	0.078581	0.196179
H132	H	0.682221	-0.049843	0.480746
Br133	Br	-0.321695	0.083321	0.254796
H134	H	0.222029	0.032866	-0.303573
Br135	Br	0.719878	-0.323619	0.000326
Br136	Br	0.670693	-0.819509	0.000273
H137	H	0.010451	0.091642	0.304090
H138	H	-0.081000	0.090709	0.304098
H139	H	0.445243	-0.542399	0.000153
Br140	Br	0.422704	-0.401528	0.000126
H141	H	0.130568	0.031931	-0.303570
Br142	Br	0.622783	0.009559	0.259885
H143	H	0.653154	-0.187444	0.000321
Br144	Br	0.718670	-0.442429	0.000331
Br145	Br	0.671905	-0.700672	0.000304
H146	H	0.486958	-0.780402	0.000193
H147	H	0.447707	-0.299702	0.000149
Br148	Br	0.470343	-0.056890	0.000249
Br149	Br	0.469131	-0.175728	0.000249
H150	H	0.694270	-0.485230	0.000307
Br151	Br	0.437472	0.194778	0.553644
H152	H	0.446173	-0.450950	0.000159
