data_functionalizedCrystal
_audit_creation_method	'MofGen! by Chris Wilmer'
_symmetry_space_group_name_H-M	'P1'
_symmetry_Int_Tables_number	1
_symmetry_cell_setting	triclinic
loop_
_symmetry_equiv_pos_as_xyz
  x,y,z
_cell_length_a	16.992694
_cell_length_b	19.288865
_cell_length_c	17.766277
_cell_angle_alpha	90.011603
_cell_angle_beta	89.996404
_cell_angle_gamma	93.097764
loop_
_atom_site_label
_atom_site_type_symbol
_atom_site_fract_x
_atom_site_fract_y
_atom_site_fract_z
O1	O	1.039877	-0.147253	-0.062515
O2	O	0.811597	-0.145638	-0.062537
O3	O	0.932333	-0.045700	-0.062510
O4	O	0.919141	-0.247191	-0.062541
O5	O	0.932312	-0.045693	0.062678
O6	O	0.811576	-0.145631	0.062652
O7	O	1.039855	-0.147247	0.062674
Cu8	Cu	0.925714	-0.146438	0.074094
Cu9	Cu	0.925739	-0.146446	-0.073956
O10	O	0.919119	-0.247185	0.062647
C11	C	0.782381	-0.143556	0.000055
C12	C	0.695359	-0.137355	0.000047
N13	N	0.925702	-0.146433	0.178224
C14	C	0.931898	-0.019795	0.000086
C15	C	0.930624	0.057383	0.000093
C16	C	0.644907	-0.197184	0.000039
C17	C	0.563141	-0.191353	0.000050
C18	C	0.531829	-0.125694	0.000064
C19	C	0.582287	-0.065862	0.000075
C20	C	0.664051	-0.071693	0.000069
C21	C	0.288316	-0.101527	0.000088
C22	C	0.206545	-0.095701	0.000092
C23	C	0.187405	-0.221193	0.000068
C24	C	0.269172	-0.227018	0.000057
C25	C	0.319623	-0.167186	0.000072
N26	N	0.448251	-0.119733	0.000074
N27	N	0.403199	-0.173147	0.000069
C28	C	1.069071	-0.149328	0.000080
C29	C	1.156093	-0.155529	0.000083
C30	C	0.919555	-0.273089	0.000049
C31	C	0.920829	-0.350267	0.000038
C32	C	1.001466	0.097950	0.000103
C33	C	1.000269	0.170467	0.000091
C34	C	0.928225	0.202413	0.000084
C35	C	0.857374	0.161837	0.000069
C36	C	0.858573	0.089321	0.000074
C37	C	0.871583	0.314004	0.043929
C38	C	0.870387	0.386518	0.043929
C39	C	0.924524	0.426075	0.000067
C40	C	0.979870	0.393109	-0.043787
C41	C	0.981069	0.320594	-0.043782
C42	C	0.926917	0.281044	0.000079
C43	C	0.994073	0.545274	0.000063
C44	C	0.992873	0.617792	0.000046
C45	C	0.849976	0.609160	0.000032
C46	C	0.851178	0.536643	0.000041
C47	C	0.923229	0.504705	0.000060
N48	N	0.925757	-0.146447	-0.178087
C49	C	0.979181	-0.102204	0.217622
C50	C	0.979185	-0.102201	0.296424
C51	C	0.925718	-0.146439	0.335824
C52	C	0.872229	-0.190671	0.296416
C53	C	0.872221	-0.190667	0.217616
C54	C	0.915223	-0.209115	0.460652
C55	C	0.915237	-0.209120	0.539451
C56	C	0.925739	-0.146449	0.578871
C57	C	0.936244	-0.083771	0.539482
C58	C	0.936236	-0.083768	0.460682
C59	C	0.925721	-0.146447	0.421270
C60	C	0.979226	-0.102213	0.703715
C61	C	0.979225	-0.102209	0.782519
C62	C	0.872273	-0.190685	0.782509
C63	C	0.872270	-0.190683	0.703707
C64	C	0.925751	-0.146448	0.664315
H65	H	0.670395	-0.250650	0.000026
Cl66	Cl	1.084649	0.505119	0.000092
Cl67	Cl	0.167183	-0.013151	0.000127
H68	H	0.146320	-0.269905	0.000057
H69	H	1.023953	0.425315	-0.079504
H70	H	0.294660	-0.280485	0.000037
Cl71	Cl	0.351730	-0.026308	0.000106
Cl72	Cl	0.804986	-0.246274	0.168083
H73	H	0.522066	-0.240072	0.000042
Cl74	Cl	0.800813	0.427953	0.099061
H75	H	1.022772	-0.066189	0.814598
H76	H	0.556786	-0.012400	0.000098
H77	H	1.022726	-0.066184	0.185552
Cl78	Cl	0.805010	-0.246281	0.345946
H79	H	0.705129	-0.022974	0.000076
H80	H	1.060135	0.071951	0.000116
Cl81	Cl	0.805051	-0.246293	0.832035
H82	H	1.057959	0.203504	0.000097
H83	H	0.827497	0.281802	0.079652
Cl84	Cl	0.805040	-0.246291	0.654173
Cl85	Cl	1.050639	0.279153	-0.098914
Cl86	Cl	1.081941	0.668792	0.000055
Cl87	Cl	0.766805	0.201997	0.000054
Cl88	Cl	0.759405	0.649314	0.000018
H89	H	0.793490	0.503612	0.000037
H90	H	0.800883	0.056291	0.000065
H91	H	1.022736	-0.066184	0.328509
H92	H	0.906688	-0.260155	0.571515
H93	H	0.944788	-0.032734	0.428615
H94	H	0.944796	-0.032739	0.571576
H95	H	1.022771	-0.066192	0.671641
H96	H	0.906658	-0.260152	0.428563
