data_functionalizedCrystal
_audit_creation_method	'MofGen! by Chris Wilmer'
_symmetry_space_group_name_H-M	'P1'
_symmetry_Int_Tables_number	1
_symmetry_cell_setting	triclinic
loop_
_symmetry_equiv_pos_as_xyz
  x,y,z
_cell_length_a	11.169417
_cell_length_b	17.077402
_cell_length_c	17.077396
_cell_angle_alpha	89.970216
_cell_angle_beta	90.016250
_cell_angle_gamma	89.976238
loop_
_atom_site_label
_atom_site_type_symbol
_atom_site_fract_x
_atom_site_fract_y
_atom_site_fract_z
Zn1	Zn	1.834815	0.312490	0.443768
Zn2	Zn	2.334815	0.812490	0.943768
Zn3	Zn	1.834673	0.443765	0.312499
Zn4	Zn	2.334673	0.943765	0.812499
Zn5	Zn	1.634114	0.312519	0.312523
Zn6	Zn	2.134114	0.812519	0.812523
Zn7	Zn	1.634065	0.443720	0.443730
Zn8	Zn	2.134065	0.943720	0.943730
O9	O	1.734417	0.378123	0.378130
O10	O	2.234417	0.878123	0.878130
O11	O	2.002746	0.329910	0.426360
O12	O	2.502746	0.829910	0.926360
O13	O	1.808030	0.426386	0.202655
O14	O	2.308030	0.926386	0.702655
O15	O	1.660817	0.202668	0.329959
O16	O	2.160817	0.702668	0.829959
O17	O	2.002642	0.426357	0.329917
O18	O	2.502642	0.926357	0.829917
O19	O	1.808272	0.202647	0.426384
O20	O	2.308272	0.702647	0.926384
O21	O	1.660679	0.329960	0.202673
O22	O	2.160679	0.829960	0.702673
O23	O	1.466158	0.329916	0.329922
O24	O	1.966158	0.829916	0.829922
O25	O	1.660734	0.426281	0.553582
O26	O	2.160734	0.926281	1.053582
O27	O	1.466122	0.426309	0.426319
O28	O	1.966122	0.926309	0.926319
O29	O	1.808224	0.329867	0.553609
O30	O	2.308224	0.829867	1.053609
O31	O	1.807982	0.553606	0.329881
O32	O	2.307982	1.053606	0.829881
O33	O	1.660596	0.553572	0.426295
O34	O	2.160596	1.053572	0.926295
C35	C	1.734301	0.582071	0.378098
C36	C	2.234301	1.082071	0.878098
C37	C	1.734361	0.669321	0.378111
C38	C	2.234361	1.169321	0.878111
C39	C	1.422592	0.378111	0.378120
C40	C	1.922592	0.878111	0.878120
C41	C	1.289192	0.378125	0.378134
C42	C	1.789192	0.878125	0.878134
C43	C	1.734489	0.378065	0.582874
C44	C	2.234489	0.878065	1.082874
C45	C	1.734520	0.378041	0.670124
C46	C	2.234520	0.878041	1.170124
C47	C	2.047459	0.378136	0.378140
C48	C	2.547459	0.878136	0.878140
C49	C	2.180859	0.378141	0.378145
C50	C	2.680859	0.878141	0.878145
C51	C	1.734566	0.173379	0.378178
C52	C	2.234566	0.673379	0.878178
C53	C	1.734629	0.086129	0.378199
C54	C	2.234629	0.586129	0.878199
C55	C	1.811184	0.710302	0.327962
C56	C	2.311184	1.210302	0.827962
C57	C	1.811242	0.792283	0.327982
C58	C	2.311242	1.292283	0.827982
C59	C	1.734472	0.833280	0.378148
C60	C	2.234472	1.333280	0.878148
C61	C	1.657646	0.792293	0.428303
C62	C	2.157646	1.292293	0.928303
C63	C	1.657594	0.710314	0.428286
C64	C	2.157594	1.210314	0.928286
C65	C	1.657757	0.963163	0.428332
C66	C	2.157757	1.463163	0.928332
C67	C	1.657807	1.045148	0.428348
C68	C	2.157807	1.545148	0.928348
C69	C	1.811405	1.045132	0.328028
C70	C	2.311405	1.545132	0.828028
C71	C	1.811353	0.963153	0.328012
C72	C	2.311353	1.463153	0.828012
C73	C	1.734526	0.922171	0.378166
C74	C	2.234526	1.422171	0.878166
C75	C	1.734414	0.378124	0.174182
C76	C	2.234414	0.878124	0.674182
C77	C	1.734615	0.377928	0.086932
C78	C	2.234615	0.877928	0.586932
C79	C	1.811321	0.327834	0.711130
C80	C	2.311321	0.827834	1.211130
C81	C	1.811336	0.327808	0.793110
C82	C	2.311336	0.827808	1.293110
C83	C	1.734554	0.377993	0.834083
C84	C	2.234554	0.877993	1.334083
C85	C	1.657745	0.428202	0.793072
C86	C	2.157745	0.928202	1.293072
C87	C	1.657725	0.428224	0.711093
C88	C	2.157725	0.928224	1.211093
C89	C	1.657793	0.428155	0.963942
C90	C	2.157793	0.928155	1.463942
C91	C	1.657814	0.428135	1.045926
C92	C	2.157814	0.928135	1.545926
C93	C	1.811404	0.327739	1.045959
C94	C	2.311404	0.827739	1.545959
C95	C	1.811384	0.327760	0.963980
C96	C	2.311384	0.827760	1.463980
C97	C	1.734576	0.377971	0.922974
C98	C	2.234576	0.877971	1.422974
H99	H	1.873694	0.676927	0.287108
H100	H	2.373694	1.176927	0.787108
F101	F	1.893151	0.274301	1.089602
F102	F	2.393151	0.774301	1.589602
H103	H	1.595200	0.929799	0.469176
H104	H	2.095200	1.429799	0.969176
F105	F	1.575947	0.835928	0.481698
F106	F	2.075947	1.335928	0.981698
F107	F	1.893011	0.835894	0.274608
F108	F	2.393011	1.335894	0.774608
H109	H	1.595224	0.469061	0.826438
H110	H	2.095224	0.969061	1.326438
H111	H	1.595289	0.468998	1.079285
H112	H	2.095289	0.968998	1.579285
H113	H	1.595316	1.078526	0.469213
H114	H	2.095316	1.578526	0.969213
H115	H	1.873860	0.929773	0.287159
H116	H	2.373860	1.429773	0.787159
H117	H	1.873965	1.078503	0.287194
H118	H	2.373965	1.578503	0.787194
F119	F	1.576042	0.481593	0.920302
F120	F	2.076042	0.981593	1.420302
F121	F	1.575832	0.666699	0.481664
F122	F	2.075832	1.166699	0.981664
H123	H	1.595174	0.469099	0.677707
H124	H	2.095174	0.969099	1.177707
H125	H	1.873850	0.286969	0.677775
H126	H	2.373850	0.786969	1.177775
F127	F	1.893111	0.274352	0.920375
F128	F	2.393111	0.774352	1.420375
F129	F	1.893120	0.274397	0.836748
F130	F	2.393120	0.774397	1.336748
