data_functionalizedCrystal
_audit_creation_method	'MofGen! by Chris Wilmer'
_symmetry_space_group_name_H-M	'P1'
_symmetry_Int_Tables_number	1
_symmetry_cell_setting	triclinic
loop_
_symmetry_equiv_pos_as_xyz
  x,y,z
_cell_length_a	27.732064
_cell_length_b	26.210047
_cell_length_c	10.540539
_cell_angle_alpha	89.993305
_cell_angle_beta	83.587458
_cell_angle_gamma	90.001329
loop_
_atom_site_label
_atom_site_type_symbol
_atom_site_fract_x
_atom_site_fract_y
_atom_site_fract_z
O1	O	0.641877	0.042336	0.151109
O2	O	0.501230	0.042356	0.174050
O3	O	0.574762	0.042345	-0.022266
O4	O	0.568345	0.042347	0.347425
O5	O	0.574748	-0.042513	-0.022235
O6	O	0.501215	-0.042502	0.174081
O7	O	0.641863	-0.042522	0.151139
Cu8	Cu	0.571538	-0.050260	0.162613
Cu9	Cu	0.571555	0.050094	0.162577
O10	O	0.568330	-0.042511	0.347456
C11	C	0.483213	-0.000070	0.173581
C12	C	0.429549	-0.000062	0.172121
N13	N	0.571530	-0.120844	0.162638
C14	C	0.051683	-0.000092	0.046170
C15	C	0.253377	-0.000078	0.051543
O16	O	0.284014	-0.000098	-0.046191
N17	N	0.273238	-0.000076	0.167955
C18	C	0.242671	-0.000079	0.283032
O19	O	0.264192	-0.000082	0.382170
C20	C	0.040978	-0.000096	0.277657
C21	C	0.021121	-0.000094	0.161238
C22	C	0.031825	-0.000090	-0.070240
C23	C	-0.018595	-0.000091	-0.071582
C24	C	-0.049158	-0.000093	0.043486
C25	C	-0.029300	-0.000095	0.159896
C26	C	0.010413	-0.000104	0.392733
C27	C	-0.040013	-0.000109	0.391379
C28	C	-0.059871	-0.000107	0.274960
C29	C	-0.110283	-0.000097	0.273622
N30	N	-0.130144	-0.000100	0.157210
C31	C	-0.099581	-0.000098	0.042142
C32	C	0.348563	-0.000069	0.285845
C33	C	0.398986	-0.000064	0.287189
C34	C	0.409689	-0.000064	0.055700
C35	C	0.359265	-0.000066	0.054357
C36	C	0.328703	-0.000072	0.169433
C37	C	-0.205468	-0.000099	0.039333
C38	C	-0.255894	-0.000097	0.038001
C39	C	-0.266592	-0.000100	0.269489
C40	C	-0.216171	-0.000099	0.270822
C41	C	-0.185610	-0.000100	0.155733
O42	O	-0.140949	-0.000083	0.371304
O43	O	-0.121111	-0.000107	-0.056982
C44	C	0.102104	-0.000091	0.047512
C45	C	0.121962	-0.000093	0.163922
C46	C	0.091399	-0.000095	0.278990
C47	C	0.172385	-0.000088	0.165266
C48	C	0.202947	-0.000086	0.050198
C49	C	0.183087	-0.000089	-0.066214
C50	C	0.132666	-0.000089	-0.067556
C51	C	0.111260	-0.000092	0.395402
C52	C	0.161681	-0.000091	0.396734
C53	C	0.192243	-0.000089	0.281666
C54	C	0.604112	-0.473363	0.075667
C55	C	0.604122	-0.687022	0.075650
O56	O	0.631806	-0.714648	0.001710
N57	N	0.571557	-0.713738	0.162549
C58	C	0.538985	-0.687036	0.249453
O59	O	0.511283	-0.714663	0.323357
C60	C	0.538972	-0.473379	0.249464
C61	C	0.571543	-0.446665	0.162568
C62	C	0.636679	-0.446650	-0.011223
C63	C	0.636678	-0.393238	-0.011213
C64	C	0.604109	-0.366540	0.075687
C65	C	0.571542	-0.393254	0.162577
C66	C	0.506398	-0.446678	0.336361
C67	C	0.506397	-0.393260	0.336354
C68	C	0.538968	-0.366547	0.249458
C69	C	0.538972	-0.313144	0.249487
N70	N	0.571537	-0.286428	0.162588
C71	C	0.604106	-0.313126	0.075688
C72	C	0.538994	-0.799210	0.249443
C73	C	0.538998	-0.852624	0.249442
C74	C	0.604135	-0.852606	0.075637
C75	C	0.604133	-0.799190	0.075645
C76	C	0.571560	-0.772493	0.162544
C77	C	0.604101	-0.200958	0.075716
C78	C	0.604098	-0.147542	0.075738
C79	C	0.538960	-0.147565	0.249538
C80	C	0.538964	-0.200976	0.249522
C81	C	0.571537	-0.227672	0.162600
O82	O	0.511299	-0.285485	0.323379
O83	O	0.631796	-0.285491	0.001777
C84	C	0.604113	-0.526775	0.075658
C85	C	0.571545	-0.553488	0.162548
C86	C	0.538977	-0.526790	0.249448
C87	C	0.571549	-0.606902	0.162547
C88	C	0.604118	-0.633600	0.075647
C89	C	0.636683	-0.606884	-0.011252
C90	C	0.636682	-0.553473	-0.011243
C91	C	0.506412	-0.553506	0.336347
C92	C	0.506416	-0.606918	0.336331
C93	C	0.538984	-0.633616	0.249431
C94	C	0.659880	-0.000095	0.151609
C95	C	0.713544	-0.000099	0.153069
C96	C	0.574274	-0.000083	-0.069533
C97	C	0.572834	-0.000080	-0.210418
N98	N	0.571567	0.120678	0.162542
C99	C	0.517659	0.000118	-0.391458
C100	C	0.519119	-0.000073	-0.244903
C101	C	0.598676	-0.048542	-0.273177
C102	C	0.596843	-0.048583	-0.419642
C103	C	0.597951	0.047917	-0.420243
C104	C	0.598446	0.048557	-0.273282
C105	C	0.568819	-0.000082	0.394722
C106	C	0.570259	-0.000081	0.535608
H107	H	-0.272059	-0.000094	-0.056806
C108	C	-0.073629	-0.000115	0.517976
N109	N	-0.098948	-0.000117	0.613328
C110	C	0.470582	-0.636297	0.431929
N111	N	0.443590	-0.658423	0.503924
H112	H	0.663204	-0.531726	-0.082002
H113	H	0.415150	-0.000059	0.381989
H114	H	0.580713	-0.084600	-0.229788
H115	H	-0.200002	-0.000100	0.365620
H116	H	0.323683	-0.000074	0.379559
C117	C	0.032244	-0.000114	0.520806
N118	N	0.048686	-0.000126	0.617278
H119	H	0.512468	-0.777476	0.320210
H120	H	0.498630	-0.034864	-0.202248
H121	H	0.479870	-0.371526	0.407117
H122	H	-0.034758	-0.000091	-0.166383
C123	C	0.651356	0.052501	-0.242862
N124	N	0.691210	0.055467	-0.219955
C125	C	0.065437	-0.000086	-0.196836
N126	N	0.090750	-0.000078	-0.292196
H127	H	0.434582	-0.000061	-0.037993
C128	C	0.574472	0.097539	-0.461864
N129	N	0.556781	0.134911	-0.493211
H130	H	0.343101	-0.000064	-0.040442
H131	H	-0.291485	-0.000099	0.363174
H132	H	0.116503	-0.000087	-0.162357
H133	H	0.207980	-0.000084	-0.159906
H134	H	0.577732	-0.084803	-0.447002
C135	C	0.649030	-0.051568	-0.486706
N136	N	0.688337	-0.053820	-0.537212
H137	H	0.496521	-0.034434	-0.420739
H138	H	0.177843	-0.000089	0.491544
H139	H	0.479876	-0.468421	0.407119
H140	H	0.086380	-0.000095	0.489106
C141	C	0.639958	-0.881983	-0.019961
N142	N	0.666936	-0.904113	-0.091968
C143	C	0.639928	-0.118160	-0.019864
N144	N	0.666913	-0.096032	-0.091872
H145	H	0.663203	-0.628630	-0.082006
H146	H	0.638123	-0.050349	-0.252529
C147	C	0.470616	-0.524146	0.432038
N148	N	0.443666	-0.502034	0.504156
H149	H	0.630624	-0.222688	0.004936
H150	H	-0.180591	-0.000100	-0.054384
C151	C	0.572926	0.096992	-0.216924
N152	N	0.553700	0.133473	-0.174479
H153	H	0.636750	0.048237	-0.469147
C154	C	0.491644	0.046857	-0.186171
N155	N	0.470946	0.082204	-0.141939
H156	H	0.512447	-0.222727	0.320293
H157	H	0.663198	-0.371491	-0.081974
C158	C	0.488997	0.047065	-0.428885
N159	N	0.467408	0.082425	-0.457087
H160	H	0.512444	-0.125819	0.320295
H161	H	0.663201	-0.468382	-0.081993
C162	C	0.639960	-0.769811	-0.019955
N163	N	0.666945	-0.747684	-0.091969
C164	C	0.503171	-0.882003	0.345043
N165	N	0.476183	-0.904129	0.417048
