data_functionalizedCrystal
_audit_creation_method	'MofGen! by Chris Wilmer'
_symmetry_space_group_name_H-M	'P1'
_symmetry_Int_Tables_number	1
_symmetry_cell_setting	triclinic
loop_
_symmetry_equiv_pos_as_xyz
  x,y,z
_cell_length_a	8.597226
_cell_length_b	7.681481
_cell_length_c	8.559649
_cell_angle_alpha	85.068589
_cell_angle_beta	77.625969
_cell_angle_gamma	88.165343
loop_
_atom_site_label
_atom_site_type_symbol
_atom_site_fract_x
_atom_site_fract_y
_atom_site_fract_z
O1	O	-2.002628	0.450310	-0.283815
O2	O	-1.502628	0.950310	0.216185
O3	O	-1.551266	0.381821	-0.295110
O4	O	-1.051266	0.881821	0.204890
O5	O	-1.816713	0.422095	-0.058106
O6	O	-1.316713	0.922095	0.441894
O7	O	-1.737181	0.410036	-0.520819
O8	O	-1.237181	0.910036	-0.020819
O9	O	-1.849393	0.134196	-0.028866
O10	O	-1.349393	0.634196	0.471134
O11	O	-1.583946	0.093922	-0.265871
O12	O	-1.083946	0.593922	0.234129
O13	O	-2.035308	0.162410	-0.254575
O14	O	-1.535308	0.662410	0.245425
Zn15	Zn	-1.814816	0.082456	-0.255581
Zn16	Zn	-1.314816	0.582456	0.244419
Zn17	Zn	-1.771759	0.461776	-0.294105
Zn18	Zn	-1.271759	0.961776	0.205895
O19	O	-1.769862	0.122136	-0.491580
O20	O	-1.269862	0.622136	0.008420
C21	C	-1.510357	0.229184	-0.277646
C22	C	-1.010357	0.729184	0.222354
C23	C	-1.339774	0.203301	-0.269151
C24	C	-0.839774	0.703301	0.230849
N25	N	-1.844213	-0.176418	-0.229288
N26	N	-1.344213	0.323582	0.270712
C27	C	-1.076219	0.315043	-0.272035
C28	C	-0.576219	0.815043	0.227965
C29	C	-1.246806	0.340913	-0.280517
C30	C	-0.746806	0.840913	0.219483
C31	C	-1.839080	0.279063	0.015855
C32	C	-1.339080	0.779063	0.515855
C33	C	-1.857019	0.281793	0.192672
C34	C	-1.357019	0.781793	0.692672
N35	N	-1.742375	0.720652	-0.320385
N36	N	-1.242375	1.220652	0.179615
C37	C	-1.747494	0.265173	-0.565541
C38	C	-1.247494	0.765173	-0.065541
C39	C	-1.729554	0.262454	-0.742359
C40	C	-1.229554	0.762454	-0.242359
H41	H	-1.288862	0.065693	-0.252939
H42	H	-0.788862	0.565693	0.247061
Br43	Br	-2.061795	0.312847	0.325422
Br44	Br	-1.561795	0.812847	0.825422
Br45	Br	-1.331653	0.570288	-0.307573
Br46	Br	-0.831653	1.070288	0.192427
Br47	Br	-1.569107	-0.180308	-0.475370
Br48	Br	-1.069107	0.319692	0.024630
H49	H	-1.948185	-0.235849	-0.136312
H50	H	-1.448185	0.264151	0.363688
H51	H	-1.606693	0.243798	0.177985
H52	H	-1.106693	0.743798	0.677985
