data_functionalizedCrystal
_audit_creation_method	'MofGen! by Chris Wilmer'
_symmetry_space_group_name_H-M	'P1'
_symmetry_Int_Tables_number	1
_symmetry_cell_setting	triclinic
loop_
_symmetry_equiv_pos_as_xyz
  x,y,z
_cell_length_a	6.817900
_cell_length_b	10.992421
_cell_length_c	10.992410
_cell_angle_alpha	91.831025
_cell_angle_beta	108.764651
_cell_angle_gamma	108.764763
loop_
_atom_site_label
_atom_site_type_symbol
_atom_site_fract_x
_atom_site_fract_y
_atom_site_fract_z
V1	V	-4.114248	-0.177761	-0.400575
O2	O	-4.072376	0.008542	-0.392968
O3	O	-4.091827	-0.352470	-0.397818
O4	O	-4.091840	-0.175026	-0.575288
O5	O	-4.072363	-0.170129	-0.214270
V6	V	-4.591142	-0.155477	-0.378294
O7	O	-4.390048	-0.226642	-0.449452
O8	O	-4.765539	-0.106595	-0.329417
O9	O	-4.390356	0.019232	-0.381051
O10	O	-4.750411	-0.341780	-0.385901
O11	O	-4.750424	-0.163108	-0.564599
O12	O	-4.390343	-0.158211	-0.203581
C13	C	-3.942307	-0.395060	-0.391494
C14	C	-4.005435	-0.537887	-0.390404
C15	C	-3.873099	-0.733174	-0.381618
C16	C	-3.807017	-0.584530	-0.382242
C17	C	-4.076044	-0.576522	-0.270588
C18	C	-4.140279	-0.725065	-0.269320
C19	C	-4.271785	-0.763647	-0.514935
C20	C	-4.202731	-0.615133	-0.517535
C21	C	-3.942322	-0.168712	-0.617873
C22	C	-4.005457	-0.167632	-0.760702
C23	C	-3.872580	-0.157795	-0.955826
C24	C	-3.807029	-0.159451	-0.807343
C25	C	-4.203473	-0.294312	-0.837793
C26	C	-4.267786	-0.293192	-0.986360
C27	C	-4.145552	-0.047893	-0.948352
C28	C	-4.074843	-0.047293	-0.799340
C29	C	-4.203219	0.061816	-0.387371
C30	C	-4.119331	0.204641	-0.388470
C31	C	-4.203203	-0.164530	-0.160989
C32	C	-4.119306	-0.165603	-0.018159
H33	H	-4.153731	-0.591237	-0.606180
H34	H	-4.216956	-0.045805	-0.766828
H35	H	-4.042638	0.048305	-0.968721
H36	H	-3.755376	-0.066081	-0.974664
H37	H	-3.931589	0.046420	-0.746991
N38	N	-3.727811	-0.758933	-0.267195
N39	N	-3.580950	-0.666810	-0.184104
H40	H	-3.478341	-0.685003	-0.103291
N41	N	-4.263882	-0.825761	-0.628686
N42	N	-4.436743	-0.905525	-0.709850
H43	H	-4.431143	-0.949393	-0.790182
H44	H	-3.847642	-0.242371	-1.003810
N45	N	-4.361347	-0.776377	-0.269112
N46	N	-4.517419	-0.765142	-0.360569
H47	H	-4.673544	-0.801380	-0.360422
N48	N	-3.735294	-0.267024	-0.776211
N49	N	-3.733559	-0.341117	-0.864211
H50	H	-3.682899	-0.417098	-0.842228
N51	N	-4.248267	-0.405007	-1.044384
N52	N	-4.187328	-0.483325	-0.975087
H53	H	-4.173537	-0.562298	-1.016060
H54	H	-4.449788	-0.304208	-1.028990
H55	H	-4.324536	-0.052498	-0.989193
N56	N	-4.258744	-0.538594	-0.272334
N57	N	-4.339137	-0.482529	-0.362116
H58	H	-4.468173	-0.455741	-0.363354
N59	N	-4.497422	-0.815208	-0.522851
N60	N	-4.603682	-0.740890	-0.525340
H61	H	-4.763035	-0.777313	-0.530930
N62	N	-4.001245	-0.747047	-0.149998
N63	N	-3.879091	-0.810451	-0.151714
H64	H	-3.780884	-0.825969	-0.067443
N65	N	-4.392111	-0.307550	-0.801656
N66	N	-4.382689	-0.223567	-0.718481
H67	H	-4.515913	-0.232912	-0.692956
N68	N	-4.146035	-0.406388	-0.805669
N69	N	-3.984717	-0.420626	-0.826921
H70	H	-3.944136	-0.499776	-0.804235
N71	N	-3.735367	-0.552220	-0.489649
N72	N	-3.733926	-0.639553	-0.564670
H73	H	-3.683320	-0.616742	-0.640529
H74	H	-3.658336	-0.532087	-0.290964
N75	N	-3.899670	-0.508473	-0.152524
N76	N	-3.721837	-0.431490	-0.156305
H77	H	-3.597262	-0.383430	-0.072925
H78	H	-3.847276	-0.779594	-0.466700
N79	N	-4.390657	-0.577257	-0.534348
N80	N	-4.465922	-0.530245	-0.633373
H81	H	-4.598648	-0.503493	-0.645240
N82	N	-3.620742	-0.045206	-0.740437
N83	N	-3.444247	-0.055168	-0.668609
H84	H	-3.312664	0.025517	-0.621363
