data_functionalizedCrystal
_audit_creation_method	'MofGen! by Chris Wilmer'
_symmetry_space_group_name_H-M	'P1'
_symmetry_Int_Tables_number	1
_symmetry_cell_setting	triclinic
loop_
_symmetry_equiv_pos_as_xyz
  x,y,z
_cell_length_a	10.489746
_cell_length_b	10.489711
_cell_length_c	9.730223
_cell_angle_alpha	89.999298
_cell_angle_beta	89.999638
_cell_angle_gamma	84.534155
loop_
_atom_site_label
_atom_site_type_symbol
_atom_site_fract_x
_atom_site_fract_y
_atom_site_fract_z
O1	O	1.694028	0.180001	-0.114185
O2	O	1.322832	0.196888	-0.114207
O3	O	1.516896	0.002844	-0.114199
O4	O	1.499964	0.374045	-0.114193
O5	O	1.516884	0.002839	0.114381
O6	O	1.322819	0.196882	0.114373
O7	O	1.694016	0.179996	0.114395
Zn8	Zn	1.508416	0.188438	0.150676
Zn9	Zn	1.508432	0.188445	-0.150488
O10	O	1.499951	0.374039	0.114387
C11	C	1.275294	0.195608	0.000080
C12	C	1.133665	0.191788	0.000071
C13	C	0.980821	0.066063	0.000088
C14	C	1.058202	0.128918	0.112787
C15	C	1.058170	0.128953	-0.112575
C16	C	0.958698	0.247901	0.112897
C17	C	0.958660	0.247918	-0.112566
C18	C	1.035992	0.310861	0.000160
C19	C	1.515619	-0.044691	0.000087
C20	C	1.511817	-0.186322	0.000075
C21	C	1.628522	-0.368706	0.000096
C22	C	1.570220	-0.276566	0.112793
C23	C	1.570201	-0.276585	-0.112569
C24	C	1.446677	-0.346519	0.112891
C25	C	1.446676	-0.346548	-0.112572
C26	C	1.388284	-0.254435	0.000153
C27	C	1.741554	0.181276	0.000105
C28	C	1.883182	0.185095	0.000105
C29	C	1.501229	0.421574	0.000098
C30	C	1.505031	0.563206	0.000101
N31	N	1.508414	0.188433	0.356212
N32	N	1.508444	0.188441	-0.356024
C33	C	1.594375	0.102547	0.428142
C34	C	1.594388	0.102548	0.572025
C35	C	1.422474	0.274331	0.572036
C36	C	1.422456	0.274323	0.428156
H37	H	0.915408	0.298114	0.208285
O38	O	1.677939	0.019259	0.358162
C39	C	1.757224	0.088289	0.274847
H40	H	1.760375	0.188904	0.318194
H41	H	1.717300	0.094607	0.165830
C42	C	1.889634	-0.104331	0.219306
C43	C	1.893513	0.019243	0.272553
H44	H	1.973702	-0.146924	0.217884
H45	H	1.836216	-0.150840	0.275432
H46	H	1.856358	-0.099049	0.128463
H47	H	1.926773	0.013958	0.363399
H48	H	1.946940	0.065749	0.216441
O49	O	1.110117	0.069185	0.226553
C50	C	1.173414	0.156886	0.305115
H51	H	1.132010	0.258637	0.279934
H52	H	1.280014	0.145595	0.279833
C53	C	1.205341	0.005515	0.490024
C54	C	1.154480	0.130488	0.459106
H55	H	1.193668	-0.010770	0.585013
H56	H	1.162701	-0.053573	0.437095
H57	H	1.294171	-0.003878	0.468946
H58	H	1.065650	0.139874	0.480168
H59	H	1.197106	0.189578	0.512043
O60	O	0.906886	0.307995	-0.226195
C61	C	0.936413	0.436338	-0.227155
H62	H	1.025479	0.445512	-0.162132
H63	H	0.852515	0.500462	-0.182894
C64	C	0.852296	0.466247	-0.455691
C65	C	0.961694	0.477514	-0.375838
H66	H	0.867885	0.491651	-0.547406
H67	H	0.832398	0.379782	-0.455044
H68	H	0.782391	0.519685	-0.418791
H69	H	1.031592	0.424065	-0.412729
H70	H	0.981605	0.563972	-0.376495
H71	H	1.664384	0.032610	0.630586
O72	O	0.951278	-0.057393	-0.000036
C73	C	0.880041	-0.080006	-0.118980
H74	H	0.900196	-0.007695	-0.201774
H75	H	0.773537	-0.069516	-0.093212
C76	C	0.894117	-0.305369	-0.070190
C77	C	0.918879	-0.216563	-0.171882
H78	H	0.918068	-0.389606	-0.102820
H79	H	0.942106	-0.290135	0.009949
H80	H	0.805363	-0.296612	-0.048725
H81	H	1.007633	-0.225311	-0.193333
H82	H	0.870905	-0.231802	-0.252026
O83	O	1.339110	0.357721	0.642138
C84	C	1.357537	0.339295	0.784556
H85	H	1.458520	0.292613	0.804194
H86	H	1.284769	0.274611	0.825407
C87	C	1.215525	0.526942	0.834293
C88	C	1.339558	0.469615	0.858414
H89	H	1.204429	0.607327	0.879855
H90	H	1.203106	0.539354	0.738344
H91	H	1.154899	0.473025	0.868336
H92	H	1.400180	0.523524	0.824356
H93	H	1.351987	0.457215	0.954360
H94	H	1.352450	0.344262	0.369587
H95	H	1.060457	0.414441	0.000224
H96	H	1.730023	-0.418394	0.000213
O97	O	1.632630	-0.239812	0.226504
C98	C	1.673722	-0.348606	0.305676
H99	H	1.681754	-0.437169	0.237170
H100	H	1.601452	-0.360761	0.391067
C101	C	1.795519	-0.222622	0.453493
C102	C	1.805394	-0.331395	0.369350
H103	H	1.876737	-0.212004	0.492776
H104	H	1.767831	-0.149323	0.400157
H105	H	1.735289	-0.232764	0.524640
H106	H	1.865610	-0.321244	0.298195
H107	H	1.833095	-0.404691	0.422676
O108	O	1.384310	-0.383043	0.226733
C109	C	1.344346	-0.274222	0.306361
H110	H	1.336782	-0.185478	0.238129
H111	H	1.417068	-0.262895	0.391506
C112	C	1.221965	-0.399529	0.454298
C113	C	1.212664	-0.290533	0.370491
H114	H	1.140740	-0.409591	0.493862
H115	H	1.248893	-0.472845	0.400655
H116	H	1.282572	-0.390076	0.525241
H117	H	1.152071	-0.299994	0.299540
H118	H	1.185723	-0.217218	0.424124
O119	O	1.267070	-0.195470	0.000458
C120	C	1.202445	-0.231160	0.119420
H121	H	1.275362	-0.263789	0.202102
H122	H	1.142281	-0.312903	0.093607
C123	C	1.025065	-0.075574	0.070997
C124	C	1.114623	-0.115639	0.172553
H125	H	0.970888	-0.004319	0.103770
H126	H	1.068601	-0.051531	-0.009153
H127	H	0.974942	-0.143703	0.049496
H128	H	1.164755	-0.047516	0.194040
H129	H	1.071093	-0.139668	0.252708
H130	H	1.622481	-0.245622	-0.207844
H131	H	1.101623	0.078683	-0.207855
H132	H	1.394471	-0.377566	-0.207860
