data_functionalizedCrystal
_audit_creation_method	'MofGen! by Chris Wilmer'
_symmetry_space_group_name_H-M	'P1'
_symmetry_Int_Tables_number	1
_symmetry_cell_setting	triclinic
loop_
_symmetry_equiv_pos_as_xyz
  x,y,z
_cell_length_a	11.169417
_cell_length_b	25.639239
_cell_length_c	11.169417
_cell_angle_alpha	90.014562
_cell_angle_beta	90.000551
_cell_angle_gamma	90.039936
loop_
_atom_site_label
_atom_site_type_symbol
_atom_site_fract_x
_atom_site_fract_y
_atom_site_fract_z
Zn1	Zn	1.834501	-0.208219	0.678474
Zn2	Zn	2.167835	0.125115	1.011807
Zn3	Zn	2.501168	0.458448	1.345141
Zn4	Zn	1.834358	-0.295631	0.477767
Zn5	Zn	2.167691	0.037702	0.811100
Zn6	Zn	2.501024	0.371036	1.144434
Zn7	Zn	1.633854	-0.208213	0.477810
Zn8	Zn	1.967187	0.125120	0.811143
Zn9	Zn	2.300520	0.458453	1.144476
Zn10	Zn	1.633695	-0.295627	0.678413
Zn11	Zn	1.967029	0.037707	1.011746
Zn12	Zn	2.300362	0.371040	1.345079
O13	O	1.734102	-0.251922	0.578116
O14	O	2.067435	0.081411	0.911449
O15	O	2.400769	0.414744	1.244783
O16	O	2.002432	-0.219818	0.651858
O17	O	2.335765	0.113515	0.985191
O18	O	2.669099	0.446849	1.318524
O19	O	1.807767	-0.284034	0.309823
O20	O	2.141100	0.049299	0.643156
O21	O	2.474433	0.382632	0.976490
O22	O	1.660596	-0.135049	0.504472
O23	O	1.993929	0.198285	0.837805
O24	O	2.327263	0.531618	1.171139
O25	O	2.002326	-0.284040	0.504399
O26	O	2.335660	0.049294	0.837732
O27	O	2.668993	0.382627	1.171066
O28	O	1.808011	-0.135053	0.651899
O29	O	2.141344	0.198281	0.985233
O30	O	2.474678	0.531614	1.318566
O31	O	1.660457	-0.219809	0.309854
O32	O	1.993790	0.113524	0.643188
O33	O	2.327124	0.446858	0.976521
O34	O	1.465883	-0.219805	0.504412
O35	O	1.799216	0.113528	0.837746
O36	O	2.132550	0.446862	1.171079
O37	O	1.660327	-0.284032	0.846371
O38	O	1.993660	0.049301	1.179704
O39	O	2.326993	0.382634	1.513037
O40	O	1.465767	-0.284027	0.651794
O41	O	1.799100	0.049306	0.985128
O42	O	2.132433	0.382639	1.318461
O43	O	1.807858	-0.219814	0.846416
O44	O	2.141191	0.113519	1.179749
O45	O	2.474524	0.446853	1.513082
O46	O	1.807613	-0.368796	0.504339
O47	O	2.140947	-0.035462	0.837673
O48	O	2.474280	0.297871	1.171006
O49	O	1.660187	-0.368793	0.651753
O50	O	1.993521	-0.035459	0.985086
O51	O	2.326854	0.297874	1.318420
C52	C	1.422277	-0.251915	0.578102
C53	C	1.755611	0.081418	0.911435
C54	C	2.088944	0.414751	1.244769
C55	C	1.288877	-0.251925	0.578125
C56	C	1.622211	0.081408	0.911458
C57	C	1.955544	0.414742	1.244791
C58	C	1.733900	-0.387765	0.578061
C59	C	2.067233	-0.054432	0.911394
C60	C	2.400567	0.278902	1.244728
C61	C	1.733924	-0.445879	0.578078
C62	C	2.067257	-0.112546	0.911411
C63	C	2.400590	0.220788	1.244744
C64	C	1.811067	-0.806231	0.501488
C65	C	2.144400	-0.472898	0.834822
C66	C	2.477733	-0.139564	1.168155
C67	C	1.811113	-0.860835	0.501504
C68	C	2.144447	-0.527502	0.834838
C69	C	2.477780	-0.194169	1.168171
O70	O	1.876494	-0.889063	0.436325
O71	O	2.209827	-0.555730	0.769659
O72	O	2.543161	-0.222396	1.102992
N73	N	1.734313	-0.888161	0.578195
N74	N	2.067646	-0.554828	0.911529
N75	N	2.400980	-0.221495	1.244862
C76	C	1.657470	-0.860880	0.654884
C77	C	1.990803	-0.527547	0.988217
C78	C	2.324136	-0.194214	1.321551
O79	O	1.592150	-0.889137	0.720118
O80	O	1.925483	-0.555804	1.053451
O81	O	2.258817	-0.222471	1.386784
C82	C	1.657430	-0.806277	0.654873
C83	C	1.990763	-0.472944	0.988206
C84	C	2.324097	-0.139610	1.321540
C85	C	1.734227	-0.778954	0.578168
C86	C	2.067560	-0.445621	0.911502
C87	C	2.400894	-0.112287	1.244835
C88	C	1.887858	-0.778908	0.424791
C89	C	2.221192	-0.445575	0.758124
C90	C	2.554525	-0.112241	1.091458
C91	C	1.887810	-0.724307	0.424774
C92	C	2.221143	-0.390974	0.758107
C93	C	2.554477	-0.057641	1.091440
C94	C	1.810970	-0.697030	0.501454
C95	C	2.144303	-0.363697	0.834787
C96	C	2.477637	-0.030363	1.168120
C97	C	1.734178	-0.724353	0.578151
C98	C	2.067512	-0.391020	0.911484
C99	C	2.400845	-0.057687	1.244818
C100	C	1.580594	-0.778997	0.731567
C101	C	1.913927	-0.445664	1.064900
C102	C	2.247260	-0.112330	1.398233
C103	C	1.580561	-0.724390	0.731550
C104	C	1.913895	-0.391057	1.064883
C105	C	2.247228	-0.057723	1.398216
C106	C	1.657358	-0.697067	0.654845
C107	C	1.990691	-0.363733	0.988179
C108	C	2.324025	-0.030400	1.321512
C109	C	1.657290	-0.642476	0.654814
C110	C	1.990623	-0.309142	0.988147
C111	C	2.323957	0.024191	1.321481
N112	N	1.734091	-0.615149	0.578123
N113	N	2.067424	-0.281816	0.911456
N114	N	2.400757	0.051517	1.244790
C115	C	1.810930	-0.642427	0.501443
C116	C	2.144264	-0.309093	0.834776
C117	C	2.477597	0.024240	1.168110
C118	C	1.657560	-0.975551	0.654902
C119	C	1.990893	-0.642218	0.988236
C120	C	2.324227	-0.308884	1.321569
C121	C	1.657593	-1.030153	0.654908
C122	C	1.990926	-0.696820	0.988241
C123	C	2.324259	-0.363487	1.321575
C124	C	1.811238	-1.030105	0.501530
C125	C	2.144572	-0.696771	0.834863
C126	C	2.477905	-0.363438	1.168197
C127	C	1.811199	-0.975501	0.501519
C128	C	2.144532	-0.642168	0.834852
C129	C	2.477865	-0.308835	1.168186
C130	C	1.734360	-0.948225	0.578211
C131	C	2.067694	-0.614892	0.911545
C132	C	2.401027	-0.281558	1.244878
C133	C	1.810822	-0.527762	0.501412
C134	C	2.144156	-0.194428	0.834745
C135	C	2.477489	0.138905	1.168078
C136	C	1.810764	-0.473156	0.501398
C137	C	2.144097	-0.139823	0.834731
C138	C	2.477430	0.193510	1.168064
C139	C	1.657123	-0.473210	0.654780
C140	C	1.990456	-0.139876	0.988113
C141	C	2.323790	0.193457	1.321446
C142	C	1.657177	-0.527810	0.654790
C143	C	1.990510	-0.194477	0.988123
C144	C	2.323843	0.138856	1.321456
C145	C	1.734036	-0.555085	0.578102
C146	C	2.067369	-0.221752	0.911435
C147	C	2.400703	0.111582	1.244768
O148	O	1.591946	-0.614213	0.719963
O149	O	1.925280	-0.280880	1.053297
O150	O	2.258613	0.052453	1.386630
O151	O	1.876250	-0.614163	0.436231
O152	O	2.209584	-0.280830	0.769564
O153	O	2.542917	0.052503	1.102898
C154	C	2.047144	-0.251930	0.578130
C155	C	2.380478	0.081403	0.911464
C156	C	2.713811	0.414737	1.244797
C157	C	2.180544	-0.251933	0.578137
C158	C	2.513878	0.081400	0.911470
C159	C	2.847211	0.414734	1.244803
C160	C	1.734090	-0.251923	0.891158
C161	C	2.067424	0.081410	1.224492
C162	C	2.400757	0.414743	1.557825
C163	C	1.734086	-0.251924	1.024558
C164	C	2.067419	0.081410	1.357891
C165	C	2.400752	0.414743	1.691225
C166	C	1.734337	-0.115549	0.578197
C167	C	2.067671	0.217784	0.911531
C168	C	2.401004	0.551117	1.244864
C169	C	1.734438	-0.057435	0.578232
C170	C	2.067771	0.275898	0.911565
C171	C	2.401104	0.609231	1.244899
C172	C	1.734099	-0.251931	1.266291
C173	C	2.067433	0.081402	1.599625
C174	C	2.400766	0.414736	1.932958
C175	C	1.734089	-0.251924	1.132891
C176	C	2.067422	0.081409	1.466225
C177	C	2.400755	0.414742	1.799558
H178	H	1.873301	-0.450911	0.438931
H179	H	2.206634	-0.117578	0.772265
H180	H	2.539967	0.215755	1.105598
H181	H	1.594557	-0.450992	0.717208
H182	H	1.927890	-0.117659	1.050542
H183	H	2.261224	0.215675	1.383875
H184	H	1.950348	-0.702064	0.362318
H185	H	2.283681	-0.368731	0.695651
H186	H	2.617015	-0.035397	1.028985
F187	F	1.575841	-1.059227	0.736534
F188	F	1.909175	-0.725893	1.069867
F189	F	2.242508	-0.392560	1.403201
F190	F	1.893017	-1.059145	0.419918
F191	F	2.226351	-0.725811	0.753251
F192	F	2.559684	-0.392478	1.086584
H193	H	1.873734	-0.953258	0.439060
H194	H	2.207067	-0.619925	0.772394
H195	H	2.540401	-0.286591	1.105727
H196	H	1.594979	-0.953345	0.717351
H197	H	1.928312	-0.620012	1.050684
H198	H	2.261646	-0.286679	1.384018
H199	H	1.518051	-0.801234	0.794022
H200	H	1.851385	-0.467901	1.127356
H201	H	2.184718	-0.134567	1.460689
F202	F	1.892624	-0.556782	0.419791
F203	F	2.225958	-0.223448	0.753125
F204	F	2.559291	0.109885	1.086458
F205	F	1.969651	-0.807930	0.343172
F206	F	2.302985	-0.474597	0.676506
F207	F	2.636318	-0.141264	1.009839
H208	H	1.517991	-0.702184	0.794006
H209	H	1.851325	-0.368851	1.127339
H210	H	2.184658	-0.035517	1.460673
H211	H	1.594646	-0.550058	0.717253
H212	H	1.927979	-0.216725	1.050586
H213	H	2.261313	0.116609	1.383919
