data_functionalizedCrystal
_audit_creation_method	'MofGen! by Chris Wilmer'
_symmetry_space_group_name_H-M	'P1'
_symmetry_Int_Tables_number	1
_symmetry_cell_setting	triclinic
loop_
_symmetry_equiv_pos_as_xyz
  x,y,z
_cell_length_a	14.044220
_cell_length_b	17.699083
_cell_length_c	13.101039
_cell_angle_alpha	93.361896
_cell_angle_beta	93.659868
_cell_angle_gamma	91.764054
loop_
_atom_site_label
_atom_site_type_symbol
_atom_site_fract_x
_atom_site_fract_y
_atom_site_fract_z
O1	O	-1.262501	0.178623	-0.085078
O2	O	-0.986549	0.172038	-0.085105
O3	O	-1.132322	0.065679	-0.085101
O4	O	-1.116728	0.284982	-0.085082
O5	O	-1.121863	0.073324	0.085329
O6	O	-0.976090	0.179683	0.085324
O7	O	-1.252042	0.186268	0.085351
Zn8	Zn	-1.112405	0.184189	0.112397
Zn9	Zn	-1.126186	0.174117	-0.112151
O10	O	-1.106269	0.292627	0.085347
C11	C	-0.946012	0.172979	0.000106
C12	C	-0.840807	0.164382	0.000095
C13	C	-1.292580	0.185327	0.000138
C14	C	-1.397785	0.193923	0.000142
C15	C	-1.126534	0.041266	0.000109
C16	C	-1.124859	-0.042869	0.000095
C17	C	-0.648180	0.148668	0.000114
C18	C	-0.590406	0.209634	0.000123
C19	C	-0.483222	0.200891	0.000134
C20	C	-0.755374	0.157411	0.000103
C21	C	-1.112057	0.317041	0.000135
C22	C	-1.113733	0.401175	0.000143
N23	N	-1.103008	0.191064	0.265646
C24	C	-1.028168	0.443893	0.000134
C25	C	-1.029749	0.522945	0.000122
C26	C	-1.116896	0.559277	0.000126
C27	C	-1.202468	0.516553	0.000132
C28	C	-1.200886	0.437502	0.000136
C29	C	-1.208850	0.835355	0.000112
C30	C	-1.210425	0.914412	0.000110
C31	C	-1.037712	0.920797	0.000098
C32	C	-1.036130	0.841747	0.000103
C33	C	-1.121702	0.799030	0.000103
C34	C	-1.119987	0.713313	0.000114
C35	C	-1.118612	0.644993	0.000123
N36	N	-1.135591	0.167237	-0.265399
C37	C	-1.090222	0.200423	0.474688
C38	C	-1.148374	0.157880	0.525565
C39	C	-1.141260	0.163088	0.641883
C40	C	-1.097335	0.195216	0.358359
H41	H	-0.621442	0.268396	0.000123
Cl42	Cl	-0.600266	0.057949	0.000108
H43	H	-1.203503	0.117547	0.481764
H44	H	-0.957201	0.414317	0.000143
Cl45	Cl	-1.005114	0.262695	0.542307
H46	H	-0.960073	0.557722	0.000112
H47	H	-0.965166	0.812169	0.000105
Cl48	Cl	-0.930134	0.974504	0.000092
Cl49	Cl	-1.319990	0.960086	0.000112
H50	H	-1.273425	0.546141	0.000137
Cl51	Cl	-1.316426	0.781664	0.000123
Cl52	Cl	-1.308459	0.383799	0.000140
