data_functionalizedCrystal
_audit_creation_method	'MofGen! by Chris Wilmer'
_symmetry_space_group_name_H-M	'P1'
_symmetry_Int_Tables_number	1
_symmetry_cell_setting	triclinic
loop_
_symmetry_equiv_pos_as_xyz
  x,y,z
_cell_length_a	10.654550
_cell_length_b	16.109301
_cell_length_c	14.586319
_cell_angle_alpha	90.000787
_cell_angle_beta	89.996358
_cell_angle_gamma	96.026794
loop_
_atom_site_label
_atom_site_type_symbol
_atom_site_fract_x
_atom_site_fract_y
_atom_site_fract_z
O1	O	0.161419	-1.104091	-0.076182
O2	O	0.181507	-0.862148	-0.076197
O3	O	-0.011352	-0.988682	-0.076183
O4	O	0.354278	-0.977557	-0.076195
O5	O	-0.011354	-0.988673	0.076298
O6	O	0.181504	-0.862139	0.076284
O7	O	0.161416	-1.104082	0.076299
Cu8	Cu	0.171460	-0.983110	0.090214
Cu9	Cu	0.171463	-0.983120	-0.090112
O10	O	0.354275	-0.977548	0.076285
C11	C	0.180692	-0.831164	0.000042
C12	C	0.178253	-0.738854	0.000037
C13	C	-0.058140	-0.987861	0.000057
C14	C	-0.197550	-0.985417	0.000055
N15	N	0.171457	-0.983108	0.217046
C16	C	-0.278046	-1.059918	0.000059
C17	C	-0.409036	-1.057616	0.000048
C18	C	-0.379020	-0.906306	0.000032
C19	C	-0.248033	-0.908608	0.000037
C20	C	-0.606070	-1.145364	-0.053373
C21	C	-0.686572	-1.219869	-0.053353
C22	C	-0.657317	-1.287407	0.000086
C23	C	-0.547563	-1.280443	0.053528
C24	C	-0.467068	-1.205937	0.053516
C25	C	-0.496322	-1.138402	0.000056
C26	C	-0.050997	-0.820866	0.053465
C27	C	0.029500	-0.746359	0.053460
C28	C	0.000249	-0.678814	0.000026
C29	C	-0.109507	-0.685770	-0.053402
C30	C	-0.190004	-0.760277	-0.053397
C31	C	-0.160745	-0.827822	0.000036
C32	C	0.401063	-0.978369	0.000043
C33	C	0.540473	-0.980813	0.000039
C34	C	0.162231	-1.135066	0.000058
C35	C	0.164671	-1.227376	0.000058
C36	C	0.287019	-0.517228	0.000044
C37	C	0.284717	-0.430494	0.000049
C38	C	0.055896	-0.449008	0.000053
C39	C	0.058199	-0.535741	0.000054
C40	C	0.173764	-0.569848	0.000044
C41	C	0.169159	-0.396382	0.000050
C42	C	0.166662	-0.302341	0.000056
C43	C	0.176262	-0.663895	0.000040
N44	N	0.171457	-0.983128	-0.216944
C45	C	0.086088	-1.039156	0.452058
C46	C	0.086084	-1.039159	0.548040
C47	C	0.256830	-0.927074	0.548037
C48	C	0.256826	-0.927068	0.452058
C49	C	0.171456	-0.983114	0.404071
C50	C	0.171457	-0.983122	0.596031
C51	C	0.171455	-0.983124	0.700099
C52	C	0.171457	-0.983111	0.299997
H53	H	-0.236948	-1.122460	0.000072
C54	C	-0.006747	-1.100034	0.400123
C55	C	-0.081532	-1.149098	0.462697
C56	C	-0.167081	-1.205179	0.414891
H57	H	0.038291	-1.134980	0.362671
H58	H	-0.059106	-1.069844	0.362708
H59	H	-0.029179	-1.179286	0.500096
H60	H	-0.126598	-1.114175	0.500150
H61	H	-0.219440	-1.174989	0.377476
H62	H	-0.122032	-1.240119	0.377441
H63	H	-0.217841	-1.238470	0.457340
H64	H	0.381119	-0.544996	0.000043
H65	H	0.326344	-0.881428	0.412983
C66	C	-0.006745	-1.099873	0.600189
C67	C	-0.083666	-1.055150	0.655278
C68	C	-0.169211	-1.111053	0.703321
H69	H	0.038298	-1.134763	0.637702
H70	H	-0.057658	-1.133236	0.557889
H71	H	-0.032760	-1.021802	0.697573
H72	H	-0.128737	-1.020264	0.617788
H73	H	-0.220124	-1.144416	0.661021
H74	H	-0.124158	-1.145940	0.740829
H75	H	-0.221420	-1.080717	0.740698
H76	H	-0.629892	-1.090378	-0.096901
H77	H	-0.038193	-0.421227	0.000067
C78	C	-0.019317	-0.894130	0.111633
C79	C	-0.012900	-0.870309	0.203968
C80	C	0.016260	-0.937782	0.257577
H81	H	0.059763	-0.910688	0.092975
H82	H	-0.082992	-0.939499	0.104032
H83	H	0.050771	-0.824954	0.211563
H84	H	-0.091967	-0.853759	0.222653
H85	H	-0.047415	-0.983152	0.249976
H86	H	0.095338	-0.954335	0.238911
H87	H	0.020606	-0.921631	0.320232
C88	C	-0.434077	-0.823001	0.000069
C89	C	-0.566020	-0.836928	0.000093
C90	C	-0.616778	-0.760205	0.000143
H91	H	-0.406578	-0.792231	-0.053091
H92	H	-0.406519	-0.792282	0.053263
H93	H	-0.593566	-0.867633	-0.053095
H94	H	-0.593553	-0.867685	0.053250
H95	H	-0.589220	-0.729487	0.053337
H96	H	-0.589270	-0.729442	-0.053018
H97	H	-0.706305	-0.769645	0.000168
C98	C	-0.141468	-0.612406	-0.111295
C99	C	-0.258017	-0.588237	-0.083421
C100	C	-0.287490	-0.520647	-0.136719
H101	H	-0.146007	-0.628346	-0.174002
H102	H	-0.077866	-0.567002	-0.103634
H103	H	-0.321604	-0.633631	-0.091090
H104	H	-0.253509	-0.572282	-0.020722
H105	H	-0.223888	-0.475243	-0.129059
H106	H	-0.292022	-0.536594	-0.199424
H107	H	-0.366565	-0.504235	-0.117809
C108	C	-0.347938	-1.198547	0.111554
C109	C	-0.339531	-1.273646	0.158350
C110	C	-0.229791	-1.266878	0.211810
H111	H	-0.350837	-1.154516	0.154567
H112	H	-0.276292	-1.187057	0.073055
H113	H	-0.411158	-1.285127	0.196847
H114	H	-0.336610	-1.317689	0.115359
H115	H	-0.158145	-1.255388	0.173311
H116	H	-0.232700	-1.222844	0.254818
H117	H	-0.224066	-1.317833	0.243561
C118	C	0.349467	-0.866326	0.600305
C119	C	0.331226	-0.878341	0.694632
C120	C	0.416556	-0.822403	0.742807
H121	H	0.335890	-0.810723	0.584695
H122	H	0.433310	-0.875845	0.584619
H123	H	0.247403	-0.868815	0.710311
H124	H	0.344813	-0.933931	0.710270
H125	H	0.500399	-0.831923	0.727121
H126	H	0.402972	-0.766804	0.727189
H127	H	0.404200	-0.830553	0.806812
C128	C	-0.516065	-1.353791	0.111628
C129	C	-0.613294	-1.374340	0.174825
C130	C	-0.584325	-1.441911	0.228354
H131	H	-0.439233	-1.339066	0.143537
H132	H	-0.507313	-1.400424	0.073156
H133	H	-0.622030	-1.327717	0.213292
H134	H	-0.690135	-1.389080	0.142941
H135	H	-0.575574	-1.488543	0.189882
H136	H	-0.507491	-1.427179	0.260257
H137	H	-0.650294	-1.455867	0.271233
C138	C	-0.805573	-1.227444	-0.111542
C139	C	-0.772858	-1.215086	-0.203874
C140	C	-0.882448	-1.222071	-0.257499
H141	H	-0.858340	-1.186526	-0.092901
H142	H	-0.849332	-1.281496	-0.103937
H143	H	-0.729120	-1.161041	-0.211474
H144	H	-0.720108	-1.256000	-0.222542
H145	H	-0.926206	-1.276123	-0.249894
H146	H	-0.935207	-1.181152	-0.238851
H147	H	-0.860265	-1.213695	-0.320153
H148	H	-0.722871	-1.348071	0.000101
H149	H	-0.279365	-0.765941	-0.096914
H150	H	0.118862	-0.740696	0.096976
H151	H	0.065794	-0.618142	0.000039
H152	H	0.376940	-0.387654	0.000051
H153	H	-0.034032	-0.578586	0.000057
