data_functionalizedCrystal
_audit_creation_method	'MofGen! by Chris Wilmer'
_symmetry_space_group_name_H-M	'P1'
_symmetry_Int_Tables_number	1
_symmetry_cell_setting	triclinic
loop_
_symmetry_equiv_pos_as_xyz
  x,y,z
_cell_length_a	15.995350
_cell_length_b	10.489741
_cell_length_c	14.472310
_cell_angle_alpha	89.999301
_cell_angle_beta	89.990621
_cell_angle_gamma	84.015774
loop_
_atom_site_label
_atom_site_type_symbol
_atom_site_fract_x
_atom_site_fract_y
_atom_site_fract_z
O1	O	1.111988	0.164399	-0.076762
O2	O	0.868335	0.184702	-0.076781
O3	O	0.995706	-0.011125	-0.076766
O4	O	0.984617	0.360226	-0.076777
O5	O	0.995673	-0.011114	0.076916
O6	O	0.868302	0.184713	0.076901
O7	O	1.111955	0.164411	0.076920
Cu8	Cu	0.990125	0.174563	0.090943
Cu9	Cu	0.990164	0.174549	-0.090804
O10	O	0.984584	0.360237	0.076905
C11	C	0.837119	0.183868	0.000058
C12	C	0.744153	0.181352	0.000050
C13	C	0.406351	0.172315	0.000070
C14	C	0.452944	0.032851	0.000417
C15	C	0.549650	0.035368	0.000064
C16	C	0.573939	0.176797	0.000061
C17	C	0.533285	0.245579	-0.087698
C18	C	0.436628	0.242076	-0.087765
C19	C	0.436269	0.244970	0.087001
C20	C	0.533214	0.244937	0.088154
C21	C	0.668651	0.179338	0.000053
C22	C	0.311638	0.169778	0.000072
C23	C	0.994852	-0.058639	0.000075
C24	C	0.992346	-0.200234	0.000073
C25	C	0.911304	-0.267240	0.000060
C26	C	0.949571	-0.359892	0.075836
C27	C	0.949623	-0.359878	-0.075682
C28	C	1.030647	-0.291021	0.075912
C29	C	1.030687	-0.290998	-0.075675
C30	C	1.069013	-0.383624	0.000120
C31	C	1.143171	0.165244	0.000079
C32	C	1.236137	0.167761	0.000080
C33	C	0.985438	0.407752	0.000062
C34	C	0.987944	0.549346	0.000058
N35	N	0.990104	0.174572	0.218774
N36	N	0.990192	0.174531	-0.218635
C37	C	0.990163	0.174544	0.592865
C38	C	0.921777	0.278976	0.553691
C39	C	0.921938	0.279357	0.446603
C40	C	0.990133	0.174558	0.407274
C41	C	1.077673	0.203626	0.446117
C42	C	1.077290	0.204368	0.553238
C43	C	0.971787	0.040735	0.553397
C44	C	0.969789	0.041628	0.446269
C45	C	0.990122	0.174563	0.302386
C46	C	0.990181	0.174542	0.697753
H47	H	0.433029	-0.022644	-0.062167
F48	F	0.395283	0.375906	-0.092974
H49	H	0.856524	0.261942	0.579474
H50	H	0.933757	0.378654	0.420966
F51	F	0.904802	-0.399757	-0.159413
H52	H	0.933437	0.377714	0.580598
H53	H	1.021649	-0.036979	0.578729
H54	H	0.905390	0.019568	0.420883
H55	H	0.561385	0.197797	-0.153007
H56	H	0.418031	0.191907	-0.153364
H57	H	1.093360	0.301954	0.578212
H58	H	1.064894	-0.260664	0.140046
H59	H	0.577193	-0.019074	-0.062951
F60	F	0.409054	0.185379	0.173946
H61	H	0.856894	0.262038	0.420342
H62	H	0.915266	-0.390419	0.139894
F63	F	0.395566	0.379371	0.087774
H64	H	0.577739	-0.018699	0.062974
F65	F	0.824211	-0.201125	0.000148
F66	F	1.156184	-0.449447	0.000179
H67	H	0.548037	0.349484	-0.090963
H68	H	1.064963	-0.260437	-0.139736
F69	F	1.145795	0.108631	0.587111
H70	H	1.129811	0.129587	0.420640
H71	H	1.094107	0.300099	0.419278
H72	H	0.560214	0.194727	0.153077
H73	H	0.909296	0.012784	0.580461
H74	H	1.016301	-0.039726	0.419501
H75	H	0.434072	-0.022892	0.063353
H76	H	0.549200	0.348073	0.093452
