data_functionalizedCrystal
_audit_creation_method	'MofGen! by Chris Wilmer'
_symmetry_space_group_name_H-M	'P1'
_symmetry_Int_Tables_number	1
_symmetry_cell_setting	triclinic
loop_
_symmetry_equiv_pos_as_xyz
  x,y,z
_cell_length_a	9.065218
_cell_length_b	19.288840
_cell_length_c	18.366186
_cell_angle_alpha	89.983729
_cell_angle_beta	90.004668
_cell_angle_gamma	95.929049
loop_
_atom_site_label
_atom_site_type_symbol
_atom_site_fract_x
_atom_site_fract_y
_atom_site_fract_z
O1	O	-0.183855	0.922791	-0.060669
O2	O	-0.208719	0.720721	-0.060644
O3	O	0.018502	0.825933	-0.060655
O4	O	-0.411077	0.817580	-0.060658
O5	O	0.018513	0.825915	0.060445
O6	O	-0.208708	0.720703	0.060456
O7	O	-0.183844	0.922773	0.060430
Zn8	Zn	-0.196274	0.821735	0.079670
Zn9	Zn	-0.196289	0.821759	-0.079884
O10	O	-0.411066	0.817561	0.060441
C11	C	-0.207920	0.694829	-0.000091
C12	C	-0.205537	0.617706	-0.000081
C13	C	-0.204398	0.581504	-0.066094
C14	C	-0.202142	0.509039	-0.066103
C15	C	-0.200996	0.472782	-0.000095
C16	C	-0.202143	0.508993	0.065927
C17	C	-0.204414	0.581455	0.065934
C18	C	-0.110986	0.362748	0.050467
C19	C	-0.108706	0.290287	0.050457
C20	C	-0.194000	0.249284	-0.000114
C21	C	-0.281553	0.280751	-0.050688
C22	C	-0.283824	0.353213	-0.050681
C23	C	-0.198535	0.394209	-0.000095
C24	C	-0.190417	0.134507	-0.066141
C25	C	-0.188171	0.062041	-0.066147
C26	C	-0.188156	0.061996	0.065884
C27	C	-0.190418	0.134460	0.065889
C28	C	-0.191541	0.170712	-0.000126
C29	C	-0.466030	0.818373	-0.000109
C30	C	-0.629788	0.820774	-0.000111
C31	C	0.073466	0.825121	-0.000106
C32	C	0.237225	0.822721	-0.000109
C33	C	-0.184643	0.948665	-0.000124
C34	C	-0.187027	1.025788	-0.000139
N35	N	-0.196263	0.821724	0.188561
N36	N	-0.196288	0.821776	-0.188775
C37	C	-0.095699	0.868327	0.226657
C38	C	-0.095692	0.868332	0.302885
C39	C	-0.196276	0.821739	0.341014
C40	C	-0.296848	0.775127	0.302909
C41	C	-0.296842	0.775119	0.226683
C42	C	-0.330693	0.813485	0.461774
C43	C	-0.330701	0.813497	0.537999
C44	C	-0.196294	0.821759	0.576122
C45	C	-0.061873	0.830023	0.538010
C46	C	-0.061867	0.830016	0.461783
C47	C	-0.196293	0.821742	0.423669
C48	C	-0.095714	0.868370	0.696872
C49	C	-0.095706	0.868370	0.773101
C50	C	-0.296874	0.775168	0.773124
C51	C	-0.296869	0.775165	0.696897
C52	C	-0.196291	0.821770	0.658775
H53	H	-0.037407	0.264673	0.091634
H54	H	-0.351013	0.247367	-0.091865
Cl55	Cl	-0.205817	0.627073	-0.149084
Cl56	Cl	-0.205844	0.626969	0.148929
H57	H	-0.378735	0.737168	0.195665
Cl58	Cl	-0.191843	0.180083	-0.149129
H59	H	-0.378742	0.737190	0.333958
H60	H	-0.041526	0.396128	0.091651
Cl61	Cl	-0.200711	0.463412	0.148908
H62	H	-0.013813	0.906316	0.665832
Cl63	Cl	0.107108	0.840416	0.585926
Cl64	Cl	0.030737	0.926958	0.820996
Cl65	Cl	0.107110	0.840396	0.413874
H66	H	-0.378764	0.737219	0.665877
Cl67	Cl	-0.200709	0.463518	-0.149097
Cl68	Cl	-0.423311	0.716590	0.821053
Cl69	Cl	-0.499685	0.803113	0.585903
H70	H	-0.440150	0.806745	0.430741
H71	H	-0.355117	0.378830	-0.091858
H72	H	-0.013799	0.906274	0.195620
Cl73	Cl	-0.186752	0.016528	-0.149143
H74	H	-0.013798	0.906283	0.333908
H75	H	-0.187232	0.032476	0.119629
Cl76	Cl	-0.191840	0.179975	0.148882
