data_functionalizedCrystal
_audit_creation_method	'MofGen! by Chris Wilmer'
_symmetry_space_group_name_H-M	'P1'
_symmetry_Int_Tables_number	1
_symmetry_cell_setting	triclinic
loop_
_symmetry_equiv_pos_as_xyz
  x,y,z
_cell_length_a	23.532407
_cell_length_b	27.732048
_cell_length_c	22.010155
_cell_angle_alpha	89.999275
_cell_angle_beta	89.996931
_cell_angle_gamma	82.745667
loop_
_atom_site_label
_atom_site_type_symbol
_atom_site_fract_x
_atom_site_fract_y
_atom_site_fract_z
O1	O	0.755138	0.058672	-0.050456
O2	O	1.255138	0.558672	0.449544
O3	O	0.589257	0.067162	-0.050475
O4	O	1.089257	0.567162	0.449525
O5	O	0.677350	-0.007472	-0.050453
O6	O	1.177350	0.492528	0.449547
O7	O	0.667046	0.133306	-0.050477
O8	O	1.167046	0.633306	0.449523
O9	O	0.677334	-0.007461	0.050597
O10	O	1.177334	0.492539	0.550597
O11	O	0.589241	0.067173	0.050576
O12	O	1.089241	0.567173	0.550576
O13	O	0.755122	0.058683	0.050595
O14	O	1.255122	0.558683	0.550595
Cu15	Cu	0.672180	0.062929	0.059812
Cu16	Cu	1.172180	0.562929	0.559812
Cu17	Cu	0.672199	0.062916	-0.059692
Cu18	Cu	1.172199	0.562916	0.440308
O19	O	0.667030	0.133317	0.050573
O20	O	1.167030	0.633317	0.550573
C21	C	0.568033	0.066952	0.000048
C22	C	1.068033	0.566952	0.500048
C23	C	0.504818	0.066302	0.000042
C24	C	1.004818	0.566302	0.500042
C25	C	0.105629	0.106391	0.000062
C26	C	0.605629	0.606391	0.500062
C27	C	0.046230	0.105787	0.000066
C28	C	0.546230	0.605787	0.500066
O29	O	0.009406	0.142951	0.000082
O30	O	0.509406	0.642951	0.500082
N31	N	0.023699	0.061418	0.000073
N32	N	0.523699	0.561418	0.500073
C33	C	0.060570	0.017649	0.000082
C34	C	0.560570	0.517649	0.500082
O35	O	0.035951	-0.020147	0.000088
O36	O	0.535951	0.479853	0.500088
C37	C	0.119967	0.018253	0.000082
C38	C	0.619967	0.518253	0.500082
C39	C	0.142495	0.062626	0.000070
C40	C	0.642495	0.562626	0.500070
C41	C	0.128158	0.150760	0.000050
C42	C	0.628158	0.650760	0.500050
C43	C	0.187552	0.151364	0.000045
C44	C	0.687552	0.651364	0.500045
C45	C	0.224419	0.107599	0.000052
C46	C	0.724419	0.607599	0.500052
C47	C	0.201890	0.063229	0.000065
C48	C	0.701890	0.563229	0.500065
C49	C	0.156837	-0.025515	0.000096
C50	C	0.656837	0.474485	0.500096
C51	C	0.216239	-0.024907	0.000097
C52	C	0.716239	0.475093	0.500097
C53	C	0.238766	0.019466	0.000084
C54	C	0.738766	0.519466	0.500084
C55	C	0.298151	0.020068	0.000067
C56	C	0.798151	0.520068	0.500067
N57	N	0.320683	0.064437	0.000060
N58	N	0.820683	0.564437	0.500060
C59	C	0.283817	0.108203	0.000053
C60	C	0.783817	0.608203	0.500053
C61	C	-0.064170	0.016383	0.000082
C62	C	0.435830	0.516383	0.500082
C63	C	-0.123567	0.015778	0.000077
C64	C	0.376433	0.515778	0.500077
C65	C	-0.137902	0.103917	0.000062
C66	C	0.362098	0.603917	0.500062
C67	C	-0.078505	0.104521	0.000063
C68	C	0.421495	0.604521	0.500063
C69	C	-0.041639	0.060753	0.000075
C70	C	0.458361	0.560753	0.500075
C71	C	0.408551	0.109467	0.000042
C72	C	0.908551	0.609467	0.500042
C73	C	0.467951	0.110067	0.000035
C74	C	0.967951	0.610067	0.500035
C75	C	0.482282	0.021928	0.000052
C76	C	0.982282	0.521928	0.500052
C77	C	0.422886	0.021328	0.000057
C78	C	0.922886	0.521328	0.500057
C79	C	0.386021	0.065102	0.000053
C80	C	0.886021	0.565102	0.500053
O81	O	0.335010	-0.017077	0.000054
O82	O	0.835010	0.482923	0.500054
O83	O	0.308444	0.145992	0.000054
O84	O	0.808444	0.645992	0.500054
C85	C	0.677125	-0.025473	0.000074
C86	C	1.177125	0.474527	0.500074
C87	C	0.676474	-0.079129	0.000079
C88	C	1.176474	0.420871	0.500079
C89	C	0.724431	-0.417871	0.000053
C90	C	1.224431	0.082129	0.500053
C91	C	0.722014	-0.619534	0.000044
C92	C	1.222014	-0.119534	0.500044
O93	O	0.765867	-0.650722	0.000023
O94	O	1.265867	-0.150722	0.500023
N95	N	0.669779	-0.638738	0.000039
N96	N	1.169779	-0.138738	0.500039
C97	C	0.618144	-0.607523	0.000032
C98	C	1.118144	-0.107523	0.500032
O99	O	0.573659	-0.628484	0.000021
O100	O	1.073659	-0.128484	0.500021
C101	C	0.620561	-0.405860	0.000036
C102	C	1.120561	0.094140	0.500036
C103	C	0.672800	-0.386659	0.000048
C104	C	1.172800	0.113341	0.500048
C105	C	0.776665	-0.398669	0.000064
C106	C	1.276665	0.101331	0.500064
C107	C	0.777269	-0.348256	0.000069
C108	C	1.277269	0.151744	0.500069
C109	C	0.725638	-0.317045	0.000064
C110	C	1.225638	0.182955	0.500064
C111	C	0.673403	-0.336247	0.000053
C112	C	1.173403	0.163753	0.500053
C113	C	0.568927	-0.374646	0.000025
C114	C	1.068927	0.125354	0.500025
C115	C	0.569536	-0.324228	0.000024
C116	C	1.069536	0.175772	0.500024
C117	C	0.621775	-0.305027	0.000036
C118	C	1.121775	0.194973	0.500036
C119	C	0.622376	-0.254622	0.000053
C120	C	1.122376	0.245378	0.500053
N121	N	0.674611	-0.235418	0.000059
N122	N	1.174611	0.264582	0.500059
C123	C	0.726242	-0.266630	0.000064
C124	C	1.226242	0.233370	0.500064
C125	C	0.616879	-0.713399	0.000031
C126	C	1.116879	-0.213399	0.500031
C127	C	0.616274	-0.763814	0.000031
C128	C	1.116274	-0.263814	0.500031
C129	C	0.720145	-0.775822	0.000042
C130	C	1.220145	-0.275822	0.500042
C131	C	0.720749	-0.725406	0.000046
C132	C	1.220749	-0.225406	0.500046
C133	C	0.669114	-0.694195	0.000036
C134	C	1.169114	-0.194195	0.500036
C135	C	0.727506	-0.160758	0.000076
C136	C	1.227506	0.339242	0.500076
C137	C	0.728105	-0.110341	0.000084
C138	C	1.228105	0.389659	0.500084
C139	C	0.624235	-0.098337	0.000069
C140	C	1.124235	0.401663	0.500069
C141	C	0.623635	-0.148751	0.000065
C142	C	1.123635	0.351249	0.500065
C143	C	0.675276	-0.179961	0.000066
C144	C	1.175276	0.320039	0.500066
O145	O	0.578547	-0.223406	0.000068
O146	O	1.078547	0.276594	0.500068
O147	O	0.770721	-0.245659	0.000061
O148	O	1.270721	0.254341	0.500061
C149	C	0.723827	-0.468283	0.000047
C150	C	1.223827	0.031717	0.500047
C151	C	0.671593	-0.487485	0.000037
C152	C	1.171593	0.012515	0.500037
C153	C	0.619962	-0.456274	0.000031
C154	C	1.119962	0.043726	0.500031
C155	C	0.670988	-0.537900	0.000037
C156	C	1.170988	-0.037900	0.500037
C157	C	0.722619	-0.569112	0.000042
C158	C	1.222619	-0.069112	0.500042
C159	C	0.774855	-0.549908	0.000047
C160	C	1.274855	-0.049908	0.500047
C161	C	0.775458	-0.499495	0.000053
C162	C	1.275458	0.000505	0.500053
C163	C	0.567727	-0.475478	0.000026
C164	C	1.067727	0.024522	0.500026
C165	C	0.567127	-0.525891	0.000021
C166	C	1.067127	-0.025891	0.500021
C167	C	0.618758	-0.557103	0.000026
C168	C	1.118758	-0.057103	0.500026
C169	C	0.776346	0.058894	0.000070
C170	C	1.276346	0.558894	0.500070
C171	C	0.839562	0.059544	0.000073
C172	C	1.339562	0.559544	0.500073
C173	C	0.667254	0.151319	0.000045
C174	C	1.167254	0.651319	0.500045
C175	C	0.667905	0.204975	0.000036
C176	C	1.167905	0.704975	0.500036
N177	N	0.672171	0.062938	0.143864
N178	N	1.172171	0.562938	0.643864
N179	N	0.672213	0.062903	-0.143744
N180	N	1.172213	0.562903	0.356256
C181	C	0.711209	0.029873	0.563653
C182	C	1.211209	0.529873	1.063653
C183	C	0.711211	0.029869	0.627261
C184	C	1.211211	0.529869	1.127261
O185	O	0.744380	0.001762	0.660160
O186	O	1.244380	0.501762	1.160160
N187	N	0.672199	0.062906	0.659071
N188	N	1.172199	0.562906	1.159071
C189	C	0.633177	0.095945	0.627271
C190	C	1.133177	0.595945	1.127271
O191	O	0.599994	0.124044	0.660169
O192	O	1.099994	0.624044	1.160169
C193	C	0.633172	0.095945	0.563665
C194	C	1.133172	0.595945	1.063665
C195	C	0.672191	0.062910	0.531857
C196	C	1.172191	0.562910	1.031857
C197	C	0.750224	-0.003160	0.531846
C198	C	1.250224	0.496840	1.031846
C199	C	0.750222	-0.003156	0.468243
C200	C	1.250222	0.496844	0.968243
C201	C	0.711205	0.029881	0.436447
C202	C	1.211205	0.529881	0.936447
C203	C	0.672189	0.062914	0.468254
C204	C	1.172189	0.562914	0.968254
C205	C	0.594148	0.128981	0.531866
C206	C	1.094148	0.628981	1.031866
C207	C	0.594147	0.128979	0.468255
C208	C	1.094147	0.628979	0.968255
C209	C	0.633166	0.095943	0.436447
C210	C	1.133166	0.595943	0.936447
C211	C	0.633170	0.095955	0.372855
C212	C	1.133170	0.595955	0.872855
N213	N	0.672182	0.062919	0.341045
N214	N	1.172182	0.562919	0.841045
C215	C	0.711200	0.029881	0.372840
C216	C	1.211200	0.529881	0.872840
C217	C	0.633190	0.095940	0.760849
C218	C	1.133190	0.595940	1.260849
C219	C	0.633197	0.095942	0.824454
C220	C	1.133197	0.595942	1.324454
C221	C	0.711231	0.029866	0.824440
C222	C	1.211231	0.529866	1.324440
C223	C	0.711226	0.029867	0.760833
C224	C	1.211226	0.529867	1.260833
C225	C	0.672202	0.062904	0.729038
C226	C	1.172202	0.562904	1.229038
C227	C	0.711193	0.029893	0.239269
C228	C	1.211193	0.529893	0.739269
C229	C	0.711189	0.029901	0.175660
C230	C	1.211189	0.529901	0.675660
C231	C	0.633153	0.095975	0.175680
C232	C	1.133153	0.595975	0.675680
C233	C	0.633159	0.095969	0.239284
C234	C	1.133159	0.595969	0.739284
C235	C	0.672181	0.062924	0.271076
C236	C	1.172181	0.562924	0.771076
O237	O	0.600017	0.124047	0.339915
O238	O	1.100017	0.624047	0.839915
O239	O	0.744372	0.001783	0.339935
O240	O	1.244372	0.501783	0.839935
H241	H	0.138506	-0.061648	0.000107
H242	H	0.638506	0.438352	0.500107
O243	O	0.372827	0.152032	0.000008
O244	O	0.872827	0.652032	0.500008
C245	C	0.405459	0.191318	0.000010
C246	C	0.905459	0.691318	0.500010
H247	H	0.449901	0.178819	-0.019118
H248	H	0.949901	0.678819	0.480882
H249	H	0.383290	0.221962	-0.029337
H250	H	0.883290	0.721962	0.470663
H251	H	0.409571	0.204941	0.048485
H252	H	0.909571	0.704941	0.548485
H253	H	0.205889	0.187497	0.000035
H254	H	0.705889	0.687497	0.500035
H255	H	0.781993	-0.030058	0.442349
H256	H	1.281993	0.469942	0.942349
O257	O	0.778802	-0.091609	0.000119
O258	O	1.278802	0.408391	0.500119
C259	C	0.768269	-0.040418	0.000107
C260	C	1.268269	0.459582	0.500107
H261	H	0.723717	-0.028370	0.019235
H262	H	1.223717	0.471630	0.519235
H263	H	0.801664	-0.025096	0.029449
H264	H	1.301664	0.474904	0.529449
H265	H	0.770909	-0.026394	-0.048371
H266	H	1.270909	0.473606	0.451629
O267	O	0.092431	0.193322	0.000014
O268	O	0.592431	0.693322	0.500014
C269	C	0.125065	0.232607	0.000020
C270	C	0.625065	0.732607	0.500020
H271	H	0.169509	0.220106	-0.019104
H272	H	0.669509	0.720106	0.480896
H273	H	0.102901	0.263251	-0.029328
H274	H	0.602901	0.763251	0.470672
H275	H	0.129175	0.246229	0.048495
H276	H	0.629175	0.746229	0.548495
O277	O	0.519413	-0.293862	0.000097
O278	O	1.019413	0.206138	0.500097
C279	C	0.516633	-0.264351	0.052441
C280	C	1.016633	0.235649	0.552441
H281	H	0.561810	-0.262009	0.069898
H282	H	1.061810	0.237991	0.569898
H283	H	0.495077	-0.226358	0.040669
H284	H	0.995077	0.273642	0.540669
H285	H	0.490766	-0.280821	0.089081
H286	H	0.990766	0.219179	0.589081
H287	H	-0.060167	0.140653	0.000056
H288	H	0.439833	0.640653	0.500056
H289	H	-0.034156	-0.019261	0.000086
H290	H	0.465844	0.480739	0.500086
O291	O	0.556320	0.161116	0.562782
O292	O	1.056320	0.661116	1.062782
C293	C	0.586543	0.190806	0.599586
C294	C	1.086543	0.690806	1.099586
H295	H	0.631449	0.191435	0.580420
H296	H	1.131449	0.691435	1.080420
H297	H	0.562960	0.229325	0.600305
H298	H	1.062960	0.729325	1.100305
H299	H	0.589660	0.175666	0.647793
H300	H	1.089660	0.675666	1.147793
O301	O	0.517607	-0.445114	0.000104
O302	O	1.017607	0.054886	0.500104
C303	C	0.514832	-0.415604	0.052450
C304	C	1.014832	0.084396	0.552450
H305	H	0.560010	-0.413262	0.069902
H306	H	1.060010	0.086738	0.569902
H307	H	0.493272	-0.377611	0.040683
H308	H	0.993272	0.122389	0.540683
H309	H	0.488969	-0.432077	0.089092
H310	H	0.988969	0.067923	0.589092
H311	H	0.562367	0.155881	0.442371
H312	H	1.062367	0.655881	0.942371
O313	O	0.826189	-0.480823	0.000166
O314	O	1.326189	0.019177	0.500166
C315	C	0.829640	-0.452012	0.052494
C316	C	1.329640	0.047988	0.552494
H317	H	0.799980	-0.463793	0.089071
H318	H	1.299980	0.036207	0.589071
H319	H	0.875578	-0.456758	0.070064
H320	H	1.375578	0.043242	0.570064
H321	H	0.816154	-0.412188	0.040661
H322	H	1.316154	0.087812	0.540661
O323	O	0.574135	-0.067945	0.000037
O324	O	1.074135	0.432055	0.500037
C325	C	0.585876	-0.019332	0.000056
C326	C	1.085876	0.480668	0.500056
H327	H	0.630598	-0.017612	-0.019064
H328	H	1.130598	0.482388	0.480936
H329	H	0.552949	0.003667	-0.029289
H330	H	1.052949	0.503667	0.470711
H331	H	0.583576	-0.004740	0.048535
H332	H	1.083576	0.495260	0.548535
H333	H	0.601392	0.122874	0.265182
H334	H	1.101392	0.622874	0.765182
H335	H	0.742967	0.002984	0.265148
H336	H	1.242967	0.502984	0.765148
H337	H	0.486290	0.146202	0.000024
H338	H	0.986290	0.646202	0.500024
O339	O	0.748982	-0.002266	0.144735
O340	O	1.248982	0.497734	0.644735
C341	C	0.718689	-0.031957	0.108009
C342	C	1.218689	0.468043	0.608009
H343	H	0.673987	-0.012463	0.098445
H344	H	1.173987	0.487537	0.598445
H345	H	0.742526	-0.039792	0.063295
H346	H	1.242526	0.460208	0.563295
H347	H	0.715058	-0.067625	0.132589
H348	H	1.215058	0.432375	0.632589
O349	O	-0.145379	-0.027356	0.000001
O350	O	0.354621	0.472644	0.500001
C351	C	-0.126510	-0.054016	-0.052338
C352	C	0.373490	0.445984	0.447662
H353	H	-0.085425	-0.041044	-0.069791
H354	H	0.414575	0.458956	0.430209
H355	H	-0.117913	-0.094309	-0.040561
H356	H	0.382087	0.405691	0.459439
H357	H	-0.160934	-0.048255	-0.088983
H358	H	0.339066	0.451745	0.411017
O359	O	0.251968	-0.067470	0.000078
O360	O	0.751968	0.432530	0.500078
C361	C	0.219342	-0.106759	0.000105
C362	C	0.719342	0.393241	0.500105
H363	H	0.174900	-0.094270	-0.019025
H364	H	0.674900	0.405730	0.480975
H365	H	0.241515	-0.137411	-0.029229
H366	H	0.741515	0.362589	0.470771
H367	H	0.215229	-0.120367	0.048587
H368	H	0.715229	0.379633	0.548587
H369	H	0.404543	-0.014804	0.000058
H370	H	0.904543	0.485196	0.500058
O371	O	-0.173697	0.146445	-0.000047
O372	O	0.326303	0.646445	0.499953
C373	C	-0.163537	0.173406	-0.052378
C374	C	0.336463	0.673406	0.447622
H375	H	-0.143011	0.147787	-0.088956
H376	H	0.356989	0.647787	0.411044
H377	H	-0.205854	0.192994	-0.069944
H378	H	0.294146	0.692994	0.430056
H379	H	-0.133534	0.201239	-0.040550
H380	H	0.366466	0.701239	0.459450
H381	H	0.781997	-0.030065	0.557728
H382	H	1.281997	0.469935	1.057728
H383	H	0.512309	-0.013704	0.000056
H384	H	1.012309	0.486296	0.500056
O385	O	0.749147	-0.002272	0.730032
O386	O	1.249147	0.497728	1.230032
C387	C	0.783594	-0.031420	0.771744
C388	C	1.283594	0.468580	1.271744
H389	H	0.760252	-0.031862	0.817087
H390	H	1.260252	0.468138	1.317087
H391	H	0.792625	-0.070063	0.753371
H392	H	1.292625	0.429937	1.253371
H393	H	0.825761	-0.015905	0.778502
H394	H	1.325761	0.484095	1.278502
O395	O	0.777721	-0.191002	0.000106
O396	O	1.277721	0.308998	0.500106
C397	C	0.823947	-0.163234	0.000102
C398	C	1.323947	0.336766	0.500102
H399	H	0.809141	-0.125538	0.019233
H400	H	1.309141	0.374462	0.519233
H401	H	0.860092	-0.181997	0.029446
H402	H	1.360092	0.318003	0.529446
H403	H	0.839990	-0.159715	-0.048373
H404	H	1.339990	0.340285	0.451627
O405	O	0.828064	-0.329688	0.000048
O406	O	1.328064	0.170312	0.500048
C407	C	0.873499	-0.368055	0.000066
C408	C	1.373499	0.131945	0.500066
H409	H	0.857838	-0.402229	-0.019066
H410	H	1.357838	0.097771	0.480934
H411	H	0.910002	-0.357694	-0.029268
H412	H	1.410002	0.142306	0.470732
H413	H	0.889396	-0.375266	0.048547
H414	H	1.389396	0.124734	0.548547
H415	H	0.743000	0.002965	0.850339
H416	H	1.243000	0.502965	1.350339
H417	H	0.763286	-0.709776	0.000055
H418	H	1.263286	-0.209776	0.500055
H419	H	0.581099	-0.164385	0.000072
H420	H	1.081099	0.335615	0.500072
O421	O	0.565479	-0.782383	-0.000001
O422	O	1.065479	-0.282383	0.499999
C423	C	0.520043	-0.744018	0.000008
C424	C	1.020043	-0.244018	0.500008
H425	H	0.535707	-0.709843	-0.019119
H426	H	1.035707	-0.209843	0.480881
H427	H	0.483549	-0.754380	-0.029335
H428	H	0.983549	-0.254380	0.470665
H429	H	0.504130	-0.736809	0.048485
H430	H	1.004130	-0.236809	0.548485
O431	O	0.826809	-0.429003	-0.000038
O432	O	1.326809	0.070997	0.499962
C433	C	0.829582	-0.458535	-0.052363
C434	C	1.329582	0.041465	0.447637
H435	H	0.800297	-0.439942	-0.088949
H436	H	1.300297	0.060058	0.411051
H437	H	0.875513	-0.464410	-0.069920
H438	H	1.375513	0.035590	0.430080
H439	H	0.815180	-0.495135	-0.040532
H440	H	1.315180	0.004865	0.459468
H441	H	0.601430	0.122848	0.850347
H442	H	1.101430	0.622848	1.350347
H443	H	0.601414	0.122847	0.734965
H444	H	1.101414	0.622847	1.234965
O445	O	0.595330	0.128084	0.144720
O446	O	1.095330	0.628084	0.644720
C447	C	0.625560	0.157784	0.107933
C448	C	1.125560	0.657784	0.607933
H449	H	0.670297	0.138344	0.098406
H450	H	1.170297	0.638344	0.598406
H451	H	0.601722	0.165527	0.063205
H452	H	1.101722	0.665527	0.563205
H453	H	0.629105	0.193497	0.132442
H454	H	1.129105	0.693497	0.632442
H455	H	0.762185	-0.801243	0.000047
H456	H	1.262185	-0.301243	0.500047
H457	H	0.574829	-0.687991	0.000022
H458	H	1.074829	-0.187991	0.500022
O459	O	0.518131	-0.393210	-0.000016
O460	O	1.018131	0.106790	0.499984
C461	C	0.472698	-0.354842	-0.000010
C462	C	0.972698	0.145158	0.499990
H463	H	0.488368	-0.320667	-0.019133
H464	H	0.988368	0.179333	0.480867
H465	H	0.436205	-0.365200	-0.029358
H466	H	0.936205	0.134800	0.470642
H467	H	0.456782	-0.347633	0.048466
H468	H	0.956782	0.152367	0.548466
O469	O	0.825047	-0.580182	-0.000030
O470	O	1.325047	-0.080182	0.499970
C471	C	0.856790	-0.571525	-0.052370
C472	C	1.356790	-0.071525	0.447630
H473	H	0.842470	-0.533211	-0.069814
H474	H	1.342470	-0.033211	0.430186
H475	H	0.904320	-0.575302	-0.040597
H476	H	1.404320	-0.075302	0.459403
H477	H	0.849248	-0.599063	-0.089020
H478	H	1.349248	-0.099063	0.410980
O479	O	0.516328	-0.544459	-0.000016
O480	O	1.016328	-0.044459	0.499984
C481	C	0.470891	-0.506095	-0.000006
C482	C	0.970891	-0.006095	0.499994
H483	H	0.486557	-0.471918	-0.019126
H484	H	0.986557	0.028082	0.480874
H485	H	0.434400	-0.516454	-0.029355
H486	H	0.934400	-0.016454	0.470645
H487	H	0.454975	-0.498890	0.048470
H488	H	0.954975	0.001110	0.548470
