data_functionalizedCrystal
_audit_creation_method	'MofGen! by Chris Wilmer'
_symmetry_space_group_name_H-M	'P1'
_symmetry_Int_Tables_number	1
_symmetry_cell_setting	triclinic
loop_
_symmetry_equiv_pos_as_xyz
  x,y,z
_cell_length_a	16.109301
_cell_length_b	16.992695
_cell_length_c	15.186229
_cell_angle_alpha	89.995943
_cell_angle_beta	89.999362
_cell_angle_gamma	87.064852
loop_
_atom_site_label
_atom_site_type_symbol
_atom_site_fract_x
_atom_site_fract_y
_atom_site_fract_z
O1	O	1.109856	0.100784	-0.073174
O2	O	1.609856	0.600784	0.426826
O3	O	0.868631	0.113326	-0.073188
O4	O	1.368631	0.613326	0.426812
O5	O	0.988276	-0.007088	-0.073174
O6	O	1.488276	0.492912	0.426826
O7	O	0.990210	0.221197	-0.073188
O8	O	1.490210	0.721197	0.426812
O9	O	0.988268	-0.007089	0.073284
O10	O	1.488268	0.492911	0.573284
O11	O	0.868622	0.113324	0.073270
O12	O	1.368622	0.613324	0.573270
O13	O	1.109847	0.100782	0.073284
O14	O	1.609847	0.600782	0.573284
Zn15	Zn	0.989233	0.107053	0.096530
Zn16	Zn	1.489233	0.607053	0.596530
Zn17	Zn	0.989245	0.107055	-0.096434
Zn18	Zn	1.489245	0.607055	0.403566
O19	O	0.990202	0.221196	0.073270
O20	O	1.490202	0.721196	0.573270
C21	C	0.837618	0.112817	0.000039
C22	C	1.337618	0.612817	0.500039
C23	C	0.745221	0.111294	0.000034
C24	C	1.245221	0.611294	0.500034
C25	C	0.527480	0.179203	0.000040
C26	C	1.027480	0.679203	0.500040
C27	C	0.440664	0.177766	0.000046
C28	C	0.940664	0.677766	0.500046
C29	C	0.451005	0.034899	0.000051
C30	C	0.951005	0.534899	0.500051
C31	C	0.537819	0.036337	0.000051
C32	C	1.037819	0.536337	0.500051
C33	C	0.576055	0.108492	0.000042
C34	C	1.076055	0.608492	0.500042
C35	C	0.402424	0.105616	0.000047
C36	C	0.902424	0.605616	0.500047
C37	C	0.308294	0.104057	0.000053
C38	C	0.808294	0.604057	0.500053
C39	C	0.670191	0.110051	0.000037
C40	C	1.170191	0.610051	0.500037
C41	C	0.985784	-0.036300	0.000055
C42	C	1.485784	0.463700	0.500055
C43	C	0.978361	-0.123343	0.000054
C44	C	1.478361	0.376657	0.500054
C45	C	1.049987	-0.173601	0.000059
C46	C	1.549987	0.326399	0.500059
C47	C	1.043007	-0.255386	0.000050
C48	C	1.543007	0.244614	0.500050
C49	C	0.964400	-0.286911	0.000043
C50	C	1.464400	0.213089	0.500043
C51	C	0.892768	-0.236645	0.000035
C52	C	1.392768	0.263355	0.500035
C53	C	0.899749	-0.154862	0.000038
C54	C	1.399749	0.345138	0.500038
C55	C	0.935467	-0.530501	0.000029
C56	C	1.435467	-0.030501	0.500029
C57	C	0.928491	-0.612291	0.000029
C58	C	1.428491	-0.112291	0.500029
C59	C	1.078731	-0.631026	0.000043
C60	C	1.578731	-0.131026	0.500043
C61	C	1.085704	-0.549240	0.000051
C62	C	1.585704	-0.049240	0.500051
C63	C	1.014073	-0.498982	0.000038
C64	C	1.514073	0.001018	0.500038
N65	N	0.957263	-0.370508	0.000037
N66	N	1.457263	0.129492	0.500037
N67	N	1.021210	-0.415387	0.000038
N68	N	1.521210	0.084613	0.500038
C69	C	1.140860	0.101291	0.000055
C70	C	1.640860	0.601291	0.500055
C71	C	1.233257	0.102814	0.000054
C72	C	1.733257	0.602814	0.500054
C73	C	0.992694	0.250408	0.000039
C74	C	1.492694	0.750408	0.500039
C75	C	1.000118	0.337451	0.000034
C76	C	1.500118	0.837451	0.500034
N77	N	0.989232	0.107051	0.228223
N78	N	1.489232	0.607051	0.728223
N79	N	0.989253	0.107051	-0.228127
N80	N	1.489253	0.607051	0.271873
C81	C	1.042231	0.053750	0.453952
C82	C	1.542231	0.553750	0.953952
C83	C	1.042234	0.053748	0.546141
C84	C	1.542234	0.553748	1.046141
C85	C	0.936247	0.160355	0.546138
C86	C	1.436247	0.660355	1.046138
C87	C	0.936241	0.160352	0.453950
C88	C	1.436241	0.660352	0.953950
C89	C	0.989238	0.107051	0.407859
C90	C	1.489238	0.607051	0.907859
C91	C	0.989246	0.107051	0.592237
C92	C	1.489246	0.607051	1.092237
C93	C	0.989249	0.107050	0.692193
C94	C	1.489249	0.607050	1.192193
C95	C	0.989235	0.107051	0.307897
C96	C	1.489235	0.607051	0.807897
H97	H	0.419863	-0.023846	0.000064
H98	H	0.919863	0.476154	0.500064
H99	H	0.893100	0.203753	0.583674
H100	H	1.393100	0.703753	1.083674
Br101	Br	0.603748	-0.059635	0.000065
Br102	Br	1.103748	0.440365	0.500065
H103	H	0.864477	-0.637954	0.000037
H104	H	1.364477	-0.137954	0.500037
H105	H	0.893084	0.203756	0.416419
H106	H	1.393084	0.703756	0.916419
Br107	Br	0.838252	-0.462304	0.000007
Br108	Br	1.338252	0.037696	0.500007
Br109	Br	0.579369	0.277126	0.000030
Br110	Br	1.079369	0.777126	0.500030
Br111	Br	1.140218	-0.323592	0.000057
Br112	Br	1.640218	0.176408	0.500057
Br113	Br	1.156673	-0.130827	0.000082
Br114	Br	1.656673	0.369173	0.500082
Br115	Br	0.374744	0.273736	0.000048
Br116	Br	0.874744	0.773736	0.500048
Br117	Br	1.192389	-0.506463	0.000033
Br118	Br	1.692389	-0.006463	0.500033
H119	H	1.137048	-0.671954	0.000051
H120	H	1.637048	-0.171954	0.500051
Br121	Br	0.786086	-0.279427	0.000010
Br122	Br	1.286086	0.220573	0.500010
Br123	Br	0.802538	-0.086652	0.000024
Br124	Br	1.302538	0.413348	0.500024
H125	H	1.085383	0.010347	0.416427
H126	H	1.585383	0.510347	0.916427
Br127	Br	1.114152	-0.018595	0.608694
Br128	Br	1.614152	0.481405	1.108694
