data_functionalizedCrystal
_audit_creation_method	'MofGen! by Chris Wilmer'
_symmetry_space_group_name_H-M	'P1'
_symmetry_Int_Tables_number	1
_symmetry_cell_setting	triclinic
loop_
_symmetry_equiv_pos_as_xyz
  x,y,z
_cell_length_a	16.625546
_cell_length_b	11.169417
_cell_length_c	11.169409
_cell_angle_alpha	90.019824
_cell_angle_beta	89.961577
_cell_angle_gamma	89.976653
loop_
_atom_site_label
_atom_site_type_symbol
_atom_site_fract_x
_atom_site_fract_y
_atom_site_fract_z
Zn1	Zn	-0.320917	-1.834861	-0.678492
Zn2	Zn	0.179083	-1.334861	-0.178492
Zn3	Zn	-0.455779	-1.834708	-0.477788
Zn4	Zn	0.044221	-1.334708	0.022212
Zn5	Zn	-0.320967	-1.634147	-0.477826
Zn6	Zn	0.179033	-1.134147	0.022174
Zn7	Zn	-0.455714	-1.634112	-0.678432
Zn8	Zn	0.044286	-1.134112	-0.178432
O9	O	-0.388344	-1.734457	-0.578135
O10	O	0.111656	-1.234457	-0.078135
O11	O	-0.338814	-2.002791	-0.651877
O12	O	0.161186	-1.502791	-0.151877
O13	O	-0.437944	-1.808054	-0.309843
O14	O	0.062056	-1.308054	0.190157
O15	O	-0.208128	-1.660851	-0.504486
O16	O	0.291872	-1.160851	-0.004486
O17	O	-0.437897	-2.002678	-0.504420
O18	O	0.062103	-1.502678	-0.004420
O19	O	-0.208092	-1.808315	-0.651914
O20	O	0.291908	-1.308315	-0.151914
O21	O	-0.338898	-1.660702	-0.309871
O22	O	0.161102	-1.160702	0.190129
O23	O	-0.338834	-1.466193	-0.504428
O24	O	0.161166	-0.966193	-0.004428
O25	O	-0.437785	-1.660791	-0.846390
O26	O	0.062215	-1.160791	-0.346390
O27	O	-0.437832	-1.466167	-0.651813
O28	O	0.062168	-0.966167	-0.151813
O29	O	-0.338750	-1.808281	-0.846434
O30	O	0.161250	-1.308281	-0.346434
O31	O	-0.568603	-1.808020	-0.504362
O32	O	-0.068603	-1.308020	-0.004362
O33	O	-0.568555	-1.660643	-0.651775
O34	O	-0.068555	-1.160643	-0.151775
C35	C	-0.597835	-1.734344	-0.578084
C36	C	-0.097835	-1.234344	-0.078084
C37	C	-0.687456	-1.734405	-0.578103
C38	C	-0.187456	-1.234405	-0.078103
C39	C	-0.388332	-1.422632	-0.578119
C40	C	0.111668	-0.922632	-0.078119
C41	C	-0.388346	-1.289232	-0.578141
C42	C	0.111654	-0.789232	-0.078141
C43	C	-0.388357	-2.047499	-0.578151
C44	C	0.111643	-1.547499	-0.078151
C45	C	-0.388363	-2.180899	-0.578158
C46	C	0.111637	-1.680899	-0.078158
C47	C	-1.015632	-1.734614	-0.578228
C48	C	-0.515632	-1.234614	-0.078228
C49	C	-0.924323	-1.734552	-0.578197
C50	C	-0.424323	-1.234552	-0.078197
C51	C	-0.851547	-1.734508	-0.578165
C52	C	-0.351547	-1.234508	-0.078165
C53	C	-0.760233	-1.734448	-0.578135
C54	C	-0.260233	-1.234448	-0.078135
C55	C	-0.178035	-1.734604	-0.578211
C56	C	0.321965	-1.234604	-0.078211
C57	C	-0.088414	-1.734666	-0.578244
C58	C	0.411586	-1.234666	-0.078244
C59	C	-0.388255	-1.734549	-0.891177
C60	C	0.111745	-1.234549	-0.391177
C61	C	-0.388217	-1.734589	-1.024577
C62	C	0.111783	-1.234589	-0.524577
C63	C	-0.388375	-1.734434	-0.266310
C64	C	0.111625	-1.234434	0.233690
C65	C	-0.388186	-1.734628	-0.132910
C66	C	0.111814	-1.234628	0.367090
