data_functionalizedCrystal
_audit_creation_method	'MofGen! by Chris Wilmer'
_symmetry_space_group_name_H-M	'P1'
_symmetry_Int_Tables_number	1
_symmetry_cell_setting	triclinic
loop_
_symmetry_equiv_pos_as_xyz
  x,y,z
_cell_length_a	15.297475
_cell_length_b	16.625545
_cell_length_c	15.296720
_cell_angle_alpha	99.644333
_cell_angle_beta	88.382886
_cell_angle_gamma	99.673382
loop_
_atom_site_label
_atom_site_type_symbol
_atom_site_fract_x
_atom_site_fract_y
_atom_site_fract_z
Zn1	Zn	1.253381	0.627523	0.726587
Zn2	Zn	1.278640	0.743625	0.580101
Zn3	Zn	1.132260	0.582227	0.554829
Zn4	Zn	1.106867	0.735700	0.701229
O5	O	1.192787	0.672269	0.640686
O6	O	1.379309	0.665198	0.728344
O7	O	1.280421	0.706576	0.454174
O8	O	1.148384	0.475417	0.577649
O9	O	1.397867	0.750498	0.620721
O10	O	1.237371	0.508696	0.703839
O11	O	1.172876	0.587997	0.435607
O12	O	1.006315	0.580312	0.553060
O13	O	1.105104	0.736989	0.827167
O14	O	0.987658	0.693067	0.660620
O15	O	1.212747	0.657513	0.845798
O16	O	1.255798	0.855392	0.596133
O17	O	1.129596	0.849569	0.685125
C18	C	0.965203	0.630915	0.601347
C19	C	0.867838	0.613246	0.584538
C20	C	0.554686	0.798559	0.760825
C21	C	0.646166	0.815166	0.776615
C22	C	0.701588	0.764687	0.728597
C23	C	0.665522	0.697599	0.664786
C24	C	0.574035	0.680995	0.648989
C25	C	0.720937	0.647123	0.616762
C26	C	0.684871	0.580034	0.552951
C27	C	0.593392	0.563433	0.537157
C28	C	0.537969	0.613911	0.585175
C29	C	0.812424	0.663727	0.632559
C30	C	0.831773	0.546162	0.520723
C31	C	0.740293	0.529556	0.504933
C32	C	1.192703	0.881740	0.640643
C33	C	1.192742	0.971371	0.640668
C34	C	1.192867	1.299586	0.640797
C35	C	1.192829	1.208266	0.640763
C36	C	1.192804	1.135481	0.640732
C37	C	1.192767	1.044156	0.640699
C38	C	1.421260	0.713784	0.680180
C39	C	1.518621	0.731476	0.697010
C40	C	1.192883	1.461986	0.640762
C41	C	1.192900	1.372376	0.640818
C42	C	1.153275	0.701420	0.869153
C43	C	1.136438	0.713842	0.966512
C44	C	1.232195	0.643182	0.413117
C45	C	1.249203	0.630563	0.315788
C46	C	1.313160	0.583349	1.279752
C47	C	1.328985	0.571679	1.188279
C48	C	1.280850	0.607219	1.132833
C49	C	1.216886	0.654430	1.168868
C50	C	1.201065	0.666105	1.260351
C51	C	1.168754	0.689976	1.113432
C52	C	1.104791	0.737187	1.149467
C53	C	1.088971	0.748860	1.240941
C54	C	1.137107	0.713320	1.296387
C55	C	1.184576	0.678300	1.021950
C56	C	1.072480	0.761057	1.002549
C57	C	1.056655	0.772726	1.094021
H58	H	0.509555	0.839656	0.799908
O59	O	0.790450	0.780666	0.743942
C60	C	0.917830	0.730140	0.789329
C61	C	0.817190	0.711928	0.771956
H62	H	0.939477	0.674584	0.812000
H63	H	0.954438	0.742569	0.725756
H64	H	0.934070	0.786783	0.843156
H65	H	0.800868	0.655276	0.718159
H66	H	0.780636	0.699549	0.835571
O67	O	1.359811	0.548863	1.333732
C68	C	1.385159	0.530233	1.483270
C69	C	1.332241	0.569319	1.422235
H70	H	1.362902	0.546771	1.554840
H71	H	1.372915	0.460125	1.462723
H72	H	1.458892	0.554918	1.477433
H73	H	1.258493	0.544699	1.428043
H74	H	1.344561	0.639425	1.442800
O75	O	1.121741	0.724805	1.385247
C76	C	1.121555	0.822924	1.520402
C77	C	1.138966	0.810040	1.419770
H78	H	1.135493	0.891833	1.548346
H79	H	1.049424	0.797096	1.533565
H80	H	1.166923	0.789368	1.553806
H81	H	1.093654	0.843596	1.386298
H82	H	1.211119	0.835846	1.406671
H83	H	0.675524	0.869791	0.828568
O84	O	1.246601	0.632309	0.986975
C85	C	1.294056	0.499341	0.966449
C86	C	1.223736	0.551332	1.006081
H87	H	1.275605	0.433866	0.981898
H88	H	1.297101	0.497023	0.891533
H89	H	1.361564	0.528670	0.996632
H90	H	1.156192	0.522044	0.975968
H91	H	1.220769	0.553652	1.080998
O92	O	0.847513	0.728965	0.694427
C93	C	0.948800	0.858037	0.723846
C94	C	0.909121	0.784210	0.653680
H95	H	0.998632	0.902713	0.690933
H96	H	0.893516	0.891324	0.755442
H97	H	0.983674	0.834692	0.777129
H98	H	0.874256	0.807485	0.600344
H99	H	0.964442	0.750937	0.622154
H100	H	0.876898	0.505059	0.481622
O101	O	0.558226	0.498248	0.475255
C102	C	0.456970	0.369159	0.445802
C103	C	0.496714	0.442928	0.516004
H104	H	0.407243	0.324405	0.478725
H105	H	0.422003	0.392471	0.392558
H106	H	0.512297	0.335962	0.414155
H107	H	0.441440	0.476156	0.547719
H108	H	0.531703	0.419565	0.569193
O109	O	1.026793	0.794624	1.276044
C110	C	0.890649	0.797166	1.358854
C111	C	0.961006	0.745244	1.319160
H112	H	0.837434	0.757259	1.393707
H113	H	0.923394	0.852077	1.408666
H114	H	0.859003	0.820592	1.303513
H115	H	0.992677	0.721760	1.374441
H116	H	0.928214	0.690376	1.269327
H117	H	1.004575	0.811165	1.123374
O118	O	1.296396	0.595911	1.044007
C119	C	1.403087	0.615173	0.927269
C120	C	1.385596	0.628021	1.027887
H121	H	1.475198	0.641142	0.914204
H122	H	1.389316	0.546267	0.899282
H123	H	1.357667	0.648650	0.893827
H124	H	1.431004	0.594593	1.061404
H125	H	1.399338	0.696941	1.055809
O126	O	1.025803	0.795720	0.948752
C127	C	0.988016	0.921553	0.913392
C128	C	1.040930	0.882407	0.974372
H129	H	1.000213	0.991644	0.934094
H130	H	1.010315	0.905166	0.841811
H131	H	0.914289	0.896815	0.919162
H132	H	1.114669	0.907124	0.968679
H133	H	1.018558	0.898790	1.045927
H134	H	0.463478	0.600392	0.572324
H135	H	0.710915	0.474932	0.452977
O136	O	1.391116	0.525766	1.153416
C137	C	1.500666	0.444957	1.182325
C138	C	1.430312	0.496923	1.221921
H139	H	1.532389	0.421637	1.237695
H140	H	1.467919	0.389985	1.132591
H141	H	1.553822	0.484833	1.147373
H142	H	1.377136	0.457115	1.256919
H143	H	1.463123	0.551900	1.271610
