data_functionalizedCrystal
_audit_creation_method	'MofGen! by Chris Wilmer'
_symmetry_space_group_name_H-M	'P1'
_symmetry_Int_Tables_number	1
_symmetry_cell_setting	triclinic
loop_
_symmetry_equiv_pos_as_xyz
  x,y,z
_cell_length_a	23.096457
_cell_length_b	12.477989
_cell_length_c	12.478028
_cell_angle_alpha	61.136541
_cell_angle_beta	57.040964
_cell_angle_gamma	89.998224
loop_
_atom_site_label
_atom_site_type_symbol
_atom_site_fract_x
_atom_site_fract_y
_atom_site_fract_z
Zr1	Zr	0.503293	-0.242537	1.263457
O2	O	0.406170	-0.423078	1.484845
O3	O	0.541001	-0.172443	1.026103
O4	O	0.538401	-0.401816	1.240435
O5	O	0.401796	-0.029549	1.294242
O6	O	0.633681	-0.401822	1.240437
O7	O	0.408770	-0.193704	1.270513
O8	O	0.638333	0.008485	0.857037
O9	O	0.397144	-0.439855	1.677642
O10	O	0.618604	-0.160373	1.129646
O11	O	0.542292	-0.037860	1.147352
O12	O	0.539230	-0.307918	1.399700
O13	O	0.462919	-0.185405	1.417407
Zr14	Zr	0.644131	0.019262	1.301306
Zr15	Zr	0.655255	-0.242547	1.263461
Zr16	Zr	0.492170	0.019272	1.301302
Zr17	Zr	0.488898	-0.269296	1.570947
Zr18	Zr	0.658526	0.046021	0.993816
O19	O	0.606423	-0.050833	1.538660
O20	O	0.622239	-0.423092	1.484850
O21	O	0.390354	-0.050818	1.538655
O22	O	0.741255	0.199802	1.079918
O23	O	0.757071	-0.172457	1.026109
O24	O	0.525185	0.199817	1.079913
O25	O	0.745629	-0.193727	1.270521
O26	O	0.609024	0.178541	1.324328
O27	O	0.513743	0.178547	1.324326
O28	O	0.738654	-0.029571	1.294250
O29	O	0.517933	-0.439863	1.677645
O30	O	0.629492	0.216588	0.887118
O31	O	0.750281	0.216580	0.887121
O32	O	0.759122	0.008477	0.857040
O33	O	0.388302	-0.231752	1.707723
O34	O	0.509091	-0.231760	1.707726
O35	O	0.608194	0.084643	1.165063
O36	O	0.684506	-0.037870	1.147356
O37	O	0.605132	-0.185415	1.417411
O38	O	0.528821	-0.062903	1.435117
C39	C	0.383632	-0.111625	1.282377
C40	C	0.319120	-0.111621	1.282375
C41	C	0.591718	-0.078167	0.897759
C42	C	0.597829	-0.066807	0.767222
C43	C	0.559799	0.215846	1.329719
C44	C	0.555077	0.326991	1.345785
C45	C	0.330247	-0.034616	1.141412
C46	C	0.269631	-0.034610	1.141411
C47	C	0.197890	-0.111634	1.282377
C48	C	0.186765	-0.188644	1.423359
C49	C	0.247380	-0.188637	1.423358
N50	N	0.074282	-0.225443	1.379142
N51	N	0.016703	-0.225447	1.379134
C52	C	0.015257	-0.111657	1.282389
N53	N	0.073574	0.002136	1.185628
N54	N	0.131159	0.002137	1.185632
C55	C	0.132158	-0.111650	1.282394
C56	C	-0.039339	-0.034640	1.141415
C57	C	-0.099958	-0.034631	1.141420
C58	C	-0.182824	-0.188677	1.423371
C59	C	-0.122206	-0.188673	1.423363
C60	C	-0.050466	-0.111657	1.282380
C61	C	0.763793	-0.111650	1.282386
C62	C	0.828304	-0.111654	1.282388
C63	C	0.587626	-0.439121	1.235044
C64	C	0.592348	-0.550266	1.218978
C65	C	0.555706	-0.145109	1.667004
C66	C	0.549595	-0.156469	1.797541
C67	C	0.781799	-0.078179	0.897764
C68	C	0.852421	-0.066824	0.767228
C69	C	0.577805	0.249317	0.945097
C70	C	0.579194	0.371822	0.830625
C71	C	0.767885	0.249305	0.945101
C72	C	0.833786	0.371805	0.830632
C73	C	0.379539	-0.472580	1.619662
C74	C	0.313639	-0.595080	1.734131
C75	C	0.365626	-0.145096	1.666999
C76	C	0.295003	-0.156452	1.797535
C77	C	0.569620	-0.472592	1.619666
C78	C	0.568231	-0.595097	1.734138
C79	C	0.851187	-0.125447	0.696681
C80	C	0.917539	-0.114803	0.574043
C81	C	0.985125	-0.045528	0.521946
C82	C	0.986357	0.013097	0.592506
C83	C	0.920006	0.002445	0.715149
C84	C	0.904574	0.365383	0.767633
C85	C	0.966500	0.480473	0.660092
C86	C	0.957636	0.601986	0.615544
C87	C	0.886841	0.608405	0.678554
C88	C	0.824916	0.493315	0.786101
C89	C	0.242850	-0.588659	1.797145
C90	C	0.180923	-0.703753	1.904724
C91	C	0.189785	-0.825266	1.949279
C92	C	0.260581	-0.831685	1.886260
C93	C	0.322507	-0.716593	1.778692
C94	C	0.296237	-0.097840	1.868093
C95	C	0.229885	-0.108516	1.990761
C96	C	0.162299	-0.177796	2.042862
C97	C	0.161067	-0.236415	1.972297
C98	C	0.227418	-0.225746	1.849638
H99	H	0.388658	0.028089	1.026611
H100	H	0.503625	-0.241929	0.923366
H101	H	0.518604	0.266672	0.807161
H102	H	0.916521	-0.162544	0.516607
C103	C	0.640331	0.476843	1.055705
H104	H	0.663083	0.568749	0.978306
H105	H	0.610177	0.439259	1.044043
H106	H	0.677347	0.439258	1.044030
H107	H	0.767280	0.498563	0.837382
H108	H	1.039147	-0.036863	0.422079
H109	H	0.607727	0.470825	0.794242
H110	H	0.519556	0.306936	1.466648
H111	H	0.643806	0.018654	0.641386
H112	H	0.796162	-0.181874	0.739094
H113	H	0.278692	0.028098	1.026618
C114	C	1.060704	0.089308	0.535175
H115	H	1.100038	0.087262	0.452017
H116	H	1.063256	0.050086	0.618640
H117	H	1.064690	0.177614	0.499461
C118	C	0.921373	0.066954	0.792722
H119	H	0.971130	0.109746	0.744109
H120	H	0.896197	0.001705	0.900544
H121	H	0.897649	0.129238	0.781335
C122	C	0.233086	-0.455012	1.748172
H123	H	0.182053	-0.467691	1.801137
H124	H	0.258759	-0.401528	1.638653
H125	H	0.252408	-0.413377	1.774560
H126	H	0.128349	-0.251357	1.538135
C127	C	0.235136	-0.273153	1.578447
H128	H	0.281508	-0.262053	1.558265
H129	H	0.210618	-0.362704	1.628220
H130	H	0.205734	-0.246764	1.644539
C131	C	0.914333	0.231731	0.816626
H132	H	0.867320	0.164095	0.889693
H133	H	0.937664	0.218406	0.863158
H134	H	0.944034	0.230233	0.727243
H135	H	-0.090892	0.028085	1.026627
C136	C	0.039573	0.050095	0.986347
H137	H	0.037516	0.095978	0.902393
H138	H	0.067408	-0.004546	0.972109
H139	H	0.062475	0.111156	0.988865
C140	C	1.044366	0.473390	0.590783
H141	H	1.040770	0.384538	0.632702
H142	H	1.067003	0.509699	0.616395
H143	H	1.073358	0.521548	0.480484
H144	H	1.008066	0.695690	0.527970
H145	H	-0.241236	-0.251393	1.538149
H146	H	0.267789	-0.930635	1.922551
H147	H	0.879635	0.707356	0.642267
H148	H	0.380145	-0.721836	1.727385
C149	C	0.103056	-0.696675	1.974021
H150	H	0.067438	-0.782618	2.044483
H151	H	0.100022	-0.645627	1.892234
H152	H	0.093665	-0.657429	2.028125
C153	C	0.370572	-0.021627	1.810804
H154	H	0.361794	0.011734	1.870417
H155	H	0.398611	0.048968	1.703758
H156	H	0.397166	-0.078582	1.822931
H157	H	0.139355	-0.918972	2.036869
H158	H	0.230903	-0.060774	2.048196
C159	C	0.089319	-0.189516	2.177780
H160	H	0.099741	-0.144673	2.212323
H161	H	0.060875	-0.279312	2.261710
H162	H	0.062324	-0.151763	2.142526
H163	H	0.106030	-0.292822	2.014736
H164	H	-0.131269	-0.251388	1.538150
H165	H	0.226403	-0.273472	1.792193
