data_functionalizedCrystal
_audit_creation_method	'MofGen! by Chris Wilmer'
_symmetry_space_group_name_H-M	'P1'
_symmetry_Int_Tables_number	1
_symmetry_cell_setting	triclinic
loop_
_symmetry_equiv_pos_as_xyz
  x,y,z
_cell_length_a	6.817900
_cell_length_b	12.200863
_cell_length_c	16.305550
_cell_angle_alpha	94.302169
_cell_angle_beta	103.455250
_cell_angle_gamma	107.143441
loop_
_atom_site_label
_atom_site_type_symbol
_atom_site_fract_x
_atom_site_fract_y
_atom_site_fract_z
V1	V	-4.044949	-0.159681	-0.263118
V2	V	-3.711616	0.173652	0.070216
V3	V	-3.378283	0.506986	0.403549
O4	O	-4.013059	0.006677	-0.258021
O5	O	-3.679726	0.340010	0.075313
O6	O	-3.346392	0.673344	0.408646
O7	O	-4.014671	-0.315662	-0.261403
O8	O	-3.681338	0.017671	0.071930
O9	O	-3.348004	0.351004	0.405264
O10	O	-3.996119	-0.157662	-0.377834
O11	O	-3.662786	0.175672	-0.044500
O12	O	-3.329452	0.509005	0.288833
O13	O	-4.031739	-0.152417	-0.140784
O14	O	-3.698406	0.180916	0.192549
O15	O	-3.365073	0.514250	0.525883
V16	V	-4.526285	-0.139731	-0.248475
V17	V	-4.192952	0.193602	0.084858
V18	V	-3.859618	0.526936	0.418191
O19	O	-4.311006	-0.203443	-0.295237
O20	O	-3.977673	0.129891	0.038096
O21	O	-3.644339	0.463224	0.371430
O22	O	-4.710426	-0.095969	-0.216356
O23	O	-4.377092	0.237364	0.116977
O24	O	-4.043759	0.570698	0.450311
O25	O	-4.333357	0.016250	-0.250190
O26	O	-4.000024	0.349584	0.083143
O27	O	-3.666690	0.682917	0.416477
O28	O	-4.675572	-0.306089	-0.253572
O29	O	-4.342239	0.027244	0.079761
O30	O	-4.008906	0.360578	0.413095
O31	O	-4.656892	-0.146995	-0.370809
O32	O	-4.323559	0.186339	-0.037475
O33	O	-3.990225	0.519672	0.295858
O34	O	-4.351909	-0.141750	-0.133759
O35	O	-4.018576	0.191583	0.199574
O36	O	-3.685242	0.524917	0.532907
C37	C	-3.864094	-0.353673	-0.257274
C38	C	-3.530761	-0.020340	0.076059
C39	C	-3.197427	0.312993	0.409393
C40	C	-3.920622	-0.481193	-0.256637
C41	C	-3.587288	-0.147860	0.076697
C42	C	-3.253955	0.185474	0.410030
C43	C	-4.024079	-0.714666	-0.255477
C44	C	-3.690745	-0.381332	0.077857
C45	C	-3.357412	-0.047999	0.411190
C46	C	-3.966500	-0.584745	-0.256122
C47	C	-3.633166	-0.251411	0.077211
C48	C	-3.299833	0.081922	0.410544
C49	C	-3.840428	-0.152127	-0.405792
C50	C	-3.507095	0.181207	-0.072459
C51	C	-3.173761	0.514540	0.260875
C52	C	-3.881907	-0.151508	-0.499573
C53	C	-3.548574	0.181825	-0.166240
C54	C	-3.215241	0.515159	0.167093
C55	C	-4.032713	-0.149110	-0.840317
C56	C	-3.699380	0.184223	-0.506984
C57	C	-3.366047	0.517556	-0.173651
C58	C	-3.795832	-0.141992	-0.799385
C59	C	-3.462498	0.191341	-0.466052
C60	C	-3.129165	0.524674	-0.132718
C61	C	-3.752769	-0.143111	-0.701891
C62	C	-3.419436	0.190222	-0.368557
C63	C	-3.086102	0.523556	-0.035224
C64	C	-3.957895	-0.150299	-0.671270
C65	C	-3.624562	0.183034	-0.337937
C66	C	-3.291228	0.516368	-0.004604
C67	C	-4.138198	-0.263590	-0.721958
C68	C	-3.804865	0.069743	-0.388625
C69	C	-3.471532	0.403077	-0.055291
C70	C	-4.179987	-0.262949	-0.819507
C71	C	-3.846653	0.070384	-0.486174
C72	C	-3.513320	0.403718	-0.152840
C73	C	-4.075138	-0.043843	-0.794417
C74	C	-3.741805	0.289490	-0.461084
C75	C	-3.408472	0.622824	-0.127751
C76	C	-4.027104	-0.042946	-0.696574
C77	C	-3.693771	0.290387	-0.363241
C78	C	-3.360437	0.623720	-0.029907
C79	C	-3.915625	-0.150975	-0.575733
C80	C	-3.582291	0.182358	-0.242399
C81	C	-3.248958	0.515691	0.090934
C82	C	-4.074994	-0.148442	-0.935856
C83	C	-3.741661	0.184891	-0.602523
C84	C	-3.408327	0.518224	-0.269189
C85	C	-4.147277	0.054256	-0.254316
C86	C	-3.813943	0.387589	0.079017
C87	C	-3.480610	0.720922	0.412350
C88	C	-4.069987	0.181774	-0.254959
C89	C	-3.736654	0.515107	0.078374
C90	C	-3.403321	0.848441	0.411707
C91	C	-4.170942	-0.147289	-0.105797
C92	C	-3.837609	0.186045	0.227537
C93	C	-3.504276	0.519378	0.560870
C94	C	-4.108701	-0.147902	-0.012014
C95	C	-3.775368	0.185432	0.321319
C96	C	-3.442034	0.518765	0.654652
H97	H	-3.616731	-0.061655	-0.666823
H98	H	-3.283397	0.271678	-0.333490
H99	H	-2.950064	0.605011	-0.000157
H100	H	-3.759600	-0.217623	-0.830938
H101	H	-3.426267	0.115711	-0.497605
H102	H	-3.092933	0.449044	-0.164271
H103	H	-3.896242	0.040850	-0.662151
H104	H	-3.562909	0.374183	-0.328817
H105	H	-3.229575	0.707517	0.004516
N106	N	-4.146313	-0.362912	-0.857664
N107	N	-3.812980	-0.029579	-0.524331
N108	N	-3.479646	0.303754	-0.190997
N109	N	-3.968193	-0.376972	-0.835581
N110	N	-3.634860	-0.043639	-0.502248
N111	N	-3.301526	0.289694	-0.168915
H112	H	-3.944400	-0.447573	-0.862525
H113	H	-3.611067	-0.114240	-0.529191
H114	H	-3.277734	0.219094	-0.195858
H115	H	-3.680107	-0.060152	-0.811704
H116	H	-3.346774	0.273181	-0.478371
H117	H	-3.013440	0.606514	-0.145038
H118	H	-3.973682	0.041997	-0.807739
H119	H	-3.640349	0.375330	-0.474405
H120	H	-3.307016	0.708663	-0.141072
H121	H	-4.354987	-0.272885	-0.847504
H122	H	-4.021653	0.060448	-0.514171
H123	H	-3.688320	0.393782	-0.180838
H124	H	-3.695304	-0.219614	-0.685639
H125	H	-3.361970	0.113720	-0.352305
H126	H	-3.028637	0.447053	-0.018972
H127	H	-4.292450	-0.272947	-0.703050
H128	H	-3.959117	0.060386	-0.369717
H129	H	-3.625784	0.393719	-0.036384
H130	H	-4.174227	-0.041537	-0.675226
H131	H	-3.840893	0.291797	-0.341892
H132	H	-3.507560	0.625130	-0.008559
H133	H	-4.247696	-0.048050	-0.821235
H134	H	-3.914363	0.285283	-0.487902
H135	H	-3.581030	0.618617	-0.154569
H136	H	-4.092101	-0.343302	-0.705188
H137	H	-3.758768	-0.009968	-0.371855
H138	H	-3.425435	0.323365	-0.038522
