data_functionalizedCrystal
_audit_creation_method	'MofGen! by Chris Wilmer'
_symmetry_space_group_name_H-M	'P1'
_symmetry_Int_Tables_number	1
_symmetry_cell_setting	triclinic
loop_
_symmetry_equiv_pos_as_xyz
  x,y,z
_cell_length_a	10.723024
_cell_length_b	10.654541
_cell_length_c	9.198806
_cell_angle_alpha	89.997047
_cell_angle_beta	89.996352
_cell_angle_gamma	84.475899
loop_
_atom_site_label
_atom_site_type_symbol
_atom_site_fract_x
_atom_site_fract_y
_atom_site_fract_z
O1	O	1.657212	0.176147	-0.120882
O2	O	1.294062	0.193008	-0.120887
O3	O	1.483989	0.001837	-0.120876
O4	O	1.467286	0.367318	-0.120894
O5	O	1.483973	0.001836	0.120909
O6	O	1.294047	0.193007	0.120898
O7	O	1.657197	0.176147	0.120903
Cu8	Cu	1.475621	0.184577	0.142977
Cu9	Cu	1.475639	0.184578	-0.142962
O10	O	1.467271	0.367318	0.120891
C11	C	1.247555	0.191781	0.000005
C12	C	1.109000	0.188109	0.000003
C13	C	1.034033	0.295079	-0.000003
C14	C	0.890829	0.291287	-0.000005
C15	C	1.482755	-0.044961	0.000016
C16	C	1.479088	-0.184404	0.000013
C17	C	1.706196	-0.212409	0.000035
C18	C	1.818022	-0.291921	0.000048
C19	C	1.814569	-0.422938	0.000044
C20	C	1.699277	-0.474446	0.000021
C21	C	1.587451	-0.394935	0.000008
C22	C	1.590917	-0.263916	0.000017
C23	C	1.360346	-0.366930	-0.000024
C24	C	1.363796	-0.235912	-0.000009
C25	C	1.245054	-0.418438	-0.000047
C26	C	1.133225	-0.338927	-0.000050
C27	C	1.136683	-0.207902	-0.000044
C28	C	1.251970	-0.156401	-0.000023
C29	C	1.703705	0.177374	0.000008
C30	C	1.842259	0.181045	-0.000000
C31	C	1.468504	0.414116	-0.000004
C32	C	1.472172	0.553559	-0.000011
N33	N	1.475617	0.184576	0.344091
N34	N	1.475652	0.184569	-0.344076
C35	C	1.555362	0.103955	0.416293
C36	C	1.555381	0.103950	0.583705
H37	H	0.826409	0.382861	-0.000016
O38	O	1.696083	-0.601735	-0.000190
C39	C	1.757203	-0.653165	-0.125433
H40	H	1.825504	-0.585830	-0.167165
H41	H	1.810714	-0.747703	-0.097279
H42	H	1.684818	-0.667549	-0.213127
H43	H	1.242250	-0.525120	-0.000060
O44	O	1.636777	0.021427	0.657610
C45	C	1.615071	-0.103022	0.620562
H46	H	1.567038	-0.103261	0.510022
H47	H	1.708193	-0.164265	0.615494
H48	H	1.552432	-0.142172	0.706209
H49	H	1.905628	-0.487677	0.000044
O50	O	1.028136	-0.130540	0.000134
C51	C	1.023296	-0.053948	0.125379
H52	H	1.122396	-0.046474	0.167149
H53	H	0.977667	0.044109	0.097214
H54	H	0.965911	-0.097543	0.213050
O55	O	0.919043	0.071752	-0.000253
C56	C	0.895753	0.001331	-0.125454
H57	H	0.851767	0.067204	-0.212980
H58	H	0.987720	-0.048129	-0.167486
H59	H	0.828945	-0.072027	-0.097137
O60	O	1.709394	-0.085121	-0.000144
C61	C	1.648314	-0.033656	-0.125391
H62	H	1.580023	-0.100977	-0.167163
H63	H	1.594799	0.060877	-0.097228
H64	H	1.720728	-0.019252	-0.213060
H65	H	1.039364	-0.380876	-0.000078
O66	O	1.930090	-0.242036	0.000261
C67	C	1.998297	-0.282553	0.125508
H68	H	1.963488	-0.373699	0.167251
H69	H	2.102064	-0.299849	0.097354
H70	H	1.984495	-0.206877	0.213193
H71	H	1.407355	0.253591	0.406215
O72	O	1.255170	-0.029113	-0.000208
C73	C	1.194090	0.022346	-0.125458
H74	H	1.125796	-0.044976	-0.167223
H75	H	1.140577	0.116882	-0.097301
H76	H	1.266503	0.036744	-0.213129
O77	O	1.083991	0.407656	-0.000261
C78	C	1.158523	0.416380	-0.125460
H79	H	1.127087	0.350540	-0.212986
H80	H	1.147856	0.517501	-0.167494
H81	H	1.260890	0.388155	-0.097142
O82	O	1.636651	0.021606	0.342000
C83	C	1.568885	-0.056234	0.253959
H84	H	1.471733	-0.006878	0.231357
H85	H	1.620661	-0.075596	0.146842
H86	H	1.559463	-0.149170	0.312482
O87	O	1.394368	0.266976	0.581712
C88	C	1.462161	0.344815	0.493682
H89	H	1.559282	0.295413	0.471008
H90	H	1.410364	0.364263	0.386599
H91	H	1.471657	0.437709	0.552250
H92	H	1.067165	0.093722	-0.000030
