data_functionalizedCrystal
_audit_creation_method	'MofGen! by Chris Wilmer'
_symmetry_space_group_name_H-M	'P1'
_symmetry_Int_Tables_number	1
_symmetry_cell_setting	triclinic
loop_
_symmetry_equiv_pos_as_xyz
  x,y,z
_cell_length_a	16.793024
_cell_length_b	16.793047
_cell_length_c	33.586455
_cell_angle_alpha	113.253857
_cell_angle_beta	66.219990
_cell_angle_gamma	112.758327
loop_
_atom_site_label
_atom_site_type_symbol
_atom_site_fract_x
_atom_site_fract_y
_atom_site_fract_z
O1	O	0.005016	-0.570216	-0.583573
O2	O	-0.034529	-0.474528	-0.453458
O3	O	0.114723	-0.474535	-0.528082
O4	O	-0.144235	-0.570209	-0.508949
O5	O	0.108729	-0.346329	-0.530229
O6	O	-0.040523	-0.346322	-0.455605
O7	O	-0.000977	-0.442010	-0.585721
Zn8	Zn	-0.021701	-0.373810	-0.521004
Zn9	Zn	-0.013805	-0.542728	-0.518175
O10	O	-0.150229	-0.442003	-0.511097
C11	C	0.005100	-0.790970	-0.238461
C12	C	0.009223	-0.693065	-0.217557
C13	C	0.003804	-0.645758	-0.241627
C14	C	-0.075059	-0.538459	-0.266316
C15	C	0.049838	-0.422849	-0.250165
C16	C	-0.040584	-0.395375	-0.435637
C17	C	-0.044693	-0.353446	-0.386631
C18	C	-0.039275	-0.401741	-0.363054
C19	C	-0.040566	-0.125547	-0.300731
C20	C	-0.044689	-0.223451	-0.321635
C21	C	-0.039266	-0.270752	-0.297563
C22	C	0.039597	-0.378051	-0.272874
C23	C	-0.085304	-0.493667	-0.289026
C24	C	0.005118	-0.521142	-0.103554
C25	C	0.009231	-0.563064	-0.152559
C26	C	0.003809	-0.514775	-0.176138
C27	C	0.010758	-0.652581	-0.172822
C28	C	0.001010	-0.556371	-0.220792
C29	C	-0.008251	-0.506059	-0.245823
C30	C	-0.046224	-0.263935	-0.366370
C31	C	-0.036476	-0.360146	-0.318399
C32	C	-0.027211	-0.410451	-0.293367
C33	C	0.815184	-0.521162	-0.508596
C34	C	0.717729	-0.563083	-0.506815
C35	C	0.669923	-0.514793	-0.509201
C36	C	0.564072	-0.463272	-0.548285
C37	C	0.445555	-0.498966	-0.486078
C38	C	0.415541	-0.125553	-0.528781
C39	C	0.375032	-0.223457	-0.531493
C40	C	0.423813	-0.270761	-0.529101
C41	C	0.149318	-0.395376	-0.530584
C42	C	0.246774	-0.353455	-0.532364
C43	C	0.294574	-0.401748	-0.529976
C44	C	0.400424	-0.453269	-0.490892
C45	C	0.518948	-0.417572	-0.553101
C46	C	0.548961	-0.790984	-0.510398
C47	C	0.589464	-0.693083	-0.507684
C48	C	0.540690	-0.645776	-0.510078
C49	C	0.678399	-0.652598	-0.506649
C50	C	0.581167	-0.556389	-0.510877
C51	C	0.530434	-0.506073	-0.515170
C52	C	0.286104	-0.263940	-0.532530
C53	C	0.383336	-0.360149	-0.528302
C54	C	0.434062	-0.410467	-0.524008
C55	C	-0.040530	-0.395407	-0.935652
C56	C	-0.044651	-0.353482	-0.886645
C57	C	-0.039242	-0.401770	-0.863061
C58	C	0.039602	-0.453292	-0.810474
C59	C	-0.085288	-0.417587	-0.750981
C60	C	0.005063	-0.791004	-0.738448
C61	C	0.009186	-0.693099	-0.717543
C62	C	0.003779	-0.645796	-0.741620
C63	C	0.005077	-0.521171	-0.603544
C64	C	0.009198	-0.563096	-0.652550
C65	C	0.003786	-0.514804	-0.676131
C66	C	-0.075058	-0.463283	-0.728717
C67	C	0.049835	-0.498991	-0.788214
C68	C	-0.040516	-0.125574	-0.800747
C69	C	-0.044642	-0.223476	-0.821649
C70	C	-0.039232	-0.270782	-0.797575
C71	C	-0.046172	-0.263965	-0.866386
C72	C	-0.036447	-0.360171	-0.818406
C73	C	-0.027197	-0.410486	-0.793373
C74	C	0.010719	-0.652613	-0.672809
C75	C	0.000994	-0.556406	-0.720789
C76	C	-0.008259	-0.506089	-0.745819
O77	O	-0.000965	0.173549	-0.277957
O78	O	-0.040516	-0.085616	-0.325254
O79	O	0.108737	0.059592	-0.327284
O80	O	-0.150219	0.028341	-0.275927
O81	O	0.114753	0.055151	-0.263265
O82	O	-0.034500	-0.090057	-0.261234
O83	O	0.005051	0.169108	-0.213937
Zn84	Zn	-0.013769	0.038820	-0.227421
Zn85	Zn	-0.021696	0.044672	-0.311770
O86	O	-0.144202	0.023900	-0.211907
O87	O	-0.034458	-0.474571	0.046517
O88	O	0.005076	-0.570190	-0.083599
O89	O	-0.144170	-0.570237	-0.008972
O90	O	0.114787	-0.474523	-0.028110
O91	O	-0.150200	-0.442024	-0.011093
O92	O	-0.000954	-0.441976	-0.085720
O93	O	-0.040488	-0.346357	0.044396
Zn94	Zn	-0.021679	-0.373810	-0.020999
Zn95	Zn	-0.013734	-0.542737	-0.018204
O96	O	0.108757	-0.346309	-0.030231
C97	C	-0.850734	0.086244	-0.289716
C98	C	-0.753280	0.087165	-0.312001
C99	C	-0.705462	0.081107	-0.288506
C100	C	-0.599592	0.000085	-0.264184
C101	C	-0.481080	0.121287	-0.283645
C102	C	-0.450996	0.035117	-0.097351
C103	C	-0.410501	0.028587	-0.146852
C104	C	-0.459292	0.034683	-0.169840
C105	C	-0.184802	0.024283	-0.235878
C106	C	-0.282257	0.023363	-0.213592
C107	C	-0.330068	0.029423	-0.237088
C108	C	-0.435938	0.110445	-0.261411
C109	C	-0.554456	-0.010759	-0.241948
C110	C	-0.584541	0.075410	-0.428242
C111	C	-0.625029	0.081943	-0.378743
C112	C	-0.576244	0.075844	-0.355753
C113	C	-0.713963	0.086424	-0.357292
C114	C	-0.616708	0.075351	-0.310510
C115	C	-0.565963	0.065400	-0.286043
C116	C	-0.321573	0.024104	-0.168302
C117	C	-0.418828	0.035176	-0.215083
C118	C	-0.469568	0.045131	-0.239552
O119	O	0.585213	0.169090	-0.504004
O120	O	0.494056	-0.090076	-0.525516
O121	O	0.488081	0.055124	-0.449918
O122	O	0.591189	0.023889	-0.579602
O123	O	0.359978	0.059584	-0.452885
O124	O	0.365953	-0.085616	-0.528483
O125	O	0.457110	0.173550	-0.506971
Zn126	Zn	0.391193	0.044675	-0.518198
Zn127	Zn	0.559974	0.038798	-0.514289
O128	O	0.463086	0.028349	-0.582569
C129	C	0.815354	-0.521094	-0.008709
C130	C	0.717898	-0.563028	-0.006927
C131	C	0.670072	-0.514739	-0.009298
C132	C	0.564182	-0.463204	-0.048354
C133	C	0.445681	-0.498945	0.013847
C134	C	0.415547	-0.125494	-0.028771
C135	C	0.375059	-0.223405	-0.031498
C136	C	0.423859	-0.270708	-0.029121
C137	C	0.149365	-0.395355	-0.030599
C138	C	0.246820	-0.353421	-0.032381
C139	C	0.294640	-0.401713	-0.030008
C140	C	0.400530	-0.453248	0.009048
C141	C	0.519038	-0.417504	-0.053155
C142	C	0.549171	-0.790955	-0.010537
C143	C	0.589653	-0.693047	-0.007809
C144	C	0.540859	-0.645741	-0.010187
C145	C	0.678588	-0.652551	-0.006775
C146	C	0.581317	-0.556344	-0.010973
C147	C	0.530562	-0.506029	-0.015250
C148	C	0.286131	-0.263897	-0.032533
C149	C	0.383402	-0.360104	-0.028335
C150	C	0.434150	-0.410423	-0.024057
O151	O	-0.620614	0.089309	0.052274
O152	O	-0.529507	0.043784	-0.078544
O153	O	-0.523494	0.194833	-0.006033
O154	O	-0.626628	-0.061740	-0.020236
O155	O	-0.395386	0.185419	-0.005549
O156	O	-0.401400	0.034370	-0.078059
O157	O	-0.492507	0.079895	0.052758
Zn158	Zn	-0.426614	0.055638	-0.012574
Zn159	Zn	-0.595401	0.068041	-0.013212
O160	O	-0.498521	-0.071154	-0.019752
C161	C	-0.437537	0.048335	0.402491
C162	C	-0.397043	0.041789	0.352989
C163	C	-0.445822	0.047883	0.329994
C164	C	-0.496646	0.126653	0.277022
C165	C	-0.465894	-0.000633	0.218811
C166	C	-0.837226	0.099430	0.210091
C167	C	-0.739773	0.100339	0.187806
C168	C	-0.691967	0.094287	0.211308
C169	C	-0.571027	0.088563	0.071568
C170	C	-0.611521	0.095108	0.121070
C171	C	-0.562739	0.089011	0.144061
C172	C	-0.511915	0.010241	0.197033
C173	C	-0.542670	0.137531	0.255247
C174	C	-0.171338	0.037467	0.263967
C175	C	-0.268788	0.036555	0.286249
C176	C	-0.316597	0.042611	0.262750
C177	C	-0.308112	0.037305	0.331542
C178	C	-0.405351	0.048369	0.284750
C179	C	-0.456092	0.058317	0.260279
C180	C	-0.700452	0.099593	0.142516
C181	C	-0.603213	0.088528	0.189308
C182	C	-0.552469	0.078578	0.213776
O183	O	-0.040608	-1.085661	-0.825229
O184	O	-0.001018	-0.826491	-0.777938
O185	O	-0.150287	-0.971682	-0.775894
O186	O	0.108661	-0.940470	-0.827272
O187	O	-0.144253	-0.976123	-0.711878
O188	O	0.005016	-0.830932	-0.713922
O189	O	-0.034575	-1.090102	-0.761213
Zn190	Zn	-0.013821	-0.961222	-0.727403
Zn191	Zn	-0.021771	-0.955371	-0.811747
O192	O	0.114695	-0.944911	-0.763256
O193	O	-0.036862	-0.230384	-0.253947
C194	C	-0.115987	-0.202041	-0.227222
H195	H	-0.171766	-0.243574	-0.244184
H196	H	-0.138525	-0.211820	-0.192195
H197	H	-0.101653	-0.127812	-0.223676
H198	H	0.634201	-0.467612	-0.072637
O199	O	0.097545	-0.296181	-0.276264
C200	C	0.161696	-0.272536	-0.253620
H201	H	0.167349	-0.336059	-0.251394
H202	H	0.230236	-0.235693	-0.273190
H203	H	0.139381	-0.226738	-0.217968
O204	O	-0.428119	-0.070596	0.200039
C205	C	-0.384269	-0.067457	0.228877
H206	H	-0.414791	-0.028024	0.264993
H207	H	-0.393434	-0.138880	0.228136
H208	H	-0.309127	-0.032931	0.216820
O209	O	0.118340	-0.539038	-0.807409
C210	C	0.174746	-0.502404	-0.779173
H211	H	0.135185	-0.472455	-0.742918
H212	H	0.199341	-0.557707	-0.780042
H213	H	0.235320	-0.447429	-0.791726
O214	O	0.454090	-0.686276	-0.511684
C215	C	0.452376	-0.761411	-0.550357
H216	H	0.514897	-0.785562	-0.561503
H217	H	0.389077	-0.817865	-0.541849
H218	H	0.451766	-0.741563	-0.578990
H219	H	-0.283673	0.042875	0.225734
O220	O	-0.132935	-0.468715	-0.687014
C221	C	-0.177544	-0.559802	-0.688430
H222	H	-0.135267	-0.604284	-0.717828
H223	H	-0.187039	-0.570722	-0.655207
H224	H	-0.246395	-0.578053	-0.693399
O225	O	-0.744826	0.080623	-0.244372
C226	C	-0.821987	0.006453	-0.240933
H227	H	-0.815525	-0.047521	-0.275000
H228	H	-0.828002	-0.022307	-0.213939
H229	H	-0.884827	0.029211	-0.231080
O230	O	0.557149	-0.377437	-0.087142
C231	C	0.642848	-0.392740	-0.112544
H232	H	0.645819	-0.455358	-0.108138
H233	H	0.654689	-0.403108	-0.149934
H234	H	0.697333	-0.332131	-0.100104
O235	O	0.001361	-0.686217	-0.785232
C236	C	0.080516	-0.714507	-0.811956
H237	H	0.110362	-0.723052	-0.789310
H238	H	0.063330	-0.781490	-0.838280
H239	H	0.131861	-0.661859	-0.829887
O240	O	0.118408	-0.386277	-0.231111
C241	C	0.174779	-0.444307	-0.250185
H242	H	0.166979	-0.489307	-0.284917
H243	H	0.248134	-0.402686	-0.254012
H244	H	0.154810	-0.487852	-0.227051
O245	O	0.238036	-0.216289	-0.033844
C246	C	0.281821	-0.186166	-0.073051
H247	H	0.326632	-0.231154	-0.099633
H248	H	0.229096	-0.189139	-0.087217
H249	H	0.325141	-0.113849	-0.064008
O250	O	0.647597	-0.468671	-0.577217
C251	C	0.680319	-0.519278	-0.565358
H252	H	0.621001	-0.565060	-0.545637
H253	H	0.719952	-0.561974	-0.597460
H254	H	0.726464	-0.471724	-0.543389
O255	O	-0.290821	0.029578	-0.281271
C256	C	-0.265315	-0.050930	-0.307266
H257	H	-0.307875	-0.105068	-0.288962
H258	H	-0.276655	-0.074108	-0.341830
H259	H	-0.190794	-0.038714	-0.312025
O260	O	-0.153781	-0.377495	-0.731642
C261	C	-0.204411	-0.392864	-0.688911
H262	H	-0.160813	-0.407949	-0.675553
H263	H	-0.227066	-0.330422	-0.664219
H264	H	-0.266292	-0.452646	-0.692406
O265	O	-0.580570	0.207418	0.274116
C266	C	-0.674756	0.173789	0.281267
H267	H	-0.697844	0.101870	0.283471
H268	H	-0.710717	0.217863	0.314277
H269	H	-0.691869	0.174438	0.251838
H270	H	-0.267732	0.034117	0.350946
H271	H	0.413699	-0.532573	-0.457601
H272	H	-0.586315	-0.066836	-0.224702
O273	O	-0.532399	0.053523	0.351399
C274	C	-0.534069	0.130920	0.388987
H275	H	-0.464774	0.181784	0.383635
H276	H	-0.586984	0.162106	0.392665
H277	H	-0.551799	0.111456	0.421057
H278	H	-0.489994	0.175891	0.311254
H279	H	-0.037104	-0.474911	-0.880014
O280	O	0.709247	-0.427503	-0.509827
C281	C	0.734704	-0.376202	-0.469906
H282	H	0.743054	-0.422306	-0.455292
H283	H	0.801443	-0.323085	-0.478142
H284	H	0.680203	-0.341733	-0.444004
O285	O	-0.683138	-0.055627	-0.265625
C286	C	-0.707868	-0.118506	-0.241797
H287	H	-0.668062	-0.090304	-0.216322
H288	H	-0.783297	-0.132033	-0.223053
H289	H	-0.692243	-0.184027	-0.266746
O290	O	0.726556	-0.700110	-0.505311
C291	C	0.753935	-0.658014	-0.465608
H292	H	0.706923	-0.615241	-0.439061
H293	H	0.750908	-0.711517	-0.451800
H294	H	0.826111	-0.613246	-0.473858
H295	H	0.550810	-0.383955	-0.581575
O296	O	0.013689	-0.700230	-0.648998
C297	C	-0.062996	-0.702885	-0.610548
H298	H	-0.119244	-0.691395	-0.616645
H299	H	-0.087004	-0.771450	-0.604187
H300	H	-0.044748	-0.647958	-0.579723
O301	O	-0.352430	0.166210	-0.259940
C302	C	-0.327689	0.229055	-0.283790
H303	H	-0.391125	0.236349	-0.285235
H304	H	-0.288499	0.297037	-0.265680
H305	H	-0.283436	0.204598	-0.319738
O306	O	-0.036827	-0.230422	-0.753959
C307	C	-0.115947	-0.202074	-0.727227
H308	H	-0.171732	-0.243598	-0.744186
H309	H	-0.138479	-0.211861	-0.692202
H310	H	-0.101610	-0.127843	-0.723677
O311	O	0.001203	-0.427527	-0.155979
C312	C	-0.004227	-0.393587	-0.186811
H313	H	-0.033486	-0.451829	-0.213645
H314	H	-0.049818	-0.346321	-0.167822
H315	H	0.066230	-0.355165	-0.203897
O316	O	0.316929	-0.448107	0.037950
C317	C	0.253883	-0.486723	0.013161
H318	H	0.280915	-0.535956	-0.020340
H319	H	0.187071	-0.524055	0.033663
H320	H	0.242681	-0.431386	0.006117
O321	O	0.097510	-0.448137	-0.852211
C322	C	0.161689	-0.495122	-0.864890
H323	H	0.133103	-0.547157	-0.845339
H324	H	0.177737	-0.530558	-0.902842
H325	H	0.226123	-0.445644	-0.856744
O326	O	0.510430	-0.230464	-0.527497
C327	C	0.516961	-0.230992	-0.487051
H328	H	0.459550	-0.287413	-0.474006
H329	H	0.584562	-0.242393	-0.493973
H330	H	0.512055	-0.163599	-0.460469
H331	H	0.013390	-0.692483	-0.152899
H332	H	-0.048864	-0.224020	-0.386283
H333	H	0.245727	-0.224039	-0.533582
H334	H	0.001650	-0.679613	-0.278166
O335	O	0.510476	-0.230401	-0.027518
C336	C	0.517022	-0.230951	0.012920
H337	H	0.459623	-0.287387	0.025958
H338	H	0.584632	-0.242342	0.005990
H339	H	0.512105	-0.163569	0.039512
H340	H	-0.449229	0.177371	-0.300885
H341	H	-0.740818	0.102779	0.123104
H342	H	-0.531920	0.039247	-0.151930
O343	O	-0.731326	0.093816	0.255445
C344	C	-0.808492	0.019653	0.258888
H345	H	-0.802039	-0.034327	0.224823
H346	H	-0.814507	-0.009104	0.285884
H347	H	-0.871329	0.042417	0.268743
H348	H	-0.490116	0.084434	0.126151
O349	O	-0.273345	0.020181	-0.145217
C350	C	-0.246160	-0.060075	-0.166555
H351	H	-0.245245	-0.085233	-0.203576
H352	H	-0.175576	-0.046610	-0.164748
H353	H	-0.295675	-0.113277	-0.148597
O354	O	0.454261	-0.686124	-0.011812
C355	C	0.447713	-0.685536	-0.052242
H356	H	0.517138	-0.679158	-0.078575
H357	H	0.398547	-0.750925	-0.065709
H358	H	0.422158	-0.626053	-0.045133
H359	H	-0.123560	-0.607102	-0.263443
O360	O	0.001399	-0.427502	-0.655920
C361	C	0.080528	-0.376202	-0.642823
H362	H	0.136296	-0.411652	-0.664341
H363	H	0.103082	-0.306761	-0.648025
H364	H	0.066193	-0.368710	-0.605514
O365	O	-0.489647	0.070282	-0.377182
C366	C	-0.487950	-0.007119	-0.414769
H367	H	-0.550481	-0.027719	-0.425990
H368	H	-0.424661	0.008174	-0.443858
H369	H	-0.487334	-0.064398	-0.404853
H370	H	-0.142704	-0.524425	-0.305055
H371	H	-0.037138	-0.474881	-0.380005
H372	H	0.261721	-0.474856	-0.029430
H373	H	0.261638	-0.474883	-0.529387
H374	H	-0.518563	-0.039000	0.162804
O375	O	-0.049141	-0.216271	-0.890159
C376	C	0.027547	-0.141451	-0.892531
H377	H	0.083796	-0.155164	-0.887546
H378	H	0.051554	-0.129391	-0.927142
H379	H	0.009307	-0.079299	-0.864825
H380	H	-0.754334	0.089615	-0.376700
O381	O	0.316911	-0.448068	-0.461886
C382	C	0.292156	-0.495100	-0.430128
H383	H	0.355586	-0.499701	-0.427330
H384	H	0.252950	-0.457827	-0.395610
H385	H	0.247913	-0.565803	-0.441763
H386	H	0.413839	-0.532573	0.042316
H387	H	0.718963	-0.692464	-0.005731
H388	H	0.702991	-0.441593	-0.009870
