data_functionalizedCrystal
_audit_creation_method	'MofGen! by Chris Wilmer'
_symmetry_space_group_name_H-M	'P1'
_symmetry_Int_Tables_number	1
_symmetry_cell_setting	triclinic
loop_
_symmetry_equiv_pos_as_xyz
  x,y,z
_cell_length_a	14.044191
_cell_length_b	15.995350
_cell_length_c	12.503572
_cell_angle_alpha	93.525550
_cell_angle_beta	86.162165
_cell_angle_gamma	88.342076
loop_
_atom_site_label
_atom_site_type_symbol
_atom_site_fract_x
_atom_site_fract_y
_atom_site_fract_z
O1	O	1.263171	0.197459	-0.089258
O2	O	0.987202	0.190168	-0.089272
O3	O	1.132730	0.072489	-0.089264
O4	O	1.117643	0.315137	-0.089267
O5	O	1.121785	0.081355	0.089377
O6	O	0.976257	0.199034	0.089369
O7	O	1.252226	0.206325	0.089383
Cu8	Cu	1.113242	0.203489	0.105687
Cu9	Cu	1.126186	0.193004	-0.105577
O10	O	1.106698	0.324003	0.089375
C11	C	0.946415	0.191411	0.000046
C12	C	0.841190	0.181898	0.000041
C13	C	0.590903	0.231977	0.000051
C14	C	0.648532	0.164519	0.000050
C15	C	0.755736	0.174191	0.000045
C16	C	0.483688	0.222306	0.000056
C17	C	1.126634	0.045681	0.000055
C18	C	1.124765	-0.047410	0.000048
C19	C	1.118049	-0.385659	0.000052
C20	C	1.014431	-0.345988	-0.000354
C21	C	1.016276	-0.249138	0.000049
C22	C	1.121380	-0.217849	0.000049
C23	C	1.166250	-0.250045	0.102063
C24	C	1.163641	-0.346871	0.102148
C25	C	1.178229	-0.357151	-0.101000
C26	C	1.178287	-0.260275	-0.102348
C27	C	1.123268	-0.123011	0.000052
C28	C	1.116163	-0.480497	0.000057
C29	C	1.293013	0.205081	0.000062
C30	C	1.398239	0.214594	0.000060
C31	C	1.112794	0.350811	0.000054
C32	C	1.114664	0.443902	0.000053
N33	N	1.104146	0.210864	0.254279
N34	N	1.135290	0.185623	-0.254168
C35	C	1.090764	0.221719	0.473394
C36	C	1.148668	0.174770	0.526724
C37	C	1.141223	0.180810	0.648647
C38	C	1.098209	0.215680	0.351460
H39	H	0.617361	0.099499	-0.000025
C40	C	1.223221	0.114369	0.464712
H41	H	1.218528	0.118196	0.389713
H42	H	1.211749	0.058618	0.483061
H43	H	1.285394	0.129055	0.483090
C44	C	1.016225	0.282126	0.535400
H45	H	0.980860	0.310782	0.485909
H46	H	1.047736	0.321636	0.579284
H47	H	0.974073	0.251213	0.579259
C48	C	0.633013	0.319801	0.000034
H49	H	0.700588	0.314860	0.000020
H50	H	0.608415	0.352461	0.062324
H51	H	0.616035	0.346258	-0.062276
C52	C	1.111997	-0.210213	0.204619
H53	H	1.061995	-0.173962	0.185487
H54	H	1.154736	-0.179044	0.245897
H55	H	1.085766	-0.253069	0.245735
C56	C	0.968031	-0.219695	-0.098728
H57	H	0.947121	-0.266954	-0.139461
H58	H	1.012441	-0.190426	-0.141891
H59	H	0.914744	-0.183553	-0.075762
H60	H	0.977488	-0.371246	-0.073510
H61	H	0.968733	-0.365053	0.072390
C62	C	0.955579	-0.210661	0.099007
H63	H	0.929703	-0.254229	0.139125
H64	H	0.905099	-0.176694	0.076265
H65	H	0.994500	-0.177332	0.142702
C66	C	1.106962	-0.370249	0.205153
H67	H	1.085741	-0.320598	0.246549
H68	H	1.146809	-0.403031	0.245942
H69	H	1.053350	-0.401527	0.186509
H70	H	1.239451	-0.373204	0.106778
H71	H	1.145535	-0.239564	-0.177815
C72	C	1.270250	-0.222922	0.107199
H73	H	1.296000	-0.243049	0.169476
H74	H	1.271879	-0.163498	0.110256
H75	H	1.307037	-0.245505	0.045033
C76	C	1.138850	-0.393495	-0.205454
H77	H	1.085332	-0.426397	-0.188409
H78	H	1.187023	-0.427530	-0.245286
H79	H	1.119876	-0.348971	-0.247096
C80	C	1.282341	-0.232207	-0.110670
H81	H	1.292487	-0.194082	-0.051536
H82	H	1.294358	-0.205494	-0.175779
H83	H	1.324376	-0.279736	-0.109803
C84	C	1.281511	-0.392397	-0.101937
H85	H	1.287967	-0.424334	-0.041080
H86	H	1.324198	-0.347424	-0.099699
H87	H	1.296076	-0.427196	-0.165604
