data_functionalizedCrystal
_audit_creation_method	'MofGen! by Chris Wilmer'
_symmetry_space_group_name_H-M	'P1'
_symmetry_Int_Tables_number	1
_symmetry_cell_setting	triclinic
loop_
_symmetry_equiv_pos_as_xyz
  x,y,z
_cell_length_a	14.853567
_cell_length_b	16.109318
_cell_length_c	15.186229
_cell_angle_alpha	90.002030
_cell_angle_beta	89.996484
_cell_angle_gamma	83.551747
loop_
_atom_site_label
_atom_site_type_symbol
_atom_site_fract_x
_atom_site_fract_y
_atom_site_fract_z
O1	O	0.115950	1.103288	0.073148
O2	O	0.130355	0.861248	0.073165
O3	O	-0.008087	0.988733	0.073158
O4	O	0.254393	0.975803	0.073154
O5	O	-0.008080	0.988718	-0.073299
O6	O	0.130363	0.861233	-0.073293
O7	O	0.115958	1.103273	-0.073309
Zn8	Zn	0.123162	0.982251	-0.096554
Zn9	Zn	0.123151	0.982270	0.096410
O10	O	0.254400	0.975788	-0.073303
C11	C	0.129773	0.830265	-0.000062
C12	C	0.128015	0.737968	-0.000055
C13	C	0.122334	0.438894	0.079764
C14	C	0.123980	0.525618	0.079769
C15	C	0.123976	0.525621	-0.079907
C16	C	0.122324	0.438899	-0.079911
C17	C	0.121508	0.395538	-0.000073
C18	C	0.124805	0.568983	-0.000064
C19	C	0.126589	0.663012	-0.000058
C20	C	0.119722	0.301503	-0.000078
C21	C	-0.041671	0.988140	-0.000068
C22	C	-0.141752	0.986384	-0.000060
C23	C	-0.554154	0.903233	-0.000071
C24	C	-0.575675	1.054689	-0.000081
C25	C	-0.481644	1.056339	-0.000076
C26	C	-0.423864	0.981436	-0.000070
C27	C	-0.460114	0.904882	-0.000068
C28	C	-0.445386	1.132892	-0.000087
C29	C	-0.351350	1.134546	-0.000082
C30	C	-0.293567	1.059642	-0.000070
C31	C	-0.329823	0.983085	-0.000067
C32	C	-0.272043	0.908181	-0.000061
C33	C	-0.308297	0.831623	-0.000052
C34	C	-0.402332	0.829978	-0.000056
C35	C	-0.199533	1.061287	-0.000066
C36	C	-0.178003	0.909830	-0.000058
C37	C	0.287984	0.976381	-0.000075
C38	C	0.388065	0.978137	-0.000077
C39	C	0.116540	1.134256	-0.000081
C40	C	0.118298	1.226553	-0.000082
N41	N	0.123168	0.982243	-0.228247
C42	C	0.177854	1.032743	-0.453974
C43	C	0.177847	1.032752	-0.546164
C44	C	0.068446	0.931782	-0.546164
C45	C	0.068448	0.931778	-0.453976
C46	C	0.123157	0.982257	-0.407884
C47	C	0.123149	0.982270	-0.592261
C48	C	0.123141	0.982280	-0.692217
C49	C	0.123164	0.982249	-0.307921
N50	N	0.123138	0.982284	0.228102
H51	H	0.124642	0.560936	-0.144908
H52	H	0.023905	0.890683	-0.583703
H53	H	0.124651	0.560915	0.144780
F54	F	-0.116515	0.830105	-0.000045
H55	H	0.121650	0.403598	-0.144928
F56	F	0.236061	1.086488	-0.595213
H57	H	0.222401	1.073847	-0.416449
F58	F	-0.246792	0.751908	-0.000052
F59	F	-0.440923	0.748506	-0.000044
H60	H	0.023903	0.890665	-0.416448
H61	H	-0.622725	1.115671	-0.000094
F62	F	0.121462	0.392749	0.164734
H63	H	-0.583677	0.840902	-0.000060
H64	H	-0.492437	1.193874	-0.000100
H65	H	-0.321840	1.196884	-0.000088
F66	F	-0.160952	1.142760	-0.000090
