data_functionalizedCrystal
_audit_creation_method	'MofGen! by Chris Wilmer'
_symmetry_space_group_name_H-M	'P1'
_symmetry_Int_Tables_number	1
_symmetry_cell_setting	triclinic
loop_
_symmetry_equiv_pos_as_xyz
  x,y,z
_cell_length_a	17.640280
_cell_length_b	19.805407
_cell_length_c	19.805399
_cell_angle_alpha	90.016886
_cell_angle_beta	78.776044
_cell_angle_gamma	101.199888
loop_
_atom_site_label
_atom_site_type_symbol
_atom_site_fract_x
_atom_site_fract_y
_atom_site_fract_z
Zn1	Zn	-0.314670	-1.089264	-0.328319
Zn2	Zn	0.185330	-0.589264	0.171681
Zn3	Zn	-0.446848	-1.112096	-0.192280
Zn4	Zn	0.053152	-0.612096	0.307720
Zn5	Zn	-0.314695	-0.976088	-0.215139
Zn6	Zn	0.185305	-0.476088	0.284861
Zn7	Zn	-0.446803	-0.998946	-0.305434
Zn8	Zn	0.053197	-0.498946	0.194566
O9	O	-0.380754	-1.044098	-0.260293
O10	O	0.119246	-0.544098	0.239707
O11	O	-0.332212	-1.187010	-0.310284
O12	O	0.167788	-0.687010	0.189716
O13	O	-0.429347	-1.094043	-0.100590
O14	O	0.070653	-0.594043	0.399410
O15	O	-0.204088	-0.971979	-0.249297
O16	O	0.295912	-0.471979	0.250703
O17	O	-0.429323	-1.203785	-0.210336
O18	O	0.070677	-0.703785	0.289664
O19	O	-0.204069	-1.055129	-0.332450
O20	O	0.295931	-0.555129	0.167550
O21	O	-0.332255	-0.994119	-0.117385
O22	O	0.167745	-0.494119	0.382615
O23	O	-0.332211	-0.884402	-0.227106
O24	O	0.167789	-0.384402	0.272894
O25	O	-0.429246	-1.010938	-0.403192
O26	O	0.070754	-0.510938	0.096808
O27	O	-0.429270	-0.901196	-0.293446
O28	O	0.070730	-0.401196	0.206554
O29	O	-0.332168	-1.077294	-0.420005
O30	O	0.167832	-0.577294	0.079995
O31	O	-0.557446	-1.116208	-0.188146
O32	O	-0.057446	-0.616208	0.311854
O33	O	-0.557413	-1.033077	-0.271280
O34	O	-0.057413	-0.533077	0.228720
C35	C	-0.380739	-0.868240	-0.260274
C36	C	0.119261	-0.368240	0.239726
C37	C	-0.380751	-0.793010	-0.260278
C38	C	0.119249	-0.293010	0.239722
C39	C	-0.586108	-1.079619	-0.224764
C40	C	-0.086108	-0.579619	0.275236
C41	C	-0.673959	-1.094876	-0.209587
C42	C	-0.173959	-0.594876	0.290413
C43	C	-0.380699	-1.044118	-0.436845
C44	C	0.119301	-0.544118	0.063155
C45	C	-0.380676	-1.044127	-0.512081
C46	C	0.119324	-0.544127	-0.012081
C47	C	-0.962942	-0.928465	-0.375837
C48	C	-0.462942	-0.428465	0.124163
C49	C	-1.045492	-0.942803	-0.361554
C50	C	-0.545492	-0.442803	0.138446
C51	C	-1.045461	-1.029421	-0.275074
C52	C	-0.545461	-0.529421	0.224926
C53	C	-0.962910	-1.015092	-0.289352
C54	C	-0.462910	-0.515092	0.210648
C55	C	-0.921657	-0.964613	-0.339734
C56	C	-0.421657	-0.464613	0.160266
C57	C	-0.921624	-1.051240	-0.253249
C58	C	-0.421624	-0.551240	0.246751
C59	C	-0.839080	-1.036910	-0.267523
C60	C	-0.339080	-0.536910	0.232477
C61	C	-0.797821	-0.986431	-0.317901
C62	C	-0.297821	-0.486431	0.182099
C63	C	-0.839113	-0.950282	-0.354008
C64	C	-0.339113	-0.450282	0.145992
C65	C	-0.962879	-1.101716	-0.202864
C66	C	-0.462879	-0.601716	0.297136
C67	C	-0.921593	-1.137864	-0.166761
C68	C	-0.421593	-0.637864	0.333239
C69	C	-0.839048	-1.123537	-0.181038
C70	C	-0.339048	-0.623537	0.318962
C71	C	-0.797789	-1.073059	-0.231416
C72	C	-0.297789	-0.573059	0.268584
C73	C	-0.797756	-1.159686	-0.144931
C74	C	-0.297756	-0.659686	0.355069
C75	C	-0.715212	-1.145356	-0.159205
C76	C	-0.215212	-0.645356	0.340795
C77	C	-0.715245	-1.058728	-0.245690
C78	C	-0.215245	-0.558728	0.254310
C79	C	-0.174598	-1.008457	-0.295976
C80	C	0.325402	-0.508457	0.204024
C81	C	-0.086747	-0.993270	-0.311182
C82	C	0.413253	-0.493270	0.188818
C83	C	-0.380770	-1.220644	-0.260313
C84	C	0.119230	-0.720644	0.239687
C85	C	-0.380776	-1.295877	-0.260321
C86	C	0.119224	-0.795877	0.239679
C87	C	-0.431366	-0.766441	-0.294738
C88	C	0.068634	-0.266441	0.205262
C89	C	-0.431367	-0.695753	-0.294747
C90	C	0.068633	-0.195753	0.205253
C91	C	-0.380758	-0.651635	-0.260292
C92	C	0.119242	-0.151635	0.239708
C93	C	-0.330137	-0.678208	-0.225832
C94	C	0.169863	-0.178208	0.274168
C95	C	-0.330133	-0.748894	-0.225827
C96	C	0.169867	-0.248894	0.274173
C97	C	-0.330155	-0.393138	-0.225851
C98	C	0.169845	0.106862	0.274149
C99	C	-0.330165	-0.322447	-0.225857
C100	C	0.169835	0.177553	0.274143
C101	C	-0.431390	-0.339996	-0.294771
C102	C	0.068610	0.160004	0.205229
C103	C	-0.431385	-0.410683	-0.294767
C104	C	0.068615	0.089317	0.205233
C105	C	-0.380762	-0.437249	-0.260309
C106	C	0.119238	0.062751	0.239691
C107	C	-0.380760	-0.513897	-0.260301
C108	C	0.119240	-0.013897	0.239699
C109	C	-0.380763	-0.574989	-0.260296
C110	C	0.119237	-0.074989	0.239704
C111	C	-0.330115	-0.992108	-0.556171
C112	C	0.169885	-0.492108	-0.056171
C113	C	-0.330100	-0.992115	-0.626862
C114	C	0.169900	-0.492115	-0.126862
C115	C	-0.380642	-1.044144	-0.653463
C116	C	0.119358	-0.544144	-0.153463
C117	C	-0.431208	-1.096166	-0.609367
C118	C	0.068792	-0.596166	-0.109367
C119	C	-0.431227	-1.096156	-0.538677
C120	C	0.068773	-0.596156	-0.038677
C121	C	-0.431134	-1.096207	-0.894454
C122	C	0.068866	-0.596207	-0.394454
C123	C	-0.431109	-1.096214	-0.965150
C124	C	0.068891	-0.596214	-0.465150
C125	C	-0.330007	-0.992165	-0.982639
C126	C	0.169993	-0.492165	-0.482639
C127	C	-0.330026	-0.992155	-0.911948
C128	C	0.169974	-0.492155	-0.411948
C129	C	-0.380595	-1.044175	-0.867859
C130	C	0.119405	-0.544175	-0.367859
C131	C	-0.380612	-1.044166	-0.791207
C132	C	0.119388	-0.544166	-0.291207
C133	C	-0.380621	-1.044156	-0.730114
C134	C	0.119379	-0.544156	-0.230114
C135	C	-0.380752	-1.044107	-0.084437
C136	C	0.119248	-0.544107	0.415563
C137	C	-0.380552	-1.044191	-0.009240
C138	C	0.119448	-0.544191	0.490760
H139	H	-0.681655	-1.017628	-0.286721
H140	H	-0.181655	-0.517628	0.213279
H141	H	-0.288931	-0.949753	-0.662757
H142	H	0.211069	-0.449753	-0.162757
H143	H	-0.472364	-1.138526	-0.631031
H144	H	0.027636	-0.638526	-0.131031
H145	H	-0.472581	-0.802358	-0.322792
H146	H	0.027419	-0.302358	0.177208
H147	H	-0.472606	-0.318358	-0.322831
H148	H	0.027394	0.181642	0.177169
H149	H	-0.681597	-1.174791	-0.129805
H150	H	-0.181597	-0.674791	0.370195
H151	H	-0.472584	-0.674125	-0.322807
H152	H	0.027416	-0.174125	0.177193
H153	H	-0.288913	-0.770524	-0.197771
H154	H	0.211087	-0.270524	0.302229
H155	H	-0.472599	-0.446601	-0.322820
H156	H	0.027401	0.053399	0.177180
H157	H	-0.929352	-0.887364	-0.416868
H158	H	-0.429352	-0.387364	0.083132
H159	H	-0.288941	-0.414760	-0.197788
H160	H	0.211059	0.085240	0.302212
H161	H	-0.955193	-1.178962	-0.125738
H162	H	-0.455193	-0.678962	0.374262
H163	H	-0.288948	-0.286527	-0.197800
H164	H	0.211052	0.213473	0.302200
H165	H	-0.288954	-0.949743	-0.534519
H166	H	0.211046	-0.449743	-0.034519
H167	H	-0.288927	-0.642281	-0.197781
H168	H	0.211073	-0.142281	0.302219
H169	H	-0.288867	-0.949790	-0.890295
H170	H	0.211133	-0.449790	-0.390295
H171	H	-0.288834	-0.949807	-1.018545
H172	H	0.211166	-0.449807	-0.518545
H173	H	-0.472270	-1.138584	-0.986805
H174	H	0.027730	-0.638584	-0.486805
H175	H	-0.831357	-1.200781	-0.103906
H176	H	-0.331357	-0.700781	0.396094
H177	H	-0.472392	-1.138519	-0.502780
H178	H	0.027608	-0.638519	-0.002780
H179	H	-0.730609	-0.974760	-0.329517
H180	H	-0.230609	-0.474760	0.170483
H181	H	-0.805523	-0.909182	-0.395039
H182	H	-0.305523	-0.409182	0.104961
H183	H	-1.079104	-0.913371	-0.390966
H184	H	-0.579104	-0.413371	0.109034
H185	H	-1.030092	-1.113383	-0.191245
H186	H	-0.530092	-0.613383	0.308755
H187	H	-1.079061	-1.070519	-0.234052
H188	H	-0.579061	-0.570519	0.265948
H189	H	-0.472319	-1.138558	-0.858562
H190	H	0.027681	-0.638558	-0.358562
