data_functionalizedCrystal
_audit_creation_method	'MofGen! by Chris Wilmer'
_symmetry_space_group_name_H-M	'P1'
_symmetry_Int_Tables_number	1
_symmetry_cell_setting	triclinic
loop_
_symmetry_equiv_pos_as_xyz
  x,y,z
_cell_length_a	14.044191
_cell_length_b	14.044220
_cell_length_c	7.088929
_cell_angle_alpha	83.206932
_cell_angle_beta	96.775604
_cell_angle_gamma	93.190327
loop_
_atom_site_label
_atom_site_type_symbol
_atom_site_fract_x
_atom_site_fract_y
_atom_site_fract_z
O1	O	1.268206	0.239180	-0.158906
O2	O	0.991533	0.230869	-0.158929
O3	O	1.125718	0.096688	-0.158899
O4	O	1.134021	0.373362	-0.158936
O5	O	1.143646	0.078712	0.159080
O6	O	1.009461	0.212893	0.159050
O7	O	1.286135	0.221204	0.159074
Cu8	Cu	1.149435	0.215407	0.188096
Cu9	Cu	1.128232	0.236666	-0.187952
O10	O	1.151950	0.355385	0.159043
C11	C	0.964875	0.218245	0.000057
C12	C	0.858731	0.207398	0.000049
C13	C	0.613273	0.264498	0.000060
C14	C	0.664399	0.187581	0.000067
C15	C	0.772536	0.198610	0.000057
C16	C	0.505127	0.253470	0.000070
C17	C	1.131046	0.052078	0.000091
C18	C	1.120202	-0.054065	0.000093
C19	C	1.100374	-0.248402	0.000063
C20	C	1.177289	-0.299530	0.000064
C21	C	1.166256	-0.407665	0.000048
C22	C	1.111405	-0.140256	0.000080
C23	C	1.312793	0.233829	0.000083
C24	C	1.418935	0.244676	0.000079
C25	C	1.146621	0.399996	0.000049
C26	C	1.157465	0.506140	0.000035
N27	N	1.164355	0.200455	0.452587
N28	N	1.113319	0.251612	-0.452443
H29	H	0.626949	0.113456	-0.000057
H30	H	1.060427	0.304625	0.465899
H31	H	0.650714	0.338625	0.000045
O32	O	1.234429	0.130229	0.560741
H33	H	1.233195	0.131466	0.716698
H34	H	1.251415	-0.262082	-0.000058
H35	H	1.026245	-0.285840	0.000052
