data_functionalizedCrystal
_audit_creation_method	'MofGen! by Chris Wilmer'
_symmetry_space_group_name_H-M	'P1'
_symmetry_Int_Tables_number	1
_symmetry_cell_setting	triclinic
loop_
_symmetry_equiv_pos_as_xyz
  x,y,z
_cell_length_a	23.532407
_cell_length_b	23.532407
_cell_length_c	22.010155
_cell_angle_alpha	90.000423
_cell_angle_beta	89.996931
_cell_angle_gamma	97.151322
loop_
_atom_site_label
_atom_site_type_symbol
_atom_site_fract_x
_atom_site_fract_y
_atom_site_fract_z
O1	O	0.755264	-0.069127	-0.050455
O2	O	1.255264	0.430873	0.449545
O3	O	0.589400	-0.079130	-0.050474
O4	O	1.089400	0.420870	0.449526
O5	O	0.677334	0.008803	-0.050453
O6	O	1.177334	0.508803	0.449547
O7	O	0.667330	-0.157060	-0.050476
O8	O	1.167330	0.342940	0.449524
O9	O	0.677318	0.008790	0.050597
O10	O	1.177318	0.508790	0.550597
O11	O	0.589384	-0.079143	0.050576
O12	O	1.089384	0.420857	0.550576
O13	O	0.755248	-0.069140	0.050595
O14	O	1.255248	0.430860	0.550595
Cu15	Cu	0.672315	-0.074143	0.059812
Cu16	Cu	1.172315	0.425857	0.559812
Cu17	Cu	0.672333	-0.074127	-0.059691
Cu18	Cu	1.172333	0.425873	0.440309
O19	O	0.667314	-0.157073	0.050574
O20	O	1.167314	0.342927	0.550574
C21	C	0.568176	-0.078882	0.000049
C22	C	1.068176	0.421118	0.500049
C23	C	0.504959	-0.078116	0.000042
C24	C	1.004959	0.421884	0.500042
C25	C	0.105856	-0.125350	0.000063
C26	C	0.605856	0.374650	0.500063
C27	C	0.046456	-0.124638	0.000067
C28	C	0.546456	0.375362	0.500067
O29	O	0.009711	-0.168424	0.000083
O30	O	0.509711	0.331576	0.500083
N31	N	0.023830	-0.072362	0.000073
N32	N	0.523830	0.427638	0.500073
C33	C	0.060607	-0.020794	0.000082
C34	C	0.560607	0.479206	0.500082
O35	O	0.035908	0.023737	0.000088
O36	O	0.535908	0.523737	0.500088
C37	C	0.120006	-0.021506	0.000082
C38	C	0.620006	0.478494	0.500082
C39	C	0.142629	-0.073785	0.000070
C40	C	0.642629	0.426215	0.500070
C41	C	0.128479	-0.177625	0.000051
C42	C	0.628479	0.322375	0.500051
C43	C	0.187876	-0.178336	0.000046
C44	C	0.687876	0.321664	0.500046
C45	C	0.224649	-0.126772	0.000053
C46	C	0.724649	0.373228	0.500053
C47	C	0.202025	-0.074497	0.000065
C48	C	0.702025	0.425503	0.500065
C49	C	0.156783	0.030062	0.000096
C50	C	0.656783	0.530062	0.500096
C51	C	0.216185	0.029345	0.000097
C52	C	0.716185	0.529345	0.500097
C53	C	0.238808	-0.022934	0.000084
C54	C	0.738808	0.477066	0.500084
C55	C	0.298194	-0.023643	0.000067
C56	C	0.798194	0.476357	0.500067
N57	N	0.320820	-0.075920	0.000061
N58	N	0.820820	0.424080	0.500061
C59	C	0.284048	-0.127484	0.000054
C60	C	0.784048	0.372516	0.500054
C61	C	-0.064135	-0.019302	0.000082
C62	C	0.435865	0.480698	0.500082
C63	C	-0.123533	-0.018589	0.000077
C64	C	0.376467	0.481411	0.500077
C65	C	-0.137680	-0.122434	0.000063
C66	C	0.362320	0.377566	0.500063
C67	C	-0.078281	-0.123146	0.000064
C68	C	0.421719	0.376854	0.500064
C69	C	-0.041509	-0.071578	0.000076
C70	C	0.458491	0.428422	0.500076
C71	C	0.408784	-0.128974	0.000043
C72	C	0.908784	0.371026	0.500043
C73	C	0.468186	-0.129680	0.000035
C74	C	0.968186	0.370320	0.500035
C75	C	0.482329	-0.025836	0.000052
C76	C	0.982329	0.474164	0.500052
C77	C	0.422932	-0.025129	0.000057
C78	C	0.922932	0.474871	0.500057
C79	C	0.386160	-0.076702	0.000054
C80	C	0.886160	0.423298	0.500054
O81	O	0.334974	0.020119	0.000054
O82	O	0.834974	0.520119	0.500054
O83	O	0.308755	-0.172007	0.000055
O84	O	0.808755	0.327993	0.500055
C85	C	0.677071	0.030013	0.000074
C86	C	1.177071	0.530013	0.500074
C87	C	0.676305	0.093230	0.000078
C88	C	1.176305	0.593230	0.500078
C89	C	0.776472	-0.069388	0.000071
C90	C	1.276472	0.430612	0.500071
C91	C	0.839689	-0.070154	0.000073
C92	C	1.339689	0.429846	0.500073
C93	C	0.667577	-0.178283	0.000046
C94	C	1.167577	0.321717	0.500046
C95	C	0.668343	-0.241500	0.000037
C96	C	1.168343	0.258500	0.500037
N97	N	0.672305	-0.074153	0.143865
N98	N	1.172305	0.425847	0.643865
C99	C	0.723539	0.492333	0.000050
C100	C	1.223539	0.992333	0.500050
C101	C	0.722827	0.551733	0.000046
C102	C	1.222827	1.051733	0.500046
O103	O	0.766613	0.588478	0.000028
O104	O	1.266613	1.088478	0.500028
N105	N	0.670551	0.574359	0.000040
N106	N	1.170551	1.074359	0.500040
C107	C	0.618983	0.537582	0.000033
C108	C	1.118983	1.037582	0.500033
O109	O	0.574452	0.562281	0.000027
O110	O	1.074452	1.062281	0.500027
C111	C	0.619695	0.478182	0.000033
C112	C	1.119695	0.978182	0.500033
C113	C	0.671974	0.455560	0.000045
C114	C	1.171974	0.955560	0.500045
C115	C	0.775814	0.469710	0.000061
C116	C	1.275814	0.969710	0.500061
C117	C	0.776525	0.410313	0.000067
C118	C	1.276525	0.910313	0.500067
C119	C	0.724961	0.373540	0.000062
C120	C	1.224961	0.873540	0.500062
C121	C	0.672685	0.396164	0.000051
C122	C	1.172685	0.896164	0.500051
C123	C	0.568127	0.441406	0.000022
C124	C	1.068127	0.941406	0.500022
C125	C	0.568844	0.382004	0.000022
C126	C	1.068844	0.882004	0.500022
C127	C	0.621123	0.359381	0.000034
C128	C	1.121123	0.859381	0.500034
C129	C	0.621832	0.299995	0.000052
C130	C	1.121832	0.799995	0.500052
N131	N	0.674109	0.277368	0.000057
N132	N	1.174109	0.777368	0.500057
C133	C	0.725673	0.314141	0.000062
C134	C	1.225673	0.814141	0.500062
C135	C	0.617491	0.662324	0.000031
C136	C	1.117491	1.162324	0.500031
C137	C	0.616778	0.721722	0.000035
C138	C	1.116778	1.221722	0.500035
C139	C	0.720623	0.735869	0.000047
C140	C	1.220623	1.235869	0.500047
C141	C	0.721335	0.676470	0.000047
C142	C	1.221335	1.176470	0.500047
C143	C	0.669767	0.639698	0.000037
C144	C	1.169767	1.139698	0.500037
C145	C	0.727163	0.189405	0.000075
C146	C	1.227163	0.689405	0.500075
C147	C	0.727869	0.130003	0.000083
C148	C	1.227869	0.630003	0.500083
C149	C	0.624025	0.115860	0.000069
C150	C	1.124025	0.615860	0.500069
C151	C	0.623318	0.175257	0.000064
C152	C	1.123318	0.675257	0.500064
C153	C	0.674891	0.212029	0.000065
C154	C	1.174891	0.712029	0.500065
O155	O	0.578070	0.263215	0.000067
O156	O	1.078070	0.763215	0.500067
O157	O	0.770196	0.289433	0.000060
O158	O	1.270196	0.789433	0.500060
N159	N	0.672347	-0.074112	-0.143744
N160	N	1.172347	0.425888	0.356256
C161	C	0.711273	-0.035196	0.563653
C162	C	1.211273	0.464804	1.063653
C163	C	0.711275	-0.035192	0.627261
C164	C	1.211275	0.464808	1.127261
O165	O	0.744384	-0.002076	0.660160
O166	O	1.244384	0.497924	1.160160
N167	N	0.672333	-0.074115	0.659072
N168	N	1.172333	0.425885	1.159072
C169	C	0.633382	-0.113041	0.627272
C170	C	1.133382	0.386959	1.127272
O171	O	0.600259	-0.146148	0.660170
O172	O	1.100259	0.353852	1.160170
C173	C	0.633377	-0.113042	0.563665
C174	C	1.133377	0.386958	1.063665
C175	C	0.672326	-0.074120	0.531858
C176	C	1.172326	0.425880	1.031858
C177	C	0.750217	0.003723	0.531846
C178	C	1.250217	0.503723	1.031846
C179	C	0.750215	0.003719	0.468243
C180	C	1.250215	0.503719	0.968243
C181	C	0.711268	-0.035205	0.436447
C182	C	1.211268	0.464795	0.936447
C183	C	0.672324	-0.074125	0.468255
C184	C	1.172324	0.425875	0.968255
C185	C	0.594424	-0.151965	0.531866
C186	C	1.094424	0.348035	1.031866
C187	C	0.594422	-0.151962	0.468256
C188	C	1.094422	0.348038	0.968256
C189	C	0.633370	-0.113040	0.436448
C190	C	1.133370	0.386960	0.936448
C191	C	0.633374	-0.113054	0.372856
C192	C	1.133374	0.386946	0.872856
N193	N	0.672317	-0.074130	0.341045
N194	N	1.172317	0.425870	0.841045
C195	C	0.711263	-0.035206	0.372841
C196	C	1.211263	0.464794	0.872841
C197	C	0.633395	-0.113036	0.760850
C198	C	1.133395	0.386964	1.260850
C199	C	0.633402	-0.113039	0.824455
C200	C	1.133402	0.386961	1.324455
C201	C	0.711294	-0.035188	0.824440
C202	C	1.211294	0.464812	1.324440
C203	C	0.711290	-0.035189	0.760833
C204	C	1.211290	0.464811	1.260833
C205	C	0.672337	-0.074113	0.729039
C206	C	1.172337	0.425887	1.229039
C207	C	0.711256	-0.035220	0.239269
C208	C	1.211256	0.464780	0.739269
C209	C	0.711252	-0.035229	0.175660
C210	C	1.211252	0.464771	0.675660
C211	C	0.633358	-0.113077	0.175681
C212	C	1.133358	0.386923	0.675681
C213	C	0.633364	-0.113070	0.239284
C214	C	1.133364	0.386930	0.739284
C215	C	0.672315	-0.074136	0.271077
C216	C	1.172315	0.425864	0.771077
O217	O	0.600282	-0.146151	0.339916
O218	O	1.100282	0.353849	0.839916
O219	O	0.744376	-0.002100	0.339935
O220	O	1.244376	0.497900	0.839935
H221	H	0.246123	0.071339	0.000107
H222	H	0.746123	0.571339	0.500107
C223	C	-0.103568	0.083983	0.000091
C224	C	0.396432	0.583983	0.500091
C225	C	-0.148396	0.038878	0.000085
C226	C	0.351604	0.538878	0.500085
H227	H	-0.118917	0.119461	0.000103
H228	H	0.381083	0.619461	0.500103
H229	H	-0.080697	0.081548	-0.035147
H230	H	0.419303	0.581548	0.464853
H231	H	-0.080694	0.081533	0.035330
H232	H	0.419306	0.581533	0.535330
H233	H	-0.171267	0.041325	-0.035156
H234	H	0.328733	0.541325	0.464844
H235	H	-0.171276	0.041314	0.035327
H236	H	0.328724	0.541314	0.535327
C237	C	0.010873	0.040154	-0.051862
C238	C	0.510873	0.540154	0.448138
C239	C	-0.023715	0.037386	0.000084
C240	C	0.476285	0.537386	0.500084
H241	H	0.035826	0.075149	-0.051858
H242	H	0.535826	0.575149	0.448142
H243	H	-0.012593	0.038275	-0.087093
H244	H	0.487407	0.538275	0.412907
H245	H	0.032850	0.008919	-0.051858
H246	H	0.532850	0.508919	0.448142
H247	H	-0.045696	0.068619	0.000078
H248	H	0.454304	0.568619	0.500078
H249	H	-0.000247	0.039271	0.035324
H250	H	0.499753	0.539271	0.535324
H251	H	0.582043	0.085909	0.000067
H252	H	1.082043	0.585909	0.500067
H253	H	0.742971	-0.003534	0.149765
H254	H	1.242971	0.496466	0.649765
H255	H	0.404512	0.017441	0.000058
H256	H	0.904512	0.517441	0.500058
C257	C	0.786634	0.264400	-0.051870
C258	C	1.286634	0.764400	0.448130
C259	C	0.783853	0.229817	0.000079
C260	C	1.283853	0.729817	0.500079
H261	H	0.821633	0.289346	-0.051865
H262	H	1.321633	0.789346	0.448135
H263	H	0.755407	0.286380	-0.051873
H264	H	1.255407	0.786380	0.448127
H265	H	0.784756	0.240926	-0.087103
H266	H	1.284756	0.740926	0.412897
H267	H	0.785726	0.253291	0.035312
H268	H	1.285726	0.753291	0.535312
H269	H	0.815088	0.207836	0.000087
H270	H	1.315088	0.707836	0.500087
C271	C	0.557350	0.033607	-0.051881
C272	C	1.057350	0.533607	0.448119
C273	C	0.522759	0.030840	0.000063
C274	C	1.022759	0.530840	0.500063
H275	H	0.582313	0.068596	-0.051868
H276	H	1.082313	0.568596	0.448132
H277	H	0.533886	0.031743	-0.087114
H278	H	1.033886	0.531743	0.412886
H279	H	0.579316	0.002364	-0.051883
H280	H	1.079316	0.502364	0.448117
H281	H	0.500790	0.062082	0.000062
H282	H	1.000790	0.562082	0.500062
H283	H	0.546225	0.032711	0.035304
H284	H	1.046225	0.532711	0.535304
H285	H	0.781933	0.035423	0.557728
H286	H	1.281933	0.535423	1.057728
C287	C	0.517426	-0.228913	0.474665
C288	C	1.017426	0.271087	0.974665
C289	C	0.551606	-0.194753	0.433308
C290	C	1.051606	0.305247	0.933308
H291	H	0.490997	-0.255332	0.453089
H292	H	0.990997	0.244668	0.953089
H293	H	0.497080	-0.205306	0.499471
H294	H	0.997080	0.294694	0.999471
H295	H	0.541022	-0.249274	0.499474
H296	H	1.041022	0.250726	0.999474
H297	H	0.528010	-0.174388	0.408501
H298	H	1.028010	0.325612	0.908501
H299	H	0.571953	-0.218362	0.408491
H300	H	1.071953	0.281638	0.908491
H301	H	0.601654	-0.144769	0.265183
H302	H	1.101654	0.355231	0.765183
C303	C	0.516843	-0.164711	0.603391
C304	C	1.016843	0.335289	1.103391
C305	C	0.551606	-0.194746	0.566818
C306	C	1.051606	0.305254	1.066818
H307	H	0.490409	-0.191125	0.624969
H308	H	0.990409	0.308875	1.124969
H309	H	0.496503	-0.141107	0.578577
H310	H	0.996503	0.358893	1.078577
H311	H	0.540043	-0.141538	0.631437
H312	H	1.040043	0.358462	1.131437
H313	H	0.528406	-0.217916	0.538768
H314	H	1.028406	0.282084	1.038768
H315	H	0.571948	-0.218360	0.591634
H316	H	1.071948	0.281640	1.091634
H317	H	0.601650	-0.144771	0.149783
H318	H	1.101650	0.355229	0.649783
C319	C	0.835255	0.544712	0.052014
C320	C	1.335255	1.044712	0.552014
C321	C	0.832499	0.510127	0.000068
C322	C	1.332499	1.010127	0.500068
H323	H	0.870251	0.569663	0.052018
H324	H	1.370251	1.069663	0.552018
H325	H	0.833365	0.521244	0.087245
H326	H	1.333365	1.021244	0.587245
H327	H	0.804021	0.566691	0.052002
H328	H	1.304021	1.066691	0.552002
H329	H	0.863730	0.488145	0.000082
H330	H	1.363730	0.988145	0.500082
H331	H	0.834394	0.533598	-0.035172
H332	H	1.334394	1.033598	0.464828
H333	H	-0.167632	-0.164421	0.000060
H334	H	0.332368	0.335579	0.500060
H335	H	0.781929	0.035414	0.442349
H336	H	1.281929	0.535414	0.942349
C337	C	0.448226	-0.232257	0.000025
C338	C	0.948226	0.267743	0.500025
C339	C	0.493052	-0.187150	0.000026
C340	C	0.993052	0.312850	0.500026
H341	H	0.463577	-0.267735	0.000024
H342	H	0.963577	0.232265	0.500024
H343	H	0.425355	-0.229815	-0.035209
H344	H	0.925355	0.270185	0.464791
H345	H	0.425352	-0.229818	0.035268
H346	H	0.925352	0.270182	0.535268
H347	H	0.515923	-0.189588	-0.035219
H348	H	1.015923	0.310412	0.464781
H349	H	0.515933	-0.189593	0.035264
H350	H	1.015933	0.310407	0.535264
C351	C	0.823907	0.696434	0.000054
C352	C	1.323907	1.196434	0.500054
C353	C	0.778802	0.651607	0.000050
C354	C	1.278802	1.151607	0.500050
H355	H	0.859386	0.681085	0.000050
H356	H	1.359386	1.181085	0.500050
H357	H	0.821464	0.719303	0.035292
H358	H	1.321464	1.219303	0.535292
H359	H	0.821466	0.719310	-0.035185
H360	H	1.321466	1.219310	0.464815
H361	H	0.781241	0.628733	0.035292
H362	H	1.281241	1.128733	0.535292
H363	H	0.781247	0.628728	-0.035191
H364	H	1.281247	1.128728	0.464809
C365	C	0.780068	0.810875	-0.051908
C366	C	1.280068	1.310875	0.448092
C367	C	0.777307	0.776296	0.000043
C368	C	1.277307	1.276296	0.500043
H369	H	0.815062	0.835830	-0.051911
H370	H	1.315062	1.335830	0.448089
H371	H	0.748834	0.832845	-0.051906
H372	H	1.248834	1.332845	0.448094
H373	H	0.778191	0.787399	-0.087140
H374	H	1.278191	1.287399	0.412860
H375	H	0.779179	0.799772	0.035275
H376	H	1.279179	1.299772	0.535275
H377	H	0.808549	0.754324	0.000046
H378	H	1.308549	1.254324	0.500046
C379	C	0.150582	0.118811	-0.051820
C380	C	0.650582	0.618811	0.448180
C381	C	0.131930	0.087532	0.000115
C382	C	0.631930	0.587532	0.500115
H383	H	0.135243	0.154295	-0.051804
H384	H	0.635243	0.654295	0.448196
H385	H	0.137932	0.097608	-0.087058
H386	H	0.637932	0.597608	0.412942
H387	H	0.191222	0.125751	-0.051815
H388	H	0.691222	0.625751	0.448185
H389	H	0.091290	0.080589	0.000108
H390	H	0.591290	0.580589	0.500108
H391	H	0.144577	0.108740	0.035362
H392	H	0.644577	0.608740	0.535362
C393	C	0.816610	0.123774	-0.051854
C394	C	1.316610	0.623774	0.448146
C395	C	0.785338	0.105136	0.000091
C396	C	1.285338	0.605136	0.500091
H397	H	0.852085	0.108420	-0.051851
H398	H	1.352085	0.608420	0.448149
H399	H	0.823562	0.164408	-0.051852
H400	H	1.323562	0.664408	0.448148
H401	H	0.795391	0.111125	-0.087089
H402	H	1.295391	0.611125	0.412911
H403	H	0.806555	0.117789	0.035327
H404	H	1.306555	0.617789	0.535327
H405	H	0.778388	0.064493	0.000095
H406	H	1.278388	0.564493	0.500095
H407	H	0.378851	-0.170970	0.000042
H408	H	0.878851	0.329030	0.500042
H409	H	0.819097	0.391900	0.000074
H410	H	1.319097	0.891900	0.500074
C411	C	0.167907	-0.280907	0.000043
C412	C	0.667907	0.219093	0.500043
C413	C	0.212737	-0.235804	0.000043
C414	C	0.712737	0.264196	0.500043
H415	H	0.183254	-0.316387	0.000047
H416	H	0.683254	0.183613	0.500047
H417	H	0.145039	-0.278465	-0.035194
H418	H	0.645039	0.221535	0.464806
H419	H	0.145031	-0.278462	0.035283
H420	H	0.645031	0.221538	0.535283
H421	H	0.235611	-0.238247	-0.035199
H422	H	0.735611	0.261753	0.464801
H423	H	0.235614	-0.238247	0.035284
H424	H	0.735614	0.261753	0.535284
C425	C	0.514773	0.654316	0.000030
C426	C	1.014773	1.154316	0.500030
C427	C	0.560802	0.621906	0.000032
C428	C	1.060802	1.121906	0.500032
H429	H	0.479777	0.629364	0.000034
H430	H	0.979777	1.129364	0.500034
H431	H	0.516661	0.677775	-0.035207
H432	H	1.016661	1.177775	0.464793
H433	H	0.516660	0.677781	0.035270
H434	H	1.016660	1.177781	0.535270
H435	H	0.558917	0.598443	-0.035210
H436	H	1.058917	1.098443	0.464790
H437	H	0.558913	0.598437	0.035273
H438	H	1.058913	1.098437	0.535273
H439	H	0.098544	-0.219617	0.000048
H440	H	0.598544	0.280383	0.500048
C441	C	0.556408	-0.189995	0.767264
C442	C	1.056408	0.310005	1.267264
C443	C	0.590582	-0.155833	0.725904
C444	C	1.090582	0.344167	1.225904
H445	H	0.529980	-0.216418	0.745691
H446	H	1.029980	0.283582	1.245691
H447	H	0.536061	-0.166390	0.792072
H448	H	1.036061	0.333610	1.292072
H449	H	0.580009	-0.210354	0.792072
H450	H	1.080009	0.289646	1.292072
H451	H	0.566981	-0.135471	0.701099
H452	H	1.066981	0.364529	1.201099
H453	H	0.610930	-0.179441	0.701085
H454	H	1.110930	0.320559	1.201085
H455	H	0.574207	0.740136	0.000036
H456	H	1.074207	1.240136	0.500036
C457	C	0.810074	-0.001237	0.844027
C458	C	1.310074	0.498763	1.344027
C459	C	0.754104	0.007601	0.859399
C460	C	1.254104	0.507601	1.359399
H461	H	0.836500	0.025176	0.865614
H462	H	1.336500	0.525176	1.365614
H463	H	0.815647	0.004339	0.801600
H464	H	1.315647	0.504339	1.301600
H465	H	0.816035	-0.039217	0.854452
H466	H	1.316035	0.460783	1.354452
H467	H	0.748141	0.045581	0.848970
H468	H	1.248141	0.545581	1.348970
H469	H	0.748529	0.002031	0.901836
H470	H	1.248529	0.502031	1.401836
C471	C	0.788842	-0.022453	0.310780
C472	C	1.288842	0.477547	0.810780
C473	C	0.754074	0.007575	0.274209
C474	C	1.254074	0.507575	0.774209
H475	H	0.815274	0.003966	0.332352
H476	H	1.315274	0.503966	0.832352
H477	H	0.809184	-0.046056	0.285966
H478	H	1.309184	0.453944	0.785966
H479	H	0.765646	-0.045625	0.338832
H480	H	1.265646	0.454375	0.838832
H481	H	0.777270	0.030744	0.246154
H482	H	1.277270	0.530744	0.746154
H483	H	0.733730	0.031188	0.299026
H484	H	1.233730	0.531188	0.799026
H485	H	0.525555	0.459814	0.000009
H486	H	1.025555	0.959814	0.500009
H487	H	0.526850	0.352066	0.000013
H488	H	1.026850	0.852066	0.500013
C489	C	0.520744	0.155304	0.000047
C490	C	1.020744	0.655304	0.500047
C491	C	0.565852	0.200128	0.000050
C492	C	1.065852	0.700128	0.500050
H493	H	0.485267	0.170656	0.000029
H494	H	0.985267	0.670656	0.500029
H495	H	0.523172	0.132439	0.035289
H496	H	1.023172	0.632439	0.535289
H497	H	0.523196	0.132423	-0.035188
H498	H	1.023196	0.632423	0.464812
H499	H	0.563403	0.223006	0.035287
H500	H	1.063403	0.723006	0.535287
H501	H	0.563423	0.223002	-0.035196
H502	H	1.063423	0.723002	0.464804
C503	C	-0.098245	-0.225718	0.000050
C504	C	0.401755	0.274282	0.500050
C505	C	-0.053418	-0.180613	0.000057
C506	C	0.446582	0.319387	0.500057
H507	H	-0.082896	-0.261197	0.000051
H508	H	0.417104	0.238803	0.500051
H509	H	-0.121112	-0.223274	-0.035187
H510	H	0.378888	0.276726	0.464813
H511	H	-0.121123	-0.223278	0.035290
H512	H	0.378877	0.276722	0.535290
H513	H	-0.030542	-0.183051	-0.035185
H514	H	0.469458	0.316949	0.464815
H515	H	-0.030541	-0.183058	0.035298
H516	H	0.469459	0.316942	0.535298
H517	H	0.743004	-0.003495	0.734939
H518	H	1.243004	0.496505	1.234939
H519	H	0.601692	-0.144738	0.850348
H520	H	1.101692	0.355262	1.350348
