data_functionalizedCrystal
_audit_creation_method	'MofGen! by Chris Wilmer'
_symmetry_space_group_name_H-M	'P1'
_symmetry_Int_Tables_number	1
_symmetry_cell_setting	triclinic
loop_
_symmetry_equiv_pos_as_xyz
  x,y,z
_cell_length_a	23.532416
_cell_length_b	14.519709
_cell_length_c	22.610064
_cell_angle_alpha	89.999219
_cell_angle_beta	89.989806
_cell_angle_gamma	96.733738
loop_
_atom_site_label
_atom_site_type_symbol
_atom_site_fract_x
_atom_site_fract_y
_atom_site_fract_z
O1	O	0.755770	-0.111979	-0.049133
O2	O	0.589980	-0.128168	-0.049146
O3	O	0.677271	0.014217	-0.049134
O4	O	0.668480	-0.254364	-0.049145
O5	O	0.677246	0.014200	0.049235
O6	O	0.589956	-0.128184	0.049223
O7	O	0.755745	-0.111995	0.049236
Zn8	Zn	0.672847	-0.120092	0.064848
Zn9	Zn	0.672879	-0.120071	-0.064758
O10	O	0.668455	-0.254380	0.049224
C11	C	0.568750	-0.127763	0.000037
C12	C	0.505528	-0.126519	0.000032
C13	C	0.776975	-0.112401	0.000052
C14	C	0.840198	-0.113644	0.000053
C15	C	0.676849	0.048564	0.000051
C16	C	0.675621	0.150930	0.000051
C17	C	1.113458	-0.118925	0.053671
C18	C	1.054052	-0.117774	0.053672
O19	O	1.023317	-0.117154	0.099274
N20	N	1.024357	-0.117195	0.000051
C21	C	1.054071	-0.117758	-0.053575
O22	O	1.023358	-0.117159	-0.099184
C23	C	1.113476	-0.118902	-0.053576
C24	C	1.143167	-0.119490	0.000049
C25	C	1.143149	-0.119512	0.107292
C26	C	1.202551	-0.120665	0.107290
C27	C	1.232260	-0.121230	0.053668
C28	C	1.202569	-0.120643	0.000048
C29	C	1.143189	-0.119459	-0.107201
C30	C	1.202598	-0.120603	-0.107197
C31	C	1.232290	-0.121191	-0.053572
C32	C	1.291679	-0.122362	-0.053576
N33	N	1.321375	-0.122941	0.000046
C34	C	1.291665	-0.122375	0.053667
C35	C	0.929317	-0.115353	-0.053570
C36	C	0.869912	-0.114215	-0.053570
C37	C	0.869898	-0.114229	0.053678
C38	C	0.929303	-0.115373	0.053677
C39	C	0.959012	-0.115931	0.000052
C40	C	1.416412	-0.124797	0.053660
C41	C	1.475818	-0.125953	0.053654
C42	C	1.475828	-0.125935	-0.053593
C43	C	1.416426	-0.124783	-0.053587
C44	C	1.386720	-0.124211	0.000044
O45	O	1.322453	-0.122979	-0.099154
O46	O	1.322386	-0.122962	0.099269
C47	C	0.668877	-0.288727	0.000038
C48	C	0.670105	-0.391094	0.000034
N49	N	0.672829	-0.120106	0.153300
C50	C	0.671101	0.525773	0.000035
C51	C	0.672356	0.421480	0.000040
C52	C	0.673361	0.338355	0.000044
C53	C	0.674616	0.234055	0.000047
N54	N	0.672902	-0.120050	-0.153210
C55	C	0.638270	-0.064413	0.438141
C56	C	0.638265	-0.064418	0.376221
O57	O	0.608858	-0.017069	0.344196
N58	N	0.672852	-0.120077	0.345252
C59	C	0.707452	-0.175728	0.376207
O60	O	0.736871	-0.223070	0.344180
C61	C	0.707460	-0.175718	0.438126
C62	C	0.672866	-0.120062	0.469091
C63	C	0.603679	-0.008762	0.469107
C64	C	0.603684	-0.008759	0.531022
C65	C	0.638280	-0.064407	0.561972
C66	C	0.672870	-0.120059	0.531007
C67	C	0.742062	-0.231363	0.469079
C68	C	0.742068	-0.231348	0.531002
C69	C	0.707473	-0.175692	0.561967
C70	C	0.707471	-0.175705	0.623873
N71	N	0.672883	-0.120046	0.654841
C72	C	0.638288	-0.064397	0.623891
C73	C	0.707433	-0.175743	0.246173
C74	C	0.707422	-0.175759	0.184256
C75	C	0.638236	-0.064448	0.184274
C76	C	0.638244	-0.064438	0.246193
C77	C	0.672845	-0.120085	0.277142
C78	C	0.638300	-0.064396	0.753919
C79	C	0.638306	-0.064401	0.815840
C80	C	0.707495	-0.175708	0.815816
C81	C	0.707487	-0.175707	0.753900
C82	C	0.672888	-0.120044	0.722953
O83	O	0.736864	-0.223027	0.655937
O84	O	0.608879	-0.017054	0.655926
H85	H	1.392232	-0.124339	0.097332
N86	N	1.386085	-0.124198	-0.108358
N87	N	1.347760	-0.188562	-0.120327
H88	H	1.326335	-0.188143	-0.159009
N89	N	0.839544	-0.113624	0.108452
N90	N	0.851342	-0.048738	0.144356
H91	H	0.829902	-0.048310	0.183038
H92	H	0.610074	-0.019118	0.271401
N93	N	0.742829	-0.232535	0.722257
N94	N	0.780439	-0.196193	0.687701
H95	H	0.805405	-0.236317	0.665353
H96	H	1.226784	-0.121058	-0.150867
H97	H	0.770234	-0.276682	0.443877
N98	N	0.742827	-0.232546	0.847446
N99	N	0.742825	-0.232523	0.902730
H100	H	0.767782	-0.272660	0.925072
H101	H	0.610066	-0.019135	0.159063
N102	N	0.839576	-0.113632	-0.108341
N103	N	0.801253	-0.178000	-0.120310
H104	H	0.779829	-0.177585	-0.158993
H105	H	1.499990	-0.126435	0.097324
H106	H	0.953501	-0.115816	-0.097241
H107	H	1.226721	-0.121138	0.150957
H108	H	1.118966	-0.119049	0.150959
H109	H	1.500028	-0.126399	-0.097251
N110	N	0.742771	-0.232591	0.277796
N111	N	0.780392	-0.196279	0.312335
H112	H	0.805349	-0.236427	0.334668
H113	H	0.575507	0.036559	0.443914
N114	N	0.959620	-0.115986	0.108459
N115	N	0.933078	-0.115493	0.156329
H116	H	0.954486	-0.115929	0.195021
H117	H	0.610133	-0.019080	0.841049
N118	N	0.777420	-0.288192	0.562605
N119	N	0.808303	-0.337873	0.534945
H120	H	0.833271	-0.378021	0.557263
N121	N	0.742754	-0.232630	0.152638
N122	N	0.773637	-0.282312	0.180287
H123	H	0.798594	-0.322476	0.157960
H124	H	0.610126	-0.019070	0.728729
H125	H	1.119025	-0.118979	-0.150869
N126	N	0.568344	0.048100	0.562639
N127	N	0.537462	0.097780	0.534987
H128	H	0.512502	0.137943	0.557312
