data_functionalizedCrystal
_audit_creation_method	'MofGen! by Chris Wilmer'
_symmetry_space_group_name_H-M	'P1'
_symmetry_Int_Tables_number	1
_symmetry_cell_setting	triclinic
loop_
_symmetry_equiv_pos_as_xyz
  x,y,z
_cell_length_a	12.759401
_cell_length_b	19.805405
_cell_length_c	19.805399
_cell_angle_alpha	90.029462
_cell_angle_beta	89.986016
_cell_angle_gamma	89.966344
loop_
_atom_site_label
_atom_site_type_symbol
_atom_site_fract_x
_atom_site_fract_y
_atom_site_fract_z
Zn1	Zn	1.606061	0.269461	-0.382665
Zn2	Zn	1.605916	0.382652	-0.269476
Zn3	Zn	1.430381	0.269483	-0.269495
Zn4	Zn	1.430295	0.382614	-0.382628
O5	O	1.518163	0.326053	-0.326066
O6	O	1.753063	0.284482	-0.367657
O7	O	1.582606	0.367665	-0.174762
O8	O	1.453781	0.174764	-0.284531
O9	O	1.752956	0.367643	-0.284498
O10	O	1.582853	0.174747	-0.367676
O11	O	1.453641	0.284520	-0.174776
O12	O	1.283348	0.284484	-0.284495
O13	O	1.453635	0.367579	-0.477350
O14	O	1.283285	0.367601	-0.367614
O15	O	1.582770	0.284446	-0.477377
O16	O	1.582523	0.477364	-0.284462
O17	O	1.453495	0.477336	-0.367595
C18	C	1.245196	0.326041	-0.326053
C19	C	1.128419	0.326052	-0.326064
C20	C	1.518013	0.501909	-0.326037
C21	C	1.518044	0.577141	-0.326047
C22	C	0.963773	0.369295	-0.282717
C23	C	1.073497	0.369285	-0.282704
C24	C	1.073612	0.282822	-0.369434
C25	C	0.963890	0.282829	-0.369443
C26	C	1.223383	0.393355	-0.202824
C27	C	1.278187	0.436592	-0.159461
C28	C	1.242520	0.502624	-0.148952
C29	C	1.152051	0.525434	-0.181816
C30	C	1.097254	0.482201	-0.225184
C31	C	1.132919	0.416159	-0.235679
C32	C	0.814001	0.258766	-0.449324
C33	C	0.759202	0.215536	-0.492696
C34	C	0.794866	0.149503	-0.503211
C35	C	0.885338	0.126695	-0.470359
C36	C	0.940138	0.169925	-0.426988
C37	C	0.904466	0.235958	-0.416471
C38	C	1.585206	0.612418	-0.369374
C39	C	1.585232	0.683106	-0.369385
C40	C	1.518100	0.718516	-0.326065
C41	C	1.450931	0.683234	-0.282736
C42	C	1.450901	0.612547	-0.282730
C43	C	1.451050	0.968307	-0.282764
C44	C	1.451087	1.038999	-0.282773
C45	C	1.585381	1.038867	-0.369419
C46	C	1.585351	0.968180	-0.369413
C47	C	1.518178	0.932903	-0.326087
C48	C	1.518150	0.856255	-0.326076
C49	C	1.518133	0.795163	-0.326072
C50	C	1.792196	0.326065	-0.326080
C51	C	1.908973	0.326070	-0.326085
C52	C	1.518299	1.149510	-0.326104
C53	C	1.518245	1.074278	-0.326103
C54	C	1.518209	0.326006	-0.502609
C55	C	1.518229	0.325986	-0.577841
C56	C	1.451096	0.282688	-0.613192
C57	C	1.451110	0.282675	-0.683881
C58	C	1.518264	0.325956	-0.719217
C59	C	1.585400	0.369259	-0.683861
C60	C	1.585379	0.369275	-0.613173
C61	C	1.585483	0.369195	-0.968934
C62	C	1.585501	0.369174	-1.039626
C63	C	1.451214	0.282596	-1.039641
C64	C	1.451194	0.282612	-0.968954
C65	C	1.518325	0.325916	-0.933604
C66	C	1.518307	0.325931	-0.856956
C67	C	1.518288	0.325939	-0.795864
C68	C	1.518178	0.326050	-0.150210
C69	C	1.518362	0.325880	-0.074979
H70	H	0.919063	0.404504	-0.247412
Cl71	Cl	1.391914	0.407917	-0.118148
Cl72	Cl	1.669654	0.727452	-0.423865
Cl73	Cl	1.366814	0.228157	-1.084085
H74	H	1.640135	0.404464	-0.940161
Cl75	Cl	1.669823	1.083218	-0.423890
Cl76	Cl	1.366772	0.228196	-0.924535
H77	H	1.640019	0.939351	-0.404685
H78	H	1.287149	0.537828	-0.113646
H79	H	1.396416	1.067828	-0.247495
H80	H	1.252425	0.339584	-0.211369
Cl81	Cl	1.366674	0.228271	-0.568777
Cl82	Cl	0.983529	0.510869	-0.266496
Cl83	Cl	1.366661	0.228273	-0.728319
H84	H	1.118338	0.247618	-0.404735
H85	H	1.013943	0.151401	-0.400362
Cl86	Cl	1.366526	0.727749	-0.228283
H87	H	1.640188	0.404422	-1.068395
H88	H	1.640072	0.404502	-0.712637
H89	H	0.914379	0.072926	-0.478923
H90	H	1.640054	0.404527	-0.584391
Cl91	Cl	0.645466	0.244210	-0.533998
Cl92	Cl	0.725978	0.095159	-0.557743
H93	H	0.784956	0.312537	-0.440767
H94	H	1.123026	0.579207	-0.173263
Cl95	Cl	1.669611	0.567910	-0.423833
Cl96	Cl	1.366595	0.923969	-0.228303
H97	H	1.396210	0.583825	-0.247449
