data_functionalizedCrystal
_audit_creation_method	'MofGen! by Chris Wilmer'
_symmetry_space_group_name_H-M	'P1'
_symmetry_Int_Tables_number	1
_symmetry_cell_setting	triclinic
loop_
_symmetry_equiv_pos_as_xyz
  x,y,z
_cell_length_a	10.654555
_cell_length_b	9.198806
_cell_length_c	10.654550
_cell_angle_alpha	89.996718
_cell_angle_beta	84.485953
_cell_angle_gamma	89.998944
loop_
_atom_site_label
_atom_site_type_symbol
_atom_site_fract_x
_atom_site_fract_y
_atom_site_fract_z
O1	O	-1.667836	0.120804	-0.176427
O2	O	-1.167836	0.620804	0.323573
O3	O	-1.302359	0.120826	-0.193226
O4	O	-0.802359	0.620826	0.306774
O5	O	-1.493500	0.120805	-0.002087
O6	O	-0.993500	0.620805	0.497913
O7	O	-1.476694	0.120825	-0.367566
O8	O	-0.976694	0.620825	0.132434
O9	O	-1.493486	-0.120980	-0.002086
O10	O	-0.993486	0.379020	0.497914
O11	O	-1.302344	-0.120959	-0.193225
O12	O	-0.802344	0.379041	0.306775
O13	O	-1.667822	-0.120981	-0.176425
O14	O	-1.167822	0.379019	0.323575
Cu15	Cu	-1.485082	-0.143047	-0.184825
Cu16	Cu	-0.985082	0.356953	0.315175
Cu17	Cu	-1.485099	0.142892	-0.184827
Cu18	Cu	-0.985099	0.642892	0.315173
O19	O	-1.476680	-0.120961	-0.367564
O20	O	-0.976680	0.379039	0.132436
C21	C	-1.255554	-0.000064	-0.191991
C22	C	-0.755554	0.499936	0.308009
C23	C	-1.116111	-0.000055	-0.188296
C24	C	-0.616111	0.499945	0.311704
N25	N	-1.485079	-0.344161	-0.184823
N26	N	-0.985079	0.155839	0.315177
C27	C	-0.919573	0.131734	-0.183095
C28	C	-0.419573	0.631734	0.316905
C29	C	-1.050595	0.131741	-0.186559
C30	C	-0.550595	0.631741	0.313441
C31	C	-1.050598	-0.131867	-0.186557
C32	C	-0.550598	0.368133	0.313443
C33	C	-0.919580	-0.131872	-0.183084
C34	C	-0.419580	0.368128	0.316916
C35	C	-1.565532	-0.583771	-0.104395
C36	C	-1.065532	-0.083771	0.395605
C37	C	-1.565516	-0.416358	-0.104396
C38	C	-1.065516	0.083642	0.395604
C39	C	-0.714627	-0.000083	-0.177662
C40	C	-0.214627	0.499917	0.322338
C41	C	-0.854069	-0.000067	-0.181360
C42	C	-0.354069	0.499933	0.318640
C43	C	-1.492259	-0.000086	0.044711
C44	C	-0.992259	0.499914	0.544711
C45	C	-1.488567	-0.000084	0.184155
C46	C	-0.988567	0.499916	0.684155
N47	N	-1.485111	0.344006	-0.184819
N48	N	-0.985111	0.844006	0.315181
C49	C	-1.477921	-0.000066	-0.414363
C50	C	-0.977921	0.499934	0.085637
C51	C	-1.481613	-0.000059	-0.553806
C52	C	-0.981613	0.499941	-0.053806
C53	C	-1.601109	-0.000090	0.263638
C54	C	-1.101109	0.499910	0.763638
C55	C	-1.597632	-0.000072	0.394659
C56	C	-1.097632	0.499928	0.894659
C57	C	-1.369063	-0.000048	0.366700
C58	C	-0.869063	0.499952	0.866700
C59	C	-1.372541	-0.000055	0.235682
C60	C	-0.872541	0.499945	0.735682
H61	H	-0.866239	0.239058	-0.181690
H62	H	-0.366239	0.739058	0.318310
F63	F	-0.849862	-0.272160	-0.181234
F64	F	-0.349862	0.227840	0.318766
F65	F	-1.655507	-0.335181	-0.014390
F66	F	-1.155507	0.164819	0.485610
H67	H	-1.103923	0.239066	-0.187970
H68	H	-0.603923	0.739066	0.312030
H69	H	-1.689275	-0.000074	0.459370
H70	H	-1.189275	0.499926	0.959370
F71	F	-1.120329	-0.272135	-0.188402
F72	F	-0.620329	0.227865	0.311598
F73	F	-1.655553	-0.664938	-0.014398
F74	F	-1.155553	-0.164938	0.485602
H75	H	-1.416219	-0.406261	-0.253676
H76	H	-0.916219	0.093739	0.246324
H77	H	-1.695585	-0.000110	0.221690
H78	H	-1.195585	0.499890	0.721690
F79	F	-1.252753	-0.000038	0.151084
F80	F	-0.752753	0.499962	0.651084
F81	F	-1.245587	-0.000017	0.421551
F82	F	-0.745587	0.499983	0.921551
H83	H	-1.416252	-0.593889	-0.253679
H84	H	-0.916252	-0.093889	0.246321
