data_functionalizedCrystal
_audit_creation_method	'MofGen! by Chris Wilmer'
_symmetry_space_group_name_H-M	'P1'
_symmetry_Int_Tables_number	1
_symmetry_cell_setting	triclinic
loop_
_symmetry_equiv_pos_as_xyz
  x,y,z
_cell_length_a	14.395555
_cell_length_b	14.628931
_cell_length_c	14.628931
_cell_angle_alpha	60.000164
_cell_angle_beta	90.001754
_cell_angle_gamma	59.999587
loop_
_atom_site_label
_atom_site_type_symbol
_atom_site_fract_x
_atom_site_fract_y
_atom_site_fract_z
Zr1	Zr	0.894916	1.000536	-0.119912
O2	O	0.746587	1.191248	-0.265880
O3	O	0.940387	0.809829	-0.075165
O4	O	0.940388	1.000534	-0.265870
O5	O	0.746586	1.000543	0.075257
O6	O	1.093262	1.000527	-0.265862
O7	O	0.746586	1.000543	-0.075175
O8	O	1.093261	0.659391	0.075274
O9	O	0.746587	1.341679	-0.265879
O10	O	1.073869	0.888263	-0.056075
O11	O	0.959780	0.888269	0.056185
O12	O	0.959781	1.112799	-0.168346
O13	O	0.845693	1.112804	-0.056086
Zr14	Zr	1.138733	1.000526	0.120022
Zr15	Zr	1.138733	1.000525	-0.119899
Zr16	Zr	0.894916	1.000537	0.120009
Zr17	Zr	0.894917	1.240457	-0.119911
Zr18	Zr	1.138732	0.760605	0.120022
O19	O	1.093262	1.191233	0.075276
O20	O	1.093262	1.191232	-0.265861
O21	O	0.746586	1.191249	0.075257
O22	O	1.287062	0.809815	0.265990
O23	O	1.287063	0.809814	-0.075147
O24	O	0.940387	0.809830	0.265972
O25	O	1.287063	1.000519	-0.075146
O26	O	1.093261	1.000529	0.265980
O27	O	0.940387	1.000535	0.265972
O28	O	1.287063	1.000519	0.075285
O29	O	0.940389	1.341671	-0.265869
O30	O	1.093261	0.659392	0.265980
O31	O	1.287062	0.659383	0.265990
O32	O	1.287062	0.659383	0.075285
O33	O	0.746587	1.341680	-0.075174
O34	O	0.940388	1.341671	-0.075164
O35	O	1.073868	0.888264	0.168456
O36	O	1.187957	0.888258	0.056197
O37	O	1.073869	1.112794	-0.056074
O38	O	0.959781	1.112799	0.056185
C39	C	1.016824	0.700427	0.000055
C40	C	1.016824	0.598574	0.000054
C41	C	0.936788	0.526660	-0.078707
C42	C	0.936786	0.631932	-0.078709
C43	C	0.711847	1.000545	0.000039
C44	C	0.608341	1.000549	0.000034
C45	C	0.485546	1.122976	-0.061171
C46	C	0.454711	1.061774	-0.105528
C47	C	0.454753	1.061746	0.044382
C48	C	0.578869	0.939347	-0.044384
C49	C	0.578908	0.939336	0.105584
C50	C	0.548145	0.878045	0.061254
C51	C	1.321802	1.000518	0.000071
C52	C	1.425308	1.000513	0.000077
C53	C	1.016825	1.000530	-0.300050
C54	C	1.016825	1.000530	-0.401902
C55	C	1.016825	1.300636	0.000056
C56	C	1.016825	1.402489	0.000056
C57	C	0.960230	1.111915	-0.503006
C58	C	0.960229	1.111917	-0.608277
C59	C	1.016824	1.000532	0.300160
C60	C	1.016824	1.000532	0.402013
C61	C	1.321801	0.700413	0.000071
C62	C	1.425308	0.598556	0.000076
C63	C	1.016823	0.700427	0.300159
C64	C	1.016823	0.598575	0.402012
C65	C	1.321801	0.700414	0.300175
C66	C	1.425307	0.598557	0.402033
C67	C	0.711848	1.300649	-0.300065
C68	C	0.608342	1.402506	-0.401923
C69	C	0.711848	1.300649	0.000040
C70	C	0.608342	1.402507	0.000035
C71	C	1.016826	1.300635	-0.300049
C72	C	1.016826	1.402487	-0.401902
C73	C	1.414858	0.553147	-0.055616
C74	C	1.521836	0.447872	-0.055612
C75	C	1.073418	0.553164	0.503115
C76	C	1.073419	0.447894	0.608387
C77	C	1.528049	0.553143	0.391757
C78	C	1.635029	0.447869	0.497031
H79	H	1.085343	0.374117	0.067491
O80	O	1.538310	0.599831	0.288203
C81	C	1.429211	0.694565	0.206145
H82	H	1.364826	0.678764	0.243540
H83	H	1.430178	0.686867	0.132311
H84	H	1.404407	0.794668	0.176230
H85	H	0.911769	1.207278	-0.695009
O86	O	0.390947	1.123670	0.088999
C87	C	0.356863	1.252733	0.024161
H88	H	0.418114	1.260501	-0.023609
H89	H	0.357676	1.283989	0.081434
H90	H	0.267240	1.318074	-0.037768
O91	O	0.455153	1.246493	-0.123179
C92	C	0.390968	1.310590	-0.234394
H93	H	0.411329	1.236311	-0.252221
H94	H	0.413257	1.378163	-0.294351
H95	H	0.296419	1.369127	-0.246543
O96	O	1.519410	0.449247	0.608376
C97	C	1.459625	0.583360	0.556441
H98	H	1.522763	0.609493	0.552112
H99	H	1.405755	0.610973	0.607090
H100	H	1.402013	0.638059	0.468129
O101	O	1.131045	0.401435	0.711877
C102	C	1.054543	0.424786	0.770704
H103	H	0.964844	0.508723	0.708570
H104	H	1.080353	0.450039	0.823714
H105	H	1.056570	0.334482	0.827396
O106	O	0.902443	1.225568	-0.513105
C107	C	0.915327	1.200264	-0.405748
H108	H	0.937269	1.099510	-0.342391
H109	H	0.832471	1.275056	-0.406705
H110	H	0.986655	1.205765	-0.381336
H111	H	0.868262	0.555032	-0.146134
H112	H	1.326714	0.592214	-0.103304
O113	O	1.511507	0.401069	-0.112333
C114	C	1.564227	0.266970	-0.037040
H115	H	1.630425	0.226470	0.040109
H116	H	1.607516	0.217334	-0.079488
H117	H	1.497374	0.248669	-0.010859
O118	O	1.740109	0.401515	0.486583
C119	C	1.752662	0.503578	0.427614
H120	H	1.665146	0.599344	0.374704
H121	H	1.803911	0.489055	0.370816
H122	H	1.799081	0.504866	0.489634
H123	H	1.065281	0.905171	-0.393280
O124	O	0.390972	1.123589	-0.212067
C125	C	0.444029	1.167931	-0.286897
H126	H	0.502488	1.178437	-0.246583
H127	H	0.376402	1.265687	-0.367125
H128	H	0.496100	1.095529	-0.307494
O129	O	0.855181	0.759004	-0.159190
C130	C	0.906795	0.819243	-0.219774
H131	H	0.998802	0.761510	-0.166356
H132	H	0.858510	0.921579	-0.242250
H133	H	0.904807	0.823353	-0.299706
H134	H	1.065274	0.905167	-0.511258
O135	O	0.958917	0.552172	0.391513
C136	C	0.906320	0.614809	0.277068
H137	H	0.894465	0.711843	0.225934
H138	H	0.819836	0.631227	0.263827
H139	H	0.962124	0.552010	0.248900
O140	O	1.098550	0.471589	0.080654
C141	C	1.093213	0.444456	0.186778
H142	H	1.050490	0.537450	0.181860
H143	H	1.182991	0.371807	0.250085
H144	H	1.041846	0.402171	0.214203
O145	O	0.642574	0.877459	-0.089068
C146	C	0.675691	0.748767	-0.024902
H147	H	0.673450	0.718274	0.063167
H148	H	0.765699	0.682556	-0.020158
H149	H	0.614706	0.741407	-0.065826
O150	O	0.578945	0.754366	0.123007
C151	C	0.698601	0.668030	0.165408
H152	H	0.736475	0.718872	0.110837
H153	H	0.725261	0.580694	0.164859
H154	H	0.730822	0.634709	0.254813
H155	H	1.513452	0.559498	0.047754
O156	O	1.635196	0.449058	0.056892
C157	C	1.695120	0.504508	0.013810
H158	H	1.748893	0.461246	-0.029041
H159	H	1.752833	0.483619	0.085138
H160	H	1.632092	0.613494	-0.049502
H161	H	0.968374	0.441533	0.511367
O162	O	1.131055	0.599978	0.513266
C163	C	1.054536	0.734079	0.461378
H164	H	0.976137	0.774568	0.396242
H165	H	1.097668	0.783717	0.418772
H166	H	1.027930	0.752390	0.527160
O167	O	0.642620	0.877845	0.212029
C168	C	0.578141	0.942720	0.258477
H169	H	0.507652	1.047190	0.188283
H170	H	0.635728	0.940963	0.313751
H171	H	0.538905	0.892468	0.310955
O172	O	1.414697	0.551954	0.505443
C173	C	1.354773	0.496504	0.517808
H174	H	1.301000	0.539764	0.431692
H175	H	1.297058	0.517397	0.568241
H176	H	1.417800	0.387517	0.563489
