data_functionalizedCrystal
_audit_creation_method	'MofGen! by Chris Wilmer'
_symmetry_space_group_name_H-M	'P1'
_symmetry_Int_Tables_number	1
_symmetry_cell_setting	triclinic
loop_
_symmetry_equiv_pos_as_xyz
  x,y,z
_cell_length_a	17.699104
_cell_length_b	14.044190
_cell_length_c	16.176319
_cell_angle_alpha	90.005109
_cell_angle_beta	90.008289
_cell_angle_gamma	88.241647
loop_
_atom_site_label
_atom_site_type_symbol
_atom_site_fract_x
_atom_site_fract_y
_atom_site_fract_z
O1	O	1.012345	0.119937	0.068773
O2	O	0.793044	0.135509	0.068772
O3	O	0.899400	-0.010255	0.068756
O4	O	0.905989	0.265700	0.068789
O5	O	0.899383	-0.010247	-0.068737
O6	O	0.793027	0.135517	-0.068721
O7	O	1.012328	0.119945	-0.068720
Cu8	Cu	0.902676	0.127731	-0.081275
Cu9	Cu	0.902696	0.127722	0.081327
O10	O	0.905972	0.265708	-0.068705
C11	C	0.764800	0.134951	0.000025
C12	C	0.680666	0.133267	0.000024
C13	C	0.161044	0.209330	0.000042
C14	C	0.240096	0.210907	0.000044
C15	C	0.282809	0.125338	0.000034
C16	C	0.246466	0.038187	0.000029
C17	C	0.167415	0.036611	0.000033
C18	C	0.565270	0.044540	0.000017
C19	C	0.644327	0.046122	0.000011
C20	C	0.637952	0.218835	0.000028
C21	C	0.558901	0.217260	0.000032
C22	C	0.522564	0.130109	0.000032
C23	C	0.436847	0.128401	0.000030
C24	C	0.368526	0.127046	0.000029
C25	C	0.896509	-0.045559	0.000007
C26	C	0.887911	-0.150766	-0.000000
C27	C	0.933171	-0.401152	0.000032
C28	C	0.872204	-0.343389	0.000026
C29	C	0.880946	-0.236204	0.000012
C30	C	0.924431	-0.508347	0.000047
C31	C	1.040572	0.120502	0.000028
C32	C	1.124706	0.122186	0.000035
C33	C	0.908863	0.301012	0.000046
C34	C	0.917461	0.406219	0.000059
N35	N	0.902667	0.127737	-0.195640
C36	C	0.949813	0.063187	-0.761030
C37	C	0.949810	0.063194	-0.674483
C38	C	0.902700	0.127718	-0.631216
C39	C	0.855595	0.192245	-0.674500
C40	C	0.855603	0.192243	-0.761046
C41	C	0.855566	0.192259	-0.325472
C42	C	0.855560	0.192255	-0.238920
C43	C	0.949773	0.063210	-0.238909
C44	C	0.949780	0.063207	-0.325455
C45	C	0.902679	0.127738	-0.368731
C46	C	0.902684	0.127731	-0.462576
C47	C	0.902691	0.127721	-0.537373
N48	N	0.902710	0.127708	0.195692
H49	H	0.269679	0.281869	0.000058
H50	H	0.988165	0.010657	-0.639246
Cl51	Cl	0.300163	-0.069386	0.000018
Cl52	Cl	0.796333	0.273378	-0.184528
H53	H	0.988172	0.010641	-0.796252
H54	H	0.817248	0.244783	-0.796282
Cl55	Cl	0.698023	-0.061459	-0.000000
Cl56	Cl	0.121733	-0.072946	0.000024
Cl57	Cl	0.107355	0.316909	0.000048
H58	H	0.817240	0.244787	-0.639267
H59	H	0.988128	0.010668	-0.203664
Cl60	Cl	0.505208	0.324836	0.000043
Cl61	Cl	0.796351	0.273377	-0.379871
H62	H	0.667546	0.289798	0.000032
H63	H	0.535695	-0.026423	0.000015
Cl64	Cl	0.781481	-0.391316	0.000027
H65	H	0.988139	0.010663	-0.360680
H66	H	0.991927	-0.370109	0.000024
