data_functionalizedCrystal
_audit_creation_method	'MofGen! by Chris Wilmer'
_symmetry_space_group_name_H-M	'P1'
_symmetry_Int_Tables_number	1
_symmetry_cell_setting	triclinic
loop_
_symmetry_equiv_pos_as_xyz
  x,y,z
_cell_length_a	19.288840
_cell_length_b	23.532357
_cell_length_c	17.766277
_cell_angle_alpha	89.988084
_cell_angle_beta	89.983415
_cell_angle_gamma	82.977153
loop_
_atom_site_label
_atom_site_type_symbol
_atom_site_fract_x
_atom_site_fract_y
_atom_site_fract_z
O1	O	0.921130	0.070979	-0.062729
O2	O	0.718835	0.080578	-0.062704
O3	O	0.826101	-0.007143	-0.062702
O4	O	0.813864	0.158700	-0.062731
O5	O	0.826082	-0.007147	0.062487
O6	O	0.718816	0.080574	0.062484
O7	O	0.921111	0.070975	0.062460
Cu8	Cu	0.819962	0.075774	0.073903
Cu9	Cu	0.819984	0.075779	-0.074147
O10	O	0.813845	0.158696	0.062457
C11	C	0.692950	0.080269	-0.000106
C12	C	0.615848	0.079349	-0.000096
C13	C	0.579657	0.078910	-0.068338
C14	C	0.507212	0.078039	-0.068347
C15	C	0.470965	0.077596	-0.000110
C16	C	0.507165	0.078039	0.068141
C17	C	0.579607	0.078916	0.068148
C18	C	0.361744	0.042847	0.052164
C19	C	0.289304	0.041967	0.052154
C20	C	0.247530	0.074895	-0.000130
C21	C	0.278206	0.108696	-0.052416
C22	C	0.350648	0.109573	-0.052409
C23	C	0.392414	0.076646	-0.000111
C24	C	0.132786	0.073512	-0.068386
C25	C	0.060340	0.072645	-0.068392
C26	C	0.060295	0.072639	0.068098
C27	C	0.132739	0.073513	0.068102
C28	C	0.168980	0.073946	-0.000142
C29	C	0.825785	-0.028362	-0.000105
C30	C	0.824865	-0.091583	-0.000098
C31	C	0.819098	-0.483603	-0.068378
C32	C	0.818223	-0.543004	-0.068382
O33	O	0.817756	-0.573720	-0.126418
N34	N	0.817779	-0.572719	-0.000143
C35	C	0.818203	-0.543028	0.068105
O36	O	0.817744	-0.573757	0.126148
C37	C	0.819073	-0.483628	0.068108
C38	C	0.819524	-0.453917	-0.000135
C39	C	0.819548	-0.453892	-0.136616
C40	C	0.820424	-0.394495	-0.136612
C41	C	0.820850	-0.364809	-0.068369
C42	C	0.820400	-0.394520	-0.000131
C43	C	0.819492	-0.453938	0.136356
C44	C	0.820361	-0.394533	0.136353
C45	C	0.820812	-0.364822	0.068109
C46	C	0.821702	-0.305437	0.068116
N47	N	0.822146	-0.275722	-0.000123
C48	C	0.821720	-0.305409	-0.068366
C49	C	0.816375	-0.667773	0.068093
C50	C	0.815511	-0.727174	0.068090
C51	C	0.815530	-0.727145	-0.068398
C52	C	0.816399	-0.667745	-0.068394
C53	C	0.816819	-0.638059	-0.000147
C54	C	0.823560	-0.180671	-0.068351
C55	C	0.824439	-0.121269	-0.068341
C56	C	0.824416	-0.121302	0.068146
C57	C	0.823541	-0.180699	0.068136
C58	C	0.823111	-0.210382	-0.000119
O59	O	0.822167	-0.274684	0.126122
O60	O	0.822169	-0.274672	-0.126399
C61	C	0.946996	0.071283	-0.000140
C62	C	1.024098	0.072203	-0.000155
C63	C	0.814161	0.179915	-0.000141
C64	C	0.815081	0.243135	-0.000153
N65	N	0.819951	0.075770	0.178033
N66	N	0.820000	0.075778	-0.178278
C67	C	0.867464	0.036946	0.217421
C68	C	0.867468	0.036943	0.296223
C69	C	0.819966	0.075774	0.335634
C70	C	0.772445	0.114601	0.296236
C71	C	0.772437	0.114599	0.217436
C72	C	0.810496	0.127667	0.460463
C73	C	0.810508	0.127670	0.539262
C74	C	0.819985	0.075781	0.578680
C75	C	0.829464	0.023887	0.539289
C76	C	0.829457	0.023884	0.460489
C77	C	0.819968	0.075781	0.421079
C78	C	0.867504	0.036951	0.703514
C79	C	0.867503	0.036948	0.782317
C80	C	0.772483	0.114611	0.782329
C81	C	0.772481	0.114609	0.703527
C82	C	0.819995	0.075780	0.664124
H83	H	0.162207	0.073867	0.123672
H84	H	0.733794	0.146225	0.671455
H85	H	0.733804	0.146225	0.814417
H86	H	0.477739	0.077682	-0.123920
H87	H	0.815180	-0.751326	-0.123965
Cl88	Cl	0.816964	-0.630400	-0.154189
H89	H	0.264335	0.014441	0.094726
H90	H	0.837180	-0.018366	0.571382
H91	H	0.030783	0.072283	0.123657
Cl92	Cl	0.712725	0.163415	0.345779
H93	H	0.609160	0.079263	-0.123908
Cl94	Cl	0.814957	-0.764518	0.153886
H95	H	0.395752	0.016031	0.094744
H96	H	0.802794	0.169926	0.571328
Cl97	Cl	0.818920	-0.491273	0.222154
Cl98	Cl	0.798646	0.192907	0.410917
Cl99	Cl	0.823020	-0.217977	-0.154159
Cl100	Cl	0.461597	0.077486	0.153924
H101	H	0.375620	0.137096	-0.094981
Cl102	Cl	0.820985	-0.357153	-0.222409
H103	H	0.906191	0.005332	0.671431
H104	H	0.837173	-0.018370	0.428421
Cl105	Cl	0.625108	0.079468	0.153945
H106	H	0.819199	-0.478056	-0.192191
Cl107	Cl	0.225697	0.150098	-0.118147
Cl108	Cl	0.178349	0.074063	-0.154177
Cl109	Cl	0.825008	-0.083922	-0.154139
Cl110	Cl	0.816910	-0.630461	0.153899
H111	H	0.030873	0.072291	-0.123966
Cl112	Cl	0.820889	-0.357217	0.222156
H113	H	0.823180	-0.204891	0.123706
Cl114	Cl	0.824952	-0.083971	0.153933
H115	H	0.906151	0.005328	0.185341
Cl116	Cl	0.927234	-0.011867	0.831836
Cl117	Cl	0.927204	-0.011868	0.345747
Cl118	Cl	0.712704	0.163411	0.167916
