data_functionalizedCrystal
_audit_creation_method	'MofGen! by Chris Wilmer'
_symmetry_space_group_name_H-M	'P1'
_symmetry_Int_Tables_number	1
_symmetry_cell_setting	triclinic
loop_
_symmetry_equiv_pos_as_xyz
  x,y,z
_cell_length_a	12.759401
_cell_length_b	12.759400
_cell_length_c	12.759393
_cell_angle_alpha	90.029805
_cell_angle_beta	90.019676
_cell_angle_gamma	90.015071
loop_
_atom_site_label
_atom_site_type_symbol
_atom_site_fract_x
_atom_site_fract_y
_atom_site_fract_z
Zn1	Zn	1.606267	-0.418204	0.593990
Zn2	Zn	1.606158	-0.593919	0.418312
Zn3	Zn	1.430565	-0.418256	0.418329
Zn4	Zn	1.430558	-0.593842	0.593953
O5	O	1.518387	-0.506055	0.506146
O6	O	1.753273	-0.441523	0.570694
O7	O	1.582823	-0.570671	0.271293
O8	O	1.453921	-0.271228	0.441653
O9	O	1.753193	-0.570620	0.441624
O10	O	1.583008	-0.271189	0.570710
O11	O	1.453816	-0.441612	0.271305
O12	O	1.283543	-0.441538	0.441617
O13	O	1.453908	-0.570489	0.740979
O14	O	1.283538	-0.570540	0.570648
O15	O	1.583001	-0.441448	0.741006
O16	O	1.582815	-0.740930	0.441589
O17	O	1.453802	-0.740874	0.570632
C18	C	1.245420	-0.506037	0.506131
C19	C	1.128643	-0.506055	0.506150
C20	C	1.073823	-0.438955	0.573460
C21	C	0.964099	-0.438966	0.573467
C22	C	0.964024	-0.573185	0.438850
C23	C	1.073746	-0.573168	0.438839
C24	C	1.518325	-0.779023	0.506127
C25	C	1.518394	-0.895799	0.506154
C26	C	1.585581	-0.950551	0.573412
C27	C	1.585640	-1.060275	0.573440
C28	C	1.451323	-1.060486	0.438945
C29	C	1.451260	-0.950764	0.438923
C30	C	1.792420	-0.506074	0.506161
C31	C	1.909197	-0.506082	0.506168
C32	C	1.518466	-0.505954	0.780179
C33	C	1.518499	-0.505911	0.896956
C34	C	1.518478	-0.232022	0.506188
C35	C	1.518517	-0.115245	0.506205
C36	C	1.518369	-0.506080	0.233179
C37	C	1.518539	-0.505827	0.116402
C38	C	1.585723	-0.438709	0.951834
C39	C	1.585740	-0.438664	1.061558
C40	C	1.451308	-0.573032	1.061517
C41	C	1.451286	-0.573072	0.951795
H42	H	0.919470	-0.384325	0.628276
C43	C	1.645371	-1.228375	0.633203
C44	C	1.659493	-1.120460	0.647371
H45	H	1.690962	-1.265528	0.678853
H46	H	1.660793	-1.246393	0.562638
H47	H	1.574779	-1.246391	0.648527
H48	H	1.730083	-1.102442	0.632039
H49	H	1.644078	-1.102435	0.717951
H50	H	1.396666	-1.105251	0.384206
H51	H	1.396537	-0.627795	0.907112
C52	C	0.930149	-0.624155	0.260862
C53	C	0.903678	-0.646962	0.364873
H54	H	0.892890	-0.669702	0.215194
H55	H	1.003332	-0.633749	0.251228
H56	H	0.912159	-0.553548	0.245621
H57	H	0.921676	-0.717567	0.380116
H58	H	0.830479	-0.637376	0.374512
C59	C	1.636945	-0.260822	0.918090
C60	C	1.659591	-0.364877	0.891554
H61	H	1.682544	-0.215239	0.880872
H62	H	1.646580	-0.251190	0.991282
H63	H	1.566353	-0.245464	0.900093
H64	H	1.730181	-0.380237	0.909557
H65	H	1.649964	-0.374513	0.818345
H66	H	1.640479	-0.383939	1.106235
C67	C	1.107500	-0.751011	0.387352
C68	C	1.134014	-0.646932	0.364849
H69	H	1.144714	-0.796544	0.341677
H70	H	1.034307	-0.760624	0.377720
H71	H	1.125516	-0.766455	0.457917
H72	H	1.115991	-0.631486	0.294286
H73	H	1.207224	-0.637315	0.374472
H74	H	1.118517	-0.384304	0.628265
C75	C	1.318501	-0.961984	0.305969
C76	C	1.377405	-0.890572	0.364985
H77	H	1.272912	-0.924821	0.260324
H78	H	1.278316	-1.004778	0.351716
H79	H	1.364331	-1.004772	0.265829
H80	H	1.331575	-0.847789	0.405131
H81	H	1.417593	-0.847759	0.319232
H82	H	1.396588	-0.627714	1.106180
C83	C	1.718337	-0.961368	0.706371
C84	C	1.659360	-0.890133	0.647326
H85	H	1.763877	-0.924069	0.752011
H86	H	1.758576	-1.004158	0.660642
H87	H	1.672550	-1.004178	0.746519
H88	H	1.705146	-0.847329	0.607172
H89	H	1.619117	-0.847326	0.693061
