data_functionalizedCrystal
_audit_creation_method	'MofGen! by Chris Wilmer'
_symmetry_space_group_name_H-M	'P1'
_symmetry_Int_Tables_number	1
_symmetry_cell_setting	triclinic
loop_
_symmetry_equiv_pos_as_xyz
  x,y,z
_cell_length_a	10.654550
_cell_length_b	14.971486
_cell_length_c	9.730223
_cell_angle_alpha	89.995390
_cell_angle_beta	89.999957
_cell_angle_gamma	84.049530
loop_
_atom_site_label
_atom_site_type_symbol
_atom_site_fract_x
_atom_site_fract_y
_atom_site_fract_z
O1	O	1.666491	0.125631	-0.114188
O2	O	1.300884	0.137600	-0.114213
O3	O	1.493487	0.001469	-0.114190
O4	O	1.473889	0.261762	-0.114211
O5	O	1.493475	0.001465	0.114390
O6	O	1.300872	0.137596	0.114366
O7	O	1.666479	0.125627	0.114392
Zn8	Zn	1.483674	0.131611	0.150671
Zn9	Zn	1.483690	0.131616	-0.150493
O10	O	1.473876	0.261759	0.114369
C11	C	1.254090	0.136720	0.000073
C12	C	1.114675	0.134090	0.000064
C13	C	1.034329	0.214242	0.000061
C14	C	0.903335	0.211766	0.000086
C15	C	0.933044	0.048979	0.000109
C16	C	1.064036	0.051456	0.000095
C17	C	1.492604	-0.031863	0.000099
C18	C	1.489978	-0.131174	0.000098
C19	C	1.603127	-0.187783	0.000107
C20	C	1.600651	-0.281096	0.000093
C21	C	1.485026	-0.317798	0.000080
C22	C	1.371868	-0.261181	0.000067
C23	C	1.374345	-0.167870	0.000071
C24	C	1.366714	-0.455672	0.000061
C25	C	1.364237	-0.548989	0.000060
C26	C	1.593020	-0.568898	0.000083
C27	C	1.595497	-0.475587	0.000087
C28	C	1.482339	-0.418976	0.000077
C29	C	1.713274	0.126508	0.000102
C30	C	1.852689	0.129137	0.000102
C31	C	1.474759	0.295090	0.000076
C32	C	1.477385	0.394401	0.000069
N33	N	1.483672	0.131607	0.356208
N34	N	1.483702	0.131613	-0.356029
C35	C	1.568985	0.071354	0.428144
C36	C	1.568997	0.071354	0.572027
C37	C	1.398379	0.191869	0.572025
C38	C	1.398362	0.191864	0.428144
H39	H	1.075554	0.281528	0.000047
H40	H	1.328883	0.240930	0.369570
C41	C	0.816312	0.298888	0.000008
C42	C	0.888702	0.371780	-0.000056
C43	C	0.808580	0.452054	-0.000144
H44	H	0.764575	0.301437	0.079704
H45	H	0.764603	0.301353	-0.079728
H46	H	0.940389	0.369317	0.079672
H47	H	0.940436	0.369261	-0.079746
H48	H	0.756871	0.454518	-0.079880
H49	H	0.756848	0.454593	0.079553
H50	H	0.857685	0.501520	-0.000200
H51	H	0.891798	-0.018299	0.000142
C52	C	1.728794	-0.148113	0.000046
C53	C	1.827354	-0.217667	0.000010
C54	C	1.943139	-0.181160	-0.000072
H55	H	1.734698	-0.112143	0.079735
H56	H	1.734585	-0.112148	-0.079697
H57	H	1.821567	-0.253617	0.079744
H58	H	1.821493	-0.253642	-0.079674
H59	H	1.948929	-0.145195	-0.079815
H60	H	1.949029	-0.145191	0.079618
H61	H	2.010026	-0.228346	-0.000109
H62	H	1.689649	-0.445708	0.000108
H63	H	1.638466	0.022290	0.630593
H64	H	1.282207	-0.121779	0.000063
C65	C	1.305709	0.257149	0.650311
C66	C	1.228806	0.208994	0.732966
C67	C	1.143437	0.269103	0.805115
H68	H	1.254771	0.293059	0.587019
H69	H	1.350911	0.294673	0.706501
H70	H	1.183608	0.171487	0.676781
H71	H	1.279709	0.173088	0.796283
H72	H	1.188639	0.306626	0.861304
H73	H	1.092508	0.305009	0.741813
H74	H	1.091256	0.236438	0.861214
C75	C	1.661651	0.005828	0.350288
C76	C	1.736342	-0.046955	0.444090
C77	C	1.821707	-0.107339	0.372425
H78	H	1.714085	0.038244	0.294139
H79	H	1.616448	-0.031757	0.294206
H80	H	1.781541	-0.009375	0.500149
H81	H	1.683942	-0.079390	0.500242
H82	H	1.776505	-0.144924	0.316343
H83	H	1.874133	-0.074916	0.316278
H84	H	1.872388	-0.143165	0.436058
H85	H	1.274568	-0.409581	0.000049
H86	H	1.129457	-0.013817	0.000101
C87	C	1.238574	-0.588666	-0.000049
C88	C	1.140005	-0.519120	-0.000113
C89	C	1.024227	-0.555637	-0.000239
H90	H	1.232655	-0.624648	0.079634
H91	H	1.232812	-0.624623	-0.079798
H92	H	1.145764	-0.483179	0.079627
H93	H	1.145882	-0.483134	-0.079791
H94	H	1.018464	-0.591593	-0.079988
H95	H	1.018321	-0.591617	0.079446
H96	H	0.957334	-0.508456	-0.000295
H97	H	1.692789	-0.327185	0.000103
H98	H	1.277724	-0.291071	0.000047
H99	H	1.685158	-0.614995	0.000087
