data_functionalizedCrystal
_audit_creation_method	'MofGen! by Chris Wilmer'
_symmetry_space_group_name_H-M	'P1'
_symmetry_Int_Tables_number	1
_symmetry_cell_setting	triclinic
loop_
_symmetry_equiv_pos_as_xyz
  x,y,z
_cell_length_a	11.792253
_cell_length_b	10.654550
_cell_length_c	10.268362
_cell_angle_alpha	89.995760
_cell_angle_beta	89.988676
_cell_angle_gamma	84.341750
loop_
_atom_site_label
_atom_site_type_symbol
_atom_site_fract_x
_atom_site_fract_y
_atom_site_fract_z
O1	O	-0.159421	-1.667391	0.108425
O2	O	-0.174610	-1.301871	0.108406
O3	O	-0.001866	-1.493493	0.108389
O4	O	-0.332165	-1.475769	0.108442
O5	O	-0.001856	-1.493490	-0.108212
O6	O	-0.174599	-1.301868	-0.108195
O7	O	-0.159411	-1.667389	-0.108175
Cu8	Cu	-0.167004	-1.484628	-0.127962
Cu9	Cu	-0.167016	-1.484631	0.128193
O10	O	-0.332154	-1.475767	-0.108158
C11	C	0.040432	-1.492375	0.000085
C12	C	0.166453	-1.489033	0.000072
C13	C	-0.173489	-1.255074	0.000103
C14	C	-0.170153	-1.115640	0.000094
C15	C	0.268796	-1.486318	0.000065
C16	C	0.397190	-1.482923	0.000063
C17	C	0.625547	-1.476884	0.000122
C18	C	0.499527	-1.480226	0.000062
C19	C	-0.160531	-1.714185	0.000131
C20	C	-0.163868	-1.853619	0.000148
C21	C	-0.271861	-1.035872	0.000130
C22	C	-0.268719	-0.904860	0.000152
C23	C	-0.062152	-0.933397	0.000109
C24	C	-0.065295	-1.064407	0.000077
C25	C	-0.376719	-1.087106	0.000147
C26	C	-0.478436	-1.007336	0.000184
C27	C	-0.475294	-0.876324	0.000206
C28	C	-0.370436	-0.825082	0.000191
N29	N	-0.167016	-1.484634	0.308359
N30	N	-0.166995	-1.484635	-0.308128
C31	C	-0.167010	-1.484631	0.574029
C32	C	-0.167017	-1.484629	0.426192
H33	H	-0.379289	-1.193781	0.000135
H34	H	0.023220	-0.891665	0.000118
C35	C	0.046582	-1.152165	0.000041
C36	C	0.132225	-1.145895	-0.112446
C37	C	0.244103	-1.233655	-0.112489
C38	C	0.270338	-1.327685	-0.000046
C39	C	0.184693	-1.333959	0.112450
C40	C	0.072815	-1.246199	0.112493
H41	H	0.112806	-1.076285	-0.195691
H42	H	0.307503	-1.229011	-0.195766
H43	H	0.353157	-1.392651	-0.000078
H44	H	0.204112	-1.403569	0.195695
H45	H	0.009415	-1.250843	0.195770
H46	H	-0.563809	-1.049067	0.000185
H47	H	-0.558117	-0.811378	0.000223
H48	H	-0.367886	-0.718401	0.000189
