data_functionalizedCrystal
_audit_creation_method	'MofGen! by Chris Wilmer'
_symmetry_space_group_name_H-M	'P1'
_symmetry_Int_Tables_number	1
_symmetry_cell_setting	triclinic
loop_
_symmetry_equiv_pos_as_xyz
  x,y,z
_cell_length_a	21.395362
_cell_length_b	16.625546
_cell_length_c	21.395355
_cell_angle_alpha	89.981524
_cell_angle_beta	89.956060
_cell_angle_gamma	90.038346
loop_
_atom_site_label
_atom_site_type_symbol
_atom_site_fract_x
_atom_site_fract_y
_atom_site_fract_z
Zn1	Zn	0.957895	-0.320753	-0.354586
Zn2	Zn	0.957813	-0.455568	-0.249808
Zn3	Zn	0.853110	-0.320791	-0.249787
Zn4	Zn	0.853095	-0.455585	-0.354513
O5	O	0.905478	-0.388174	-0.302174
O6	O	1.045562	-0.338614	-0.340726
O7	O	0.943896	-0.437699	-0.162128
O8	O	0.867051	-0.207953	-0.263710
O9	O	1.045502	-0.437662	-0.263747
O10	O	0.944036	-0.207926	-0.340706
O11	O	0.866971	-0.338678	-0.162112
O12	O	0.765430	-0.338694	-0.263640
O13	O	0.867024	-0.437690	-0.442201
O14	O	0.765419	-0.437727	-0.340582
O15	O	0.944021	-0.338630	-0.442254
O16	O	0.943881	-0.568403	-0.263676
O17	O	0.866945	-0.568415	-0.340602
C18	C	0.742691	-0.388217	-0.302101
C19	C	0.673049	-0.388255	-0.302085
C20	C	0.640347	-0.439889	-0.342088
C21	C	0.574911	-0.439870	-0.342116
C22	C	0.542181	-0.388224	-0.302129
C23	C	0.574892	-0.336579	-0.262123
C24	C	0.640326	-0.336594	-0.262101
C25	C	0.438456	-0.381728	-0.245724
C26	C	0.373023	-0.381718	-0.245745
C27	C	0.340360	-0.388171	-0.302198
C28	C	0.373139	-0.394651	-0.358632
C29	C	0.438573	-0.394666	-0.358610
C30	C	0.471229	-0.388201	-0.302149
C31	C	0.236705	-0.439787	-0.342236
C32	C	0.171268	-0.439762	-0.342265
C33	C	0.171250	-0.336475	-0.262266
C34	C	0.236686	-0.336496	-0.262242
C35	C	0.269409	-0.388157	-0.302227
C36	C	0.905419	-0.597665	-0.302147
C37	C	0.905451	-0.687286	-0.302157
C38	C	0.905560	-1.015462	-0.302222
C39	C	0.905528	-0.924153	-0.302206
C40	C	0.905505	-0.851377	-0.302189
C41	C	0.905474	-0.760063	-0.302174
C42	C	1.068902	-0.388132	-0.302247
C43	C	1.138543	-0.388114	-0.302278
C44	C	0.905530	-0.388158	-0.465597
C45	C	0.905552	-0.388151	-0.535238
C46	C	0.905555	-0.177865	-0.302214
C47	C	0.905588	-0.088244	-0.302231
C48	C	0.945643	-0.336568	-0.567980
C49	C	0.945642	-0.336534	-0.633416
C50	C	0.905557	-0.388096	-0.666107
C51	C	0.865459	-0.439683	-0.633357
C52	C	0.865457	-0.439710	-0.567923
C53	C	0.900589	-0.460699	-0.769771
C54	C	0.900596	-0.460672	-0.835204
C55	C	0.905561	-0.388011	-0.867927
C56	C	0.910532	-0.315373	-0.835210
C57	C	0.910530	-0.315401	-0.769776
C58	C	0.905555	-0.388072	-0.737059
C59	C	0.945653	-0.336386	-0.971622
C60	C	0.945648	-0.336350	-1.037059
C61	C	0.865468	-0.439506	-1.036999
C62	C	0.865470	-0.439535	-0.971563
C63	C	0.905566	-0.387976	-0.938879
C64	C	0.905463	-0.388132	-0.139386
C65	C	0.905562	-0.387912	-0.069745
H66	H	0.548279	-0.481916	-0.374694
N67	N	0.822220	-0.495284	-0.668620
H68	H	0.847667	-0.532633	-0.695789
H69	H	0.796825	-0.527914	-0.637912
N70	N	0.988894	-0.280778	-0.936364
H71	H	1.014289	-0.248089	-0.967038
H72	H	0.963404	-0.243484	-0.909193
H73	H	0.978293	-0.294340	-1.063716
N74	N	0.915878	-0.237061	-0.734490
H75	H	0.915122	-0.248107	-0.688073
H76	H	0.956435	-0.209639	-0.745953
H77	H	0.978287	-0.294524	-0.660079
N78	N	0.895241	-0.539076	-0.734480
H79	H	0.895992	-0.528073	-0.688064
H80	H	0.854685	-0.566486	-0.745888
H81	H	0.144643	-0.481807	-0.374844
N82	N	0.539592	-0.280882	-0.218989
H83	H	0.570241	-0.248173	-0.193642
H84	H	0.512494	-0.243611	-0.244553
N85	N	0.822227	-0.495115	-1.072248
H86	H	0.828310	-0.487270	-1.118670
H87	H	0.831956	-0.552704	-1.060820
N88	N	0.337921	-0.401616	-0.419527
H89	H	0.291496	-0.400619	-0.410981
H90	H	0.349424	-0.355045	-0.447599
N91	N	0.473923	-0.401644	-0.419475
H92	H	0.501110	-0.352542	-0.425407
H93	H	0.501002	-0.451363	-0.418516
H94	H	0.832807	-0.481714	-0.541264
H95	H	0.914576	-0.256205	-0.861853
N96	N	0.135958	-0.280764	-0.219141
H97	H	0.089543	-0.288586	-0.225225
H98	H	0.147336	-0.293230	-0.174371
N99	N	0.822219	-0.495158	-0.936244
H100	H	0.796821	-0.527814	-0.966880
H101	H	0.847696	-0.532483	-0.909106
N102	N	0.895237	-0.539011	-0.870490
H103	H	0.931449	-0.575095	-0.859127
H104	H	0.854654	-0.566391	-0.859061
H105	H	0.666986	-0.481954	-0.374647
H106	H	0.263350	-0.481848	-0.374796
N107	N	0.271955	-0.280798	-0.219093
H108	H	0.260510	-0.293229	-0.174312
H109	H	0.318363	-0.288663	-0.225198
N110	N	0.337671	-0.374736	-0.184881
H111	H	0.368290	-0.370641	-0.149116
H112	H	0.310554	-0.325051	-0.185864
H113	H	0.465044	-0.376470	-0.199750
H114	H	0.666952	-0.294545	-0.229525
H115	H	0.978291	-0.294584	-0.541373
