data_functionalizedCrystal
_audit_creation_method	'MofGen! by Chris Wilmer'
_symmetry_space_group_name_H-M	'P1'
_symmetry_Int_Tables_number	1
_symmetry_cell_setting	triclinic
loop_
_symmetry_equiv_pos_as_xyz
  x,y,z
_cell_length_a	16.992698
_cell_length_b	16.992695
_cell_length_c	15.455301
_cell_angle_alpha	87.173129
_cell_angle_beta	87.172453
_cell_angle_gamma	90.667582
loop_
_atom_site_label
_atom_site_type_symbol
_atom_site_fract_x
_atom_site_fract_y
_atom_site_fract_z
O1	O	-1.054120	-0.170174	0.072150
O2	O	-0.554120	0.329826	0.572150
O3	O	-0.825720	-0.168345	0.072148
O4	O	-0.325720	0.331655	0.572148
O5	O	-0.939004	-0.055059	0.072142
O6	O	-0.439004	0.444941	0.572142
O7	O	-0.940836	-0.283460	0.072156
O8	O	-0.440836	0.216540	0.572156
O9	O	-0.932456	-0.048519	-0.072121
O10	O	-0.432456	0.451481	0.427879
O11	O	-0.819172	-0.161805	-0.072115
O12	O	-0.319172	0.338195	0.427885
O13	O	-1.047572	-0.163633	-0.072113
O14	O	-0.547572	0.336367	0.427887
Cu15	Cu	-0.932774	-0.162122	-0.085286
Cu16	Cu	-0.432774	0.337878	0.414714
Cu17	Cu	-0.940518	-0.169856	0.085321
Cu18	Cu	-0.440518	0.330144	0.585321
O19	O	-0.934288	-0.276919	-0.072107
O20	O	-0.434288	0.223081	0.427893
C21	C	-0.793086	-0.162719	0.000016
C22	C	-0.293086	0.337281	0.500016
C23	C	-0.705601	-0.155691	0.000015
C24	C	-0.205601	0.344309	0.500015
N25	N	-0.927333	-0.156682	-0.205283
N26	N	-0.427333	0.343318	0.294717
C27	C	-0.213682	-0.108471	0.000011
C28	C	0.286318	0.391529	0.500011
C29	C	-0.295882	-0.115080	0.000007
C30	C	0.204118	0.384920	0.500007
C31	C	-0.332090	-0.189508	0.000016
C32	C	0.167910	0.310492	0.500016
C33	C	-0.286092	-0.257331	0.000019
C34	C	0.213908	0.242669	0.500019
C35	C	-0.203893	-0.250721	0.000017
C36	C	0.296107	0.249279	0.500017
C37	C	-0.577404	-0.216904	0.000017
C38	C	-0.077404	0.283096	0.500017
C39	C	-0.659609	-0.223509	0.000022
C40	C	-0.159609	0.276491	0.500022
C41	C	-0.669394	-0.081257	0.000007
C42	C	-0.169394	0.418743	0.500007
C43	C	-0.587193	-0.074654	0.000011
C44	C	-0.087193	0.425346	0.500011
C45	C	-0.541202	-0.142477	0.000010
C46	C	-0.041202	0.357523	0.500010
N47	N	-0.416112	-0.196266	0.000014
N48	N	0.083888	0.303734	0.500014
N49	N	-0.457181	-0.135718	0.000005
N50	N	0.042819	0.364282	0.500005
C51	C	-0.080206	-0.169259	0.000018
C52	C	0.419794	0.330741	0.500018
C53	C	-0.167690	-0.176289	0.000017
C54	C	0.332310	0.323711	0.500017
C55	C	-0.933374	-0.022429	0.000011
C56	C	-0.433374	0.477571	0.500011
C57	C	-0.926345	0.065056	0.000011
C58	C	-0.426345	0.565056	0.500011
C59	C	-0.939917	-0.309550	0.000026
C60	C	-0.439917	0.190450	0.500026
C61	C	-0.946946	-0.397034	0.000032
C62	C	-0.446946	0.102966	0.500032
C63	C	-0.994163	0.111048	0.000011
C64	C	-0.494163	0.611048	0.500011
C65	C	-0.987555	0.193248	0.000019
C66	C	-0.487555	0.693248	0.500019
C67	C	-0.913127	0.229455	0.000021
C68	C	-0.413127	0.729455	0.500021
C69	C	-0.845304	0.183457	0.000024
C70	C	-0.345304	0.683457	0.500024
C71	C	-0.851914	0.101258	0.000022
C72	C	-0.351914	0.601258	0.500022
C73	C	-0.885733	0.474769	0.000033
C74	C	-0.385733	0.974769	0.500033
C75	C	-0.879129	0.556974	0.000032
C76	C	-0.379129	1.056974	0.500032
C77	C	-1.021380	0.566759	0.000028
C78	C	-0.521380	1.066759	0.500028
C79	C	-1.027983	0.484558	0.000021
C80	C	-0.527983	0.984558	0.500021
C81	C	-0.960160	0.438567	0.000029
C82	C	-0.460160	0.938567	0.500029
N83	N	-0.906370	0.313477	0.000027
N84	N	-0.406370	0.813477	0.500027
N85	N	-0.966918	0.354546	0.000029
N86	N	-0.466918	0.854546	0.500029
C87	C	-0.976009	-0.205389	-0.250670
C88	C	-0.476009	0.294611	0.249330
C89	C	-0.971905	-0.201270	-0.341478
C90	C	-0.471905	0.298730	0.158522
C91	C	-0.919120	-0.148448	-0.386898
C92	C	-0.419120	0.351552	0.113102
C93	C	-0.870442	-0.099736	-0.341504
C94	C	-0.370442	0.400264	0.158496
C95	C	-0.874550	-0.103851	-0.250698
C96	C	-0.374550	0.396149	0.249302
C97	C	-0.901395	-0.130694	-0.658482
C98	C	-0.401395	0.369306	-0.158482
C99	C	-0.897288	-0.126584	-0.749295
C100	C	-0.397288	0.373416	-0.249295
C101	C	-0.998753	-0.228118	-0.749263
C102	C	-0.498753	0.271882	-0.249263
C103	C	-1.002854	-0.232231	-0.658454
C104	C	-0.502854	0.267769	-0.158454
C105	C	-0.954178	-0.183516	-0.613069
C106	C	-0.454178	0.316484	-0.113069
N107	N	-0.914921	-0.144239	-0.479719
N108	N	-0.414921	0.355761	0.020281
N109	N	-0.958381	-0.187722	-0.520249
N110	N	-0.458381	0.312278	-0.020249
N111	N	-0.945964	-0.175291	0.205318
N112	N	-0.445964	0.324709	0.705318
H113	H	-0.333326	-0.059855	-0.000002
H114	H	0.166674	0.440145	0.499998
O115	O	-1.060699	0.242857	0.000004
O116	O	-0.560699	0.742857	0.500004
H117	H	-1.113563	0.203871	-0.000014
H118	H	-0.613563	0.703871	0.499986
H119	H	-0.557719	-0.014047	0.000003
H120	H	-0.057719	0.485953	0.500003
H121	H	-1.018988	-0.248407	-0.213696
H122	H	-0.518988	0.251593	0.286304
O123	O	-0.174634	-0.028193	0.000002
O124	O	0.325366	0.471807	0.500002
H125	H	-0.134745	-0.019121	-0.058796
H126	H	0.365255	0.480879	0.441204
O127	O	-0.778766	0.051651	0.000011
O128	O	-0.278766	0.551651	0.500011
H129	H	-0.746056	0.062415	0.058805
H130	H	-0.246056	0.562415	0.558805
O131	O	-0.718995	-0.008107	-0.000009
O132	O	-0.218995	0.491893	0.499991
H133	H	-0.782236	-0.025203	-0.000016
H134	H	-0.282236	0.474797	0.499984
H135	H	-1.088589	0.455084	0.000019
H136	H	-0.588589	0.955084	0.500019
H137	H	-0.689086	-0.284120	0.000016
H138	H	-0.189086	0.215880	0.500016
H139	H	-1.045839	-0.275243	-0.621480
H140	H	-0.545839	0.224757	-0.121480
H141	H	-0.830507	0.437332	0.000039
H142	H	-0.330507	0.937332	0.500039
H143	H	-0.784704	0.212944	0.000031
H144	H	-0.284704	0.712944	0.500031
O145	O	-0.813515	-0.042752	-0.390485
O146	O	-0.313515	0.457248	0.109515
H147	H	-0.752459	-0.056681	-0.373059
H148	H	-0.252459	0.443319	0.126941
O149	O	-0.527803	-0.290052	0.000021
O150	O	-0.027803	0.209948	0.500021
H151	H	-0.566793	-0.342915	0.000036
H152	H	-0.066793	0.157085	0.500036
H153	H	-1.076597	0.604213	0.000024
H154	H	-0.576597	1.104213	0.500024
H155	H	-1.011544	-0.240931	-0.378429
H156	H	-0.511544	0.259069	0.121571
O157	O	-0.822062	-0.051283	-0.201766
O158	O	-0.322062	0.448717	0.298234
H159	H	-0.859044	-0.013231	-0.160419
H160	H	-0.359044	0.486769	0.339581
H161	H	-0.818517	0.586452	0.000020
H162	H	-0.318517	1.086452	0.500020
H163	H	-0.315578	-0.317932	0.000021
H164	H	0.184422	0.182068	0.500021
O165	O	-1.051262	-0.280642	-0.798219
O166	O	-0.551262	0.219358	-0.298219
H167	H	-1.014308	-0.318686	-0.839604
H168	H	-0.514308	0.181314	-0.339604
O169	O	-0.840355	-0.069607	-0.798289
O170	O	-0.340355	0.430393	-0.298289
H171	H	-0.807203	-0.036418	-0.751475
H172	H	-0.307203	0.463582	-0.251475
O173	O	-0.848889	-0.078162	-0.609534
O174	O	-0.348889	0.421838	-0.109534
H175	H	-0.811488	-0.040750	-0.656376
H176	H	-0.311488	0.459250	-0.156376
O177	O	-0.154279	-0.323865	0.000022
O178	O	0.345721	0.176135	0.500022
H179	H	-0.170367	-0.361902	0.058829
H180	H	0.329633	0.138098	0.558829
O181	O	-1.074439	0.071995	0.000016
O182	O	-0.574439	0.571995	0.500016
H183	H	-1.120487	0.117789	0.000029
H184	H	-0.620487	0.617789	0.500029
