data_functionalizedCrystal
_audit_creation_method	'MofGen! by Chris Wilmer'
_symmetry_space_group_name_H-M	'P1'
_symmetry_Int_Tables_number	1
_symmetry_cell_setting	triclinic
loop_
_symmetry_equiv_pos_as_xyz
  x,y,z
_cell_length_a	14.971486
_cell_length_b	17.699083
_cell_length_c	14.048226
_cell_angle_alpha	89.992674
_cell_angle_beta	89.998499
_cell_angle_gamma	83.448572
loop_
_atom_site_label
_atom_site_type_symbol
_atom_site_fract_x
_atom_site_fract_y
_atom_site_fract_z
O1	O	1.186608	0.098633	-0.079053
O2	O	1.686608	0.598633	0.420947
O3	O	0.926167	0.110445	-0.079079
O4	O	1.426167	0.610445	0.420921
O5	O	1.063746	-0.005632	-0.079057
O6	O	1.563746	0.494368	0.420943
O7	O	1.049030	0.214710	-0.079075
O8	O	1.549030	0.714710	0.420925
O9	O	1.063729	-0.005639	0.079264
O10	O	1.563729	0.494361	0.579264
O11	O	0.926151	0.110438	0.079242
O12	O	1.426151	0.610438	0.579242
O13	O	1.186591	0.098626	0.079268
O14	O	1.686591	0.598626	0.579268
Zn15	Zn	1.056368	0.104531	0.104392
Zn16	Zn	1.556368	0.604531	0.604392
Zn17	Zn	1.056390	0.104540	-0.104203
Zn18	Zn	1.556390	0.604540	0.395797
O19	O	1.049013	0.214703	0.079246
O20	O	1.549013	0.714703	0.579246
C21	C	0.892836	0.109913	0.000078
C22	C	1.392836	0.609913	0.500078
C23	C	0.793544	0.108330	0.000068
C24	C	1.293544	0.608330	0.500068
C25	C	0.736085	0.176522	0.000064
C26	C	1.236085	0.676522	0.500064
C27	C	0.642790	0.175030	0.000078
C28	C	1.142790	0.675030	0.500078
C29	C	0.606958	0.105346	0.000090
C30	C	1.106958	0.605346	0.500090
C31	C	0.664425	0.037148	0.000097
C32	C	1.164425	0.537148	0.500097
C33	C	0.757717	0.038641	0.000090
C34	C	1.257717	0.538641	0.500090
C35	C	0.469973	0.034042	0.000111
C36	C	0.969973	0.534042	0.500111
C37	C	0.376674	0.032549	0.000117
C38	C	0.876674	0.532549	0.500117
C39	C	0.355046	0.170431	0.000099
C40	C	0.855046	0.670431	0.500099
C41	C	0.448339	0.171924	0.000092
C42	C	0.948339	0.671924	0.500092
C43	C	0.505799	0.103726	0.000097
C44	C	1.005799	0.603726	0.500097
C45	C	1.063210	-0.033834	0.000104
C46	C	1.563210	0.466166	0.500104
C47	C	1.061628	-0.117856	0.000104
C48	C	1.561628	0.382144	0.500104
C49	C	1.142384	-0.166278	0.000113
C50	C	1.642384	0.333722	0.500113
C51	C	1.140892	-0.245225	0.000105
C52	C	1.640892	0.254775	0.500105
C53	C	1.058644	-0.275748	0.000094
C54	C	1.558644	0.224252	0.500094
C55	C	0.977882	-0.227320	0.000081
C56	C	1.477882	0.272680	0.500081
C57	C	0.979375	-0.148374	0.000083
C58	C	1.479375	0.351626	0.500083
C59	C	0.971860	-0.545698	0.000073
C60	C	1.471860	-0.045698	0.500073
C61	C	0.970374	-0.624649	0.000074
C62	C	1.470374	-0.124649	0.500074
C63	C	1.133378	-0.642548	0.000095
C64	C	1.633378	-0.142548	0.500095
C65	C	1.134871	-0.563603	0.000096
C66	C	1.634871	-0.063603	0.500096
C67	C	1.054109	-0.515181	0.000079
C68	C	1.554109	-0.015181	0.500079
C69	C	1.055728	-0.429578	0.000087
C70	C	1.555728	0.070422	0.500087
C71	C	1.057024	-0.361350	0.000093
C72	C	1.557024	0.138650	0.500093
C73	C	1.219923	0.099158	0.000109
C74	C	1.719923	0.599158	0.500109
C75	C	1.319214	0.100741	0.000112
C76	C	1.819214	0.600741	0.500112
C77	C	1.049549	0.242905	0.000083
C78	C	1.549549	0.742905	0.500083
C79	C	1.051131	0.326927	0.000077
C80	C	1.551131	0.826927	0.500077
N81	N	1.056360	0.104524	0.246753
N82	N	1.556360	0.604524	0.746753
N83	N	1.056406	0.104541	-0.246564
N84	N	1.556406	0.604541	0.253436
C85	C	1.117299	0.053147	0.296581
C86	C	1.617299	0.553147	0.796581
C87	C	1.117305	0.053146	0.396238
C88	C	1.617305	0.553146	0.896238
C89	C	1.056376	0.104528	0.446066
C90	C	1.556376	0.604528	0.946066
C91	C	0.995431	0.155908	0.396231
C92	C	1.495431	0.655908	0.896231
C93	C	0.995421	0.155904	0.296576
C94	C	1.495421	0.655904	0.796576
C95	C	0.995456	0.155913	0.603946
C96	C	1.495456	0.655913	1.103946
C97	C	0.995467	0.155918	0.703608
C98	C	1.495467	0.655918	1.203608
C99	C	1.117340	0.053156	0.703608
C100	C	1.617340	0.553156	1.203608
C101	C	1.117331	0.053152	0.603953
C102	C	1.617331	0.553152	1.103953
C103	C	1.056386	0.104533	0.554125
C104	C	1.556386	0.604533	1.054125
H105	H	0.804501	-0.016888	0.000093
H106	H	1.304501	0.483112	0.500093
H107	H	0.903394	-0.649498	0.000067
H108	H	1.403394	-0.149498	0.500067
H109	H	0.945816	0.197741	0.436807
H110	H	1.445816	0.697741	0.936807
N111	N	1.231095	-0.133359	0.000135
N112	N	1.731095	0.366641	0.500135
H113	H	1.282027	-0.176017	0.000138
H114	H	1.782027	0.323983	0.500138
H115	H	1.235273	-0.100987	-0.058555
H116	H	1.735273	0.399013	0.441445
N117	N	0.774726	0.251684	0.000058
N118	N	1.274726	0.751684	0.500058
H119	H	0.842546	0.242285	0.000053
H120	H	1.342546	0.742285	0.500053
H121	H	0.753691	0.281532	-0.058634
H122	H	1.253691	0.781532	0.441366
H123	H	0.945826	0.197751	0.563379
H124	H	1.445826	0.697751	1.063379
H125	H	0.635242	-0.019590	0.000121
H126	H	1.135242	0.480410	0.500121
N127	N	1.183051	-0.002260	0.550206
N128	N	1.683051	0.497740	1.050206
H129	H	1.221659	-0.034810	0.596891
H130	H	1.721659	0.465190	1.096891
H131	H	1.148879	-0.035768	0.508870
H132	H	1.648879	0.464232	1.008870
H133	H	0.945797	0.197740	0.256007
H134	H	1.445797	0.697740	0.756007
N135	N	0.929748	0.211324	0.757365
N136	N	1.429748	0.711324	1.257365
H137	H	0.963856	0.244886	0.798698
H138	H	1.463856	0.744886	1.298698
H139	H	0.891144	0.243821	0.710627
H140	H	1.391144	0.743821	1.210627
N141	N	1.227995	-0.297449	0.000123
N142	N	1.727995	0.202551	0.500123
H143	H	1.230996	-0.330610	0.058811
H144	H	1.730996	0.169390	0.558811
H145	H	1.230969	-0.330546	-0.058607
H146	H	1.730969	0.169454	0.441393
H147	H	1.166963	0.011319	0.744184
H148	H	1.666963	0.511319	1.244184
N149	N	0.580815	0.248580	0.000181
N150	N	1.080815	0.748580	0.500181
H151	H	0.617671	0.292951	0.000202
H152	H	1.117671	0.792951	0.500202
H153	H	0.541582	0.251022	-0.058471
H154	H	1.041582	0.751022	0.441529
H155	H	1.201846	-0.538756	0.000110
H156	H	1.701846	-0.038756	0.500110
N157	N	0.884758	-0.493478	0.000058
N158	N	1.384758	0.006522	0.500058
H159	H	0.832430	-0.524796	0.000056
H160	H	1.332430	-0.024796	0.500056
H161	H	0.881819	-0.460338	0.058749
H162	H	1.381819	0.039662	0.558749
H163	H	1.199138	-0.681983	0.000104
H164	H	1.699138	-0.181983	0.500104
N165	N	0.293106	0.244005	0.000165
N166	N	0.793106	0.744005	0.500165
H167	H	0.304599	0.274430	-0.058513
H168	H	0.804599	0.774430	0.441487
H169	H	0.228583	0.232455	0.000233
H170	H	0.728583	0.732455	0.500233
H171	H	0.910914	-0.252178	0.000066
H172	H	1.410914	0.247822	0.500066
N173	N	0.892275	-0.096144	0.000067
N174	N	1.392275	0.403856	0.500067
H175	H	0.839943	-0.127458	0.000061
H176	H	1.339943	0.372542	0.500061
H177	H	0.889334	-0.063002	0.058757
H178	H	1.389334	0.436998	0.558757
N179	N	1.183000	-0.002279	0.242831
N180	N	1.683000	0.497721	0.742831
H181	H	1.222535	0.026691	0.201466
H182	H	1.722535	0.526691	0.701466
H183	H	1.221544	-0.034821	0.289574
H184	H	1.721544	0.465179	0.789574
N185	N	1.183062	-0.002242	0.449982
N186	N	1.683062	0.497758	0.949982
H187	H	1.221673	-0.034780	0.403295
H188	H	1.721673	0.465220	0.903295
H189	H	1.222524	0.026823	0.491300
H190	H	1.722524	0.526823	0.991300
H191	H	0.477510	0.228667	0.000073
H192	H	0.977510	0.728667	0.500073
H193	H	0.516756	-0.021492	0.000117
H194	H	1.016756	0.478508	0.500117
N195	N	0.338022	-0.042609	0.000127
N196	N	0.838022	0.457391	0.500127
H197	H	0.388577	-0.085585	0.000136
H198	H	0.888577	0.414415	0.500136
H199	H	0.299784	-0.046227	0.058820
H200	H	0.799784	0.453773	0.558820
