data_functionalizedCrystal
_audit_creation_method	'MofGen! by Chris Wilmer'
_symmetry_space_group_name_H-M	'P1'
_symmetry_Int_Tables_number	1
_symmetry_cell_setting	triclinic
loop_
_symmetry_equiv_pos_as_xyz
  x,y,z
_cell_length_a	10.654550
_cell_length_b	16.992695
_cell_length_c	15.455450
_cell_angle_alpha	92.817695
_cell_angle_beta	87.042707
_cell_angle_gamma	92.423437
loop_
_atom_site_label
_atom_site_type_symbol
_atom_site_fract_x
_atom_site_fract_y
_atom_site_fract_z
O1	O	1.672154	-0.107094	0.072202
O2	O	1.307584	-0.117593	0.072188
O3	O	1.488408	0.001807	0.072188
O4	O	1.491330	-0.226494	0.072202
O5	O	1.498799	-0.004375	-0.072070
O6	O	1.317975	-0.123774	-0.072070
O7	O	1.682545	-0.113276	-0.072056
Cu8	Cu	1.501209	-0.119089	-0.085235
Cu9	Cu	1.488920	-0.111779	0.085367
O10	O	1.501721	-0.232675	-0.072056
C11	C	1.265915	-0.119913	0.000057
C12	C	1.126273	-0.117607	0.000052
N13	N	1.509861	-0.124231	-0.205227
C14	C	1.489843	0.027949	0.000059
C15	C	1.478624	0.115054	0.000059
C16	C	1.052861	-0.187907	0.000069
C17	C	0.921652	-0.185734	0.000084
C18	C	0.937278	-0.042956	0.000068
C19	C	1.068485	-0.045129	0.000047
C20	C	1.110649	-0.260384	0.000073
C21	C	1.037236	-0.330690	0.000091
C22	C	0.906027	-0.328518	0.000106
C23	C	0.848230	-0.256040	0.000103
C24	C	1.724214	-0.110955	0.000077
C25	C	1.863856	-0.113261	0.000088
C26	C	1.500286	-0.258817	0.000075
C27	C	1.511505	-0.345922	0.000081
C28	C	1.586875	0.164706	0.000062
C29	C	1.576325	0.246550	0.000070
C30	C	1.457524	0.278741	0.000068
C31	C	1.349265	0.229083	0.000068
C32	C	1.359816	0.147240	0.000066
C33	C	1.413796	0.522577	0.000079
C34	C	1.403254	0.604426	0.000078
C35	C	1.630315	0.621888	0.000081
C36	C	1.640855	0.540043	0.000074
C37	C	1.532596	0.490392	0.000078
N38	N	1.446738	0.362399	0.000073
N39	N	1.543383	0.406736	0.000079
C40	C	1.432179	-0.078153	-0.250652
C41	C	1.438754	-0.082050	-0.341457
C42	C	1.523018	-0.132022	-0.386836
C43	C	1.600704	-0.178105	-0.341405
C44	C	1.594122	-0.174211	-0.250601
C45	C	1.551381	-0.148821	-0.658406
C46	C	1.557960	-0.152710	-0.749216
C47	C	1.396007	-0.056655	-0.749262
C48	C	1.389438	-0.052762	-0.658457
C49	C	1.467119	-0.098849	-0.613034
N50	N	1.529744	-0.136005	-0.479654
N51	N	1.460386	-0.094869	-0.520218
N52	N	1.480277	-0.106632	0.205359
H53	H	1.217485	-0.262161	0.000065
H54	H	0.741390	-0.254277	0.000102
H55	H	1.669309	-0.218797	-0.378359
H56	H	0.846258	-0.385764	0.000112
O57	O	1.693091	0.300097	0.000067
H58	H	1.689500	0.340311	0.058871
O59	O	0.874948	0.035214	0.000072
H60	H	0.771377	0.024915	0.000098
O61	O	1.147679	0.030691	0.000035
H62	H	1.085454	0.081455	0.000050
O63	O	1.221130	0.263803	0.000068
H64	H	1.147628	0.215525	0.000074
H65	H	1.683616	0.138503	0.000058
O66	O	1.677909	-0.223907	-0.201600
H67	H	1.737618	-0.259305	-0.248408
O68	O	1.099563	-0.408861	0.000092
H69	H	1.203133	-0.398563	0.000086
H70	H	1.737595	0.513840	0.000076
H71	H	1.306508	0.630631	0.000062
H72	H	1.271666	0.106814	0.000064
H73	H	1.718453	0.662322	0.000080
O74	O	1.297039	0.469028	0.000061
H75	H	1.212662	0.505164	0.000044
O76	O	1.341289	-0.024257	-0.201708
H77	H	1.288367	0.007122	-0.248555
H78	H	1.375497	-0.044528	-0.378438
H79	H	1.626580	-0.193406	-0.786161
H80	H	1.320824	-0.012068	-0.621516
H81	H	1.332762	-0.019136	-0.786256
H82	H	1.614640	-0.186344	-0.621433
