data_functionalizedCrystal
_audit_creation_method	'MofGen! by Chris Wilmer'
_symmetry_space_group_name_H-M	'P1'
_symmetry_Int_Tables_number	1
_symmetry_cell_setting	triclinic
loop_
_symmetry_equiv_pos_as_xyz
  x,y,z
_cell_length_a	21.295419
_cell_length_b	21.295417
_cell_length_c	21.295412
_cell_angle_alpha	89.970379
_cell_angle_beta	89.976510
_cell_angle_gamma	90.044503
loop_
_atom_site_label
_atom_site_type_symbol
_atom_site_fract_x
_atom_site_fract_y
_atom_site_fract_z
Zn1	Zn	0.962353	-0.250376	-0.355916
Zn2	Zn	1.295686	0.082957	-0.022582
Zn3	Zn	1.629019	0.416290	0.310751
Zn4	Zn	0.962258	-0.355645	-0.250643
Zn5	Zn	1.295592	-0.022311	0.082690
Zn6	Zn	1.628925	0.311022	0.416024
Zn7	Zn	0.857078	-0.250421	-0.250661
Zn8	Zn	1.190411	0.082913	0.082673
Zn9	Zn	1.523744	0.416246	0.416006
Zn10	Zn	0.857047	-0.355639	-0.355875
Zn11	Zn	1.190380	-0.022305	-0.022541
Zn12	Zn	1.523713	0.311028	0.310792
O13	O	0.909684	-0.303020	-0.303274
O14	O	1.243017	0.030313	0.030060
O15	O	1.576350	0.363647	0.363393
O16	O	1.050429	-0.264324	-0.341961
O17	O	1.383763	0.069009	-0.008627
O18	O	1.717096	0.402342	0.324706
O19	O	0.948279	-0.341708	-0.162556
O20	O	1.281613	-0.008374	0.170777
O21	O	1.614946	0.324959	0.504111
O22	O	0.871095	-0.162325	-0.264648
O23	O	1.204428	0.171008	0.068686
O24	O	1.537762	0.504341	0.402019
O25	O	1.050360	-0.341665	-0.264617
O26	O	1.383694	-0.008331	0.068716
O27	O	1.717027	0.325002	0.402049
O28	O	0.948440	-0.162293	-0.341978
O29	O	1.281773	0.171041	-0.008645
O30	O	1.615107	0.504374	0.324689
O31	O	0.871004	-0.264400	-0.162569
O32	O	1.204337	0.068934	0.170764
O33	O	1.537670	0.402267	0.504098
O34	O	0.768984	-0.264394	-0.264608
O35	O	1.102318	0.068939	0.068725
O36	O	1.435651	0.402273	0.402059
O37	O	0.871042	-0.341654	-0.443970
O38	O	1.204375	-0.008321	-0.110636
O39	O	1.537709	0.325012	0.222697
O40	O	0.768961	-0.341697	-0.341908
O41	O	1.102295	-0.008364	-0.008575
O42	O	1.435628	0.324969	0.324758
O43	O	0.948410	-0.264319	-0.444000
O44	O	1.281743	0.069015	-0.110666
O45	O	1.615077	0.402348	0.222667
O46	O	0.948249	-0.443733	-0.264578
O47	O	1.281583	-0.110400	0.068756
O48	O	1.614916	0.222933	0.402089
O49	O	0.870951	-0.443729	-0.341891
O50	O	1.204284	-0.110396	-0.008558
O51	O	1.537617	0.222938	0.324776
C52	C	0.746132	-0.303050	-0.303256
C53	C	1.079466	0.030283	0.030077
C54	C	1.412799	0.363616	0.363411
C55	C	0.676164	-0.303078	-0.303263
C56	C	1.009497	0.030255	0.030070
C57	C	1.342831	0.363588	0.363403
C58	C	0.643356	-0.262873	-0.343598
C59	C	0.976689	0.070460	-0.010265
C60	C	1.310023	0.403794	0.323068
C61	C	0.577613	-0.262856	-0.343601
C62	C	0.910947	0.070477	-0.010267
C63	C	1.244280	0.403811	0.323066
C64	C	0.544682	-0.303056	-0.303275
C65	C	0.878015	0.030278	0.030059
C66	C	1.211348	0.363611	0.363392
C67	C	0.577498	-0.343264	-0.262932
C68	C	0.910831	-0.009930	0.070401
C69	C	1.244164	0.323403	0.403735
C70	C	0.643239	-0.343275	-0.262926
C71	C	0.976572	-0.009942	0.070407
C72	C	1.309906	0.323392	0.403740
N73	N	0.441407	-0.358134	-0.298356
N74	N	0.774740	-0.024800	0.034977
N75	N	1.108074	0.308533	0.368311
N76	N	0.378956	-0.358121	-0.298365
N77	N	0.712289	-0.024788	0.034968
N78	N	1.045622	0.308545	0.368301
C79	C	0.346607	-0.303023	-0.303289
C80	C	0.679940	0.030310	0.030045
C81	C	1.013274	0.363643	0.363378
N82	N	0.379069	-0.247937	-0.308215
N83	N	0.712402	0.085396	0.025118
N84	N	1.045736	0.418730	0.358452
N85	N	0.441526	-0.247950	-0.308209
N86	N	0.774859	0.085383	0.025124
N87	N	1.108193	0.418717	0.358458
C88	C	0.473396	-0.303048	-0.303276
C89	C	0.806730	0.030286	0.030057
C90	C	1.140063	0.363619	0.363390
C91	C	0.242513	-0.262796	-0.343628
C92	C	0.575847	0.070537	-0.010295
C93	C	0.909180	0.403870	0.323038
C94	C	0.176769	-0.262778	-0.343626
C95	C	0.510103	0.070555	-0.010293
C96	C	0.843436	0.403888	0.323040
C97	C	0.176655	-0.343192	-0.262961
C98	C	0.509988	-0.009858	0.070372
C99	C	0.843322	0.323475	0.403706
C100	C	0.242397	-0.343204	-0.262960
C101	C	0.575731	-0.009871	0.070374
C102	C	0.909064	0.323463	0.403707
C103	C	0.275323	-0.303007	-0.303297
C104	C	0.608656	0.030326	0.030037
C105	C	0.941989	0.363660	0.363370
C106	C	0.909604	-0.466572	-0.303242
C107	C	1.242937	-0.133238	0.030092
C108	C	1.576270	0.200095	0.363425
C109	C	0.909627	-0.536540	-0.303249
C110	C	1.242960	-0.203206	0.030084
C111	C	1.576294	0.130127	0.363418
C112	C	0.949877	-0.569332	-0.343544
C113	C	1.283211	-0.235999	-0.010210
C114	C	1.616544	0.097334	0.323123
C115	C	0.949900	-0.635075	-0.343559
C116	C	1.283233	-0.301742	-0.010226
C117	C	1.616566	0.031592	0.323107
C118	C	0.909678	-0.668022	-0.303269
C119	C	1.243011	-0.334689	0.030064
C120	C	1.576345	-0.001356	0.363398
C121	C	0.869420	-0.635222	-0.262971
C122	C	1.202753	-0.301888	0.070362
C123	C	1.536086	0.031445	0.403695
C124	C	0.869394	-0.569481	-0.262962
C125	C	1.202727	-0.236147	0.070372
C126	C	1.536061	0.097186	0.403705
N127	N	0.904919	-0.771284	-0.248178
N128	N	1.238253	-0.437951	0.085155
N129	N	1.571586	-0.104618	0.418489
N130	N	0.904947	-0.833736	-0.248189
N131	N	1.238281	-0.500403	0.085144
N132	N	1.571614	-0.167069	0.418478
C133	C	0.909751	-0.866097	-0.303297
C134	C	1.243085	-0.532764	0.030036
C135	C	1.576418	-0.199430	0.363369
N136	N	0.914539	-0.833647	-0.358395
N137	N	1.247872	-0.500314	-0.025062
N138	N	1.581205	-0.166981	0.308271
N139	N	0.914514	-0.771190	-0.358383
N140	N	1.247847	-0.437857	-0.025050
N141	N	1.581181	-0.104523	0.308283
C142	C	0.909701	-0.739308	-0.303276
C143	C	1.243034	-0.405974	0.030058
C144	C	1.576367	-0.072641	0.363391
C145	C	0.950028	-0.970175	-0.343612
C146	C	1.283361	-0.636842	-0.010279
C147	C	1.616695	-0.303508	0.323054
C148	C	0.950046	-1.035919	-0.343629
C149	C	1.283379	-0.702585	-0.010296
C150	C	1.616713	-0.369252	0.323038
C151	C	0.869569	-1.036064	-0.263035
C152	C	1.202903	-0.702731	0.070298
C153	C	1.536236	-0.369398	0.403631
C154	C	0.869548	-0.970322	-0.263024
C155	C	1.202881	-0.636989	0.070309
C156	C	1.536215	-0.303655	0.403642
C157	C	0.909781	-0.937381	-0.303312
C158	C	1.243114	-0.604048	0.030021
C159	C	1.576448	-0.270715	0.363355
C160	C	1.073874	-0.302990	-0.303292
C161	C	1.407207	0.030343	0.030042
C162	C	1.740541	0.363676	0.363375
C163	C	1.143842	-0.302977	-0.303299
C164	C	1.477176	0.030356	0.030034
C165	C	1.810509	0.363689	0.363367
C166	C	0.909733	-0.302981	-0.467464
C167	C	1.243066	0.030352	-0.134131
C168	C	1.576400	0.363686	0.199203
C169	C	0.909754	-0.302964	-0.537432
C170	C	1.243087	0.030369	-0.204099
C171	C	1.576421	0.363702	0.129235
C172	C	0.909782	-0.138830	-0.303319
C173	C	1.243115	0.194504	0.030014
C174	C	1.576448	0.527837	0.363347
C175	C	0.909823	-0.068862	-0.303339
C176	C	1.243156	0.264472	0.029994
C177	C	1.576490	0.597805	0.363328
C178	C	0.869527	-0.262706	-0.570296
C179	C	1.202861	0.070628	-0.236962
C180	C	1.536194	0.403961	0.096371
C181	C	0.869525	-0.262694	-0.636038
C182	C	1.202858	0.070640	-0.302705
C183	C	1.536192	0.403973	0.030629
C184	C	0.909761	-0.302934	-0.668915
C185	C	1.243094	0.030399	-0.335581
C186	C	1.576427	0.363733	-0.002248
C187	C	0.949990	-0.343201	-0.636043
C188	C	1.283324	-0.009867	-0.302710
C189	C	1.616657	0.323466	0.030624
C190	C	0.949987	-0.343216	-0.570302
C191	C	1.283320	-0.009882	-0.236969
C192	C	1.616654	0.323451	0.096365
N193	N	0.964865	-0.307728	-0.772153
N194	N	1.298199	0.025606	-0.438820
N195	N	1.631532	0.358939	-0.105486
N196	N	0.964867	-0.307710	-0.834604
N197	N	1.298200	0.025624	-0.501271
N198	N	1.631533	0.358957	-0.167938
C199	C	0.909772	-0.302892	-0.866989
C200	C	1.243106	0.030441	-0.533656
C201	C	1.576439	0.363774	-0.200323
N202	N	0.854675	-0.298081	-0.834564
N203	N	1.188009	0.035252	-0.501230
N204	N	1.521342	0.368585	-0.167897
N205	N	0.854675	-0.298096	-0.772107
N206	N	1.188008	0.035237	-0.438773
N207	N	1.521341	0.368571	-0.105440
C208	C	0.909769	-0.302923	-0.740200
C209	C	1.243102	0.030411	-0.406867
C210	C	1.576435	0.363744	-0.073533
C211	C	0.869540	-0.262619	-0.971139
C212	C	1.202873	0.070715	-0.637805
C213	C	1.536206	0.404048	-0.304472
C214	C	0.869537	-0.262611	-1.036882
C215	C	1.202870	0.070722	-0.703549
C216	C	1.536203	0.404055	-0.370216
C217	C	0.950008	-0.343115	-1.036886
C218	C	1.283341	-0.009782	-0.703553
C219	C	1.616674	0.323552	-0.370219
C220	C	0.950005	-0.343126	-0.971144
C221	C	1.283339	-0.009792	-0.637810
C222	C	1.616672	0.323541	-0.304477
C223	C	0.909772	-0.302874	-0.938274
C224	C	1.243106	0.030459	-0.604940
C225	C	1.576439	0.363793	-0.271607
C226	C	0.909671	-0.303014	-0.139722
C227	C	1.243004	0.030320	0.193611
C228	C	1.576338	0.363653	0.526945
C229	C	0.909772	-0.302853	-0.069754
C230	C	1.243105	0.030480	0.263579
C231	C	1.576439	0.363814	0.596912
H232	H	0.550896	-0.230113	-0.376445
H233	H	0.884229	0.103220	-0.043112
H234	H	1.217562	0.436554	0.290221
H235	H	0.982786	-0.943354	-0.376419
H236	H	1.316120	-0.610020	-0.043086
H237	H	1.649453	-0.276687	0.290248
F238	F	0.992826	-0.385946	-1.071871
F239	F	1.326160	-0.052612	-0.738538
F240	F	1.659493	0.280721	-0.405205
H241	H	0.836769	-0.229907	-0.662801
H242	H	1.170102	0.103426	-0.329468
H243	H	1.503435	0.436760	0.003866
F244	F	0.826705	-0.219775	-1.071858
F245	F	1.160038	0.113559	-0.738525
F246	F	1.493371	0.446892	-0.405191
H247	H	0.836779	-0.229844	-0.944375
H248	H	1.170113	0.103489	-0.611041
H249	H	1.503446	0.436823	-0.277708
H250	H	0.836669	-0.662052	-0.230168
H251	H	1.170003	-0.328718	0.103165
H252	H	1.503336	0.004615	0.436499
H253	H	0.669951	-0.376016	-0.230080
H254	H	1.003284	-0.042683	0.103254
H255	H	1.336618	0.290651	0.436587
F256	F	0.678394	-0.220091	-0.386528
F257	F	1.011727	0.113242	-0.053195
F258	F	1.345060	0.446576	0.280139
H259	H	0.550680	-0.375994	-0.230098
H260	H	0.884014	-0.042661	0.103235
H261	H	1.217347	0.290673	0.436569
H262	H	0.836816	-1.062890	-0.230234
H263	H	1.170149	-0.729556	0.103099
H264	H	1.503483	-0.396223	0.436433
F265	F	0.141853	-0.219981	-0.386556
F266	F	0.475186	0.113352	-0.053223
F267	F	0.808519	0.446685	0.280110
H268	H	0.982764	-0.375907	-0.944386
H269	H	1.316097	-0.042574	-0.611052
H270	H	1.649431	0.290759	-0.277719
F271	F	0.826708	-0.935420	-0.220136
F272	F	1.160041	-0.602087	0.113197
F273	F	1.493374	-0.268754	0.446530
H274	H	0.982823	-1.062617	-0.376445
H275	H	1.316156	-0.729284	-0.043111
H276	H	1.649489	-0.395951	0.290222
F277	F	0.826551	-0.534579	-0.220073
F278	F	1.159885	-0.201246	0.113260
F279	F	1.493218	0.132087	0.446593
H280	H	0.269322	-0.230062	-0.376469
H281	H	0.602656	0.103272	-0.043136
H282	H	0.935989	0.436605	0.290197
H283	H	0.149843	-0.375923	-0.230127
H284	H	0.483176	-0.042589	0.103207
H285	H	0.816509	0.290744	0.436540
F286	F	0.992744	-0.669982	-0.386445
F287	F	1.326078	-0.336649	-0.053112
F288	F	1.659411	-0.003316	0.280221
H289	H	0.269110	-0.375946	-0.230117
H290	H	0.602443	-0.042613	0.103216
H291	H	0.935777	0.290721	0.436550
F292	F	0.826705	-0.219868	-0.535317
F293	F	1.160039	0.113465	-0.201983
F294	F	1.493372	0.446798	0.131350
H295	H	0.982636	-0.542514	-0.376350
H296	H	1.315969	-0.209181	-0.043017
H297	H	1.649302	0.124153	0.290317
F298	F	0.992810	-0.386030	-0.671033
F299	F	1.326143	-0.052696	-0.337700
F300	F	1.659476	0.280637	-0.004367
F301	F	0.992804	-0.386066	-0.535325
F302	F	1.326138	-0.052733	-0.201992
F303	F	1.659471	0.280601	0.131342
