data_functionalizedCrystal
_audit_creation_method	'MofGen! by Chris Wilmer'
_symmetry_space_group_name_H-M	'P1'
_symmetry_Int_Tables_number	1
_symmetry_cell_setting	triclinic
loop_
_symmetry_equiv_pos_as_xyz
  x,y,z
_cell_length_a	29.839131
_cell_length_b	19.805407
_cell_length_c	19.805399
_cell_angle_alpha	89.980427
_cell_angle_beta	89.970435
_cell_angle_gamma	90.041420
loop_
_atom_site_label
_atom_site_type_symbol
_atom_site_fract_x
_atom_site_fract_y
_atom_site_fract_z
Zn1	Zn	-0.178864	1.034665	-0.382710
Zn2	Zn	0.321136	1.534665	0.117290
Zn3	Zn	-0.253991	1.034550	-0.269518
Zn4	Zn	0.246009	1.534550	0.230482
Zn5	Zn	-0.178876	0.921480	-0.269535
Zn6	Zn	0.321124	1.421480	0.230465
Zn7	Zn	-0.253967	0.921414	-0.382665
Zn8	Zn	0.246033	1.421414	0.117335
O9	O	-0.216425	0.978027	-0.326107
O10	O	0.283575	1.478027	0.173893
O11	O	-0.188834	1.129366	-0.367707
O12	O	0.311166	1.629366	0.132293
O13	O	-0.244042	1.019531	-0.174804
O14	O	0.255958	1.519531	0.325196
O15	O	-0.116007	0.936570	-0.284574
O16	O	0.383993	1.436570	0.215426
O17	O	-0.244030	1.129282	-0.284545
O18	O	0.255970	1.629282	0.215455
O19	O	-0.115998	1.019727	-0.367723
O20	O	0.384002	1.519727	0.132277
O21	O	-0.188856	0.936458	-0.174816
O22	O	0.311144	1.436458	0.325184
O23	O	-0.188832	0.826754	-0.284530
O24	O	0.311168	1.326754	0.215470
O25	O	-0.243990	0.936457	-0.477388
O26	O	0.256010	1.436457	0.022612
O27	O	-0.244002	0.826706	-0.367646
O28	O	0.255998	1.326706	0.132354
O29	O	-0.188811	1.019662	-0.477421
O30	O	0.311189	1.519662	0.022579
O31	O	-0.316855	1.019467	-0.284501
O32	O	0.183145	1.519467	0.215499
O33	O	-0.316838	0.936346	-0.367630
O34	O	0.183162	1.436346	0.132370
C35	C	-0.216416	0.802171	-0.326085
C36	C	0.283584	1.302171	0.173915
C37	C	-0.216423	0.726939	-0.326092
C38	C	0.283577	1.226939	0.173908
C39	C	-0.333147	0.977905	-0.326073
C40	C	0.166853	1.477905	0.173927
C41	C	-0.383082	0.977915	-0.326082
C42	C	0.116918	1.477915	0.173918
C43	C	-0.245193	0.691587	-0.369300
C44	C	0.254807	1.191587	0.130700
C45	C	-0.245194	0.620899	-0.369310
C46	C	0.254806	1.120899	0.130690
C47	C	-0.216427	0.585564	-0.326107
C48	C	0.283573	1.085564	0.173893
C49	C	-0.187654	0.620920	-0.282897
C50	C	0.312346	1.120920	0.217103
C51	C	-0.187651	0.691607	-0.282891
C52	C	0.312349	1.191607	0.217109
C53	C	-0.187664	0.335847	-0.282919
C54	C	0.312336	0.835847	0.217081
C55	C	-0.187669	0.265155	-0.282927
C56	C	0.312331	0.765155	0.217073
C57	C	-0.245207	0.265139	-0.369338
C58	C	0.254793	0.765139	0.130662
C59	C	-0.245204	0.335826	-0.369332
C60	C	0.254796	0.835826	0.130668
C61	C	-0.216429	0.371176	-0.326125
C62	C	0.283571	0.871176	0.173875
C63	C	-0.216428	0.447825	-0.326116
C64	C	0.283572	0.947825	0.173884
C65	C	-0.216430	0.508916	-0.326112
C66	C	0.283570	1.008916	0.173888
C67	C	-0.692722	1.021387	-0.282885
C68	C	-0.192722	1.521387	0.217115
C69	C	-0.880395	1.021471	-0.282912
C70	C	-0.380395	1.521471	0.217088
O71	O	-0.904656	1.058335	-0.246159
O72	O	-0.404656	1.558335	0.253841
N73	N	-0.903867	0.978168	-0.326158
N74	N	-0.403867	1.478168	0.173842
C75	C	-0.880418	0.934844	-0.369404
C76	C	-0.380418	1.434844	0.130596
O77	O	-0.904688	0.898019	-0.406194
O78	O	-0.404688	1.398019	0.093806
C79	C	-0.692746	0.934764	-0.369381
C80	C	-0.192746	1.434764	0.130619
C81	C	-0.669276	0.978065	-0.326127
C82	C	-0.169276	1.478065	0.173873
C83	C	-0.669252	1.064685	-0.239635
C84	C	-0.169252	1.564685	0.260365
C85	C	-0.622336	1.064661	-0.239626
C86	C	-0.122336	1.564661	0.260374
C87	C	-0.598891	1.021339	-0.282868
C88	C	-0.098891	1.521339	0.217132
C89	C	-0.622360	0.978041	-0.326118
C90	C	-0.122360	1.478041	0.173882
C91	C	-0.669297	0.891444	-0.412630
C92	C	-0.169297	1.391444	0.087370
C93	C	-0.622376	0.891429	-0.412621
C94	C	-0.122376	1.391429	0.087379
C95	C	-0.598907	0.934730	-0.369367
C96	C	-0.098907	1.434730	0.130633
C97	C	-0.551999	0.934695	-0.369351
C98	C	-0.051999	1.434695	0.130649
N99	N	-0.528527	0.977998	-0.326104
N100	N	-0.028527	1.477998	0.173896
C101	C	-0.551973	1.021320	-0.282863
C102	C	-0.051973	1.521320	0.217137
C103	C	-0.978948	0.934888	-0.369412
C104	C	-0.478948	1.434888	0.130588
C105	C	-1.025866	0.934907	-0.369418
C106	C	-0.525866	1.434907	0.130582
C107	C	-1.025840	1.021534	-0.282926
C108	C	-0.525840	1.521534	0.217074
C109	C	-0.978921	1.021512	-0.282918
C110	C	-0.478921	1.521512	0.217082
C111	C	-0.955476	0.978191	-0.326166
C112	C	-0.455476	1.478191	0.173834
C113	C	-0.453447	1.021266	-0.282847
C114	C	0.046553	1.521266	0.217153
C115	C	-0.406527	1.021237	-0.282840
C116	C	0.093473	1.521237	0.217160
C117	C	-0.406558	0.934611	-0.369334
C118	C	0.093442	1.434611	0.130666
C119	C	-0.453473	0.934638	-0.369339
C120	C	0.046527	1.434638	0.130661
C121	C	-0.476917	0.977971	-0.326093
C122	C	0.023083	1.477971	0.173907
O123	O	-0.527708	0.897855	-0.406090
O124	O	-0.027708	1.397855	0.093910
O125	O	-0.527694	1.058150	-0.246090
O126	O	-0.027694	1.558150	0.253910
C127	C	-0.739637	1.021411	-0.282894
C128	C	-0.239637	1.521411	0.217106
C129	C	-0.763107	0.978113	-0.326144
C130	C	-0.263107	1.478113	0.173856
C131	C	-0.739661	0.934791	-0.369386
C132	C	-0.239661	1.434791	0.130614
C133	C	-0.810025	0.978132	-0.326149
C134	C	-0.310025	1.478132	0.173851
C135	C	-0.833470	1.021454	-0.282908
C136	C	-0.333470	1.521454	0.217092
C137	C	-0.809998	1.064757	-0.239661
C138	C	-0.309998	1.564757	0.260339
C139	C	-0.763083	1.064733	-0.239653
C140	C	-0.263083	1.564733	0.260347
C141	C	-0.763133	0.891488	-0.412632
C142	C	-0.263133	1.391488	0.087368
C143	C	-0.810049	0.891515	-0.412637
C144	C	-0.310049	1.391515	0.087363
C145	C	-0.833494	0.934837	-0.369395
C146	C	-0.333494	1.434837	0.130605
C147	C	-0.099246	0.978168	-0.326156
C148	C	0.400754	1.478168	0.173844
C149	C	-0.049312	0.978228	-0.326176
C150	C	0.450688	1.478228	0.173824
C151	C	-0.216396	0.978065	-0.502650
C152	C	0.283604	1.478065	-0.002650
C153	C	-0.216384	0.978081	-0.577882
C154	C	0.283616	1.478081	-0.077882
C155	C	-0.216434	1.154570	-0.326129
C156	C	0.283566	1.654570	0.173871
C157	C	-0.216437	1.229802	-0.326139
C158	C	0.283563	1.729802	0.173861
C159	C	-0.187652	1.021407	-0.613244
C160	C	0.312348	1.521407	-0.113244
C161	C	-0.187638	1.021414	-0.683933
C162	C	0.312362	1.521414	-0.183933
C163	C	-0.216361	0.978098	-0.719258
C164	C	0.283639	1.478098	-0.219258
C165	C	-0.245095	0.934767	-0.683890
C166	C	0.254905	1.434767	-0.183890
C167	C	-0.245105	0.934757	-0.613203
C168	C	0.254895	1.434757	-0.113203
C169	C	-0.245053	0.934806	-0.968963
C170	C	0.254947	1.434806	-0.468963
C171	C	-0.245041	0.934820	-1.039656
C172	C	0.254959	1.434820	-0.539656
C173	C	-0.187586	1.021462	-1.039694
C174	C	0.312414	1.521462	-0.539694
C175	C	-0.187597	1.021453	-0.969006
C176	C	0.312403	1.521453	-0.469006
C177	C	-0.216329	0.978120	-0.933645
C178	C	0.283671	1.478120	-0.433645
C179	C	-0.216342	0.978112	-0.856997
C180	C	0.283658	1.478112	-0.356997
C181	C	-0.216350	0.978109	-0.795905
C182	C	0.283650	1.478109	-0.295905
C183	C	-0.216420	0.978028	-0.150251
C184	C	0.283580	1.478028	0.349749
C185	C	-0.216306	0.978143	-0.075019
C186	C	0.283694	1.478143	0.424981
H187	H	-0.268620	0.720352	-0.404479
H188	H	0.231380	1.220352	0.095521
H189	H	-0.268631	0.364592	-0.404510
H190	H	0.231369	0.864592	0.095490
C191	C	-0.835378	1.111820	-0.192640
C192	C	-0.335378	1.611820	0.307360
C193	C	-0.804787	1.149731	-0.154746
C194	C	-0.304787	1.649731	0.345254
C195	C	-0.828153	1.193086	-0.111423
C196	C	-0.328153	1.693086	0.388577
H197	H	-0.853651	1.141360	-0.218493
H198	H	-0.353651	1.641360	0.281507
H199	H	-0.853702	1.085968	-0.163093
H200	H	-0.353702	1.585968	0.336907
H201	H	-0.786471	1.175581	-0.184289
H202	H	-0.286471	1.675581	0.315711
H203	H	-0.786513	1.120209	-0.128880
H204	H	-0.286513	1.620209	0.371120
H205	H	-0.846477	1.167234	-0.081876
H206	H	-0.346477	1.667234	0.418124
H207	H	-0.846425	1.222621	-0.137281
H208	H	-0.346425	1.722621	0.362719
H209	H	-0.807401	1.218809	-0.085702
H210	H	-0.307401	1.718809	0.414298
H211	H	-0.829154	0.856248	-0.447859
H212	H	-0.329154	1.356248	0.052141
H213	H	-1.044937	1.056809	-0.247717
H214	H	-0.544937	1.556809	0.252283
H215	H	-0.268622	0.592119	-0.404494
H216	H	0.231378	1.092119	0.095506
C217	C	-0.737547	1.111789	-0.192803
C218	C	-0.237547	1.611789	0.307197
C219	C	-0.710559	1.155129	-0.231159
C220	C	-0.210559	1.655129	0.268841
C221	C	-0.687028	1.198483	-0.188022
C222	C	-0.187028	1.698483	0.311978
H223	H	-0.758184	1.137654	-0.167039
H224	H	-0.258184	1.637654	0.332961
H225	H	-0.719249	1.085928	-0.163292
H226	H	-0.219249	1.585928	0.336708
H227	H	-0.728856	1.180987	-0.260658
H228	H	-0.228856	1.680987	0.239342
H229	H	-0.689914	1.129282	-0.256921
H230	H	-0.189914	1.629282	0.243079
H231	H	-0.668729	1.172622	-0.158511
H232	H	-0.168729	1.672622	0.341489
H233	H	-0.707668	1.224344	-0.162261
H234	H	-0.207668	1.724344	0.337739
H235	H	-0.668711	1.227890	-0.214040
H236	H	-0.168711	1.727890	0.285960
H237	H	-0.268634	0.236348	-0.404522
H238	H	0.231366	0.736348	0.095478
C239	C	-0.276335	0.887850	-0.722277
C240	C	0.223665	1.387850	-0.222277
C241	C	-0.305134	0.926145	-0.762839
C242	C	0.194866	1.426145	-0.262839
C243	C	-0.333923	0.882949	-0.798202
C244	C	0.166077	1.382949	-0.298202
H245	H	-0.259196	0.858371	-0.749910
H246	H	0.240804	1.358371	-0.249910
H247	H	-0.293475	0.862055	-0.691112
H248	H	0.206525	1.362055	-0.191112
H249	H	-0.287996	0.951929	-0.794000
H250	H	0.212004	1.451929	-0.294000
H251	H	-0.322283	0.955622	-0.735222
H252	H	0.177717	1.455622	-0.235222
H253	H	-0.351063	0.857154	-0.767037
H254	H	0.148937	1.357154	-0.267037
H255	H	-0.316781	0.853472	-0.825831
H256	H	0.183219	1.353472	-0.325831
H257	H	-0.353470	0.908926	-0.825722
H258	H	0.146530	1.408926	-0.325722
C259	C	-0.478957	1.068207	-0.235865
C260	C	0.021043	1.568207	0.264135
C261	C	-0.505950	1.029933	-0.192459
C262	C	-0.005950	1.529933	0.307541
C263	C	-0.529463	1.073151	-0.149179
C264	C	-0.029463	1.573151	0.350821
H265	H	-0.458310	1.094008	-0.210043
H266	H	0.041690	1.594008	0.289957
H267	H	-0.497252	1.097679	-0.261775
H268	H	0.002748	1.597679	0.238225
H269	H	-0.487658	1.000472	-0.166551
H270	H	0.012342	1.500472	0.333449
H271	H	-0.526606	1.004133	-0.218262
H272	H	-0.026606	1.504133	0.281738
H273	H	-0.547758	1.102623	-0.175089
H274	H	-0.047758	1.602623	0.324911
H275	H	-0.508813	1.098950	-0.123362
H276	H	-0.008813	1.598950	0.376638
H277	H	-0.547784	1.047189	-0.119727
H278	H	-0.047784	1.547189	0.380273
H279	H	-0.164241	0.236387	-0.247745
H280	H	0.335759	0.736387	0.252255
H281	H	-0.268498	0.899470	-0.584411
H282	H	0.231502	1.399470	-0.084411
C283	C	-0.156453	1.068444	-0.930533
C284	C	0.343547	1.568444	-0.430533
C285	C	-0.162617	1.059169	-0.861059
C286	C	0.337383	1.559169	-0.361059
C287	C	-0.133934	1.102445	-0.825597
C288	C	0.366066	1.602445	-0.325597
H289	H	-0.126250	1.058608	-0.942053
H290	H	0.373750	1.558608	-0.442053
H291	H	-0.163025	1.113934	-0.942077
H292	H	0.336975	1.613934	-0.442077
H293	H	-0.156042	1.013689	-0.849519
H294	H	0.343958	1.513689	-0.349519
H295	H	-0.192814	1.069010	-0.849519
H296	H	0.307186	1.569010	-0.349519
H297	H	-0.140506	1.147936	-0.837142
H298	H	0.359494	1.647936	-0.337142
H299	H	-0.103733	1.092605	-0.837123
H300	H	0.396267	1.592605	-0.337123
H301	H	-0.138115	1.096163	-0.778456
H302	H	0.361885	1.596163	-0.278456
H303	H	-0.744047	0.856211	-0.447845
H304	H	-0.244047	1.356211	0.052155
C305	C	-0.156372	0.374261	-0.236119
C306	C	0.343628	0.874261	0.263881
C307	C	-0.127601	0.414873	-0.274519
C308	C	0.372399	0.914873	0.225481
C309	C	-0.098765	0.450267	-0.231428
C310	C	0.401235	0.950267	0.268572
H311	H	-0.173479	0.401863	-0.206566
H312	H	0.326521	0.901863	0.293434
H313	H	-0.139215	0.343115	-0.210399
H314	H	0.360785	0.843115	0.289601
H315	H	-0.144756	0.446015	-0.300227
H316	H	0.355244	0.946015	0.199773
H317	H	-0.110484	0.387288	-0.304070
H318	H	0.389516	0.887288	0.195930
H319	H	-0.081607	0.419122	-0.205708
H320	H	0.418393	0.919122	0.294292
H321	H	-0.115875	0.477865	-0.201877
H322	H	0.384125	0.977865	0.298123
H323	H	-0.079237	0.477822	-0.257476
H324	H	0.420763	0.977822	0.242524
C325	C	-0.156513	1.068409	-0.574773
C326	C	0.343487	1.568409	-0.074773
C327	C	-0.162678	1.059141	-0.505299
C328	C	0.337322	1.559141	-0.005299
C329	C	-0.134003	1.102431	-0.469840
C330	C	0.365997	1.602431	0.030160
H331	H	-0.126308	1.058580	-0.586290
H332	H	0.373692	1.558580	-0.086290
H333	H	-0.163091	1.113895	-0.586324
H334	H	0.336909	1.613895	-0.086324
H335	H	-0.156097	1.013665	-0.493752
H336	H	0.343903	1.513665	0.006248
H337	H	-0.192877	1.068974	-0.493762
H338	H	0.307123	1.568974	0.006238
H339	H	-0.140581	1.147918	-0.481392
H340	H	0.359419	1.647918	0.018608
H341	H	-0.103800	1.092599	-0.481362
H342	H	0.396200	1.592599	0.018638
H343	H	-0.138185	1.096154	-0.422699
H344	H	0.361815	1.596154	0.077301
C345	C	-0.276210	0.887861	-1.078132
C346	C	0.223790	1.387861	-0.578132
C347	C	-0.270060	0.897163	-1.147605
C348	C	0.229940	1.397163	-0.647605
C349	C	-0.298768	0.853928	-1.183070
C350	C	0.201232	1.353928	-0.683070
H351	H	-0.269663	0.842362	-1.066628
H352	H	0.230337	1.342362	-0.566628
H353	H	-0.306407	0.897733	-1.066574
H354	H	0.193593	1.397733	-0.566574
H355	H	-0.239870	0.887287	-1.159158
H356	H	0.260130	1.387287	-0.659158
H357	H	-0.276611	0.942654	-1.159128
H358	H	0.223389	1.442654	-0.659128
H359	H	-0.328966	0.863800	-1.171512
H360	H	0.171034	1.363800	-0.671512
H361	H	-0.292218	0.808431	-1.171561
H362	H	0.207782	1.308431	-0.671561
H363	H	-0.294603	0.860238	-1.230211
H364	H	0.205397	1.360238	-0.730211
H365	H	-0.164229	0.592145	-0.247723
H366	H	0.335771	1.092145	0.252277
C367	C	-0.156427	1.068532	-0.722205
C368	C	0.343573	1.568532	-0.222205
C369	C	-0.131287	1.106480	-0.676140
C370	C	0.368713	1.606480	-0.176140
C371	C	-0.102534	1.149900	-0.711370
C372	C	0.397466	1.649900	-0.211370
H373	H	-0.136805	1.042746	-0.749785
H374	H	0.363195	1.542746	-0.249785
H375	H	-0.173602	1.098040	-0.749764
H376	H	0.326398	1.598040	-0.249764
H377	H	-0.114114	1.076976	-0.648592
H378	H	0.385886	1.576976	-0.148592
H379	H	-0.150897	1.132279	-0.648558
H380	H	0.349103	1.632279	-0.148558
H381	H	-0.119708	1.179408	-0.738930
H382	H	0.380292	1.679408	-0.238930
H383	H	-0.082915	1.124109	-0.738949
H384	H	0.417085	1.624109	-0.238949
H385	H	-0.085476	1.175657	-0.680121
H386	H	0.414524	1.675657	-0.180121
C387	C	-0.156473	0.729958	-0.235862
C388	C	0.343527	1.229958	0.264138
C389	C	-0.166207	0.712740	-0.168867
C390	C	0.333793	1.212740	0.331133
C391	C	-0.137498	0.748062	-0.125526
C392	C	0.362502	1.248062	0.374474
H393	H	-0.126281	0.718439	-0.245760
H394	H	0.373719	1.218439	0.254240
H395	H	-0.160596	0.777123	-0.242002
H396	H	0.339404	1.277123	0.257998
H397	H	-0.162080	0.665586	-0.162730
H398	H	0.337920	1.165586	0.337270
H399	H	-0.196394	0.724262	-0.158948
H400	H	0.303606	1.224262	0.341052
H401	H	-0.141620	0.795227	-0.131665
H402	H	0.358380	1.295227	0.368335
H403	H	-0.107307	0.736540	-0.135430
H404	H	0.392693	1.236540	0.364570
H405	H	-0.144100	0.736390	-0.080065
H406	H	0.355900	1.236390	0.419935
C407	C	-0.381128	1.068327	-0.235852
C408	C	0.118872	1.568327	0.264148
C409	C	-0.411706	1.106284	-0.198001
C410	C	0.088294	1.606284	0.301999
C411	C	-0.388326	1.149676	-0.154717
C412	C	0.111674	1.649676	0.345283
H413	H	-0.362854	1.042521	-0.206271
H414	H	0.137146	1.542521	0.293729
H415	H	-0.362803	1.097831	-0.261752
H416	H	0.137197	1.597831	0.238248
H417	H	-0.430023	1.076784	-0.172102
H418	H	0.069977	1.576784	0.327898
H419	H	-0.429981	1.132104	-0.227563
H420	H	0.070019	1.632104	0.272437
H421	H	-0.370002	1.179180	-0.180617
H422	H	0.129998	1.679180	0.319383
H423	H	-0.370054	1.123865	-0.125141
H424	H	0.129946	1.623865	0.374859
H425	H	-0.409070	1.175439	-0.129034
H426	H	0.090930	1.675439	0.370966
C427	C	-0.156402	1.068431	-1.078209
C428	C	0.343598	1.568431	-0.578209
C429	C	-0.162528	1.059157	-1.147675
C430	C	0.337472	1.559157	-0.647675
C431	C	-0.133807	1.102406	-1.183174
C432	C	0.366193	1.602406	-0.683174
H433	H	-0.162954	1.113926	-1.066714
H434	H	0.337046	1.613926	-0.566714
H435	H	-0.126209	1.058554	-1.066672
H436	H	0.373791	1.558554	-0.566672
H437	H	-0.192714	1.069039	-1.159208
H438	H	0.307286	1.569039	-0.659208
H439	H	-0.155974	1.013671	-1.159191
H440	H	0.344026	1.513671	-0.659191
H441	H	-0.103614	1.092529	-1.171637
H442	H	0.396386	1.592529	-0.671637
H443	H	-0.140361	1.147898	-1.171673
H444	H	0.359639	1.647898	-0.671673
H445	H	-0.137957	1.096115	-1.230310
H446	H	0.362043	1.596115	-0.730310
H447	H	-0.603230	1.099922	-0.204407
H448	H	-0.103230	1.599922	0.295593
H449	H	-0.268455	0.899531	-0.940181
H450	H	0.231545	1.399531	-0.440181
C451	C	-0.694796	0.844354	-0.459486
C452	C	-0.194796	1.344354	0.040514
C453	C	-0.721770	0.800984	-0.421141
C454	C	-0.221770	1.300984	0.078859
C455	C	-0.745261	0.757589	-0.464285
C456	C	-0.245261	1.257589	0.035715
H457	H	-0.713103	0.870162	-0.489017
H458	H	-0.213103	1.370162	0.010983
H459	H	-0.674122	0.818517	-0.485227
H460	H	-0.174122	1.318517	0.014773
H461	H	-0.742442	0.826818	-0.395411
H462	H	-0.242442	1.326818	0.104589
H463	H	-0.703474	0.775161	-0.391611
H464	H	-0.203474	1.275161	0.108389
H465	H	-0.724587	0.731753	-0.490026
H466	H	-0.224587	1.231753	0.009974
H467	H	-0.763566	0.783403	-0.493814
H468	H	-0.263566	1.283403	0.006186
H469	H	-0.763563	0.728154	-0.438274
H470	H	-0.263563	1.228154	0.061726
H471	H	-0.959815	1.056771	-0.247697
H472	H	-0.459815	1.556771	0.252303
C473	C	-1.051263	0.887862	-0.416448
C474	C	-0.551263	1.387862	0.083552
C475	C	-1.020683	0.849936	-0.454327
C476	C	-0.520683	1.349936	0.045673
C477	C	-1.044060	0.806600	-0.497669
C478	C	-0.544060	1.306600	0.002331
H479	H	-1.069598	0.858331	-0.390610
H480	H	-0.569598	1.358331	0.109390
H481	H	-1.069527	0.913728	-0.446005
H482	H	-0.569527	1.413728	0.053995
H483	H	-1.002427	0.824072	-0.424774
H484	H	-0.502427	1.324072	0.075226
H485	H	-1.002347	0.879449	-0.480178
H486	H	-0.502347	1.379449	0.019822
H487	H	-1.062324	0.832466	-0.527225
H488	H	-0.562324	1.332466	-0.027225
H489	H	-1.062394	0.777073	-0.471826
H490	H	-0.562394	1.277073	0.028174
H491	H	-1.023315	0.780866	-0.523379
H492	H	-0.523315	1.280866	-0.023379
C493	C	-0.953475	0.887957	-0.416451
C494	C	-0.453475	1.387957	0.083549
C495	C	-0.926505	0.926235	-0.459887
C496	C	-0.426505	1.426235	0.040113
C497	C	-0.903040	0.883023	-0.503232
C498	C	-0.403040	1.383023	-0.003232
H499	H	-0.935166	0.858458	-0.390610
H500	H	-0.435166	1.358458	0.109390
H501	H	-0.974164	0.862185	-0.442242
H502	H	-0.474164	1.362185	0.057758
H503	H	-0.905819	0.951995	-0.434100
H504	H	-0.405819	1.451995	0.065900
H505	H	-0.944803	0.955732	-0.485743
H506	H	-0.444803	1.455732	0.014257
H507	H	-0.923729	0.857251	-0.529023
H508	H	-0.423729	1.357251	-0.029023
H509	H	-0.884734	0.853526	-0.477386
H510	H	-0.384734	1.353526	0.022614
H511	H	-0.884742	0.908988	-0.532713
H512	H	-0.384742	1.408988	-0.032713
H513	H	-0.603290	0.856153	-0.447842
H514	H	-0.103290	1.356153	0.052158
H515	H	-0.472583	0.899381	-0.404562
H516	H	0.027417	1.399381	0.095438
C517	C	-0.381071	0.887695	-0.416367
C518	C	0.118929	1.387695	0.083633
C519	C	-0.354102	0.925996	-0.459782
C520	C	0.145898	1.425996	0.040218
C521	C	-0.330619	0.882806	-0.503128
C522	C	0.169381	1.382806	-0.003128
H523	H	-0.362760	0.858199	-0.390525
H524	H	0.137240	1.358199	0.109475
H525	H	-0.401750	0.861919	-0.442172
H526	H	0.098250	1.361919	0.057828
H527	H	-0.333425	0.951761	-0.433980
H528	H	0.166575	1.451761	0.066020
H529	H	-0.372401	0.955491	-0.485639
H530	H	0.127599	1.455491	0.014361
H531	H	-0.351298	0.857030	-0.528933
H532	H	0.148702	1.357030	-0.028933
H533	H	-0.312311	0.853312	-0.477280
H534	H	0.187689	1.353312	0.022720
H535	H	-0.312321	0.908787	-0.532594
H536	H	0.187679	1.408787	-0.032594
H537	H	-0.688336	1.099967	-0.204423
H538	H	-0.188336	1.599967	0.295577
