data_functionalizedCrystal
_audit_creation_method	'MofGen! by Chris Wilmer'
_symmetry_space_group_name_H-M	'P1'
_symmetry_Int_Tables_number	1
_symmetry_cell_setting	triclinic
loop_
_symmetry_equiv_pos_as_xyz
  x,y,z
_cell_length_a	17.699083
_cell_length_b	10.723023
_cell_length_c	9.798715
_cell_angle_alpha	90.002139
_cell_angle_beta	89.997653
_cell_angle_gamma	83.875281
loop_
_atom_site_label
_atom_site_type_symbol
_atom_site_fract_x
_atom_site_fract_y
_atom_site_fract_z
O1	O	1.005070	0.157791	0.113297
O2	O	0.784821	0.178321	0.113341
O3	O	0.900026	-0.013607	0.113312
O4	O	0.889865	0.349720	0.113325
O5	O	0.900018	-0.013607	-0.113670
O6	O	0.784813	0.178321	-0.113641
O7	O	1.005061	0.157791	-0.113686
Zn8	Zn	0.894936	0.168056	-0.149702
Zn9	Zn	0.894947	0.168056	0.149357
O10	O	0.889856	0.349719	-0.113657
C11	C	0.756615	0.177585	-0.000145
C12	C	0.672583	0.175379	-0.000128
C13	C	0.624673	0.288036	-0.000124
C14	C	0.545716	0.285955	-0.000142
C15	C	0.514672	0.171215	-0.000153
C16	C	0.562589	0.058549	-0.000161
C17	C	0.641544	0.060631	-0.000153
C18	C	0.244173	0.050148	-0.000195
C19	C	0.165212	0.048075	-0.000199
C20	C	0.148345	0.275473	-0.000184
C21	C	0.227300	0.277555	-0.000176
C22	C	0.275210	0.164889	-0.000191
C23	C	0.360823	0.167147	-0.000174
C24	C	0.429060	0.168956	-0.000160
C25	C	0.899283	-0.060094	-0.000177
C26	C	0.897071	-0.198611	-0.000173
C27	C	0.896089	-0.260359	0.117413
C28	C	0.893803	-0.403523	0.117421
C29	C	1.033267	0.158527	-0.000197
C30	C	1.117299	0.160734	-0.000205
C31	C	0.890600	0.396206	-0.000164
C32	C	0.892812	0.534723	-0.000160
N33	N	0.894933	0.168055	-0.353801
C34	C	0.943305	0.087118	-0.421590
C35	C	0.943317	0.087113	-0.578753
N36	N	0.894955	0.168048	0.353457
H37	H	0.252572	0.370988	-0.000160
O38	O	0.998132	-0.004708	-0.344365
H39	H	0.989510	0.009692	-0.233042
O40	O	0.897216	-0.190001	0.250760
H41	H	0.845322	-0.203624	0.310130
H42	H	0.283172	-0.041591	-0.000209
H43	H	0.892962	-0.456626	0.218090
H44	H	0.853543	0.237349	-0.588256
H45	H	0.893660	-0.412184	-0.100835
O46	O	0.840090	0.259862	-0.431017
H47	H	0.802972	0.207557	-0.496139
H48	H	0.896214	-0.251733	-0.100836
H49	H	0.984733	0.017824	-0.637049
H50	H	0.649942	0.381471	-0.000113
H51	H	0.109327	0.367211	-0.000179
O52	O	0.494038	0.407463	-0.000138
H53	H	0.528890	0.487598	-0.000113
H54	H	0.139939	-0.045366	-0.000210
O55	O	0.529111	-0.065212	-0.000179
H56	H	0.466160	-0.047736	-0.000171
O57	O	0.693225	-0.060877	-0.000153
H58	H	0.658375	-0.141014	-0.000150
