data_functionalizedCrystal
_audit_creation_method	'MofGen! by Chris Wilmer'
_symmetry_space_group_name_H-M	'P1'
_symmetry_Int_Tables_number	1
_symmetry_cell_setting	triclinic
loop_
_symmetry_equiv_pos_as_xyz
  x,y,z
_cell_length_a	19.288864
_cell_length_b	17.766277
_cell_length_c	19.288874
_cell_angle_alpha	90.008252
_cell_angle_beta	83.138236
_cell_angle_gamma	90.012907
loop_
_atom_site_label
_atom_site_type_symbol
_atom_site_fract_x
_atom_site_fract_y
_atom_site_fract_z
O1	O	0.921345	0.062836	0.086651
O2	O	1.421345	0.562836	0.586651
O3	O	0.719085	0.062785	0.098340
O4	O	1.219085	0.562785	0.598340
O5	O	0.826056	0.062806	-0.008635
O6	O	1.326056	0.562806	0.491365
O7	O	0.814374	0.062815	0.193625
O8	O	1.314374	0.562815	0.693625
O9	O	0.826059	-0.062382	-0.008645
O10	O	1.326059	0.437618	0.491355
O11	O	0.719088	-0.062403	0.098329
O12	O	1.219088	0.437597	0.598329
O13	O	0.921348	-0.062352	0.086640
O14	O	1.421348	0.437648	0.586640
Cu15	Cu	0.820218	-0.073808	0.092484
Cu16	Cu	1.320218	0.426192	0.592484
Cu17	Cu	0.820215	0.074241	0.092496
Cu18	Cu	1.320215	0.574241	0.592496
O19	O	0.814377	-0.062373	0.193614
O20	O	1.314377	0.437627	0.693614
C21	C	0.693210	0.000184	0.097958
C22	C	1.193210	0.500184	0.597958
C23	C	0.616106	0.000164	0.096829
C24	C	1.116106	0.500164	0.596829
C25	C	0.571412	0.000179	0.159597
C26	C	1.071412	0.500179	0.659597
C27	C	0.498965	0.000187	0.158536
C28	C	0.998965	0.500187	0.658536
C29	C	0.471215	0.000196	0.094704
C30	C	0.971215	0.500196	0.594704
C31	C	0.515919	0.000177	0.031928
C32	C	1.015919	0.500177	0.531928
C33	C	0.588365	0.000161	0.032991
C34	C	1.088365	0.500161	0.532991
C35	C	0.362951	0.044078	0.044529
C36	C	0.862951	0.544078	0.544529
C37	C	0.290506	0.044099	0.043469
C38	C	0.790506	0.544099	0.543469
C39	C	0.247770	0.000241	0.091425
C40	C	0.747770	0.500241	0.591425
C41	C	0.277485	-0.043626	0.140452
C42	C	0.777485	0.456374	0.640452
C43	C	0.349931	-0.043642	0.141514
C44	C	0.849931	0.456358	0.641514
C45	C	0.392661	0.000213	0.093545
C46	C	0.892661	0.500213	0.593545
C47	C	0.124520	0.000264	0.153047
C48	C	0.624520	0.500264	0.653047
C49	C	0.052071	0.000268	0.151983
C50	C	0.552071	0.500268	0.651983
C51	C	0.069027	0.000265	0.025374
C52	C	0.569027	0.500265	0.525374
C53	C	0.141474	0.000254	0.026439
C54	C	0.641474	0.500254	0.526439
C55	C	0.169215	0.000257	0.090277
C56	C	0.669215	0.500257	0.590277
C57	C	0.825680	0.000212	-0.034516
C58	C	1.325680	0.500212	0.465484
C59	C	0.824549	0.000212	-0.111619
C60	C	1.324549	0.500212	0.388381
C61	C	0.947223	0.000250	0.087022
C62	C	1.447223	0.500250	0.587022
C63	C	1.024327	0.000275	0.088151
C64	C	1.524327	0.500275	0.588151
N65	N	0.820213	0.178372	0.092500
N66	N	1.320213	0.678372	0.592500
N67	N	0.820225	-0.177939	0.092474
N68	N	1.320225	0.322061	0.592474
C69	C	0.867664	0.217768	0.045224
C70	C	1.367664	0.717768	0.545224
C71	C	0.867670	0.296570	0.045223
C72	C	1.367670	0.796570	0.545223
C73	C	0.820213	0.335972	0.092491
C74	C	1.320213	0.835972	0.592491
C75	C	0.772759	0.296566	0.139776
C76	C	1.272759	0.796566	0.639776
C77	C	0.772759	0.217766	0.139780
C78	C	1.272759	0.717766	0.639780
C79	C	0.756926	0.460802	0.101636
C80	C	1.256926	0.960802	0.601636
C81	C	0.756925	0.539600	0.101627
C82	C	1.256925	1.039600	0.601627
C83	C	0.820214	0.579019	0.092481
C84	C	1.320214	1.079019	0.592481
C85	C	0.883506	0.539628	0.083330
C86	C	1.383506	1.039628	0.583330
C87	C	0.883506	0.460828	0.083335
C88	C	1.383506	0.960828	0.583335
C89	C	0.820208	0.421418	0.092492
C90	C	1.320208	0.921418	0.592492
C91	C	0.867675	0.703861	0.045201
C92	C	1.367675	1.203861	0.545201
C93	C	0.867682	0.782664	0.045205
C94	C	1.367682	1.282664	0.545205
C95	C	0.772765	0.782659	0.139755
C96	C	1.272765	1.282659	0.639755
C97	C	0.772764	0.703857	0.139754
C98	C	1.272764	1.203857	0.639754
C99	C	0.820218	0.664463	0.092474
C100	C	1.320218	1.164463	0.592474
C101	C	0.816424	-0.068012	-0.667195
C102	C	1.316424	0.431988	-0.167195
C103	C	0.817480	-0.068016	-0.594747
C104	C	1.317480	0.431984	-0.094747
C105	C	0.818010	0.000224	-0.558510
C106	C	1.318010	0.500224	-0.058510
C107	C	0.817466	0.068472	-0.594724
C108	C	1.317466	0.568472	-0.094724
C109	C	0.816403	0.068474	-0.667170
C110	C	1.316403	0.568474	-0.167170
C111	C	0.860374	0.052513	-0.449174
C112	C	1.360374	0.552513	0.050826
C113	C	0.861441	0.052509	-0.376730
C114	C	1.361441	0.552509	0.123270
C115	C	0.821285	0.000221	-0.335064
C116	C	1.321285	0.500221	0.164936
C117	C	0.780070	-0.052075	-0.365850
C118	C	1.280070	0.447925	0.134150
C119	C	0.779007	-0.052073	-0.438296
C120	C	1.279007	0.447927	0.061704
C121	C	0.819162	0.000229	-0.479955
C122	C	1.319162	0.500229	0.020045
C123	C	0.822969	-0.068027	-0.220301
C124	C	1.322969	0.431973	0.279699
C125	C	0.824020	-0.068028	-0.147852
C126	C	1.324020	0.431972	0.352148
C127	C	0.824013	0.068462	-0.147831
C128	C	1.324013	0.568462	0.352169
C129	C	0.822954	0.068461	-0.220279
C130	C	1.322954	0.568461	0.279721
C131	C	0.822436	0.000214	-0.256510
C132	C	1.322436	0.500214	0.243490
C133	C	0.814753	0.000223	0.219496
C134	C	1.314753	0.500223	0.719496
C135	C	0.815884	0.000228	0.296599
C136	C	1.315884	0.500228	0.796599
H137	H	0.462568	0.000197	0.209651
H138	H	0.962568	0.500197	0.709651
Br139	Br	0.671033	0.593051	0.114112
Br140	Br	1.171033	1.093051	0.614112
Br141	Br	0.649026	0.000140	-0.052201
Br142	Br	1.149026	0.500140	0.447799
H143	H	0.705386	0.428714	0.109087
H144	H	1.205386	0.928714	0.609087
H145	H	0.906306	0.185696	0.006727
H146	H	1.406306	0.685696	0.506727
H147	H	0.374122	-0.079364	0.181432
H148	H	0.874122	0.420636	0.681432
Br149	Br	0.250184	0.103643	-0.023058
Br150	Br	0.750184	0.603643	0.476942
H151	H	0.893071	0.095100	-0.483093
H152	H	1.393071	0.595100	0.016907
H153	H	0.397742	0.079797	0.005477
H154	H	0.897742	0.579797	0.505477
Br155	Br	0.219494	-0.103149	0.205541
Br156	Br	0.719494	0.396851	0.705541
H157	H	0.906317	0.671785	0.006705
H158	H	1.406317	1.171785	0.506705
Br159	Br	0.824698	0.161075	-0.098656
Br160	Br	1.324698	0.661075	0.401344
Br161	Br	-0.008588	0.000281	0.237176
Br162	Br	0.491412	0.500281	0.737176
Br163	Br	0.478261	0.000181	-0.054701
Br164	Br	0.978261	0.500181	0.445299
Br165	Br	0.708357	0.350038	0.203931
Br166	Br	1.208357	0.850038	0.703931
Br167	Br	0.708366	0.836127	0.203912
Br168	Br	1.208366	1.336127	0.703912
Br169	Br	0.723073	-0.123038	-0.480076
Br170	Br	1.223073	0.376962	0.019924
Br171	Br	0.822226	0.161077	-0.269420
Br172	Br	1.322226	0.661077	0.230580
Br173	Br	0.818219	-0.160633	-0.545600
Br174	Br	1.318219	0.339367	-0.045600
Br175	Br	0.932090	0.836135	-0.018954
Br176	Br	1.432090	1.336135	0.481046
Br177	Br	0.822263	-0.160645	-0.269476
Br178	Br	1.322263	0.339355	0.230524
Br179	Br	0.969397	0.407372	0.070922
Br180	Br	1.469397	0.907372	0.570922
H181	H	0.734118	0.185689	0.178279
H182	H	1.234118	0.685689	0.678279
H183	H	0.815963	0.124045	-0.696648
H184	H	1.315963	0.624045	-0.196648
H185	H	0.734122	0.671779	0.178248
H186	H	1.234122	1.171779	0.678248
H187	H	0.906312	0.328652	0.006724
H188	H	1.406312	0.828652	0.506724
H189	H	0.824458	-0.123599	-0.118374
H190	H	1.324458	0.376401	0.381626
H191	H	0.593994	0.000183	0.211579
H192	H	1.093994	0.500183	0.711579
H193	H	0.895004	0.095087	-0.351670
H194	H	1.395004	0.595087	0.148330
Br195	Br	0.969403	0.593114	0.070909
Br196	Br	1.469403	1.093114	0.570909
H197	H	0.177865	0.000246	-0.024674
H198	H	0.677865	0.500246	0.475326
H199	H	0.817895	0.124033	-0.565215
H200	H	1.317895	0.624033	-0.065215
Br201	Br	0.725574	-0.123048	-0.309313
Br202	Br	1.225574	0.376952	0.190687
Br203	Br	0.031375	0.000264	-0.061257
Br204	Br	0.531375	0.500264	0.438743
Br205	Br	0.162173	0.000263	0.239682
Br206	Br	0.662173	0.500263	0.739682
Br207	Br	0.815715	-0.160632	-0.716361
Br208	Br	1.315715	0.339368	-0.216361
