data_functionalizedCrystal
_audit_creation_method	'MofGen! by Chris Wilmer'
_symmetry_space_group_name_H-M	'P1'
_symmetry_Int_Tables_number	1
_symmetry_cell_setting	triclinic
loop_
_symmetry_equiv_pos_as_xyz
  x,y,z
_cell_length_a	25.639242
_cell_length_b	21.295417
_cell_length_c	21.295420
_cell_angle_alpha	90.006945
_cell_angle_beta	90.025729
_cell_angle_gamma	90.026033
loop_
_atom_site_label
_atom_site_type_symbol
_atom_site_fract_x
_atom_site_fract_y
_atom_site_fract_z
Zn1	Zn	0.799273	-0.250847	0.356058
Zn2	Zn	0.799204	-0.356072	0.250784
Zn3	Zn	0.711844	-0.250813	0.250787
Zn4	Zn	0.711807	-0.356074	0.355999
O5	O	0.755532	-0.303452	0.303407
O6	O	0.872429	-0.264819	0.342116
O7	O	0.787602	-0.342094	0.162695
O8	O	0.723486	-0.162728	0.264778
O9	O	0.872378	-0.342128	0.264772
O10	O	0.787720	-0.162753	0.342120
O11	O	0.723419	-0.264760	0.162697
O12	O	0.638674	-0.264762	0.264721
O13	O	0.723423	-0.342131	0.444096
O14	O	0.638647	-0.342098	0.342019
O15	O	0.787684	-0.264821	0.444140
O16	O	0.787566	-0.444162	0.264714
O17	O	0.723356	-0.444164	0.342016
C18	C	0.755463	-0.467003	0.303372
C19	C	0.755482	-0.536971	0.303378
C20	C	0.619689	-0.303427	0.303364
C21	C	0.561575	-0.303431	0.303361
C22	C	0.788946	-0.569816	0.263169
C23	C	0.788970	-0.635559	0.263183
C24	C	0.755522	-0.668454	0.303400
C25	C	0.722055	-0.635601	0.343617
C26	C	0.722036	-0.569860	0.343607
N27	N	0.709784	-0.771717	0.308185
N28	N	0.709804	-0.834169	0.308191
C29	C	0.755580	-0.866529	0.303436
N30	N	0.801336	-0.834078	0.298662
N31	N	0.801315	-0.771620	0.298652
C32	C	0.755540	-0.739739	0.303416
C33	C	0.789073	-0.970659	0.263240
C34	C	0.789099	-1.036403	0.263258
C35	C	0.722179	-1.036444	0.343690
C36	C	0.722159	-0.970701	0.343674
C37	C	0.755605	-0.937813	0.303446
C38	C	0.201207	-0.343787	0.343618
C39	C	0.146603	-0.343791	0.343628
O40	O	0.118361	-0.378073	0.377820
N41	N	0.119293	-0.303469	0.303448
C42	C	0.146590	-0.263136	0.263260
O43	O	0.118347	-0.228838	0.229085
C44	C	0.201194	-0.263129	0.263254
C45	C	0.228501	-0.303459	0.303432
C46	C	0.228514	-0.384113	0.383794
C47	C	0.283115	-0.384110	0.383783
C48	C	0.310408	-0.343781	0.343596
C49	C	0.283101	-0.303455	0.303421
C50	C	0.228490	-0.222793	0.223069
C51	C	0.283097	-0.222790	0.223066
C52	C	0.310404	-0.263119	0.263245
C53	C	0.364995	-0.263123	0.263224
N54	N	0.392305	-0.303446	0.303404
C55	C	0.365011	-0.343775	0.343590
C56	C	0.031920	-0.263152	0.263277
C57	C	-0.022683	-0.263161	0.263279
C58	C	-0.022666	-0.343816	0.343649
C59	C	0.031937	-0.343809	0.343643
C60	C	0.059229	-0.303474	0.303457
C61	C	0.479677	-0.343765	0.343564
C62	C	0.534282	-0.343760	0.343547
C63	C	0.534261	-0.263103	0.263181
C64	C	0.479660	-0.263110	0.263194
C65	C	0.452369	-0.303443	0.303391
O66	O	0.393271	-0.228858	0.229051
O67	O	0.393261	-0.378060	0.377765
C68	C	0.891905	-0.303477	0.303450
C69	C	0.950019	-0.303488	0.303469
C70	C	0.755557	-0.303480	0.467597
C71	C	0.755568	-0.303493	0.537565
C72	C	0.755615	-0.139261	0.303456
C73	C	0.755650	-0.069293	0.303477
C74	C	0.789024	-0.263244	0.570456
C75	C	0.789016	-0.263234	0.636198
C76	C	0.755558	-0.303483	0.669048
C77	C	0.722096	-0.343735	0.636150
C78	C	0.722101	-0.343739	0.570408
N79	N	0.751512	-0.358577	0.772262
N80	N	0.751511	-0.358571	0.834714
C81	C	0.755539	-0.303470	0.867123
N82	N	0.759580	-0.248375	0.834721
N83	N	0.759585	-0.248382	0.772263
C84	C	0.755548	-0.303482	0.740333
C85	C	0.788988	-0.263207	0.971298
C86	C	0.788976	-0.263195	1.037042
C87	C	0.722059	-0.343702	1.036992
C88	C	0.722068	-0.343708	0.971250
C89	C	0.755535	-0.303461	0.938407
C90	C	0.755509	-0.303442	1.139855
C91	C	0.755517	-0.303444	1.069887
H92	H	0.816222	-0.662306	0.230439
C93	C	0.825780	-0.218920	1.073222
H94	H	0.845714	-0.194958	1.044243
H95	H	0.805794	-0.191483	1.098855
H96	H	0.848546	-0.243009	1.098881
C97	C	0.685270	-0.387987	0.935069
H98	H	0.665344	-0.411960	0.964047
H99	H	0.662504	-0.363904	0.909409
H100	H	0.705262	-0.415423	0.909436
H101	H	0.694907	-0.943957	0.376414
C102	C	-0.052694	-0.388175	0.387858
H103	H	-0.028613	-0.412196	0.411786
H104	H	-0.073974	-0.364141	0.415330
H105	H	-0.074014	-0.415564	0.363726
H106	H	0.694785	-0.543117	0.376351
H107	H	0.054167	-0.376648	0.376360
C108	C	-0.052715	-0.218803	0.219079
H109	H	-0.028634	-0.194783	0.195150
H110	H	-0.074038	-0.242833	0.191609
H111	H	-0.073992	-0.191413	0.243217
C112	C	0.564317	-0.388121	0.387748
H113	H	0.540238	-0.412134	0.411687
H114	H	0.585597	-0.415508	0.363617
H115	H	0.585638	-0.364083	0.415219
H116	H	0.457463	-0.376607	0.376297
C117	C	0.198464	-0.178425	0.178877
H118	H	0.222547	-0.154403	0.154953
H119	H	0.177140	-0.202448	0.151401
H120	H	0.177187	-0.151037	0.203018
H121	H	0.816236	-0.230432	0.944556
H122	H	0.694852	-0.376504	0.662900
C123	C	0.061937	-0.218788	0.219062
H124	H	0.037848	-0.194781	0.195132
H125	H	0.083258	-0.191396	0.243185
H126	H	0.083216	-0.242821	0.191583
H127	H	0.457426	-0.230272	0.230477
C128	C	0.825832	-0.218970	0.534332
H129	H	0.845753	-0.194994	0.563339
H130	H	0.848602	-0.243054	0.508698
H131	H	0.805845	-0.191536	0.508677
C132	C	0.313116	-0.178419	0.178861
H133	H	0.289029	-0.154407	0.154934
H134	H	0.334437	-0.151033	0.202989
H135	H	0.334394	-0.202450	0.151379
H136	H	0.206298	-0.416954	0.416522
C137	C	0.564291	-0.218742	0.218982
H138	H	0.600720	-0.224514	0.224739
H139	H	0.555323	-0.227874	0.176669
H140	H	0.555361	-0.176462	0.228284
H141	H	0.816258	-0.230455	0.662982
H142	H	0.694855	-0.376514	0.543630
H143	H	0.694822	-0.662388	0.376364
H144	H	0.816352	-1.063144	0.230516
H145	H	0.694811	-0.376467	1.063738
C146	C	0.313148	-0.428482	0.427968
H147	H	0.349578	-0.422717	0.422206
H148	H	0.304225	-0.419355	0.470284
H149	H	0.304172	-0.470758	0.418660
C150	C	0.825723	-0.533640	0.218908
H151	H	0.820913	-0.489782	0.224650
H152	H	0.860856	-0.544369	0.228148
H153	H	0.818078	-0.544442	0.176608
C154	C	0.825867	-0.934479	0.218998
H155	H	0.845807	-0.963459	0.195059
H156	H	0.805875	-0.908862	0.191539
H157	H	0.848628	-0.908804	0.243109
H158	H	0.694947	-1.063226	0.376438
