data_functionalizedCrystal
_audit_creation_method	'MofGen! by Chris Wilmer'
_symmetry_space_group_name_H-M	'P1'
_symmetry_Int_Tables_number	1
_symmetry_cell_setting	triclinic
loop_
_symmetry_equiv_pos_as_xyz
  x,y,z
_cell_length_a	6.817900
_cell_length_b	19.452420
_cell_length_c	19.453046
_cell_angle_alpha	96.332859
_cell_angle_beta	101.708137
_cell_angle_gamma	101.696715
loop_
_atom_site_label
_atom_site_type_symbol
_atom_site_fract_x
_atom_site_fract_y
_atom_site_fract_z
V1	V	-3.997944	-0.097931	-0.219347
O2	O	-3.995097	0.003938	-0.214818
O3	O	-3.940914	-0.193441	-0.218187
O4	O	-3.940964	-0.096762	-0.314857
O5	O	-3.995047	-0.093411	-0.117479
V6	V	-4.483802	-0.085706	-0.207122
O7	O	-4.254081	-0.124746	-0.246165
O8	O	-4.677863	-0.058891	-0.180304
O9	O	-4.317625	0.009804	-0.208282
O10	O	-4.604046	-0.187575	-0.211651
O11	O	-4.604096	-0.090226	-0.308990
O12	O	-4.317575	-0.086876	-0.111612
C13	C	-3.784093	-0.216714	-0.214815
C14	C	-3.818694	-0.294798	-0.214503
C15	C	-3.801489	-0.321207	-0.149988
C16	C	-3.834073	-0.394572	-0.149673
C17	C	-3.883824	-0.441526	-0.213877
C18	C	-3.901042	-0.415109	-0.278400
C19	C	-3.868477	-0.341745	-0.278714
N20	N	-3.846560	-0.562128	-0.259094
N21	N	-3.877489	-0.631820	-0.258792
C22	C	-3.981947	-0.662568	-0.212937
N23	N	-4.054277	-0.620989	-0.167384
N24	N	-4.023335	-0.551290	-0.167684
C25	C	-3.919140	-0.521078	-0.213544
C26	C	-4.000073	-0.768528	-0.148077
C27	C	-4.032672	-0.841896	-0.147765
C28	C	-4.099621	-0.862431	-0.276494
C29	C	-4.067042	-0.789065	-0.276804
C30	C	-4.017259	-0.742117	-0.212593
C31	C	-3.784156	-0.093389	-0.338126
C32	C	-3.818796	-0.093065	-0.416208
C33	C	-4.099518	-0.155083	-0.983842
C34	C	-4.066958	-0.155393	-0.910477
C35	C	-4.017245	-0.091187	-0.863528
C36	C	-4.000041	-0.026667	-0.889950
C37	C	-4.032581	-0.026359	-0.963314
N38	N	-4.054572	-0.045961	-0.742942
N39	N	-4.023667	-0.046258	-0.673250
C40	C	-3.919197	-0.092112	-0.642485
N41	N	-3.846831	-0.137669	-0.684047
N42	N	-3.877749	-0.137374	-0.753746
C43	C	-3.981956	-0.091514	-0.783976
C44	C	-3.901084	-0.156964	-0.536519
C45	C	-3.868510	-0.157271	-0.463152
C46	C	-3.801613	-0.028543	-0.442626
C47	C	-3.834167	-0.028238	-0.515993
C48	C	-3.883911	-0.092451	-0.562935
C49	C	-4.137788	0.033073	-0.211653
C50	C	-4.082425	0.111156	-0.211969
C51	C	-4.137725	-0.090251	-0.088340
C52	C	-4.082325	-0.090571	-0.010257
H53	H	-3.941554	-0.453344	-0.330675
H54	H	-4.018671	-0.863395	-0.095227
H55	H	-3.761114	0.023735	-0.404401
H56	H	-3.959537	-0.730301	-0.095793
O57	O	-3.753409	-0.275541	-0.087666
C58	C	-3.905005	-0.235895	-0.087325
H59	H	-3.986670	-0.234945	-0.144366
H60	H	-3.829164	-0.179198	-0.059549
H61	H	-4.021761	-0.261481	-0.057785
H62	H	-4.140018	-0.207370	-1.022059
H63	H	-3.820174	0.024295	-0.537499
H64	H	-4.140130	-0.900660	-0.328769
H65	H	-4.081039	-0.767563	-0.329339
O66	O	-3.884876	-0.219927	-0.437468
C67	C	-3.695686	-0.220648	-0.392225
H68	H	-3.565959	-0.181701	-0.406107
H69	H	-3.667093	-0.276463	-0.399349
H70	H	-3.701021	-0.204365	-0.334634
H71	H	-3.941570	-0.209250	-0.574742
H72	H	-3.820058	-0.416079	-0.097136
O73	O	-3.885171	-0.316205	-0.341448
C74	C	-3.936132	-0.373377	-0.398052
H75	H	-3.886519	-0.421426	-0.377740
H76	H	-3.853486	-0.357461	-0.441283
H77	H	-4.109593	-0.387474	-0.420904
O78	O	-4.083809	-0.218056	-0.884792
C79	C	-4.239427	-0.225533	-0.846392
H80	H	-4.263054	-0.170842	-0.827546
H81	H	-4.191874	-0.252303	-0.798431
H82	H	-4.389187	-0.259498	-0.882145
O83	O	-3.952109	0.035677	-0.844327
C84	C	-4.103680	0.036004	-0.804677
H85	H	-4.252974	-0.002761	-0.834996
H86	H	-4.131600	0.091804	-0.795913
H87	H	-4.049031	0.019234	-0.751061
H88	H	-4.018584	0.026177	-0.984819
