data_functionalizedCrystal
_audit_creation_method	'MofGen! by Chris Wilmer'
_symmetry_space_group_name_H-M	'P1'
_symmetry_Int_Tables_number	1
_symmetry_cell_setting	triclinic
loop_
_symmetry_equiv_pos_as_xyz
  x,y,z
_cell_length_a	42.784839
_cell_length_b	42.784841
_cell_length_c	42.784893
_cell_angle_alpha	59.997391
_cell_angle_beta	90.001578
_cell_angle_gamma	119.999863
loop_
_atom_site_label
_atom_site_type_symbol
_atom_site_fract_x
_atom_site_fract_y
_atom_site_fract_z
O1	O	0.266395	-0.223712	0.009300
O2	O	0.220944	-0.159709	-0.009253
O3	O	0.220942	-0.223711	0.054750
O4	O	0.266397	-0.159710	-0.054703
O5	O	0.168958	-0.275695	0.054750
O6	O	0.168960	-0.211692	-0.009253
O7	O	0.214411	-0.275696	0.009300
Cu8	Cu	0.186939	-0.248441	0.000023
Cu9	Cu	0.248416	-0.186964	0.000024
O10	O	0.214413	-0.211693	-0.054703
C11	C	0.079133	0.005334	-0.028113
C12	C	0.041517	-0.013385	-0.028376
C13	C	0.079134	-0.051262	-0.028116
C14	C	0.041518	-0.069896	-0.028379
C15	C	0.022535	-0.051264	-0.028112
C16	C	0.098031	-0.013383	-0.028379
C17	C	0.170812	0.131572	-0.017864
C18	C	0.188751	0.167325	-0.014965
C19	C	0.169411	0.185259	-0.013509
C20	C	0.188858	0.224021	-0.010359
C21	C	0.132130	0.167439	-0.014954
C22	C	0.114196	0.131692	-0.017857
C23	C	0.133538	0.113758	-0.019312
C24	C	-0.113954	-0.096077	-0.017859
C25	C	-0.152606	-0.116789	-0.014961
C26	C	-0.171997	-0.155518	-0.013506
C27	C	-0.213906	-0.177983	-0.010358
C28	C	-0.152730	-0.173531	-0.014954
C29	C	-0.114078	-0.152815	-0.017859
C30	C	-0.094692	-0.114086	-0.019310
C31	C	0.170816	-0.096066	-0.017877
C32	C	0.188755	-0.116780	-0.014977
C33	C	0.169415	-0.155509	-0.013524
C34	C	0.188864	-0.177971	-0.010378
C35	C	0.132137	-0.173524	-0.014967
C36	C	0.114199	-0.152810	-0.017865
C37	C	0.133544	-0.114078	-0.019324
C38	C	0.114086	0.074994	-0.022457
C39	C	0.098582	0.044095	-0.024965
C40	C	0.098584	-0.073721	-0.024972
C41	C	0.114089	-0.091622	-0.022466
C42	C	-0.019375	-0.073726	-0.024964
C43	C	-0.052781	-0.091629	-0.022456
O44	O	-0.337178	-0.275710	0.009322
O45	O	-0.227725	-0.211707	-0.009228
O46	O	-0.291723	-0.275712	0.054774
O47	O	-0.273180	-0.211705	-0.054680
O48	O	-0.291724	-0.223730	0.054777
O49	O	-0.227727	-0.159725	-0.009225
O50	O	-0.337179	-0.223728	0.009325
Cu51	Cu	-0.282453	-0.186980	0.000050
Cu52	Cu	-0.282452	-0.248455	0.000046
O53	O	-0.273181	-0.159723	-0.054677
C54	C	0.356218	-0.051012	-0.361563
C55	C	0.393833	-0.013131	-0.380461
C56	C	0.356218	-0.051011	-0.304965
C57	C	0.393834	-0.013131	-0.323949
C58	C	0.412817	0.005587	-0.361564
C59	C	0.337321	-0.069644	-0.323947
C60	C	0.264537	-0.152939	-0.396122
C61	C	0.246597	-0.173776	-0.413935
C62	C	0.265937	-0.155891	-0.451211
C63	C	0.246489	-0.178487	-0.470525
C64	C	0.303217	-0.117165	-0.470672
C65	C	0.321153	-0.096327	-0.452860
C66	C	0.301811	-0.114216	-0.415583
C67	C	0.549304	0.131828	-0.453245
C68	C	0.587956	0.167582	-0.471186
C69	C	0.607347	0.185518	-0.451848
C70	C	0.649257	0.224280	-0.471294
C71	C	0.588082	0.167698	-0.414568
C72	C	0.549430	0.131950	-0.396630
C73	C	0.530043	0.114015	-0.415973
C74	C	0.264539	-0.152937	-0.168476
C75	C	0.246601	-0.173777	-0.129822
C76	C	0.265941	-0.155892	-0.110433
C77	C	0.246494	-0.178487	-0.068522
C78	C	0.303220	-0.117169	-0.129698
C79	C	0.321156	-0.096331	-0.168350
C80	C	0.301811	-0.114217	-0.187737
C81	C	0.321264	-0.091619	-0.396270
C82	C	0.336768	-0.073608	-0.380876
C83	C	0.336769	-0.073607	-0.263055
C84	C	0.321265	-0.091618	-0.229649
C85	C	0.454726	0.044350	-0.381014
C86	C	0.488132	0.075249	-0.396518
C87	C	0.412565	-0.384405	0.028194
C88	C	0.393582	-0.422286	0.028459
C89	C	0.355967	-0.384403	0.028191
C90	C	0.337070	-0.422284	0.028456
C91	C	0.355967	-0.441004	0.028193
C92	C	0.393582	-0.365771	0.028456
C93	C	0.549051	-0.282481	0.017949
C94	C	0.587702	-0.261644	0.015053
C95	C	0.607091	-0.279531	0.013601
C96	C	0.649002	-0.256936	0.010454
C97	C	0.587826	-0.318258	0.015048
C98	C	0.549176	-0.339095	0.017949
C99	C	0.529788	-0.321205	0.019400
C100	C	0.321405	-0.567246	0.017951
C101	C	0.303590	-0.603001	0.015055
C102	C	0.266317	-0.620936	0.013598
C103	C	0.247000	-0.659699	0.010452
C104	C	0.246857	-0.603115	0.015042
C105	C	0.264668	-0.567367	0.017945
C106	C	0.301946	-0.549432	0.019397
C107	C	0.321408	-0.282473	0.017937
C108	C	0.303596	-0.261631	0.015032
C109	C	0.266321	-0.279516	0.013577
C110	C	0.247007	-0.256919	0.010426
C111	C	0.246862	-0.318239	0.015022
C112	C	0.264676	-0.339078	0.017925
C113	C	0.301949	-0.321193	0.019385
C114	C	0.487880	-0.343800	0.022542
C115	C	0.454474	-0.361810	0.025048
C116	C	0.336655	-0.361806	0.025042
C117	C	0.321260	-0.343794	0.022533
C118	C	0.336653	-0.479767	0.025048
C119	C	0.321258	-0.510666	0.022541
O120	O	0.214405	0.327611	0.009323
O121	O	0.168952	0.236709	-0.009227
O122	O	0.168954	0.236703	0.054775
O123	O	0.214403	0.327616	-0.054679
O124	O	0.220939	0.236705	0.054772
O125	O	0.220937	0.236710	-0.009230
O126	O	0.266390	0.327612	0.009320
Cu127	Cu	0.248410	0.282162	0.000045
Cu128	Cu	0.186932	0.282160	0.000049
O129	O	0.266388	0.327618	-0.054682
O130	O	0.772529	0.327875	-0.496844
O131	O	0.663077	0.236970	-0.451389
O132	O	0.727075	0.236968	-0.451387
O133	O	0.708531	0.327878	-0.496846
O134	O	0.727074	0.236967	-0.503371
O135	O	0.663076	0.236969	-0.503373
O136	O	0.772528	0.327874	-0.548828
Cu137	Cu	0.717802	0.282421	-0.530847
Cu138	Cu	0.717803	0.282423	-0.469370
O139	O	0.708530	0.327876	-0.548830
O140	O	0.220941	-0.223712	-0.548571
O141	O	0.266394	-0.159712	-0.503120
O142	O	0.266393	-0.223714	-0.503116
O143	O	0.220943	-0.159710	-0.548575
O144	O	0.214408	-0.275699	-0.451132
O145	O	0.214410	-0.211697	-0.451135
O146	O	0.168957	-0.275697	-0.496587
Cu147	Cu	0.186937	-0.248443	-0.469114
Cu148	Cu	0.248414	-0.186966	-0.530592
O149	O	0.168958	-0.211695	-0.496590
C150	C	0.022781	-0.440750	0.361611
C151	C	0.041764	-0.422031	0.380508
C152	C	0.079380	-0.384151	0.305012
C153	C	0.098277	-0.365518	0.323995
C154	C	0.079380	-0.384151	0.361610
C155	C	0.041764	-0.422031	0.323995
C156	C	-0.113706	-0.566990	0.396173
C157	C	-0.152358	-0.602744	0.413988
C158	C	-0.171748	-0.620680	0.451263
C159	C	-0.213659	-0.659442	0.470579
C160	C	-0.152482	-0.602860	0.470724
C161	C	-0.113832	-0.567112	0.452911
C162	C	-0.094444	-0.549177	0.415634
C163	C	0.113941	-0.339343	0.453288
C164	C	0.131756	-0.318631	0.471228
C165	C	0.169030	-0.279901	0.451889
C166	C	0.188347	-0.257437	0.471334
C167	C	0.188490	-0.261887	0.414609
C168	C	0.170679	-0.282602	0.396672
C169	C	0.133400	-0.321331	0.416016
C170	C	0.113942	-0.339342	0.168524
C171	C	0.131755	-0.318627	0.129870
C172	C	0.169030	-0.279897	0.110480
C173	C	0.188346	-0.257433	0.068569
C174	C	0.188489	-0.261882	0.129744
C175	C	0.170675	-0.282598	0.168396
C176	C	0.133401	-0.321331	0.187784
C177	C	-0.052535	-0.510411	0.396320
C178	C	-0.019128	-0.479512	0.380925
C179	C	0.098694	-0.361690	0.263102
C180	C	0.114089	-0.343788	0.229696
C181	C	0.098693	-0.361691	0.381059
C182	C	0.114088	-0.343788	0.396563
C183	C	-0.310591	-0.384430	0.361639
C184	C	-0.310854	-0.422310	0.380535
C185	C	-0.310592	-0.384426	0.305038
C186	C	-0.310855	-0.422306	0.324020
C187	C	-0.310589	-0.441026	0.361636
C188	C	-0.310856	-0.365795	0.324023
C189	C	-0.300345	-0.282509	0.396205
C190	C	-0.297448	-0.261674	0.414021
C191	C	-0.295992	-0.279561	0.451296
C192	C	-0.292844	-0.256968	0.470613
C193	C	-0.297437	-0.318288	0.470756
C194	C	-0.300339	-0.339123	0.452942
C195	C	-0.301793	-0.321232	0.415665
C196	C	-0.300337	-0.567268	0.453312
C197	C	-0.297439	-0.603023	0.471251
C198	C	-0.295983	-0.620956	0.451911
C199	C	-0.292835	-0.659719	0.471356
C200	C	-0.297430	-0.603135	0.414631
C201	C	-0.300335	-0.567387	0.396695
C202	C	-0.301786	-0.549454	0.416040
C203	C	-0.300351	-0.282493	0.168550
C204	C	-0.297450	-0.261650	0.129896
C205	C	-0.295996	-0.279534	0.110505
C206	C	-0.292849	-0.256936	0.068594
C207	C	-0.297439	-0.318257	0.129768
C208	C	-0.300338	-0.339097	0.168421
C209	C	-0.301797	-0.321213	0.187810
C210	C	-0.304937	-0.343826	0.396350
C211	C	-0.307444	-0.361836	0.380954
C212	C	-0.307447	-0.361827	0.263128
C213	C	-0.304941	-0.343814	0.229722
C214	C	-0.307441	-0.479789	0.381084
C215	C	-0.304933	-0.510688	0.396587
C216	C	-0.254315	0.005345	-0.361540
C217	C	-0.254051	-0.013372	-0.380438
C218	C	-0.254313	-0.051256	-0.304942
C219	C	-0.254048	-0.069887	-0.323926
C220	C	-0.254314	-0.051252	-0.361542
C221	C	-0.254049	-0.013376	-0.323924
C222	C	-0.264566	0.131583	-0.396098
C223	C	-0.267464	0.167338	-0.413911
C224	C	-0.268920	0.185274	-0.451187
C225	C	-0.272070	0.224037	-0.470501
C226	C	-0.267474	0.167457	-0.470649
C227	C	-0.264571	0.131709	-0.452837
C228	C	-0.263116	0.113772	-0.415560
C229	C	-0.264562	-0.096054	-0.453224
C230	C	-0.267460	-0.116764	-0.471165
C231	C	-0.268914	-0.155494	-0.451828
C232	C	-0.272061	-0.177956	-0.471275
C233	C	-0.267467	-0.173510	-0.414547
C234	C	-0.264563	-0.152797	-0.396609
C235	C	-0.263113	-0.114067	-0.415952
C236	C	-0.264555	-0.096071	-0.168452
C237	C	-0.267456	-0.116788	-0.129798
C238	C	-0.268909	-0.155518	-0.110409
C239	C	-0.272056	-0.177984	-0.068497
C240	C	-0.267465	-0.173531	-0.129674
C241	C	-0.264565	-0.152814	-0.168326
C242	C	-0.263107	-0.114081	-0.187714
C243	C	-0.259972	0.075006	-0.396247
C244	C	-0.257463	0.044107	-0.380853
C245	C	-0.257458	-0.073718	-0.263032
C246	C	-0.259964	-0.091622	-0.229625
C247	C	-0.257461	-0.073711	-0.380992
C248	C	-0.259968	-0.091612	-0.396497
C249	C	0.079132	-0.051321	0.361625
C250	C	0.041516	-0.069957	0.380523
C251	C	0.079132	0.005285	0.305030
C252	C	0.041516	-0.013438	0.324014
C253	C	0.022533	-0.051323	0.361628
C254	C	0.098030	-0.013436	0.324010
C255	C	0.170814	-0.096129	0.396177
C256	C	0.188754	-0.116842	0.413989
C257	C	0.169414	-0.155576	0.451263
C258	C	0.188862	-0.178041	0.470576
C259	C	0.132134	-0.173595	0.470725
C260	C	0.114198	-0.152878	0.452915
C261	C	0.133540	-0.114144	0.415639
C262	C	-0.113955	-0.153264	0.453309
C263	C	-0.152608	-0.174104	0.471250
C264	C	-0.171999	-0.156220	0.451914
C265	C	-0.213909	-0.178816	0.471360
C266	C	-0.152734	-0.117489	0.414635
C267	C	-0.114081	-0.096645	0.396697
C268	C	-0.094695	-0.114539	0.416038
C269	C	0.170812	0.131546	0.168543
C270	C	0.188751	0.167303	0.129890
C271	C	0.169411	0.185240	0.110502
C272	C	0.188858	0.224009	0.068592
C273	C	0.132131	0.167417	0.129768
C274	C	0.114194	0.131660	0.168419
C275	C	0.133540	0.113730	0.187805
C276	C	0.114087	-0.091686	0.396329
C277	C	0.098582	-0.073782	0.380936
C278	C	0.098581	0.044053	0.263121
C279	C	0.114086	0.074957	0.229715
C280	C	-0.019377	-0.073922	0.381078
C281	C	-0.052783	-0.091936	0.396583
O282	O	-0.273152	-0.211741	0.548658
O283	O	-0.291710	-0.275743	0.503207
O284	O	-0.227706	-0.211741	0.503199
O285	O	-0.337156	-0.275743	0.548666
O286	O	-0.227712	-0.159756	0.451217
O287	O	-0.291716	-0.223759	0.451225
O288	O	-0.273158	-0.159757	0.496675
Cu289	Cu	-0.282437	-0.187011	0.469204
Cu290	Cu	-0.282430	-0.248489	0.530679
O291	O	-0.337162	-0.223759	0.496684
C292	C	0.412565	0.615644	-0.361535
C293	C	0.393582	0.634278	-0.380430
C294	C	0.355966	0.559036	-0.304936
C295	C	0.337069	0.577757	-0.323917
C296	C	0.355966	0.615642	-0.361532
C297	C	0.393582	0.577758	-0.323921
C298	C	0.549053	0.660459	-0.396101
C299	C	0.587705	0.681174	-0.413917
C300	C	0.607095	0.719908	-0.451191
C301	C	0.649006	0.742375	-0.470507
C302	C	0.587829	0.737925	-0.470650
C303	C	0.549179	0.717207	-0.452836
C304	C	0.529791	0.678472	-0.415560
C305	C	0.321403	0.717577	-0.453201
C306	C	0.303588	0.738416	-0.471139
C307	C	0.266314	0.720530	-0.451799
C308	C	0.246997	0.743124	-0.471242
C309	C	0.246853	0.681799	-0.414520
C310	C	0.264665	0.660957	-0.396586
C311	C	0.301944	0.678853	-0.415931
C312	C	0.321404	0.432777	-0.168453
C313	C	0.303591	0.397020	-0.129800
C314	C	0.266315	0.379081	-0.110409
C315	C	0.247000	0.340312	-0.068498
C316	C	0.246856	0.396902	-0.129671
C317	C	0.264671	0.432659	-0.168322
C318	C	0.301945	0.450592	-0.187711
C319	C	0.487881	0.656012	-0.396246
C320	C	0.454475	0.638107	-0.380850
C321	C	0.336652	0.520268	-0.263028
C322	C	0.321257	0.489364	-0.229622
C323	C	0.336652	0.638240	-0.380978
C324	C	0.321256	0.656252	-0.396480
H325	H	0.083848	-0.167478	-0.019045
C326	C	0.243270	-0.381675	0.019519
C327	C	0.262863	-0.404598	0.022712
C328	C	0.241456	-0.447196	0.024306
C329	C	0.200456	-0.466871	0.022708
C330	C	0.180860	-0.443949	0.019515
C331	C	0.202267	-0.401351	0.017920
H332	H	0.293216	-0.390033	0.023895
H333	H	0.255962	-0.464164	0.026669
H334	H	0.184609	-0.498405	0.023888
H335	H	0.150507	-0.458514	0.018331
H336	H	0.187761	-0.384382	0.015557
H337	H	0.603618	0.769461	-0.500999
H338	H	0.351504	-0.064795	-0.468708
H339	H	0.351755	0.732150	-0.468955
C340	C	-0.253469	-0.111062	-0.303339
C341	C	-0.220120	-0.109197	-0.319854
C342	C	-0.219539	-0.150370	-0.299269
C343	C	-0.252309	-0.193409	-0.262168
C344	C	-0.285661	-0.195275	-0.245650
C345	C	-0.286241	-0.154102	-0.266236
H346	H	-0.195859	-0.077336	-0.347320
H347	H	-0.194850	-0.148988	-0.311496
H348	H	-0.251879	-0.223887	-0.246929
H349	H	-0.309921	-0.227136	-0.218184
H350	H	-0.310931	-0.155485	-0.254008
H351	H	-0.296257	-0.617528	0.501603
H352	H	0.186568	0.116951	0.184326
C353	C	-0.173798	-0.096980	-0.013363
C354	C	-0.209087	-0.124281	0.021608
C355	C	-0.230279	-0.104471	0.023207
C356	C	-0.216182	-0.057360	-0.010165
C357	C	-0.180891	-0.030056	-0.045139
C358	C	-0.159699	-0.049866	-0.046738
H359	H	-0.219524	-0.159158	0.046314
H360	H	-0.256404	-0.124684	0.049097
H361	H	-0.231870	-0.042696	-0.008981
H362	H	-0.170454	0.004821	-0.069845
H363	H	-0.133574	-0.029653	-0.072628
H364	H	-0.301516	-0.552881	0.366343
C365	C	0.527988	0.737024	-0.474238
C366	C	0.542088	0.784131	-0.487963
C367	C	0.520898	0.803949	-0.509365
C368	C	0.485608	0.776660	-0.517042
C369	C	0.471506	0.729551	-0.503316
C370	C	0.492696	0.709732	-0.481914
H371	H	0.568213	0.804334	-0.482281
H372	H	0.531337	0.838823	-0.519526
H373	H	0.469922	0.791331	-0.532885
H374	H	0.445381	0.709348	-0.508999
H375	H	0.482257	0.674859	-0.471754
C376	C	-0.295862	-0.219056	0.108709
C377	C	-0.326844	-0.217802	0.090890
C378	C	-0.325258	-0.175209	0.069704
C379	C	-0.292690	-0.133869	0.066337
C380	C	-0.261705	-0.135121	0.084156
C381	C	-0.263291	-0.177714	0.105342
H382	H	-0.350955	-0.248406	0.093382
H383	H	-0.348195	-0.174282	0.056513
H384	H	-0.291516	-0.102338	0.050654
H385	H	-0.237594	-0.104517	0.081664
H386	H	-0.240354	-0.178641	0.118533
C387	C	-0.301936	-0.547546	0.474592
C388	C	-0.334515	-0.576654	0.512533
C389	C	-0.336112	-0.556929	0.533811
C390	C	-0.305131	-0.508097	0.517147
C391	C	-0.272550	-0.478987	0.479204
C392	C	-0.270953	-0.498711	0.457926
H393	H	-0.357450	-0.612805	0.524870
H394	H	-0.360230	-0.578479	0.561899
H395	H	-0.306313	-0.493496	0.532898
H396	H	-0.249615	-0.442836	0.466867
H397	H	-0.246835	-0.477161	0.429838
H398	H	0.216244	-0.205307	-0.398087
C399	C	0.110349	-0.338442	0.512231
C400	C	0.126909	-0.352861	0.544472
C401	C	0.105502	-0.372673	0.585474
C402	C	0.067534	-0.378064	0.594237
C403	C	0.050972	-0.363645	0.561995
C404	C	0.072379	-0.343834	0.520992
H405	H	0.155017	-0.348870	0.537986
H406	H	0.117762	-0.383347	0.609342
H407	H	0.051687	-0.392730	0.624589
H408	H	0.022864	-0.367636	0.568480
H409	H	0.060119	-0.333159	0.497125
H410	H	0.186567	-0.064589	0.365827
C411	C	-0.295837	-0.337964	0.511757
C412	C	-0.263258	-0.343327	0.520590
C413	C	-0.261658	-0.363005	0.561593
C414	C	-0.292635	-0.377320	0.593762
C415	C	-0.325216	-0.371958	0.584930
C416	C	-0.326817	-0.352280	0.543927
H417	H	-0.240324	-0.332729	0.496776
H418	H	-0.237539	-0.366974	0.568131
H419	H	-0.291451	-0.391888	0.624114
H420	H	-0.348150	-0.382556	0.608744
H421	H	-0.350935	-0.348310	0.537389
C422	C	-0.173799	-0.216708	0.512251
C423	C	-0.191621	-0.217977	0.544496
C424	C	-0.212812	-0.260582	0.585497
C425	C	-0.216181	-0.301918	0.594255
C426	C	-0.198357	-0.300651	0.562010
C427	C	-0.177166	-0.258046	0.521008
H428	H	-0.189129	-0.187376	0.538014
H429	H	-0.226007	-0.261520	0.609367
H430	H	-0.231868	-0.333456	0.624606
H431	H	-0.200850	-0.331251	0.568492
H432	H	-0.163972	-0.257108	0.497138
C433	C	0.325001	-0.219037	0.013443
C434	C	0.332679	-0.176068	-0.021526
C435	C	0.354085	-0.133475	-0.023113
C436	C	0.367811	-0.133850	0.010267
C437	C	0.360133	-0.176819	0.045238
C438	C	0.338728	-0.219413	0.046826
H439	H	0.322518	-0.175790	-0.046238
H440	H	0.359768	-0.101666	-0.049001
H441	H	0.383657	-0.102319	0.009092
H442	H	0.370295	-0.177098	0.069951
H443	H	0.333044	-0.251222	0.072714
H444	H	0.216248	-0.205308	-0.114139
C445	C	0.020926	0.007726	0.303426
C446	C	-0.016176	-0.019115	0.297496
C447	C	-0.036765	0.002046	0.276908
C448	C	-0.020253	0.050048	0.262250
C449	C	0.016850	0.076892	0.268180
C450	C	0.037440	0.055731	0.288768
H451	H	-0.028400	-0.054652	0.308347
H452	H	-0.064232	-0.017826	0.272518
H453	H	-0.035495	0.065713	0.247010
H454	H	0.029075	0.112429	0.257329
H455	H	0.064906	0.075603	0.293157
H456	H	-0.268657	0.182065	-0.500999
H457	H	0.216511	-0.332801	0.013836
C458	C	-0.253476	0.007792	-0.422191
C459	C	-0.253194	0.049541	-0.443068
C460	C	-0.252618	0.070704	-0.484819
C461	C	-0.252326	0.050118	-0.505695
C462	C	-0.252608	0.008367	-0.484818
C463	C	-0.253183	-0.012796	-0.443067
H464	H	-0.253410	0.064782	-0.427614
H465	H	-0.252409	0.101611	-0.500273
H466	H	-0.251900	0.065784	-0.536602
H467	H	-0.252392	-0.006875	-0.500271
H468	H	-0.253393	-0.043704	-0.427613
C469	C	0.072938	-0.381944	0.474567
C470	C	0.040771	-0.383127	0.457901
C471	C	-0.000232	-0.425725	0.479178
C472	C	-0.009070	-0.467141	0.517120
C473	C	0.023098	-0.465959	0.533788
C474	C	0.064101	-0.423361	0.512511
H475	H	0.047312	-0.352467	0.429813
H476	H	-0.024045	-0.426599	0.466840
H477	H	-0.039423	-0.498675	0.532871
H478	H	0.016556	-0.496619	0.561877
H479	H	0.087914	-0.422487	0.524850
C480	C	0.243263	-0.172611	-0.189803
C481	C	0.205323	-0.177973	-0.193276
C482	C	0.184049	-0.197645	-0.214605
C483	C	0.200716	-0.211955	-0.232462
C484	C	0.238659	-0.206593	-0.228989
C485	C	0.259932	-0.186921	-0.207660
H486	H	0.192983	-0.167380	-0.180058
H487	H	0.155962	-0.201614	-0.217176
H488	H	0.184969	-0.226517	-0.248251
H489	H	0.250998	-0.217186	-0.242207
H490	H	0.288019	-0.182952	-0.205089
C491	C	0.324489	-0.097492	-0.511673
C492	C	0.332063	-0.124888	-0.519600
C493	C	0.353338	-0.105213	-0.560602
C494	C	0.367037	-0.058143	-0.593676
C495	C	0.359463	-0.030744	-0.585750
C496	C	0.338189	-0.050419	-0.544748
H497	H	0.321922	-0.159735	-0.495115
H498	H	0.358945	-0.125496	-0.566469
H499	H	0.382786	-0.043578	-0.624028
H500	H	0.369605	0.004103	-0.610235
H501	H	0.332582	-0.030136	-0.538881
C502	C	0.608894	-0.219046	0.013457
C503	C	0.594795	-0.219407	0.046828
C504	C	0.615987	-0.176807	0.045231
C505	C	0.651277	-0.133846	0.010261
C506	C	0.665378	-0.133482	-0.023113
C507	C	0.644186	-0.176082	-0.021516
H508	H	0.568669	-0.251211	0.072717
H509	H	0.605548	-0.177076	0.069937
H510	H	0.666964	-0.102311	0.009078
H511	H	0.691503	-0.101678	-0.049002
H512	H	0.654624	-0.175813	-0.046222
H513	H	0.026522	-0.437699	0.411415
C514	C	-0.174055	-0.216131	-0.013357
C515	C	-0.177524	-0.257543	0.019220
C516	C	-0.198849	-0.300145	0.020820
C517	C	-0.216706	-0.301333	-0.010158
C518	C	-0.213237	-0.259919	-0.042738
C519	C	-0.191912	-0.217318	-0.044337
H520	H	-0.164305	-0.256665	0.042154
H521	H	-0.201417	-0.330802	0.044938
H522	H	-0.232492	-0.332869	-0.008974
H523	H	-0.226456	-0.260798	-0.065671
H524	H	-0.189344	-0.186660	-0.068455
H525	H	0.409073	0.002533	-0.308707
C526	C	-0.174060	-0.097811	0.393363
C527	C	-0.191918	-0.083506	0.410034
C528	C	-0.213246	-0.063830	0.388761
C529	C	-0.216716	-0.058459	0.350817
C530	C	-0.198858	-0.072765	0.334144
C531	C	-0.177530	-0.092441	0.355417
H532	H	-0.189349	-0.087481	0.438124
H533	H	-0.226465	-0.053240	0.401104
H534	H	-0.232504	-0.043894	0.335070
H535	H	-0.201426	-0.068790	0.306054
H536	H	-0.164310	-0.103031	0.343074
H537	H	-0.301549	-0.267935	0.184338
C538	C	-0.092887	-0.172628	-0.019452
C539	C	-0.114211	-0.215227	-0.017853
C540	C	-0.093020	-0.235041	-0.019444
C541	C	-0.050505	-0.212255	-0.022635
C542	C	-0.029179	-0.169653	-0.024235
C543	C	-0.050370	-0.149839	-0.022643
H544	H	-0.145685	-0.232097	-0.015491
H545	H	-0.108808	-0.266578	-0.018260
H546	H	-0.034819	-0.226922	-0.023814
H547	H	0.002295	-0.152784	-0.026597
H548	H	-0.034582	-0.118303	-0.023828
C549	C	0.205851	0.662119	-0.393245
C550	C	0.172780	0.615051	-0.379550
C551	C	0.131777	0.595372	-0.358274
C552	C	0.123846	0.622761	-0.350692
C553	C	0.156918	0.669832	-0.364387
C554	C	0.197921	0.689511	-0.385663
H555	H	0.178650	0.594773	-0.385162
H556	H	0.107295	0.560527	-0.348136
H557	H	0.093494	0.608194	-0.334943
H558	H	0.151048	0.690110	-0.358775
H559	H	0.222403	0.724356	-0.395801
C560	C	-0.253475	0.007784	-0.303332
C561	C	-0.253193	0.049532	-0.324203
C562	C	-0.252619	0.070690	-0.303611
C563	C	-0.252325	0.050099	-0.262148
C564	C	-0.252607	0.008349	-0.241275
C565	C	-0.253181	-0.012809	-0.261867
H566	H	-0.253410	0.064777	-0.354898
H567	H	-0.252410	0.101597	-0.319063
H568	H	-0.251900	0.065762	-0.246904
H569	H	-0.252390	-0.006896	-0.210579
H570	H	-0.253390	-0.043716	-0.246415
C571	C	0.192092	-0.053464	-0.019477
C572	C	0.172363	-0.030678	-0.022668
C573	C	0.193637	0.011923	-0.024266
C574	C	0.234639	0.031737	-0.022674
C575	C	0.254370	0.008951	-0.019482
C576	C	0.233097	-0.033650	-0.017884
H577	H	0.142009	-0.045345	-0.023847
H578	H	0.179030	0.028791	-0.026628
H579	H	0.250387	0.063273	-0.023857
H580	H	0.284724	0.023618	-0.018303
H581	H	0.247703	-0.050518	-0.015522
C582	C	0.021179	-0.443188	0.303401
C583	C	-0.015917	-0.447507	0.297461
C584	C	-0.036501	-0.468660	0.276865
C585	C	-0.019988	-0.485493	0.262209
C586	C	0.017110	-0.481174	0.268150
C587	C	0.037693	-0.460021	0.288746
H588	H	-0.028142	-0.435046	0.308309
H589	H	-0.063963	-0.471857	0.272467
H590	H	-0.035225	-0.501151	0.246963
H591	H	0.029335	-0.493635	0.257301
H592	H	0.065155	-0.456824	0.293143
C593	C	0.073193	-0.172697	0.474321
C594	C	0.040187	-0.219805	0.488048
C595	C	-0.000820	-0.239625	0.509453
C596	C	-0.008820	-0.212338	0.517133
C597	C	0.024187	-0.165227	0.503406
C598	C	0.065193	-0.145407	0.482000
H599	H	0.046108	-0.240007	0.482363
H600	H	-0.025254	-0.274499	0.519615
H601	H	-0.039176	-0.227010	0.532978
H602	H	0.018265	-0.145025	0.509090
H603	H	0.089627	-0.110533	0.471839
H604	H	-0.263389	-0.167483	-0.184010
C605	C	0.110856	-0.216127	-0.013367
C606	C	0.127512	-0.217318	-0.044348
C607	C	0.106229	-0.259921	-0.042747
C608	C	0.068290	-0.301331	-0.010166
C609	C	0.051631	-0.300142	0.020817
C610	C	0.072914	-0.257539	0.019217
H611	H	0.155599	-0.186662	-0.068469
H612	H	0.118561	-0.260801	-0.065683
H613	H	0.052535	-0.332868	-0.008981
H614	H	0.023544	-0.330798	0.044938
H615	H	0.060582	-0.256659	0.042153
C616	C	0.139779	0.007727	0.303415
C617	C	0.160653	-0.012869	0.324281
C618	C	0.202399	0.008290	0.303684
C619	C	0.223270	0.050044	0.262220
C620	C	0.202396	0.070642	0.241351
C621	C	0.160650	0.049484	0.261948
H622	H	0.145203	-0.043781	0.354978
H623	H	0.217852	-0.006959	0.319133
H624	H	0.254173	0.065707	0.246972
H625	H	0.217846	0.101554	0.210655
H626	H	0.145197	0.064732	0.246500
C627	C	0.324996	0.377416	-0.108612
C628	C	0.338725	0.358143	-0.122719
C629	C	0.360129	0.338538	-0.101532
C630	C	0.367804	0.338207	-0.066239
C631	C	0.354074	0.357481	-0.052130
C632	C	0.332670	0.377086	-0.073317
H633	H	0.333044	0.358388	-0.148846
H634	H	0.370292	0.324270	-0.111976
H635	H	0.383649	0.323694	-0.050555
H636	H	0.359756	0.357236	-0.026003
H637	H	0.322507	0.391354	-0.062873
H638	H	-0.301517	-0.370654	0.468788
H639	H	0.115906	-0.333293	0.114186
H640	H	-0.268641	-0.102125	-0.114112
H641	H	0.409070	0.002538	-0.411370
H642	H	0.306414	-0.100124	-0.308708
C643	C	-0.173811	-0.622588	0.511724
C644	C	-0.191668	-0.671422	0.543893
C645	C	-0.212996	-0.691149	0.584895
C646	C	-0.216467	-0.662041	0.593726
C647	C	-0.198609	-0.613203	0.561556
C648	C	-0.177281	-0.593477	0.520554
H649	H	-0.189099	-0.692973	0.537357
H650	H	-0.226215	-0.727302	0.608709
H651	H	-0.232255	-0.676643	0.624078
H652	H	-0.201178	-0.591653	0.568092
H653	H	-0.164062	-0.557324	0.496740
C654	C	0.527978	0.112103	-0.474522
C655	C	0.549165	0.131703	-0.515527
C656	C	0.527837	0.111977	-0.536801
C657	C	0.485323	0.072651	-0.517072
C658	C	0.464133	0.053049	-0.476065
C659	C	0.485461	0.072775	-0.454790
H660	H	0.580639	0.160817	-0.530134
H661	H	0.543523	0.126488	-0.567157
H662	H	0.469535	0.058048	-0.532820
H663	H	0.432659	0.023935	-0.461458
H664	H	0.469775	0.058264	-0.424434
C665	C	0.229492	-0.219286	0.393334
C666	C	0.261659	-0.218098	0.410002
C667	C	0.302661	-0.175496	0.388726
C668	C	0.311496	-0.134082	0.350784
C669	C	0.279328	-0.135269	0.334114
C670	C	0.238327	-0.177871	0.355390
H671	H	0.255120	-0.248756	0.438091
H672	H	0.326473	-0.174617	0.401066
H673	H	0.341848	-0.102545	0.335034
H674	H	0.285868	-0.104611	0.306025
H675	H	0.214514	-0.178749	0.343050
C676	C	0.192084	-0.262787	0.355668
C677	C	0.233083	-0.220186	0.334391
C678	C	0.254487	-0.200371	0.293385
C679	C	0.234892	-0.223155	0.273656
C680	C	0.193890	-0.265758	0.294932
C681	C	0.172486	-0.285574	0.335938
H682	H	0.247591	-0.203318	0.348996
H683	H	0.284840	-0.168833	0.277635
H684	H	0.250736	-0.208486	0.243300
H685	H	0.179382	-0.282627	0.280327
H686	H	0.142133	-0.317112	0.351688
H687	H	0.248785	-0.167507	-0.365770
C688	C	0.229494	-0.219280	0.108418
C689	C	0.261662	-0.218093	0.090569
C690	C	0.302664	-0.175492	0.069245
C691	C	0.311499	-0.134078	0.065771
C692	C	0.279330	-0.135264	0.083621
C693	C	0.238327	-0.177865	0.104945
H694	H	0.255123	-0.248751	0.093140
H695	H	0.326478	-0.174615	0.056032
H696	H	0.341851	-0.102543	0.049986
H697	H	0.285869	-0.104606	0.081050
H698	H	0.214514	-0.178742	0.118159
C699	C	-0.301948	-0.262831	0.355203
C700	C	-0.268582	-0.215757	0.322130
C701	C	-0.270185	-0.196079	0.281129
C702	C	-0.305154	-0.223475	0.273200
C703	C	-0.338523	-0.270552	0.306273
C704	C	-0.336920	-0.290229	0.347275
H705	H	-0.242694	-0.195474	0.327999
H706	H	-0.245483	-0.161230	0.256645
H707	H	-0.306340	-0.208909	0.242848
H708	H	-0.364411	-0.290834	0.300404
H709	H	-0.361622	-0.325079	0.371758
H710	H	-0.263381	0.116983	-0.365746
H711	H	-0.301513	-0.370626	0.184102
H712	H	0.186521	-0.267927	0.184078
H713	H	0.248818	0.629422	-0.366235
C714	C	-0.269060	0.186931	-0.392503
C715	C	-0.304030	0.187250	-0.384831
C716	C	-0.305626	0.206843	-0.363422
C717	C	-0.272253	0.226117	-0.349685
C718	C	-0.237281	0.225799	-0.357358
C719	C	-0.235684	0.206206	-0.378767
H720	H	-0.328736	0.172982	-0.394999
H721	H	-0.331515	0.207078	-0.357742
H722	H	-0.273436	0.240621	-0.333837
H723	H	-0.212574	0.240068	-0.347189
H724	H	-0.209795	0.205971	-0.384446
H725	H	0.116391	-0.205131	0.501074
H726	H	0.603615	-0.332819	0.013867
C727	C	0.229758	-0.097026	0.392581
C728	C	0.238523	-0.091624	0.354609
C729	C	0.279527	-0.071809	0.333199
C730	C	0.311765	-0.057395	0.349763
C731	C	0.303000	-0.062797	0.387737
C732	C	0.261997	-0.082612	0.409146
H733	H	0.214658	-0.102294	0.342345
H734	H	0.286014	-0.067810	0.305088
H735	H	0.342118	-0.042727	0.333915
H736	H	0.326866	-0.052127	0.400000
H737	H	0.255509	-0.086611	0.437258
H738	H	-0.296250	-0.617740	0.398886
H739	H	0.603638	0.182088	-0.501538
H740	H	0.186565	0.116974	-0.019049
H741	H	0.603389	0.666503	-0.398071
H742	H	0.603870	0.182306	-0.398824
C743	C	-0.269057	-0.096951	-0.512168
C744	C	-0.235686	-0.049840	-0.545181
C745	C	-0.237284	-0.030027	-0.586184
C746	C	-0.272253	-0.057325	-0.594175
C747	C	-0.305627	-0.104440	-0.561162
C748	C	-0.304029	-0.124253	-0.520158
H749	H	-0.209797	-0.029629	-0.539266
H750	H	-0.212578	0.004850	-0.610622
H751	H	-0.273436	-0.042659	-0.624528
H752	H	-0.331516	-0.124650	-0.567076
H753	H	-0.328734	-0.159130	-0.495720
H754	H	0.219104	0.181831	-0.013788
H755	H	0.026279	-0.100440	0.411431
H756	H	-0.263393	0.117204	-0.468685
H757	H	0.319436	0.769951	-0.501490
C758	C	0.362410	-0.262798	0.019538
C759	C	0.383817	-0.220201	0.017943
C760	C	0.424819	-0.200528	0.019544
C761	C	0.444413	-0.223451	0.022739
C762	C	0.423005	-0.266049	0.024335
C763	C	0.382003	-0.285723	0.022734
H764	H	0.369313	-0.203230	0.015578
H765	H	0.440666	-0.168993	0.018363
H766	H	0.474764	-0.208887	0.023924
H767	H	0.437509	-0.283020	0.026700
H768	H	0.366156	-0.317258	0.023915
H769	H	-0.263379	-0.064518	-0.468977
C770	C	-0.173550	-0.622340	0.392581
C771	C	-0.176919	-0.593134	0.354611
C772	C	-0.198111	-0.612728	0.333203
C773	C	-0.215933	-0.661530	0.349766
C774	C	-0.212564	-0.690739	0.387738
C775	C	-0.191372	-0.671144	0.409146
H776	H	-0.163726	-0.557005	0.342348
H777	H	-0.200604	-0.591105	0.305094
H778	H	-0.231620	-0.676035	0.333919
H779	H	-0.225757	-0.726868	0.400001
H780	H	-0.188879	-0.692768	0.437256
H781	H	-0.296257	-0.332820	0.113979
C782	C	0.528240	0.112350	-0.355625
C783	C	0.549565	0.132074	-0.334350
C784	C	0.528375	0.112472	-0.293344
C785	C	0.485860	0.073147	-0.273613
C786	C	0.464533	0.053421	-0.294889
C787	C	0.485723	0.073022	-0.335895
H788	H	0.581039	0.161187	-0.348956
H789	H	0.544163	0.127075	-0.277595
H790	H	0.470174	0.058637	-0.243258
H791	H	0.433059	0.024308	-0.280283
H792	H	0.469934	0.058419	-0.351644
C793	C	0.527985	-0.381689	0.019539
C794	C	0.485471	-0.404608	0.022727
C795	C	0.464281	-0.447202	0.024315
C796	C	0.485606	-0.466878	0.022716
C797	C	0.528122	-0.443959	0.019528
C798	C	0.549312	-0.401365	0.017940
H799	H	0.469684	-0.390042	0.023911
H800	H	0.432808	-0.464167	0.026675
H801	H	0.469920	-0.498408	0.023892
H802	H	0.543910	-0.458525	0.018344
H803	H	0.580786	-0.384400	0.015580
H804	H	0.351509	-0.064801	-0.184033
C805	C	-0.269063	-0.216110	-0.393274
C806	C	-0.304032	-0.259010	-0.385698
C807	C	-0.305630	-0.301611	-0.364424
C808	C	-0.272259	-0.301313	-0.350727
C809	C	-0.237287	-0.258412	-0.358303
C810	C	-0.235689	-0.215810	-0.379576
H811	H	-0.328738	-0.259232	-0.395838
H812	H	-0.331519	-0.333370	-0.358816
H813	H	-0.273442	-0.332849	-0.334979
H814	H	-0.212582	-0.258189	-0.348162
H815	H	-0.209801	-0.184051	-0.385184
H816	H	-0.263370	-0.064534	-0.184235
C817	C	0.324498	-0.097489	-0.108374
C818	C	0.362437	-0.092129	-0.104901
C819	C	0.383716	-0.072449	-0.083579
C820	C	0.367055	-0.058130	-0.065729
C821	C	0.329113	-0.063490	-0.069201
C822	C	0.307835	-0.083169	-0.090524
H823	H	0.374773	-0.102729	-0.118115
H824	H	0.411803	-0.068482	-0.081008
H825	H	0.382806	-0.043562	-0.049945
H826	H	0.316778	-0.052889	-0.055988
H827	H	0.279748	-0.087137	-0.093094
H828	H	-0.263383	-0.167466	-0.366257
H829	H	0.306165	-0.437946	0.028878
C830	C	-0.269062	-0.216133	-0.108350
C831	C	-0.304028	-0.259036	-0.073023
C832	C	-0.305625	-0.301637	-0.051701
C833	C	-0.272256	-0.301335	-0.065705
C834	C	-0.237286	-0.258431	-0.101033
C835	C	-0.235689	-0.215830	-0.122355
H836	H	-0.328733	-0.259261	-0.062655
H837	H	-0.331512	-0.333398	-0.025549
H838	H	-0.273438	-0.332871	-0.049921
H839	H	-0.212582	-0.258206	-0.111401
H840	H	-0.209802	-0.184069	-0.148507
C841	C	0.229756	0.186908	0.108698
C842	C	0.238530	0.157712	0.105323
C843	C	0.279536	0.177318	0.084131
C844	C	0.311769	0.226119	0.066314
C845	C	0.302996	0.255318	0.069689
C846	C	0.261990	0.235713	0.090880
H847	H	0.214668	0.121584	0.118513
H848	H	0.286030	0.155703	0.081634
H849	H	0.342124	0.240633	0.050627
H850	H	0.326858	0.291447	0.056499
H851	H	0.255496	0.257328	0.093378
C852	C	-0.311429	-0.443470	0.303433
C853	C	-0.344774	-0.491472	0.319948
C854	C	-0.345347	-0.512637	0.299363
C855	C	-0.312574	-0.485799	0.262264
C856	C	-0.279226	-0.437794	0.245747
C857	C	-0.278653	-0.416629	0.266332
H858	H	-0.369037	-0.511342	0.347412
H859	H	-0.370034	-0.548173	0.311590
H860	H	-0.312998	-0.501466	0.247026
H861	H	-0.254963	-0.417924	0.218283
H862	H	-0.253967	-0.381093	0.254105
H863	H	-0.098173	-0.167834	0.469060
H864	H	0.408824	-0.437951	0.028886
C865	C	0.110853	0.187145	0.108445
C866	C	0.127514	0.235976	0.090599
C867	C	0.106235	0.255702	0.069279
C868	C	0.068296	0.226597	0.065804
C869	C	0.051633	0.177764	0.083650
C870	C	0.072912	0.158038	0.104971
H871	H	0.155600	0.257523	0.093171
H872	H	0.118570	0.291852	0.056067
H873	H	0.052544	0.241199	0.050021
H874	H	0.023547	0.156216	0.081079
H875	H	0.060577	0.121888	0.118182
H876	H	0.083591	-0.370878	0.184307
C877	C	0.295315	0.556589	-0.303330
C878	C	0.274437	0.514834	-0.261866
C879	C	0.232685	0.493667	-0.241282
C880	C	0.211810	0.514256	-0.262161
C881	C	0.232687	0.556014	-0.303626
C882	C	0.274440	0.577181	-0.324211
H883	H	0.289890	0.499590	-0.246409
H884	H	0.217230	0.462755	-0.210586
H885	H	0.180902	0.498587	-0.246923
H886	H	0.217235	0.571258	-0.319084
H887	H	0.289895	0.608093	-0.354907
C888	C	-0.295854	-0.219076	0.392615
C889	C	-0.263280	-0.177734	0.354646
C890	C	-0.261685	-0.135135	0.333240
C891	C	-0.292665	-0.133877	0.349803
C892	C	-0.325241	-0.175221	0.387775
C893	C	-0.326836	-0.217820	0.409181
H894	H	-0.240345	-0.178663	0.342383
H895	H	-0.237570	-0.104529	0.305131
H896	H	-0.291484	-0.102343	0.333957
H897	H	-0.348176	-0.174291	0.400038
H898	H	-0.350951	-0.248425	0.437290
H899	H	-0.097924	-0.552391	0.365822
H900	H	0.408823	0.664762	-0.411337
H901	H	0.083840	0.117149	0.184102
H902	H	-0.098398	-0.065110	0.366345
C903	C	0.414169	0.556590	-0.303333
C904	C	0.455634	0.577182	-0.324206
C905	C	0.476219	0.556013	-0.303619
C906	C	0.455338	0.514253	-0.262158
C907	C	0.413870	0.493658	-0.241282
C908	C	0.393285	0.514827	-0.261870
H909	H	0.471093	0.608098	-0.354900
H910	H	0.506916	0.571259	-0.319073
H911	H	0.470576	0.498582	-0.246918
H912	H	0.398411	0.462743	-0.210588
H913	H	0.362588	0.499582	-0.246416
H914	H	0.351755	0.447376	-0.184238
H915	H	0.533271	0.628919	-0.365751
H916	H	0.248823	0.447166	-0.184003
C917	C	0.205855	-0.622843	0.013443
C918	C	0.197926	-0.623196	-0.021527
C919	C	0.156925	-0.642923	-0.023127
C920	C	0.123852	-0.662297	0.010242
C921	C	0.131781	-0.661944	0.045215
C922	C	0.172782	-0.642217	0.046816
H923	H	0.222409	-0.608854	-0.046232
H924	H	0.151056	-0.643185	-0.049017
H925	H	0.093501	-0.676900	0.009058
H926	H	0.107297	-0.676286	0.069920
H927	H	0.178651	-0.641956	0.072705
H928	H	0.216504	0.382295	-0.113880
H929	H	0.026279	0.002283	-0.028803
C930	C	0.229761	-0.096964	-0.013390
C931	C	0.237763	-0.124254	0.021575
C932	C	0.278771	-0.104436	0.023159
C933	C	0.311776	-0.057326	-0.010222
C934	C	0.303774	-0.030033	-0.045190
C935	C	0.262767	-0.049851	-0.046774
H936	H	0.213330	-0.159130	0.046288
H937	H	0.284694	-0.124641	0.049044
H938	H	0.342132	-0.042655	-0.009050
H939	H	0.328207	0.004843	-0.069903
H940	H	0.256844	-0.029647	-0.072659
H941	H	0.026279	-0.100376	-0.028805
H942	H	0.128938	0.002286	-0.028807
H943	H	0.116387	0.182045	-0.013770
H944	H	0.083843	0.117187	-0.019035
H945	H	-0.098172	-0.064542	-0.019042
H946	H	0.408826	-0.335288	0.028878
H947	H	0.533269	-0.267911	0.019132
H948	H	0.351756	-0.552648	0.019136
H949	H	0.319438	-0.617506	0.013877
H950	H	0.248822	-0.552861	0.019121
H951	H	-0.098149	-0.552608	0.468758
H952	H	0.129182	-0.335033	0.308750
H953	H	-0.311282	-0.335313	0.308784
H954	H	-0.311273	-0.437972	0.411440
