data_functionalizedCrystal
_audit_creation_method	'MofGen! by Chris Wilmer'
_symmetry_space_group_name_H-M	'P1'
_symmetry_Int_Tables_number	1
_symmetry_cell_setting	triclinic
loop_
_symmetry_equiv_pos_as_xyz
  x,y,z
_cell_length_a	14.971486
_cell_length_b	10.489741
_cell_length_c	14.048226
_cell_angle_alpha	89.993872
_cell_angle_beta	89.998499
_cell_angle_gamma	84.076651
loop_
_atom_site_label
_atom_site_type_symbol
_atom_site_fract_x
_atom_site_fract_y
_atom_site_fract_z
O1	O	1.187893	0.166222	-0.079050
O2	O	0.927606	0.186127	-0.079076
O3	O	1.063672	-0.009492	-0.079057
O4	O	1.051827	0.361841	-0.079070
O5	O	1.063656	-0.009503	0.079264
O6	O	0.927590	0.186116	0.079245
O7	O	1.187876	0.166211	0.079271
Zn8	Zn	1.057730	0.176161	0.104395
Zn9	Zn	1.057752	0.176177	-0.104200
O10	O	1.051810	0.361830	0.079252
C11	C	0.894268	0.185232	0.000081
C12	C	0.794956	0.182564	0.000071
C13	C	0.738385	0.297485	0.000069
C14	C	0.645071	0.294971	0.000083
C15	C	0.608330	0.177534	0.000093
C16	C	0.664909	0.062604	0.000098
C17	C	0.758221	0.065120	0.000091
C18	C	0.470416	0.057369	0.000112
C19	C	0.377098	0.054853	0.000117
C20	C	0.357267	0.287220	0.000104
C21	C	0.450579	0.289736	0.000096
C22	C	0.507151	0.174805	0.000100
C23	C	1.062769	-0.057019	0.000103
C24	C	1.060093	-0.198617	0.000101
C25	C	0.973518	-0.265755	0.000085
C26	C	1.014407	-0.358357	0.078150
C27	C	1.014444	-0.358320	-0.077942
C28	C	1.101017	-0.289354	0.078230
C29	C	1.101042	-0.289308	-0.077933
C30	C	1.141994	-0.381882	0.000151
C31	C	1.221215	0.167106	0.000111
C32	C	1.320527	0.169774	0.000115
C33	C	1.052713	0.409357	0.000090
C34	C	1.055390	0.550955	0.000085
N35	N	1.057722	0.176150	0.246755
N36	N	1.057768	0.176178	-0.246561
C37	C	1.117991	0.089566	0.296582
C38	C	1.117997	0.089565	0.396240
C39	C	1.057738	0.176156	0.446069
C40	C	0.997462	0.262744	0.396235
C41	C	0.997452	0.262738	0.296580
C42	C	0.997488	0.262754	0.603950
C43	C	0.997498	0.262762	0.703612
C44	C	1.118033	0.089581	0.703610
C45	C	1.118023	0.089574	0.603954
C46	C	1.057748	0.176165	0.554127
H47	H	0.311201	0.380801	0.000105
H48	H	0.768291	0.393115	0.000060
H49	H	0.902336	-0.215280	0.000157
C50	C	0.634841	0.524903	0.000056
C51	C	0.582887	0.421296	0.000076
H52	H	0.596450	0.602893	0.000047
H53	H	0.671651	0.521052	0.055258
H54	H	0.671647	0.521039	-0.055163
H55	H	0.546086	0.425154	0.055298
H56	H	0.546062	0.425149	-0.055132
H57	H	0.977808	-0.388855	-0.143946
H58	H	1.167073	0.019061	0.436808
H59	H	0.480489	0.385363	0.000079
C60	C	1.299758	-0.357912	0.001055
C61	C	1.238175	-0.449708	0.000228
H62	H	1.359135	-0.399784	0.001115
H63	H	1.291160	-0.305318	-0.053898
H64	H	1.290751	-0.306393	0.056519
H65	H	1.247177	-0.501222	-0.055240
H66	H	1.246776	-0.502324	0.055186
C67	C	1.237128	-0.081624	0.306600
C68	C	1.184230	-0.005622	0.241814
H69	H	1.278016	-0.140397	0.272788
H70	H	1.269644	-0.028451	0.345455
H71	H	1.199595	-0.127584	0.345483
H72	H	1.221762	0.040346	0.202936
H73	H	1.151712	-0.058801	0.202943
C74	C	1.169169	-0.131116	0.734291
C75	C	1.184292	-0.005605	0.758369
H76	H	1.210081	-0.189871	0.768095
H77	H	1.109399	-0.145113	0.750641
H78	H	1.177786	-0.143487	0.667806
H79	H	1.175669	0.006769	0.824853
H80	H	1.244076	0.008397	0.742025
H81	H	0.948428	0.333272	0.744178
C82	C	1.136025	-0.084248	0.492179
C83	C	1.184146	-0.005917	0.549309
H84	H	1.176813	-0.143289	0.458480
H85	H	1.098393	-0.129893	0.531159
H86	H	1.100244	-0.032683	0.448143
H87	H	1.219922	-0.057482	0.593350
H88	H	1.221794	0.039731	0.510325
H89	H	0.347187	-0.040774	0.000127
H90	H	0.948402	0.333261	0.563384
H91	H	0.516476	-0.036219	0.000116
C92	C	0.571481	-0.075023	-0.081279
C93	C	0.624526	-0.066486	0.000107
H94	H	0.546558	-0.154724	-0.081277
H95	H	0.524438	-0.006948	-0.081273
H96	H	0.607480	-0.069207	-0.136484
H97	H	0.588526	-0.072293	0.055312
H98	H	0.671576	-0.134580	0.000109
C99	C	0.875931	0.290138	0.508332
C100	C	0.931224	0.357925	0.451010
H101	H	0.835044	0.348904	0.542150
H102	H	0.843414	0.236978	0.469467
H103	H	0.911839	0.238576	0.552264
H104	H	0.895316	0.409480	0.407073
H105	H	0.963743	0.411106	0.489879
H106	H	0.948374	0.333242	0.256012
C107	C	0.803863	-0.132151	-0.081298
C108	C	0.820411	-0.061202	0.000086
H109	H	0.842261	-0.210134	-0.081299
H110	H	0.743040	-0.150457	-0.081286
H111	H	0.815080	-0.083983	-0.136504
H112	H	0.809187	-0.109367	0.055293
H113	H	0.881247	-0.042900	0.000082
C114	C	0.876733	-0.340472	0.167086
C115	C	0.964950	-0.399668	0.167233
H116	H	0.846197	-0.365980	0.222077
H117	H	0.877606	-0.250063	0.167438
H118	H	0.846565	-0.365247	0.111646
H119	H	0.995120	-0.374885	0.222670
H120	H	0.964082	-0.490097	0.166890
C121	C	1.178345	-0.356594	0.222297
C122	C	1.150417	-0.248324	0.167428
H123	H	1.208844	-0.331260	0.277359
H124	H	1.127462	-0.397656	0.240942
H125	H	1.217681	-0.414284	0.185801
H126	H	1.111075	-0.190638	0.203921
H127	H	1.201307	-0.207242	0.148783
H128	H	1.137650	-0.258682	-0.143927
