data_functionalizedCrystal
_audit_creation_method	'MofGen! by Chris Wilmer'
_symmetry_space_group_name_H-M	'P1'
_symmetry_Int_Tables_number	1
_symmetry_cell_setting	triclinic
loop_
_symmetry_equiv_pos_as_xyz
  x,y,z
_cell_length_a	16.109293
_cell_length_b	16.109301
_cell_length_c	15.186229
_cell_angle_alpha	90.005167
_cell_angle_beta	90.006769
_cell_angle_gamma	83.459876
loop_
_atom_site_label
_atom_site_type_symbol
_atom_site_fract_x
_atom_site_fract_y
_atom_site_fract_z
O1	O	-1.103135	-0.106835	-0.073301
O2	O	-0.861072	-0.120141	-0.073288
O3	O	-0.988753	0.007543	-0.073286
O4	O	-0.975454	-0.234519	-0.073303
O5	O	-0.988744	0.007545	0.073172
O6	O	-0.861063	-0.120139	0.073169
O7	O	-1.103126	-0.106833	0.073156
Zn8	Zn	-0.982093	-0.113486	0.096416
Zn9	Zn	-0.982105	-0.113488	-0.096548
O10	O	-0.975445	-0.234517	0.073154
C11	C	-0.830093	-0.119602	-0.000057
C12	C	-0.737797	-0.117990	-0.000052
C13	C	-0.525451	-0.114260	0.079779
C14	C	-0.438730	-0.112736	0.079779
C15	C	-0.438750	-0.112742	-0.079897
C16	C	-0.525469	-0.114260	-0.079896
C17	C	-0.568817	-0.115024	-0.000055
C18	C	-0.395377	-0.111981	-0.000057
C19	C	-0.301351	-0.110329	-0.000058
C20	C	-0.662849	-0.116675	-0.000053
C21	C	-0.988210	0.038519	-0.000057
C22	C	-0.986595	0.130814	-0.000055
C23	C	-0.134104	-0.107380	-0.000069
C24	C	-0.226397	-0.109015	-0.000060
C25	C	-0.975988	-0.265493	-0.000077
C26	C	-0.977603	-0.357788	-0.000084
C27	C	-1.058603	0.353089	-0.000073
C28	C	-1.057079	0.439809	-0.000080
C29	C	-0.905589	0.419930	-0.000069
C30	C	-0.907114	0.333212	-0.000068
C31	C	-0.983624	0.299793	-0.000066
C32	C	-0.980575	0.473232	-0.000074
C33	C	-0.978921	0.567258	-0.000081
C34	C	-0.985277	0.205761	-0.000059
N35	N	-0.982092	-0.113484	0.228109
N36	N	-0.982113	-0.113484	-0.228240
C37	C	-1.038648	-0.056964	0.453833
C38	C	-1.038651	-0.056962	0.546022
C39	C	-0.925550	-0.170006	0.546030
C40	C	-0.925544	-0.170003	0.453842
C41	C	-0.982098	-0.113483	0.407745
C42	C	-0.982107	-0.113484	0.592123
C43	C	-0.982109	-0.113482	0.692079
C44	C	-0.982095	-0.113484	0.307783
H45	H	-0.403446	-0.112122	-0.144901
H46	H	-1.084696	-0.010941	0.416303
H47	H	-0.560742	-0.114882	0.144791
H48	H	-1.084698	-0.010938	0.583544
C49	C	-0.822587	0.456332	-0.000199
C50	C	-0.817296	0.505549	-0.075534
C51	C	-0.740850	0.539102	-0.075675
H52	H	-0.778077	0.412256	-0.000241
H53	H	-0.818836	0.489798	0.050849
H54	H	-0.821039	0.472085	-0.126569
H55	H	-0.861788	0.549638	-0.075508
H56	H	-0.737099	0.572568	-0.024627
H57	H	-0.696346	0.495021	-0.075715
H58	H	-0.737253	0.572506	-0.126785
C59	C	-0.391790	-0.111956	0.166549
C60	C	-0.448314	-0.112969	0.236465
C61	C	-0.405103	-0.112260	0.316414
H62	H	-0.364312	-0.062921	0.169997
H63	H	-0.351620	-0.159836	0.169912
H64	H	-0.488470	-0.065093	0.233103
H65	H	-0.475795	-0.162000	0.233046
H66	H	-0.364933	-0.160141	0.319777
H67	H	-0.377627	-0.063225	0.319853
H68	H	-0.443447	-0.112956	0.363861
H69	H	-0.879507	-0.216025	0.583570
H70	H	-0.846053	0.289816	-0.000064
C71	C	-1.141752	0.316966	-0.000128
C72	C	-1.207088	0.382205	-0.000163
C73	C	-1.283698	0.348964	-0.000230
H74	H	-1.145619	0.283567	0.050929
H75	H	-1.145538	0.283570	-0.051223
H76	H	-1.203304	0.415587	0.050927
H77	H	-1.203249	0.415610	-0.051217
H78	H	-1.287485	0.315568	-0.051325
H79	H	-1.287557	0.315565	0.050828
H80	H	-1.328038	0.393223	-0.000262
H81	H	-0.879490	-0.216029	0.416315
C82	C	-1.138396	0.497811	-0.000133
C83	C	-1.120691	0.580909	-0.000162
C84	C	-1.195583	0.634364	-0.000225
H85	H	-1.169827	0.487798	0.050924
H86	H	-1.169775	0.487722	-0.051228
H87	H	-1.089326	0.590994	0.050928
H88	H	-1.089272	0.590948	-0.051215
H89	H	-1.226961	0.624275	-0.051320
H90	H	-1.227008	0.624344	0.050833
H91	H	-1.183580	0.690752	-0.000252
C92	C	-0.572493	-0.115262	-0.166606
C93	C	-0.542048	-0.186393	-0.214766
C94	C	-0.585354	-0.187346	-0.294637
H95	H	-0.564669	-0.066618	-0.199514
H96	H	-0.630350	-0.116318	-0.155205
H97	H	-0.484205	-0.185329	-0.226169
H98	H	-0.549873	-0.235048	-0.181884
H99	H	-0.643212	-0.188402	-0.283237
H100	H	-0.577527	-0.138699	-0.327537
H101	H	-0.564709	-0.235611	-0.327320
