data_functionalizedCrystal
_audit_creation_method	'MofGen! by Chris Wilmer'
_symmetry_space_group_name_H-M	'P1'
_symmetry_Int_Tables_number	1
_symmetry_cell_setting	triclinic
loop_
_symmetry_equiv_pos_as_xyz
  x,y,z
_cell_length_a	12.827893
_cell_length_b	12.827892
_cell_length_c	12.827885
_cell_angle_alpha	90.029786
_cell_angle_beta	89.980728
_cell_angle_gamma	89.984638
loop_
_atom_site_label
_atom_site_type_symbol
_atom_site_fract_x
_atom_site_fract_y
_atom_site_fract_z
Zn1	Zn	1.597670	0.415983	-0.590849
Zn2	Zn	2.097670	0.915983	-0.090849
Zn3	Zn	1.597564	0.590761	-0.416109
Zn4	Zn	2.097564	1.090761	0.083891
Zn5	Zn	1.422911	0.416034	-0.416122
Zn6	Zn	1.922911	0.916034	0.083878
Zn7	Zn	1.422896	0.590683	-0.590809
Zn8	Zn	1.922896	1.090683	-0.090809
O9	O	1.510260	0.503365	-0.503472
O10	O	2.010260	1.003365	-0.003472
O11	O	1.743892	0.439179	-0.567680
O12	O	2.243892	0.939179	-0.067680
O13	O	1.574357	0.567637	-0.269875
O14	O	2.074357	1.067637	0.230125
O15	O	1.446144	0.269791	-0.439322
O16	O	1.946144	0.769791	0.060678
O17	O	1.743814	0.567587	-0.439300
O18	O	2.243814	1.067587	0.060700
O19	O	1.574538	0.269754	-0.567693
O20	O	2.074538	0.769754	-0.067693
O21	O	1.446041	0.439266	-0.269884
O22	O	1.946041	0.939266	0.230116
O23	O	1.276673	0.439190	-0.439284
O24	O	1.776673	0.939190	0.060716
O25	O	1.446118	0.567455	-0.737050
O26	O	1.946118	1.067455	-0.237050
O27	O	1.276662	0.567504	-0.567625
O28	O	1.776662	1.067504	-0.067625
O29	O	1.574524	0.439104	-0.737080
O30	O	2.074524	0.939104	-0.237080
O31	O	1.574343	0.736986	-0.439261
O32	O	2.074343	1.236986	0.060739
O33	O	1.446016	0.736929	-0.567612
O34	O	1.946016	1.236929	-0.067612
C35	C	1.238750	0.503345	-0.503452
C36	C	1.738750	1.003345	-0.003452
C37	C	1.122597	0.503362	-0.503469
C38	C	1.622597	1.003362	-0.003469
C39	C	1.070835	0.566954	-0.566878
C40	C	1.570835	1.066954	-0.066878
C41	C	0.950784	0.566973	-0.566896
C42	C	1.450784	1.066973	-0.066896
C43	C	1.510195	0.774875	-0.503454
C44	C	2.010195	1.274875	-0.003454
C45	C	1.510262	0.891028	-0.503481
C46	C	2.010262	1.391028	-0.003481
C47	C	1.510354	0.230795	-0.503514
C48	C	2.010354	0.730795	-0.003514
C49	C	1.510394	0.114642	-0.503531
C50	C	2.010394	0.614642	-0.003531
C51	C	1.782830	0.503386	-0.503493
C52	C	2.282830	1.003386	-0.003493
C53	C	1.898983	0.503395	-0.503502
C54	C	2.398983	1.003395	-0.003502
C55	C	1.573838	0.942807	-0.440039
C56	C	2.073838	1.442807	0.059961
C57	C	1.573910	1.062857	-0.440066
C58	C	2.073910	1.562857	0.059934
C59	C	1.510331	0.503265	-0.776043
C60	C	2.010331	1.003265	-0.276043
C61	C	1.510362	0.503222	-0.892196
C62	C	2.010362	1.003222	-0.392196
C63	C	1.573907	0.439697	-0.943995
C64	C	2.073907	0.939697	-0.443995
C65	C	1.573940	0.439652	-1.064045
C66	C	2.073940	0.939652	-0.564045
C67	C	1.510249	0.503390	-0.231962
C68	C	2.010249	1.003390	0.268038
C69	C	1.510422	0.503138	-0.115810
C70	C	2.010422	1.003138	0.384190
H71	H	0.943491	0.448952	-0.449208
H72	H	1.443491	0.948952	0.050792
H73	H	1.078036	0.448927	-0.449199
H74	H	1.578036	0.948927	0.050801
O75	O	1.638796	0.374619	-1.117063
O76	O	2.138796	0.874619	-0.617063
C77	C	1.615990	0.270450	-1.090501
C78	C	2.115990	0.770450	-0.590501
H79	H	1.575867	0.268241	-1.011225
H80	H	2.075867	0.768241	-0.511225
H81	H	1.691427	0.223594	-1.086887
H82	H	2.191427	0.723594	-0.586887
H83	H	1.562237	0.235282	-1.151910
H84	H	2.062237	0.735282	-0.651910
H85	H	1.628220	0.898262	-0.385708
H86	H	2.128220	1.398262	0.114292
H87	H	1.628336	1.107385	-0.385748
H88	H	2.128336	1.607385	0.114252
O89	O	1.445604	1.061488	-0.568447
O90	O	1.945604	1.561488	-0.068447
C91	C	1.505083	0.998230	-0.635904
C92	C	2.005083	1.498230	-0.135904
H93	H	1.587374	1.031112	-0.642468
H94	H	2.087374	1.531112	-0.142468
H95	H	1.467245	0.996855	-0.716291
H96	H	1.967245	1.496855	-0.216291
H97	H	1.508726	0.915572	-0.603501
H98	H	2.008726	1.415572	-0.103501
O99	O	1.124102	0.631748	-0.631681
O100	O	1.624102	1.131748	-0.131681
C101	C	1.187256	0.572262	-0.699228
C102	C	1.687256	1.072262	-0.199228
H103	H	1.203489	0.493006	-0.662491
H104	H	1.703489	0.993006	-0.162491
H105	H	1.264056	0.614761	-0.713078
H106	H	1.764056	1.114761	-0.213078
H107	H	1.145295	0.560920	-0.776735
H108	H	1.645295	1.060920	-0.276735
O109	O	1.445243	0.944048	-0.568255
O110	O	1.945243	1.444048	-0.068255
C111	C	1.341061	0.917583	-0.545325
C112	C	1.841061	1.417583	-0.045325
H113	H	1.338796	0.838341	-0.505204
H114	H	1.838796	1.338341	-0.005204
H115	H	1.294156	0.913945	-0.620706
H116	H	1.794156	1.413945	-0.120706
H117	H	1.305987	0.979062	-0.491527
H118	H	1.805987	1.479062	0.008473
O119	O	1.638642	0.374805	-0.890765
O120	O	2.138642	0.874805	-0.390765
C121	C	1.579097	0.307367	-0.827653
C122	C	2.079097	0.807367	-0.327653
H123	H	1.499868	0.344234	-0.811401
H124	H	1.999868	0.844234	-0.311401
H125	H	1.621577	0.293470	-0.750860
H126	H	2.121577	0.793470	-0.250860
H127	H	1.567698	0.229867	-0.869661
H128	H	2.067698	0.729867	-0.369661
O129	O	1.445659	0.568078	-1.062564
O130	O	1.945659	1.068078	-0.562564
C131	C	1.505178	0.635560	-0.999445
C132	C	2.005178	1.135560	-0.499445
H133	H	1.584396	0.598700	-0.983216
H134	H	2.084396	1.098700	-0.483216
H135	H	1.462662	0.649521	-0.922642
H136	H	1.962662	1.149521	-0.422642
H137	H	1.516605	0.713026	-1.041436
H138	H	2.016605	1.213026	-0.541436
H139	H	1.455975	0.557567	-0.936725
H140	H	1.955975	1.057567	-0.436725
H141	H	0.906270	0.621420	-0.621181
H142	H	1.406270	1.121420	-0.121181
