data_functionalizedCrystal
_audit_creation_method	'MofGen! by Chris Wilmer'
_symmetry_space_group_name_H-M	'P1'
_symmetry_Int_Tables_number	1
_symmetry_cell_setting	triclinic
loop_
_symmetry_equiv_pos_as_xyz
  x,y,z
_cell_length_a	15.995350
_cell_length_b	14.853567
_cell_length_c	13.330367
_cell_angle_alpha	90.000844
_cell_angle_beta	90.003907
_cell_angle_gamma	83.563652
loop_
_atom_site_label
_atom_site_type_symbol
_atom_site_fract_x
_atom_site_fract_y
_atom_site_fract_z
O1	O	-1.111124	-0.116206	-0.083330
O2	O	-0.611124	0.383794	0.416670
O3	O	-0.867366	-0.130556	-0.083350
O4	O	-0.367366	0.369444	0.416650
O5	O	-0.995756	0.007858	-0.083342
O6	O	-0.495756	0.507858	0.416658
O7	O	-0.982734	-0.254619	-0.083337
O8	O	-0.482734	0.245381	0.416663
O9	O	-0.995738	0.007861	0.083505
O10	O	-0.495738	0.507861	0.583505
O11	O	-0.867347	-0.130553	0.083498
O12	O	-0.367347	0.369447	0.583498
O13	O	-1.111106	-0.116203	0.083517
O14	O	-0.611106	0.383797	0.583517
Cu15	Cu	-0.989225	-0.123377	0.098742
Cu16	Cu	-0.489225	0.376623	0.598742
Cu17	Cu	-0.989247	-0.123381	-0.098574
Cu18	Cu	-0.489247	0.376619	0.401426
O19	O	-0.982715	-0.254616	0.083510
O20	O	-0.482715	0.245384	0.583510
C21	C	-0.836161	-0.129961	0.000071
C22	C	-0.336161	0.370039	0.500071
C23	C	-0.743209	-0.128182	0.000064
C24	C	-0.243209	0.371818	0.500064
C25	C	-0.995157	0.041447	0.000078
C26	C	-0.495157	0.541447	0.500078
C27	C	-0.993389	0.141528	0.000069
C28	C	-0.493389	0.641528	0.500069
C29	C	-1.142311	-0.116798	0.000094
C30	C	-0.642311	0.383202	0.500094
C31	C	-1.235263	-0.118576	0.000095
C32	C	-0.735263	0.381424	0.500095
C33	C	-0.405454	-0.121795	0.000084
C34	C	0.094546	0.378205	0.500084
C35	C	-0.452773	-0.023220	0.000455
C36	C	0.047227	0.476780	0.500455
C37	C	-0.549465	-0.024999	0.000072
C38	C	-0.049465	0.475001	0.500072
C39	C	-0.573018	-0.124963	0.000075
C40	C	-0.073018	0.375037	0.500075
C41	C	-0.531998	-0.173586	-0.095198
C42	C	-0.031998	0.326414	0.404802
C43	C	-0.435359	-0.171110	-0.095271
C44	C	0.064641	0.328890	0.404729
C45	C	-0.435002	-0.173143	0.094465
C46	C	0.064998	0.326857	0.594465
C47	C	-0.531947	-0.173119	0.095717
C48	C	-0.031947	0.326881	0.595717
C49	C	-0.667717	-0.126759	0.000066
C50	C	-0.167717	0.373241	0.500066
C51	C	-0.310754	-0.120002	0.000086
C52	C	0.189246	0.379998	0.500086
C53	C	-0.983315	-0.288206	0.000087
C54	C	-0.483315	0.211794	0.500087
C55	C	-0.985083	-0.388287	0.000089
C56	C	-0.485083	0.111713	0.500089
N57	N	-0.989215	-0.123374	0.237523
N58	N	-0.489215	0.376626	0.737523
C59	C	-0.909648	0.553949	0.000082
C60	C	-0.409648	1.053949	0.500082
C61	C	-1.062178	0.575436	0.000094
C62	C	-0.562178	1.075436	0.500094
C63	C	-1.063841	0.481405	0.000088
C64	C	-0.563841	0.981405	0.500088
C65	C	-0.988406	0.423641	0.000081
C66	C	-0.488406	0.923641	0.500081
C67	C	-0.911308	0.459909	0.000079
C68	C	-0.411308	0.959909	0.500079
C69	C	-1.140937	0.445129	0.000100
C70	C	-0.640937	0.945129	0.500100
C71	C	-1.142603	0.351093	0.000096
C72	C	-0.642603	0.851093	0.500096
C73	C	-1.067167	0.293327	0.000081
C74	C	-0.567167	0.793327	0.500081
C75	C	-0.990066	0.329600	0.000078
C76	C	-0.490066	0.829600	0.500078
C77	C	-0.914631	0.271837	0.000071
C78	C	-0.414631	0.771837	0.500071
C79	C	-0.837529	0.308108	0.000061
C80	C	-0.337529	0.808108	0.500061
C81	C	-0.835872	0.402144	0.000064
C82	C	-0.335872	0.902144	0.500064
C83	C	-1.068824	0.199292	0.000077
C84	C	-0.568824	0.699292	0.500077
C85	C	-0.916291	0.177796	0.000068
C86	C	-0.416291	0.677796	0.500068
N87	N	-0.989263	-0.123377	-0.237356
N88	N	-0.489263	0.376623	0.262644
C89	C	-0.932393	-0.184646	0.710143
C90	C	-0.432393	0.315354	1.210143
C91	C	-1.046123	-0.062109	0.710117
C92	C	-0.546123	0.437891	1.210117
C93	C	-1.046114	-0.062106	0.605099
C94	C	-0.546114	0.437894	1.105099
C95	C	-0.989244	-0.123375	0.552598
C96	C	-0.489244	0.376625	1.052598
C97	C	-0.932384	-0.184647	0.605115
C98	C	-0.432384	0.315353	1.105115
C99	C	-1.102979	-0.000841	0.552574
C100	C	-0.602979	0.499159	1.052574
C101	C	-1.102972	-0.000836	0.447549
C102	C	-0.602972	0.499164	0.947549
C103	C	-1.046098	-0.062102	0.395046
C104	C	-0.546098	0.437898	0.895046
C105	C	-0.989234	-0.123376	0.447570
C106	C	-0.489234	0.376624	0.947570
C107	C	-0.932365	-0.184646	0.395068
C108	C	-0.432365	0.315354	0.895068
C109	C	-0.875497	-0.245916	0.447590
C110	C	-0.375497	0.254084	0.947590
C111	C	-0.875509	-0.245913	0.552612
C112	C	-0.375509	0.254087	1.052612
C113	C	-1.046085	-0.062105	0.290025
C114	C	-0.546085	0.437895	0.790025
C115	C	-0.932355	-0.184647	0.290040
C116	C	-0.432355	0.315353	0.790040
H117	H	-0.434198	0.016185	0.068778
H118	H	0.065802	0.516185	0.568778
O119	O	-0.411055	-0.124129	-0.189597
O120	O	0.088945	0.375871	0.310403
H121	H	-0.468299	-0.103386	-0.234728
H122	H	0.031701	0.396614	0.265272
H123	H	-0.829210	-0.295798	0.595381
H124	H	-0.329210	0.204202	1.095381
H125	H	-0.854861	0.130770	0.000057
H126	H	-0.354861	0.630770	0.500057
H127	H	-0.433141	0.016001	-0.067494
H128	H	0.066859	0.516001	0.432506
H129	H	-0.773099	0.431685	0.000057
H130	H	-0.273099	0.931685	0.500057
H131	H	-1.149285	0.049039	0.595324
H132	H	-0.649285	0.549039	1.095324
H133	H	-0.776110	0.261065	0.000061
H134	H	-0.276110	0.761065	0.500061
H135	H	-1.149276	0.049054	0.404793
H136	H	-0.649276	0.549054	0.904793
O137	O	-0.407762	-0.130447	0.190129
O138	O	0.092238	0.369553	0.690129
H139	H	-0.372854	-0.072147	0.171468
H140	H	0.127146	0.427853	0.671468
O141	O	-0.871070	-0.250737	0.766788
O142	O	-0.371070	0.249263	1.266788
H143	H	-0.831525	-0.293339	0.712633
H144	H	-0.331525	0.206661	1.212633
H145	H	-0.403325	-0.245822	0.095112
H146	H	0.096675	0.254178	0.595112
O147	O	-0.814161	-0.311989	0.390945
O148	O	-0.314161	0.188011	0.890945
H149	H	-0.824905	-0.382282	0.411083
H150	H	-0.324905	0.117718	0.911083
O151	O	-1.107461	0.003972	0.766736
O152	O	-0.607461	0.503972	1.266736
H153	H	-1.097912	-0.006318	0.848588
H154	H	-0.597912	0.493682	1.348588
H155	H	-1.092390	-0.012223	0.247266
H156	H	-0.592390	0.487777	0.747266
O157	O	-0.586329	0.025957	-0.090556
O158	O	-0.086329	0.525957	0.409444
H159	H	-0.535081	0.051958	-0.134286
H160	H	-0.035081	0.551958	0.365714
H161	H	-0.403195	-0.243482	-0.099593
H162	H	0.096805	0.256518	0.400407
H163	H	-0.577842	0.013221	0.068367
H164	H	-0.077842	0.513221	0.568367
O165	O	-1.151972	0.160165	0.000081
O166	O	-0.651972	0.660165	0.500081
H167	H	-1.204147	0.216130	0.000083
H168	H	-0.704147	0.716130	0.500083
H169	H	-0.560341	-0.139817	-0.166105
H170	H	-0.060341	0.360183	0.333895
O171	O	-0.550814	-0.270870	-0.099907
O172	O	-0.050814	0.229130	0.400093
H173	H	-0.619924	-0.272818	-0.103257
H174	H	-0.119924	0.227182	0.396743
O175	O	-0.568060	-0.126113	0.189088
O176	O	-0.068060	0.373887	0.689088
H177	H	-0.615068	-0.068692	0.167479
H178	H	-0.115068	0.431308	0.667479
H179	H	-0.547396	-0.246017	0.101474
H180	H	-0.047396	0.253983	0.601474
H181	H	-0.846873	0.583486	0.000070
H182	H	-0.346873	1.083486	0.500070
H183	H	-1.123594	0.622472	0.000108
H184	H	-0.623594	1.122472	0.500108
H185	H	-1.202353	0.492167	0.000116
H186	H	-0.702353	0.992167	0.500116
O187	O	-1.225757	0.311971	0.000083
O188	O	-0.725757	0.811971	0.500083
H189	H	-1.277931	0.367937	0.000077
H190	H	-0.777931	0.867937	0.500077
H191	H	-0.886041	-0.234537	0.247300
H192	H	-0.386041	0.265463	0.747300
