data_functionalizedCrystal
_audit_creation_method	'MofGen! by Chris Wilmer'
_symmetry_space_group_name_H-M	'P1'
_symmetry_Int_Tables_number	1
_symmetry_cell_setting	triclinic
loop_
_symmetry_equiv_pos_as_xyz
  x,y,z
_cell_length_a	19.188930
_cell_length_b	18.266242
_cell_length_c	10.540539
_cell_angle_alpha	90.004163
_cell_angle_beta	83.835136
_cell_angle_gamma	90.022918
loop_
_atom_site_label
_atom_site_type_symbol
_atom_site_fract_x
_atom_site_fract_y
_atom_site_fract_z
O1	O	0.927206	0.061113	0.158472
O2	O	1.427206	0.561113	0.658472
O3	O	0.724037	0.061063	0.179804
O4	O	1.224037	0.561063	0.679804
O5	O	0.830256	0.061088	-0.015671
O6	O	1.330256	0.561088	0.484329
O7	O	0.820986	0.061088	0.353947
O8	O	1.320986	0.561088	0.853947
O9	O	0.830238	-0.060674	-0.015681
O10	O	1.330238	0.439326	0.484319
O11	O	0.724018	-0.060699	0.179794
O12	O	1.224018	0.439301	0.679794
O13	O	0.927187	-0.060649	0.158462
O14	O	1.427187	0.439351	0.658462
Zn15	Zn	0.825600	-0.080006	0.169126
Zn16	Zn	1.325600	0.419994	0.669126
Zn17	Zn	0.825624	0.080420	0.169140
Zn18	Zn	1.325624	0.580420	0.669140
O19	O	0.820968	-0.060674	0.353937
O20	O	1.320968	0.439326	0.853937
C21	C	0.698012	0.000175	0.179108
C22	C	1.198012	0.500175	0.679108
C23	C	0.620494	0.000156	0.177035
C24	C	1.120494	0.500156	0.677035
C25	C	0.576334	0.000167	0.291733
C26	C	1.076334	0.500167	0.791733
C27	C	0.503497	0.000175	0.289785
C28	C	1.003497	0.500175	0.789785
C29	C	0.474823	0.000187	0.173132
C30	C	0.974823	0.500187	0.673132
C31	C	0.518992	0.000171	0.058418
C32	C	1.018992	0.500171	0.558418
C33	C	0.591827	0.000156	0.060370
C34	C	1.091827	0.500156	0.560370
N35	N	0.366255	0.041657	0.083968
N36	N	0.866255	0.541657	0.583968
N37	N	0.297064	0.041673	0.082122
N38	N	0.797064	0.541673	0.582122
C39	C	0.255375	0.000232	0.167245
C40	C	0.755375	0.500232	0.667245
N41	N	0.285490	-0.041218	0.254302
N42	N	0.785490	0.458782	0.754302
N43	N	0.354687	-0.041231	0.256152
N44	N	0.854687	0.458769	0.756152
C45	C	0.395846	0.000203	0.171003
C46	C	0.895846	0.500203	0.671003
C47	C	0.132237	0.000251	0.279839
C48	C	0.632237	0.500251	0.779839
C49	C	0.059400	0.000254	0.277885
C50	C	0.559400	0.500254	0.777885
C51	C	0.074896	0.000257	0.046516
C52	C	0.574896	0.500257	0.546516
C53	C	0.147732	0.000247	0.048472
C54	C	0.647732	0.500247	0.548472
C55	C	0.176398	0.000247	0.165137
C56	C	0.676398	0.500247	0.665137
N57	N	0.825589	-0.189493	0.169117
N58	N	1.325589	0.310507	0.669117
C59	C	0.872639	-0.227791	0.082603
C60	C	1.372639	0.272209	0.582603
C61	C	0.872643	-0.304436	0.082597
C62	C	1.372643	0.195564	0.582597
C63	C	0.825604	-0.342780	0.169127
C64	C	1.325604	0.157220	0.669127
C65	C	0.778546	-0.304473	0.255647
C66	C	1.278546	0.195527	0.755647
C67	C	0.778538	-0.227830	0.255642
C68	C	1.278538	0.272170	0.755642
N69	N	0.817278	-0.463114	0.281492
N70	N	1.317278	0.036886	0.781492
N71	N	0.817289	-0.535922	0.281493
N72	N	1.317289	-0.035922	0.781493
C73	C	0.825624	-0.573703	0.169145
C74	C	1.325624	-0.073703	0.669145
N75	N	0.833960	-0.535924	0.056793
N76	N	1.333960	-0.035924	0.556793
N77	N	0.833952	-0.463110	0.056793
N78	N	1.333952	0.036890	0.556793
C79	C	0.825607	-0.425887	0.169141
C80	C	1.325607	0.074113	0.669141
C81	C	0.872681	-0.695107	0.082617
C82	C	1.372681	-0.195107	0.582617
C83	C	0.872681	-0.771754	0.082610
C84	C	1.372681	-0.271754	0.582610
C85	C	0.778587	-0.771790	0.255671
C86	C	1.278587	-0.271790	0.755671
C87	C	0.778584	-0.695145	0.255668
C88	C	1.278584	-0.195145	0.755668
C89	C	0.825635	-0.656808	0.169142
C90	C	1.325635	-0.156808	0.669142
C91	C	0.953212	0.000240	0.159157
C92	C	1.453212	0.500240	0.659157
C93	C	1.030731	0.000264	0.161231
C94	C	1.530731	0.500264	0.661231
C95	C	0.829552	0.000208	-0.062963
C96	C	1.329552	0.500208	0.437037
C97	C	0.827472	0.000212	-0.203866
C98	C	1.327472	0.500212	0.296134
N99	N	0.825641	0.189907	0.169139
N100	N	1.325641	0.689907	0.669139
C101	C	0.747771	0.000465	-0.385536
C102	C	1.247771	0.500465	0.114464
C103	C	0.749879	0.000192	-0.238965
C104	C	1.249879	0.500192	0.261035
C105	C	0.864803	-0.069311	-0.266352
C106	C	1.364803	0.430689	0.233648
C107	C	0.862155	-0.069370	-0.412838
C108	C	1.362155	0.430630	0.087162
C109	C	0.863753	0.069096	-0.413380
C110	C	1.363753	0.569096	0.086620
C111	C	0.864468	0.070016	-0.266413
C112	C	1.364468	0.570016	0.233587
C113	C	0.821672	0.000207	0.401229
C114	C	1.321672	0.500207	0.901229
C115	C	0.823752	0.000209	0.542132
C116	C	1.323752	0.500209	1.042132
H117	H	0.023445	0.000259	0.371291
H118	H	0.523445	0.500259	0.871291
N119	N	0.195365	0.000251	-0.075242
N120	N	0.695365	0.500251	0.424758
H121	H	0.245856	0.000241	-0.056306
H122	H	0.745856	0.500241	0.443694
H123	H	0.185993	-0.044883	-0.126108
H124	H	0.685993	0.455117	0.373892
H125	H	0.495641	0.000191	-0.036562
H126	H	0.995641	0.500191	0.463438
N127	N	0.710978	0.066206	-0.181653
N128	N	1.210978	0.566206	0.318347
H129	H	0.670658	0.049598	-0.118737
H130	H	1.170658	0.549598	0.381263
H131	H	0.743965	0.097473	-0.136302
H132	H	1.243965	0.597473	0.363698
H133	H	0.720284	-0.049742	-0.196561
H134	H	1.220284	0.450258	0.303439
H135	H	0.740223	-0.196647	0.326094
H136	H	1.240223	0.303353	0.826094
H137	H	0.467536	0.000183	0.383189
H138	H	0.967536	0.500183	0.883189
H139	H	0.740284	-0.803009	0.326121
H140	H	1.240284	-0.303009	0.826121
H141	H	0.717237	-0.049126	-0.415075
H142	H	1.217237	0.450874	0.084925
H143	H	0.740245	-0.335697	0.326099
H144	H	1.240245	0.164303	0.826099
H145	H	0.051551	0.000312	-0.048466
H146	H	0.551551	0.500312	0.451534
N147	N	0.923424	-0.653752	-0.010704
N148	N	1.423424	-0.153752	0.489296
H149	H	0.953228	-0.689646	-0.065520
H150	H	1.453228	-0.189646	0.434480
H151	H	0.896416	-0.621967	-0.066699
H152	H	1.396416	-0.121967	0.433301
N153	N	0.828347	0.138147	-0.211375
N154	N	1.328347	0.638147	0.288625
H155	H	0.852375	0.182861	-0.251963
H156	H	1.352375	0.682861	0.248037
H157	H	0.777664	0.137626	-0.229122
H158	H	1.277664	0.637626	0.270878
N159	N	0.923382	-0.186442	-0.010721
N160	N	1.423382	0.313558	0.489279
H161	H	0.953188	-0.222339	-0.065530
H162	H	1.453188	0.277661	0.434470
H163	H	0.896373	-0.154662	-0.066723
H164	H	1.396373	0.345338	0.433277
H165	H	0.910992	-0.802936	0.012153
H166	H	1.410992	-0.302936	0.512153
N167	N	0.825591	-0.138226	-0.449405
N168	N	1.325591	0.361774	0.050595
H169	H	0.811340	-0.168253	-0.370403
H170	H	1.311340	0.331747	0.129597
H171	H	0.782530	-0.124704	-0.491542
H172	H	1.282530	0.375296	0.008458
H173	H	0.919798	0.069578	-0.461840
H174	H	1.419798	0.569578	0.038160
N175	N	0.936067	-0.073535	-0.478019
N176	N	1.436067	0.426465	0.021981
H177	H	0.970224	-0.075328	-0.411555
H178	H	1.470224	0.424672	0.088445
H179	H	0.941375	-0.119109	-0.532454
H180	H	1.441375	0.380891	-0.032454
H181	H	0.910958	-0.335623	0.012144
H182	H	1.410958	0.164377	0.512144
N183	N	0.727836	-0.653832	0.348980
N184	N	1.227836	-0.153832	0.848980
H185	H	0.698036	-0.689751	0.403796
H186	H	1.198036	-0.189751	0.903796
H187	H	0.754836	-0.622012	0.404976
H188	H	1.254836	-0.122012	0.904976
H189	H	0.717127	0.050320	-0.413457
H190	H	1.217127	0.550320	0.086543
H191	H	0.921784	-0.071882	-0.245253
H192	H	1.421784	0.428118	0.254747
N193	N	0.639460	0.000155	-0.063348
N194	N	1.139460	0.500155	0.436652
H195	H	0.689951	0.000147	-0.044410
H196	H	1.189951	0.500147	0.455590
H197	H	0.630090	-0.044981	-0.114211
H198	H	1.130090	0.455019	0.385789
N199	N	0.163163	0.000247	0.405661
N200	N	0.663163	0.500247	0.905661
H201	H	0.124133	0.000249	0.478030
H202	H	0.624133	0.500249	0.978030
H203	H	0.193023	-0.044896	0.411505
H204	H	0.693023	0.455104	0.911505
H205	H	0.599669	0.000169	0.386731
H206	H	1.099669	0.500169	0.886731
H207	H	0.838856	-0.121061	-0.223185
H208	H	1.338856	0.378939	0.276815
H209	H	0.838648	0.121791	-0.444375
H210	H	1.338648	0.621791	0.055625
H211	H	0.921040	0.074229	-0.243438
H212	H	1.421040	0.574229	0.256562
