data_functionalizedCrystal
_audit_creation_method	'MofGen! by Chris Wilmer'
_symmetry_space_group_name_H-M	'P1'
_symmetry_Int_Tables_number	1
_symmetry_cell_setting	triclinic
loop_
_symmetry_equiv_pos_as_xyz
  x,y,z
_cell_length_a	19.805407
_cell_length_b	19.805399
_cell_length_c	19.805405
_cell_angle_alpha	90.026615
_cell_angle_beta	89.971334
_cell_angle_gamma	89.979591
loop_
_atom_site_label
_atom_site_type_symbol
_atom_site_fract_x
_atom_site_fract_y
_atom_site_fract_z
Zn1	Zn	1.034734	-0.382739	0.269444
Zn2	Zn	1.534734	0.117261	0.769444
Zn3	Zn	1.034648	-0.269553	0.382632
Zn4	Zn	1.534648	0.230447	0.882632
Zn5	Zn	0.921549	-0.269562	0.269466
Zn6	Zn	1.421549	0.230438	0.769466
Zn7	Zn	0.921512	-0.382698	0.382600
Zn8	Zn	1.421512	0.117302	0.882600
O9	O	0.978111	-0.326138	0.326036
O10	O	1.478111	0.173862	0.826036
O11	O	1.129439	-0.367738	0.284463
O12	O	1.629439	0.132262	0.784463
O13	O	1.019625	-0.174838	0.367643
O14	O	1.519625	0.325162	0.867643
O15	O	0.936615	-0.284597	0.174747
O16	O	1.436615	0.215403	0.674747
O17	O	1.129376	-0.284581	0.367622
O18	O	1.629376	0.215419	0.867622
O19	O	1.019771	-0.367747	0.174730
O20	O	1.519771	0.132253	0.674730
O21	O	0.936531	-0.174844	0.284501
O22	O	1.436531	0.325156	0.784501
O23	O	0.826827	-0.284557	0.284470
O24	O	1.326827	0.215443	0.784470
O25	O	0.936551	-0.477420	0.367567
O26	O	1.436551	0.022580	0.867567
O27	O	0.826800	-0.367677	0.367589
O28	O	1.326800	0.132323	0.867589
O29	O	1.019735	-0.477450	0.284431
O30	O	1.519735	0.022550	0.784431
O31	O	1.019589	-0.284541	0.477345
O32	O	1.519589	0.215459	0.977345
O33	O	0.936468	-0.367668	0.477321
O34	O	1.436468	0.132332	0.977321
C35	C	0.802255	-0.326114	0.326029
C36	C	1.302255	0.173886	0.826029
C37	C	0.727023	-0.326119	0.326042
C38	C	1.227023	0.173881	0.826042
C39	C	0.978149	-0.502681	0.325993
C40	C	1.478149	-0.002681	0.825993
C41	C	0.978165	-0.577913	0.325975
C42	C	1.478165	-0.077913	0.825975
C43	C	0.265268	-0.369531	0.282816
C44	C	0.765268	0.130469	0.782816
C45	C	0.335957	-0.369526	0.282817
C46	C	0.835957	0.130474	0.782817
C47	C	0.371261	-0.326160	0.326046
C48	C	0.871261	0.173840	0.826046
C49	C	0.335874	-0.282801	0.369281
C50	C	0.835874	0.217199	0.869281
C51	C	0.265186	-0.282810	0.369283
C52	C	0.765186	0.217190	0.869283
C53	C	0.620947	-0.282765	0.369276
C54	C	1.120947	0.217235	0.869276
C55	C	0.691639	-0.282758	0.369270
C56	C	1.191639	0.217242	0.869270
C57	C	0.691717	-0.369481	0.282810
C58	C	1.191717	0.130519	0.782810
C59	C	0.621030	-0.369490	0.282812
C60	C	1.121030	0.130510	0.782812
C61	C	0.585648	-0.326134	0.326049
C62	C	1.085648	0.173866	0.826049
C63	C	0.509000	-0.326141	0.326048
C64	C	1.009000	0.173859	0.826048
C65	C	0.447908	-0.326149	0.326044
C66	C	0.947908	0.173851	0.826044
C67	C	1.021480	-0.613274	0.282684
C68	C	1.521480	-0.113274	0.782684
C69	C	1.021487	-0.683962	0.282664
C70	C	1.521487	-0.183962	0.782664
C71	C	0.978182	-0.719289	0.325939
C72	C	1.478182	-0.219289	0.825939
C73	C	0.934862	-0.683923	0.369232
C74	C	1.434862	-0.183923	0.869232
C75	C	0.934852	-0.613235	0.369248
C76	C	1.434852	-0.113235	0.869248
C77	C	0.934900	-0.968996	0.369169
C78	C	1.434900	-0.468996	0.869169
C79	C	0.934915	-1.039688	0.369151
C80	C	1.434915	-0.539688	0.869151
C81	C	1.021535	-1.039723	0.282586
C82	C	1.521535	-0.539723	0.782586
C83	C	1.021525	-0.969036	0.282601
C84	C	1.521525	-0.469036	0.782601
C85	C	0.978203	-0.933676	0.325891
C86	C	1.478203	-0.433676	0.825891
C87	C	0.978195	-0.857028	0.325911
C88	C	1.478195	-0.357028	0.825911
C89	C	0.978193	-0.795936	0.325923
C90	C	1.478193	-0.295936	0.825923
C91	C	1.154654	-0.326163	0.326043
C92	C	1.654654	0.173837	0.826043
C93	C	1.229885	-0.326174	0.326046
C94	C	1.729885	0.173826	0.826046
C95	C	0.978034	-0.326114	0.501892
C96	C	1.478034	0.173886	1.001892
C97	C	0.978063	-0.326126	0.577124
C98	C	1.478063	0.173874	1.077124
C99	C	0.978112	-0.150282	0.326029
C100	C	1.478112	0.349718	0.826029
C101	C	0.978227	-0.075051	0.325857
C102	C	1.478227	0.424949	0.825857
C103	C	0.978207	-0.326178	0.149493
C104	C	1.478207	0.173822	0.649493
C105	C	0.978248	-0.326194	0.074261
C106	C	1.478248	0.173806	0.574261
C107	C	1.021337	-0.369456	0.612401
C108	C	1.521337	0.130544	1.112401
C109	C	1.021361	-0.369469	0.683089
C110	C	1.521361	0.130531	1.183089
C111	C	0.978114	-0.326147	0.718499
C112	C	1.478114	0.173853	1.218499
C113	C	0.934835	-0.282815	0.683217
C114	C	1.434835	0.217185	1.183217
C115	C	0.934808	-0.282806	0.612530
C116	C	1.434808	0.217194	1.112530
C117	C	0.934944	-0.282849	0.968290
C118	C	1.434944	0.217151	1.468290
C119	C	0.934976	-0.282860	1.038982
C120	C	1.434976	0.217140	1.538982
C121	C	1.021497	-0.369512	1.038850
C122	C	1.521497	0.130488	1.538850
C123	C	1.021470	-0.369504	0.968163
C124	C	1.521470	0.130496	1.468163
C125	C	0.978189	-0.326174	0.932887
C126	C	1.478189	0.173826	1.432887
C127	C	0.978162	-0.326162	0.856238
C128	C	1.478162	0.173838	1.356238
C129	C	0.978144	-0.326155	0.795146
C130	C	1.478144	0.173845	1.295146
H131	H	0.236528	-0.404840	0.247609
H132	H	0.736528	0.095160	0.747609
C133	C	0.888071	-0.235764	0.929906
C134	C	1.388071	0.264236	1.429906
C135	C	0.926405	-0.192427	0.889302
C136	C	1.426405	0.307573	1.389302
C137	C	0.883248	-0.149047	0.853922
C138	C	1.383248	0.350953	1.353922
H139	H	0.862305	-0.209898	0.961040
H140	H	1.362305	0.290102	1.461040
H141	H	0.858563	-0.261606	0.902304
H142	H	1.358563	0.238394	1.402304
H143	H	0.955901	-0.166588	0.916902
H144	H	1.455901	0.333412	1.416902
H145	H	0.952169	-0.218275	0.858155
H146	H	1.452169	0.281725	1.358155
H147	H	0.853740	-0.174888	0.826320
H148	H	1.353740	0.325112	1.326320
H149	H	0.857484	-0.123185	0.885061
H150	H	1.357484	0.376815	1.385061
H151	H	0.909250	-0.119641	0.826363
H152	H	1.409250	0.380359	1.326363
H153	H	0.364624	-0.247494	0.404482
H154	H	0.864624	0.252506	0.904482
H155	H	0.899648	-1.068449	0.404392
H156	H	1.399648	-0.568449	0.904392
H157	H	0.899600	-0.712691	0.404465
H158	H	1.399600	-0.212691	0.904465
C159	C	0.374250	-0.416620	0.235800
C160	C	0.874250	0.083380	0.735800
C161	C	0.328202	-0.454582	0.197925
C162	C	0.828202	0.045418	0.697925
C163	C	0.363453	-0.497966	0.154597
C164	C	0.863453	0.002034	0.654597
H165	H	0.401830	-0.446126	0.261649
H166	H	0.901830	0.053874	0.761649
H167	H	0.401811	-0.390787	0.206241
H168	H	0.901811	0.109213	0.706241
H169	H	0.300652	-0.480413	0.227480
H170	H	0.800652	0.019587	0.727480
H171	H	0.300621	-0.425093	0.172063
H172	H	0.800621	0.074907	0.672063
H173	H	0.391014	-0.472133	0.125039
H174	H	0.891014	0.027867	0.625039
H175	H	0.391032	-0.527468	0.180451
H176	H	0.891032	-0.027468	0.680451
H177	H	0.332215	-0.523724	0.128890
H178	H	0.832215	-0.023724	0.628890
C179	C	0.582822	-0.416648	0.235852
C180	C	1.082822	0.083352	0.735852
C181	C	0.628939	-0.454632	0.198005
C182	C	1.128939	0.045368	0.698005
C183	C	0.593768	-0.498090	0.154747
C184	C	1.093768	0.001910	0.654747
H185	H	0.555245	-0.390889	0.206268
H186	H	1.055245	0.109111	0.706268
H187	H	0.555264	-0.446132	0.261771
H188	H	1.055264	0.053868	0.761771
H189	H	0.656485	-0.425152	0.172088
H190	H	1.156485	0.074848	0.672088
H191	H	0.656517	-0.480405	0.227571
H192	H	1.156517	0.019595	0.727571
H193	H	0.566210	-0.527575	0.180665
H194	H	1.066210	-0.027575	0.680665
H195	H	0.566192	-0.472326	0.125167
H196	H	1.066192	0.027674	0.625167
H197	H	0.625053	-0.523872	0.129067
H198	H	1.125053	-0.023872	0.629067
H199	H	0.592148	-0.247460	0.404481
H200	H	1.092148	0.252540	0.904481
C201	C	0.888087	-0.235854	1.077551
C202	C	1.388087	0.264146	1.577551
C203	C	0.897391	-0.245125	1.147006
C204	C	1.397391	0.254875	1.647006
C205	C	0.854217	-0.201832	1.182556
C206	C	1.354217	0.298168	1.682556
H207	H	0.842573	-0.245678	1.066085
H208	H	1.342573	0.254322	1.566085
H209	H	0.898015	-0.190368	1.066025
H210	H	1.398015	0.309632	1.566025
H211	H	0.887459	-0.290601	1.158527
H212	H	1.387459	0.209399	1.658527
H213	H	0.942896	-0.235296	1.158491
H214	H	1.442896	0.264704	1.658491
H215	H	0.864145	-0.156346	1.171030
H216	H	1.364145	0.343654	1.671030
H217	H	0.808706	-0.211660	1.171085
H218	H	1.308706	0.288340	1.671085
H219	H	0.860528	-0.208112	1.229684
H220	H	1.360528	0.291888	1.729684
C221	C	0.730254	-0.416536	0.235944
C222	C	1.230254	0.083464	0.735944
C223	C	0.799716	-0.407265	0.245206
C224	C	1.299716	0.092735	0.745206
C225	C	0.835235	-0.450603	0.202051
C226	C	1.335235	0.049397	0.702051
H227	H	0.718769	-0.406753	0.190427
H228	H	1.218769	0.093247	0.690427
H229	H	0.718723	-0.462011	0.245915
H230	H	1.218723	0.037989	0.745915
H231	H	0.811243	-0.361800	0.235230
H232	H	1.311243	0.138200	0.735230
H233	H	0.811222	-0.417053	0.290714
H234	H	1.311222	0.082947	0.790714
H235	H	0.823704	-0.496078	0.212022
H236	H	1.323704	0.003922	0.712022
H237	H	0.823744	-0.440816	0.156537
H238	H	1.323744	0.059184	0.656537
H239	H	0.882368	-0.444323	0.208334
H240	H	1.382368	0.055677	0.708334
C241	C	1.068552	-0.416596	1.077029
C242	C	1.568552	0.083404	1.577029
C243	C	1.106431	-0.454520	1.030887
C244	C	1.606431	0.045480	1.530887
C245	C	1.149788	-0.497893	1.066031
C246	C	1.649788	0.002107	1.566031
H247	H	1.042725	-0.446126	1.104607
H248	H	1.542725	0.053874	1.604607
H249	H	1.098107	-0.390756	1.104583
H250	H	1.598107	0.109244	1.604583
H251	H	1.076879	-0.480357	1.003345
H252	H	1.576879	0.019643	1.503345
H253	H	1.132272	-0.425007	1.003307
H254	H	1.632272	0.074993	1.503307
H255	H	1.179343	-0.472054	1.093585
H256	H	1.679343	0.027946	1.593585
H257	H	1.123956	-0.527419	1.093608
H258	H	1.623956	-0.027419	1.593608
H259	H	1.175498	-0.523625	1.034729
H260	H	1.675498	-0.023625	1.534729
C261	C	1.068504	-0.930560	0.235678
C262	C	1.568504	-0.430560	0.735678
C263	C	1.059232	-0.861087	0.244965
C264	C	1.559232	-0.361087	0.744965
C265	C	1.102497	-0.825624	0.201750
C266	C	1.602497	-0.325624	0.701750
H267	H	1.058656	-0.942078	0.190174
H268	H	1.558656	-0.442078	0.690174
H269	H	1.113997	-0.942106	0.245578
H270	H	1.613997	-0.442106	0.745578
H271	H	1.013749	-0.849546	0.235061
H272	H	1.513749	-0.349546	0.735061
H273	H	1.069085	-0.849549	0.290460
H274	H	1.569085	-0.349549	0.790460
H275	H	1.147990	-0.837169	0.211650
H276	H	1.647990	-0.337169	0.711650
H277	H	1.092645	-0.837147	0.156249
H278	H	1.592645	-0.337147	0.656249
H279	H	1.096216	-0.778483	0.208050
H280	H	1.596216	-0.278483	0.708050
H281	H	0.236379	-0.247505	0.404487
H282	H	0.736379	0.252495	0.904487
H283	H	0.720382	-0.247443	0.404475
H284	H	1.220382	0.252557	0.904475
C285	C	0.887742	-0.574810	0.416143
C286	C	1.387742	-0.074810	0.916143
C287	C	0.844359	-0.534242	0.377829
C288	C	1.344359	-0.034242	0.877829
C289	C	0.800943	-0.498844	0.421005
C290	C	1.300943	0.001156	0.921005
H291	H	0.913534	-0.547178	0.445656
H292	H	1.413534	-0.047178	0.945656
H293	H	0.861916	-0.605954	0.441901
H294	H	1.361916	-0.105954	0.941901
H295	H	0.870182	-0.503101	0.352082
H296	H	1.370182	-0.003101	0.852082
H297	H	0.818552	-0.561856	0.348317
H298	H	1.318552	-0.061856	0.848317
H299	H	0.775117	-0.529989	0.446764
H300	H	1.275117	-0.029989	0.946764
H301	H	0.826740	-0.471216	0.450517
H302	H	1.326740	0.028784	0.950517
H303	H	0.771498	-0.471320	0.395016
H304	H	1.271498	0.028680	0.895016
C305	C	1.068414	-0.574960	0.235584
C306	C	1.568414	-0.074960	0.735584
C307	C	1.053700	-0.592157	0.168611
C308	C	1.553700	-0.092157	0.668611
C309	C	1.096915	-0.556872	0.125200
C310	C	1.596915	-0.056872	0.625200
H311	H	1.113912	-0.586524	0.245398
H312	H	1.613912	-0.086524	0.745398
H313	H	1.062202	-0.527790	0.241745
H314	H	1.562202	-0.027790	0.741745
H315	H	1.059918	-0.639317	0.162453
H316	H	1.559918	-0.139317	0.662453
H317	H	1.008210	-0.580591	0.158776
H318	H	1.508210	-0.080591	0.658776
H319	H	1.090703	-0.509702	0.131362
H320	H	1.590703	-0.009702	0.631362
H321	H	1.142410	-0.568439	0.135020
H322	H	1.642410	-0.068439	0.635020
H323	H	1.086933	-0.568531	0.079755
H324	H	1.586933	-0.068531	0.579755
C325	C	0.887768	-0.235863	0.721625
C326	C	1.387768	0.264137	1.221625
C327	C	0.820783	-0.250547	0.704497
C328	C	1.320783	0.249453	1.204497
C329	C	0.777406	-0.207313	0.739870
C330	C	1.277406	0.292687	1.239870
H331	H	0.897606	-0.190369	0.710087
H332	H	1.397606	0.309631	1.210087
H333	H	0.893937	-0.242078	0.768783
H334	H	1.393937	0.257922	1.268783
H335	H	0.814616	-0.244326	0.657350
H336	H	1.314616	0.255674	1.157350
H337	H	0.810924	-0.296033	0.716037
H338	H	1.310924	0.203967	1.216037
H339	H	0.783575	-0.213528	0.787028
H340	H	1.283575	0.286472	1.287028
H341	H	0.787250	-0.161822	0.728329
H342	H	1.287250	0.338178	1.228329
H343	H	0.731951	-0.217274	0.728259
H344	H	1.231951	0.282726	1.228259
H345	H	1.056556	-0.404731	0.583575
H346	H	1.556556	0.095269	1.083575
C347	C	1.068432	-0.416527	0.721268
C348	C	1.568432	0.083473	1.221268
C349	C	1.106321	-0.454443	0.675129
C350	C	1.606321	0.045557	1.175129
C351	C	1.149703	-0.497790	0.710274
C352	C	1.649703	0.002210	1.210274
H353	H	1.042622	-0.446064	0.748856
H354	H	1.542622	0.053936	1.248856
H355	H	1.097980	-0.390669	0.748813
H356	H	1.597980	0.109331	1.248813
H357	H	1.076777	-0.480298	0.647595
H358	H	1.576777	0.019702	1.147595
H359	H	1.132145	-0.424924	0.647539
H360	H	1.632145	0.075076	1.147539
H361	H	1.179250	-0.471933	0.737818
H362	H	1.679250	0.028067	1.237818
H363	H	1.123887	-0.527323	0.737860
H364	H	1.623887	-0.027323	1.237860
H365	H	1.175419	-0.523517	0.678973
H366	H	1.675419	-0.023517	1.178973
H367	H	0.899569	-0.247523	0.583808
H368	H	1.399569	0.252477	1.083808
H369	H	0.899635	-0.940215	0.404428
H370	H	1.399635	-0.440215	0.904428
H371	H	1.056688	-0.404778	0.939334
H372	H	1.556688	0.095222	1.439334
C373	C	1.068453	-1.078150	0.235492
C374	C	1.568453	-0.578150	0.735492
C375	C	1.030159	-1.118718	0.192083
C376	C	1.530159	-0.618718	0.692083
C377	C	1.073356	-1.154117	0.148689
C378	C	1.573356	-0.654117	0.648689
H379	H	1.097947	-1.105783	0.261299
H380	H	1.597947	-0.605783	0.761299
H381	H	1.094231	-1.047007	0.209685
H382	H	1.594231	-0.547007	0.709685
H383	H	1.004392	-1.149857	0.217888
H384	H	1.504392	-0.649857	0.717888
H385	H	1.000666	-1.091102	0.166262
H386	H	1.500666	-0.591102	0.666262
H387	H	1.099134	-1.122974	0.122881
H388	H	1.599134	-0.622974	0.622881
H389	H	1.102848	-1.181746	0.174501
H390	H	1.602848	-0.681746	0.674501
H391	H	1.047379	-1.181641	0.119226
H392	H	1.547379	-0.681641	0.619226
H393	H	1.056760	-0.712750	0.247414
H394	H	1.556760	-0.212750	0.747414
