data_functionalizedCrystal
_audit_creation_method	'MofGen! by Chris Wilmer'
_symmetry_space_group_name_H-M	'P1'
_symmetry_Int_Tables_number	1
_symmetry_cell_setting	triclinic
loop_
_symmetry_equiv_pos_as_xyz
  x,y,z
_cell_length_a	14.908979
_cell_length_b	14.908579
_cell_length_c	11.169409
_cell_angle_alpha	86.737049
_cell_angle_beta	93.272192
_cell_angle_gamma	83.577829
loop_
_atom_site_label
_atom_site_type_symbol
_atom_site_fract_x
_atom_site_fract_y
_atom_site_fract_z
Zn1	Zn	1.363016	0.280369	-0.595630
Zn2	Zn	1.354161	0.431772	-0.407237
Zn3	Zn	1.211638	0.289164	-0.407235
Zn4	Zn	1.202880	0.440433	-0.620136
O5	O	1.282924	0.360435	-0.507559
O6	O	1.488505	0.293148	-0.560384
O7	O	1.335215	0.412911	-0.239295
O8	O	1.239090	0.161328	-0.421970
O9	O	1.481999	0.404383	-0.421973
O10	O	1.350306	0.154866	-0.560382
O11	O	1.230504	0.308137	-0.239293
O12	O	1.083813	0.316535	-0.445732
O13	O	1.224163	0.419144	-0.784827
O14	O	1.077379	0.427672	-0.602149
O15	O	1.341814	0.301546	-0.766823
O16	O	1.326722	0.559591	-0.445735
O17	O	1.215577	0.565954	-0.602151
C18	C	1.047753	0.373998	-0.526600
C19	C	0.947145	0.379823	-0.534776
C20	C	0.802011	0.445983	-0.627606
C21	C	0.896541	0.440511	-0.619935
C22	C	0.903212	0.324605	-0.457280
C23	C	0.808682	0.330077	-0.464952
C24	C	0.758084	0.390767	-0.550119
C25	C	0.663553	0.396234	-0.557795
C26	C	0.670225	0.280333	-0.395136
C27	C	0.764755	0.274861	-0.387465
C28	C	1.269263	0.595615	-0.526627
C29	C	1.263502	0.696221	-0.534817
C30	C	1.368530	0.878577	-0.387446
C31	C	1.363120	0.973106	-0.395138
C32	C	1.247276	0.979808	-0.557896
C33	C	1.252686	0.885279	-0.550205
C34	C	1.313314	0.834667	-0.464976
C35	C	1.318719	0.740138	-0.457279
C36	C	1.202881	0.746841	-0.620043
C37	C	1.197471	0.841369	-0.627734
C38	C	1.519013	0.346818	-0.488445
C39	C	1.619620	0.341016	-0.480300
C40	C	1.282999	0.360330	-0.820588
C41	C	1.283031	0.360286	-0.953982
C42	C	1.296657	1.124335	-0.488458
C43	C	1.302494	1.023724	-0.480359
C44	C	1.282905	0.360470	-0.195739
C45	C	1.283063	0.360250	-0.062310
H46	H	0.944424	0.275201	-0.387933
O47	O	1.143318	0.699469	-0.703652
H48	H	1.071249	0.721787	-0.690196
H49	H	1.148111	0.882590	-0.697128
O50	O	1.181894	1.034417	-0.649810
H51	H	1.198421	1.015321	-0.741291
H52	H	0.932303	0.485474	-0.683032
O53	O	1.384113	0.685542	-0.365367
H54	H	1.421607	0.731960	-0.312759
O55	O	1.433929	0.823977	-0.295545
H56	H	1.395912	0.783315	-0.234211
H57	H	0.634450	0.235369	-0.332044
O58	O	1.422667	1.020471	-0.311512
H59	H	1.465727	0.969393	-0.250952
H60	H	0.760814	0.495392	-0.696962
O61	O	0.608970	0.461754	-0.649567
H62	H	0.655399	0.499260	-0.702121
H63	H	0.805964	0.225451	-0.318121
