data_functionalizedCrystal
_audit_creation_method	'MofGen! by Chris Wilmer'
_symmetry_space_group_name_H-M	'P1'
_symmetry_Int_Tables_number	1
_symmetry_cell_setting	triclinic
loop_
_symmetry_equiv_pos_as_xyz
  x,y,z
_cell_length_a	19.188905
_cell_length_b	11.792241
_cell_length_c	10.268362
_cell_angle_alpha	89.994090
_cell_angle_beta	90.007862
_cell_angle_gamma	96.336014
loop_
_atom_site_label
_atom_site_type_symbol
_atom_site_fract_x
_atom_site_fract_y
_atom_site_fract_z
O1	O	0.926954	-0.141561	0.108516
O2	O	1.426954	0.358439	0.608516
O3	O	0.723748	-0.160665	0.108471
O4	O	1.223748	0.339335	0.608471
O5	O	0.830282	0.014132	0.108485
O6	O	1.330282	0.514132	0.608485
O7	O	0.820420	-0.316358	0.108501
O8	O	1.320420	0.183642	0.608501
O9	O	0.830281	0.014143	-0.108115
O10	O	1.330281	0.514143	0.391885
O11	O	0.723747	-0.160655	-0.108130
O12	O	1.223747	0.339345	0.391870
O13	O	0.926952	-0.141550	-0.108085
O14	O	1.426952	0.358450	0.391915
Cu15	Cu	0.825350	-0.151102	-0.127885
Cu16	Cu	1.325350	0.348898	0.372115
Cu17	Cu	0.825351	-0.151114	0.128271
Cu18	Cu	1.325351	0.348886	0.628271
O19	O	0.820418	-0.316348	-0.108099
O20	O	1.320418	0.183652	0.391901
C21	C	0.697733	-0.160046	0.000165
C22	C	1.197733	0.339954	0.500165
C23	C	0.620217	-0.158203	0.000148
C24	C	1.120217	0.341797	0.500148
N25	N	0.825353	-0.151114	0.308437
N26	N	1.325353	0.348886	0.808437
C27	C	0.829662	0.056419	0.000185
C28	C	1.329662	0.556419	0.500185
C29	C	0.827808	0.182405	0.000186
C30	C	1.327808	0.682405	0.500186
C31	C	0.583821	-0.157323	0.118220
C32	C	1.083821	0.342677	0.618220
C33	C	0.510987	-0.155579	0.118236
C34	C	1.010987	0.344421	0.618236
C35	C	0.474554	-0.154691	0.000173
C36	C	0.974554	0.345309	0.500173
C37	C	0.510959	-0.155578	-0.117915
C38	C	1.010959	0.344422	0.382085
C39	C	0.583790	-0.157333	-0.117927
C40	C	1.083790	0.342667	0.382073
N41	N	0.365152	-0.087344	-0.087693
N42	N	0.865152	0.412656	0.412307
N43	N	0.295966	-0.085674	-0.087673
N44	N	0.795966	0.414326	0.412327
C45	C	0.255118	-0.149404	0.000205
C46	C	0.755118	0.350596	0.500205
N47	N	0.286071	-0.214854	0.088081
N48	N	0.786071	0.285146	0.588081
N49	N	0.355264	-0.216519	0.088064
N50	N	0.855264	0.283481	0.588064
C51	C	0.395581	-0.152788	0.000174
C52	C	0.895581	0.347212	0.500174
C53	C	0.139747	-0.146635	0.118303
C54	C	0.639747	0.353365	0.618303
C55	C	0.066912	-0.144898	0.118314
C56	C	0.566912	0.355102	0.618314
C57	C	0.066886	-0.144885	-0.117841
C58	C	0.566886	0.355115	0.382159
C59	C	0.139719	-0.146634	-0.117848
C60	C	0.639719	0.353366	0.382152
C61	C	0.176146	-0.147503	0.000227
C62	C	0.676146	0.352497	0.500227
C63	C	0.952968	-0.142169	0.000224
C64	C	1.452968	0.357831	0.500224
C65	C	1.030484	-0.144012	0.000250
C66	C	1.530484	0.355988	0.500250
C67	C	0.821039	-0.358634	0.000204
C68	C	1.321039	0.141366	0.500204
C69	C	0.822893	-0.484620	0.000211
C70	C	1.322893	0.015380	0.500211
C71	C	0.824398	0.413065	0.000207
C72	C	1.324398	0.913065	0.500207
C73	C	0.826293	0.284709	0.000196
C74	C	1.326293	0.784709	0.500196
N75	N	0.825354	-0.151092	-0.308051
N76	N	1.325354	0.348908	0.191949
C77	C	0.825351	-0.151107	0.574107
C78	C	1.325351	0.348893	1.074107
C79	C	0.825350	-0.151114	0.426269
C80	C	1.325350	0.348886	0.926269
H81	H	0.613475	-0.158031	0.214366
H82	H	1.113475	0.341969	0.714366
H83	H	0.481348	-0.154864	0.214388
H84	H	0.981348	0.345136	0.714388
Cl85	Cl	0.185543	-0.147739	0.266736
Cl86	Cl	0.685543	0.352261	0.766736
Cl87	Cl	0.185477	-0.147733	-0.266291
Cl88	Cl	0.685477	0.352267	0.233709
H89	H	0.037222	-0.144170	-0.213970
H90	H	0.537222	0.355830	0.286030
Cl91	Cl	0.465158	-0.154470	-0.266337
Cl92	Cl	0.965158	0.345530	0.233663
H93	H	0.037279	-0.144188	0.214466
H94	H	0.537279	0.355812	0.714466
H95	H	0.613423	-0.158051	-0.214079
H96	H	1.113423	0.341949	0.285921
