data_functionalizedCrystal
_audit_creation_method	'MofGen! by Chris Wilmer'
_symmetry_space_group_name_H-M	'P1'
_symmetry_Int_Tables_number	1
_symmetry_cell_setting	triclinic
loop_
_symmetry_equiv_pos_as_xyz
  x,y,z
_cell_length_a	6.817900
_cell_length_b	11.102288
_cell_length_c	11.168136
_cell_angle_alpha	91.983489
_cell_angle_beta	108.508683
_cell_angle_gamma	108.605689
loop_
_atom_site_label
_atom_site_type_symbol
_atom_site_fract_x
_atom_site_fract_y
_atom_site_fract_z
V1	V	-4.110388	-0.175858	-0.393699
O2	O	-4.069442	0.008431	-0.386205
O3	O	-4.087173	-0.348678	-0.391007
O4	O	-4.086671	-0.173162	-0.565405
O5	O	-4.069948	-0.168301	-0.210599
V6	V	-4.587554	-0.153814	-0.371799
O7	O	-4.385590	-0.224214	-0.441739
O8	O	-4.762549	-0.105458	-0.323759
O9	O	-4.387563	0.019006	-0.374492
O10	O	-4.745897	-0.338103	-0.379294
O11	O	-4.745391	-0.161372	-0.554899
O12	O	-4.388065	-0.156511	-0.200093
C13	C	-3.937502	-0.390808	-0.384796
C14	C	-3.999972	-0.532091	-0.383739
C15	C	-4.213310	-0.604939	-0.389542
C16	C	-4.272001	-0.737691	-0.388559
C17	C	-3.903991	-0.724732	-0.375964
C18	C	-3.845308	-0.591984	-0.376957
C19	C	-3.936860	-0.166917	-0.607257
C20	C	-3.998918	-0.165856	-0.747627
C21	C	-4.201443	-0.171411	-0.816319
C22	C	-4.265588	-0.170315	-0.961399
C23	C	-4.200576	0.061129	-0.380699
C24	C	-4.117346	0.202410	-0.381764
C25	C	-4.201217	-0.162759	-0.158235
C26	C	-4.118396	-0.163814	-0.017863
H27	H	-3.671579	-0.532669	-0.372235
O28	O	-3.911496	-0.158375	-0.947540
C29	C	-3.870838	-0.264839	-0.992945
H30	H	-4.034428	-0.345556	-1.045015
H31	H	-3.768337	-0.299751	-0.908999
H32	H	-3.776871	-0.235300	-1.061536
H33	H	-4.445718	-0.796999	-0.393287
H34	H	-4.327338	-0.176970	-0.767720
O35	O	-4.363447	-0.546644	-0.396308
C36	C	-4.397412	-0.487518	-0.507141
H37	H	-4.247814	-0.467749	-0.538447
H38	H	-4.421246	-0.393037	-0.485794
H39	H	-4.550636	-0.553956	-0.586801
O40	O	-3.753790	-0.782888	-0.369584
C41	C	-3.684315	-0.763732	-0.475842
H42	H	-3.815582	-0.743094	-0.556597
H43	H	-3.658514	-0.853881	-0.509202
H44	H	-3.522672	-0.678735	-0.447651
O45	O	-4.472556	-0.175828	-1.031672
C46	C	-4.513222	-0.069337	-0.986335
H47	H	-4.399694	-0.031389	-0.883001
H48	H	-4.692466	-0.100050	-0.991686
H49	H	-4.480393	0.009538	-1.047656
H50	H	-3.873014	-0.160280	-0.796223
