data_functionalizedCrystal
_audit_creation_method	'MofGen! by Chris Wilmer'
_symmetry_space_group_name_H-M	'P1'
_symmetry_Int_Tables_number	1
_symmetry_cell_setting	triclinic
loop_
_symmetry_equiv_pos_as_xyz
  x,y,z
_cell_length_a	9.065218
_cell_length_b	15.500227
_cell_length_c	9.065218
_cell_angle_alpha	87.127904
_cell_angle_beta	85.015885
_cell_angle_gamma	92.886578
loop_
_atom_site_label
_atom_site_type_symbol
_atom_site_fract_x
_atom_site_fract_y
_atom_site_fract_z
O1	O	1.967174	0.071943	0.209599
O2	O	1.537889	0.071943	0.227345
O3	O	1.761404	0.071941	0.003830
O4	O	1.743658	0.071945	0.433114
O5	O	1.747840	-0.071947	0.017339
O6	O	1.524325	-0.071945	0.240855
O7	O	1.953609	-0.071946	0.223108
Cu8	Cu	1.737729	-0.085084	0.233215
Cu9	Cu	1.753770	0.085081	0.217238
O10	O	1.730094	-0.071944	0.446624
C11	C	1.476120	-0.000001	0.232394
C12	C	1.312277	-0.000000	0.227294
N13	N	1.726457	-0.204769	0.244451
C14	C	1.821202	-0.250046	0.149776
C15	C	1.812691	-0.340619	0.158287
C16	C	1.709441	-0.385912	0.261483
C17	C	1.614686	-0.340628	0.356162
C18	C	1.623191	-0.250057	0.347642
C19	C	1.678803	-0.659379	0.292150
C20	C	1.670308	-0.749956	0.300666
C21	C	1.868312	-0.749941	0.102788
C22	C	1.876814	-0.659368	0.094283
C23	C	1.782054	-0.614092	0.188958
C24	C	1.700742	-0.478492	0.270189
C25	C	1.790746	-0.521513	0.180244
C26	C	2.015378	0.000000	0.218059
C27	C	2.179222	0.000005	0.223158
C28	C	1.752917	-0.000002	-0.044402
C29	C	1.747818	0.000003	-0.208246
N30	N	1.765053	0.204766	0.205990
C31	C	1.738582	0.000001	0.494855
C32	C	1.743682	0.000003	0.658698
H33	H	1.889839	-0.377483	0.081194
H34	H	1.616676	-0.515378	0.354215
C35	C	1.556718	-0.799778	0.414186
C36	C	1.437273	-0.862069	0.360809
C37	C	1.323692	-0.911888	0.474326
C38	C	1.329556	-0.899417	0.641219
C39	C	1.449006	-0.837123	0.694604
C40	C	1.562587	-0.787303	0.581087
H41	H	1.432927	-0.871303	0.237257
H42	H	1.235267	-0.958002	0.434806
H43	H	1.245476	-0.936296	0.725251
H44	H	1.453352	-0.827888	0.818156
H45	H	1.651012	-0.741189	0.620607
H46	H	1.960888	-0.622492	0.010254
C47	C	1.518972	-0.200249	0.451791
C48	C	1.405450	-0.250067	0.565356
C49	C	1.301222	-0.200261	0.669503
C50	C	1.310515	-0.100636	0.660083
C51	C	1.424041	-0.050812	0.546513
C52	C	1.528269	-0.100619	0.442367
H53	H	1.398567	-0.323820	0.572333
H54	H	1.217183	-0.237144	0.753575
H55	H	1.233359	-0.063766	0.737179
H56	H	1.430925	0.022941	0.539536
H57	H	1.612309	-0.063736	0.358294
H58	H	1.905285	-0.213174	0.065749
H59	H	1.601647	-0.622522	0.369241
H60	H	1.945460	-0.786813	0.025707
H61	H	1.530610	-0.377512	0.440181
H62	H	1.874807	-0.484633	0.096216
