data_functionalizedCrystal
_audit_creation_method	'MofGen! by Chris Wilmer'
_symmetry_space_group_name_H-M	'P1'
_symmetry_Int_Tables_number	1
_symmetry_cell_setting	triclinic
loop_
_symmetry_equiv_pos_as_xyz
  x,y,z
_cell_length_a	10.686220
_cell_length_b	10.686285
_cell_length_c	18.215399
_cell_angle_alpha	94.390852
_cell_angle_beta	85.648888
_cell_angle_gamma	90.345431
loop_
_atom_site_label
_atom_site_type_symbol
_atom_site_fract_x
_atom_site_fract_y
_atom_site_fract_z
Zn1	Zn	1.956157	-0.352094	0.312989
Zn2	Zn	2.456157	0.147906	0.812989
Zn3	Zn	1.972159	-0.561881	0.179848
Zn4	Zn	2.472159	-0.061881	0.679848
Zn5	Zn	1.746391	-0.368247	0.198590
Zn6	Zn	2.246391	0.131753	0.698590
Zn7	Zn	1.762483	-0.577916	0.311528
Zn8	Zn	2.262483	-0.077916	0.811528
O9	O	1.859298	-0.465034	0.250739
O10	O	2.359298	0.034966	0.750739
O11	O	2.133818	-0.366452	0.288096
O12	O	2.633818	0.133548	0.788096
O13	O	1.942173	-0.536245	0.079349
O14	O	2.442173	-0.036245	0.579349
O15	O	1.760786	-0.190561	0.222220
O16	O	2.260786	0.309439	0.722220
O17	O	2.145575	-0.520582	0.190277
O18	O	2.645575	-0.020582	0.690277
O19	O	1.914900	-0.178694	0.306269
O20	O	2.414900	0.321306	0.806269
O21	O	1.776302	-0.393983	0.093119
O22	O	2.276302	0.106017	0.593119
O23	O	1.572988	-0.409531	0.220803
O24	O	2.072988	0.090469	0.720803
O25	O	1.788211	-0.547910	0.414706
O26	O	2.288211	-0.047910	0.914706
O27	O	1.584810	-0.563573	0.303778
O28	O	2.084810	-0.063573	0.803778
O29	O	1.930503	-0.382000	0.415780
O30	O	2.430503	0.118000	0.915780
O31	O	1.957776	-0.739551	0.188861
O32	O	2.457776	-0.239551	0.688861
O33	O	1.803728	-0.751332	0.285605
O34	O	2.303728	-0.251332	0.785605
C35	C	1.533384	-0.490046	0.264166
C36	C	2.033384	0.009954	0.764166
C37	C	1.393959	-0.500776	0.269927
C38	C	1.893959	-0.000776	0.769927
C39	C	1.884269	-0.790955	0.235055
C40	C	2.384269	-0.290955	0.735055
C41	C	1.895066	-0.930377	0.228366
C42	C	2.395066	-0.430377	0.728366
C43	C	2.186484	-0.439926	0.237259
C44	C	2.686484	0.060074	0.737259
C45	C	2.325911	-0.429227	0.231515
C46	C	2.825911	0.070773	0.731515
C47	C	1.859367	-0.464942	0.442693
C48	C	2.359367	0.035058	0.942693
C49	C	1.859397	-0.464903	0.524492
C50	C	2.359397	0.035097	1.024492
C51	C	1.834263	-0.137838	0.266498
C52	C	2.334263	0.362162	0.766498
C53	C	1.823595	0.001593	0.273214
C54	C	2.323595	0.501593	0.773214
C55	C	1.859293	-0.465030	0.059533
C56	C	2.359293	0.034970	0.559533
C57	C	1.859479	-0.464698	-0.022259
C58	C	2.359479	0.035302	0.477741
C59	C	1.933511	-0.378436	0.713249
C60	C	2.433511	0.121564	1.213249
C61	C	1.933524	-0.378398	0.790109
C62	C	2.433524	0.121602	1.290109
C63	C	1.785356	-0.551169	0.788979
C64	C	2.285356	-0.051169	1.288979
C65	C	1.785338	-0.551199	0.712121
C66	C	2.285338	-0.051199	1.212121
C67	C	1.859423	-0.464835	0.674257
C68	C	2.359423	0.035165	1.174257
C69	C	1.859453	-0.464766	0.827975
C70	C	2.359453	0.035234	1.327975
C71	C	1.859466	-0.464726	0.911310
C72	C	2.359466	0.035274	1.411310
C73	C	1.859409	-0.464873	0.590917
C74	C	2.359409	0.035127	1.090917
H75	H	1.374318	-0.359763	0.194221
H76	H	1.874318	0.140237	0.694221
C77	C	1.328561	-0.594633	0.320309
C78	C	1.828561	-0.094633	0.820309
N79	N	1.279303	-0.665323	0.358258
N80	N	1.779303	-0.165323	0.858258
H81	H	1.754146	-0.949989	0.316729
H82	H	2.254146	-0.449989	0.816729
C83	C	1.988886	-0.995792	0.169569
C84	C	2.488886	-0.495792	0.669569
N85	N	2.059551	-1.045064	0.125284
N86	N	2.559551	-0.545064	0.625284
H87	H	1.993832	-0.308109	0.682423
H88	H	2.493832	0.191891	1.182423
C89	C	2.015030	-0.283356	0.832995
C90	C	2.515030	0.216644	1.332995
N91	N	2.076424	-0.211766	0.865297
N92	N	2.576424	0.288234	1.365297
C93	C	1.703827	-0.646246	0.669229
C94	C	2.203827	-0.146246	1.169229
N95	N	1.642431	-0.717829	0.636922
N96	N	2.142431	-0.217829	1.136922
H97	H	1.725042	-0.621486	0.819817
H98	H	2.225042	-0.121486	1.319817
