data_functionalizedCrystal
_audit_creation_method	'MofGen! by Chris Wilmer'
_symmetry_space_group_name_H-M	'P1'
_symmetry_Int_Tables_number	1
_symmetry_cell_setting	triclinic
loop_
_symmetry_equiv_pos_as_xyz
  x,y,z
_cell_length_a	14.519709
_cell_length_b	12.837943
_cell_length_c	11.892095
_cell_angle_alpha	85.689237
_cell_angle_beta	93.895429
_cell_angle_gamma	89.254542
loop_
_atom_site_label
_atom_site_type_symbol
_atom_site_fract_x
_atom_site_fract_y
_atom_site_fract_z
O1	O	0.234472	1.382516	-0.093994
O2	O	0.222627	1.080689	-0.093999
O3	O	0.095003	1.239604	-0.093986
O4	O	0.362096	1.223600	-0.094006
O5	O	0.105626	1.226354	0.094021
O6	O	0.233249	1.067439	0.094008
O7	O	0.245095	1.369266	0.094013
Zn8	Zn	0.240859	1.216248	0.123860
Zn9	Zn	0.226863	1.233706	-0.123846
O10	O	0.372718	1.210350	0.094000
C11	C	0.065890	1.232233	0.000018
C12	C	-0.036684	1.229998	0.000018
C13	C	0.243785	1.414519	0.000008
C14	C	0.255718	1.529619	0.000002
C15	C	0.223936	1.035436	0.000004
C16	C	0.212002	0.920337	0.000002
C17	C	-0.412293	1.221771	-0.000011
C18	C	-0.307787	1.224056	-0.000003
C19	C	-0.224492	1.225884	0.000004
C20	C	-0.119979	1.228169	0.000011
C21	C	0.401831	1.217722	-0.000006
C22	C	0.504405	1.219957	-0.000014
N23	N	0.250411	1.204342	0.292913
C24	C	0.112249	1.770309	0.000025
C25	C	0.123458	1.878456	0.000019
C26	C	0.289344	1.854061	-0.000006
C27	C	0.278135	1.745914	-0.000001
C28	C	0.189585	1.704043	0.000013
C29	C	0.178377	1.595894	0.000010
C30	C	0.344263	1.571500	-0.000007
C31	C	0.355471	1.679647	-0.000012
N32	N	0.217304	1.245621	-0.292899
C33	C	0.150784	1.328474	0.529571
C34	C	0.157468	1.320158	0.647913
C35	C	0.270458	1.179392	0.647939
C36	C	0.263774	1.187707	0.529598
C37	C	0.203936	1.262251	0.470418
C38	C	0.197257	1.270571	0.352075
C39	C	0.310241	1.129800	0.352104
C40	C	0.316926	1.121485	0.470445
H41	H	0.106275	1.561805	0.000017
H42	H	0.040148	1.736218	0.000025
H43	H	0.353524	1.075880	0.303928
H44	H	0.407235	1.517533	-0.000017
C45	C	0.382715	1.039463	0.535543
H46	H	0.413401	1.001202	0.483361
H47	H	0.427020	1.073554	0.581719
H48	H	0.348297	0.993007	0.581697
H49	H	0.102068	1.389177	0.481386
H50	H	0.361438	1.888172	-0.000007
C51	C	0.038388	1.951347	0.000022
H52	H	-0.015952	1.910918	0.000021
H53	H	0.043016	1.989430	0.065579
H54	H	0.035607	1.998655	-0.065554
H55	H	0.148536	1.331271	0.303892
H56	H	0.114185	1.374082	0.696072
C57	C	0.336270	1.097400	0.713050
H58	H	0.332637	1.101938	0.792001
H59	H	0.319048	1.029551	0.693671
H60	H	0.397734	1.110142	0.693658
H61	H	0.427567	1.713754	-0.000020
