data_functionalizedCrystal
_audit_creation_method	'MofGen! by Chris Wilmer'
_symmetry_space_group_name_H-M	'P1'
_symmetry_Int_Tables_number	1
_symmetry_cell_setting	triclinic
loop_
_symmetry_equiv_pos_as_xyz
  x,y,z
_cell_length_a	12.594517
_cell_length_b	25.639239
_cell_length_c	25.639234
_cell_angle_alpha	90.021106
_cell_angle_beta	90.011310
_cell_angle_gamma	90.038486
loop_
_atom_site_label
_atom_site_type_symbol
_atom_site_fract_x
_atom_site_fract_y
_atom_site_fract_z
Zn1	Zn	1.626994	-0.208205	0.295624
Zn2	Zn	1.626846	-0.295627	0.208189
Zn3	Zn	1.449029	-0.208208	0.208201
Zn4	Zn	1.448910	-0.295611	0.295591
O5	O	1.537945	-0.251913	0.251901
O6	O	1.775920	-0.219808	0.284034
O7	O	1.603246	-0.284039	0.135025
O8	O	1.472749	-0.135042	0.219817
O9	O	1.775811	-0.284037	0.219796
O10	O	1.603499	-0.135040	0.284046
O11	O	1.472605	-0.219812	0.135034
O12	O	1.300068	-0.219796	0.219785
O13	O	1.472545	-0.284008	0.368761
O14	O	1.299980	-0.284011	0.283991
O15	O	1.603383	-0.219792	0.368785
O16	O	1.603130	-0.368790	0.219764
O17	O	1.472402	-0.368778	0.283978
C18	C	1.261404	-0.251902	0.251886
C19	C	1.143098	-0.251910	0.251892
C20	C	1.537766	-0.387755	0.251877
C21	C	1.537787	-0.445869	0.251885
C22	C	1.073862	-0.216936	0.217037
C23	C	1.003017	-0.264625	0.204172
C24	C	1.003144	-0.204245	0.264766
C25	C	1.073812	-0.299624	0.239002
C26	C	1.073945	-0.239212	0.299618
C27	C	1.003132	-0.286934	0.286771
C28	C	1.606193	-0.806226	0.218522
C29	C	1.606234	-0.860830	0.218529
O30	O	1.664210	-0.889062	0.190136
N31	N	1.538132	-0.888152	0.251936
C32	C	1.469992	-0.860866	0.285342
O33	O	1.412070	-0.889119	0.313759
C34	C	1.469957	-0.806263	0.285337
C35	C	1.538056	-0.778944	0.251924
C36	C	1.674287	-0.778908	0.185112
C37	C	1.674244	-0.724307	0.185104
C38	C	1.606107	-0.697025	0.218507
C39	C	1.538013	-0.724344	0.251917
C40	C	1.401822	-0.778978	0.318746
C41	C	1.401794	-0.724371	0.318738
C42	C	1.469893	-0.697052	0.285325
C43	C	1.469832	-0.642461	0.285312
N44	N	1.537935	-0.615140	0.251904
C45	C	1.606072	-0.642422	0.218502
C46	C	1.470072	-0.975537	0.285350
C47	C	1.470101	-1.030139	0.285353
C48	C	1.606345	-1.030100	0.218540
C49	C	1.606310	-0.975496	0.218535
C50	C	1.538174	-0.948215	0.251943
C51	C	1.605976	-0.527757	0.218488
C52	C	1.605924	-0.473151	0.218482
C53	C	1.469684	-0.473195	0.285297
C54	C	1.469732	-0.527796	0.285301
C55	C	1.537886	-0.555075	0.251895
O56	O	1.411889	-0.614195	0.313691
O57	O	1.663994	-0.614162	0.190095
C58	C	1.815566	-0.251924	0.251917
C59	C	1.933871	-0.251928	0.251924
C60	C	1.537968	-0.251898	0.388274
C61	C	1.537977	-0.251892	0.446389
C62	C	1.538154	-0.115540	0.251937
C63	C	1.538242	-0.057426	0.251952
C64	C	1.537984	-0.251890	0.116059
C65	C	1.538180	-0.251749	0.057945
C66	C	1.469921	-0.285264	0.697564
C67	C	1.469902	-0.285275	0.642959
O68	O	1.411937	-0.313702	0.614707
N69	N	1.538018	-0.251849	0.615663
C70	C	1.606149	-0.218406	0.642973
O71	O	1.664084	-0.189975	0.614741
C72	C	1.606161	-0.218392	0.697576
C73	C	1.538049	-0.251824	0.724870
C74	C	1.401814	-0.318692	0.724858
C75	C	1.401834	-0.318681	0.779459
C76	C	1.469962	-0.285241	0.806765
C77	C	1.538069	-0.251812	0.779471
C78	C	1.674286	-0.184946	0.724885
C79	C	1.674292	-0.184934	0.779492
C80	C	1.606180	-0.218366	0.806786
C81	C	1.606218	-0.218361	0.861378
N82	N	1.538102	-0.251787	0.888675
C83	C	1.469974	-0.285227	0.861368
C84	C	1.606116	-0.218437	0.528302
C85	C	1.606110	-0.218453	0.473700
C86	C	1.469862	-0.285322	0.473690
C87	C	1.469874	-0.285308	0.528294
C88	C	1.538001	-0.251863	0.555599
C89	C	1.470023	-0.285201	0.976033
C90	C	1.470052	-0.285189	1.030639
C91	C	1.606296	-0.218318	1.030644
C92	C	1.606271	-0.218332	0.976043
C93	C	1.538126	-0.251776	0.948739
O94	O	1.664151	-0.189948	0.889665
O95	O	1.412039	-0.313648	0.889607
H96	H	1.104917	-0.187389	0.187526
F97	F	0.962793	-0.325645	0.325316
H98	H	1.661830	-1.052322	0.191344
H99	H	1.414579	-0.953327	0.312553
H100	H	1.346311	-0.702161	0.345945
F101	F	1.746794	-0.149332	0.808550
F102	F	1.397379	-0.320890	0.557337
H103	H	1.414586	-0.312415	1.052859
H104	H	1.414283	-0.550040	0.312510
F105	F	1.329350	-0.808041	0.354314
F106	F	0.962562	-0.151548	0.278980
H107	H	1.105124	-0.228445	0.339953
H108	H	1.104725	-0.339954	0.228082
F109	F	1.397496	-0.320796	0.946982
H110	H	1.414386	-0.312550	0.451447
F111	F	1.678801	-0.182732	1.059715
F112	F	1.397609	-1.059207	0.320910
F113	F	1.678513	-0.556782	0.182934
F114	F	1.678618	-0.182877	0.444657
H115	H	1.346367	-0.345903	0.801677
F116	F	1.678407	-0.444080	0.182918
F117	F	1.678642	-0.182843	0.557358
F118	F	1.329294	-0.354286	0.695805
F119	F	1.746738	-0.695239	0.149547
F120	F	1.746780	-0.149362	0.695848
F121	F	1.678775	-0.182757	0.946993
H122	H	0.971864	-0.275377	0.163825
F123	F	1.678790	-0.946427	0.182973
F124	F	1.746817	-0.807935	0.149558
H125	H	1.414204	-0.450974	0.312491
