data_functionalizedCrystal
_audit_creation_method	'MofGen! by Chris Wilmer'
_symmetry_space_group_name_H-M	'P1'
_symmetry_Int_Tables_number	1
_symmetry_cell_setting	triclinic
loop_
_symmetry_equiv_pos_as_xyz
  x,y,z
_cell_length_a	10.723024
_cell_length_b	27.731996
_cell_length_c	9.798715
_cell_angle_alpha	89.990899
_cell_angle_beta	89.996609
_cell_angle_gamma	83.544628
loop_
_atom_site_label
_atom_site_type_symbol
_atom_site_fract_x
_atom_site_fract_y
_atom_site_fract_z
O1	O	1.654349	0.067791	-0.113502
O2	O	1.290925	0.074280	-0.113509
O3	O	1.483958	0.000707	-0.113476
O4	O	1.461316	0.141363	-0.113535
O5	O	1.483944	0.000707	0.113507
O6	O	1.290911	0.074279	0.113474
O7	O	1.654335	0.067790	0.113480
Zn8	Zn	1.472621	0.071035	0.149515
Zn9	Zn	1.472639	0.071035	-0.149544
O10	O	1.461302	0.141363	0.113447
C11	C	1.244438	0.073807	-0.000018
C12	C	1.105943	0.072394	-0.000019
C13	C	0.916023	0.028508	-0.000003
C14	C	1.059165	0.029967	-0.000002
C15	C	1.483486	-0.017304	0.000020
C16	C	1.482085	-0.070968	0.000034
C17	C	1.473279	-0.403739	-0.123761
C18	C	1.467959	-0.605431	-0.123785
O19	O	1.467224	-0.631506	-0.229012
N20	N	1.467290	-0.630652	-0.000058
C21	C	1.467943	-0.605447	0.123684
O22	O	1.467240	-0.631527	0.228920
C23	C	1.473254	-0.403756	0.123706
C24	C	1.473936	-0.378538	-0.000029
C25	C	1.473958	-0.378521	-0.247486
C26	C	1.475295	-0.328102	-0.247478
C27	C	1.475952	-0.302900	-0.123746
C28	C	1.475272	-0.328119	-0.000021
C29	C	1.473899	-0.378552	0.247446
C30	C	1.475223	-0.328126	0.247441
C31	C	1.475905	-0.302908	0.123706
C32	C	1.477266	-0.252498	0.123718
N33	N	1.477935	-0.227277	-0.000009
C34	C	1.477278	-0.252478	-0.123741
C35	C	1.465158	-0.711338	0.123663
C36	C	1.463832	-0.761760	0.123658
C37	C	1.463845	-0.761740	-0.123811
C38	C	1.465179	-0.711317	-0.123805
C39	C	1.465826	-0.686116	-0.000064
C40	C	1.480086	-0.146593	-0.123716
C41	C	1.481428	-0.096170	-0.123698
C42	C	1.481408	-0.096194	0.123770
C43	C	1.480073	-0.146613	0.123753
C44	C	1.479408	-0.171812	-0.000002
O45	O	1.477988	-0.226391	0.228889
O46	O	1.477954	-0.226388	-0.228962
C47	C	1.471942	-0.454159	-0.123768
C48	C	1.471262	-0.479377	-0.000043
C49	C	1.471919	-0.454176	0.123689
C50	C	1.469937	-0.529800	-0.000049
C51	C	1.469280	-0.555001	-0.123781
C52	C	1.469948	-0.529780	-0.247507
C53	C	1.471285	-0.479360	-0.247500
C54	C	1.471251	-0.479397	0.247416
C55	C	1.469915	-0.529817	0.247398
C56	C	1.469258	-0.555018	0.123666
C57	C	1.700822	0.068263	-0.000014
C58	C	1.839317	0.069676	-0.000021
C59	C	1.461774	0.159374	-0.000052
C60	C	1.463175	0.213038	-0.000075
N61	N	1.472617	0.071034	0.353615
N62	N	1.472653	0.071032	-0.353643
C63	C	1.553672	0.040007	0.421406
C64	C	1.553692	0.040005	0.578568
H65	H	1.481985	-0.075640	-0.224462
C66	C	1.126289	-0.044582	0.116707
C67	C	1.148125	-0.017613	0.000016
H68	H	1.181207	-0.073958	0.116709
H69	H	1.141090	-0.026284	0.195838
H70	H	1.041762	-0.051800	0.116697
H71	H	1.232650	-0.010392	0.000031
H72	H	1.133334	-0.035915	-0.079136
H73	H	1.040042	0.107639	-0.000040
H74	H	1.403233	0.097595	0.411927
H75	H	1.623048	0.013443	0.363095
H76	H	1.469370	-0.550346	0.348166
H77	H	1.403259	0.097599	0.588068
C78	C	0.967585	0.122128	-0.116741
C79	C	0.893701	0.118718	-0.000053
H80	H	1.001147	0.152408	-0.116764
H81	H	1.034254	0.096494	-0.116714
H82	H	0.917450	0.119803	-0.195883
H83	H	0.943838	0.121039	0.079089
H84	H	0.827023	0.144359	-0.000068
C85	C	1.480206	-0.141494	-0.368329
C86	C	1.479334	-0.174285	-0.259748
H87	H	1.479746	-0.158591	-0.452306
H88	H	1.407949	-0.118378	-0.363157
H89	H	1.553527	-0.125280	-0.363172
H90	H	1.406008	-0.190497	-0.264899
H91	H	1.551598	-0.197410	-0.264922
C92	C	1.361139	-0.581394	-0.391039
C93	C	1.469213	-0.557490	-0.383512
H94	H	1.360677	-0.598501	-0.475000
H95	H	1.360561	-0.603622	-0.317345
H96	H	1.288884	-0.558269	-0.385900
H97	H	1.541469	-0.580615	-0.388642
H98	H	1.469802	-0.535260	-0.457227
C99	C	1.628004	-0.043451	0.622838
C100	C	1.647375	0.004142	0.657256
H101	H	1.685847	-0.065592	0.671414
H102	H	1.544764	-0.048891	0.646215
H103	H	1.640284	-0.048149	0.527544
H104	H	1.635086	0.008841	0.752550
H105	H	1.730635	0.009583	0.633889
H106	H	0.875722	-0.007817	0.000033
H107	H	1.475845	-0.307573	-0.348236
H108	H	1.473419	-0.399034	-0.348249
H109	H	1.465732	-0.690788	-0.224561
H110	H	1.463311	-0.782268	-0.224559
H111	H	1.463296	-0.782290	0.224415
C112	C	1.465041	-0.716435	0.368274
C113	C	1.465894	-0.683642	0.259692
H114	H	1.465511	-0.699338	0.452251
H115	H	1.391735	-0.732650	0.363127
H116	H	1.537312	-0.739550	0.363092
H117	H	1.393617	-0.660529	0.264868
H118	H	1.539208	-0.667419	0.264841
H119	H	1.475731	-0.307609	0.348208
C120	C	1.365011	-0.430152	0.390996
C121	C	1.473097	-0.406254	0.383473
H122	H	1.364508	-0.447252	0.474980
H123	H	1.292772	-0.407028	0.385792
H124	H	1.364463	-0.452389	0.317326
H125	H	1.473641	-0.384013	0.457138
H126	H	1.545355	-0.429380	0.388691
C127	C	1.371291	-0.198253	0.267311
C128	C	1.479355	-0.174343	0.259753
H129	H	1.370852	-0.215373	0.351268
H130	H	1.299037	-0.175135	0.262192
H131	H	1.370710	-0.220475	0.193606
H132	H	1.479931	-0.152119	0.333452
H133	H	1.551628	-0.197465	0.264884
C134	C	1.483426	-0.018903	0.233633
C135	C	1.482122	-0.068485	0.259772
H136	H	1.483851	-0.001797	0.317598
H137	H	1.556437	-0.014088	0.182815
H138	H	1.410859	-0.007198	0.182777
H139	H	1.554694	-0.080192	0.310620
H140	H	1.409103	-0.073303	0.310612
C141	C	1.365376	-0.417596	-0.391059
C142	C	1.471944	-0.451654	-0.383537
H143	H	1.365765	-0.400495	-0.475052
H144	H	1.292106	-0.433831	-0.385834
H145	H	1.365997	-0.395357	-0.317400
H146	H	1.471318	-0.473895	-0.457191
H147	H	1.545233	-0.435418	-0.388776
H148	H	1.471787	-0.458884	0.348175
