data_functionalizedCrystal
_audit_creation_method	'MofGen! by Chris Wilmer'
_symmetry_space_group_name_H-M	'P1'
_symmetry_Int_Tables_number	1
_symmetry_cell_setting	triclinic
loop_
_symmetry_equiv_pos_as_xyz
  x,y,z
_cell_length_a	11.169417
_cell_length_b	16.625545
_cell_length_c	16.625539
_cell_angle_alpha	90.026243
_cell_angle_beta	90.013727
_cell_angle_gamma	90.026437
loop_
_atom_site_label
_atom_site_type_symbol
_atom_site_fract_x
_atom_site_fract_y
_atom_site_fract_z
Zn1	Zn	1.834763	-0.320996	0.455839
Zn2	Zn	2.084763	-0.070996	0.705839
Zn3	Zn	2.334763	0.179004	0.955839
Zn4	Zn	2.584763	0.429004	1.205839
Zn5	Zn	1.834621	-0.455835	0.321007
Zn6	Zn	2.084621	-0.205835	0.571007
Zn7	Zn	2.334621	0.044165	0.821007
Zn8	Zn	2.584621	0.294165	1.071007
Zn9	Zn	1.634070	-0.321022	0.321027
Zn10	Zn	1.884070	-0.071022	0.571027
Zn11	Zn	2.134070	0.178978	0.821027
Zn12	Zn	2.384070	0.428978	1.071027
Zn13	Zn	1.634003	-0.455793	0.455804
Zn14	Zn	1.884003	-0.205793	0.705804
Zn15	Zn	2.134003	0.044207	0.955804
Zn16	Zn	2.384003	0.294207	1.205804
O17	O	1.734364	-0.388411	0.388419
O18	O	1.984364	-0.138411	0.638419
O19	O	2.234364	0.111589	0.888419
O20	O	2.484364	0.361589	1.138419
O21	O	2.002694	-0.338890	0.437959
O22	O	2.252694	-0.088890	0.687959
O23	O	2.502694	0.161110	0.937959
O24	O	2.752694	0.411110	1.187959
O25	O	1.807986	-0.437980	0.208177
O26	O	2.057986	-0.187980	0.458177
O27	O	2.307986	0.062020	0.708177
O28	O	2.557986	0.312020	0.958177
O29	O	1.660780	-0.208186	0.338933
O30	O	1.910780	0.041814	0.588933
O31	O	2.160780	0.291814	0.838933
O32	O	2.410780	0.541814	1.088933
O33	O	2.002589	-0.437955	0.338898
O34	O	2.252589	-0.187955	0.588898
O35	O	2.502589	0.062045	0.838898
O36	O	2.752589	0.312045	1.088898
O37	O	1.808229	-0.208167	0.437979
O38	O	2.058229	0.041833	0.687979
O39	O	2.308229	0.291833	0.937979
O40	O	2.558229	0.541833	1.187979
O41	O	1.660642	-0.338934	0.208192
O42	O	1.910642	-0.088934	0.458192
O43	O	2.160642	0.161066	0.708192
O44	O	2.410642	0.411066	0.958192
O45	O	1.466112	-0.338893	0.338900
O46	O	1.716112	-0.088893	0.588900
O47	O	1.966112	0.161107	0.838900
O48	O	2.216112	0.411107	1.088900
O49	O	1.660666	-0.437883	0.568641
O50	O	1.910666	-0.187883	0.818641
O51	O	2.160666	0.062117	1.068641
O52	O	2.410666	0.312117	1.318641
O53	O	1.466062	-0.437908	0.437920
O54	O	1.716062	-0.187908	0.687920
O55	O	1.966062	0.062092	0.937920
O56	O	2.216062	0.312092	1.187920
O57	O	1.808163	-0.338849	0.568667
O58	O	2.058163	-0.088849	0.818667
O59	O	2.308163	0.161151	1.068667
O60	O	2.558163	0.411151	1.318667
O61	O	1.807920	-0.568662	0.338865
O62	O	2.057920	-0.318662	0.588865
O63	O	2.307920	-0.068662	0.838865
O64	O	2.557920	0.181338	1.088865
O65	O	1.660528	-0.568631	0.437900
O66	O	1.910528	-0.318631	0.687900
O67	O	2.160528	-0.068631	0.937900
O68	O	2.410528	0.181369	1.187900
C69	C	1.422540	-0.388399	0.388409
C70	C	1.672540	-0.138399	0.638409
C71	C	1.922540	0.111601	0.888409
C72	C	2.172540	0.361601	1.138409
C73	C	1.289140	-0.388413	0.388424
C74	C	1.539140	-0.138413	0.638424
C75	C	1.789140	0.111587	0.888424
C76	C	2.039140	0.361587	1.138424
C77	C	1.734234	-0.597902	0.388394
C78	C	1.984234	-0.347902	0.638394
C79	C	2.234234	-0.097902	0.888394
C80	C	2.484234	0.152098	1.138394
C81	C	1.734288	-0.687523	0.388410
C82	C	1.984288	-0.437523	0.638410
C83	C	2.234288	-0.187523	0.888410
C84	C	2.484288	0.062477	1.138410
C85	C	1.734335	-0.760306	0.388426
C86	C	1.984335	-0.510306	0.638426
C87	C	2.234335	-0.260306	0.888426
C88	C	2.484335	-0.010306	1.138426
C89	C	1.734404	-0.851614	0.388444
C90	C	1.984404	-0.601614	0.638444
C91	C	2.234404	-0.351614	0.888444
C92	C	2.484404	-0.101614	1.138444
C93	C	1.734467	-0.924391	0.388454
C94	C	1.984467	-0.674391	0.638454
C95	C	2.234467	-0.424391	0.888454
C96	C	2.484467	-0.174391	1.138454
C97	C	1.734535	-1.015705	0.388471
C98	C	1.984535	-0.765705	0.638471
C99	C	2.234535	-0.515705	0.888471
C100	C	2.484535	-0.265705	1.138471
C101	C	2.047407	-0.388424	0.388430
C102	C	2.297407	-0.138424	0.638430
C103	C	2.547407	0.111576	0.888430
C104	C	2.797407	0.361576	1.138430
C105	C	2.180807	-0.388430	0.388435
C106	C	2.430807	-0.138430	0.638435
C107	C	2.680807	0.111570	0.888435
C108	C	2.930807	0.361570	1.138435
C109	C	1.734423	-0.388358	0.598728
C110	C	1.984423	-0.138358	0.848728
C111	C	2.234423	0.111642	1.098728
C112	C	2.484423	0.361642	1.348728
C113	C	1.734448	-0.388336	0.688349
C114	C	1.984448	-0.138336	0.938349
C115	C	2.234448	0.111664	1.188349
C116	C	2.484448	0.361664	1.438349
C117	C	1.734528	-0.178102	0.388462
C118	C	1.984528	0.071898	0.638462
C119	C	2.234528	0.321898	0.888462
C120	C	2.484528	0.571898	1.138462
C121	C	1.734598	-0.088481	0.388481
C122	C	1.984598	0.161519	0.638481
C123	C	2.234598	0.411519	0.888481
C124	C	2.484598	0.661519	1.138481
C125	C	1.734375	-0.388406	0.178928
C126	C	1.984375	-0.138406	0.428928
C127	C	2.234375	0.111594	0.678928
C128	C	2.484375	0.361594	0.928928
C129	C	1.734582	-0.388202	0.089308
C130	C	1.984582	-0.138202	0.339308
C131	C	2.234582	0.111798	0.589308
C132	C	2.484582	0.361798	0.839308
C133	C	1.734468	-0.388318	0.761132
C134	C	1.984468	-0.138318	1.011132
C135	C	2.234468	0.111682	1.261132
C136	C	2.484468	0.361682	1.511132
C137	C	1.734496	-0.388288	0.852440
C138	C	1.984496	-0.138288	1.102440
C139	C	2.234496	0.111712	1.352440
C140	C	2.484496	0.361712	1.602440
C141	C	1.734524	-0.388259	0.925217
C142	C	1.984524	-0.138259	1.175217
C143	C	2.234524	0.111741	1.425217
C144	C	2.484524	0.361741	1.675217
C145	C	1.734554	-0.388230	1.016531
C146	C	1.984554	-0.138230	1.266531
C147	C	2.234554	0.111770	1.516531
C148	C	2.484554	0.361770	1.766531
