data_functionalizedCrystal
_audit_creation_method	'MofGen! by Chris Wilmer'
_symmetry_space_group_name_H-M	'P1'
_symmetry_Int_Tables_number	1
_symmetry_cell_setting	triclinic
loop_
_symmetry_equiv_pos_as_xyz
  x,y,z
_cell_length_a	12.759401
_cell_length_b	18.101397
_cell_length_c	12.759393
_cell_angle_alpha	89.962348
_cell_angle_beta	89.981504
_cell_angle_gamma	90.020627
loop_
_atom_site_label
_atom_site_type_symbol
_atom_site_fract_x
_atom_site_fract_y
_atom_site_fract_z
Zn1	Zn	1.606213	-0.294783	-0.593937
Zn2	Zn	1.606090	-0.418644	-0.418238
Zn3	Zn	1.430515	-0.294822	-0.418276
Zn4	Zn	1.430486	-0.418587	-0.593880
O5	O	1.518326	-0.356709	-0.506083
O6	O	1.753218	-0.311221	-0.570638
O7	O	1.582760	-0.402259	-0.271222
O8	O	1.453886	-0.191183	-0.441618
O9	O	1.753127	-0.402221	-0.441553
O10	O	1.582970	-0.191155	-0.570675
O11	O	1.453766	-0.311287	-0.271250
O12	O	1.283490	-0.311232	-0.441562
O13	O	1.453836	-0.402124	-0.740909
O14	O	1.283469	-0.402162	-0.570578
O15	O	1.582942	-0.311166	-0.740950
O16	O	1.582732	-0.522270	-0.441498
O17	O	1.453717	-0.522228	-0.570541
C18	C	1.245359	-0.356695	-0.506069
C19	C	1.128582	-0.356707	-0.506087
C20	C	1.073737	-0.404130	-0.573154
C21	C	0.964012	-0.404140	-0.573166
C22	C	0.963989	-0.309301	-0.439034
C23	C	1.073711	-0.309288	-0.439029
C24	C	1.128607	-0.451549	-0.640213
C25	C	1.073762	-0.498977	-0.707285
C26	C	0.964037	-0.498986	-0.707296
C27	C	0.909159	-0.451568	-0.640236
C28	C	1.518236	-0.549120	-0.506032
C29	C	1.518294	-0.631434	-0.506045
C30	C	1.518428	-0.930525	-0.506141
C31	C	1.599375	-0.899195	-0.424733
C32	C	1.599655	-0.813576	-0.424944
C33	C	1.518362	-0.782142	-0.506093
C34	C	1.548380	-0.813140	-0.616833
C35	C	1.549006	-0.898785	-0.616390
C36	C	1.407247	-0.899036	-0.477767
C37	C	1.407796	-0.813387	-0.475295
C38	C	1.518322	-0.698283	-0.506072
C39	C	1.518470	-1.014384	-0.506169
C40	C	1.792359	-0.356723	-0.506098
C41	C	1.909136	-0.356729	-0.506104
C42	C	1.518400	-0.356634	-0.780116
C43	C	1.518431	-0.356602	-0.896893
C44	C	1.518445	-0.163547	-0.506157
C45	C	1.518496	-0.081233	-0.506189
C46	C	1.585666	-0.309236	-0.951779
C47	C	1.585691	-0.309209	-1.061503
C48	C	1.451243	-0.403922	-1.061446
C49	C	1.451214	-0.403944	-0.951724
C50	C	1.652883	-0.261894	-0.896948
C51	C	1.720124	-0.214524	-0.951833
C52	C	1.720149	-0.214497	-1.061558
C53	C	1.652933	-0.261840	-1.116396
C54	C	1.518313	-0.356730	-0.233115
C55	C	1.518486	-0.356553	-0.116339
H56	H	1.580874	-0.792622	-0.342831
N57	N	1.129797	-0.547420	-0.775782
N58	N	1.080810	-0.589759	-0.835658
H59	H	1.120382	-0.623974	-0.884036
H60	H	0.919299	-0.270696	-0.384436
H61	H	0.919385	-0.537599	-0.761916
H62	H	0.819814	-0.451573	-0.640260
N63	N	1.129726	-0.260834	-0.370529
N64	N	1.080725	-0.218500	-0.310661
H65	H	1.120284	-0.184274	-0.262286
H66	H	1.396449	-0.442503	-0.907035
H67	H	1.628739	-0.791630	-0.641276
N68	N	1.652934	-0.261815	-1.228477
N69	N	1.570999	-0.246322	-1.277448
H70	H	1.571001	-0.246306	-1.356604
H71	H	1.492631	-0.919506	-0.679135
H72	H	1.580821	-0.919845	-0.342374
H73	H	1.652872	-0.261912	-0.807605
H74	H	1.396519	-0.442466	-1.106104
N75	N	1.372999	-0.926221	-0.378220
N76	N	1.430127	-0.969139	-0.326974
H77	H	1.405950	-0.988340	-0.256665
H78	H	1.681281	-0.920661	-0.443291
H79	H	1.682011	-0.793031	-0.443717
N80	N	1.379407	-0.787967	-0.373065
N81	N	1.371725	-0.720263	-0.355457
H82	H	1.351680	-0.702305	-0.283256
N83	N	1.650959	-0.923764	-0.646545
N84	N	1.721155	-0.877945	-0.667768
H85	H	1.793163	-0.895582	-0.689065
H86	H	1.491225	-0.792775	-0.679120
H87	H	1.344240	-0.791997	-0.530246
H88	H	1.217950	-0.451549	-0.640209
H89	H	1.774892	-0.175921	-1.106243
H90	H	1.346936	-0.919297	-0.537060
H91	H	1.774842	-0.175974	-0.907177
