data_functionalizedCrystal
_audit_creation_method	'MofGen! by Chris Wilmer'
_symmetry_space_group_name_H-M	'P1'
_symmetry_Int_Tables_number	1
_symmetry_cell_setting	triclinic
loop_
_symmetry_equiv_pos_as_xyz
  x,y,z
_cell_length_a	19.121102
_cell_length_b	19.121063
_cell_length_c	19.120904
_cell_angle_alpha	94.741613
_cell_angle_beta	90.088173
_cell_angle_gamma	90.126902
loop_
_atom_site_label
_atom_site_type_symbol
_atom_site_fract_x
_atom_site_fract_y
_atom_site_fract_z
Zn1	Zn	1.039579	-0.343506	-0.456040
Zn2	Zn	1.039493	-0.456149	-0.343386
Zn3	Zn	0.927792	-0.333518	-0.333417
Zn4	Zn	0.917325	-0.455677	-0.455570
O5	O	0.981047	-0.397212	-0.397103
O6	O	1.137479	-0.362826	-0.445465
O7	O	1.029020	-0.435899	-0.243797
O8	O	0.947038	-0.236577	-0.345708
O9	O	1.137415	-0.445584	-0.362699
O10	O	1.029167	-0.243915	-0.435798
O11	O	0.946954	-0.345802	-0.236473
O12	O	0.828493	-0.345345	-0.345252
O13	O	0.929198	-0.444780	-0.553899
O14	O	0.820803	-0.435094	-0.434997
O15	O	1.019018	-0.362368	-0.554244
O16	O	1.018870	-0.554352	-0.362243
O17	O	0.929114	-0.554005	-0.444664
C18	C	0.799261	-0.389085	-0.388992
C19	C	0.721490	-0.385626	-0.385539
C20	C	0.680968	-0.430793	-0.430575
C21	C	0.607894	-0.427534	-0.427334
C22	C	0.575344	-0.379110	-0.379053
C23	C	0.615872	-0.333937	-0.334016
C24	C	0.688944	-0.337194	-0.337261
C25	C	0.354913	-0.366933	-0.366924
C26	C	0.281835	-0.363681	-0.363681
C27	C	0.273863	-0.457277	-0.457000
C28	C	0.346937	-0.460532	-0.460238
C29	C	0.387458	-0.415357	-0.415203
C30	C	0.500651	-0.375778	-0.375738
C31	C	0.462149	-0.418686	-0.418523
C32	C	0.972865	-0.579659	-0.404501
C33	C	0.969428	-0.657714	-0.407691
C34	C	1.014577	-0.694545	-0.366317
C35	C	1.011348	-0.767887	-0.369323
C36	C	0.962966	-0.804396	-0.413699
C37	C	0.917815	-0.767560	-0.455078
C38	C	0.921048	-0.694220	-0.452076
C39	C	0.950869	-1.025828	-0.424912
C40	C	0.947638	-1.099173	-0.427909
C41	C	1.041173	-1.099494	-0.342155
C42	C	1.044399	-1.026153	-0.339154
C43	C	0.999250	-0.989323	-0.380535
C44	C	0.959663	-0.879363	-0.416770
C45	C	1.002557	-0.914358	-0.377467
C46	C	1.163544	-0.405372	-0.405246
C47	C	1.241313	-0.408849	-0.408717
C48	C	0.972950	-0.404635	-0.580263
C49	C	0.969500	-0.407799	-0.658315
C50	C	0.989280	-0.214054	-0.389693
C51	C	0.992788	-0.136003	-0.386535
C52	C	1.014640	-0.366379	-0.695165
C53	C	1.011390	-0.369348	-0.768503
C54	C	0.963001	-0.413741	-0.804990
C55	C	0.917856	-0.455162	-0.768135
C56	C	0.921103	-0.452188	-0.694798
C57	C	0.950853	-0.424862	-1.026410
C58	C	0.947610	-0.427833	-1.099752
C59	C	1.041143	-0.342019	-1.100115
C60	C	1.044390	-0.339052	-1.026777
C61	C	0.999242	-0.380470	-0.989928
C62	C	0.959679	-0.416779	-0.879953
C63	C	1.002561	-0.377429	-0.914966
C64	C	0.989156	-0.389769	-0.214655
C65	C	0.992751	-0.386414	-0.136602
H66	H	0.387897	-0.330153	-0.330248
C67	C	0.563317	-0.477223	-0.476868
C68	C	0.512013	-0.446884	-0.528592
C69	C	0.467434	-0.496575	-0.578127
C70	C	0.474159	-0.576604	-0.575938
C71	C	0.525464	-0.606947	-0.524211
C72	C	0.570043	-0.557256	-0.474676
H73	H	0.507034	-0.387638	-0.530215
H74	H	0.429455	-0.474113	-0.616419
H75	H	0.441159	-0.613388	-0.612606
H76	H	0.530444	-0.666193	-0.522588
H77	H	0.608023	-0.579718	-0.436384
H78	H	0.884283	-0.664233	-0.485768
H79	H	1.077899	-0.308298	-1.130125
H80	H	0.878454	-0.491305	-0.797848
C81	C	0.894400	-0.476691	-1.139891
C82	C	0.844754	-0.522268	-1.099362
C83	C	0.791560	-0.571136	-1.139503
C84	C	0.788011	-0.574428	-1.220172
C85	C	0.837659	-0.528849	-1.260705
C86	C	0.890853	-0.479981	-1.220565
H87	H	0.847379	-0.519832	-1.039642
H88	H	0.754807	-0.604876	-1.109497
H89	H	0.748634	-0.610603	-1.249886
H90	H	0.835033	-0.531285	-1.320426
H91	H	0.927605	-0.446241	-1.250570
C92	C	0.246021	-0.310409	-0.310577
C93	C	0.196904	-0.254338	-0.336646
C94	C	0.161086	-0.201070	-0.283547
C95	C	0.174385	-0.203873	-0.204377
C96	C	0.223505	-0.259946	-0.178304
C97	C	0.259323	-0.313214	-0.231404
H98	H	0.187056	-0.252261	-0.395256
H99	H	0.124724	-0.159561	-0.302848
H100	H	0.147871	-0.164441	-0.165070
H101	H	0.233353	-0.262024	-0.119694
H102	H	0.295685	-0.354723	-0.212102
C103	C	0.464839	-0.322517	-0.322628
C104	C	0.415726	-0.266438	-0.348691
C105	C	0.379909	-0.213176	-0.295585
C106	C	0.393204	-0.215993	-0.216417
C107	C	0.442319	-0.272074	-0.190350
C108	C	0.478136	-0.325336	-0.243456
H109	H	0.405882	-0.264351	-0.407300
H110	H	0.343551	-0.171661	-0.314882
H111	H	0.366690	-0.176565	-0.177104
H112	H	0.452163	-0.274161	-0.131741
H113	H	0.514495	-0.366851	-0.224160
C114	C	0.901183	-0.470426	-0.985897
C115	C	0.821457	-0.461539	-0.992222
C116	C	0.771779	-0.507107	-0.951713
C117	C	0.801827	-0.561561	-0.904879
C118	C	0.881556	-0.570450	-0.898552
C119	C	0.931234	-0.524882	-0.939061
H120	H	0.799211	-0.421227	-1.026893
H121	H	0.712758	-0.500526	-0.956397
H122	H	0.765052	-0.595293	-0.874892
H123	H	0.903803	-0.610762	-0.863881
H124	H	0.990256	-0.531463	-0.934377
C125	C	1.061014	-0.808396	-0.323807
C126	C	1.030957	-0.855280	-0.269366
C127	C	1.080627	-0.895787	-0.223848
C128	C	1.160354	-0.889411	-0.232770
C129	C	1.190415	-0.842525	-0.287213
C130	C	1.140745	-0.802018	-0.332731
H131	H	0.971935	-0.860003	-0.262759
H132	H	1.058373	-0.930496	-0.183545
H133	H	1.197122	-0.919397	-0.199074
H134	H	1.249437	-0.837803	-0.293820
H135	H	1.162999	-0.767310	-0.373033
C136	C	1.061047	-0.323791	-0.809042
C137	C	1.030977	-0.269345	-0.855872
C138	C	1.080635	-0.223786	-0.896412
C139	C	1.160364	-0.232672	-0.890121
C140	C	1.190438	-0.287120	-0.843289
C141	C	1.140779	-0.332680	-0.802749
H142	H	0.971953	-0.262765	-0.860530
H143	H	1.058372	-0.183480	-0.931080
H144	H	1.197124	-0.198947	-0.920132
H145	H	1.249461	-0.293701	-0.838631
H146	H	1.163043	-0.372986	-0.768081
C147	C	0.871452	-0.497752	-0.654258
C148	C	0.791722	-0.488876	-0.660552
C149	C	0.742068	-0.534438	-0.620011
C150	C	0.772142	-0.588876	-0.573175
C151	C	0.851876	-0.597755	-0.566879
C152	C	0.901530	-0.552193	-0.607420
H153	H	0.769456	-0.448575	-0.695225
H154	H	0.683044	-0.527865	-0.624673
H155	H	0.735385	-0.622604	-0.543164
H156	H	0.874142	-0.638056	-0.532206
H157	H	0.960554	-0.558766	-0.602758
H158	H	0.707464	-0.470228	-0.469888
H159	H	0.589364	-0.294506	-0.294708
C160	C	0.229289	-0.506961	-0.506542
C161	C	0.148912	-0.503382	-0.502981
C162	C	0.104338	-0.553066	-0.552528
C163	C	0.140142	-0.606329	-0.605637
C164	C	0.220523	-0.609911	-0.609201
C165	C	0.265096	-0.560227	-0.559654
H166	H	0.122404	-0.463951	-0.463664
H167	H	0.044834	-0.550414	-0.549889
H168	H	0.107146	-0.643108	-0.642314
H169	H	0.247031	-0.649341	-0.648517
H170	H	0.324600	-0.562878	-0.562292
C171	C	0.733523	-0.287509	-0.287722
C172	C	0.726793	-0.207479	-0.289904
C173	C	0.771371	-0.157789	-0.240368
C174	C	0.822680	-0.188129	-0.188650
C175	C	0.829413	-0.268163	-0.186466
C176	C	0.784834	-0.317853	-0.236002
H177	H	0.688809	-0.185016	-0.328191
H178	H	0.766387	-0.098543	-0.241986
H179	H	0.855680	-0.151346	-0.151980
H180	H	0.867397	-0.290626	-0.148179
H181	H	0.789818	-0.377099	-0.234384
H182	H	0.373433	-0.499966	-0.499552
C183	C	0.894416	-1.139335	-0.476728
C184	C	0.844754	-1.098826	-0.522247
C185	C	0.791533	-1.138988	-0.571060
C186	C	0.787974	-1.219659	-0.574354
C187	C	0.837638	-1.260172	-0.528834
C188	C	0.890859	-1.220010	-0.480021
H189	H	0.847386	-1.039105	-0.519809
H190	H	0.754768	-1.108998	-0.604757
H191	H	0.748577	-1.249389	-0.610489
H192	H	0.835006	-1.319893	-0.531271
H193	H	0.927624	-1.250001	-0.446324
H194	H	0.488655	-0.458110	-0.457836
H195	H	1.053972	-0.664824	-0.330178
C196	C	0.901204	-0.985326	-0.470432
C197	C	0.821477	-0.991695	-0.461507
C198	C	0.771809	-0.951193	-0.507032
C199	C	0.801869	-0.904321	-0.561482
C200	C	0.881601	-0.897950	-0.570409
C201	C	0.931268	-0.938452	-0.524884
H202	H	0.799221	-1.026395	-0.421198
H203	H	0.712787	-0.955910	-0.500424
H204	H	0.765102	-0.874339	-0.595182
H205	H	0.903856	-0.863251	-0.610718
H206	H	0.990291	-0.933736	-0.531493
H207	H	1.083795	-0.996429	-0.303019
H208	H	1.077932	-1.129489	-0.308466
H209	H	0.878424	-0.797292	-0.491213
C210	C	1.067869	-0.317546	-0.655033
C211	C	1.065298	-0.237871	-0.661632
C212	C	1.118526	-0.189034	-0.621502
C213	C	1.174326	-0.219873	-0.574772
C214	C	1.176898	-0.299552	-0.568171
C215	C	1.123670	-0.348388	-0.608301
H216	H	1.023990	-0.215039	-0.696226
H217	H	1.116621	-0.130051	-0.626389
H218	H	1.213728	-0.183721	-0.545065
H219	H	1.218206	-0.322384	-0.533577
H220	H	1.125575	-0.407372	-0.603414
H221	H	1.041952	-0.884631	-0.341339
H222	H	1.083794	-0.302905	-0.997075
H223	H	0.920269	-0.909097	-0.452900
H224	H	1.041956	-0.341281	-0.885255
H225	H	0.920284	-0.452927	-0.909669
