data_functionalizedCrystal
_audit_creation_method	'MofGen! by Chris Wilmer'
_symmetry_space_group_name_H-M	'P1'
_symmetry_Int_Tables_number	1
_symmetry_cell_setting	triclinic
loop_
_symmetry_equiv_pos_as_xyz
  x,y,z
_cell_length_a	10.540510
_cell_length_b	10.540539
_cell_length_c	9.016244
_cell_angle_alpha	90.000067
_cell_angle_beta	90.007604
_cell_angle_gamma	84.519401
loop_
_atom_site_label
_atom_site_type_symbol
_atom_site_fract_x
_atom_site_fract_y
_atom_site_fract_z
O1	O	-1.685915	-0.178715	-0.123342
O2	O	-1.316497	-0.195611	-0.123342
O3	O	-1.509634	-0.002455	-0.123340
O4	O	-1.492778	-0.371870	-0.123344
O5	O	-1.509606	-0.002460	0.123341
O6	O	-1.316469	-0.195615	0.123339
O7	O	-1.685887	-0.178719	0.123339
Cu8	Cu	-1.501175	-0.187168	0.145863
Cu9	Cu	-1.501209	-0.187162	-0.145866
O10	O	-1.492750	-0.371875	0.123337
C11	C	-1.269179	-0.194354	-0.000002
C12	C	-1.128229	-0.190587	-0.000002
C13	C	-1.508356	0.044845	-0.000003
C14	C	-1.504574	0.185793	-0.000011
C15	C	-1.733204	-0.179976	-0.000005
C16	C	-1.874154	-0.183743	-0.000014
C17	C	-0.910774	-0.324771	-0.000570
C18	C	-1.057370	-0.328789	-0.000005
C19	C	-1.083453	-0.119843	0.140862
C20	C	-0.936692	-0.116804	0.140971
C21	C	-0.936919	-0.113921	-0.139551
C22	C	-1.083260	-0.120476	-0.141404
C23	C	-1.494028	-0.419175	-0.000004
C24	C	-1.497810	-0.560123	-0.000006
N25	N	-1.501161	-0.187170	0.351049
C26	C	-1.359655	0.369204	-0.000564
C27	C	-1.363489	0.222587	-0.000009
C28	C	-1.572454	0.247455	0.140856
C29	C	-1.567639	0.393999	0.140975
C30	C	-1.570541	0.394523	-0.139547
C31	C	-1.571841	0.247541	-0.141410
N32	N	-1.501233	-0.187150	-0.351052
C33	C	-1.397528	-0.290149	0.586080
C34	C	-1.397757	-0.290535	0.414189
C35	C	-1.633885	-0.217290	0.413387
C36	C	-1.633320	-0.218019	0.585332
C37	C	-1.473387	-0.053735	0.585594
C38	C	-1.470341	-0.054600	0.413639
H39	H	-0.868832	-0.378611	-0.101592
N40	N	-1.146229	0.014921	0.147832
H41	H	-1.122885	0.063180	0.056585
H42	H	-1.241784	0.013179	0.152383
N43	N	-0.853144	-0.395692	0.132484
H44	H	-0.803417	-0.336865	0.193119
H45	H	-0.923315	-0.426619	0.195275
H46	H	-1.309678	0.180823	0.101138
N47	N	-1.573519	0.047822	0.639473
H48	H	-1.555137	0.133323	0.598425
H49	H	-1.660260	0.027125	0.604672
N50	N	-0.880722	-0.171783	-0.280980
H51	H	-0.950323	-0.205672	-0.342165
H52	H	-0.840180	-0.104551	-0.339383
N53	N	-1.510075	0.436312	-0.280974
H54	H	-1.480129	0.358937	-0.342169
H55	H	-1.574717	0.492947	-0.339369
N56	N	-1.121204	-0.188630	-0.279452
H57	H	-1.167330	-0.264605	-0.250534
H58	H	-1.179239	-0.128416	-0.341922
H59	H	-1.298601	-0.272307	0.627474
H60	H	-1.310076	0.179979	-0.100988
N61	N	-1.501137	0.431349	0.280441
H62	H	-1.497346	0.526725	0.281912
H63	H	-1.549823	0.404900	0.369963
N64	N	-1.094977	-0.402547	0.133977
H65	H	-1.067837	-0.359342	0.227172
H66	H	-1.190469	-0.405462	0.134772
H67	H	-1.712963	-0.146021	0.626915
N68	N	-0.883392	-0.180845	0.280444
H69	H	-0.955265	-0.210782	0.341275
H70	H	-0.821560	-0.256335	0.253023
H71	H	-0.913696	-0.013438	0.147371
N72	N	-1.148247	0.013178	-0.152683
H73	H	-1.208024	0.030253	-0.065901
H74	H	-1.081919	0.076273	-0.151480
N75	N	-1.124281	-0.184911	0.279742
H76	H	-1.220213	-0.183529	0.281363
H77	H	-1.084877	-0.276088	0.281056
N78	N	-0.907587	0.023525	-0.140819
H79	H	-0.853912	0.040537	-0.051496
H80	H	-0.859427	0.040902	-0.234334
N81	N	-1.738613	-0.120647	0.359194
H82	H	-1.823065	-0.141871	0.400622
H83	H	-1.720946	-0.032803	0.393392
N84	N	-1.420974	-0.420523	0.643241
H85	H	-1.416569	-0.420991	0.755144
H86	H	-1.508112	-0.441701	0.610435
N87	N	-1.285832	0.407079	-0.134365
H88	H	-1.341221	0.470420	-0.195920
H89	H	-1.207427	0.447102	-0.100626
H90	H	-1.674703	0.223331	-0.149916
H91	H	-1.540869	0.025728	0.370664
H92	H	-1.304138	0.399404	0.099888
H93	H	-1.669105	0.441979	0.147366
H94	H	-1.676063	0.225112	0.146094
N95	N	-1.340996	-0.024403	0.359663
H96	H	-1.350319	0.057243	0.300350
H97	H	-1.283517	-0.014013	0.447584
N98	N	-1.509989	0.191011	0.279722
H99	H	-1.437733	0.125515	0.251705
H100	H	-1.475653	0.260843	0.340105
N101	N	-1.506130	0.193316	-0.279446
H102	H	-1.510585	0.098054	-0.282262
H103	H	-1.549844	0.233475	-0.369952
H104	H	-1.672446	0.441760	-0.140494
H105	H	-1.658784	-0.313525	0.370308
N106	N	-1.347874	-0.015779	0.643099
H107	H	-1.276822	-0.081416	0.611832
H108	H	-1.332006	0.070100	0.601054
H109	H	-1.415657	-0.389517	0.373042
N110	N	-1.096271	-0.402096	-0.133761
H111	H	-1.018123	-0.432088	-0.193620
H112	H	-1.140094	-0.478185	-0.100009
N113	N	-1.267123	-0.266544	0.358369
H114	H	-1.202140	-0.335738	0.395896
H115	H	-1.267128	-0.266725	0.246354
N116	N	-1.665579	-0.346945	0.638449
H117	H	-1.680031	-0.402770	0.550168
H118	H	-1.592803	-0.388012	0.699975
