data_functionalizedCrystal
_audit_creation_method	'MofGen! by Chris Wilmer'
_symmetry_space_group_name_H-M	'P1'
_symmetry_Int_Tables_number	1
_symmetry_cell_setting	triclinic
loop_
_symmetry_equiv_pos_as_xyz
  x,y,z
_cell_length_a	16.120484
_cell_length_b	14.908780
_cell_length_c	14.908404
_cell_angle_alpha	89.842281
_cell_angle_beta	89.376719
_cell_angle_gamma	83.626566
loop_
_atom_site_label
_atom_site_type_symbol
_atom_site_fract_x
_atom_site_fract_y
_atom_site_fract_z
Zn1	Zn	-0.228763	-1.332179	-0.599685
Zn2	Zn	0.104570	-0.998846	-0.266352
Zn3	Zn	0.437904	-0.665513	0.066982
Zn4	Zn	-0.375862	-1.332208	-0.456883
Zn5	Zn	-0.042529	-0.998875	-0.123549
Zn6	Zn	0.290804	-0.665542	0.209784
Zn7	Zn	-0.244890	-1.189527	-0.441469
Zn8	Zn	0.088443	-0.856193	-0.108136
Zn9	Zn	0.421777	-0.522860	0.225197
Zn10	Zn	-0.376659	-1.173217	-0.598553
Zn11	Zn	-0.043325	-0.839883	-0.265219
Zn12	Zn	0.290008	-0.506550	0.068114
O13	O	-0.306544	-1.256783	-0.524147
O14	O	0.026790	-0.923450	-0.190814
O15	O	0.360123	-0.590116	0.142519
O16	O	-0.241194	-1.458423	-0.587666
O17	O	0.092140	-1.125089	-0.254333
O18	O	0.425473	-0.791756	0.079000
O19	O	-0.364905	-1.320119	-0.329335
O20	O	-0.031571	-0.986786	0.003998
O21	O	0.301762	-0.653453	0.337332
O22	O	-0.126044	-1.215263	-0.456481
O23	O	0.207290	-0.881930	-0.123147
O24	O	0.540623	-0.548597	0.210186
O25	O	-0.349267	-1.458444	-0.482750
O26	O	-0.015934	-1.125111	-0.149417
O27	O	0.317400	-0.791777	0.183917
O28	O	-0.114195	-1.320070	-0.572721
O29	O	0.219138	-0.986737	-0.239387
O30	O	0.552471	-0.653403	0.093946
O31	O	-0.268680	-1.215292	-0.318011
O32	O	0.064654	-0.881958	0.015322
O33	O	0.397987	-0.548625	0.348656
O34	O	-0.269452	-1.061124	-0.455383
O35	O	0.063881	-0.727790	-0.122049
O36	O	0.397215	-0.394457	0.211284
O37	O	-0.350624	-1.187466	-0.724206
O38	O	-0.017291	-0.854132	-0.390873
O39	O	0.316043	-0.520799	-0.057539
O40	O	-0.366262	-1.049141	-0.570791
O41	O	-0.032928	-0.715808	-0.237457
O42	O	0.300405	-0.382474	0.095876
O43	O	-0.241966	-1.304255	-0.725038
O44	O	0.091368	-0.970921	-0.391704
O45	O	0.424701	-0.637588	-0.058371
O46	O	-0.492675	-1.304304	-0.481652
O47	O	-0.159342	-0.970971	-0.148319
O48	O	0.173992	-0.637638	0.185015
O49	O	-0.493260	-1.187494	-0.585736
O50	O	-0.159927	-0.854160	-0.252403
O51	O	0.173406	-0.520827	0.080930
C52	C	-0.319694	-1.022400	-0.511292
C53	C	0.013640	-0.689067	-0.177958
C54	C	0.346973	-0.355733	0.155375
C55	C	-0.325339	-0.922127	-0.505814
C56	C	0.007995	-0.588794	-0.172481
C57	C	0.341328	-0.255461	0.160852
C58	C	-0.223546	-0.733663	-0.604954
C59	C	0.109787	-0.400330	-0.271621
C60	C	0.443121	-0.066996	0.061713
C61	C	-0.228847	-0.639448	-0.599810
C62	C	0.104487	-0.306115	-0.266477
C63	C	0.437820	0.027219	0.066856
C64	C	-0.341236	-0.639482	-0.490379
C65	C	-0.007903	-0.306148	-0.157046
C66	C	0.325431	0.027185	0.176287
C67	C	-0.335935	-0.733697	-0.495523
C68	C	-0.002602	-0.400363	-0.162190
C69	C	0.330731	-0.067030	0.171144
C70	C	-0.277089	-0.780784	-0.552813
C71	C	0.056244	-0.447450	-0.219480
C72	C	0.389577	-0.114117	0.113853
C73	C	-0.271793	-0.875000	-0.557961
C74	C	0.061540	-0.541666	-0.224628
C75	C	0.394874	-0.208333	0.108706
C76	C	-0.384178	-0.875032	-0.448526
C77	C	-0.050845	-0.541699	-0.115192
C78	C	0.282489	-0.208366	0.218141
C79	C	-0.389479	-0.780817	-0.443382
C80	C	-0.056145	-0.447484	-0.110049
C81	C	0.277188	-0.114151	0.223285
C82	C	-0.523226	-1.244156	-0.535265
C83	C	-0.189893	-0.910822	-0.201931
C84	C	0.143441	-0.577489	0.131402
C85	C	-0.615918	-1.238835	-0.540055
C86	C	-0.282584	-0.905501	-0.206722
C87	C	0.050749	-0.572168	0.126611
C88	C	-0.785625	-1.229124	-0.548820
C89	C	-0.452292	-0.895791	-0.215487
C90	C	-0.118958	-0.562457	0.117846
C91	C	-0.826612	-1.284602	-0.499498
C92	C	-0.493278	-0.951269	-0.166165
C93	C	-0.159945	-0.617936	0.167168
C94	C	-0.921043	-1.279199	-0.504375
C95	C	-0.587709	-0.945866	-0.171042
C96	C	-0.254376	-0.612533	0.162292
C97	C	-0.691186	-1.234526	-0.543944
C98	C	-0.357852	-0.901193	-0.210611
C99	C	-0.024519	-0.567859	0.122722
C100	C	-0.089012	-1.269483	-0.513008
C101	C	0.244321	-0.936149	-0.179674
C102	C	0.577654	-0.602816	0.153659
C103	C	0.003686	-1.274895	-0.508261
C104	C	0.337020	-0.941561	-0.174927
C105	C	0.670353	-0.608228	0.158406
C106	C	-0.294585	-1.244038	-0.758073
C107	C	0.038749	-0.910704	-0.424740
C108	C	0.372082	-0.577371	-0.091407
C109	C	-0.289489	-1.238606	-0.857759
C110	C	0.043845	-0.905273	-0.524425
C111	C	0.377178	-0.571940	-0.191092
C112	C	-0.293336	-0.492082	-0.537047
C113	C	0.039997	-0.158748	-0.203713
C114	C	0.373331	0.174585	0.129620
C115	C	-0.287691	-0.592354	-0.542526
C116	C	0.045643	-0.259021	-0.209193
C117	C	0.378976	0.074313	0.124141
C118	C	-0.318393	-1.269534	-0.291131
C119	C	0.014941	-0.936201	0.042202
C120	C	0.348274	-0.602867	0.375535
C121	C	-0.323244	-1.275153	-0.191444
C122	C	0.010089	-0.941820	0.141889
C123	C	0.343423	-0.608487	0.475223
C124	C	-0.232962	-1.175675	0.007592
C125	C	0.100372	-0.842341	0.340925
C126	C	0.433705	-0.509008	0.674258
C127	C	-0.237517	-1.180952	0.101257
C128	C	0.095816	-0.847619	0.434590
C129	C	0.429149	-0.514285	0.767924
C130	C	-0.336906	-1.290990	0.089554
C131	C	-0.003573	-0.957656	0.422887
C132	C	0.329761	-0.624323	0.756220
C133	C	-0.332350	-1.285712	-0.004112
C134	C	0.000983	-0.952379	0.329222
C135	C	0.334316	-0.619046	0.662555
C136	C	-0.280377	-1.228052	-0.045089
C137	C	0.052956	-0.894718	0.288244
C138	C	0.386289	-0.561385	0.621577
C139	C	-0.275827	-1.222770	-0.138756
C140	C	0.057507	-0.889437	0.194577
C141	C	0.390840	-0.556104	0.527910
C142	C	-0.375210	-1.332812	-0.150458
C143	C	-0.041877	-0.999479	0.182875
C144	C	0.291456	-0.666146	0.516209
C145	C	-0.379766	-1.338090	-0.056793
C146	C	-0.046433	-1.004756	0.276541
C147	C	0.286901	-0.671423	0.609874
H148	H	-0.223878	-0.913337	-0.604611
H149	H	0.109455	-0.580003	-0.271277
H150	H	0.442788	-0.246670	0.062056
H151	H	-0.175635	-0.772002	-0.651606
H152	H	0.157699	-0.438668	-0.318273
H153	H	0.491032	-0.105335	0.015061
H154	H	-0.437387	-0.742467	-0.396735
H155	H	-0.104053	-0.409133	-0.063402
H156	H	0.229280	-0.075800	0.269931
H157	H	-0.233508	-1.175820	-0.172118
H158	H	0.099825	-0.842486	0.161215
H159	H	0.433158	-0.509153	0.494548
H160	H	-0.790781	-1.336156	-0.453609
H161	H	-0.457448	-1.002823	-0.120276
H162	H	-0.124115	-0.669489	0.213058
H163	H	-0.821453	-1.177573	-0.594704
H164	H	-0.488120	-0.844240	-0.261371
H165	H	-0.154786	-0.510907	0.071962
H166	H	-0.190647	-1.128721	-0.025773
H167	H	0.142687	-0.795388	0.307561
H168	H	0.476020	-0.462055	0.640894
H169	H	-0.198905	-1.138303	0.144147
H170	H	0.134429	-0.804969	0.477480
H171	H	0.467762	-0.471636	0.810813
H172	H	-0.379214	-1.337940	0.122934
H173	H	-0.045880	-1.004607	0.456267
H174	H	0.287453	-0.671273	0.789601
H175	H	-0.185244	-0.601086	-0.642266
H176	H	0.148089	-0.267753	-0.308933
H177	H	0.481422	0.065581	0.024400
H178	H	-0.422078	-1.385037	-0.023416
H179	H	-0.088745	-1.051704	0.309918
H180	H	0.244588	-0.718371	0.643251
H181	H	-0.413816	-1.375466	-0.193361
H182	H	-0.080482	-1.042133	0.139972
H183	H	0.252851	-0.708799	0.473306
H184	H	-0.389137	-0.601128	-0.443726
H185	H	-0.055803	-0.267795	-0.110393
H186	H	0.277530	0.065538	0.222941
H187	H	-0.427783	-0.913407	-0.406076
H188	H	-0.094450	-0.580074	-0.072743
H189	H	0.238884	-0.246741	0.260591
