data_functionalizedCrystal
_audit_creation_method	'MofGen! by Chris Wilmer'
_symmetry_space_group_name_H-M	'P1'
_symmetry_Int_Tables_number	1
_symmetry_cell_setting	triclinic
loop_
_symmetry_equiv_pos_as_xyz
  x,y,z
_cell_length_a	23.096457
_cell_length_b	23.196402
_cell_length_c	23.196402
_cell_angle_alpha	60.002465
_cell_angle_beta	89.999519
_cell_angle_gamma	59.998771
loop_
_atom_site_label
_atom_site_type_symbol
_atom_site_fract_x
_atom_site_fract_y
_atom_site_fract_z
Zr1	Zr	0.557791	0.630985	-0.075639
O2	O	0.465342	0.751252	-0.167682
O3	O	0.586130	0.510719	-0.047426
O4	O	0.586130	0.630984	-0.167690
O5	O	0.465344	0.630987	0.047453
O6	O	0.681412	0.630982	-0.167692
O7	O	0.465342	0.630987	-0.047418
O8	O	0.681412	0.415849	0.047439
O9	O	0.465345	0.846119	-0.167678
O10	O	0.669327	0.560184	-0.035391
O11	O	0.598220	0.560185	0.035412
O12	O	0.598221	0.701782	-0.106184
O13	O	0.527114	0.701784	-0.035381
Zr14	Zr	0.709760	0.630981	0.075666
Zr15	Zr	0.709756	0.630981	-0.075642
Zr16	Zr	0.557795	0.630985	0.075669
Zr17	Zr	0.557796	0.782287	-0.075632
Zr18	Zr	0.709755	0.479678	0.075660
O19	O	0.681421	0.751247	0.047453
O20	O	0.681416	0.751247	-0.167687
O21	O	0.465348	0.751252	0.047458
O22	O	0.802209	0.510713	0.167710
O23	O	0.802204	0.510714	-0.047430
O24	O	0.586135	0.510719	0.167714
O25	O	0.802207	0.630979	-0.047425
O26	O	0.681421	0.630982	0.167718
O27	O	0.586139	0.630984	0.167720
O28	O	0.802209	0.630979	0.047445
O29	O	0.586136	0.846117	-0.167681
O30	O	0.681415	0.415849	0.167708
O31	O	0.802206	0.415846	0.167706
O32	O	0.802203	0.415846	0.047436
O33	O	0.465348	0.846119	-0.047409
O34	O	0.586139	0.846117	-0.047411
O35	O	0.669330	0.560183	0.106211
O36	O	0.740437	0.560182	0.035409
O37	O	0.669331	0.701780	-0.035384
O38	O	0.598224	0.701782	0.035418
C39	C	0.633770	0.441727	0.000006
C40	C	0.633769	0.377495	0.000003
C41	C	0.443691	0.630987	0.000018
C42	C	0.379179	0.630989	0.000019
C43	C	0.670880	0.347323	-0.036958
C44	C	0.670887	0.286962	-0.036952
C45	C	0.633768	0.256786	0.000005
C46	C	0.596655	0.286962	0.036974
C47	C	0.596655	0.347316	0.036973
C48	C	0.571595	0.194759	-0.005268
C49	C	0.571593	0.134409	-0.005273
C50	C	0.633769	0.070632	0.000012
C51	C	0.695947	0.067218	0.005286
C52	C	0.695947	0.127573	0.005285
C53	C	0.633765	0.191342	0.000010
C54	C	0.670892	-0.024991	-0.036944
C55	C	0.670901	-0.085356	-0.036934
C56	C	0.596661	-0.085350	0.036987
C57	C	0.596660	-0.024991	0.036981
C58	C	0.633773	0.005187	0.000012
C59	C	0.348874	0.630995	-0.052249
C60	C	0.288262	0.630987	-0.052249
C61	C	0.257948	0.630990	0.000014
C62	C	0.288262	0.630980	0.052292
C63	C	0.348877	0.630979	0.052294
N64	N	0.139598	0.677145	0.015838
N65	N	0.082015	0.677148	0.015832
C66	C	0.075319	0.630991	0.000010
N67	N	0.128376	0.584841	-0.015818
N68	N	0.185962	0.584843	-0.015814
C69	C	0.192221	0.630991	0.000017
C70	C	-0.020708	0.630988	-0.052261
C71	C	-0.081318	0.630975	-0.052256
C72	C	-0.081322	0.630976	0.052282
C73	C	-0.020708	0.630980	0.052280
C74	C	0.009594	0.630990	0.000005
C75	C	0.823860	0.630978	0.000010
C76	C	0.888373	0.630977	0.000008
C77	C	0.633771	0.630983	-0.189249
C78	C	0.633769	0.630983	-0.253483
C79	C	0.633781	0.820239	0.000022
C80	C	0.633783	0.884471	0.000025
C81	C	0.581285	0.630994	-0.716323
C82	C	0.581285	0.630988	-0.655965
C83	C	0.633776	0.630988	-0.625784
C84	C	0.686282	0.630972	-0.655956
C85	C	0.686285	0.630969	-0.716308
C86	C	0.650135	0.678493	-0.553917
C87	C	0.650128	0.678500	-0.493568
C88	C	0.633772	0.630992	-0.439636
C89	C	0.617409	0.583486	-0.446064
C90	C	0.617411	0.583484	-0.506417
C91	C	0.633780	0.630990	-0.560342
C92	C	0.581272	0.630995	-0.344022
C93	C	0.581276	0.630985	-0.283661
C94	C	0.686271	0.630977	-0.283657
C95	C	0.686269	0.630979	-0.344013
C96	C	0.633766	0.630993	-0.374194
C97	C	0.633780	0.630983	0.189277
C98	C	0.633782	0.630983	0.253511
C99	C	0.823854	0.441722	0.000002
C100	C	0.888366	0.377489	-0.000003
C101	C	0.633775	0.441726	0.189269
C102	C	0.633775	0.377494	0.253500
C103	C	0.823859	0.441722	0.189265
C104	C	0.888372	0.377488	0.253495
C105	C	0.443692	0.820244	-0.189237
C106	C	0.379179	0.884477	-0.253467
C107	C	0.443697	0.820244	0.000026
C108	C	0.379186	0.884477	0.000030
C109	C	0.633776	0.820239	-0.189241
C110	C	0.633776	0.884471	-0.253473
C111	C	0.881542	0.347325	-0.036967
C112	C	0.942151	0.286979	-0.036985
C113	C	1.009583	0.256794	-0.000034
C114	C	1.016405	0.286964	0.036932
C115	C	0.955797	0.347313	0.036945
C116	C	0.670893	0.347330	0.320627
C117	C	0.670891	0.286985	0.380985
C118	C	0.633773	0.256803	0.374214
C119	C	0.596650	0.286974	0.307081
C120	C	0.596649	0.347321	0.246724
C121	C	0.955791	0.347323	0.246700
C122	C	1.016413	0.286977	0.307045
C123	C	1.009615	0.256794	0.374184
C124	C	0.942189	0.286965	0.380978
C125	C	0.881568	0.347314	0.320633
C126	C	0.311760	0.914650	-0.246672
C127	C	0.251138	0.975014	-0.307017
C128	C	0.257936	1.005201	-0.374157
C129	C	0.325362	0.975025	-0.380950
C130	C	0.385983	0.914666	-0.320606
C131	C	0.386009	0.914647	0.036989
C132	C	0.325400	0.975009	0.036990
C133	C	0.257968	1.005196	0.000036
C134	C	0.251146	0.975024	-0.036927
C135	C	0.311754	0.914667	-0.036932
C136	C	0.670901	0.914634	-0.246680
C137	C	0.670915	0.974979	-0.307026
C138	C	0.633800	1.005163	-0.374165
C139	C	0.596673	0.974994	-0.380956
C140	C	0.596664	0.914647	-0.320610
H141	H	0.701109	0.262392	-0.067051
H142	H	0.330889	0.999611	-0.435623
O143	O	0.808854	0.379837	0.327972
H144	H	0.767836	0.426877	0.274736
O145	O	0.710914	0.379866	-0.076828
H146	H	0.704677	0.426908	-0.070625
H147	H	0.746579	0.015284	0.009598
O148	O	0.192608	1.070287	0.000063
H149	H	0.160594	1.125295	-0.054961
O150	O	0.178412	1.007590	-0.076784
H151	H	0.149028	0.996005	-0.039465
H152	H	0.746575	0.124789	0.009581
O153	O	0.742895	0.630965	-0.251107
H154	H	0.717661	0.686231	-0.251242
O155	O	0.667774	0.729742	-0.612086
H156	H	0.622068	0.774348	-0.661886
H157	H	0.566425	0.371873	0.192069
H158	H	0.701123	0.262427	0.435642
O159	O	0.524655	0.630987	-0.251119
H160	H	0.533478	0.630973	-0.204074
H161	H	1.058982	0.207654	0.423315
O162	O	0.710928	0.007557	-0.076806
H163	H	0.736747	-0.023577	-0.102497
H164	H	0.306211	0.890076	-0.192009
H165	H	-0.106000	0.630973	0.094838
O166	O	0.633811	1.070258	-0.439247
H167	H	0.601769	1.086183	-0.487078
H168	H	0.633779	0.207664	0.423366
H169	H	0.566430	0.262390	0.301579
H170	H	0.701126	-0.109926	-0.067029
O171	O	0.304391	0.882120	-0.076789
H172	H	0.247318	0.913250	-0.102475
O173	O	0.556622	-0.117885	0.076848
H174	H	0.562853	-0.164919	0.070637
O175	O	0.178419	1.007540	-0.299683
H176	H	0.183882	0.976391	-0.242857
H177	H	0.263578	0.630980	0.094846
H178	H	0.936583	0.262422	-0.067087
O179	O	0.556621	0.007567	0.076836
H180	H	0.530805	-0.023549	0.102531
O181	O	0.710944	0.882075	-0.174269
H182	H	0.736767	0.913187	-0.179696
O183	O	0.381559	0.631002	-0.108628
H184	H	0.397682	0.575734	-0.106060
H185	H	0.961340	0.371889	0.192037
H186	H	0.440910	0.890073	0.067085
O187	O	0.332765	1.007536	0.076869
H188	H	0.389839	0.976389	0.102574
H189	H	0.936664	0.262381	0.435651
H190	H	0.961363	0.371864	0.067051
H191	H	0.520964	0.137197	-0.009571
H192	H	0.538534	0.630997	-0.631399
O193	O	0.710927	0.379881	0.327937
H194	H	0.736727	0.348766	0.384759
O195	O	1.089132	0.254432	0.299710
H196	H	1.083669	0.285550	0.242885
H197	H	0.729023	0.630970	-0.631379
H198	H	0.263584	0.630992	-0.094814
H199	H	0.208569	1.054349	-0.423287
H200	H	0.440877	0.890100	-0.326147
H201	H	0.701146	0.999536	-0.301483
H202	H	0.003965	0.630980	0.094839
O203	O	0.556634	1.007561	-0.453371
H204	H	0.562875	1.054600	-0.494186
O205	O	1.089136	0.254403	0.076789
H206	H	1.118518	0.187828	0.117630
H207	H	0.566429	0.890094	-0.326151
H208	H	-0.105990	0.630975	-0.094818
H209	H	0.520957	0.246696	-0.009586
O210	O	0.381567	0.630975	0.108670
H211	H	0.350307	0.630978	0.145013
H212	H	0.566432	0.371882	0.067071
O213	O	0.556613	0.254425	0.076831
H214	H	0.562841	0.207395	0.070616
H215	H	0.003967	0.630992	-0.094825
H216	H	0.538535	0.631001	-0.740893
O217	O	0.599986	0.532050	-0.513255
H218	H	0.588693	0.498937	-0.465580
H219	H	0.538522	0.631002	-0.368594
O220	O	0.599773	0.532234	-0.387897
H221	H	0.552506	0.572297	-0.380424
O222	O	0.742879	0.630992	-0.376568
H223	H	0.779375	0.631002	-0.345449
H224	H	0.663448	0.717185	-0.488341
H225	H	0.729035	0.630960	-0.740870
H226	H	0.826641	0.371901	-0.067066
O227	O	1.074953	0.191697	-0.000045
H228	H	1.058872	0.175792	-0.031952
