data_functionalizedCrystal
_audit_creation_method	'MofGen! by Chris Wilmer'
_symmetry_space_group_name_H-M	'P1'
_symmetry_Int_Tables_number	1
_symmetry_cell_setting	triclinic
loop_
_symmetry_equiv_pos_as_xyz
  x,y,z
_cell_length_a	15.297327
_cell_length_b	19.077105
_cell_length_c	19.076919
_cell_angle_alpha	89.923776
_cell_angle_beta	101.510342
_cell_angle_gamma	82.181934
loop_
_atom_site_label
_atom_site_type_symbol
_atom_site_fract_x
_atom_site_fract_y
_atom_site_fract_z
Zn1	Zn	-0.436205	-0.997096	-0.496821
Zn2	Zn	-0.581179	-0.981405	-0.398060
Zn3	Zn	-0.424127	-0.886008	-0.373052
Zn4	Zn	-0.580636	-0.859303	-0.510742
O5	O	-0.505537	-0.930953	-0.444669
O6	O	-0.460719	-1.092606	-0.488360
O7	O	-0.555519	-0.973359	-0.295787
O8	O	-0.299557	-0.918487	-0.373179
O9	O	-0.567231	-1.081077	-0.415800
O10	O	-0.308431	-1.000103	-0.464111
O11	O	-0.440133	-0.903272	-0.277414
O12	O	-0.439605	-0.784875	-0.386678
O13	O	-0.566304	-0.872972	-0.607851
O14	O	-0.554592	-0.765254	-0.487838
O15	O	-0.460192	-0.974208	-0.597623
O16	O	-0.707279	-0.947464	-0.429299
O17	O	-0.706880	-0.857757	-0.512086
C18	C	-0.495730	-0.749760	-0.436055
C19	C	-0.491557	-0.672241	-0.432390
C20	C	-0.739796	-0.898028	-0.474933
C21	C	-0.840018	-0.884005	-0.487907
C22	C	-0.514535	-0.922362	-0.629112
C23	C	-0.518369	-0.918700	-0.707711
C24	C	-1.123247	-1.031451	-0.352197
C25	C	-1.029084	-1.044626	-0.340004
C26	C	-0.981812	-1.004472	-0.376979
C27	C	-1.028714	-0.951141	-0.426149
C28	C	-1.122886	-0.937961	-0.438339
C29	C	-0.981452	-0.910982	-0.463121
C30	C	-1.028353	-0.857651	-0.512291
C31	C	-1.122517	-0.844474	-0.524480
C32	C	-1.169788	-0.884628	-0.487505
C33	C	-0.887280	-0.924162	-0.450930
C34	C	-0.886919	-0.830672	-0.537073
C35	C	-0.981082	-0.817497	-0.549266
C36	C	-0.270365	-0.964025	-0.414303
C37	C	-0.170148	-0.978118	-0.401362
C38	C	-0.515383	-1.112853	-0.453317
C39	C	-0.519579	-1.190368	-0.457002
C40	C	-0.549547	-0.625617	-0.483277
C41	C	-0.545614	-0.552781	-0.479834
C42	C	-0.483695	-0.526571	-0.425502
C43	C	-0.425698	-0.573201	-0.374613
C44	C	-0.429627	-0.646036	-0.378058
C45	C	-0.465511	-0.309833	-0.409558
C46	C	-0.461589	-0.236992	-0.406115
C47	C	-0.581504	-0.216578	-0.511338
C48	C	-0.585431	-0.289415	-0.514776
C49	C	-0.527431	-0.336039	-0.463889
N50	N	-0.479676	-0.452121	-0.421981
N51	N	-0.531447	-0.410488	-0.467414
C52	C	-0.464926	-0.969686	-0.739314
C53	C	-0.468525	-0.966238	-0.813165
C54	C	-0.525572	-0.911807	-0.855413
C55	C	-0.579017	-0.860816	-0.823806
C56	C	-0.575413	-0.864262	-0.749955
C57	C	-0.542271	-0.895847	-1.076853
C58	C	-0.545873	-0.892406	-1.150709
C59	C	-0.435379	-0.997828	-1.140063
C60	C	-0.431784	-1.001271	-1.066212
C61	C	-0.485225	-0.950279	-1.034610
N62	N	-0.529254	-0.908282	-0.930901
N63	N	-0.481538	-0.953801	-0.959123
C64	C	-0.496511	-0.939560	-0.260936
C65	C	-0.492430	-0.943392	-0.182311
H66	H	-0.849101	-0.967585	-0.410896
F67	F	-0.639728	-0.802884	-0.868771
H68	H	-0.592330	-0.848079	-1.185107
H69	H	-0.635854	-0.310749	-0.559018
F70	F	-0.359793	-0.545304	-0.316791
F71	F	-0.599149	-0.841575	-1.043230
F72	F	-1.173561	-1.074177	-0.312850
H73	H	-0.418475	-1.014012	-0.704920
H74	H	-0.391869	-1.039343	-1.165801
F75	F	-0.615455	-0.653504	-0.541102
F76	F	-1.031009	-0.760740	-0.601595
F77	F	-0.643228	-0.166952	-0.565491
H78	H	-0.425008	-1.007757	-0.838892
F79	F	-0.367904	-0.695657	-0.323899
H80	H	-0.385332	-1.045597	-1.031818
F81	F	-0.881611	-1.018638	-0.364159
H82	H	-0.592837	-0.514822	-0.521271
H83	H	-0.990900	-1.088047	-0.299969
F84	F	-1.269985	-0.870397	-0.500244
H85	H	-0.411156	-0.215656	-0.361874
H86	H	-0.618923	-0.822738	-0.724225
H87	H	-1.160700	-0.801040	-0.564509
F88	F	-0.403780	-0.359446	-0.355401
F89	F	-0.836614	-0.787931	-0.576423
