data_functionalizedCrystal
_audit_creation_method	'MofGen! by Chris Wilmer'
_symmetry_space_group_name_H-M	'P1'
_symmetry_Int_Tables_number	1
_symmetry_cell_setting	triclinic
loop_
_symmetry_equiv_pos_as_xyz
  x,y,z
_cell_length_a	15.297475
_cell_length_b	16.959453
_cell_length_c	15.298159
_cell_angle_alpha	80.338390
_cell_angle_beta	88.366721
_cell_angle_gamma	80.322456
loop_
_atom_site_label
_atom_site_type_symbol
_atom_site_fract_x
_atom_site_fract_y
_atom_site_fract_z
Zn1	Zn	1.253259	-0.615353	0.726553
Zn2	Zn	1.278562	-0.729135	0.580072
Zn3	Zn	1.132175	-0.570906	0.554802
Zn4	Zn	1.106759	-0.721395	0.701196
O5	O	1.192688	-0.659197	0.640656
O6	O	1.379189	-0.652287	0.728310
O7	O	1.280369	-0.692783	0.454151
O8	O	1.148284	-0.466204	0.577622
O9	O	1.397779	-0.735882	0.620691
O10	O	1.237244	-0.498859	0.703807
O11	O	1.172820	-0.576533	0.435585
O12	O	1.006229	-0.569028	0.553034
O13	O	1.104966	-0.722690	0.827128
O14	O	0.987556	-0.679591	0.660589
O15	O	1.212599	-0.644781	0.845758
O16	O	1.255724	-0.838706	0.596103
O17	O	1.129501	-0.833019	0.685092
C18	C	0.965111	-0.618647	0.601318
C19	C	0.867748	-0.601322	0.584510
C20	C	0.554569	-0.783032	0.760788
C21	C	0.646046	-0.799316	0.776578
C22	C	0.701476	-0.749819	0.728562
C23	C	0.665420	-0.684035	0.664754
C24	C	0.573935	-0.667753	0.648958
C25	C	0.720842	-0.634540	0.616732
C26	C	0.684786	-0.568756	0.552924
C27	C	0.593309	-0.552477	0.537132
C28	C	0.537879	-0.601974	0.585147
C29	C	0.812327	-0.650822	0.632528
C30	C	0.831693	-0.535543	0.520698
C31	C	0.740215	-0.519259	0.504909
C32	C	1.192621	-0.864546	0.640611
C33	C	1.192667	-0.952413	0.640635
C34	C	1.239063	-1.340866	0.706478
C35	C	1.146536	-1.306984	0.575006
C36	C	1.146507	-1.224430	0.574980
C37	C	1.192756	-1.200090	0.640705
C38	C	1.239033	-1.258305	0.706456
C39	C	1.100223	-1.166209	0.509235
C40	C	1.100191	-1.083649	0.509207
C41	C	1.146446	-1.059309	0.574930
C42	C	1.192726	-1.117529	0.640683
C43	C	1.238975	-1.093189	0.706408
C44	C	1.285261	-1.151409	0.772158
C45	C	1.285288	-1.233964	0.772179
C46	C	1.146418	-0.976753	0.574910
C47	C	1.238945	-1.010628	0.706386
C48	C	1.421155	-0.699905	0.680148
C49	C	1.518514	-0.717253	0.696977
C50	C	1.153125	-0.687830	0.869113
C51	C	1.136265	-0.700032	0.966468
C52	C	1.192777	-0.453052	0.640724
C53	C	1.192814	-0.365206	0.640753
C54	C	1.312902	-0.572183	1.279695
C55	C	1.328748	-0.560721	1.188226
C56	C	1.280629	-0.595547	1.132782
C57	C	1.216661	-0.641838	1.168816
C58	C	1.200818	-0.653307	1.260294
C59	C	1.168544	-0.676671	1.113381
C60	C	1.104576	-0.722962	1.149415
C61	C	1.088736	-0.734428	1.240885
C62	C	1.136856	-0.699601	1.296329
C63	C	1.184387	-0.665203	1.021903
C64	C	1.072303	-0.746327	1.002502
C65	C	1.056457	-0.757788	1.093971
C66	C	1.232089	-0.630689	1.413086
C67	C	1.248940	-0.618478	1.315729
H68	H	0.509432	-0.823329	0.799870
H69	H	1.062567	-1.186033	0.455727
H70	H	1.276610	-0.990818	0.759905
H71	H	0.841675	-0.704383	0.684482
O72	O	1.121469	-0.710882	1.385185
C73	C	1.138661	-0.794464	1.419619
H74	H	1.132805	-0.830718	1.364306
H75	H	1.088549	-0.809140	1.473983
H76	H	1.208529	-0.811121	1.448410
H77	H	1.033121	-0.774687	0.957360
O78	O	0.885510	-0.487517	0.473920
C79	C	0.878245	-0.489725	0.382724
H80	H	0.853867	-0.547816	0.373831
H81	H	0.945892	-0.488141	0.349854
H82	H	0.829102	-0.435006	0.350744
O83	O	1.330312	-1.127866	0.835984
C84	C	1.420945	-1.161124	0.832000
H85	H	1.428651	-1.217187	0.798667
H86	H	1.449216	-1.178809	0.902028
H87	H	1.458254	-1.114273	0.792087
O88	O	1.330161	-1.290442	0.836166
C89	C	1.295793	-1.277770	0.920111
H90	H	1.261809	-1.212069	0.916057
H91	H	1.352153	-1.291091	0.970374
H92	H	1.245629	-1.319902	0.941783
O93	O	1.055122	-1.027065	0.445446
C94	C	0.989877	-0.975470	0.485462
H95	H	0.972470	-1.007994	0.553506
H96	H	0.927991	-0.958610	0.442078
H97	H	1.016411	-0.918088	0.493161
O98	O	1.283876	-1.397443	0.770417
C99	C	1.224189	-1.443417	0.818313
H100	H	1.154262	-1.406961	0.811733
H101	H	1.244134	-1.458397	0.891213
H102	H	1.225908	-1.502067	0.790724
H103	H	1.004373	-0.795479	1.123323
H104	H	0.675397	-0.852878	0.828528
O105	O	1.101346	-0.920164	0.511160
C106	C	1.036108	-0.868575	0.551191
H107	H	1.018709	-0.901105	0.619234
H108	H	0.974216	-0.851710	0.507815
H109	H	1.062644	-0.811194	0.558893
O110	O	0.448989	-0.586193	0.569962
C111	C	0.403892	-0.571089	0.648665
H112	H	0.447887	-0.600349	0.708196
H113	H	0.340015	-0.597835	0.653595
H114	H	0.387306	-0.502870	0.647844
O115	O	1.101550	-1.330722	0.511279
C116	C	1.036308	-1.374635	0.551324
H117	H	1.055647	-1.400769	0.623063
H118	H	1.030803	-1.426155	0.513634
H119	H	0.969719	-1.332492	0.549657
H120	H	1.236470	-0.627512	0.992573
H121	H	0.563957	-0.498919	0.485166
O122	O	1.296098	-0.584301	1.043943
C123	C	1.362890	-0.535992	1.024030
H124	H	1.366053	-0.498614	1.078884
H125	H	1.347070	-0.493616	0.958278
H126	H	1.429554	-0.576679	1.018824
H127	H	1.380833	-0.523033	1.158895
H128	H	0.775961	-0.763081	0.741422
H129	H	1.036656	-0.772128	1.270221
O130	O	0.705164	-0.455457	0.442822
C131	C	0.662018	-0.483857	0.377036
H132	H	0.690531	-0.550312	0.376258
H133	H	0.672632	-0.446546	0.309505
H134	H	0.588003	-0.477677	0.392146
O135	O	1.359538	-0.538390	1.333673
C136	C	1.331856	-0.558461	1.422138
H137	H	1.262081	-0.573860	1.422933
H138	H	1.331809	-0.504685	1.457960
H139	H	1.379294	-0.613068	1.457056
