data_functionalizedCrystal
_audit_creation_method	'MofGen! by Chris Wilmer'
_symmetry_space_group_name_H-M	'P1'
_symmetry_Int_Tables_number	1
_symmetry_cell_setting	triclinic
loop_
_symmetry_equiv_pos_as_xyz
  x,y,z
_cell_length_a	19.851628
_cell_length_b	19.377369
_cell_length_c	19.377372
_cell_angle_alpha	62.058157
_cell_angle_beta	90.000597
_cell_angle_gamma	48.634029
loop_
_atom_site_label
_atom_site_type_symbol
_atom_site_fract_x
_atom_site_fract_y
_atom_site_fract_z
Zr1	Zr	0.527771	0.759387	0.055867
O2	O	0.371506	0.943831	-0.042076
O3	O	0.588403	0.607574	0.064535
O4	O	0.530410	0.806419	-0.072857
O5	O	0.460766	0.696507	0.227987
O6	O	0.641278	0.806400	-0.072843
O7	O	0.429499	0.744986	0.095316
O8	O	0.745016	0.450702	0.172926
O9	O	0.357028	1.052205	-0.017782
O10	O	0.681623	0.657917	0.094045
O11	O	0.622218	0.621752	0.193045
O12	O	0.553939	0.855867	0.031284
O13	O	0.494534	0.819702	0.130285
Zr14	Zr	0.754459	0.682040	0.267483
Zr15	Zr	0.704592	0.759357	0.055888
Zr16	Zr	0.577638	0.682069	0.267462
Zr17	Zr	0.504679	0.932231	0.094613
Zr18	Zr	0.777551	0.509195	0.228737
O19	O	0.693827	0.833853	0.258815
O20	O	0.622922	0.943789	-0.042046
O21	O	0.442411	0.833895	0.258785
O22	O	0.910724	0.497596	0.365426
O23	O	0.839819	0.607531	0.064565
O24	O	0.659307	0.497638	0.365396
O25	O	0.821464	0.744920	0.095363
O26	O	0.751820	0.635008	0.396207
O27	O	0.640952	0.635026	0.396194
O28	O	0.852731	0.696441	0.228034
O29	O	0.497576	1.052182	-0.017765
O30	O	0.784654	0.389245	0.341116
O31	O	0.925202	0.389222	0.341132
O32	O	0.885565	0.450679	0.172943
O33	O	0.396665	0.990748	0.150408
O34	O	0.537214	0.990724	0.150425
O35	O	0.728291	0.585560	0.292066
O36	O	0.787696	0.621725	0.193065
O37	O	0.660012	0.819674	0.130305
O38	O	0.600607	0.783509	0.229306
C39	C	0.670000	0.504511	0.113210
C40	C	0.679803	0.431134	0.096762
C41	C	0.419939	0.720751	0.161649
C42	C	0.344874	0.720763	0.161640
C43	C	0.557418	0.095006	0.301332
C44	C	0.566759	0.025941	0.285946
C45	C	0.628773	0.063704	0.182597
C46	C	0.619442	0.132769	0.197977
C47	C	0.583762	0.148416	0.257344
C48	C	0.645786	0.186179	0.153990
C49	C	0.636451	0.255243	0.169365
C50	C	0.600770	0.270898	0.228728
C51	C	0.574426	0.217480	0.272720
C52	C	0.681459	0.170538	0.094617
C53	C	0.707803	0.223947	0.050630
C54	C	0.698475	0.293006	0.066010
C55	C	0.662794	0.308661	0.125373
C56	C	0.724818	0.346424	0.022018
C57	C	0.715482	0.415488	0.037394
C58	C	0.653458	0.377725	0.140749
C59	C	0.093921	0.828661	0.127449
C60	C	0.068231	0.798867	0.078444
C61	C	0.207478	0.720729	0.161663
C62	C	0.099423	0.750535	0.210650
C63	C	0.074754	0.720702	0.161686
C64	C	0.182763	0.690954	0.112603
C65	C	0.213963	0.642616	0.244864
C66	C	0.188339	0.612749	0.195869
C67	C	0.283934	0.720747	0.161648
C68	C	-0.001697	0.720677	0.161698
C69	C	0.862290	0.720676	0.161702
C70	C	0.937355	0.720664	0.161711
C71	C	0.578739	0.817426	-0.102998
C72	C	0.557569	0.850249	-0.192825
C73	C	0.612230	0.936915	0.210140
C74	C	0.602427	1.010292	0.226589
C75	C	0.821164	0.441574	-0.324459
C76	C	0.801250	0.472444	-0.408875
C77	C	0.667958	0.679089	-0.474382
C78	C	0.687863	0.648236	-0.389971
C79	C	0.764467	0.529477	-0.315015
C80	C	0.631167	0.736139	-0.380526
C81	C	0.651068	0.705288	-0.296122
C82	C	0.727665	0.586535	-0.221163
C83	C	0.784368	0.498627	-0.230611
C84	C	0.554559	0.854897	-0.455484
C85	C	0.497862	0.942800	-0.446039
C86	C	0.517767	0.911950	-0.361634
C87	C	0.594365	0.793197	-0.286674
C88	C	0.461065	0.999859	-0.352186
C89	C	0.480966	0.969008	-0.267782
C90	C	0.614266	0.762346	-0.202270
C91	C	0.703491	0.624001	0.426348
C92	C	0.724661	0.591178	0.516176
C93	C	0.891175	0.504474	0.113237
C94	C	0.976043	0.431085	0.096797
C95	C	0.732376	0.407799	0.377883
C96	C	0.763349	0.301599	0.451262
C97	C	0.953551	0.407762	0.377910
C98	C	1.059589	0.301549	0.451298
C99	C	0.328679	1.033665	-0.054559
C100	C	0.222641	1.139878	-0.127947
C101	C	0.391055	0.936952	0.210114
C102	C	0.306186	1.010342	0.226553
C103	C	0.549854	1.033628	-0.054533
C104	C	0.518881	1.139828	-0.127912
C105	C	0.960527	0.415516	0.037380
C106	C	1.040257	0.346575	0.021916
C107	C	1.135505	0.293198	0.065874
C108	C	1.151019	0.308773	0.125294
C109	C	1.071287	0.377719	0.140753
C110	C	0.833265	0.232830	0.537418
C111	C	0.862365	0.133051	0.606376
C112	C	0.821553	0.102036	0.589174
C113	C	0.751628	0.170815	0.503010
C114	C	0.722524	0.270598	0.434055
C115	C	1.140402	0.270548	0.434084
C116	C	1.240040	0.170762	0.503034
C117	C	1.258863	0.101974	0.589196
C118	C	1.178040	0.132983	0.606409
C119	C	1.078404	0.232772	0.537461
C120	C	0.141827	1.170887	-0.110732
C121	C	0.042186	1.270694	-0.179677
C122	C	0.023363	1.339486	-0.265838
C123	C	0.104186	1.308473	-0.283052
C124	C	0.203823	1.208672	-0.214107
C125	C	0.321700	1.025921	0.285963
C126	C	0.241962	1.094890	0.301408
C127	C	0.146713	1.148270	0.257448
C128	C	0.131201	1.132690	0.198031
C129	C	0.210936	1.063730	0.182582
C130	C	0.559712	1.170809	-0.110683
C131	C	0.530629	1.270583	-0.179625
C132	C	0.460709	1.339380	-0.265793
C133	C	0.419878	1.308392	-0.283021
C134	C	0.448967	1.208614	-0.214081
H135	H	0.624405	0.390464	0.189092
H136	H	0.063430	0.775752	0.252071
N137	N	0.042030	0.949572	0.089034
H138	H	0.073193	0.944682	0.134745
H139	H	-0.032682	1.004550	0.071090
N140	N	1.253760	0.251180	0.172706
H141	H	1.281236	0.196143	0.238596
H142	H	1.246899	0.313736	0.157330
H143	H	-0.023610	1.295926	-0.165644
H144	H	0.088846	1.364496	-0.353212
H145	H	1.083936	0.390382	0.189140
H146	H	-0.057773	1.420747	-0.321970
H147	H	0.919304	0.077061	0.676529
N148	N	0.344460	1.382608	-0.375960
H149	H	0.323000	1.347850	-0.376424
H150	H	0.376942	1.384218	-0.415910
H151	H	0.269621	1.183429	-0.228135
H152	H	0.399251	0.982459	0.321770
N153	N	1.198361	0.058771	0.699343
H154	H	1.172901	0.027269	0.700839
H155	H	1.162052	0.108532	0.719002
N156	N	0.763293	0.329540	-0.042012
H157	H	0.833896	0.291086	-0.021312
H158	H	0.716488	0.408575	-0.102528
H159	H	0.743862	0.561419	-0.152437
H160	H	0.254612	1.107559	0.349793
H161	H	1.305837	0.145529	0.489002
H162	H	0.882975	0.458981	0.001571
N163	N	0.696900	0.634257	-0.121416
H164	H	0.681052	0.594443	-0.121775
H165	H	0.700858	0.628164	-0.066563
H166	H	0.883546	0.344869	-0.263424
N167	N	0.404905	1.175226	-0.232677
H168	H	0.367539	1.175291	-0.197287
H169	H	0.461508	1.094076	-0.215491
H170	H	0.847422	0.400854	-0.416556
H171	H	0.081796	1.204419	0.270036
H172	H	0.005890	0.864907	0.008088
N173	N	0.991246	0.266198	0.556033
H174	H	1.018298	0.207472	0.621078
H175	H	0.953989	0.266164	0.520580
H176	H	1.125094	0.326544	0.363931
H177	H	0.053639	1.176163	0.162242
N178	N	0.194197	1.046930	0.118502
H179	H	0.121757	1.091213	0.093004
H180	H	0.242000	0.960378	0.150446
N181	N	0.867000	0.370537	-0.149757
H182	H	0.899906	0.319526	-0.168544
H183	H	0.836624	0.353240	-0.113311
N184	N	0.877294	0.266265	0.555983
H185	H	0.925997	0.207552	0.621031
H186	H	0.820667	0.347457	0.538721
N187	N	0.635125	1.096619	-0.017750
H188	H	0.656573	1.131396	-0.017311
H189	H	0.696571	1.013783	0.004010
H190	H	0.276293	0.576614	0.315210
N191	N	0.429329	1.447006	-0.340140
H192	H	0.378836	1.485897	-0.397345
H193	H	0.491076	1.422922	-0.345465
N194	N	0.590695	0.345383	0.245325
H195	H	0.541952	0.428159	0.188123
H196	H	0.659329	0.310613	0.269391
H197	H	1.339998	0.020723	0.645330
H198	H	0.845260	0.020784	0.645330
H199	H	0.605585	0.775782	-0.535422
N200	N	0.707620	0.137352	0.484462
H201	H	0.736678	0.063700	0.541222
H202	H	0.725329	0.122418	0.440751
H203	H	0.665596	0.326580	0.363904
N204	N	1.023512	0.329787	-0.042174
H205	H	0.951076	0.374057	-0.067665
H206	H	1.071324	0.243234	-0.010237
H207	H	0.736850	0.211203	0.002290
N208	N	0.535958	0.234350	0.336762
H209	H	0.520688	0.190031	0.362301
H210	H	0.472062	0.320907	0.304772
N211	N	0.518949	0.111877	0.365373
H212	H	0.503680	0.067557	0.390913
H213	H	0.455053	0.198434	0.333383
N214	N	1.221497	0.218823	0.049203
H215	H	1.284196	0.187364	0.086065
H216	H	1.201728	0.268467	-0.015434
N217	N	0.419830	1.063806	-0.257581
H218	H	0.383579	1.055619	-0.224024
H219	H	0.368340	1.143676	-0.317900
H220	H	0.157136	1.114882	-0.040581
H221	H	0.563883	1.295799	-0.165580
H222	H	0.657820	0.050960	0.134257
N223	N	0.538333	-0.031658	0.333386
H224	H	0.514311	-0.011260	0.373324
H225	H	0.599521	-0.119862	0.369882
H226	H	0.689052	0.114307	0.082096
H227	H	0.218622	0.665814	0.071103
N228	N	0.743890	0.473104	-0.010050
H229	H	0.767912	0.452711	-0.049990
H230	H	0.800036	0.443859	0.034701
H231	H	0.538358	0.880011	-0.524209
N232	N	0.240444	0.491779	0.234188
H233	H	0.271292	0.469419	0.197107
H234	H	0.189214	0.492334	0.234461
H235	H	0.398689	1.096551	-0.413226
N236	N	0.415240	1.070885	-0.526885
H237	H	0.411233	1.077092	-0.581789
H238	H	0.431156	1.110604	-0.526432
