data_functionalizedCrystal
_audit_creation_method	'MofGen! by Chris Wilmer'
_symmetry_space_group_name_H-M	'P1'
_symmetry_Int_Tables_number	1
_symmetry_cell_setting	triclinic
loop_
_symmetry_equiv_pos_as_xyz
  x,y,z
_cell_length_a	15.995300
_cell_length_b	14.519709
_cell_length_c	12.996460
_cell_angle_alpha	90.007090
_cell_angle_beta	89.992829
_cell_angle_gamma	96.424024
loop_
_atom_site_label
_atom_site_type_symbol
_atom_site_fract_x
_atom_site_fract_y
_atom_site_fract_z
O1	O	1.111191	-0.118654	-0.085607
O2	O	0.867432	-0.133382	-0.085601
O3	O	0.995774	0.008234	-0.085595
O4	O	0.982848	-0.260269	-0.085613
O5	O	0.995761	0.008242	0.085539
O6	O	0.867418	-0.133374	0.085533
O7	O	1.111177	-0.118646	0.085527
Cu8	Cu	0.989296	-0.126009	0.101156
Cu9	Cu	0.989312	-0.126018	-0.101230
O10	O	0.982835	-0.260261	0.085521
C11	C	0.836229	-0.132777	-0.000033
C12	C	0.743273	-0.130976	-0.000031
C13	C	0.573085	-0.127650	-0.000038
C14	C	0.525770	-0.228484	-0.000043
C15	C	0.429080	-0.226644	-0.000434
C16	C	0.405524	-0.124377	-0.000045
C17	C	0.446589	-0.074355	-0.097574
C18	C	0.543226	-0.076906	-0.097654
C19	C	0.543488	-0.075404	0.096964
C20	C	0.446544	-0.075414	0.098244
C21	C	0.310826	-0.122522	-0.000052
C22	C	0.667784	-0.129503	-0.000038
C23	C	0.995165	0.042596	-0.000028
C24	C	0.993360	0.144974	-0.000027
C25	C	1.142380	-0.119251	-0.000043
C26	C	1.235336	-0.121051	-0.000052
C27	C	0.983444	-0.294624	-0.000048
C28	C	0.985249	-0.397001	-0.000056
N29	N	0.989291	-0.126002	0.243503
C30	C	0.986714	0.519856	-0.000054
C31	C	0.988560	0.415552	-0.000046
C32	C	0.990037	0.332418	-0.000039
C33	C	0.991883	0.228108	-0.000034
N34	N	0.989324	-0.126018	-0.243577
C35	C	0.989311	-0.126019	0.663317
C36	C	0.989303	-0.126018	0.546512
C37	C	0.989302	-0.126011	0.453414
C38	C	0.989293	-0.126008	0.336601
H39	H	0.431093	-0.000853	0.104426
H40	H	0.544317	-0.269002	0.069885
Cl41	Cl	0.575205	-0.126653	0.211132
H42	H	0.561605	-0.112964	-0.170840
H43	H	0.418261	-0.108655	-0.170434
H44	H	0.419253	-0.111943	0.170397
Cl45	Cl	0.556139	-0.290123	-0.107870
Cl46	Cl	0.386178	-0.287074	-0.109014
H47	H	0.575158	-0.001062	0.097907
Cl48	Cl	0.592887	0.037406	-0.104075
H49	H	0.400670	-0.265950	0.069463
H50	H	0.432377	0.000788	-0.100922
