data_functionalizedCrystal
_audit_creation_method	'MofGen! by Chris Wilmer'
_symmetry_space_group_name_H-M	'P1'
_symmetry_Int_Tables_number	1
_symmetry_cell_setting	triclinic
loop_
_symmetry_equiv_pos_as_xyz
  x,y,z
_cell_length_a	6.817900
_cell_length_b	11.102289
_cell_length_c	11.102291
_cell_angle_alpha	91.949175
_cell_angle_beta	108.605752
_cell_angle_gamma	108.605707
loop_
_atom_site_label
_atom_site_type_symbol
_atom_site_fract_x
_atom_site_fract_y
_atom_site_fract_z
V1	V	-4.111539	-0.175855	-0.396259
O2	O	-4.070571	0.008434	-0.388716
O3	O	-4.088316	-0.348675	-0.393548
O4	O	-4.088323	-0.173157	-0.569081
O5	O	-4.070563	-0.168299	-0.211968
V6	V	-4.588641	-0.153811	-0.374216
O7	O	-4.386882	-0.224210	-0.444611
O8	O	-4.763495	-0.105456	-0.325864
O9	O	-4.388657	0.019009	-0.376926
O10	O	-4.747005	-0.338100	-0.381759
O11	O	-4.747013	-0.161367	-0.558507
O12	O	-4.388650	-0.156509	-0.201394
C13	C	-3.938626	-0.390805	-0.387297
C14	C	-4.001093	-0.532087	-0.386233
C15	C	-4.214448	-0.604936	-0.392073
C16	C	-4.273136	-0.737687	-0.391084
C17	C	-3.905091	-0.724729	-0.378410
C18	C	-3.846411	-0.591981	-0.379408
C19	C	-4.426934	-0.612418	-0.399385
C20	C	-4.485622	-0.745169	-0.398396
C21	C	-3.938635	-0.166913	-0.611205
C22	C	-4.001104	-0.165850	-0.752488
C23	C	-4.214459	-0.171690	-0.825336
C24	C	-4.273130	-0.170667	-0.958082
C25	C	-3.905073	-0.157970	-0.945121
C26	C	-3.846400	-0.158984	-0.812376
C27	C	-4.426957	-0.179026	-0.832821
C28	C	-4.485628	-0.178003	-0.965567
C29	C	-4.201689	0.061132	-0.383174
C30	C	-4.118462	0.202413	-0.384246
C31	C	-4.201680	-0.162758	-0.159263
C32	C	-4.118448	-0.163813	-0.017979
H33	H	-4.538802	-0.593201	-0.491815
O34	O	-4.427186	-0.549107	-0.292428
C35	C	-4.487440	-0.566102	-0.090325
C36	C	-4.487319	-0.637968	-0.211410
H37	H	-4.536006	-0.637911	-0.024776
H38	H	-4.610908	-0.513886	-0.119437
H39	H	-4.315318	-0.493279	-0.037080
H40	H	-4.659348	-0.710853	-0.264711
H41	H	-4.363732	-0.690098	-0.182214
H42	H	-3.672690	-0.532675	-0.374667
H43	H	-4.629325	-0.269897	-1.018414
H44	H	-3.779126	-0.152377	-0.993897
O45	O	-4.642948	-0.814023	-0.510778
C46	C	-4.878224	-0.807425	-0.723039
C47	C	-4.700110	-0.729289	-0.595827
H48	H	-4.924460	-0.738951	-0.791846
H49	H	-5.030714	-0.869352	-0.703414
H50	H	-4.811234	-0.871834	-0.768066
H51	H	-4.766895	-0.664808	-0.550734
H52	H	-4.547652	-0.667446	-0.615533
H53	H	-4.536928	-0.770135	-0.311581
O54	O	-4.528810	-0.070284	-1.000343
C55	C	-4.431663	0.118595	-1.100232
C56	C	-4.382501	-0.003334	-1.060886
H57	H	-4.313431	0.172744	-1.149213
H58	H	-4.409188	0.182983	-1.011065
H59	H	-4.608899	0.090266	-1.169631
H60	H	-4.205274	0.024877	-0.991518
H61	H	-4.405125	-0.067691	-1.150112
H62	H	-3.672673	-0.154230	-0.753067
O63	O	-4.450147	-0.076217	-0.776425
C64	C	-4.417156	0.039218	-0.579026
C65	C	-4.390845	-0.077275	-0.642731
H66	H	-4.369179	0.038416	-0.470922
H67	H	-4.596226	0.033887	-0.620700
H68	H	-4.305385	0.131656	-0.598297
H69	H	-4.502488	-0.169771	-0.623484
H70	H	-4.211717	-0.071830	-0.601051
O71	O	-4.541023	-0.292147	-0.803846
C72	C	-4.815238	-0.503747	-0.885388
C73	C	-4.686255	-0.375693	-0.918382
H74	H	-4.932655	-0.571339	-0.977970
H75	H	-4.913989	-0.485047	-0.825720
H76	H	-4.694421	-0.549689	-0.828032
H77	H	-4.806917	-0.329685	-0.975781
H78	H	-4.587472	-0.394476	-0.977989
H79	H	-3.779163	-0.773511	-0.372854
