data_functionalizedCrystal
_audit_creation_method	'MofGen! by Chris Wilmer'
_symmetry_space_group_name_H-M	'P1'
_symmetry_Int_Tables_number	1
_symmetry_cell_setting	triclinic
loop_
_symmetry_equiv_pos_as_xyz
  x,y,z
_cell_length_a	17.699083
_cell_length_b	10.654551
_cell_length_c	16.776229
_cell_angle_alpha	89.996205
_cell_angle_beta	89.998886
_cell_angle_gamma	83.884188
loop_
_atom_site_label
_atom_site_type_symbol
_atom_site_fract_x
_atom_site_fract_y
_atom_site_fract_z
O1	O	1.005088	0.158809	-0.066171
O2	O	0.784841	0.179470	-0.066197
O3	O	0.900028	-0.013689	-0.066184
O4	O	0.889902	0.351967	-0.066184
O5	O	0.900013	-0.013700	0.066393
O6	O	0.784826	0.179458	0.066380
O7	O	1.005073	0.158797	0.066405
Zn8	Zn	0.894947	0.169126	0.087442
Zn9	Zn	0.894967	0.169141	-0.087234
O10	O	0.889886	0.351955	0.066392
C11	C	0.756632	0.178724	0.000088
C12	C	0.672600	0.176503	0.000078
C13	C	0.899277	-0.060479	0.000102
C14	C	0.897052	-0.199884	0.000097
C15	C	0.624700	0.289883	0.000078
C16	C	0.545743	0.287788	0.000089
C17	C	0.514688	0.172313	0.000093
C18	C	0.562594	0.058924	0.000095
C19	C	0.641549	0.061020	0.000091
C20	C	0.244177	0.050470	0.000115
C21	C	0.165216	0.048383	0.000117
C22	C	0.148371	0.277238	0.000113
C23	C	0.227327	0.279334	0.000108
C24	C	0.275226	0.165946	0.000115
C25	C	0.360839	0.168218	0.000105
C26	C	0.429076	0.170039	0.000097
C27	C	0.896016	-0.265371	-0.072169
C28	C	0.893919	-0.396355	-0.072166
C29	C	0.893896	-0.396353	0.072376
C30	C	0.895988	-0.265370	0.072372
C31	C	0.897080	-0.199884	-0.144445
C32	C	0.896046	-0.265372	-0.216717
C33	C	0.893949	-0.396355	-0.216713
C34	C	0.892886	-0.461851	-0.144438
C35	C	1.033282	0.159543	0.000118
C36	C	1.117315	0.161764	0.000123
C37	C	0.890638	0.398746	0.000104
C38	C	0.892863	0.538150	0.000104
N39	N	0.894939	0.169114	0.206653
N40	N	0.894982	0.169143	-0.206445
C41	C	0.945959	0.083619	0.248376
C42	C	0.945964	0.083618	0.331828
C43	C	0.894950	0.169119	0.373556
C44	C	0.843924	0.254619	0.331827
C45	C	0.843917	0.254613	0.248377
C46	C	0.843951	0.254643	0.668374
C47	C	0.843964	0.254645	0.751831
C48	C	0.945998	0.083648	0.751826
C49	C	0.945991	0.083642	0.668375
C50	C	0.894963	0.169137	0.626654
C51	C	0.894958	0.169135	0.536165
C52	C	0.894958	0.169127	0.464043
H53	H	0.506746	0.380114	0.000088
H54	H	0.893031	-0.449690	0.131219
O55	O	0.260824	0.403881	0.000115
H56	H	0.214251	0.482372	0.000128
O57	O	0.788874	0.346810	0.203376
H58	H	0.797428	0.332426	0.138337
O59	O	1.001008	-0.008583	0.623366
H60	H	1.036481	-0.068045	0.666400
H61	H	0.891167	-0.568505	-0.144441
H62	H	0.898790	-0.093231	-0.144455
H63	H	0.680549	-0.031306	0.000090
H64	H	0.896815	-0.212046	0.131217
H65	H	0.283168	-0.041858	0.000121
H66	H	0.896904	-0.212035	-0.275561
O67	O	0.892807	-0.466990	-0.294658
H68	H	0.893896	-0.399443	-0.344912
O69	O	0.096706	0.399539	0.000124
H70	H	0.060320	0.404063	-0.053903
H71	H	0.649978	0.383916	0.000074
O72	O	1.000978	-0.008606	0.203370
H73	H	1.036450	-0.068066	0.246406
H74	H	0.139935	-0.045657	0.000122
H75	H	0.802384	0.324231	0.365807
O76	O	0.529105	-0.065630	0.000103
H77	H	0.466155	-0.048042	0.000099
H78	H	0.987508	0.014000	0.365798
H79	H	0.987546	0.014030	0.785804
H80	H	0.802420	0.324273	0.785804
O81	O	0.788924	0.346862	0.623379
H82	H	0.753461	0.406325	0.666417
