data_functionalizedCrystal
_audit_creation_method	'MofGen! by Chris Wilmer'
_symmetry_space_group_name_H-M	'P1'
_symmetry_Int_Tables_number	1
_symmetry_cell_setting	triclinic
loop_
_symmetry_equiv_pos_as_xyz
  x,y,z
_cell_length_a	18.215407
_cell_length_b	19.077068
_cell_length_c	18.215399
_cell_angle_alpha	92.268164
_cell_angle_beta	89.980167
_cell_angle_gamma	92.327501
loop_
_atom_site_label
_atom_site_type_symbol
_atom_site_fract_x
_atom_site_fract_y
_atom_site_fract_z
Zn1	Zn	1.113288	-0.280200	-0.427869
Zn2	Zn	1.446621	0.053133	-0.094535
Zn3	Zn	1.779955	0.386466	0.238798
Zn4	Zn	1.108246	-0.397902	-0.309739
Zn5	Zn	1.441580	-0.064569	0.023594
Zn6	Zn	1.774913	0.268765	0.356927
Zn7	Zn	0.990220	-0.280223	-0.304817
Zn8	Zn	1.323553	0.053110	0.028516
Zn9	Zn	1.656886	0.386443	0.361850
Zn10	Zn	0.985238	-0.397863	-0.432763
Zn11	Zn	1.318571	-0.064530	-0.099429
Zn12	Zn	1.651905	0.268804	0.233904
O13	O	1.049248	-0.339047	-0.368797
O14	O	1.382581	-0.005714	-0.035464
O15	O	1.715915	0.327619	0.297870
O16	O	1.215603	-0.295821	-0.412210
O17	O	1.548936	0.037513	-0.078877
O18	O	1.882270	0.370846	0.254456
O19	O	1.092565	-0.382318	-0.206103
O20	O	1.425898	-0.048984	0.127230
O21	O	1.759231	0.284349	0.460564
O22	O	1.010740	-0.181729	-0.317032
O23	O	1.344073	0.151604	0.016301
O24	O	1.677406	0.484937	0.349635
O25	O	1.211899	-0.382295	-0.325421
O26	O	1.545232	-0.048962	0.007912
O27	O	1.878566	0.284371	0.341245
O28	O	1.101157	-0.181712	-0.407437
O29	O	1.434491	0.151621	-0.074104
O30	O	1.767824	0.484954	0.259229
O31	O	1.005851	-0.295860	-0.202487
O32	O	1.339184	0.037474	0.130847
O33	O	1.672518	0.370807	0.464180
O34	O	0.886575	-0.295822	-0.321777
O35	O	1.219908	0.037512	0.011556
O36	O	1.553241	0.370845	0.344889
O37	O	1.002249	-0.382229	-0.535097
O38	O	1.335583	-0.048895	-0.201763
O39	O	1.668916	0.284438	0.131570
O40	O	0.882915	-0.382251	-0.415778
O41	O	1.216248	-0.048918	-0.082445
O42	O	1.549582	0.284416	0.250888
O43	O	1.096327	-0.295783	-0.531501
O44	O	1.429660	0.037551	-0.198168
O45	O	1.762994	0.370884	0.135166
O46	O	1.087734	-0.496388	-0.330167
O47	O	1.421068	-0.163055	0.003167
O48	O	1.754401	0.170279	0.336500
O49	O	0.997361	-0.496359	-0.420551
O50	O	1.330694	-0.163026	-0.087218
O51	O	1.664027	0.170307	0.246115
C52	C	0.858042	-0.339035	-0.368775
C53	C	1.191376	-0.005702	-0.035442
C54	C	1.524709	0.327632	0.297891
C55	C	0.776243	-0.339047	-0.368784
C56	C	1.109576	-0.005714	-0.035451
C57	C	1.442909	0.327620	0.297883
C58	C	0.586159	-0.384121	-0.417674
C59	C	0.919493	-0.050788	-0.084341
C60	C	1.252826	0.282545	0.248992
C61	C	0.509301	-0.384124	-0.417684
C62	C	0.842634	-0.050790	-0.084350
C63	C	1.175967	0.282543	0.248983
C64	C	0.513088	-0.293986	-0.319936
C65	C	0.846421	0.039348	0.013397
C66	C	1.179755	0.372681	0.346731
C67	C	0.589945	-0.293980	-0.319931
C68	C	0.923279	0.039353	0.013403
C69	C	1.256612	0.372686	0.346736
C70	C	0.626479	-0.339052	-0.368799
C71	C	0.959812	-0.005719	-0.035466
C72	C	1.293146	0.327614	0.297868
C73	C	0.472763	-0.339060	-0.368814
C74	C	0.806096	-0.005726	-0.035480
C75	C	1.139429	0.327607	0.297853
C76	C	0.389429	-0.339062	-0.368823
C77	C	0.722762	-0.005728	-0.035490
C78	C	1.056096	0.327605	0.297843
C79	C	0.709818	-0.339050	-0.368791
C80	C	1.043152	-0.005716	-0.035457
C81	C	1.376485	0.327617	0.297876
C82	C	1.041480	-0.521911	-0.376440
C83	C	1.374813	-0.188578	-0.043107
C84	C	1.708146	0.144755	0.290226
C85	C	1.038224	-0.600141	-0.379735
C86	C	1.371557	-0.266808	-0.046401
C87	C	1.704891	0.066525	0.286932
C88	C	1.083783	-0.636886	-0.334263
C89	C	1.417117	-0.303552	-0.000930
C90	C	1.750450	0.029781	0.332404
C91	C	1.080725	-0.710391	-0.337366
C92	C	1.414059	-0.377058	-0.004033
C93	C	1.747392	-0.043724	0.329301
C94	C	1.032104	-0.747151	-0.385937
C95	C	1.365437	-0.413818	-0.052604
C96	C	1.698770	-0.080484	0.280729
C97	C	0.986542	-0.710401	-0.431414
C98	C	1.319875	-0.377068	-0.098081
C99	C	1.653209	-0.043735	0.235253
C100	C	0.989604	-0.636897	-0.428314
C101	C	1.322938	-0.303564	-0.094981
C102	C	1.656271	0.029769	0.238352
C103	C	1.017899	-0.966985	-0.400254
C104	C	1.351232	-0.633652	-0.066920
C105	C	1.684566	-0.300319	0.266413
C106	C	1.014839	-1.040495	-0.403348
C107	C	1.348172	-0.707161	-0.070015
C108	C	1.681505	-0.373828	0.263318
C109	C	1.109023	-1.040479	-0.309301
C110	C	1.442357	-0.707146	0.024032
C111	C	1.775690	-0.373813	0.357366
C112	C	1.112078	-0.966974	-0.306202
C113	C	1.445412	-0.633640	0.027131
C114	C	1.778745	-0.300307	0.360464
C115	C	1.066520	-0.930231	-0.351682
C116	C	1.399853	-0.596897	-0.018348
C117	C	1.733186	-0.263564	0.314985
N118	N	1.028975	-0.822285	-0.389109
N119	N	1.362308	-0.488952	-0.055775
N120	N	1.695642	-0.155619	0.277558
N121	N	1.069652	-0.855098	-0.348514
N122	N	1.402986	-0.521764	-0.015180
N123	N	1.736319	-0.188431	0.318153
C124	C	1.241200	-0.339060	-0.368819
C125	C	1.574534	-0.005726	-0.035486
C126	C	1.907867	0.327607	0.297848
C127	C	1.322999	-0.339065	-0.368828
C128	C	1.656332	-0.005732	-0.035495
C129	C	1.989666	0.327602	0.297838
C130	C	1.049295	-0.338999	-0.560748
C131	C	1.382628	-0.005665	-0.227415
C132	C	1.715962	0.327668	0.105919
C133	C	1.049315	-0.338978	-0.642546
C134	C	1.382648	-0.005645	-0.309213
C135	C	1.715981	0.327689	0.024121
C136	C	1.057067	-0.155469	-0.361140
C137	C	1.390400	0.177864	-0.027806
C138	C	1.723733	0.511198	0.305527
C139	C	1.060398	-0.077239	-0.357877
C140	C	1.393732	0.256094	-0.024543
C141	C	1.727065	0.589428	0.308790
C142	C	1.098320	-0.293923	-0.828867
C143	C	1.431653	0.039410	-0.495534
C144	C	1.764986	0.372743	-0.162201
C145	C	1.098329	-0.293903	-0.905725
C146	C	1.431663	0.039430	-0.572392
C147	C	1.764996	0.372764	-0.239058
C148	C	1.000366	-0.383924	-0.909458
C149	C	1.333700	-0.050590	-0.576125
C150	C	1.667033	0.282743	-0.242791
C151	C	1.000354	-0.383940	-0.832601
C152	C	1.333687	-0.050607	-0.499268
C153	C	1.667021	0.282726	-0.165935
C154	C	1.049335	-0.338941	-0.792308
C155	C	1.382668	-0.005608	-0.458975
C156	C	1.716001	0.327726	-0.125641
C157	C	1.049357	-0.338904	-0.946023
C158	C	1.382690	-0.005571	-0.612689
C159	C	1.716024	0.327763	-0.279356
C160	C	1.049367	-0.338882	-1.029355
C161	C	1.382700	-0.005549	-0.696022
C162	C	1.716034	0.327784	-0.362689
C163	C	1.049324	-0.338962	-0.708970
C164	C	1.382657	-0.005628	-0.375636
C165	C	1.715990	0.327705	-0.042303
C166	C	1.049246	-0.339045	-0.177591
C167	C	1.382579	-0.005711	0.155743
C168	C	1.715912	0.327622	0.489076
C169	C	1.049377	-0.338867	-0.095785
C170	C	1.382710	-0.005534	0.237549
C171	C	1.716043	0.327800	0.570882
H172	H	0.476476	-0.420822	-0.457484
H173	H	0.809809	-0.087489	-0.124151
H174	H	1.143142	0.245844	0.209183
H175	H	1.138217	-0.257244	-0.935488
H176	H	1.471550	0.076090	-0.602155
H177	H	1.804884	0.409423	-0.268821
C178	C	0.672216	-0.394010	-0.517055
C179	C	1.005549	-0.060676	-0.183721
C180	C	1.338883	0.272657	0.149612
C181	C	0.626321	-0.433657	-0.471395
C182	C	0.959654	-0.100323	-0.138061
C183	C	1.292987	0.233010	0.195272
H184	H	0.697011	-0.424592	-0.550218
H185	H	1.030344	-0.091258	-0.216884
H186	H	1.363678	0.242075	0.116449
H187	H	0.643544	-0.363386	-0.543974
H188	H	0.976877	-0.030052	-0.210641
H189	H	1.310210	0.303281	0.122692
H190	H	0.707227	-0.367172	-0.487936
H191	H	1.040561	-0.033839	-0.154603
H192	H	1.373894	0.299495	0.178730
H193	H	0.591306	-0.460491	-0.500513
H194	H	0.924639	-0.127157	-0.167179
H195	H	1.257972	0.206176	0.166154
H196	H	0.654995	-0.464293	-0.444473
H197	H	0.988328	-0.130959	-0.111139
H198	H	1.321662	0.202374	0.222194
H199	H	1.146116	-1.070403	-0.272275
H200	H	1.479449	-0.737070	0.061058
H201	H	1.812782	-0.403737	0.394391
H202	H	1.138201	-0.257280	-0.796062
H203	H	1.471535	0.076053	-0.462729
H204	H	1.804868	0.409386	-0.129396
H205	H	0.952506	-0.606981	-0.465343
H206	H	1.285839	-0.273647	-0.132010
H207	H	1.619173	0.059686	0.201324
C208	C	0.922059	-1.033131	-0.496019
C209	C	1.255392	-0.699798	-0.162685
C210	C	1.588726	-0.366464	0.170648
C211	C	0.961397	-1.080903	-0.456750
C212	C	1.294730	-0.747570	-0.123416
C213	C	1.628064	-0.414236	0.209917
H214	H	0.889072	-1.058079	-0.528987
H215	H	1.222406	-0.724746	-0.195654
H216	H	1.555739	-0.391412	0.137680
H217	H	0.895114	-1.004507	-0.462728
H218	H	1.228447	-0.671173	-0.129395
H219	H	1.561781	-0.337840	0.203939
H220	H	0.955314	-1.004416	-0.522983
H221	H	1.288647	-0.671083	-0.189649
H222	H	1.621981	-0.337749	0.143684
H223	H	0.928142	-1.109615	-0.429781
H224	H	1.261475	-0.776281	-0.096448
H225	H	1.594809	-0.442948	0.236886
H226	H	0.988343	-1.109539	-0.490045
H227	H	1.321677	-0.776206	-0.156711
H228	H	1.655010	-0.442872	0.176622
H229	H	0.960490	-0.420562	-0.942274
H230	H	1.293823	-0.087229	-0.608941
H231	H	1.627156	0.246105	-0.275608
C232	C	0.903526	-0.472931	-0.844005
C233	C	1.236859	-0.139598	-0.510672
C234	C	1.570192	0.193735	-0.177339
C235	C	0.946508	-0.433431	-0.792410
C236	C	1.279841	-0.100097	-0.459077
C237	C	1.613175	0.233236	-0.125743
H238	H	0.870288	-0.503484	-0.819191
H239	H	1.203621	-0.170151	-0.485858
H240	H	1.536955	0.163182	-0.152524
H241	H	0.876684	-0.442261	-0.872697
H242	H	1.210017	-0.108927	-0.539364
H243	H	1.543351	0.224406	-0.206031
H244	H	0.934456	-0.499847	-0.875112
H245	H	1.267790	-0.166513	-0.541779
H246	H	1.601123	0.166820	-0.208445
H247	H	0.915577	-0.406511	-0.761306
H248	H	1.248911	-0.073178	-0.427973
H249	H	1.582244	0.260156	-0.094640
H250	H	0.973351	-0.464105	-0.763705
H251	H	1.306685	-0.130772	-0.430372
H252	H	1.640018	0.202562	-0.097039
C253	C	1.120646	-0.614315	-0.208726
C254	C	1.453979	-0.280982	0.124607
C255	C	1.787312	0.052352	0.457940
C256	C	1.137230	-0.596483	-0.280870
C257	C	1.470563	-0.263150	0.052463
C258	C	1.803897	0.070184	0.385797
H259	H	1.153647	-0.589376	-0.175765
H260	H	1.486980	-0.256043	0.157568
H261	H	1.820313	0.077291	0.490901
H262	H	1.071712	-0.602311	-0.197409
H263	H	1.405045	-0.268978	0.135924
H264	H	1.738378	0.064356	0.469258
H265	H	1.125344	-0.663352	-0.204076
H266	H	1.458677	-0.330018	0.129257
H267	H	1.792010	0.003315	0.462591
H268	H	1.132527	-0.547447	-0.285522
H269	H	1.465860	-0.214114	0.047812
H270	H	1.799193	0.119220	0.381145
H271	H	1.186176	-0.608482	-0.292191
H272	H	1.519509	-0.275149	0.041143
H273	H	1.852843	0.058184	0.374476
H274	H	0.483333	-0.257291	-0.280148
H275	H	0.816666	0.076042	0.053185
H276	H	1.149999	0.409376	0.386519
H277	H	0.622775	-0.257275	-0.280130
H278	H	0.956108	0.076058	0.053203
H279	H	1.289442	0.409391	0.386536
H280	H	1.117824	-0.740305	-0.300338
H281	H	1.451158	-0.406972	0.032996
H282	H	1.784491	-0.073638	0.366329
C283	C	0.980773	-0.854323	-0.437272
C284	C	1.314107	-0.520989	-0.103939
C285	C	1.647440	-0.187656	0.229394
C286	C	0.967819	-0.926603	-0.450240
C287	C	1.301152	-0.593269	-0.116907
C288	C	1.634485	-0.259936	0.216426
H289	H	0.949856	-0.829391	-0.468137
H290	H	1.283190	-0.496058	-0.134804
H291	H	1.616523	-0.162725	0.198529
H292	H	0.970529	-0.842318	-0.387317
H293	H	1.303862	-0.508985	-0.053983
H294	H	1.637196	-0.175652	0.279350
H295	H	1.030719	-0.842238	-0.447581
H296	H	1.364053	-0.508904	-0.114248
H297	H	1.697386	-0.175571	0.219086
H298	H	0.917874	-0.938689	-0.439926
H299	H	1.251207	-0.605355	-0.106593
H300	H	1.584540	-0.272022	0.226740
H301	H	0.978057	-0.938612	-0.500208
H302	H	1.311391	-0.605279	-0.166874
H303	H	1.644724	-0.271945	0.166459
C304	C	1.204883	-0.974345	-0.213566
C305	C	1.538217	-0.641011	0.119767
C306	C	1.871550	-0.307678	0.453100
C307	C	1.165534	-0.926570	-0.252820
C308	C	1.498868	-0.593236	0.080513
C309	C	1.832201	-0.259903	0.413847
H310	H	1.237888	-0.949399	-0.180614
H311	H	1.571221	-0.616066	0.152719
H312	H	1.904554	-0.282732	0.486053
H313	H	1.171642	-1.003054	-0.186592
H314	H	1.504975	-0.669720	0.146741
H315	H	1.838309	-0.336387	0.480074
H316	H	1.231816	-1.002974	-0.246873
H317	H	1.565149	-0.669641	0.086460
H318	H	1.898483	-0.336308	0.419793
H319	H	1.138597	-0.897943	-0.219513
H320	H	1.471930	-0.564610	0.113820
H321	H	1.805264	-0.231276	0.447153
H322	H	1.198780	-0.897849	-0.279795
H323	H	1.532113	-0.564515	0.053538
H324	H	1.865446	-0.231182	0.386871
C325	C	0.893759	-0.703028	-0.524070
C326	C	1.227093	-0.369695	-0.190737
C327	C	1.560426	-0.036362	0.142597
C328	C	0.933098	-0.750805	-0.484809
C329	C	1.266432	-0.417472	-0.151476
C330	C	1.599765	-0.084139	0.181858
H331	H	0.860768	-0.727972	-0.557037
H332	H	1.194101	-0.394639	-0.223703
H333	H	1.527434	-0.061306	0.109630
H334	H	0.866820	-0.674405	-0.490774
H335	H	1.200153	-0.341071	-0.157441
H336	H	1.533486	-0.007738	0.175892
H337	H	0.927013	-0.674313	-0.551035
H338	H	1.260346	-0.340980	-0.217702
H339	H	1.593680	-0.007647	0.115631
H340	H	0.899845	-0.779517	-0.457839
H341	H	1.233178	-0.446184	-0.124506
H342	H	1.566511	-0.112850	0.208828
H343	H	0.960040	-0.779441	-0.518109
H344	H	1.293373	-0.446108	-0.184776
H345	H	1.626706	-0.112774	0.148558
