data_functionalizedCrystal
_audit_creation_method	'MofGen! by Chris Wilmer'
_symmetry_space_group_name_H-M	'P1'
_symmetry_Int_Tables_number	1
_symmetry_cell_setting	triclinic
loop_
_symmetry_equiv_pos_as_xyz
  x,y,z
_cell_length_a	11.792241
_cell_length_b	11.792254
_cell_length_c	13.330367
_cell_angle_alpha	89.995204
_cell_angle_beta	89.996651
_cell_angle_gamma	84.196007
loop_
_atom_site_label
_atom_site_type_symbol
_atom_site_fract_x
_atom_site_fract_y
_atom_site_fract_z
O1	O	1.506921	0.155566	-0.083327
O2	O	1.176581	0.171599	-0.083350
O3	O	1.349760	-0.001587	-0.083331
O4	O	1.333742	0.328752	-0.083346
O5	O	1.349734	-0.001591	0.083517
O6	O	1.176555	0.171595	0.083497
O7	O	1.506896	0.155562	0.083521
Cu8	Cu	1.341723	0.163578	0.098743
Cu9	Cu	1.341753	0.163583	-0.098573
O10	O	1.333717	0.328748	0.083501
C11	C	1.134277	0.170590	0.000071
C12	C	1.008263	0.167576	0.000062
C13	C	0.777551	0.162033	0.000091
C14	C	0.905936	0.165112	0.000075
C15	C	1.348738	-0.043880	0.000093
C16	C	1.345718	-0.169893	0.000091
C17	C	1.343264	-0.272229	0.000088
C18	C	1.340196	-0.400616	0.000078
C19	C	1.549199	0.156571	0.000098
C20	C	1.675213	0.159586	0.000100
C21	C	1.334738	0.371041	0.000076
C22	C	1.337758	0.497054	0.000070
N23	N	1.341710	0.163574	0.237525
N24	N	1.341775	0.163578	-0.237354
C25	C	1.265066	0.240239	0.710139
C26	C	1.418471	0.086918	0.710124
C27	C	1.418458	0.086914	0.605106
C28	C	1.341749	0.163576	0.552599
C29	C	1.265053	0.240241	0.605111
C30	C	1.495160	0.010259	0.552586
C31	C	1.495151	0.010253	0.447562
C32	C	1.418436	0.086910	0.395053
C33	C	1.341736	0.163577	0.447571
C34	C	1.265027	0.240238	0.395065
C35	C	1.188321	0.316901	0.447581
C36	C	1.188338	0.316897	0.552603
C37	C	1.418419	0.086913	0.290031
C38	C	1.265014	0.240239	0.290037
H39	H	1.202544	0.302662	0.247292
F40	F	1.576803	-0.071319	0.608467
H41	H	1.557608	-0.052170	0.404809
H42	H	1.125869	0.379324	0.404818
F43	F	1.500113	0.005340	0.766005
F44	F	1.106710	0.398483	0.608498
F45	F	1.183429	0.321822	0.766028
F46	F	1.500057	0.005335	0.234146
