data_functionalizedCrystal
_audit_creation_method	'MofGen! by Chris Wilmer'
_symmetry_space_group_name_H-M	'P1'
_symmetry_Int_Tables_number	1
_symmetry_cell_setting	triclinic
loop_
_symmetry_equiv_pos_as_xyz
  x,y,z
_cell_length_a	15.995292
_cell_length_b	15.944493
_cell_length_c	15.072220
_cell_angle_alpha	90.004743
_cell_angle_beta	89.986330
_cell_angle_gamma	83.471830
loop_
_atom_site_label
_atom_site_type_symbol
_atom_site_fract_x
_atom_site_fract_y
_atom_site_fract_z
O1	O	1.111010	0.108035	-0.073795
O2	O	1.611010	0.608035	0.426205
O3	O	0.867226	0.121456	-0.073790
O4	O	1.367226	0.621456	0.426210
O5	O	0.995800	-0.007535	-0.073800
O6	O	1.495800	0.492465	0.426200
O7	O	0.982435	0.237025	-0.073785
O8	O	1.482435	0.737025	0.426215
O9	O	0.995769	-0.007528	0.073765
O10	O	1.495769	0.492472	0.573765
O11	O	0.867194	0.121463	0.073775
O12	O	1.367194	0.621463	0.573775
O13	O	1.110978	0.108042	0.073770
O14	O	1.610978	0.608042	0.573770
Zn15	Zn	0.989081	0.114754	0.097202
Zn16	Zn	1.489081	0.614754	0.597202
Zn17	Zn	0.989123	0.114744	-0.097221
Zn18	Zn	1.489123	0.614744	0.402779
O19	O	0.982404	0.237032	0.073780
O20	O	1.482404	0.737032	0.573780
C21	C	0.836014	0.120913	-0.000007
C22	C	1.336014	0.620913	0.499993
C23	C	0.743062	0.119276	-0.000006
C24	C	1.243062	0.619276	0.499994
C25	C	0.405324	0.113255	-0.000016
C26	C	0.905324	0.613255	0.499984
C27	C	0.428623	0.206357	-0.000340
C28	C	0.928623	0.706357	0.499660
C29	C	0.525298	0.208127	-0.000003
C30	C	1.025298	0.708127	0.499997
C31	C	0.572880	0.116242	-0.000011
C32	C	1.072880	0.616242	0.499989
C33	C	0.543767	0.069700	0.084250
C34	C	1.043767	0.569700	0.584250
C35	C	0.446976	0.068579	0.084316
C36	C	0.946976	0.568579	0.584316
C37	C	0.447157	0.066670	-0.083493
C38	C	0.947157	0.566670	0.416507
C39	C	0.543650	0.070120	-0.084602
C40	C	1.043650	0.570120	0.415398
C41	C	0.667576	0.117926	-0.000006
C42	C	1.167576	0.617926	0.499994
C43	C	0.310629	0.111569	-0.000016
C44	C	0.810629	0.611569	0.499984
C45	C	0.995238	-0.038826	-0.000021
C46	C	1.495238	0.461174	0.499979
C47	C	0.993600	-0.132074	-0.000032
C48	C	1.493600	0.367926	0.499968
C49	C	1.069282	-0.367854	-0.000017
C50	C	1.569282	0.132146	0.499983
C51	C	1.028486	-0.418415	-0.072773
C52	C	1.528486	0.081585	0.427227
C53	C	0.990566	-0.302794	-0.000021
C54	C	1.490566	0.197206	0.499979
C55	C	1.028436	-0.418384	0.072715
C56	C	1.528436	0.081616	0.572715
C57	C	0.987641	-0.467703	-0.000007
C58	C	1.487641	0.032297	0.499993
C59	C	0.949791	-0.352127	-0.072837
C60	C	1.449791	0.147873	0.427163
C61	C	0.949752	-0.352092	0.072716
C62	C	1.449752	0.147908	0.572716
C63	C	0.908898	-0.402620	-0.000058
C64	C	1.408898	0.097380	0.499942
C65	C	0.992253	-0.207795	-0.000030
C66	C	1.492253	0.292205	0.499970
C67	C	0.985947	-0.562700	-0.000004
C68	C	1.485947	-0.062700	0.499996
C69	C	1.142189	0.108584	-0.000015
C70	C	1.642189	0.608584	0.499985
C71	C	1.235142	0.110222	-0.000022
C72	C	1.735142	0.610222	0.499978
C73	C	0.982966	0.268323	-0.000000
C74	C	1.482966	0.768323	0.500000
C75	C	0.984603	0.361572	0.000005
C76	C	1.484603	0.861572	0.500005
N77	N	0.989059	0.114759	0.229891
N78	N	1.489059	0.614759	0.729891
N79	N	0.989152	0.114731	-0.229910
N80	N	1.489152	0.614731	0.270090
C81	C	0.989121	0.114741	0.589092
C82	C	1.489121	0.614741	1.089092
C83	C	0.920093	0.183530	0.551491
C84	C	1.420093	0.683530	1.051491
C85	C	0.920251	0.183781	0.448665
C86	C	1.420251	0.683781	0.948665
C87	C	0.989089	0.114750	0.410888
C88	C	1.489089	0.614750	0.910888
C89	C	1.076454	0.133875	0.448179
C90	C	1.576454	0.633875	0.948179
C91	C	1.076067	0.134364	0.551037
C92	C	1.576067	0.634364	1.051037
C93	C	0.971565	0.026623	0.551188
C94	C	1.471565	0.526623	1.051188
C95	C	0.969560	0.027211	0.448324
C96	C	1.469560	0.527211	0.948324
C97	C	0.989077	0.114754	0.310175
C98	C	1.489077	0.614754	0.810175
C99	C	0.989139	0.114739	0.689806
C100	C	1.489139	0.614739	1.189806
H101	H	0.400634	0.242240	-0.060767
H102	H	0.900634	0.742240	0.439233
H103	H	0.855311	0.172389	0.423454
H104	H	1.355311	0.672389	0.923454
C105	C	0.832078	0.168410	0.584963
C106	C	1.332078	0.668410	1.084963
N107	N	0.765784	0.157024	0.610186
N108	N	1.265784	0.657024	1.110186
C109	C	0.586860	-0.021633	0.088499
C110	C	1.086860	0.478367	0.588499
N111	N	0.619329	-0.090421	0.091704
N112	N	1.119329	0.409579	0.591704
C113	C	0.588197	-0.020489	-0.091481
C114	C	1.088197	0.479511	0.408519
N115	N	0.621747	-0.088741	-0.096654
N116	N	1.121747	0.411259	0.403346
H117	H	1.061742	-0.447372	-0.134285
H118	H	1.561742	0.052628	0.365715
H119	H	0.931148	0.248553	0.577333
H120	H	1.431148	0.748553	1.077333
H121	H	0.563807	0.102027	0.146962
H122	H	1.063807	0.602027	0.646962
C123	C	0.409005	0.106074	-0.169775
C124	C	0.909005	0.606074	0.330225
N125	N	0.380269	0.135765	-0.234759
N126	N	0.880269	0.635765	0.265241
H127	H	0.931460	0.249172	0.424055
H128	H	1.431460	0.749172	0.924055
C129	C	0.904934	-0.313189	-0.156030
C130	C	1.404934	0.186811	0.343970
N131	N	0.871153	-0.283859	-0.218692
N132	N	1.371153	0.216141	0.281308
C133	C	0.427330	-0.023638	0.089484
C134	C	0.927330	0.476362	0.589484
N135	N	0.412535	-0.093096	0.093381
N136	N	0.912535	0.406904	0.593381
C137	C	0.882736	0.007604	0.415405
C138	C	1.382736	0.507604	0.915405
N139	N	0.817339	-0.007161	0.390607
N140	N	1.317339	0.492839	0.890607
H141	H	1.091540	0.198626	0.575022
H142	H	1.591540	0.698626	1.075022
C143	C	0.568755	0.115895	-0.168818
C144	C	1.068755	0.615895	0.331182
N145	N	0.587672	0.150372	-0.232247
N146	N	1.087672	0.650372	0.267753
H147	H	1.129047	0.085104	0.423706
H148	H	1.629047	0.585104	0.923706
H149	H	1.129037	0.086235	0.575908
H150	H	1.629037	0.586235	1.075908
H151	H	1.016572	-0.026375	0.422612
H152	H	1.516572	0.473625	0.922612
C153	C	0.550140	0.257662	0.081751
C154	C	1.050140	0.757662	0.581751
N155	N	0.568851	0.294970	0.143334
N156	N	1.068851	0.794970	0.643334
C157	C	0.551020	0.257320	-0.081635
C158	C	1.051020	0.757320	0.418365
N159	N	0.570391	0.294358	-0.143133
N160	N	1.070391	0.794358	0.356867
H161	H	0.420141	0.100819	0.147309
H162	H	0.920141	0.600819	0.647309
H163	H	0.399585	0.242047	0.059753
H164	H	0.899585	0.742047	0.559753
H165	H	0.433175	-0.001859	-0.084068
H166	H	0.933175	0.498141	0.415932
H167	H	0.841041	-0.418068	-0.000097
H168	H	1.341041	0.081932	0.499903
H169	H	1.021904	-0.024567	0.575502
H170	H	1.521904	0.475433	1.075502
H171	H	0.916525	-0.323120	0.134230
H172	H	1.416525	0.176880	0.634230
H173	H	1.092297	0.197405	0.422414
H174	H	1.592297	0.697405	0.922414
H175	H	1.137087	-0.352243	-0.000092
H176	H	1.637087	0.147757	0.499908
C177	C	0.887352	0.001791	0.586266
C178	C	1.387352	0.501791	1.086266
N179	N	0.823918	-0.016903	0.612687
N180	N	1.323918	0.483097	1.112687
C181	C	1.073346	-0.457467	0.155812
C182	C	1.573346	0.042533	0.655812
N183	N	1.107178	-0.486901	0.218398
N184	N	1.607178	0.013099	0.718398
