data_functionalizedCrystal
_audit_creation_method	'MofGen! by Chris Wilmer'
_symmetry_space_group_name_H-M	'P1'
_symmetry_Int_Tables_number	1
_symmetry_cell_setting	triclinic
loop_
_symmetry_equiv_pos_as_xyz
  x,y,z
_cell_length_a	6.817900
_cell_length_b	15.301058
_cell_length_c	15.348527
_cell_angle_alpha	85.247036
_cell_angle_beta	75.138174
_cell_angle_gamma	104.176278
loop_
_atom_site_label
_atom_site_type_symbol
_atom_site_fract_x
_atom_site_fract_y
_atom_site_fract_z
V1	V	-4.041370	-0.281420	0.125380
O2	O	-4.021465	-0.275783	-0.005386
O3	O	-3.999655	-0.279765	0.247993
O4	O	-3.996208	-0.404034	0.123732
O5	O	-4.024936	-0.150653	0.119736
V6	V	-4.523713	-0.265747	0.109706
O7	O	-4.305219	-0.315801	0.159763
O8	O	-4.710061	-0.231365	0.075323
O9	O	-4.342221	-0.267402	-0.012907
O10	O	-4.661015	-0.271384	0.240472
O11	O	-4.657544	-0.396513	0.115351
O12	O	-4.345669	-0.143133	0.111354
C13	C	-3.846178	-0.275395	0.277875
C14	C	-3.893379	-0.274859	0.378114
C15	C	-3.841779	-0.433911	0.119366
C16	C	-3.886181	-0.534151	0.118830
C17	C	-4.098040	-0.279115	0.429810
C18	C	-4.142382	-0.278617	0.523996
C19	C	-3.982056	-0.273856	0.566484
C20	C	-3.777380	-0.269602	0.514782
C21	C	-3.733044	-0.270107	0.420599
C22	C	-3.869801	-0.268548	0.711090
C23	C	-3.914137	-0.268042	0.805280
C24	C	-4.279138	-0.277058	0.814488
C25	C	-4.234803	-0.277563	0.720304
C26	C	-4.030127	-0.273307	0.668608
C27	C	-3.952181	-0.594301	0.201183
C28	C	-3.993909	-0.688486	0.200677
C29	C	-3.969623	-0.722520	0.117818
C30	C	-3.903623	-0.662362	0.035459
C31	C	-3.861910	-0.568179	0.035966
C32	C	-3.990564	-0.858671	0.034409
C33	C	-4.032276	-0.952860	0.033902
C34	C	-4.122564	-0.978978	0.199120
C35	C	-4.080851	-0.884795	0.199627
C36	C	-4.014850	-0.824644	0.117268
C37	C	-4.163440	-0.113250	0.115723
C38	C	-4.098276	-0.013010	0.116255
C39	C	-4.166006	-0.271766	0.957216
C40	C	-4.118798	-0.272298	0.856975
H41	H	-4.309034	-0.282084	0.566083
H42	H	-4.012553	-0.980568	-0.033568
O43	O	-4.186325	-1.037360	0.279140
C44	C	-4.030225	-1.017907	0.325239
H45	H	-3.871157	-0.981317	0.274045
H46	H	-4.019937	-1.084303	0.360936
H47	H	-4.073352	-0.972371	0.378012
H48	H	-4.228597	-0.282983	0.395222
O49	O	-4.104648	-0.851605	0.280051
C50	C	-4.256642	-0.802302	0.289534
H51	H	-4.268978	-0.778351	0.219300
H52	H	-4.207433	-0.740590	0.323855
H53	H	-4.416417	-0.848094	0.333114
O54	O	-4.390805	-0.282232	0.679180
C55	C	-4.580953	-0.285860	0.744998
H56	H	-4.574076	-0.312866	0.815323
H57	H	-4.718791	-0.333159	0.727960
H58	H	-4.603753	-0.214492	0.744933
H59	H	-3.936830	-0.809697	-0.032657
O60	O	-3.880379	-0.695537	-0.044965
C61	C	-4.075205	-0.753594	-0.045921
H62	H	-4.178455	-0.780499	0.027156
H63	H	-4.046434	-0.813314	-0.082201
H64	H	-4.158265	-0.713916	-0.083492
O65	O	-3.797721	-0.509870	-0.044116
C66	C	-3.785278	-0.560104	-0.117358
H67	H	-3.764858	-0.629470	-0.095071
H68	H	-3.644459	-0.521302	-0.177391
H69	H	-3.936448	-0.570159	-0.138839
H70	H	-3.783597	-0.264192	0.839875
O71	O	-4.477817	-0.281059	0.864768
C72	C	-4.473303	-0.202536	0.907090
H73	H	-4.307808	-0.172396	0.913075
H74	H	-4.590979	-0.221729	0.978055
H75	H	-4.517472	-0.149989	0.864364
H76	H	-3.703140	-0.265090	0.669003
O77	O	-3.621399	-0.264852	0.555932
C78	C	-3.458508	-0.183736	0.517719
H79	H	-3.464520	-0.159223	0.446508
H80	H	-3.299270	-0.197277	0.513075
H81	H	-3.480012	-0.129117	0.562673
O82	O	-3.975580	-0.561091	0.281591
C83	C	-3.924662	-0.465065	0.264385
H84	H	-3.816777	-0.439375	0.191894
H85	H	-3.840452	-0.435162	0.314935
H86	H	-4.075576	-0.443008	0.272412
H87	H	-3.566393	-0.266645	0.378510
O88	O	-4.057897	-0.746786	0.280755
C89	C	-4.070418	-0.696552	0.353997
H90	H	-3.964071	-0.623987	0.328568
H91	H	-4.016831	-0.730446	0.409218
H92	H	-4.240473	-0.694604	0.383430
