data_functionalizedCrystal
_audit_creation_method	'MofGen! by Chris Wilmer'
_symmetry_space_group_name_H-M	'P1'
_symmetry_Int_Tables_number	1
_symmetry_cell_setting	triclinic
loop_
_symmetry_equiv_pos_as_xyz
  x,y,z
_cell_length_a	8.559649
_cell_length_b	14.044220
_cell_length_c	7.088929
_cell_angle_alpha	83.206932
_cell_angle_beta	95.325015
_cell_angle_gamma	81.483771
loop_
_atom_site_label
_atom_site_type_symbol
_atom_site_fract_x
_atom_site_fract_y
_atom_site_fract_z
O1	O	2.100735	-0.021003	-0.158955
O2	O	1.642435	0.027448	-0.158968
O3	O	1.864708	-0.134262	-0.158943
O4	O	1.878463	0.140708	-0.158981
O5	O	1.894406	-0.155917	0.159035
O6	O	1.672134	0.005793	0.159010
O7	O	2.130433	-0.042657	0.159023
Cu8	Cu	1.903995	-0.020409	0.188051
Cu9	Cu	1.868874	0.005200	-0.187996
O10	O	1.908161	0.119053	0.158998
C11	C	1.598278	0.020292	0.000019
C12	C	1.422455	0.031222	0.000015
C13	C	1.873535	-0.179966	0.000047
C14	C	1.855571	-0.283884	0.000048
C15	C	1.822727	-0.474153	0.000020
C16	C	1.950133	-0.541060	0.000018
C17	C	1.931858	-0.646933	0.000002
C18	C	1.841000	-0.368270	0.000036
C19	C	2.174590	-0.035501	0.000031
C20	C	2.350412	-0.046430	0.000023
C21	C	1.899334	0.164757	0.000004
C22	C	1.917296	0.268676	-0.000011
N23	N	1.928709	-0.038422	0.452541
N24	N	1.844171	0.023205	-0.452487
H25	H	1.349615	0.106070	-0.000005
O26	O	2.096745	-0.514683	0.000301
C27	C	2.194724	-0.562862	0.165020
H28	H	2.147260	-0.631402	0.219899
H29	H	2.321063	-0.583382	0.128006
H30	H	2.195080	-0.512764	0.280348
H31	H	1.699936	-0.496383	0.000012
O32	O	1.739618	0.099469	0.450407
C33	C	1.664986	0.153840	0.581470
H34	H	1.743226	0.140501	0.724200
H35	H	1.646323	0.234425	0.523478
H36	H	1.545064	0.130560	0.602713
O37	O	1.437041	-0.135785	-0.000049
C38	C	1.334767	-0.205792	0.000008
H39	H	1.209382	-0.169002	-0.060196
H40	H	1.378665	-0.263177	-0.092302
H41	H	1.333555	-0.241807	0.152562
H42	H	2.016343	-0.102285	0.534207
