data_functionalizedCrystal
_audit_creation_method	'MofGen! by Chris Wilmer'
_symmetry_space_group_name_H-M	'P1'
_symmetry_Int_Tables_number	1
_symmetry_cell_setting	triclinic
loop_
_symmetry_equiv_pos_as_xyz
  x,y,z
_cell_length_a	16.109302
_cell_length_b	14.853559
_cell_length_c	15.186229
_cell_angle_alpha	89.998446
_cell_angle_beta	89.994701
_cell_angle_gamma	83.546617
loop_
_atom_site_label
_atom_site_type_symbol
_atom_site_fract_x
_atom_site_fract_y
_atom_site_fract_z
O1	O	1.103290	0.115884	-0.073264
O2	O	1.603290	0.615884	0.426736
O3	O	0.861248	0.130305	-0.073256
O4	O	1.361248	0.630305	0.426744
O5	O	0.988738	-0.008146	-0.073259
O6	O	1.488738	0.491854	0.426741
O7	O	0.975800	0.254335	-0.073261
O8	O	1.475800	0.754335	0.426739
O9	O	0.988729	-0.008148	0.073198
O10	O	1.488729	0.491852	0.573198
O11	O	0.861239	0.130303	0.073201
O12	O	1.361239	0.630303	0.573201
O13	O	1.103281	0.115882	0.073193
O14	O	1.603281	0.615882	0.573193
Zn15	Zn	0.982259	0.123092	0.096450
Zn16	Zn	1.482259	0.623092	0.596450
Zn17	Zn	0.982270	0.123095	-0.096513
Zn18	Zn	1.482270	0.623095	0.403487
O19	O	0.975791	0.254334	0.073196
O20	O	1.475791	0.754334	0.573196
C21	C	0.830268	0.129720	-0.000027
C22	C	1.330268	0.629720	0.499973
C23	C	0.737970	0.127968	-0.000024
C24	C	1.237970	0.627968	0.499976
C25	C	0.525619	0.123917	0.079801
C26	C	1.025619	0.623917	0.579801
C27	C	0.438897	0.122261	0.079798
C28	C	0.938897	0.622261	0.579798
C29	C	0.438916	0.122268	-0.079878
C30	C	0.938916	0.622268	0.420122
C31	C	0.525638	0.123917	-0.079874
C32	C	1.025638	0.623917	0.420126
C33	C	0.568986	0.124746	-0.000032
C34	C	1.068986	0.624746	0.499968
C35	C	0.395543	0.121441	-0.000039
C36	C	0.895543	0.621441	0.499961
C37	C	0.301514	0.119646	-0.000043
C38	C	0.801514	0.619646	0.499957
C39	C	0.663021	0.126539	-0.000028
C40	C	1.163021	0.626539	0.499972
C41	C	0.988149	-0.041735	-0.000032
C42	C	1.488149	0.458265	0.499968
C43	C	0.986396	-0.141816	-0.000037
C44	C	1.486396	0.358184	0.499963
C45	C	0.978964	-0.564978	-0.079871
C46	C	1.478964	-0.064978	0.420129
C47	C	0.978954	-0.564975	0.079802
C48	C	1.478954	-0.064975	0.579802
C49	C	0.980608	-0.470944	0.079803
C50	C	1.480608	0.029056	0.579803
C51	C	0.981439	-0.423926	-0.000034
C52	C	1.481439	0.076074	0.499966
C53	C	0.980615	-0.470939	-0.079873
C54	C	1.480615	0.029061	0.420127
C55	C	0.981423	-0.423924	0.159640
C56	C	1.481423	0.076076	0.659640
C57	C	0.983076	-0.329887	0.159644
C58	C	1.483076	0.170113	0.659644
C59	C	0.983913	-0.282868	0.079805
C60	C	1.483913	0.217132	0.579805
C61	C	0.983090	-0.329887	-0.000036
C62	C	1.483090	0.170113	0.499964
C63	C	0.983921	-0.282868	-0.079874
C64	C	1.483921	0.217132	0.420126
C65	C	0.983104	-0.329886	-0.159716
C66	C	1.483104	0.170114	0.340284
C67	C	0.981452	-0.423920	-0.159711
C68	C	1.481452	0.076080	0.340289
C69	C	0.985565	-0.188835	0.079800
C70	C	1.485565	0.311165	0.579800
C71	C	0.985572	-0.188829	-0.079875
C72	C	1.485572	0.311171	0.420125
C73	C	1.134261	0.116467	-0.000038
C74	C	1.634261	0.616467	0.499962
C75	C	1.226559	0.118219	-0.000046
C76	C	1.726559	0.618219	0.499954
C77	C	0.976380	0.287922	-0.000032
C78	C	1.476380	0.787922	0.499968
C79	C	0.978133	0.388004	-0.000033
C80	C	1.478133	0.888004	0.499967
N81	N	0.982257	0.123090	0.228143
N82	N	1.482257	0.623090	0.728143
N83	N	0.982278	0.123090	-0.228206
N84	N	1.482278	0.623090	0.271794
C85	C	1.038729	0.061804	0.453865
C86	C	1.538729	0.561804	0.953865
C87	C	1.038732	0.061802	0.546054
C88	C	1.538732	0.561802	1.046054
C89	C	0.925800	0.184378	0.546066
C90	C	1.425800	0.684378	1.046066
C91	C	0.925794	0.184376	0.453878
C92	C	1.425794	0.684376	0.953878
C93	C	0.982264	0.123090	0.407780
C94	C	1.482264	0.623090	0.907780
C95	C	0.982272	0.123090	0.592157
C96	C	1.482272	0.623090	1.092157
C97	C	0.982274	0.123089	0.692114
C98	C	1.482274	0.623089	1.192114
C99	C	0.982260	0.123090	0.307817
C100	C	1.482260	0.623090	0.807817
H101	H	0.403591	0.121586	0.144806
H102	H	0.903591	0.621586	0.644806
H103	H	0.403611	0.121594	-0.144882
H104	H	0.903611	0.621594	0.355118
Cl105	Cl	0.977946	-0.624084	-0.180239
Cl106	Cl	1.477946	-0.124084	0.319761
H107	H	0.560949	0.124590	-0.144887
H108	H	1.060949	0.624590	0.355113
Cl109	Cl	0.580112	0.124953	0.180173
Cl110	Cl	1.080112	0.624953	0.680173
Cl111	Cl	0.986622	-0.129729	-0.180249
Cl112	Cl	1.486622	0.370271	0.319751
H113	H	0.978273	-0.603262	0.144802
H114	H	1.478273	-0.103262	0.644802
H115	H	0.983774	-0.291590	-0.224720
H116	H	1.483774	0.208410	0.275280
Cl117	Cl	1.109716	-0.015244	0.395916
Cl118	Cl	1.609716	0.484756	0.895916
H119	H	0.879826	0.234277	0.583608
H120	H	1.379826	0.734277	1.083608
Cl121	Cl	0.980360	-0.483033	0.260000
Cl122	Cl	1.480360	0.016967	0.760000
Cl123	Cl	0.854800	0.261422	0.395937
Cl124	Cl	1.354800	0.761422	0.895937
H125	H	0.980786	-0.462209	-0.224715
H126	H	1.480786	0.037791	0.275285
Cl127	Cl	1.109718	-0.015247	0.603987
Cl128	Cl	1.609718	0.484753	1.103987
Cl129	Cl	0.986590	-0.129731	0.180165
Cl130	Cl	1.486590	0.370269	0.680165
Cl131	Cl	0.984100	-0.270788	0.260015
Cl132	Cl	1.484100	0.229212	0.760015
