data_functionalizedCrystal
_audit_creation_method	'MofGen! by Chris Wilmer'
_symmetry_space_group_name_H-M	'P1'
_symmetry_Int_Tables_number	1
_symmetry_cell_setting	triclinic
loop_
_symmetry_equiv_pos_as_xyz
  x,y,z
_cell_length_a	16.109301
_cell_length_b	8.559649
_cell_length_c	15.186229
_cell_angle_alpha	89.998040
_cell_angle_beta	89.999362
_cell_angle_gamma	76.620073
loop_
_atom_site_label
_atom_site_type_symbol
_atom_site_fract_x
_atom_site_fract_y
_atom_site_fract_z
O1	O	1.090045	0.205389	-0.073169
O2	O	0.846355	0.230949	-0.073183
O3	O	0.989670	-0.014444	-0.073174
O4	O	0.946731	0.450782	-0.073178
O5	O	0.989661	-0.014447	0.073283
O6	O	0.846347	0.230946	0.073274
O7	O	1.090037	0.205386	0.073288
Zn8	Zn	0.968191	0.218165	0.096534
Zn9	Zn	0.968202	0.218170	-0.096429
O10	O	0.946723	0.450779	0.073279
C11	C	0.815442	0.229912	0.000044
C12	C	0.723344	0.226808	0.000039
C13	C	0.992919	-0.073977	0.000053
C14	C	1.002605	-0.251362	0.000049
C15	C	0.492255	0.365202	0.000048
C16	C	0.405721	0.362273	0.000053
C17	C	0.444145	0.071122	0.000052
C18	C	0.530677	0.074053	0.000053
C19	C	0.554729	0.221098	0.000046
C20	C	0.381663	0.215238	0.000051
C21	C	0.287840	0.212061	0.000057
C22	C	0.648558	0.224275	0.000042
C23	C	1.120950	0.206423	0.000059
C24	C	1.213048	0.209527	0.000059
C25	C	0.943473	0.510312	0.000050
C26	C	0.933787	0.687697	0.000049
N27	N	0.968189	0.218161	0.228227
N28	N	0.968210	0.218161	-0.228122
C29	C	1.031666	0.109538	0.453954
C30	C	1.031669	0.109534	0.546144
C31	C	0.904727	0.326790	0.546145
C32	C	0.904722	0.326785	0.453957
C33	C	0.968196	0.218161	0.407864
C34	C	0.968204	0.218162	0.592241
C35	C	0.968207	0.218159	0.692198
C36	C	0.968192	0.218161	0.307901
H37	H	0.354857	0.479618	0.000056
H38	H	0.581547	-0.043302	0.000054
O39	O	1.093242	0.004081	0.591052
C40	C	1.149540	-0.092143	0.733069
C41	C	1.079745	0.027350	0.682322
H42	H	1.138663	-0.073349	0.806870
H43	H	1.146884	-0.220171	0.715012
H44	H	1.214786	-0.071296	0.714886
H45	H	1.014466	0.006650	0.700479
H46	H	1.082477	0.155336	0.700384
H47	H	0.867458	-0.228771	0.000048
H48	H	1.068938	-0.334903	0.000060
H49	H	0.853049	0.415232	0.583683
H50	H	1.083349	0.021087	0.416427
H51	H	0.853032	0.415239	0.416428
O52	O	0.515515	0.508135	-0.000069
C53	C	0.509187	0.757849	-0.075964
C54	C	0.482775	0.596046	-0.075935
H55	H	0.482744	0.828956	-0.137304
H56	H	0.482668	0.829159	-0.014712
H57	H	0.581766	0.735160	-0.075923
H58	H	0.410204	0.618588	-0.076007
H59	H	0.509356	0.524787	-0.137182
O60	O	0.420630	-0.071570	0.000013
C61	C	0.304353	-0.205122	0.000059
C62	C	0.330861	-0.043409	0.000087
H63	H	0.231773	-0.182410	0.000138
H64	H	0.330783	-0.276351	-0.061247
H65	H	0.330888	-0.276337	0.061337
H66	H	0.304334	0.027935	-0.061149
H67	H	0.304443	0.027697	0.061434
