data_functionalizedCrystal
_audit_creation_method	'MofGen! by Chris Wilmer'
_symmetry_space_group_name_H-M	'P1'
_symmetry_Int_Tables_number	1
_symmetry_cell_setting	triclinic
loop_
_symmetry_equiv_pos_as_xyz
  x,y,z
_cell_length_a	8.559649
_cell_length_b	8.559649
_cell_length_c	9.130313
_cell_angle_alpha	89.997262
_cell_angle_beta	89.996715
_cell_angle_gamma	69.778664
loop_
_atom_site_label
_atom_site_type_symbol
_atom_site_fract_x
_atom_site_fract_y
_atom_site_fract_z
O1	O	2.126879	-0.055035	-0.121776
O2	O	1.651394	0.028746	-0.121782
O3	O	1.931027	-0.250887	-0.121777
O4	O	1.847246	0.224598	-0.121781
O5	O	1.931011	-0.250892	0.121822
O6	O	1.651378	0.028741	0.121817
O7	O	2.126863	-0.055040	0.121822
Cu8	Cu	1.889119	-0.013150	0.144062
Cu9	Cu	1.889138	-0.013144	-0.144022
O10	O	1.847230	0.224593	0.121818
C11	C	1.591077	0.035093	0.000017
C12	C	1.411378	0.053992	0.000014
C13	C	1.937369	-0.311198	0.000020
C14	C	1.956268	-0.490898	0.000012
C15	C	2.187180	-0.061387	0.000021
C16	C	2.366879	-0.080286	0.000013
C17	C	1.840889	0.284904	0.000018
C18	C	1.821990	0.464604	0.000016
N19	N	1.889118	-0.013157	0.346685
N20	N	1.889154	-0.013152	-0.346644
C21	C	2.012971	-0.136937	0.423339
C22	C	2.012986	-0.136938	0.576676
C23	C	1.765289	0.110635	0.576691
C24	C	1.765268	0.110628	0.423357
H25	H	1.466258	-0.209705	0.000007
H26	H	1.311990	0.183420	0.000005
H27	H	1.664404	0.211426	0.360941
O28	O	1.644791	0.230743	0.651112
C29	C	1.351072	0.360303	0.698008
C30	C	1.487371	0.224184	0.613665
H31	H	1.223764	0.355069	0.667740
H32	H	1.372224	0.339064	0.820785
H33	H	1.356330	0.487638	0.667863
H34	H	1.482192	0.096792	0.643688
H35	H	1.466172	0.245569	0.490909
H36	H	2.085696	-0.590286	0.000025
O37	O	1.667500	-0.417001	-0.000189
C38	C	1.405462	-0.300927	-0.126448
C39	C	1.580359	-0.435131	-0.126380
H40	H	1.334971	-0.315517	-0.228477
H41	H	1.334729	-0.315540	-0.024572
H42	H	1.417257	-0.172279	-0.126386
H43	H	1.568717	-0.563838	-0.126493
H44	H	1.651027	-0.420371	-0.228247
O45	O	2.133344	-0.257349	0.349085
C46	C	2.379076	-0.502857	0.365261
C47	C	2.242830	-0.366605	0.449529
H48	H	2.467651	-0.591206	0.446433
H49	H	2.319083	-0.575476	0.293534
H50	H	2.451426	-0.442677	0.293414
H51	H	2.170434	-0.426649	0.521456
H52	H	2.302925	-0.294000	0.521164
H53	H	2.113836	-0.237733	0.639083
