data_functionalizedCrystal
_audit_creation_method	'MofGen! by Chris Wilmer'
_symmetry_space_group_name_H-M	'P1'
_symmetry_Int_Tables_number	1
_symmetry_cell_setting	triclinic
loop_
_symmetry_equiv_pos_as_xyz
  x,y,z
_cell_length_a	20.919309
_cell_length_b	20.919354
_cell_length_c	14.560438
_cell_angle_alpha	86.846618
_cell_angle_beta	57.441233
_cell_angle_gamma	60.709567
loop_
_atom_site_label
_atom_site_type_symbol
_atom_site_fract_x
_atom_site_fract_y
_atom_site_fract_z
Zr1	Zr	0.700755	0.644071	-0.210585
O2	O	0.834321	0.547051	-0.357034
O3	O	0.567192	0.670203	-0.160228
O4	O	0.700756	0.675409	-0.359710
O5	O	0.700755	0.541845	-0.006412
O6	O	0.700754	0.780767	-0.368034
O7	O	0.700756	0.541845	-0.157553
O8	O	0.461832	0.771454	-0.011198
O9	O	0.939677	0.551158	-0.363248
O10	O	0.622126	0.764337	-0.151563
O11	O	0.622126	0.685710	-0.032556
O12	O	0.779381	0.691839	-0.267420
O13	O	0.779381	0.613212	-0.148413
Zr14	Zr	0.700749	0.812105	0.017191
Zr15	Zr	0.700752	0.812105	-0.223861
Zr16	Zr	0.700752	0.644071	0.030467
Zr17	Zr	0.868786	0.650621	-0.220495
Zr18	Zr	0.532718	0.805555	0.027101
O19	O	0.834313	0.785973	-0.033166
O20	O	0.834317	0.785973	-0.375911
O21	O	0.834317	0.547052	-0.014289
O22	O	0.567183	0.909125	0.163640
O23	O	0.567187	0.909125	-0.179105
O24	O	0.567187	0.670203	0.182517
O25	O	0.700750	0.914331	-0.186982
O26	O	0.700748	0.780767	0.166316
O27	O	0.700750	0.675409	0.174640
O28	O	0.700748	0.914331	-0.035841
O29	O	0.939675	0.684722	-0.373801
O30	O	0.461829	0.771454	0.180407
O31	O	0.461827	0.905018	0.169854
O32	O	0.461829	0.905018	-0.021750
O33	O	0.939675	0.551158	-0.171644
O34	O	0.939673	0.684722	-0.182196
O35	O	0.622123	0.764337	0.074026
O36	O	0.622123	0.842964	-0.044981
O37	O	0.779378	0.770466	-0.160838
O38	O	0.779378	0.691839	-0.041831
C39	C	0.490571	0.719895	-0.084301
C40	C	0.419237	0.717115	-0.080094
C41	C	0.700756	0.517904	-0.080091
C42	C	0.700757	0.446570	-0.074455
C43	C	0.385724	0.756849	-0.140237
C44	C	0.318694	0.754238	-0.136274
C45	C	0.285182	0.711888	-0.072172
C46	C	0.318698	0.672153	-0.012021
C47	C	0.385722	0.674769	-0.015979
C48	C	0.082807	0.701942	-0.057107
C49	C	0.015780	0.699327	-0.053156
C50	C	0.015780	0.781414	-0.177408
C51	C	0.082809	0.784022	-0.181366
C52	C	0.116316	0.744290	-0.121210
C53	C	0.216668	0.709217	-0.068121
C54	C	0.184824	0.746966	-0.125255
C55	C	0.700745	0.043125	-0.038327
C56	C	0.700742	0.110152	-0.043633
C57	C	0.700748	0.143656	-0.129558
C58	C	0.700748	0.110134	-0.210175
C59	C	0.700744	0.043111	-0.204863
C60	C	0.700753	0.346025	-0.149759
C61	C	0.700760	0.413051	-0.155067
C62	C	0.700752	0.413065	0.011477
C63	C	0.700754	0.346038	0.016777
C64	C	0.700749	0.312524	-0.063836
C65	C	0.700748	0.212168	-0.134987
C66	C	0.700742	0.244017	-0.058402
C67	C	0.910934	0.736281	-0.109093
C68	C	0.982267	0.739061	-0.113300
C69	C	0.700756	0.728088	-0.398217
C70	C	0.700757	0.728088	-0.500550
C71	C	0.700749	0.938272	-0.113303
C72	C	0.700747	1.009606	-0.118939
C73	C	0.782841	0.690242	-0.609102
C74	C	0.782837	0.690244	-0.705250
C75	C	0.618657	0.765939	-0.584281
C76	C	0.618662	0.765941	-0.488135
C77	C	0.864936	0.652389	-0.621516
C78	C	0.947027	0.614538	-0.730074
C79	C	0.947022	0.614541	-0.826222
C80	C	0.864927	0.652393	-0.813814
C81	C	0.700749	0.728088	0.204823
C82	C	0.700747	0.728088	0.307156
C83	C	0.490567	0.930079	-0.100907
C84	C	0.419232	0.998633	-0.102336
C85	C	0.490567	0.719895	0.217219
C86	C	0.419232	0.717115	0.323759
C87	C	0.490563	0.930079	0.200613
C88	C	0.419227	0.998633	0.301517
C89	C	0.910941	0.526097	-0.394006
C90	C	0.982277	0.457543	-0.494911
C91	C	0.910937	0.526097	-0.092487
C92	C	0.982272	0.457543	-0.091058
C93	C	0.910937	0.736281	-0.410613
C94	C	0.982272	0.739061	-0.517153
C95	C	0.385734	0.989784	-0.158652
C96	C	0.318716	1.054192	-0.160017
C97	C	0.285194	1.127447	-0.105059
C98	C	0.318699	1.136295	-0.048741
C99	C	0.385720	1.071888	-0.047384
C100	C	0.385731	0.756852	0.429437
C101	C	0.318714	0.754236	0.529551
C102	C	0.285194	0.711888	0.523986
C103	C	0.318702	0.672147	0.418297
C104	C	0.385723	0.674758	0.318185
C105	C	0.385727	1.071876	0.286781
C106	C	0.318709	1.136297	0.381581
C107	C	0.285187	1.127472	0.491116
C108	C	0.318694	1.054221	0.505849
C109	C	0.385716	0.989803	0.411050
C110	C	1.015785	0.384300	-0.480176
C111	C	1.082825	0.319880	-0.574977
C112	C	1.116350	0.328705	-0.684511
C113	C	1.082839	0.401956	-0.699245
C114	C	1.015805	0.466374	-0.604445
C115	C	1.015777	0.466392	-0.034752
C116	C	1.082813	0.401985	-0.033415
C117	C	1.116338	0.328730	-0.088377
C118	C	1.082830	0.319882	-0.144690
C119	C	1.015800	0.384288	-0.146033
C120	C	1.015771	0.781417	-0.511551
C121	C	1.082788	0.784044	-0.611648
C122	C	1.116311	0.744312	-0.717346
C123	C	1.082806	0.701955	-0.722946
C124	C	1.015785	0.699332	-0.622850
H125	H	0.413009	0.791331	-0.192442
H126	H	0.110077	0.669592	-0.008120
Br127	Br	0.273252	0.808177	0.672970
H128	H	0.291400	0.637668	0.413783
Br129	Br	0.431200	0.620846	0.065655
H130	H	0.988487	0.813772	-0.425496
H131	H	1.170884	0.746453	-0.798842
Br132	Br	0.970338	0.641838	-0.630473
Br133	Br	0.273247	1.235699	0.361559
Br134	Br	0.970333	0.372264	-0.222449
H135	H	0.700745	0.015848	0.031639
H136	H	0.864930	0.652400	-0.892110
Br137	Br	0.273233	0.808148	-0.217927
H138	H	0.700739	0.137443	0.022009
Br139	Br	0.194236	1.214850	-0.106912
H140	H	0.988523	0.526010	-0.616456
Br141	Br	1.128336	0.220458	-0.219272
H142	H	1.110061	0.818534	-0.607067
Br143	Br	0.700747	0.155606	-0.326784
H144	H	0.413027	0.930142	-0.203420
H145	H	0.551819	0.796755	-0.574188
H146	H	0.230622	0.709768	0.605512
H147	H	0.988486	0.526035	0.010012
Br148	Br	0.431211	1.083874	0.138138
Br149	Br	0.700739	-0.002374	-0.314265
H150	H	0.291403	0.637675	0.040179
Br151	Br	0.507261	0.817327	-0.340809
Br152	Br	0.431203	0.814334	0.437021
H153	H	0.230613	1.179933	0.568298
Br154	Br	1.128319	0.648029	-0.866403
H155	H	1.013865	0.583726	-0.740168
Br156	Br	-0.029698	0.835334	-0.259041
Br157	Br	0.431168	0.890403	0.431069
H158	H	0.988493	0.377100	-0.390995
Br159	Br	0.128294	0.841491	-0.268376
H160	H	0.412990	0.642402	0.232142
H161	H	0.291391	1.047048	0.595044
H162	H	1.110084	0.409204	0.012446
H163	H	0.700732	0.216739	0.011562
H164	H	0.291445	1.046973	-0.205877
H165	H	0.291395	1.195948	-0.003997
H166	H	0.412985	1.079104	-0.001518
Br167	Br	1.128288	0.220478	-0.554955
Br168	Br	1.207326	0.241271	-0.813158
H169	H	1.110144	0.409132	-0.788439
H170	H	-0.011502	0.664837	-0.000957
H171	H	0.189376	0.674736	-0.015930
H172	H	1.170919	0.276292	-0.087274
H173	H	0.212107	0.781451	-0.177442
H174	H	0.700748	0.318761	0.086744
Br175	Br	0.700774	0.458514	-0.271695
H176	H	0.700754	0.440359	0.077109
H177	H	0.700752	0.318742	-0.215400
Br178	Br	0.700757	0.257640	-0.251598
H179	H	0.864949	0.652380	-0.543234
H180	H	1.013864	0.583728	-0.914610
