data_functionalizedCrystal
_audit_creation_method	'MofGen! by Chris Wilmer'
_symmetry_space_group_name_H-M	'P1'
_symmetry_Int_Tables_number	1
_symmetry_cell_setting	triclinic
loop_
_symmetry_equiv_pos_as_xyz
  x,y,z
_cell_length_a	31.640172
_cell_length_b	20.875641
_cell_length_c	20.875652
_cell_angle_alpha	60.088215
_cell_angle_beta	90.003383
_cell_angle_gamma	62.438275
loop_
_atom_site_label
_atom_site_type_symbol
_atom_site_fract_x
_atom_site_fract_y
_atom_site_fract_z
Zr1	Zr	0.426529	0.694273	-0.105685
O2	O	0.364590	0.820525	-0.208962
O3	O	0.443199	0.563014	-0.070750
O4	O	0.449426	0.687038	-0.204222
O5	O	0.356087	0.703954	0.026068
O6	O	0.518983	0.687026	-0.204208
O7	O	0.358363	0.696501	-0.075491
O8	O	0.507843	0.465170	0.034549
O9	O	0.367227	0.925810	-0.212688
O10	O	0.505017	0.618848	-0.059797
O11	O	0.451410	0.624419	0.015985
O12	O	0.458742	0.770441	-0.141161
O13	O	0.405134	0.776012	-0.065379
Zr14	Zr	0.533833	0.706140	0.056312
Zr15	Zr	0.537463	0.694253	-0.105663
Zr16	Zr	0.422899	0.706159	0.056290
Zr17	Zr	0.430734	0.862190	-0.111627
Zr18	Zr	0.529628	0.538223	0.062254
O19	O	0.517163	0.837398	0.021377
O20	O	0.522325	0.820497	-0.208931
O21	O	0.359429	0.837426	0.021346
O22	O	0.595771	0.579887	0.159589
O23	O	0.600933	0.562986	-0.070718
O24	O	0.438037	0.579915	0.159558
O25	O	0.604275	0.696458	-0.075441
O26	O	0.510936	0.713374	0.154849
O27	O	0.441379	0.713387	0.154835
O28	O	0.601999	0.703911	0.026118
O29	O	0.455405	0.925794	-0.212670
O30	O	0.504957	0.474618	0.163297
O31	O	0.593135	0.474603	0.163315
O32	O	0.596021	0.465155	0.034566
O33	O	0.364341	0.935258	-0.083939
O34	O	0.452519	0.935242	-0.083921
O35	O	0.501620	0.629972	0.091788
O36	O	0.555228	0.624401	0.016006
O37	O	0.508952	0.775993	-0.065358
O38	O	0.455345	0.781565	0.010424
C39	C	0.474921	0.490168	-0.017254
C40	C	0.473136	0.418882	-0.014732
C41	C	0.500279	0.382485	-0.053104
C42	C	0.498603	0.315500	-0.050727
C43	C	0.469781	0.284920	-0.009981
C44	C	0.442638	0.321321	0.028396
C45	C	0.444317	0.388299	0.026023
C46	C	0.461761	0.084910	0.001363
C47	C	0.460083	0.017928	0.003731
C48	C	0.516049	0.012111	-0.075391
C49	C	0.517723	0.079095	-0.077764
C50	C	0.490582	0.115487	-0.039384
N51	N	0.468066	0.216453	-0.007552
N52	N	0.492300	0.183948	-0.041809
C53	C	0.341419	0.700231	-0.024714
C54	C	0.294324	0.700239	-0.024724
C55	C	0.026471	0.621069	0.017800
C56	C	-0.150514	0.621054	0.017816
O57	O	-0.152858	0.553759	0.053963
N58	N	-0.196799	0.700184	-0.024656
C59	C	-0.198837	0.779322	-0.067131
O60	O	-0.242267	0.846627	-0.103249
C61	C	-0.021852	0.779336	-0.067142
C62	C	0.024432	0.700201	-0.024673
C63	C	0.072754	0.541941	0.060266
C64	C	0.116998	0.541945	0.060258
C65	C	0.114959	0.621077	0.017785
C66	C	0.068676	0.700206	-0.024681
C67	C	-0.023890	0.858475	-0.109611
C68	C	0.020361	0.858471	-0.109609
C69	C	0.066645	0.779336	-0.067140
C70	C	0.110881	0.779342	-0.067162
N71	N	0.157166	0.700213	-0.024690
C72	C	0.159205	0.621081	0.017783
C73	C	-0.291755	0.779309	-0.067124
C74	C	-0.336001	0.779306	-0.067122
C75	C	-0.287675	0.621038	0.017826
C76	C	-0.243429	0.621042	0.017819
C77	C	-0.245470	0.700180	-0.024652
C78	C	0.252118	0.621095	0.017763
C79	C	0.296363	0.621106	0.017749
C80	C	0.248034	0.779374	-0.067195
C81	C	0.203792	0.779364	-0.067184
C82	C	0.205837	0.700217	-0.024699
O83	O	0.113262	0.846603	-0.103284
O84	O	0.202638	0.553787	0.053910
C85	C	-0.017772	0.621065	0.017808
C86	C	-0.064055	0.700193	-0.024658
C87	C	-0.066094	0.779326	-0.067131
C88	C	-0.108301	0.700190	-0.024656
C89	C	-0.106262	0.621057	0.017817
C90	C	-0.059977	0.541928	0.060289
C91	C	-0.015733	0.541932	0.060281
C92	C	-0.112379	0.858455	-0.109603
C93	C	-0.156620	0.858444	-0.109593
C94	C	-0.154582	0.779312	-0.067119
C95	C	0.618943	0.700182	-0.024658
C96	C	0.666038	0.700173	-0.024649
C97	C	0.484722	0.685338	-0.227293
C98	C	0.486263	0.680292	-0.296055
C99	C	0.485440	0.910245	-0.032119
C100	C	0.487225	0.981530	-0.034641
C101	C	0.497531	0.643364	-0.678541
C102	C	0.496085	0.648112	-0.613935
C103	C	0.471203	0.729617	-0.624107
C104	C	0.447770	0.806379	-0.698891
C105	C	0.449220	0.801630	-0.763495
C106	C	0.464280	0.752305	-0.435444
C107	C	0.462830	0.757048	-0.370832
C108	C	0.511146	0.598780	-0.285880
C109	C	0.512591	0.594039	-0.350490
C110	C	0.489161	0.670801	-0.425268
N111	N	0.469723	0.734472	-0.558070
N112	N	0.490644	0.665945	-0.491303
C113	C	0.475640	0.715074	0.177920
C114	C	0.474099	0.720120	0.246682
C115	C	0.613684	0.490143	-0.017226
C116	C	0.658993	0.418850	-0.014694
C117	C	0.470381	0.505036	0.185352
C118	C	0.467055	0.438797	0.256637
C119	C	0.609143	0.505011	0.185380
C120	C	0.652911	0.438764	0.256674
C121	C	0.351219	0.895401	-0.234753
C122	C	0.307451	0.961649	-0.306047
C123	C	0.346678	0.910269	-0.032147
C124	C	0.301369	0.981563	-0.034678
C125	C	0.489981	0.895377	-0.234725
C126	C	0.493307	0.961616	-0.306010
C127	C	0.654062	0.382470	-0.053081
C128	C	0.696631	0.315491	-0.050717
C129	C	0.744131	0.284887	-0.009962
C130	C	0.749062	0.321273	0.028425
C131	C	0.706493	0.388256	0.026056
C132	C	0.491702	0.410589	0.329688
C133	C	0.488575	0.348360	0.396674
C134	C	0.460803	0.314335	0.390607
C135	C	0.436153	0.342549	0.317548
C136	C	0.439277	0.404781	0.250564
C137	C	0.701453	0.404745	0.250598
C138	C	0.742582	0.342508	0.317580
C139	C	0.735169	0.314285	0.390639
C140	C	0.686623	0.348310	0.396714
C141	C	0.645494	0.410551	0.329732
C142	C	0.258909	0.995675	-0.299971
C143	C	0.217780	1.057934	-0.366954
C144	C	0.225193	1.086160	-0.440013
C145	C	0.273740	1.052130	-0.446087
C146	C	0.314868	0.989878	-0.379105
C147	C	0.306300	1.017948	0.003701
C148	C	0.263732	1.084945	0.001319
C149	C	0.216232	1.115551	-0.039438
C150	C	0.211301	1.079162	-0.077822
C151	C	0.253870	1.012171	-0.075444
C152	C	0.521083	0.995621	-0.299918
C153	C	0.524218	1.057851	-0.366891
C154	C	0.499574	1.086080	-0.439956
C155	C	0.471797	1.052068	-0.446047
C156	C	0.468665	0.989834	-0.379074
H157	H	0.419173	0.296412	0.061577
H158	H	0.344973	0.993035	0.036895
N159	N	0.423949	0.884423	-0.844146
H160	H	0.387076	0.919851	-0.851481
H161	H	0.428681	0.868983	-0.883484
H162	H	0.442565	0.823423	-0.379122
N163	N	0.709462	0.435166	0.171809
H164	H	0.729838	0.462511	0.164778
H165	H	0.676027	0.479725	0.130335
H166	H	0.267756	1.114562	0.032579
N167	N	0.250905	0.965252	-0.221179
H168	H	0.284322	0.920651	-0.179660
H169	H	0.230504	0.937963	-0.214218
H170	H	0.787742	0.296346	0.061606
N171	N	0.166912	0.456586	0.106077
H172	H	0.185496	0.455847	0.146022
H173	H	0.187163	0.450301	0.069876
H174	H	0.246382	0.843802	-0.101778
N175	N	0.281731	1.082577	-0.524888
H176	H	0.248308	1.127174	-0.566393
H177	H	0.300146	1.030985	-0.529066
H178	H	0.458263	0.263662	0.445156
H179	H	0.782108	0.314810	0.312620
N180	N	0.415045	0.427556	0.067415
H181	H	0.396531	0.398022	0.093587
H182	H	0.390302	0.492132	0.028705
H183	H	-0.286022	0.556604	0.052405
N184	N	0.691301	0.276254	-0.092117
H185	H	0.705956	0.211678	-0.053453
H186	H	0.709621	0.285055	-0.132354
N187	N	0.678629	0.317865	0.475513
H188	H	0.695434	0.331611	0.503673
H189	H	0.693457	0.252728	0.506394
N190	N	0.521655	0.447279	0.336252
H191	H	0.499048	0.512681	0.308821
H192	H	0.549194	0.433715	0.311647
N193	N	0.554171	1.094541	-0.360318
H194	H	0.581714	1.081037	-0.384930
H195	H	0.569268	1.067207	-0.303855
H196	H	0.446045	0.962154	-0.384045
N197	N	0.536425	0.515991	-0.205230
H198	H	0.521183	0.480566	-0.197900
H199	H	0.531728	0.531436	-0.165895
N200	N	0.412701	0.435185	0.171776
H201	H	0.418892	0.479770	0.130255
H202	H	0.375636	0.462488	0.164802
N203	N	0.406207	0.305835	0.311016
H204	H	0.420368	0.275940	0.283470
H205	H	0.370224	0.354877	0.280682
H206	H	0.249847	0.982547	-0.106695
N207	N	0.790040	0.212641	-0.007415
H208	H	0.788158	0.158721	0.017064
H209	H	0.820859	0.198842	0.024212
N210	N	0.779532	0.247153	0.462880
H211	H	0.811406	0.229888	0.447937
H212	H	0.777424	0.193897	0.495915
N213	N	0.521348	0.565330	-0.533280
H214	H	0.547884	0.563764	-0.504574
H215	H	0.537298	0.513019	-0.536698
N216	N	-0.293961	0.864670	-0.112945
H217	H	-0.313079	0.902063	-0.093471
H218	H	-0.311362	0.896388	-0.169547
N219	N	0.165422	1.094627	-0.360398
H220	H	0.161336	1.124496	-0.332828
H221	H	0.159394	1.045572	-0.330076
H222	H	0.605971	0.438241	0.334691
H223	H	0.172621	1.104092	-0.111006
N224	N	0.439036	0.835095	-0.516090
H225	H	0.423061	0.887446	-0.512728
H226	H	0.412523	0.836614	-0.544789
N227	N	0.180831	1.153303	-0.512254
H228	H	0.148957	1.170569	-0.497312
H229	H	0.180964	1.127665	-0.542498
N230	N	0.367223	0.953177	-0.385665
H231	H	0.365673	0.980507	-0.442112
H232	H	0.384514	0.887779	-0.358208
N233	N	0.346285	0.535750	0.063550
H234	H	0.340860	0.485622	0.090458
H235	H	0.364850	0.535091	0.103450
H236	H	0.253791	0.556647	0.052360
H237	H	0.181574	1.170100	-0.041368
N238	N	0.420937	0.894290	-0.709866
H239	H	0.423573	0.885653	-0.657594
H240	H	0.384582	0.928021	-0.739713
N241	N	0.711815	0.427487	0.067464
H242	H	0.748367	0.397930	0.093640
H243	H	0.693458	0.418744	0.107654
H244	H	0.502128	1.136755	-0.494484
N245	N	0.602833	0.415468	-0.097038
H246	H	0.606176	0.382253	-0.120996
H247	H	0.585868	0.479791	-0.139193
H248	H	0.451733	1.075061	-0.505545
N249	N	0.531362	0.415472	-0.097058
H250	H	0.548303	0.382246	-0.121005
H251	H	0.557498	0.406477	-0.060316
N252	N	0.527878	0.276243	-0.092115
H253	H	0.546388	0.305784	-0.118292
H254	H	0.504178	0.284984	-0.132303
N255	N	0.548807	0.112081	-0.121716
H256	H	0.565748	0.078859	-0.145665
H257	H	0.574943	0.103089	-0.084974
H258	H	0.541152	0.972648	-0.240431
H259	H	0.436610	-0.006967	0.036911
N260	N	0.545320	-0.027145	-0.116782
H261	H	0.570090	-0.091722	-0.078111
H262	H	0.563802	0.002453	-0.142957
N263	N	0.432486	0.124148	0.042761
H264	H	0.395741	0.150421	0.021017
H265	H	0.437961	0.171181	0.035074
N266	N	0.074959	0.456583	0.106081
H267	H	0.110997	0.406465	0.132978
H268	H	0.058508	0.450339	0.069881
H269	H	0.508650	0.325396	0.456155
H270	H	-0.205745	0.556603	0.052408
H271	H	-0.061570	0.922915	-0.144193
N272	N	-0.385921	0.864655	-0.112933
H273	H	-0.387932	0.896461	-0.169550
H274	H	-0.389601	0.901971	-0.093385
H275	H	0.166104	0.843801	-0.101776
N276	N	0.018161	0.943827	-0.155419
H277	H	-0.000951	0.981212	-0.135935
H278	H	0.000759	0.975559	-0.212024
N279	N	0.034185	0.456579	0.106083
H280	H	0.028755	0.406455	0.132986
H281	H	0.052749	0.455916	0.145986
H282	H	-0.058324	0.477495	0.094867
H283	H	-0.194306	0.922890	-0.144183
H284	H	0.532854	0.527668	-0.342199
H285	H	-0.114047	0.922895	-0.144192
H286	H	0.517790	0.576993	-0.670250
