data_functionalizedCrystal
_audit_creation_method	'MofGen! by Chris Wilmer'
_symmetry_space_group_name_H-M	'P1'
_symmetry_Int_Tables_number	1
_symmetry_cell_setting	triclinic
loop_
_symmetry_equiv_pos_as_xyz
  x,y,z
_cell_length_a	15.995350
_cell_length_b	15.995350
_cell_length_c	13.448316
_cell_angle_alpha	89.995627
_cell_angle_beta	89.996887
_cell_angle_gamma	83.492375
loop_
_atom_site_label
_atom_site_type_symbol
_atom_site_fract_x
_atom_site_fract_y
_atom_site_fract_z
O1	O	1.110988	0.107929	-0.082603
O2	O	1.444321	0.441262	0.250731
O3	O	1.777655	0.774595	0.584064
O4	O	0.867213	0.121256	-0.082622
O5	O	1.200546	0.454589	0.250711
O6	O	1.533879	0.787923	0.584044
O7	O	0.995764	-0.007295	-0.082611
O8	O	1.329098	0.326038	0.250722
O9	O	1.662431	0.659371	0.584056
O10	O	0.982437	0.236480	-0.082614
O11	O	1.315770	0.569813	0.250719
O12	O	1.649103	0.903147	0.584053
O13	O	0.995748	-0.007303	0.082773
O14	O	1.329081	0.326030	0.416106
O15	O	1.662415	0.659363	0.749439
O16	O	0.867197	0.121248	0.082761
O17	O	1.200530	0.454581	0.416095
O18	O	1.533863	0.787915	0.749428
O19	O	1.110972	0.107921	0.082781
O20	O	1.444305	0.441254	0.416115
O21	O	1.777639	0.774587	0.749448
Cu22	Cu	0.989083	0.114584	0.097872
Cu23	Cu	1.322416	0.447917	0.431205
Cu24	Cu	1.655749	0.781250	0.764539
Cu25	Cu	0.989102	0.114593	-0.097713
Cu26	Cu	1.322435	0.447926	0.235620
Cu27	Cu	1.655769	0.781260	0.568953
O28	O	0.982421	0.236472	0.082770
O29	O	1.315754	0.569805	0.416103
O30	O	1.649087	0.903139	0.749436
C31	C	0.836010	0.120701	0.000067
C32	C	1.169343	0.454034	0.333400
C33	C	1.502677	0.787368	0.666733
C34	C	0.743060	0.119049	0.000059
C35	C	1.076393	0.452383	0.333392
C36	C	1.409726	0.785716	0.666726
C37	C	0.995205	-0.038494	0.000079
C38	C	1.328538	0.294839	0.333412
C39	C	1.661872	0.628173	0.666746
C40	C	0.993553	-0.131444	0.000073
C41	C	1.326887	0.201889	0.333406
C42	C	1.660220	0.535222	0.666740
C43	C	0.405312	0.113117	0.000080
C44	C	0.738645	0.446450	0.333413
C45	C	1.071979	0.779784	0.666747
C46	C	0.452746	0.021565	0.000450
C47	C	0.786079	0.354898	0.333783
C48	C	1.119413	0.688232	0.667117
C49	C	0.549436	0.023217	0.000070
C50	C	0.882770	0.356551	0.333404
C51	C	1.216103	0.689884	0.666737
C52	C	0.572873	0.116060	0.000070
C53	C	0.906206	0.449393	0.333403
C54	C	1.239539	0.782726	0.666737
C55	C	0.531795	0.161221	-0.094369
C56	C	0.865128	0.494554	0.238965
C57	C	1.198461	0.827887	0.572298
C58	C	0.435159	0.158921	-0.094441
C59	C	0.768492	0.492254	0.238892
C60	C	1.101826	0.825587	0.572226
C61	C	0.434802	0.160803	0.093631
C62	C	0.768135	0.494137	0.426965
C63	C	1.101468	0.827470	0.760298
C64	C	0.531747	0.160782	0.094873
C65	C	0.865080	0.494115	0.428206
C66	C	1.198414	0.827448	0.761539
C67	C	0.667570	0.117727	0.000061
C68	C	1.000903	0.451061	0.333395
C69	C	1.334237	0.784394	0.666728
C70	C	0.310614	0.111452	0.000082
C71	C	0.643948	0.444785	0.333415
C72	C	0.977281	0.778119	0.666749
C73	C	0.987621	-0.469192	0.000076
C74	C	1.320954	-0.135859	0.333409
C75	C	1.654288	0.197475	0.666743
C76	C	0.896069	-0.421758	-0.000302
C77	C	1.229403	-0.088425	0.333031
C78	C	1.562736	0.244909	0.666364
C79	C	0.897721	-0.325068	0.000071
C80	C	1.231055	0.008266	0.333404
C81	C	1.564388	0.341599	0.666737
C82	C	0.990564	-0.301631	0.000074
C83	C	1.323897	0.031702	0.333407
C84	C	1.657230	0.365035	0.666741
C85	C	1.035711	-0.342713	0.094518
C86	C	1.369044	-0.009380	0.427852
C87	C	1.702378	0.323953	0.761185
C88	C	1.033411	-0.439349	0.094597
C89	C	1.366745	-0.106016	0.427930
C90	C	1.700078	0.227318	0.761264
C91	C	1.035321	-0.439698	-0.093475
C92	C	1.368654	-0.106365	0.239858
C93	C	1.701987	0.226968	0.573192
C94	C	1.035299	-0.342753	-0.094723
C95	C	1.368633	-0.009420	0.238610
C96	C	1.701966	0.323914	0.571943
C97	C	0.992231	-0.206934	0.000076
C98	C	1.325565	0.126399	0.333410
C99	C	1.658898	0.459733	0.666743
C100	C	0.985956	-0.563890	0.000080
C101	C	1.319289	-0.230556	0.333414
C102	C	1.652623	0.102777	0.666747
C103	C	1.142175	0.108476	0.000090
C104	C	1.475508	0.441809	0.333423
C105	C	1.808841	0.775142	0.666756
C106	C	1.235125	0.110127	0.000091
C107	C	1.568458	0.443461	0.333424
C108	C	1.901792	0.776794	0.666758
C109	C	0.982980	0.267671	0.000078
C110	C	1.316313	0.601004	0.333411
C111	C	1.649646	0.934337	0.666744
C112	C	0.984631	0.360621	0.000077
C113	C	1.317965	0.693954	0.333410
C114	C	1.651298	1.027288	0.666744
N115	N	0.989076	0.114577	0.235436
N116	N	1.322409	0.447910	0.568770
N117	N	1.655742	0.781243	0.902103
N118	N	0.989116	0.114593	-0.235278
N119	N	1.322449	0.447927	0.098056
N120	N	1.655783	0.781260	0.431389
C121	C	1.046016	0.057677	0.287482
C122	C	1.379349	0.391011	0.620815
C123	C	1.712682	0.724344	0.954148
C124	C	1.046021	0.057677	0.391585
C125	C	1.379354	0.391010	0.724918
C126	C	1.712688	0.724343	1.058252
C127	C	0.989089	0.114580	0.443641
C128	C	1.322423	0.447913	0.776974
C129	C	1.655756	0.781247	1.110308
C130	C	0.932143	0.171482	0.391588
C131	C	1.265476	0.504815	0.724922
C132	C	1.598810	0.838148	1.058255
C133	C	0.932134	0.171478	0.287487
C134	C	1.265468	0.504811	0.620820
C135	C	1.598801	0.838144	0.954154
C136	C	0.932166	0.171487	0.608568
C137	C	1.265500	0.504821	0.941902
C138	C	1.598833	0.838154	1.275235
C139	C	0.932176	0.171493	0.712677
C140	C	1.265509	0.504826	1.046010
C141	C	1.598842	0.838159	1.379344
C142	C	1.046053	0.057686	0.712666
C143	C	1.379386	0.391020	1.046000
C144	C	1.712719	0.724353	1.379333
C145	C	1.046044	0.057682	0.608565
C146	C	1.379378	0.391016	0.941898
C147	C	1.712711	0.724349	1.275232
C148	C	0.989099	0.114586	0.556520
C149	C	1.322432	0.447919	0.889853
C150	C	1.655765	0.781252	1.223186
H151	H	0.577859	-0.012281	0.067768
H152	H	0.911192	0.321052	0.401101
H153	H	1.244525	0.654385	0.734435
Br154	Br	0.577148	0.105740	0.211321
Br155	Br	0.910481	0.439073	0.544654
Br156	Br	1.243814	0.772407	0.877988
H157	H	0.434217	-0.015034	0.068176
H158	H	0.767551	0.318300	0.401509
H159	H	1.100884	0.651633	0.734842
H160	H	0.885792	0.217821	0.566196
H161	H	1.219126	0.551155	0.899530
H162	H	1.552459	0.884488	1.232863
Br163	Br	0.854849	0.248696	0.216854
Br164	Br	1.188183	0.582029	0.550187
Br165	Br	1.521516	0.915363	0.883520
Br166	Br	1.145437	-0.493103	0.101756
Br167	Br	1.478771	-0.159770	0.435089
Br168	Br	1.812104	0.173563	0.768423
H169	H	1.103004	-0.327391	-0.100423
H170	H	1.436338	0.005943	0.232910
H171	H	1.769671	0.339276	0.566244
Br172	Br	0.854870	0.248704	0.462232
Br173	Br	1.188204	0.582037	0.795565
Br174	Br	1.521537	0.915370	1.128898
H175	H	1.102822	-0.471459	-0.094107
H176	H	1.436155	-0.138126	0.239226
H177	H	1.769488	0.195208	0.572559
H178	H	0.402911	0.226137	-0.098727
H179	H	0.736244	0.559470	0.234607
H180	H	1.069578	0.892803	0.567940
Br181	Br	0.557348	0.273630	0.104381
Br182	Br	0.890681	0.606963	0.437715
Br183	Br	1.224015	0.940296	0.771048
H184	H	1.000476	-0.457654	0.165193
H185	H	1.333809	-0.124321	0.498526
H186	H	1.667143	0.209013	0.831860
Br187	Br	0.420095	-0.039153	-0.111798
Br188	Br	0.753428	0.294180	0.221535
Br189	Br	1.086761	0.627514	0.554869
Br190	Br	1.149398	-0.319175	0.100382
Br191	Br	1.482732	0.014158	0.433716
Br192	Br	1.816065	0.347491	0.767049
Br193	Br	0.404650	0.104042	-0.212104
Br194	Br	0.737983	0.437375	0.121229
Br195	Br	1.071317	0.770708	0.454563
Br196	Br	0.595852	-0.036072	-0.113157
Br197	Br	0.929185	0.297261	0.220176
Br198	Br	1.262518	0.630594	0.553509
H199	H	0.403040	0.228304	0.094270
H200	H	0.736374	0.561637	0.427603
H201	H	1.069707	0.894971	0.760937
Br202	Br	0.983428	-0.295419	0.211660
Br203	Br	1.316762	0.037915	0.544993
Br204	Br	1.650095	0.371248	0.878326
H205	H	0.862232	-0.296642	-0.067631
H206	H	1.195565	0.036691	0.265702
H207	H	1.528899	0.370024	0.599036
H208	H	0.859483	-0.440286	-0.068030
H209	H	1.192817	-0.106953	0.265303
H210	H	1.526150	0.226380	0.598636
Br211	Br	0.555362	0.274899	-0.100250
Br212	Br	0.888695	0.608232	0.233084
Br213	Br	1.222028	0.941566	0.566417
Br214	Br	0.579094	0.108955	-0.211516
Br215	Br	0.912428	0.442288	0.121817
Br216	Br	1.245761	0.775621	0.455150
Br217	Br	1.123291	-0.019547	0.216845
Br218	Br	1.456624	0.313786	0.550179
Br219	Br	1.789958	0.647120	0.883512
Br220	Br	1.123295	-0.019548	0.462222
Br221	Br	1.456628	0.313786	0.795555
Br222	Br	1.789962	0.647119	1.128888
H223	H	0.414259	0.130869	0.165214
H224	H	0.747593	0.464203	0.498547
H225	H	1.080926	0.797536	0.831881
H226	H	0.859633	-0.441355	0.067042
H227	H	1.192966	-0.108022	0.400376
H228	H	1.526299	0.225312	0.733709
Br229	Br	0.980744	-0.296792	-0.211194
Br230	Br	1.314078	0.036541	0.122139
Br231	Br	1.647411	0.369875	0.455473
H232	H	0.861980	-0.297206	0.067882
H233	H	1.195313	0.036127	0.401215
H234	H	1.528647	0.369460	0.734548
Br235	Br	0.985435	-0.473914	-0.212786
Br236	Br	1.318768	-0.140580	0.120547
Br237	Br	1.652102	0.192753	0.453880
H238	H	1.092406	0.011352	0.566181
H239	H	1.425739	0.344685	0.899515
H240	H	1.759073	0.678018	1.232848
Br241	Br	1.123338	-0.019534	0.783302
Br242	Br	1.456671	0.313799	1.116636
Br243	Br	1.790005	0.647132	1.449969
Br244	Br	0.854908	0.248722	0.783317
Br245	Br	1.188241	0.582055	1.116650
Br246	Br	1.521574	0.915388	1.449984
