data_functionalizedCrystal
_audit_creation_method	'MofGen! by Chris Wilmer'
_symmetry_space_group_name_H-M	'P1'
_symmetry_Int_Tables_number	1
_symmetry_cell_setting	triclinic
loop_
_symmetry_equiv_pos_as_xyz
  x,y,z
_cell_length_a	8.597213
_cell_length_b	22.610064
_cell_length_c	8.559649
_cell_angle_alpha	89.994893
_cell_angle_beta	77.624681
_cell_angle_gamma	97.710013
loop_
_atom_site_label
_atom_site_type_symbol
_atom_site_fract_x
_atom_site_fract_y
_atom_site_fract_z
O1	O	2.053822	0.153840	0.237978
O2	O	1.594673	0.130443	0.256248
O3	O	1.864699	0.144202	0.015142
O4	O	1.783796	0.140081	0.479084
O5	O	1.864652	0.045831	0.015177
O6	O	1.594627	0.032072	0.256283
O7	O	2.053775	0.055468	0.238013
Zn8	Zn	1.824193	0.028151	0.247154
Zn9	Zn	1.824255	0.157760	0.247107
O10	O	1.783750	0.041709	0.479119
C11	C	1.536413	0.078290	0.254306
C12	C	1.362888	0.069448	0.248447
N13	N	1.824163	-0.060303	0.247184
C14	C	1.943825	-0.462847	0.140362
C15	C	1.943835	-0.524766	0.140351
O16	O	2.045506	-0.551605	0.049549
N17	N	1.824258	-0.561835	0.247074
C18	C	1.704654	-0.536982	0.353805
O19	O	1.602945	-0.574198	0.444580
C20	C	1.704640	-0.475064	0.353808
C21	C	1.824234	-0.437998	0.247088
C22	C	2.063409	-0.425781	0.033650
C23	C	2.063400	-0.363866	0.033664
C24	C	1.943809	-0.339016	0.140390
C25	C	1.824226	-0.376082	0.247102
C26	C	1.585031	-0.450212	0.460529
C27	C	1.585026	-0.388290	0.460522
C28	C	1.704620	-0.351223	0.353802
C29	C	1.704626	-0.289318	0.353842
N30	N	1.824203	-0.252249	0.247118
C31	C	1.943795	-0.277098	0.140392
C32	C	1.704693	-0.667014	0.353790
C33	C	1.704712	-0.728930	0.353797
C34	C	1.943891	-0.716710	0.140340
C35	C	1.943877	-0.654792	0.140342
C36	C	1.824269	-0.629945	0.247067
C37	C	1.943769	-0.147072	0.140431
C38	C	1.943754	-0.085152	0.140458
C39	C	1.704571	-0.097377	0.353909
C40	C	1.704590	-0.159292	0.353887
C41	C	1.824197	-0.184138	0.247135
O42	O	1.603003	-0.262438	0.444592
O43	O	2.045475	-0.239877	0.049619
C44	C	2.112036	0.107623	0.239955
C45	C	2.285561	0.116469	0.245814
C46	C	1.870807	0.095330	-0.044275
C47	C	1.889057	0.096263	-0.221370
N48	N	1.824300	0.246215	0.247064
C49	C	1.777642	0.090583	0.538536
C50	C	1.759392	0.089654	0.715631
H51	H	1.352107	0.163487	0.248057
C52	C	1.468156	-0.165149	0.564862
C53	C	1.573127	-0.200040	0.471186
H54	H	1.386981	-0.190304	0.637259
H55	H	1.526431	-0.138036	0.623308
H56	H	1.419844	-0.143452	0.497544
H57	H	1.621448	-0.221733	0.538504
H58	H	1.514844	-0.227163	0.412736
H59	H	2.160780	-0.333690	-0.053240
H60	H	1.296329	0.022426	0.246222
H61	H	1.634419	0.083284	-0.202822
C62	C	2.076405	0.156375	-0.428170
C63	C	2.057785	0.104860	-0.331450
H64	H	2.180573	0.161683	-0.496119
H65	H	1.997519	0.152347	-0.491418
H66	H	2.063777	0.190033	-0.362562
H67	H	2.070401	0.071202	-0.397058
H68	H	2.136694	0.108884	-0.268196
C69	C	2.180174	-0.079302	-0.070547
C70	C	2.075215	-0.044409	0.023136
H71	H	2.261320	-0.054150	-0.142981
H72	H	2.228511	-0.100988	-0.003250
H73	H	2.121871	-0.106426	-0.128967
H74	H	2.133516	-0.017289	0.081565
H75	H	2.026874	-0.022713	-0.044169
H76	H	2.041162	-0.167294	0.053501
C77	C	2.299831	-0.407466	-0.177313
C78	C	2.194887	-0.453087	-0.083668
H79	H	2.381016	-0.424321	-0.249730
H80	H	2.241537	-0.386294	-0.235736
H81	H	2.348131	-0.380849	-0.109978
H82	H	2.146578	-0.479702	-0.151002
H83	H	2.253189	-0.474269	-0.025241
C84	C	1.524824	-0.321742	0.677044
C85	C	1.453553	-0.360976	0.577843
H86	H	1.443659	-0.304879	0.749465
H87	H	1.583094	-0.342928	0.735461
H88	H	1.596036	-0.290806	0.613476
H89	H	1.382349	-0.391916	0.641410
H90	H	1.395257	-0.339790	0.519421
H91	H	1.607205	-0.077135	0.440809
C92	C	2.180289	-0.648948	-0.070647
C93	C	2.075326	-0.614053	0.023021
H94	H	2.261435	-0.623798	-0.143087
H95	H	2.228626	-0.670629	-0.003341
H96	H	2.121989	-0.676075	-0.129060
H97	H	2.133624	-0.586928	0.081443
H98	H	2.026985	-0.592361	-0.044294
C99	C	1.468295	-0.734774	0.564783
C100	C	1.573258	-0.769669	0.471114
H101	H	1.387129	-0.759925	0.637199
H102	H	1.526579	-0.707656	0.623207
H103	H	1.419971	-0.713084	0.497462
H104	H	1.621591	-0.791356	0.538434
H105	H	1.514965	-0.796798	0.412686
C106	C	2.004044	-0.783264	-0.076178
C107	C	2.075343	-0.744031	0.023006
H108	H	2.085196	-0.800129	-0.148615
H109	H	1.932840	-0.814195	-0.012612
H110	H	1.945764	-0.762073	-0.134593
H111	H	2.133614	-0.765224	0.081430
H112	H	2.146575	-0.713096	-0.040568
H113	H	1.607296	-0.646786	0.440711
H114	H	1.487647	-0.480384	0.547429
