data_functionalizedCrystal
_audit_creation_method	'MofGen! by Chris Wilmer'
_symmetry_space_group_name_H-M	'P1'
_symmetry_Int_Tables_number	1
_symmetry_cell_setting	triclinic
loop_
_symmetry_equiv_pos_as_xyz
  x,y,z
_cell_length_a	23.096457
_cell_length_b	23.096457
_cell_length_c	14.446369
_cell_angle_alpha	59.996663
_cell_angle_beta	59.999055
_cell_angle_gamma	59.999591
loop_
_atom_site_label
_atom_site_type_symbol
_atom_site_fract_x
_atom_site_fract_y
_atom_site_fract_z
Zr1	Zr	0.557767	0.075937	0.891789
O2	O	0.586113	0.168389	0.743975
O3	O	0.465315	0.047599	0.937098
O4	O	0.465320	0.168389	0.937091
O5	O	0.681387	-0.047686	0.743992
O6	O	0.465318	0.168386	1.089428
O7	O	0.586108	0.047599	0.743982
O8	O	0.465310	-0.047685	1.089441
O9	O	0.681395	0.168385	0.743979
O10	O	0.527083	0.035507	1.070114
O11	O	0.598190	-0.035601	0.956433
O12	O	0.598195	0.106614	0.956425
O13	O	0.669302	0.035506	0.842745
Zr14	Zr	0.709722	-0.076037	1.134764
Zr15	Zr	0.557764	0.075932	1.134749
Zr16	Zr	0.709725	-0.076032	0.891804
Zr17	Zr	0.709731	0.075931	0.891795
Zr18	Zr	0.557758	-0.076031	1.134758
O19	O	0.802174	-0.047700	1.089455
O20	O	0.586109	0.168381	1.089433
O21	O	0.802178	-0.047692	0.743997
O22	O	0.681376	-0.168489	1.282578
O23	O	0.465311	0.047591	1.282556
O24	O	0.681380	-0.168481	0.937120
O25	O	0.586102	0.047586	1.282561
O26	O	0.802169	-0.168489	1.089462
O27	O	0.802171	-0.168486	0.937125
O28	O	0.681381	-0.047699	1.282571
O29	O	0.681393	0.168380	0.937100
O30	O	0.586096	-0.168480	1.089453
O31	O	0.586094	-0.168485	1.282574
O32	O	0.465308	-0.047690	1.282562
O33	O	0.802181	0.047590	0.743991
O34	O	0.802179	0.047585	0.937112
O35	O	0.669294	-0.106714	1.070128
O36	O	0.598187	-0.035606	1.183808
O37	O	0.669299	0.035501	1.070120
O38	O	0.740406	-0.035607	0.956439
C39	C	0.443661	-0.000042	1.013269
C40	C	0.379148	-0.000039	1.013266
C41	C	0.311728	0.037081	1.072598
C42	C	0.251111	0.037075	1.072610
C43	C	0.257920	-0.000041	1.013266
C44	C	0.325352	-0.037170	0.953931
C45	C	0.385967	-0.037169	0.953931
N46	N	0.190378	0.005108	0.916690
N47	N	0.132795	0.005111	0.916692
C48	C	0.075294	-0.000048	1.013265
N49	N	0.077546	-0.005196	1.109834
N50	N	0.135134	-0.005195	1.109830
C51	C	0.192198	-0.000047	1.013260
C52	C	-0.057856	0.037068	1.072615
C53	C	-0.118472	0.037057	1.072629
C54	C	-0.044229	-0.037183	0.953940
C55	C	0.016385	-0.037177	0.953937
C56	C	0.009567	-0.000048	1.013271
C57	C	0.633737	-0.190132	1.013288
C58	C	0.633735	-0.254644	1.013292
C59	C	0.686231	-0.284947	0.929375
C60	C	0.686232	-0.345560	0.929363
C61	C	0.633742	-0.375876	1.013288
C62	C	0.581236	-0.345563	1.097212
C63	C	0.581233	-0.284947	1.097214
N64	N	0.617851	-0.494230	1.112810
N65	N	0.617859	-0.551813	1.112804
C66	C	0.633749	-0.558508	1.013285
N67	N	0.649644	-0.505448	0.913767
N68	N	0.649640	-0.447861	0.913773
C69	C	0.633740	-0.441603	1.013294
C70	C	0.686249	-0.654534	0.929349
C71	C	0.686246	-0.715145	0.929338
C72	C	0.581252	-0.715151	1.097195
C73	C	0.581253	-0.654537	1.097198
C74	C	0.633755	-0.624233	1.013275
C75	C	0.823828	-0.000058	1.013284
C76	C	0.888341	-0.000061	1.013287
C77	C	0.633748	-0.000043	0.709370
C78	C	0.633749	-0.000041	0.606228
C79	C	0.633752	0.190032	1.013265
C80	C	0.633754	0.254544	1.013261
C81	C	0.678816	0.044580	0.387858
C82	C	0.678626	0.044831	0.495090
C83	C	0.556484	0.032675	0.602899
C84	C	0.556726	0.033002	0.495130
C85	C	0.665308	-0.077434	0.496505
C86	C	0.666876	-0.077312	0.602474
C87	C	0.633741	-0.000057	1.317183
C88	C	0.633740	-0.000059	1.420326
C89	C	0.443668	0.190040	1.013258
C90	C	0.379158	0.254555	1.013251
C91	C	0.443658	-0.000049	1.317175
C92	C	0.379144	-0.000049	1.420315
C93	C	0.633734	-0.190139	1.317194
C94	C	0.633730	-0.254653	1.420341
C95	C	0.633755	0.190039	0.709359
C96	C	0.633759	0.254553	0.606212
C97	C	0.823831	-0.000051	0.709378
C98	C	0.888345	-0.000051	0.606238
C99	C	0.823821	-0.190140	1.013295
C100	C	0.888331	-0.254655	1.013302
C101	C	0.385983	0.321975	0.953904
C102	C	0.325375	0.382599	0.953903
C103	C	0.257942	0.375802	1.013242
C104	C	0.251118	0.308374	1.072597
C105	C	0.311726	0.247751	1.072604
C106	C	0.311726	0.037078	1.409404
C107	C	0.251102	0.037093	1.506306
C108	C	0.257899	-0.000024	1.614118
C109	C	0.325324	-0.037152	1.625028
C110	C	0.385946	-0.037162	1.528127
C111	C	0.596612	-0.247832	1.528130
C112	C	0.596611	-0.308445	1.625056
C113	C	0.633725	-0.375877	1.614191
C114	C	0.670848	-0.382697	1.506391
C115	C	0.670853	-0.322085	1.409467
C116	C	0.670885	0.247732	0.498423
C117	C	0.670904	0.308345	0.401497
C118	C	0.633793	0.375777	0.412362
C119	C	0.596666	0.382597	0.520162
C120	C	0.596651	0.321985	0.617086
C121	C	0.955763	-0.037172	0.617149
C122	C	1.016387	-0.037170	0.520247
C123	C	1.009590	-0.000051	0.412435
C124	C	0.942165	0.037074	0.401526
C125	C	0.881543	0.037076	0.498426
C126	C	0.955752	-0.247834	0.953950
C127	C	1.016372	-0.308447	0.953933
C128	C	1.009569	-0.375879	1.013275
C129	C	0.942142	-0.382698	1.072629
C130	C	0.881523	-0.322086	1.072638
H131	H	0.728981	-0.370236	0.861024
N132	N	0.512531	-0.006154	0.701086
N133	N	0.537721	-0.058496	0.774787
H134	H	0.506681	-0.085921	0.844134
N135	N	1.071501	-0.437782	1.013245
N136	N	1.131692	-0.431675	0.960245
H137	H	1.175434	-0.475391	0.960221
H138	H	0.728982	-0.260277	0.861038
N139	N	0.739862	-0.746076	0.843579
N140	N	0.786722	-0.719001	0.768647
H141	H	0.824586	-0.740841	0.708071
N142	N	0.812679	0.074975	0.487269
N143	N	0.770580	0.042660	0.528083
H144	H	0.721944	0.069428	0.520196
H145	H	1.071281	-0.067404	0.529152
N146	N	0.708818	0.301387	0.291380
N147	N	0.757703	0.326914	0.224048
H148	H	0.784477	0.322002	0.146277
H149	H	0.440885	0.327523	0.905576
H150	H	0.071283	-0.067401	0.905617
N151	N	0.962723	-0.178964	0.893328
N152	N	1.022932	-0.172898	0.840339
H153	H	1.027862	-0.124260	0.797517
H154	H	-0.173372	0.067281	1.120951
H155	H	0.656722	0.101908	0.492639
H156	H	0.637458	-0.113371	0.681633
H157	H	0.196207	0.302850	1.120911
N158	N	-0.064796	0.074987	1.133212
N159	N	-0.039252	0.123862	1.081540
H160	H	-0.044152	0.150643	1.124334
H161	H	0.306178	0.067312	1.321626
H162	H	0.306159	0.192857	1.120928
H163	H	0.632636	-0.110852	0.523944
N164	N	0.332367	0.451463	0.893266
N165	N	0.392582	0.457515	0.840281
H166	H	0.397523	0.506149	0.797455
N167	N	0.454811	-0.075084	1.539282
N168	N	0.472891	-0.059349	1.589849
H169	H	0.521527	-0.086132	1.597735
H170	H	0.208531	-0.000011	1.693012
N171	N	0.558713	-0.178958	1.539247
N172	N	0.591031	-0.136856	1.498408
H173	H	0.564267	-0.088215	1.506268
H174	H	0.440865	-0.067396	0.905613
H175	H	0.531035	0.089072	0.605030
N176	N	0.633804	0.437695	0.313363
N177	N	0.657828	0.481324	0.296586
H178	H	0.657836	0.525053	0.226665
H179	H	0.196208	0.067326	1.497401
N180	N	0.558673	-0.301456	1.735152
N181	N	0.493227	-0.269829	1.764038
H182	H	0.466431	-0.264890	1.841790
N183	N	1.085246	-0.301484	0.893310
N184	N	1.127356	-0.327010	0.815155
H185	H	1.175998	-0.322092	0.772341
N186	N	0.332247	-0.075061	1.735167
N187	N	0.278110	-0.075046	1.821667
H188	H	0.282997	-0.101823	1.899457
H189	H	0.633715	-0.425225	1.693123
N190	N	0.558767	0.451485	0.531230
N191	N	0.558790	0.505590	0.444673
H192	H	0.532022	0.554245	0.452485
H193	H	1.058958	-0.000058	0.333541
H194	H	0.521314	0.002591	0.521784
H195	H	0.721340	-0.104764	0.446485
N196	N	0.708742	-0.329046	1.299357
N197	N	0.708735	-0.274930	1.212816
H198	H	0.735491	-0.279849	1.135050
N199	N	0.708796	0.178862	0.487288
N200	N	0.741942	0.172795	0.391029
H201	H	0.768721	0.124157	0.383154
N202	N	0.527600	-0.253984	1.182928
N203	N	0.463750	-0.232046	1.193221
H204	H	0.425871	-0.210177	1.253757
H205	H	0.728996	-0.629856	0.861009
H206	H	0.566415	0.327547	0.704850
H207	H	0.936613	-0.437610	1.120944
N208	N	0.812661	-0.329072	1.133276
N209	N	0.806606	-0.389286	1.186254
H210	H	0.757972	-0.394225	1.229082
H211	H	0.306173	0.067311	1.120916
H212	H	0.196208	0.067303	1.120927
N213	N	0.708750	-0.451585	1.495323
N214	N	0.708729	-0.505690	1.581880
H215	H	0.735492	-0.554345	1.574068
H216	H	0.961311	-0.067403	0.704927
N217	N	0.935217	0.074975	0.291403
N218	N	0.875020	0.108111	0.281659
H219	H	0.870113	0.134873	0.203883
N220	N	0.651612	0.115755	0.318882
N221	N	0.690319	0.140549	0.221111
H222	H	0.671103	0.190817	0.172398
H223	H	0.531454	0.089940	0.444781
N224	N	0.332324	-0.075092	0.893315
N225	N	0.363947	-0.140539	0.918487
H226	H	0.368874	-0.167327	0.875678
H227	H	-0.038684	-0.067404	0.905622
H228	H	0.538497	-0.370249	1.165541
H229	H	0.208597	0.425170	1.013228
H230	H	0.538509	-0.739829	1.165520
H231	H	0.735531	0.023057	0.493333
N232	N	0.527625	-0.623590	1.182929
N233	N	0.480759	-0.650660	1.257853
H234	H	0.442880	-0.628803	1.318404
N235	N	0.750314	0.017140	0.320050
N236	N	0.762781	0.014856	0.226968
H237	H	0.813257	-0.004545	0.179033
N238	N	0.738291	-0.107960	0.601795
N239	N	0.764737	-0.073068	0.604072
H240	H	0.815177	-0.094708	0.603585
