data_functionalizedCrystal
_audit_creation_method	'MofGen! by Chris Wilmer'
_symmetry_space_group_name_H-M	'P1'
_symmetry_Int_Tables_number	1
_symmetry_cell_setting	triclinic
loop_
_symmetry_equiv_pos_as_xyz
  x,y,z
_cell_length_a	11.792254
_cell_length_b	23.532407
_cell_length_c	10.268362
_cell_angle_alpha	89.986236
_cell_angle_beta	89.995475
_cell_angle_gamma	83.523672
loop_
_atom_site_label
_atom_site_type_symbol
_atom_site_fract_x
_atom_site_fract_y
_atom_site_fract_z
O1	O	1.505062	0.078089	-0.108326
O2	O	1.174534	0.086126	-0.108331
O3	O	1.349765	-0.000765	-0.108292
O4	O	1.329831	0.164980	-0.108365
O5	O	1.349750	-0.000768	0.108309
O6	O	1.174519	0.086123	0.108269
O7	O	1.505047	0.078086	0.108275
Cu8	Cu	1.339782	0.082104	0.128050
Cu9	Cu	1.339799	0.082108	-0.128106
O10	O	1.329816	0.164976	0.108236
C11	C	1.132248	0.085618	-0.000031
C12	C	1.006270	0.084103	-0.000031
C13	C	0.903963	0.082872	-0.000036
C14	C	0.775612	0.081332	-0.000037
C15	C	1.349250	-0.021986	0.000015
C16	C	1.347724	-0.085212	0.000035
C17	C	1.237732	-0.352033	-0.000048
C18	C	1.239149	-0.292625	-0.000038
O19	O	1.151894	-0.256399	-0.000081
N20	N	1.343324	-0.269379	-0.000021
C21	C	1.446088	-0.305545	-0.000028
O22	O	1.534827	-0.280317	-0.000014
C23	C	1.444669	-0.364953	-0.000047
C24	C	1.340488	-0.388195	-0.000051
C25	C	1.133558	-0.375277	-0.000053
C26	C	1.132141	-0.434681	-0.000061
C27	C	1.234897	-0.470843	-0.000063
C28	C	1.339070	-0.447600	-0.000058
C29	C	1.547432	-0.401118	-0.000063
C30	C	1.546004	-0.460529	-0.000084
C31	C	1.441822	-0.483771	-0.000087
C32	C	1.440409	-0.543166	-0.000069
N33	N	1.336234	-0.566412	-0.000085
C34	C	1.233478	-0.530250	-0.000083
C35	C	1.449060	-0.180785	0.000010
C36	C	1.450480	-0.121378	0.000039
C37	C	1.243541	-0.108462	0.000027
C38	C	1.242122	-0.167870	0.000007
C39	C	1.344885	-0.204031	-0.000006
C40	C	1.230510	-0.655005	-0.000098
C41	C	1.229101	-0.714415	-0.000100
C42	C	1.436040	-0.727326	-0.000094
C43	C	1.437449	-0.667921	-0.000085
C44	C	1.334674	-0.631761	-0.000091
O45	O	1.527619	-0.579426	-0.000031
O46	O	1.144754	-0.555486	-0.000114
C47	C	1.547333	0.078594	-0.000028
C48	C	1.673311	0.080109	-0.000036
C49	C	1.330331	0.186197	-0.000074
C50	C	1.331857	0.249423	-0.000102
N51	N	1.339777	0.082100	0.308215
N52	N	1.339813	0.082107	-0.308272
C53	C	1.339794	0.082107	0.573886
C54	C	1.339781	0.082105	0.426048
H55	H	1.146821	-0.625570	-0.000103
N56	N	1.025722	-0.458419	-0.000108
N57	N	1.001851	-0.490109	-0.091431
H58	H	0.926688	-0.506871	-0.091472
N59	N	1.650978	-0.497465	-0.000064
N60	N	1.673272	-0.532065	0.091239
H61	H	1.747410	-0.558151	0.091259
H62	H	1.049877	-0.345839	-0.000055
H63	H	1.535315	-0.102460	0.000062
H64	H	1.157288	-0.186789	0.000010
H65	H	1.159871	-0.079008	0.000030
N66	N	1.554048	-0.217712	0.000004
N67	N	1.647047	-0.196944	0.000018
H68	H	1.721196	-0.223020	0.000011
N69	N	1.653863	-0.377395	-0.000059
N70	N	1.745591	-0.409700	-0.000073
H71	H	1.820765	-0.392948	-0.000073
H72	H	1.522282	-0.648996	-0.000063
H73	H	1.519701	-0.756779	-0.000090
H74	H	1.144261	-0.733335	-0.000097
