data_functionalizedCrystal
_audit_creation_method	'MofGen! by Chris Wilmer'
_symmetry_space_group_name_H-M	'P1'
_symmetry_Int_Tables_number	1
_symmetry_cell_setting	triclinic
loop_
_symmetry_equiv_pos_as_xyz
  x,y,z
_cell_length_a	19.077115
_cell_length_b	21.295417
_cell_length_c	19.077174
_cell_angle_alpha	92.268346
_cell_angle_beta	85.484425
_cell_angle_gamma	87.726662
loop_
_atom_site_label
_atom_site_type_symbol
_atom_site_fract_x
_atom_site_fract_y
_atom_site_fract_z
Zn1	Zn	1.093668	-0.305856	-0.441801
Zn2	Zn	1.088841	-0.406716	-0.323903
Zn3	Zn	0.971054	-0.297057	-0.319200
Zn4	Zn	0.975735	-0.406675	-0.437022
O5	O	1.032324	-0.354076	-0.380482
O6	O	1.191677	-0.322935	-0.430129
O7	O	1.069237	-0.388504	-0.224630
O8	O	0.987380	-0.210138	-0.335495
O9	O	1.188130	-0.397037	-0.343510
O10	O	1.077464	-0.216603	-0.425569
O11	O	0.982700	-0.307938	-0.221175
O12	O	0.873025	-0.307898	-0.330862
O13	O	0.995358	-0.396966	-0.536305
O14	O	0.876464	-0.388434	-0.417425
O15	O	1.082003	-0.322895	-0.539816
O16	O	1.073776	-0.494797	-0.338877
O17	O	0.990677	-0.494766	-0.421985
C18	C	0.849166	-0.347207	-0.373115
C19	C	0.770811	-0.344284	-0.369980
C20	C	0.329560	-0.323295	-0.347505
C21	C	0.403183	-0.326045	-0.350454
C22	C	0.441798	-0.369414	-0.396924
C23	C	0.406787	-0.410032	-0.440453
C24	C	0.333165	-0.407278	-0.437507
C25	C	0.662178	-0.382149	-0.410563
C26	C	0.735804	-0.384900	-0.413504
C27	C	0.732196	-0.300912	-0.323506
C28	C	0.658573	-0.298165	-0.320561
C29	C	0.623568	-0.338781	-0.364093
N30	N	0.517053	-0.372227	-0.399938
N31	N	0.548314	-0.335964	-0.361082
C32	C	1.032230	-0.517623	-0.380439
C33	C	1.032255	-0.587592	-0.380447
C34	C	1.075567	-0.620457	-0.337220
C35	C	1.075600	-0.686201	-0.337237
C36	C	1.032310	-0.719077	-0.380473
C37	C	0.988996	-0.686205	-0.423708
C38	C	0.988969	-0.620462	-0.423695
N39	N	0.970857	-0.820235	-0.383367
N40	N	0.970884	-0.882688	-0.383376
C41	C	1.032391	-0.917156	-0.380517
N42	N	1.093869	-0.886812	-0.377635
N43	N	1.093840	-0.824354	-0.377623
C44	C	1.032335	-0.790364	-0.380493
C45	C	1.075742	-1.021309	-0.337306
C46	C	1.075777	-1.087054	-0.337329
C47	C	0.989166	-1.087057	-0.423796
C48	C	0.989137	-1.021313	-0.423778
C49	C	1.032424	-0.988442	-0.380529
C50	C	1.216198	-0.360972	-0.387877
C51	C	1.294553	-0.363911	-0.391029
C52	C	1.039741	-0.360908	-0.564355
C53	C	1.042901	-0.363819	-0.642710
C54	C	1.032438	-0.189892	-0.380541
C55	C	1.032487	-0.119926	-0.380566
C56	C	0.999333	-0.323241	-0.677723
C57	C	1.002300	-0.325982	-0.751346
C58	C	1.048839	-0.369298	-0.789956
C59	C	1.092410	-0.409880	-0.754938
C60	C	1.089439	-0.407142	-0.681316
C61	C	1.062553	-0.381987	-1.010336
C62	C	1.065522	-0.384721	-1.083963
C63	C	0.975411	-0.300823	-1.080366
C64	C	0.972447	-0.298086	-1.006742
C65	C	1.016014	-0.338671	-0.971731
N66	N	1.051875	-0.372099	-0.865211
N67	N	1.012975	-0.335872	-0.896477
C68	C	1.024977	-0.347227	-0.197325
C69	C	1.021953	-0.344143	-0.118976
H70	H	0.298125	-0.287979	-0.309663
H71	H	1.098021	-0.415041	-0.981838
H72	H	1.130299	-0.445152	-0.786380
H73	H	0.953750	-0.712977	-0.458913
N74	N	1.119956	-0.987715	-0.293143
N75	N	1.093364	-0.948470	-0.247198
H76	H	1.124591	-0.924744	-0.216009
H77	H	0.961439	-0.287965	-0.646292
H78	H	0.760705	-0.267845	-0.288066
N79	N	1.119776	-0.586890	-0.293031
N80	N	1.112520	-0.591684	-0.227795
H81	H	1.143743	-0.567980	-0.196582
H82	H	1.124922	-0.440181	-0.652810
N83	N	0.930916	-0.259365	-1.116129
N84	N	0.957404	-0.221709	-1.158222
H85	H	0.925977	-0.192427	-1.183480
H86	H	1.103423	-0.419995	-1.115398
H87	H	0.953866	-0.994552	-0.458974
N88	N	0.626411	-0.423632	-0.455016
N89	N	0.587162	-0.401689	-0.498342
H90	H	0.561896	-0.430990	-0.529736
N91	N	0.944934	-1.120629	-0.467951
N92	N	0.879695	-1.110731	-0.460601
H93	H	0.848455	-1.134444	-0.491788
H94	H	0.431682	-0.292974	-0.315009
N95	N	0.957811	-0.284515	-0.787106
N96	N	0.984307	-0.246862	-0.829197
H97	H	0.952886	-0.217571	-0.854451
N98	N	0.619141	-0.253865	-0.273083
N99	N	0.650406	-0.217606	-0.234222
H100	H	0.622558	-0.186321	-0.200686
H101	H	0.767243	-0.420217	-0.451350
H102	H	0.304664	-0.440351	-0.472951
N103	N	0.446240	-0.454323	-0.487924
N104	N	0.511973	-0.456776	-0.490550
H105	H	0.539836	-0.488058	-0.524077
H106	H	0.953699	-0.593703	-0.458896
H107	H	1.110872	-0.712965	-0.302037
N108	N	1.120034	-1.120618	-0.293176
N109	N	1.158680	-1.091259	-0.254571
H110	H	1.189939	-1.114963	-0.223388
H111	H	0.934547	-0.262815	-0.975311
