data_functionalizedCrystal
_audit_creation_method	'MofGen! by Chris Wilmer'
_symmetry_space_group_name_H-M	'P1'
_symmetry_Int_Tables_number	1
_symmetry_cell_setting	triclinic
loop_
_symmetry_equiv_pos_as_xyz
  x,y,z
_cell_length_a	19.121424
_cell_length_b	19.121063
_cell_length_c	10.686551
_cell_angle_alpha	91.787201
_cell_angle_beta	91.780155
_cell_angle_gamma	94.804615
loop_
_atom_site_label
_atom_site_type_symbol
_atom_site_fract_x
_atom_site_fract_y
_atom_site_fract_z
Zn1	Zn	1.092551	-0.205344	0.645753
Zn2	Zn	1.078494	-0.331967	0.445501
Zn3	Zn	0.965942	-0.219339	0.445502
Zn4	Zn	0.970660	-0.327169	0.664316
O5	O	1.026912	-0.270955	0.550268
O6	O	1.188801	-0.218291	0.611419
O7	O	1.055707	-0.324891	0.270120
O8	O	0.986646	-0.119364	0.464298
O9	O	1.178474	-0.311321	0.464295
O10	O	1.079664	-0.109081	0.611421
O11	O	0.973016	-0.242145	0.270122
O12	O	0.868453	-0.237493	0.482298
O13	O	0.994686	-0.303144	0.837234
O14	O	0.871919	-0.316714	0.643059
O15	O	1.084239	-0.213639	0.823596
O16	O	1.060281	-0.429449	0.482295
O17	O	0.981056	-0.425925	0.643058
C18	C	0.844746	-0.278102	0.564694
C19	C	0.766815	-0.281175	0.570897
C20	C	0.326150	-0.300602	0.610267
C21	C	0.399373	-0.297721	0.604416
C22	C	0.434166	-0.254956	0.517918
C23	C	0.395731	-0.215075	0.437257
C24	C	0.322509	-0.217960	0.443103
C25	C	0.655158	-0.244180	0.496081
C26	C	0.728385	-0.241296	0.490244
C27	C	0.732022	-0.323943	0.657403
C28	C	0.658799	-0.326822	0.663246
C29	C	0.620370	-0.286944	0.582580
C30	C	0.509012	-0.252008	0.511938
C31	C	0.545525	-0.289896	0.588555
C32	C	1.019675	-0.453126	0.564717
C33	C	1.016645	-0.531056	0.570935
C34	C	1.056508	-0.569474	0.490219
C35	C	1.053663	-0.642697	0.496074
C36	C	1.010951	-0.677499	0.582640
C37	C	0.971087	-0.639075	0.663364
C38	C	0.973936	-0.565853	0.657514
C39	C	1.000286	-0.898490	0.604493
C40	C	0.997438	-0.971716	0.610334
C41	C	1.080016	-0.975333	0.443045
C42	C	1.082858	-0.902111	0.437198
C43	C	1.042997	-0.863692	0.517926
C44	C	1.008040	-0.752344	0.588624
C45	C	1.045912	-0.788848	0.511947
C46	C	1.209789	-0.263780	0.535786
C47	C	1.287721	-0.260722	0.529615
C48	C	1.041556	-0.256295	0.877161
C49	C	1.047797	-0.250048	1.016463
C50	C	1.034197	-0.088070	0.535789
C51	C	1.037301	-0.010135	0.529618
C52	C	1.012366	-0.285505	0.224640
C53	C	1.006269	-0.291549	0.085312
H54	H	0.291221	-0.185484	0.377430
H55	H	0.297828	-0.335422	0.680710
H56	H	0.430659	-0.330197	0.670090
O57	O	0.625110	-0.368436	0.747289
C58	C	0.674732	-0.403010	0.817236
H59	H	0.724526	-0.405627	0.761926
H60	H	0.687812	-0.372850	0.909858
C61	C	0.582843	-0.474767	0.911173
C62	C	0.644000	-0.477987	0.843235
H63	H	0.563886	-0.521015	0.927216
H64	H	0.549411	-0.451472	0.864052
H65	H	0.593752	-0.449631	0.988350
H66	H	0.633088	-0.503114	0.766053
H67	H	0.677429	-0.501287	0.890344
H68	H	0.941477	-0.534573	0.723243
H69	H	1.086123	-0.673974	0.430346
H70	H	0.517194	-0.324717	0.658977
O71	O	1.095853	-0.201968	1.073476
C72	C	1.091606	-0.206230	1.204535
H73	H	1.037370	-0.230532	1.228396
H74	H	1.133355	-0.240287	1.241349
C75	C	1.170449	-0.102200	1.236429
C76	C	1.103833	-0.132043	1.265736
H77	H	1.177994	-0.056439	1.274182
H78	H	1.173312	-0.099330	1.148132
H79	H	1.205232	-0.130588	1.267109
H80	H	1.069051	-0.103660	1.235042
H81	H	1.100963	-0.134907	1.354030
H82	H	0.756712	-0.206462	0.419815
H83	H	0.763318	-0.356411	0.723075
O84	O	0.955937	-1.005411	0.694549
C85	C	0.921354	-0.955803	0.764531
H86	H	0.952296	-0.902258	0.762466
H87	H	0.866362	-0.952225	0.722170
C88	C	0.878059	-1.044545	0.903523
C89	C	0.916066	-0.978781	0.900996
H90	H	0.874794	-1.058719	0.987700
H91	H	0.901356	-1.077968	0.856373
H92	H	0.832237	-1.041555	0.868216
H93	H	0.961890	-0.981774	0.936287
H94	H	0.892776	-0.945359	0.948155
H95	H	1.117638	-0.873776	0.366709
H96	H	0.537348	-0.217187	0.441513
H97	H	0.623878	-0.211711	0.430393
H98	H	1.091286	-0.541144	0.419723
O99	O	0.958233	-0.339738	1.028559
C100	C	0.972178	-0.407603	1.064802
H101	H	1.029645	-0.407343	1.096723
H102	H	0.937215	-0.424046	1.145115
C103	C	0.886429	-0.460196	0.913578
C104	C	0.957013	-0.459877	0.952774
H105	H	0.877072	-0.492442	0.844477
H106	H	0.877032	-0.414474	0.889163
H107	H	0.857301	-0.473896	0.980516
H108	H	0.986139	-0.446169	0.885842
H109	H	0.966415	-0.505598	0.977175
O110	O	1.087505	-0.755067	0.427985
C111	C	1.157911	-0.768926	0.451329
H112	H	1.165118	-0.784403	0.552781
H113	H	1.171604	-0.813717	0.386095
C114	C	1.197735	-0.683646	0.303297
C115	C	1.206588	-0.702649	0.427906
H116	H	1.227762	-0.642765	0.288844
H117	H	1.150301	-0.674310	0.287566
H118	H	1.209145	-0.720977	0.248950
H119	H	1.195169	-0.665322	0.482250
H120	H	1.254021	-0.711977	0.443647
O121	O	0.429599	-0.173631	0.353172
C122	C	0.466715	-0.215448	0.271870
H123	H	0.477556	-0.266216	0.319255
H124	H	0.434016	-0.228347	0.181826
C125	C	0.523468	-0.112769	0.182488
C126	C	0.536789	-0.175120	0.240691
H127	H	0.566692	-0.087893	0.163249
H128	H	0.498461	-0.084596	0.237259
H129	H	0.496217	-0.123527	0.107458
H130	H	0.564032	-0.164361	0.315726
H131	H	0.561803	-0.203291	0.185932
O132	O	0.961523	-0.861106	0.682720
C133	C	0.914707	-0.823800	0.611501
H134	H	0.935655	-0.816118	0.513723
H135	H	0.861033	-0.854728	0.604023
C136	C	0.882046	-0.761085	0.795980
C137	C	0.907778	-0.751644	0.675891
H138	H	0.877769	-0.716577	0.835701
H139	H	0.913585	-0.786220	0.843963
H140	H	0.837321	-0.786860	0.789732
H141	H	0.952506	-0.725878	0.682142
H142	H	0.876246	-0.726503	0.627911
O143	O	0.929500	-0.672808	0.747397
C144	C	0.859092	-0.658971	0.723998
H145	H	0.857571	-0.608037	0.671684
H146	H	0.831011	-0.704033	0.664695
C147	C	0.824039	-0.714342	0.913469
C148	C	0.822171	-0.651782	0.849225
H149	H	0.801262	-0.709911	0.990713
H150	H	0.871473	-0.723667	0.929232
H151	H	0.800638	-0.751888	0.864036
H152	H	0.845578	-0.614239	0.898651
H153	H	0.774739	-0.642450	0.833474
H154	H	1.112470	-1.006621	0.377322
H155	H	0.973263	-0.780689	0.659104
