data_functionalizedCrystal
_audit_creation_method	'MofGen! by Chris Wilmer'
_symmetry_space_group_name_H-M	'P1'
_symmetry_Int_Tables_number	1
_symmetry_cell_setting	triclinic
loop_
_symmetry_equiv_pos_as_xyz
  x,y,z
_cell_length_a	27.732048
_cell_length_b	27.732048
_cell_length_c	26.809956
_cell_angle_alpha	90.000636
_cell_angle_beta	89.996742
_cell_angle_gamma	97.357345
loop_
_atom_site_label
_atom_site_type_symbol
_atom_site_fract_x
_atom_site_fract_y
_atom_site_fract_z
O1	O	0.640931	-0.057510	-0.041421
O2	O	1.140931	0.442490	0.458579
O3	O	0.500138	-0.066256	-0.041436
O4	O	1.000138	0.433744	0.458564
O5	O	0.574907	0.008514	-0.041419
O6	O	1.074907	0.508514	0.458581
O7	O	0.566162	-0.132280	-0.041439
O8	O	1.066162	0.367720	0.458561
O9	O	0.574893	0.008502	0.041541
O10	O	1.074893	0.508502	0.541541
O11	O	0.500123	-0.066267	0.041523
O12	O	1.000123	0.433733	0.541523
O13	O	0.640917	-0.057522	0.041539
O14	O	1.140917	0.442478	0.541539
Zn15	Zn	0.570518	-0.061896	0.054702
Zn16	Zn	1.070518	0.438104	0.554702
Zn17	Zn	0.570536	-0.061881	-0.054600
Zn18	Zn	1.070536	0.438119	0.445400
O19	O	0.566147	-0.132291	0.041521
O20	O	1.066147	0.367709	0.541521
C21	C	0.482124	-0.066078	0.000041
C22	C	0.982124	0.433922	0.500041
C23	C	0.428469	-0.065525	0.000036
C24	C	0.928469	0.434475	0.500036
C25	C	0.089654	-0.106229	0.000051
C26	C	0.589654	0.393771	0.500051
C27	C	-0.112006	-0.104178	0.000056
C28	C	0.387994	0.395822	0.500056
O29	O	-0.143262	-0.141398	0.000073
O30	O	0.356738	0.358602	0.500073
N31	N	-0.131130	-0.059843	0.000062
N32	N	0.368870	0.440157	0.500062
C33	C	-0.099835	-0.016017	0.000069
C34	C	0.400165	0.483983	0.500069
O35	O	-0.120728	0.021740	0.000079
O36	O	0.379272	0.521740	0.500079
C37	C	0.101824	-0.018068	0.000068
C38	C	0.601824	0.481932	0.500068
C39	C	0.120944	-0.062407	0.000057
C40	C	0.620944	0.437593	0.500057
C41	C	0.108775	-0.150563	0.000042
C42	C	0.608775	0.349437	0.500042
C43	C	0.159187	-0.151076	0.000038
C44	C	0.659187	0.348924	0.500038
C45	C	0.190477	-0.107253	0.000044
C46	C	0.690477	0.392747	0.500044
C47	C	0.171356	-0.062919	0.000054
C48	C	0.671356	0.437081	0.500054
C49	C	0.133117	0.025757	0.000079
C50	C	0.633117	0.525757	0.500079
C51	C	0.183535	0.025240	0.000080
C52	C	0.683535	0.525240	0.500080
C53	C	0.202655	-0.019098	0.000069
C54	C	0.702655	0.480902	0.500069
C55	C	0.253059	-0.019609	0.000056
C56	C	0.753059	0.480391	0.500056
N57	N	0.272183	-0.063944	0.000050
N58	N	0.772183	0.436056	0.500050
C59	C	0.240892	-0.107766	0.000044
C60	C	0.740892	0.392234	0.500044
C61	C	-0.205709	-0.014943	0.000069
C62	C	0.294291	0.485057	0.500069
C63	C	-0.256124	-0.014430	0.000068
C64	C	0.243876	0.485570	0.500068
C65	C	-0.268291	-0.102591	0.000056
C66	C	0.231709	0.397409	0.500056
C67	C	-0.217876	-0.103104	0.000053
C68	C	0.282124	0.396896	0.500053
C69	C	-0.186585	-0.059278	0.000063
C70	C	0.313415	0.440722	0.500063
C71	C	0.346761	-0.108839	0.000036
C72	C	0.846761	0.391161	0.500036
C73	C	0.397178	-0.109347	0.000030
C74	C	0.897178	0.390653	0.500030
C75	C	0.409341	-0.021186	0.000044
C76	C	0.909341	0.478814	0.500044
C77	C	0.358929	-0.020678	0.000048
C78	C	0.858929	0.479322	0.500048
C79	C	0.327639	-0.064508	0.000045
C80	C	0.827639	0.435492	0.500045
O81	O	0.284343	0.017592	0.000045
O82	O	0.784343	0.517592	0.500045
O83	O	0.261794	-0.145518	0.000045
O84	O	0.761794	0.354482	0.500045
C85	C	0.039242	-0.105716	0.000055
C86	C	0.539242	0.394284	0.500055
C87	C	0.020120	-0.061382	0.000065
C88	C	0.520120	0.438618	0.500065
C89	C	0.051411	-0.017560	0.000071
C90	C	0.551411	0.482440	0.500071
C91	C	-0.030294	-0.060869	0.000065
C92	C	0.469706	0.439131	0.500065
C93	C	-0.061585	-0.104691	0.000059
C94	C	0.438415	0.395309	0.500059
C95	C	-0.042461	-0.149026	0.000053
C96	C	0.457539	0.350974	0.500053
C97	C	0.007951	-0.149539	0.000049
C98	C	0.507951	0.350461	0.500049
C99	C	0.032287	0.026775	0.000077
C100	C	0.532287	0.526775	0.500077
C101	C	-0.018125	0.027284	0.000080
C102	C	0.481875	0.527284	0.500080
C103	C	-0.049416	-0.016538	0.000074
C104	C	0.450584	0.483462	0.500074
C105	C	0.574716	0.026515	0.000062
C106	C	1.074716	0.526515	0.500062
C107	C	0.574164	0.080170	0.000066
C108	C	1.074164	0.580170	0.500066
C109	C	0.658931	-0.057699	0.000060
C110	C	1.158931	0.442301	0.500060
C111	C	0.712586	-0.058252	0.000062
C112	C	1.212586	0.441748	0.500062
C113	C	0.566338	-0.150292	0.000039
C114	C	1.066338	0.349708	0.500039
C115	C	0.566891	-0.203947	0.000031
C116	C	1.066891	0.296053	0.500031
N117	N	0.570509	-0.061906	0.129298
N118	N	1.070509	0.438094	0.629298
C119	C	0.614867	0.418985	0.000045
C120	C	1.114867	0.918985	0.500045
C121	C	0.612816	0.620645	0.000038
C122	C	1.112816	1.120645	0.500038
O123	O	0.650037	0.651900	0.000021
O124	O	1.150037	1.151900	0.500021
N125	N	0.568481	0.639768	0.000034
N126	N	1.068481	1.139768	0.500034
C127	C	0.524656	0.608474	0.000028
C128	C	1.024656	1.108474	0.500028
O129	O	0.486899	0.629367	0.000019
O130	O	0.986899	1.129367	0.500019
C131	C	0.526707	0.406815	0.000031
C132	C	1.026707	0.906815	0.500031
C133	C	0.571045	0.387694	0.000041
C134	C	1.071045	0.887694	0.500041
C135	C	0.659202	0.399864	0.000054
C136	C	1.159202	0.899864	0.500054
C137	C	0.659714	0.349452	0.000059
C138	C	1.159714	0.849452	0.500059
C139	C	0.615892	0.318161	0.000054
C140	C	1.115892	0.818161	0.500054
C141	C	0.571557	0.337282	0.000045
C142	C	1.071557	0.837282	0.500045
C143	C	0.482882	0.375521	0.000022
C144	C	0.982882	0.875521	0.500022
C145	C	0.483399	0.325104	0.000021
C146	C	0.983399	0.825104	0.500021
C147	C	0.527737	0.305983	0.000031
C148	C	1.027737	0.805983	0.500031
C149	C	0.528247	0.255580	0.000045
C150	C	1.028247	0.755580	0.500045
N151	N	0.572583	0.236456	0.000050
N152	N	1.072583	0.736456	0.500050
C153	C	0.616405	0.267747	0.000054
C154	C	1.116405	0.767747	0.500054
C155	C	0.523582	0.714348	0.000027
C156	C	1.023582	1.214348	0.500027
C157	C	0.523069	0.764762	0.000027
C158	C	1.023069	1.264762	0.500027
C159	C	0.611230	0.776930	0.000036
C160	C	1.111230	1.276930	0.500036
C161	C	0.611742	0.726514	0.000040
C162	C	1.111742	1.226514	0.500040
C163	C	0.567917	0.695224	0.000031
C164	C	1.067917	1.195224	0.500031
C165	C	0.617477	0.161878	0.000064
C166	C	1.117477	0.661878	0.500064
C167	C	0.617986	0.111461	0.000071
C168	C	1.117986	0.611461	0.500071
C169	C	0.529825	0.099298	0.000059
C170	C	1.029825	0.599298	0.500059
C171	C	0.529316	0.149710	0.000055
C172	C	1.029316	0.649710	0.500055
C173	C	0.573147	0.180999	0.000056
C174	C	1.073147	0.680999	0.500056
O175	O	0.491047	0.224296	0.000057
O176	O	0.991047	0.724296	0.500057
O177	O	0.654156	0.246844	0.000053
O178	O	1.154156	0.746844	0.500053
C179	C	0.614355	0.469397	0.000041
C180	C	1.114355	0.969397	0.500041
C181	C	0.570021	0.488518	0.000032
C182	C	1.070021	0.988518	0.500032
C183	C	0.526198	0.457228	0.000027
C184	C	1.026198	0.957228	0.500027
C185	C	0.569508	0.538933	0.000032
C186	C	1.069508	1.038933	0.500032
C187	C	0.613330	0.570223	0.000036
C188	C	1.113330	1.070223	0.500036
C189	C	0.657665	0.551100	0.000041
C190	C	1.157665	1.051100	0.500041
C191	C	0.658177	0.500688	0.000045
C192	C	1.158177	1.000688	0.500045
C193	C	0.481863	0.476351	0.000023
C194	C	0.981863	0.976351	0.500023
C195	C	0.481355	0.526764	0.000019
C196	C	0.981355	1.026764	0.500019
C197	C	0.525177	0.558054	0.000023
C198	C	1.025177	1.058054	0.500023
N199	N	0.570549	-0.061867	-0.129196
N200	N	1.070549	0.438133	0.370804
C201	C	0.603640	-0.028781	0.473932
C202	C	1.103640	0.471219	0.973932
C203	C	0.603652	-0.028774	0.682810
C204	C	1.103652	0.471226	1.182810
O205	O	0.631801	-0.000613	0.709820
O206	O	1.131801	0.499387	1.209820
N207	N	0.570539	-0.061870	0.708925
N208	N	1.070539	0.438130	1.208925
C209	C	0.537419	-0.094969	0.682818
C210	C	1.037419	0.405031	1.182818
O211	O	0.509252	-0.123116	0.709824
O212	O	1.009252	0.376884	1.209824
C213	C	0.537406	-0.094974	0.473941
C214	C	1.037406	0.405026	0.973941
C215	C	0.570524	-0.061878	0.447829
C216	C	1.070524	0.438122	0.947829
C217	C	0.636755	0.004312	0.447819
C218	C	1.136755	0.504312	0.947819
C219	C	0.636754	0.004308	0.395603
C220	C	1.136754	0.504308	0.895603
C221	C	0.603637	-0.028789	0.369500
C222	C	1.103637	0.471211	0.869500
C223	C	0.570522	-0.061882	0.395612
C224	C	1.070522	0.438118	0.895612
C225	C	0.504284	-0.128070	0.447835
C226	C	1.004284	0.371930	0.947835
C227	C	0.504283	-0.128067	0.395613
C228	C	1.004283	0.371933	0.895613
C229	C	0.537401	-0.094972	0.369500
C230	C	1.037401	0.405028	0.869500
C231	C	0.537405	-0.094983	0.317293
C232	C	1.037405	0.405017	0.817293
N233	N	0.570517	-0.061887	0.291177
N234	N	1.070517	0.438113	0.791177
C235	C	0.603633	-0.028790	0.317281
C236	C	1.103633	0.471210	0.817281
C237	C	0.537429	-0.094965	0.792481
C238	C	1.037429	0.405035	1.292481
C239	C	0.537433	-0.094964	0.844700
C240	C	1.037433	0.405036	1.344700
C241	C	0.603665	-0.028768	0.844689
C242	C	1.103665	0.471232	1.344689
C243	C	0.603663	-0.028772	0.792469
C244	C	1.103663	0.471228	1.292469
C245	C	0.570542	-0.061868	0.766366
C246	C	1.070542	0.438132	1.266366
C247	C	0.603628	-0.028801	0.207623
C248	C	1.103628	0.471199	0.707623
C249	C	0.603625	-0.028809	0.155402
C250	C	1.103625	0.471191	0.655402
C251	C	0.537392	-0.095003	0.155418
C252	C	1.037392	0.404997	0.655418
C253	C	0.537396	-0.094997	0.207635
C254	C	1.037396	0.405003	0.707635
C255	C	0.570516	-0.061892	0.233735
C256	C	1.070516	0.438108	0.733735
O257	O	0.509266	-0.123126	0.290250
O258	O	1.009266	0.376874	0.790250
O259	O	0.631789	-0.000640	0.290266
O260	O	1.131789	0.499360	0.790266
C261	C	0.603642	-0.028777	0.526149
C262	C	1.103642	0.471223	1.026149
C263	C	0.570527	-0.061870	0.552261
C264	C	1.070527	0.438130	1.052261
C265	C	0.537410	-0.094968	0.526158
C266	C	1.037410	0.405032	1.026158
C267	C	0.570531	-0.061870	0.604480
C268	C	1.070531	0.438130	1.104480
C269	C	0.603647	-0.028773	0.630584
C270	C	1.103647	0.471227	1.130584
C271	C	0.636759	0.004324	0.604468
C272	C	1.136759	0.504324	1.104468
C273	C	0.636758	0.004320	0.552252
C274	C	1.136758	0.504320	1.052252
C275	C	0.504298	-0.128064	0.552273
C276	C	1.004298	0.371936	1.052273
C277	C	0.504303	-0.128058	0.604489
C278	C	1.004303	0.371942	1.104489
C279	C	0.537419	-0.094961	0.630593
C280	C	1.037419	0.405039	1.130593
H281	H	0.083302	-0.186251	0.000038
H282	H	0.583302	0.313749	0.500038
O283	O	0.668861	0.036523	0.629854
O284	O	1.168861	0.536523	1.129854
C285	C	0.643193	0.066154	0.660069
C286	C	1.143193	0.566154	1.160069
H287	H	0.605081	0.066706	0.644330
H288	H	1.105081	0.566706	1.144330
H289	H	0.640542	0.051005	0.699643
H290	H	1.140542	0.551005	1.199643
C291	C	0.717028	0.117563	0.680208
C292	C	1.217028	0.617563	1.180208
C293	C	0.670220	0.118244	0.660874
C294	C	1.170220	0.618244	1.160874
H295	H	0.733700	0.149694	0.680708
H296	H	1.233700	0.649694	1.180708
H297	H	0.734322	0.097599	0.659853
H298	H	1.234322	0.597599	1.159853
H299	H	0.714812	0.104936	0.713185
H300	H	1.214812	0.604936	1.213185
H301	H	0.672436	0.130865	0.627896
H302	H	1.172436	0.630865	1.127896
H303	H	0.652927	0.138212	0.681224
H304	H	1.152927	0.638212	1.181224
H305	H	0.694889	0.425336	0.000056
H306	H	1.194889	0.925336	0.500056
O307	O	0.505219	-0.127135	0.869986
O308	O	1.005219	0.372865	1.369986
C309	C	0.475999	-0.156352	0.835742
C310	C	0.975999	0.343648	1.335742
H311	H	0.475604	-0.136535	0.798520
H312	H	0.975604	0.363465	1.298520
H313	H	0.491422	-0.192155	0.830186
H314	H	0.991422	0.307845	1.330186
C315	C	0.424264	-0.191014	0.901840
C316	C	0.924264	0.308986	1.401840
C317	C	0.423776	-0.166672	0.856124
C318	C	0.923776	0.333328	1.356124
H319	H	0.392051	-0.197382	0.914413
H320	H	0.892051	0.302618	1.414413
H321	H	0.443951	-0.171331	0.924911
H322	H	0.943951	0.328669	1.424911
H323	H	0.437119	-0.220847	0.897203
H324	H	0.937119	0.279153	1.397203
H325	H	0.410927	-0.136838	0.860762
H326	H	0.910927	0.363162	1.360762
H327	H	0.404085	-0.186350	0.833054
H328	H	0.904085	0.313650	1.333054
H329	H	-0.293777	-0.138273	0.000051
H330	H	0.206223	0.361727	0.500051
H331	H	0.646911	0.802415	0.000040
H332	H	1.146911	1.302415	0.500040
O333	O	0.472065	-0.160237	0.473115
O334	O	0.972065	0.339763	0.973115
C335	C	0.442846	-0.189450	0.438868
C336	C	0.942846	0.310550	0.938868
H337	H	0.442456	-0.169631	0.401646
H338	H	0.942456	0.330369	0.901646
H339	H	0.458268	-0.225254	0.433311
H340	H	0.958268	0.274746	0.933311
C341	C	0.391104	-0.224112	0.504960
C342	C	0.891104	0.275888	1.004960
C343	C	0.390621	-0.199768	0.459245
C344	C	0.890621	0.300232	0.959245
H345	H	0.358890	-0.230479	0.517530
H346	H	0.858890	0.269521	1.017530
H347	H	0.410790	-0.204432	0.528034
H348	H	0.910790	0.295568	1.028034
H349	H	0.403958	-0.253946	0.500323
H350	H	0.903958	0.246054	1.000323
H351	H	0.377774	-0.169933	0.463883
H352	H	0.877774	0.330067	0.963883
H353	H	0.370932	-0.219444	0.436172
H354	H	0.870932	0.280556	0.936172
O355	O	0.177695	-0.194179	-0.000036
O356	O	0.677695	0.305821	0.499964
C357	C	0.161677	-0.220855	-0.043010
C358	C	0.661677	0.279145	0.456990
H359	H	0.126810	-0.207935	-0.057333
H360	H	0.626810	0.292065	0.442667
H361	H	0.190897	-0.215040	-0.073096
H362	H	0.690897	0.284960	0.426904
C363	C	0.194633	-0.291173	-0.012375
C364	C	0.694633	0.208827	0.487625
C365	C	0.151807	-0.275307	-0.029963
C366	C	0.651807	0.224693	0.470037
H367	H	0.188546	-0.324762	-0.004328
H368	H	0.688546	0.175238	0.495672
H369	H	0.205426	-0.273200	0.016577
H370	H	0.705426	0.226800	0.516577
H371	H	0.218979	-0.286323	-0.037449
H372	H	0.718979	0.213677	0.462551
H373	H	0.127464	-0.280152	-0.004887
H374	H	0.627464	0.219848	0.495113
H375	H	0.141009	-0.293282	-0.058911
H376	H	0.641009	0.206718	0.441089
O377	O	0.505323	-0.127142	0.767075
O378	O	1.005323	0.372858	1.267075
C379	C	0.530983	-0.156797	0.736879
C380	C	1.030983	0.343203	1.236879
H381	H	0.568948	-0.137280	0.729043
H382	H	1.068948	0.362720	1.229043
H383	H	0.534008	-0.192495	0.757010
H384	H	1.034008	0.307505	1.257010
C385	C	0.457015	-0.191301	0.696910
C386	C	0.957015	0.308699	1.196910
C387	C	0.503642	-0.167329	0.687282
C388	C	1.003642	0.332671	1.187282
H389	H	0.440150	-0.197801	0.666317
H390	H	0.940150	0.302199	1.166317
H391	H	0.439727	-0.171324	0.717255
H392	H	0.939727	0.328676	1.217255
H393	H	0.459542	-0.221047	0.713687
H394	H	0.959542	0.278953	1.213687
H395	H	0.501115	-0.137581	0.670510
H396	H	1.001115	0.362419	1.170510
H397	H	0.520930	-0.187302	0.666932
H398	H	1.020930	0.312698	1.166932
H399	H	0.486964	0.780325	0.000028
H400	H	0.986964	1.280325	0.500028
O401	O	0.062611	0.069391	0.000058
O402	O	0.562611	0.569391	0.500058
C403	C	0.034915	0.108627	0.000077
C404	C	0.534915	0.608627	0.500077
H405	H	-0.002806	0.096065	-0.015626
H406	H	0.497194	0.596065	0.484374
H407	H	0.031423	0.122231	0.039879
H408	H	0.531423	0.622231	0.539879
C409	C	0.106661	0.165507	-0.013168
C410	C	0.606661	0.665507	0.486832
C411	C	0.060333	0.150079	-0.032459
C412	C	0.560333	0.650079	0.467541
H413	H	0.122341	0.191078	-0.033236
H414	H	0.622341	0.691078	0.466764
H415	H	0.125321	0.139073	-0.013179
H416	H	0.625321	0.639073	0.486821
H417	H	0.103745	0.176841	0.019999
H418	H	0.603745	0.676841	0.519999
H419	H	0.063250	0.138740	-0.065623
H420	H	0.563250	0.638740	0.434377
H421	H	0.041674	0.176512	-0.032454
H422	H	0.541674	0.676512	0.467546
O423	O	0.480962	0.684024	0.000045
O424	O	0.980962	1.184024	0.500045
C425	C	0.441727	0.711721	0.000030
C426	C	0.941727	1.211721	0.500030
H427	H	0.454289	0.749441	0.015735
H428	H	0.954289	1.249441	0.515735
H429	H	0.428123	0.715213	-0.039770
H430	H	0.928123	1.215213	0.460230
C431	C	0.384846	0.639975	0.013274
C432	C	0.884846	1.139975	0.513274
C433	C	0.400274	0.686303	0.032567
C434	C	0.900274	1.186303	0.532567
H435	H	0.359274	0.624296	0.033342
H436	H	0.859274	1.124296	0.533342
H437	H	0.411279	0.621315	0.013282
H438	H	0.911279	1.121315	0.513282
H439	H	0.373513	0.642892	-0.019893
H440	H	0.873513	1.142892	0.480107
H441	H	0.411612	0.683385	0.065731
H442	H	0.911612	1.183385	0.565731
H443	H	0.373841	0.704962	0.032565
H444	H	0.873841	1.204962	0.532565
H445	H	0.477335	-0.155012	0.625747
H446	H	0.977335	0.344988	1.125747
H447	H	0.446177	0.450879	0.000018
H448	H	0.946177	0.950879	0.500018
O449	O	0.340408	0.022421	-0.000014
O450	O	0.840408	0.522421	0.499986
C451	C	0.356415	0.049112	-0.042984
C452	C	0.856415	0.549112	0.457016
H453	H	0.391289	0.036209	-0.057316
H454	H	0.891289	0.536209	0.442684
H455	H	0.327196	0.043293	-0.073066
H456	H	0.827196	0.543293	0.426934
C457	C	0.323433	0.119407	-0.012323
C458	C	0.823433	0.619407	0.487677
C459	C	0.366267	0.103562	-0.029923
C460	C	0.866267	0.603562	0.470077
H461	H	0.329508	0.152994	-0.004268
H462	H	0.829508	0.652994	0.495732
H463	H	0.312646	0.101424	0.016626
H464	H	0.812646	0.601424	0.516626
H465	H	0.299087	0.114554	-0.037395
H466	H	0.799087	0.614554	0.462605
H467	H	0.390609	0.108409	-0.004849
H468	H	0.890609	0.608409	0.495151
H469	H	0.377058	0.121547	-0.058867
H470	H	0.877058	0.621547	0.441133
O471	O	0.654854	0.708023	0.000022
O472	O	1.154854	1.208023	0.500022
C473	C	0.693419	0.746458	0.000040
C474	C	1.193419	1.246458	0.500040
H475	H	0.680129	0.780610	-0.015665
H476	H	1.180129	1.280610	0.484335
H477	H	0.706912	0.753689	0.039841
H478	H	1.206912	1.253689	0.539841
C479	C	0.751595	0.690592	-0.013203
C480	C	1.251595	1.190592	0.486797
C481	C	0.735273	0.732538	-0.032495
C482	C	1.235273	1.232538	0.467505
H483	H	0.777414	0.682006	-0.033270
H484	H	1.277414	1.182006	0.466730
H485	H	0.725614	0.664698	-0.013213
H486	H	1.225614	1.164698	0.486787
H487	H	0.762836	0.696624	0.019965
H488	H	1.262836	1.196624	0.519965
H489	H	0.724027	0.726504	-0.065659
H490	H	1.224027	1.226504	0.434341
H491	H	0.761254	0.758431	-0.032491
H492	H	1.261254	1.258431	0.467509
H493	H	0.654093	0.095896	0.000080
H494	H	1.154093	0.595896	0.500080
O495	O	0.472175	-0.160239	0.370202
O496	O	0.972175	0.339761	0.870202
C497	C	0.497833	-0.189897	0.340006
C498	C	0.997833	0.310103	0.840006
H499	H	0.535801	-0.170386	0.332176
H500	H	1.035801	0.329614	0.832176
H501	H	0.500848	-0.225599	0.360135
H502	H	1.000848	0.274401	0.860135
C503	C	0.423866	-0.224384	0.300025
C504	C	0.923866	0.275616	0.800025
C505	C	0.470497	-0.200419	0.290405
C506	C	0.970497	0.299581	0.790405
H507	H	0.407003	-0.230877	0.269429
H508	H	0.907003	0.269123	0.769429
H509	H	0.406579	-0.204405	0.320370
H510	H	0.906579	0.295595	0.820370
H511	H	0.426385	-0.254133	0.316800
H512	H	0.926385	0.245867	0.816800
H513	H	0.467978	-0.170668	0.273636
H514	H	0.967978	0.329332	0.773636
H515	H	0.487783	-0.220394	0.270056
H516	H	0.987783	0.279606	0.770056
H517	H	0.023514	-0.185643	0.000042
H518	H	0.523514	0.314357	0.500042
H519	H	0.446777	0.391080	0.000011
H520	H	0.946777	0.891080	0.500011
O521	O	-0.199384	-0.146216	0.000069
O522	O	0.300616	0.353784	0.500069
C523	C	-0.237819	-0.184781	0.000048
C524	C	0.262181	0.315219	0.500048
H525	H	-0.271972	-0.171491	0.015754
H526	H	0.228028	0.328509	0.515754
H527	H	-0.245048	-0.198273	-0.039754
H528	H	0.254952	0.301727	0.460246
C529	C	-0.181954	-0.242957	0.013286
C530	C	0.318046	0.257043	0.513286
C531	C	-0.223901	-0.226635	0.032580
C532	C	0.276099	0.273365	0.532580
H533	H	-0.173369	-0.268775	0.033351
H534	H	0.326631	0.231225	0.533351
H535	H	-0.156060	-0.216975	0.013298
H536	H	0.343940	0.283025	0.513298
H537	H	-0.187984	-0.254197	-0.019882
H538	H	0.312016	0.245803	0.480118
H539	H	-0.217869	-0.215389	0.065745
H540	H	0.282131	0.284611	0.565745
H541	H	-0.249794	-0.252615	0.032575
H542	H	0.250206	0.247385	0.532575
H543	H	0.477330	-0.155015	0.531024
H544	H	0.977330	0.344985	1.031024
H545	H	0.510433	-0.121951	0.228896
H546	H	1.010433	0.378049	0.728896
H547	H	0.630597	-0.001843	0.228868
H548	H	1.130597	0.498157	0.728868
H549	H	0.663725	0.031269	0.530995
H550	H	1.163725	0.531269	1.030995
O551	O	-0.175386	0.027676	0.000053
O552	O	0.324614	0.527676	0.500053
C553	C	-0.203082	0.066912	0.000069
C554	C	0.296918	0.566912	0.500069
H555	H	-0.240801	0.054350	-0.015638
H556	H	0.259199	0.554350	0.484362
H557	H	-0.206578	0.080516	0.039870
H558	H	0.293422	0.580516	0.539870
C559	C	-0.131335	0.123793	-0.013168
C560	C	0.368665	0.623793	0.486832
C561	C	-0.177661	0.108365	-0.032464
C562	C	0.322339	0.608365	0.467536
H563	H	-0.115654	0.149364	-0.033234
H564	H	0.384346	0.649364	0.466766
H565	H	-0.112675	0.097360	-0.013177
H566	H	0.387325	0.597360	0.486823
H567	H	-0.134255	0.135126	0.019999
H568	H	0.365745	0.635126	0.519999
H569	H	-0.174740	0.097027	-0.065628
H570	H	0.325260	0.597027	0.434372
H571	H	-0.196320	0.134798	-0.032462
H572	H	0.303680	0.634798	0.467538
H573	H	0.630595	-0.001859	0.134142
H574	H	1.130595	0.498141	0.634142
H575	H	0.663720	0.031258	0.374345
H576	H	1.163720	0.531258	0.874345
H577	H	-0.271687	0.021674	0.000069
H578	H	0.228313	0.521674	0.500069
O579	O	0.316440	-0.151459	0.000007
O580	O	0.816440	0.348541	0.500007
C581	C	0.344137	-0.190694	0.000009
C582	C	0.844137	0.309306	0.500009
H583	H	0.381857	-0.178127	-0.015694
H584	H	0.881857	0.321873	0.484306
H585	H	0.347627	-0.204311	0.039805
H586	H	0.847627	0.295689	0.539805
C587	C	0.272392	-0.247571	-0.013248
C588	C	0.772392	0.252429	0.486752
C589	C	0.318720	-0.232137	-0.032539
C590	C	0.818720	0.267863	0.467461
H591	H	0.256713	-0.273136	-0.033322
H592	H	0.756713	0.226864	0.466678
H593	H	0.253732	-0.221138	-0.013247
H594	H	0.753732	0.278862	0.486753
H595	H	0.275307	-0.258915	0.019916
H596	H	0.775307	0.241085	0.519916
H597	H	0.315804	-0.220788	-0.065699
H598	H	0.815804	0.279212	0.434301
H599	H	0.337379	-0.258569	-0.032546
H600	H	0.837379	0.241431	0.467454
H601	H	0.412743	-0.145454	0.000021
H602	H	0.912743	0.354546	0.500021
H603	H	0.653168	0.187348	0.000063
H604	H	1.153168	0.687348	0.500063
O605	O	0.440781	0.294778	0.000035
O606	O	0.940781	0.794778	0.500035
C607	C	0.401542	0.322470	0.000013
C608	C	0.901542	0.822470	0.500013
H609	H	0.414098	0.360191	0.015719
H610	H	0.914098	0.860191	0.515719
H611	H	0.387945	0.325961	-0.039790
H612	H	0.887945	0.825961	0.460210
C613	C	0.344665	0.250720	0.013248
C614	C	0.844665	0.750720	0.513248
C615	C	0.360086	0.297048	0.032543
C616	C	0.860086	0.797048	0.532543
H617	H	0.319092	0.235038	0.033312
H618	H	0.819092	0.735038	0.533312
H619	H	0.371101	0.232063	0.013261
H620	H	0.871101	0.732063	0.513261
H621	H	0.333337	0.253635	-0.019921
H622	H	0.833337	0.753635	0.480079
H623	H	0.371419	0.294132	0.065709
H624	H	0.871419	0.794132	0.565709
H625	H	0.333651	0.315705	0.032536
H626	H	0.833651	0.815705	0.532536
H627	H	0.117558	0.061861	0.000088
H628	H	0.617558	0.561861	0.500088
O629	O	-0.072842	-0.191609	-0.000041
O630	O	0.427158	0.308391	0.499959
C631	C	-0.064221	-0.218554	-0.043003
C632	C	0.435779	0.281446	0.456997
H633	H	-0.046798	-0.192903	-0.073032
H634	H	0.453202	0.307097	0.426968
H635	H	-0.038757	-0.246342	-0.033294
H636	H	0.461243	0.253658	0.466706
C637	C	-0.134137	-0.276604	-0.025602
C638	C	0.365863	0.223396	0.474398
C639	C	-0.112741	-0.245099	-0.062486
C640	C	0.387259	0.254901	0.437514
H641	H	-0.164066	-0.292980	-0.037620
H642	H	0.335934	0.207020	0.462380
H643	H	-0.139945	-0.258452	0.003343
H644	H	0.360055	0.241548	0.503343
H645	H	-0.112913	-0.299756	-0.017515
H646	H	0.387087	0.200244	0.482485
H647	H	-0.133963	-0.221943	-0.070569
H648	H	0.366037	0.278057	0.429431
H649	H	-0.106939	-0.263248	-0.091434
H650	H	0.393061	0.236752	0.408566
H651	H	0.209009	0.060929	0.000089
H652	H	0.709009	0.560929	0.500089
O653	O	0.701290	0.482198	0.000029
O654	O	1.201290	0.982198	0.500029
C655	C	0.739853	0.520634	0.000044
C656	C	1.239853	1.020634	0.500044
H657	H	0.726561	0.554784	-0.015664
H658	H	1.226561	1.054784	0.484336
H659	H	0.753346	0.527870	0.039845
H660	H	1.253346	1.027870	0.539845
C661	C	0.798033	0.464772	-0.013192
C662	C	1.298033	0.964772	0.486808
C663	C	0.781708	0.506714	-0.032489
C664	C	1.281708	1.006714	0.467511
H665	H	0.823852	0.456185	-0.033258
H666	H	1.323852	0.956185	0.466742
H667	H	0.772053	0.438876	-0.013200
H668	H	1.272053	0.938876	0.486800
H669	H	0.809273	0.470807	0.019975
H670	H	1.309273	0.970807	0.519975
H671	H	0.770463	0.500677	-0.065653
H672	H	1.270463	1.000677	0.434347
H673	H	0.807688	0.532609	-0.032487
H674	H	1.307688	1.032609	0.467513
H675	H	-0.033688	0.063392	0.000085
H676	H	0.466312	0.563392	0.500085
H677	H	0.493213	0.165279	0.000061
H678	H	0.993213	0.665279	0.500061
O679	O	0.668975	0.036482	0.473094
O680	O	1.168975	0.536482	0.973094
C681	C	0.698188	0.065695	0.438839
C682	C	1.198188	0.565695	0.938839
H683	H	0.698573	0.045874	0.401617
H684	H	1.198573	0.545874	0.901617
H685	H	0.682766	0.101498	0.433286
H686	H	1.182766	0.601498	0.933286
C687	C	0.749941	0.100359	0.504916
C688	C	1.249941	0.600359	1.004916
C689	C	0.750417	0.076013	0.459201
C690	C	1.250417	0.576013	0.959201
H691	H	0.782157	0.106726	0.517477
H692	H	1.282157	0.606726	1.017477
H693	H	0.730258	0.080680	0.527995
H694	H	1.230258	0.580680	1.027995
H695	H	0.737087	0.130193	0.500283
H696	H	1.237087	0.630193	1.000283
H697	H	0.763265	0.046178	0.463836
H698	H	1.263265	0.546178	0.963836
H699	H	0.770103	0.095688	0.436123
H700	H	1.270103	0.595688	0.936123
H701	H	0.445246	0.542327	0.000015
H702	H	0.945246	1.042327	0.500015
H703	H	0.434827	0.014492	0.000047
H704	H	0.934827	0.514492	0.500047
H705	H	0.630630	-0.001822	0.771211
H706	H	1.130630	0.498178	1.271211
O707	O	0.702827	0.330962	0.000042
O708	O	1.202827	0.830962	0.500042
C709	C	0.741390	0.369399	0.000057
C710	C	1.241390	0.869399	0.500057
H711	H	0.728098	0.403549	-0.015651
H712	H	1.228098	0.903549	0.484349
H713	H	0.754883	0.376634	0.039858
H714	H	1.254883	0.876634	0.539858
C715	C	0.799570	0.313536	-0.013181
C716	C	1.299570	0.813536	0.486819
C717	C	0.783245	0.355479	-0.032477
C718	C	1.283245	0.855479	0.467523
H719	H	0.825389	0.304950	-0.033248
H720	H	1.325389	0.804950	0.466752
H721	H	0.773589	0.287640	-0.013189
H722	H	1.273589	0.787640	0.486811
H723	H	0.810810	0.319571	0.019986
H724	H	1.310810	0.819571	0.519986
H725	H	0.771999	0.349442	-0.065641
H726	H	1.271999	0.849442	0.434359
H727	H	0.809224	0.381373	-0.032475
H728	H	1.309224	0.881373	0.467525
O729	O	0.505205	-0.127198	0.130133
O730	O	1.005205	0.372802	0.630133
C731	C	0.475965	-0.156402	0.164374
C732	C	0.975965	0.343598	0.664374
H733	H	0.495776	-0.156817	0.201597
H734	H	0.995776	0.343183	0.701597
H735	H	0.440177	-0.140949	0.169930
H736	H	0.940177	0.359051	0.669930
C737	C	0.441272	-0.208107	0.098272
C738	C	0.941272	0.291893	0.598272
C739	C	0.465606	-0.208620	0.143989
C740	C	0.965606	0.291380	0.643989
H741	H	0.434880	-0.240317	0.085698
H742	H	0.934880	0.259683	0.585698
H743	H	0.460970	-0.188432	0.075203
H744	H	0.960970	0.311568	0.575203
H745	H	0.411452	-0.195228	0.102909
H746	H	0.911452	0.304772	0.602909
H747	H	0.495428	-0.221493	0.139352
H748	H	0.995428	0.278507	0.639352
H749	H	0.445913	-0.228299	0.167058
H750	H	0.945913	0.271701	0.667058
H751	H	0.693347	0.576585	0.000047
H752	H	1.193347	1.076585	0.500047
H753	H	0.494146	0.073812	0.000057
H754	H	0.994146	0.573812	0.500057
H755	H	0.630630	-0.001820	0.865951
H756	H	1.130630	0.498180	1.365951
