data_functionalizedCrystal
_audit_creation_method	'MofGen! by Chris Wilmer'
_symmetry_space_group_name_H-M	'P1'
_symmetry_Int_Tables_number	1
_symmetry_cell_setting	triclinic
loop_
_symmetry_equiv_pos_as_xyz
  x,y,z
_cell_length_a	12.759401
_cell_length_b	12.759400
_cell_length_c	17.077396
_cell_angle_alpha	89.974414
_cell_angle_beta	89.983593
_cell_angle_gamma	90.014845
loop_
_atom_site_label
_atom_site_type_symbol
_atom_site_fract_x
_atom_site_fract_y
_atom_site_fract_z
Zn1	Zn	1.606234	-0.418262	-0.443794
Zn2	Zn	1.606135	-0.593962	-0.312534
Zn3	Zn	1.430542	-0.418298	-0.312549
Zn4	Zn	1.430524	-0.593900	-0.443765
O5	O	1.518359	-0.506106	-0.378160
O6	O	1.753242	-0.441580	-0.426388
O7	O	1.582808	-0.570702	-0.202689
O8	O	1.453897	-0.271273	-0.329977
O9	O	1.753169	-0.570666	-0.329952
O10	O	1.582977	-0.271246	-0.426402
O11	O	1.453801	-0.441642	-0.202700
O12	O	1.283519	-0.441582	-0.329949
O13	O	1.453867	-0.570560	-0.553616
O14	O	1.283506	-0.570595	-0.426353
O15	O	1.582960	-0.441519	-0.553637
O16	O	1.582791	-0.740975	-0.329924
O17	O	1.453771	-0.740929	-0.426339
C18	C	1.245391	-0.506086	-0.378150
C19	C	1.128615	-0.506103	-0.378164
C20	C	1.073773	-0.573388	-0.428278
C21	C	0.964049	-0.573401	-0.428287
C22	C	0.964018	-0.438842	-0.328060
C23	C	1.073740	-0.438824	-0.328056
C24	C	1.128649	-0.640667	-0.478387
C25	C	1.073807	-0.707958	-0.528505
C26	C	0.964083	-0.707972	-0.528513
C27	C	0.909200	-0.640694	-0.478404
C28	C	1.518296	-0.779073	-0.378144
C29	C	1.518366	-0.895850	-0.378163
C30	C	1.585621	-0.950701	-0.328016
C31	C	1.585686	-1.060425	-0.328040
C32	C	1.451231	-1.060437	-0.428362
C33	C	1.451172	-0.950715	-0.428341
C34	C	1.652815	-0.895835	-0.277838
C35	C	1.720075	-0.950687	-0.227686
C36	C	1.720139	-1.060411	-0.227710
C37	C	1.652944	-1.115283	-0.277887
C38	C	1.792392	-0.506126	-0.378172
C39	C	1.909169	-0.506134	-0.378176
C40	C	1.518422	-0.506028	-0.582905
C41	C	1.518449	-0.505995	-0.670155
C42	C	1.518450	-0.232072	-0.378194
C43	C	1.518489	-0.115296	-0.378208
C44	C	1.585671	-0.438798	-0.711157
C45	C	1.585683	-0.438763	-0.793138
C46	C	1.518479	-0.505931	-0.834114
C47	C	1.451251	-0.573131	-0.793106
C48	C	1.451234	-0.573160	-0.711127
C49	C	1.451293	-0.573068	-0.963976
C50	C	1.451311	-0.573041	-1.045961
C51	C	1.585743	-0.438671	-1.045987
C52	C	1.585725	-0.438700	-0.964008
C53	C	1.518498	-0.505902	-0.923005
C54	C	1.518356	-0.506107	-0.174213
C55	C	1.518532	-0.505844	-0.086963
H56	H	0.919434	-0.762756	-0.569327
H57	H	1.396485	-0.627868	-0.677744
O58	O	1.658197	-0.366293	-0.837359
H59	H	1.611206	-0.312810	-0.874706
O60	O	1.792567	-0.891512	-0.173582
H61	H	1.781225	-0.806000	-0.181988
H62	H	1.118500	-0.762727	-0.569307
H63	H	1.396586	-0.627733	-1.079322
O64	O	1.378755	-0.645570	-0.837299
H65	H	1.425763	-0.699023	-0.874642
H66	H	1.774913	-1.105067	-0.186880
O67	O	1.246993	-0.640663	-0.478375
H68	H	1.275951	-0.561446	-0.494338
O69	O	1.378741	-1.119614	-0.482465
H70	H	1.390070	-1.205126	-0.474046
H71	H	0.819856	-0.640701	-0.478421
H72	H	1.640399	-0.384105	-0.677800
O73	O	0.904830	-0.366310	-0.273993
H74	H	0.819320	-0.377642	-0.282404
H75	H	1.118393	-0.384027	-0.287254
H76	H	1.396533	-0.627774	-0.930594
H77	H	1.640455	-0.384012	-0.930647
O78	O	1.652747	-0.777491	-0.277818
H79	H	1.710774	-0.748552	-0.234508
H80	H	1.640480	-0.383951	-1.079375
O81	O	1.653008	-1.233630	-0.277911
H82	H	1.732256	-1.262483	-0.293826
O83	O	1.378626	-0.891542	-0.482420
H84	H	1.331898	-0.948124	-0.517305
