data_functionalizedCrystal
_audit_creation_method	'MofGen! by Chris Wilmer'
_symmetry_space_group_name_H-M	'P1'
_symmetry_Int_Tables_number	1
_symmetry_cell_setting	triclinic
loop_
_symmetry_equiv_pos_as_xyz
  x,y,z
_cell_length_a	10.540539
_cell_length_b	10.489741
_cell_length_c	9.616153
_cell_angle_alpha	89.998052
_cell_angle_beta	89.995174
_cell_angle_gamma	84.532333
loop_
_atom_site_label
_atom_site_type_symbol
_atom_site_fract_x
_atom_site_fract_y
_atom_site_fract_z
O1	O	1.685914	0.179760	-0.115579
O2	O	1.316503	0.196697	-0.115596
O3	O	1.509614	0.002629	-0.115579
O4	O	1.492802	0.373827	-0.115596
O5	O	1.509587	0.002633	0.115712
O6	O	1.316476	0.196701	0.115695
O7	O	1.685887	0.179764	0.115712
Zn8	Zn	1.501177	0.188233	0.152426
Zn9	Zn	1.501212	0.188228	-0.152310
O10	O	1.492776	0.373831	0.115695
C11	C	1.269186	0.195429	0.000047
C12	C	1.128238	0.191629	0.000041
C13	C	0.944793	0.046011	0.000588
C14	C	1.091412	0.049864	0.000052
C15	C	1.066588	0.259850	-0.132036
C16	C	0.920043	0.255011	-0.132132
C17	C	0.919525	0.257900	0.130890
C18	C	1.066507	0.259206	0.132621
C19	C	1.508331	-0.044900	0.000066
C20	C	1.504532	-0.186529	0.000063
C21	C	1.381661	-0.254654	0.000047
C22	C	1.439691	-0.346782	0.114088
C23	C	1.439746	-0.346760	-0.113947
C24	C	1.562613	-0.276791	0.114199
C25	C	1.562651	-0.276760	-0.113939
C26	C	1.620770	-0.368860	0.000130
C27	C	1.733203	0.181032	0.000066
C28	C	1.874152	0.184832	0.000063
C29	C	1.494059	0.421361	0.000047
C30	C	1.497858	0.562990	0.000041
N31	N	1.501163	0.188236	0.360401
N32	N	1.501237	0.188215	-0.360285
C33	C	1.397545	0.291701	0.580761
C34	C	1.397773	0.292088	0.419594
C35	C	1.633890	0.218515	0.418855
C36	C	1.633325	0.219248	0.580073
C37	C	1.473374	0.054153	0.580317
C38	C	1.470328	0.055022	0.419090
H39	H	0.872087	0.356966	-0.138131
H40	H	1.133162	-0.004197	-0.094786
H41	H	0.891838	0.204586	-0.230856
H42	H	0.872310	0.360296	0.131777
H43	H	1.299154	0.273870	0.380075
H44	H	1.280637	-0.204991	0.000157
H45	H	1.298618	0.273762	0.619569
H46	H	1.088954	0.363958	-0.136955
H47	H	1.109182	0.212456	-0.230326
Cl48	Cl	1.359463	-0.394592	-0.262793
H49	H	0.887962	0.212023	0.231003
H50	H	1.614607	-0.245724	-0.210353
H51	H	1.415224	0.390600	0.621256
H52	H	1.372687	0.032071	0.380886
H53	H	1.107452	0.209368	0.230331
H54	H	1.712959	0.146910	0.619068
Cl55	Cl	1.103915	0.418787	0.144924
H56	H	1.721885	-0.418297	0.000198
H57	H	1.387690	-0.377785	0.210498
H58	H	1.614546	-0.245964	0.210720
H59	H	1.712936	0.145199	0.380509
Cl60	Cl	1.425376	0.445665	0.360014
H61	H	1.657691	0.317055	0.617657
H62	H	1.658799	0.315218	0.378461
Cl63	Cl	1.327076	0.009684	0.643158
Cl64	Cl	1.579214	-0.069590	0.356911
Cl65	Cl	1.590096	-0.064769	0.639176
H66	H	0.916190	-0.009992	0.095308
Cl67	Cl	0.898158	-0.040104	-0.144821
Cl68	Cl	1.157184	-0.033017	0.146226
