data_functionalizedCrystal
_audit_creation_method	'MofGen! by Chris Wilmer'
_symmetry_space_group_name_H-M	'P1'
_symmetry_Int_Tables_number	1
_symmetry_cell_setting	triclinic
loop_
_symmetry_equiv_pos_as_xyz
  x,y,z
_cell_length_a	21.295417
_cell_length_b	21.295419
_cell_length_c	12.759393
_cell_angle_alpha	90.021637
_cell_angle_beta	90.039220
_cell_angle_gamma	90.045308
loop_
_atom_site_label
_atom_site_type_symbol
_atom_site_fract_x
_atom_site_fract_y
_atom_site_fract_z
Zn1	Zn	-0.250323	0.962338	0.594015
Zn2	Zn	-0.355607	0.962245	0.418312
Zn3	Zn	-0.250383	0.857066	0.418345
Zn4	Zn	-0.355586	0.857030	0.593944
O5	O	-0.302975	0.909670	0.506154
O6	O	-0.264273	1.050415	0.570724
O7	O	-0.341683	0.948269	0.271295
O8	O	-0.162286	0.871084	0.441692
O9	O	-0.341625	1.050347	0.441636
O10	O	-0.162242	0.948427	0.570756
O11	O	-0.264375	0.870995	0.271319
O12	O	-0.264354	0.768972	0.441622
O13	O	-0.341588	0.871023	0.740974
O14	O	-0.341646	0.768946	0.570634
O15	O	-0.264252	0.948392	0.741027
O16	O	-0.443694	0.948235	0.441566
O17	O	-0.443678	0.870934	0.570602
C18	C	-0.303005	0.746118	0.506125
C19	C	-0.303033	0.676150	0.506137
C20	C	-0.262822	0.643341	0.573457
C21	C	-0.262805	0.577599	0.573461
C22	C	-0.303011	0.544668	0.506156
C23	C	-0.343225	0.577484	0.438823
C24	C	-0.343236	0.643226	0.438813
N25	N	-0.358089	0.441392	0.497945
N26	N	-0.358077	0.378941	0.497960
C27	C	-0.302978	0.346593	0.506179
N28	N	-0.247891	0.379055	0.514403
N29	N	-0.247904	0.441513	0.514393
C30	C	-0.303002	0.473382	0.506158
C31	C	-0.262745	0.242498	0.573507
C32	C	-0.262727	0.176755	0.573504
C33	C	-0.343152	0.176642	0.438871
C34	C	-0.343165	0.242384	0.438869
C35	C	-0.302962	0.275309	0.506193
C36	C	-0.466526	0.909587	0.506096
C37	C	-0.536495	0.909610	0.506106
C38	C	-0.569349	0.949896	0.438986
C39	C	-0.635091	0.949925	0.439010
C40	C	-0.667977	0.909657	0.506142
C41	C	-0.635115	0.869368	0.573276
C42	C	-0.569374	0.869344	0.573257
N43	N	-0.771256	0.854590	0.514142
N44	N	-0.833708	0.854615	0.514153
C45	C	-0.866052	0.909728	0.506203
N46	N	-0.833585	0.964817	0.498220
N47	N	-0.771128	0.964792	0.498204
C48	C	-0.739262	0.909679	0.506170
C49	C	-0.970191	0.950050	0.439104
C50	C	-1.035935	0.950080	0.439136
C51	C	-1.035958	0.869517	0.573396
C52	C	-0.970215	0.869492	0.573370
C53	C	-0.937336	0.909758	0.506219
C54	C	-0.138784	0.909770	0.506235
C55	C	-0.068816	0.909812	0.506270
C56	C	-0.302911	0.909714	0.780188
C57	C	-0.302884	0.909732	0.896964
C58	C	-0.302945	1.073860	0.506184
C59	C	-0.302932	1.143828	0.506197
C60	C	-0.302993	0.909662	0.233187
C61	C	-0.302843	0.909765	0.116411
C62	C	-0.262622	0.869510	0.951838
C63	C	-0.262603	0.869525	1.061562
C64	C	-0.343109	0.949990	1.061529
C65	C	-0.343131	0.949971	0.951807
C66	C	-0.240094	0.795324	1.211514
C67	C	-0.199822	0.755107	1.266391
C68	C	-0.138408	0.745475	1.230815
C69	C	-0.117253	0.776069	1.140362
C70	C	-0.157521	0.816291	1.085490
C71	C	-0.218944	0.825911	1.121065
C72	C	-0.365634	1.024173	0.801854
C73	C	-0.405899	1.064398	0.746979
C74	C	-0.467314	1.074036	0.782554
C75	C	-0.488467	1.043453	0.873010
C76	C	-0.448201	1.003228	0.927884
C77	C	-0.386787	0.993589	0.892302
H78	H	-0.375912	0.269097	0.384054
O79	O	-0.934781	0.826022	0.645744
H80	H	-0.947346	0.836785	0.728225
H81	H	-0.140296	0.841203	1.011848
H82	H	-0.229851	0.836745	0.907189
H83	H	-0.500095	1.106797	0.737871
O84	O	-0.306339	0.805702	1.249882
H85	H	-0.330791	0.838801	1.196523
O86	O	-0.934726	0.993498	0.366713
H87	H	-0.883492	0.986712	0.377974
H88	H	-1.062684	0.982890	0.384480
O89	O	-0.219457	0.678849	0.646065
H90	H	-0.226222	0.730076	0.634757
H91	H	-0.661846	0.982734	0.384353
H92	H	-1.062733	0.836733	0.628061
H93	H	-0.375960	0.550668	0.384022
H94	H	-0.230005	0.269307	0.628320
H95	H	-0.067241	0.768229	1.111410
H96	H	-0.105619	0.712730	1.275504
O97	O	-0.386608	0.678618	0.366199
H98	H	-0.436024	0.665962	0.384066
O99	O	-0.219438	0.542199	0.646081
H100	H	-0.191488	0.576139	0.692897
H101	H	-0.217053	0.730198	1.340038
O102	O	-0.386511	0.993395	1.120678
H103	H	-0.379727	0.986657	1.206195
H104	H	-0.542580	0.982684	0.384310
O105	O	-0.471018	0.970239	1.025447
H106	H	-0.432700	0.940654	1.057630
O107	O	-0.670579	0.825927	0.645674
H108	H	-0.721813	0.832705	0.634400
H109	H	-0.542624	0.836538	0.627916
O110	O	-0.554710	1.053839	0.911386
H111	H	-0.579158	1.086941	0.858026
O112	O	-0.383090	1.097383	0.649409
H113	H	-0.333622	1.083916	0.633876
H114	H	-0.315631	1.016310	0.772859
H115	H	-0.229978	0.150043	0.628323
H116	H	-0.375888	0.149830	0.384070
