data_functionalizedCrystal
_audit_creation_method	'MofGen! by Chris Wilmer'
_symmetry_space_group_name_H-M	'P1'
_symmetry_Int_Tables_number	1
_symmetry_cell_setting	triclinic
loop_
_symmetry_equiv_pos_as_xyz
  x,y,z
_cell_length_a	12.837943
_cell_length_b	10.489741
_cell_length_c	11.295483
_cell_angle_alpha	94.137284
_cell_angle_beta	85.461227
_cell_angle_gamma	89.684057
loop_
_atom_site_label
_atom_site_type_symbol
_atom_site_fract_x
_atom_site_fract_y
_atom_site_fract_z
O1	O	1.384854	0.324137	-0.099003
O2	O	1.082927	0.307742	-0.099010
O3	O	1.240760	0.131100	-0.098999
O4	O	1.227021	0.500780	-0.099013
O5	O	1.226897	0.146588	0.099051
O6	O	1.069064	0.323231	0.099040
O7	O	1.370991	0.339626	0.099047
Cu8	Cu	1.218762	0.332842	0.117127
Cu9	Cu	1.235156	0.314526	-0.117090
O10	O	1.213158	0.516268	0.099036
C11	C	1.037334	0.309948	0.000014
C12	C	0.922133	0.293430	0.000012
C13	C	0.682657	0.492006	0.000021
C14	C	0.574415	0.476492	0.000020
C15	C	0.597406	0.246889	0.000016
C16	C	0.705648	0.262403	0.000017
C17	C	0.748269	0.384966	0.000018
C18	C	0.856513	0.400478	0.000011
C19	C	0.879501	0.170877	0.000016
C20	C	0.771260	0.155363	0.000014
C21	C	1.232791	0.091198	0.000025
C22	C	1.229686	-0.050774	0.000023
C23	C	1.129262	-0.129987	0.000012
C24	C	1.169867	-0.209242	0.097662
C25	C	1.183558	-0.224485	-0.097600
C26	C	1.270327	-0.128153	0.097754
C27	C	1.284011	-0.143394	-0.097596
C28	C	1.324687	-0.222613	0.000078
C29	C	1.416585	0.337420	0.000020
C30	C	1.531786	0.353937	0.000015
C31	C	1.221127	0.556170	0.000010
C32	C	1.224233	0.698141	0.000004
N33	N	1.207238	0.345726	0.281863
N34	N	1.246688	0.301633	-0.281825
C35	C	1.329641	0.208822	0.531161
C36	C	1.320940	0.218568	0.655824
C37	C	1.181131	0.374956	0.655854
C38	C	1.189832	0.365210	0.531191
C39	C	1.264090	0.282142	0.468849
C40	C	1.272796	0.272403	0.344183
C41	C	1.132982	0.428784	0.344216
C42	C	1.124281	0.438530	0.468879
H43	H	0.932936	0.083716	0.000006
O44	O	1.341412	-0.108527	-0.196205
C45	C	1.360616	-0.118195	-0.410620
C46	C	1.295511	-0.157749	-0.299033
H47	H	1.323543	-0.157996	-0.493784
H48	H	1.363031	-0.009478	-0.409275
H49	H	1.443527	-0.157904	-0.411402
H50	H	1.212570	-0.118128	-0.298179
H51	H	1.293184	-0.266471	-0.300421
H52	H	1.146833	-0.266591	-0.180163
O53	O	0.724176	0.611004	0.000175
C54	C	0.825807	0.769825	0.102811
C55	C	0.778869	0.635023	0.102771
H56	H	0.870018	0.789297	0.185763
H57	H	0.881774	0.776377	0.019985
H58	H	0.760303	0.843637	0.102749
H59	H	0.844302	0.561132	0.102875
H60	H	0.722875	0.628578	0.185590
O61	O	1.423274	-0.270638	0.000350
C62	C	1.580354	-0.275532	0.103515
C63	C	1.468717	-0.221069	0.103362
H64	H	1.617135	-0.235457	0.186778
H65	H	1.577382	-0.384183	0.102800
H66	H	1.629222	-0.247207	0.021019
H67	H	1.419785	-0.249298	0.185843
H68	H	1.471768	-0.112427	0.104014
H69	H	0.520997	0.563656	0.000025
H70	H	1.333263	0.204769	0.293425
H71	H	1.390112	0.141194	0.480400
H72	H	1.374316	0.158862	0.706555
O73	O	1.112194	-0.244295	0.196022
C74	C	0.962354	-0.358947	0.272559
C75	C	1.027596	-0.319374	0.161074
H76	H	0.893929	-0.419632	0.244344
H77	H	1.013405	-0.416687	0.327743
H78	H	0.931389	-0.269726	0.328135
H79	H	1.058572	-0.408524	0.105407
H80	H	0.976500	-0.261586	0.105979
O81	O	0.555825	0.127929	-0.000024
C82	C	0.399246	0.002296	0.000079
C83	C	0.446201	0.137087	0.000092
H84	H	0.310607	0.009656	0.000199
H85	H	0.431911	-0.057786	-0.082821
H86	H	0.420464	-0.044772	0.082946
H87	H	0.425000	0.184266	-0.082718
H88	H	0.413536	0.197076	0.083047
O89	O	1.030714	-0.081766	-0.000037
C90	C	0.872902	-0.077940	-0.101960
C91	C	0.984477	-0.132669	-0.102045
H92	H	0.835494	-0.119052	-0.184437
H93	H	0.824377	-0.104741	-0.018664
H94	H	0.876265	0.030577	-0.102752
H95	H	0.981212	-0.241190	-0.101296
H96	H	1.032957	-0.105768	-0.185334
H97	H	0.736541	0.055577	0.000027
O98	O	1.313963	-0.078227	0.196480
C99	C	1.303565	-0.055727	0.410919
C100	C	1.254059	-0.112371	0.299214
H101	H	1.255142	-0.083288	0.494007
H102	H	1.386592	-0.094712	0.411356
H103	H	1.305576	0.052844	0.410084
H104	H	1.251973	-0.220941	0.299975
H105	H	1.171060	-0.073286	0.298819
H106	H	1.063819	0.506159	0.519653
O107	O	1.108854	0.455478	0.716378
C108	C	0.926341	0.511232	0.754527
C109	C	1.008086	0.419940	0.685927
H110	H	0.844854	0.482550	0.729914
H111	H	0.931295	0.505574	0.854342
H112	H	0.942373	0.613229	0.730047
H113	H	0.992108	0.317904	0.710306
H114	H	1.003113	0.425709	0.586129
H115	H	0.891213	0.500275	0.000014
H116	H	1.079610	0.488490	0.293468
