data_functionalizedCrystal
_audit_creation_method	'MofGen! by Chris Wilmer'
_symmetry_space_group_name_H-M	'P1'
_symmetry_Int_Tables_number	1
_symmetry_cell_setting	triclinic
loop_
_symmetry_equiv_pos_as_xyz
  x,y,z
_cell_length_a	21.295418
_cell_length_b	29.839131
_cell_length_c	29.839126
_cell_angle_alpha	89.978002
_cell_angle_beta	89.954791
_cell_angle_gamma	90.057233
loop_
_atom_site_label
_atom_site_type_symbol
_atom_site_fract_x
_atom_site_fract_y
_atom_site_fract_z
Zn1	Zn	0.962317	-0.178708	-0.254239
Zn2	Zn	0.962197	-0.253825	-0.179109
Zn3	Zn	0.857038	-0.178731	-0.179096
Zn4	Zn	0.856990	-0.253832	-0.254185
O5	O	0.909635	-0.216274	-0.216657
O6	O	1.050391	-0.188660	-0.244300
O7	O	0.948217	-0.243871	-0.116240
O8	O	0.871074	-0.115861	-0.189081
O9	O	1.050302	-0.243848	-0.189103
O10	O	0.948422	-0.115844	-0.244288
O11	O	0.870957	-0.188699	-0.116230
O12	O	0.768942	-0.188706	-0.189028
O13	O	0.870992	-0.243860	-0.317059
O14	O	0.768907	-0.243882	-0.244196
O15	O	0.948376	-0.188666	-0.317099
O16	O	0.948171	-0.316693	-0.189050
O17	O	0.870875	-0.316698	-0.244208
C18	C	0.746084	-0.216298	-0.216605
C19	C	0.676116	-0.216319	-0.216594
C20	C	0.643247	-0.245087	-0.245276
C21	C	0.577505	-0.245076	-0.245297
C22	C	0.544633	-0.216301	-0.216626
C23	C	0.577510	-0.187527	-0.187941
C24	C	0.643251	-0.187536	-0.187925
N25	N	0.441357	-0.212786	-0.177333
N26	N	0.378905	-0.212780	-0.177349
C27	C	0.346558	-0.216272	-0.216674
N28	N	0.379022	-0.219779	-0.255982
N29	N	0.441480	-0.219787	-0.255964
C30	C	0.473348	-0.216288	-0.216641
C31	C	0.242404	-0.245030	-0.245381
C32	C	0.176661	-0.245016	-0.245402
C33	C	0.176667	-0.187470	-0.188042
C34	C	0.242409	-0.187482	-0.188025
C35	C	0.275274	-0.216264	-0.216694
C36	C	0.909522	-0.332997	-0.216635
C37	C	0.909531	-0.382931	-0.216640
C38	C	0.949956	-0.692559	-0.187978
C39	C	0.950034	-0.880232	-0.187996
O40	O	0.984315	-0.904484	-0.163609
N41	N	0.909766	-0.903716	-0.216691
C42	C	0.869479	-0.880279	-0.245386
O43	O	0.835235	-0.904559	-0.269797
C44	C	0.869405	-0.692607	-0.245370
C45	C	0.909671	-0.669125	-0.216670
C46	C	0.990220	-0.669078	-0.159280
C47	C	0.990197	-0.622162	-0.159275
C48	C	0.949912	-0.598728	-0.187967
C49	C	0.909648	-0.622210	-0.216664
C50	C	0.829121	-0.669170	-0.274067
C51	C	0.829107	-0.622249	-0.274062
C52	C	0.869373	-0.598768	-0.245361
C53	C	0.869341	-0.551860	-0.245350
N54	N	0.909609	-0.528376	-0.216655
C55	C	0.949894	-0.551810	-0.187963
C56	C	0.869519	-0.978809	-0.245391
C57	C	0.869537	-1.025727	-0.245395
C58	C	0.950093	-1.025677	-0.188005
C59	C	0.950072	-0.978759	-0.188000
C60	C	0.909787	-0.955325	-0.216696
C61	C	0.949844	-0.453285	-0.187953
C62	C	0.949816	-0.406365	-0.187948
C63	C	0.869263	-0.406419	-0.245339
C64	C	0.869288	-0.453334	-0.245343
C65	C	0.909583	-0.476766	-0.216648
O66	O	0.835082	-0.527579	-0.269728
O67	O	0.984143	-0.527522	-0.163563
C68	C	0.949978	-0.739475	-0.187984
C69	C	0.909715	-0.762956	-0.216682
C70	C	0.869430	-0.739522	-0.245373
C71	C	0.909733	-0.809874	-0.216685
C72	C	0.950018	-0.833308	-0.187993
C73	C	0.990286	-0.809824	-0.159298
C74	C	0.990264	-0.762909	-0.159292
C75	C	0.829162	-0.763006	-0.274069
C76	C	0.829187	-0.809921	-0.274072
C77	C	0.869472	-0.833355	-0.245380
C78	C	1.073826	-0.216251	-0.216709
C79	C	1.143794	-0.216241	-0.216731
C80	C	0.909692	-0.216261	-0.333835
C81	C	0.909716	-0.216256	-0.383770
C82	C	0.909767	-0.099096	-0.216689
C83	C	0.909823	-0.049161	-0.216703
C84	C	0.949937	-0.244924	-0.740365
C85	C	0.949938	-0.244955	-0.552692
O86	O	0.984129	-0.269400	-0.528434
N87	N	0.909713	-0.216234	-0.529215
C88	C	0.869482	-0.187505	-0.552659
O89	O	0.835264	-0.163080	-0.528384
C90	C	0.869479	-0.187477	-0.740331
C91	C	0.909710	-0.216196	-0.763806
C92	C	0.990165	-0.273641	-0.763839
C93	C	0.990167	-0.273631	-0.810755
C94	C	0.949940	-0.244904	-0.834196
C95	C	0.909712	-0.216186	-0.810721
C96	C	0.829245	-0.158751	-0.763775
C97	C	0.829247	-0.158747	-0.810696
C98	C	0.869478	-0.187466	-0.834170
C99	C	0.869488	-0.187449	-0.881078
N100	N	0.909712	-0.216170	-0.904555
C101	C	0.949939	-0.244897	-0.881114
C102	C	0.869488	-0.187522	-0.454129
C103	C	0.869490	-0.187528	-0.407211
C104	C	0.949944	-0.244979	-0.407247
C105	C	0.949945	-0.244969	-0.454165
C106	C	0.909713	-0.216243	-0.477605
C107	C	0.949940	-0.244874	-0.979640
C108	C	0.949940	-0.244861	-1.026559
C109	C	0.869483	-0.187412	-1.026519
C110	C	0.869485	-0.187424	-0.979604
C111	C	0.909715	-0.216159	-0.956165
O112	O	0.835310	-0.163020	-0.905365
O113	O	0.984142	-0.269326	-0.905397
C114	C	0.949935	-0.244933	-0.693449
C115	C	0.909707	-0.216216	-0.669975
C116	C	0.869481	-0.187488	-0.693416
C117	C	0.909709	-0.216222	-0.623057
C118	C	0.949935	-0.244950	-0.599616
C119	C	0.990159	-0.273671	-0.623093
C120	C	0.990161	-0.273661	-0.670008
C121	C	0.829256	-0.158768	-0.669939
C122	C	0.829258	-0.158779	-0.623024
C123	C	0.869484	-0.187507	-0.599583
C124	C	0.909615	-0.216254	-0.099934
C125	C	0.909713	-0.216133	-0.050000
H126	H	0.670001	-0.268524	-0.268621
N127	N	0.678698	-0.156506	-0.156983
H128	H	0.705909	-0.174736	-0.136122
H129	H	0.706003	-0.135723	-0.175302
H130	H	0.982699	-0.268369	-0.388153
N131	N	1.033550	-0.304653	-0.597805
H132	H	1.027364	-0.300351	-0.564522
H133	H	1.023788	-0.336736	-0.606048
N134	N	0.277855	-0.276070	-0.276304
H135	H	0.324490	-0.271713	-0.271938
H136	H	0.266295	-0.308142	-0.269254
N137	N	0.141220	-0.156436	-0.157116
H138	H	0.172021	-0.138214	-0.138941
H139	H	0.114008	-0.135668	-0.175448
H140	H	0.149900	-0.268442	-0.268761
H141	H	0.796498	-0.135388	-0.603915
H142	H	0.796497	-0.135375	-0.689020
N143	N	0.785687	-0.694489	-0.305021
H144	H	0.760170	-0.672518	-0.323194
H145	H	0.811303	-0.713922	-0.325838
H146	H	0.982703	-0.268270	-0.960561
H147	H	0.836724	-0.164128	-0.473209
H148	H	0.836742	-1.044842	-0.268761
N149	N	0.277866	-0.156450	-0.157092
H150	H	0.247068	-0.138217	-0.138933
H151	H	0.305082	-0.174706	-0.136260
N152	N	0.993249	-0.381039	-0.156993
H153	H	1.018775	-0.403006	-0.138820
H154	H	1.022359	-0.361536	-0.175305
N155	N	0.785651	-0.596973	-0.305008
H156	H	0.811209	-0.577472	-0.325849
H157	H	0.760155	-0.618997	-0.323158
H158	H	0.836713	-0.959733	-0.268760
N159	N	1.033637	-0.596841	-0.128325
H160	H	1.062788	-0.577341	-0.146610
H161	H	1.008025	-0.577432	-0.107483
H162	H	0.982658	-0.472357	-0.164588
N163	N	1.033675	-0.694348	-0.128332
H164	H	1.059175	-0.672347	-0.110155
H165	H	1.008073	-0.713846	-0.107518
H166	H	0.836502	-0.472454	-0.268714
H167	H	0.796483	-0.135365	-0.744670
N168	N	0.825809	-0.381139	-0.276282
H169	H	0.831910	-0.347855	-0.271921
H170	H	0.835590	-0.389313	-0.308377
N171	N	0.993331	-0.275838	-1.051881
H172	H	1.038315	-0.268856	-1.043741
H173	H	0.983464	-0.307928	-1.043694
H174	H	0.836736	-0.164137	-0.388102
N175	N	0.785849	-0.127764	-0.835978
H176	H	0.760366	-0.109574	-0.813984
H177	H	0.811492	-0.106963	-0.855462
H178	H	0.982861	-0.959643	-0.164630
N179	N	1.033698	-0.737585	-0.128339
H180	H	1.059220	-0.759556	-0.110168
H181	H	1.062811	-0.718085	-0.146651
H182	H	1.023087	-0.828912	-0.135935
H183	H	0.836733	-0.164032	-0.960490
N184	N	0.993333	-0.275952	-0.479478
H185	H	0.967729	-0.296774	-0.498922
H186	H	1.022520	-0.257660	-0.498941
H187	H	0.550741	-0.164098	-0.164598
N188	N	0.542043	-0.276105	-0.276235
H189	H	0.572838	-0.294339	-0.294394
H190	H	0.514703	-0.296863	-0.257913
H191	H	0.836733	-0.164022	-1.045613
H192	H	0.982896	-1.044765	-0.164643
H193	H	0.796392	-0.829036	-0.297443
N194	N	0.785707	-0.737734	-0.305015
H195	H	0.760203	-0.759734	-0.323191
H196	H	0.756577	-0.718307	-0.286698
H197	H	1.022925	-0.297019	-0.829864
H198	H	1.022923	-0.297037	-0.744759
N199	N	1.033554	-0.304637	-0.695324
H200	H	1.059032	-0.322836	-0.673349
H201	H	1.007910	-0.325431	-0.714771
