data_functionalizedCrystal
_audit_creation_method	'MofGen! by Chris Wilmer'
_symmetry_space_group_name_H-M	'P1'
_symmetry_Int_Tables_number	1
_symmetry_cell_setting	triclinic
loop_
_symmetry_equiv_pos_as_xyz
  x,y,z
_cell_length_a	17.038272
_cell_length_b	17.038274
_cell_length_c	15.500227
_cell_angle_alpha	86.974526
_cell_angle_beta	86.956295
_cell_angle_gamma	88.888328
loop_
_atom_site_label
_atom_site_type_symbol
_atom_site_fract_x
_atom_site_fract_y
_atom_site_fract_z
O1	O	1.052162	-0.167138	-0.071861
O2	O	1.552162	0.332862	0.428139
O3	O	0.824351	-0.164429	-0.071886
O4	O	1.324351	0.335571	0.428114
O5	O	0.936901	-0.051879	-0.071850
O6	O	1.436901	0.448121	0.428150
O7	O	0.939612	-0.279688	-0.071898
O8	O	1.439612	0.220312	0.428102
O9	O	0.930069	-0.058680	0.072036
O10	O	1.430069	0.441320	0.572036
O11	O	0.817519	-0.171230	0.072000
O12	O	1.317519	0.328770	0.572000
O13	O	1.045330	-0.173939	0.072025
O14	O	1.545330	0.326061	0.572025
Cu15	Cu	0.930801	-0.173205	0.085151
Cu16	Cu	1.430801	0.326795	0.585151
Cu17	Cu	0.938880	-0.165162	-0.085012
Cu18	Cu	1.438880	0.334838	0.414988
O19	O	0.932780	-0.286489	0.071989
O20	O	1.432780	0.213511	0.571989
C21	C	0.791643	-0.165366	0.000054
C22	C	1.291643	0.334634	0.500054
C23	C	0.704360	-0.158018	0.000046
C24	C	1.204360	0.341982	0.500046
C25	C	0.658751	-0.225481	0.000032
C26	C	1.158751	0.274519	0.500032
C27	C	0.576739	-0.218573	0.000046
C28	C	1.076739	0.281427	0.500046
C29	C	0.540336	-0.144200	0.000066
C30	C	1.040336	0.355800	0.500066
C31	C	0.585951	-0.076732	0.000082
C32	C	1.085951	0.423268	0.500082
C33	C	0.667961	-0.083642	0.000075
C34	C	1.167961	0.416358	0.500075
C35	C	0.292947	-0.119791	0.000094
C36	C	0.792947	0.380209	0.500094
C37	C	0.210930	-0.112887	0.000099
C38	C	0.710930	0.387113	0.500099
C39	C	0.201724	-0.254728	0.000064
C40	C	0.701724	0.245272	0.500064
C41	C	0.283737	-0.261630	0.000052
C42	C	0.783737	0.238370	0.500052
C43	C	0.329344	-0.194162	0.000072
C44	C	0.829344	0.305838	0.500072
C45	C	0.456507	-0.137137	0.000077
C46	C	0.956507	0.362863	0.500077
C47	C	0.413172	-0.201227	0.000067
C48	C	0.913172	0.298773	0.500067
C49	C	0.931022	-0.025987	0.000097
C50	C	1.431022	0.474013	0.500097
C51	C	0.923673	0.061296	0.000109
C52	C	1.423673	0.561296	0.500109
C53	C	1.078038	-0.173001	0.000083
C54	C	1.578038	0.326999	0.500083
C55	C	1.165322	-0.180350	0.000086
C56	C	1.665322	0.319650	0.500086
N57	N	0.925124	-0.178862	0.204834
N58	N	1.425124	0.321138	0.704834
C59	C	0.991136	0.106905	0.000125
C60	C	1.491136	0.606905	0.500125
C61	C	0.984227	0.188917	0.000128
C62	C	1.484227	0.688917	0.500128
C63	C	0.909854	0.225318	0.000122
C64	C	1.409854	0.725318	0.500122
C65	C	0.842386	0.179703	0.000104
C66	C	1.342386	0.679703	0.500104
C67	C	0.849296	0.097694	0.000095
C68	C	1.349296	0.597694	0.500095
C69	C	0.885442	0.472705	0.000145
C70	C	1.385442	0.972705	0.500145
C71	C	0.878536	0.554721	0.000157
C72	C	1.378536	1.054721	0.500157
C73	C	1.020378	0.563928	0.000179
C74	C	1.520378	1.063928	0.500179
C75	C	1.027281	0.481916	0.000174
C76	C	1.527281	0.981916	0.500174
C77	C	0.959814	0.436309	0.000152
C78	C	1.459814	0.936309	0.500152
C79	C	0.902789	0.309147	0.000128
C80	C	1.402789	0.809147	0.500128
C81	C	0.966879	0.352482	0.000140
C82	C	1.466879	0.852482	0.500140
C83	C	0.938657	0.687617	0.000077
C84	C	1.438657	1.187617	0.500077
C85	C	0.945999	0.600329	0.000172
C86	C	1.445999	1.100329	0.500172
N87	N	0.944563	-0.159500	-0.204695
N88	N	1.444563	0.340500	0.295305
C89	C	0.972834	-0.131191	0.250126
C90	C	1.472834	0.368809	0.750126
C91	C	0.968549	-0.135477	0.340697
C92	C	1.468549	0.364523	0.840697
C93	C	0.916556	-0.187439	0.385975
C94	C	1.416556	0.312561	0.885975
C95	C	0.868841	-0.235112	0.340677
C96	C	1.368841	0.264888	0.840677
C97	C	0.873123	-0.230822	0.250107
C98	C	1.373123	0.269178	0.750107
C99	C	0.901129	-0.202882	0.659437
C100	C	1.401129	0.297118	1.159437
C101	C	0.896853	-0.207171	0.750013
C102	C	1.396853	0.292829	1.250013
C103	C	0.996560	-0.107534	0.750027
C104	C	1.496560	0.392466	1.250027
C105	C	1.000841	-0.103252	0.659456
C106	C	1.500841	0.396748	1.159456
C107	C	0.953122	-0.150922	0.614165
C108	C	1.453122	0.349078	1.114165
C109	C	0.912176	-0.191823	0.478554
C110	C	1.412176	0.308177	0.978554
C111	C	0.957499	-0.146533	0.521588
C112	C	1.457499	0.353467	1.021588
H113	H	0.330071	-0.064854	0.000112
H114	H	0.830071	0.435146	0.500112
H115	H	1.015175	-0.088882	0.213267
H116	H	1.515175	0.411118	0.713267
H117	H	1.007398	-0.096659	0.377574
H118	H	1.507398	0.403341	0.877574
Cl119	Cl	0.846817	-0.257148	0.535478
Cl120	Cl	1.346817	0.242852	1.035478
H121	H	0.556305	-0.016177	0.000111
H122	H	1.056305	0.483823	0.500111
Cl123	Cl	1.066204	-0.037928	0.602535
Cl124	Cl	1.566204	0.462072	1.102535
Cl125	Cl	0.841145	-0.262812	0.602506
Cl126	Cl	1.341145	0.237188	1.102506
Cl127	Cl	0.519406	-0.303388	0.000023
Cl128	Cl	1.019406	0.196612	0.500023
H129	H	0.442814	-0.261781	0.000055
H130	H	0.942814	0.238219	0.500055
H131	H	0.705095	-0.028706	0.000085
H132	H	1.205095	0.471294	0.500085
H133	H	0.817969	0.584355	0.000166
H134	H	1.317969	1.084355	0.500166
Cl135	Cl	1.022856	-0.081209	0.464667
Cl136	Cl	1.522856	0.418791	0.964667
H137	H	1.035409	-0.068722	0.786911
H138	H	1.535409	0.431278	1.286911
H139	H	0.313370	-0.322191	0.000025
H140	H	0.813370	0.177809	0.500025
Cl141	Cl	0.800624	0.415381	0.000114
Cl142	Cl	1.300624	0.915381	0.500114
Cl143	Cl	0.803474	-0.300433	0.397595
Cl144	Cl	1.303474	0.199567	0.897595
Cl145	Cl	0.704506	-0.318982	0.000001
Cl146	Cl	1.204506	0.181018	0.500001
Cl147	Cl	1.069042	0.246250	0.000150
Cl148	Cl	1.569042	0.746250	0.500150
H149	H	0.181295	-0.052321	0.000115
H150	H	0.681295	0.447679	0.500115
Cl151	Cl	0.410737	-0.043643	0.000099
Cl152	Cl	0.910737	0.456357	0.500099
H153	H	1.087844	0.452284	0.000179
H154	H	1.587844	0.952284	0.500179
Cl155	Cl	0.813138	-0.290752	0.193169
Cl156	Cl	1.313138	0.209248	0.693169
Cl157	Cl	0.764482	0.040357	0.000072
Cl158	Cl	1.264482	0.540357	0.500072
H159	H	0.164582	-0.309656	0.000049
H160	H	0.664582	0.190344	0.500049
H161	H	0.781830	0.209348	0.000094
H162	H	1.281830	0.709348	0.500094
H163	H	0.842234	0.338794	0.000125
H164	H	1.342234	0.838794	0.500125
Cl165	Cl	1.084638	0.061151	0.000141
Cl166	Cl	1.584638	0.561151	0.500141
Cl167	Cl	1.105188	0.621267	0.000204
Cl168	Cl	1.605188	1.121267	0.500204
H169	H	0.854512	-0.249488	0.786874
H170	H	1.354512	0.250512	1.286874
Cl171	Cl	1.060374	0.306719	0.000142
Cl172	Cl	1.560374	0.806719	0.500142
