data_functionalizedCrystal
_audit_creation_method	'MofGen! by Chris Wilmer'
_symmetry_space_group_name_H-M	'P1'
_symmetry_Int_Tables_number	1
_symmetry_cell_setting	triclinic
loop_
_symmetry_equiv_pos_as_xyz
  x,y,z
_cell_length_a	11.792254
_cell_length_b	19.288867
_cell_length_c	17.766277
_cell_angle_alpha	89.992126
_cell_angle_beta	90.001893
_cell_angle_gamma	96.332167
loop_
_atom_site_label
_atom_site_type_symbol
_atom_site_fract_x
_atom_site_fract_y
_atom_site_fract_z
O1	O	-0.141592	0.922160	-0.062561
O2	O	-0.160689	0.720009	-0.062567
O3	O	0.014103	0.825986	-0.062567
O4	O	-0.316385	0.816184	-0.062560
O5	O	0.014112	0.825967	0.062621
O6	O	-0.160680	0.719990	0.062622
O7	O	-0.141583	0.922142	0.062628
Cu8	Cu	-0.151131	0.821064	0.074055
Cu9	Cu	-0.151141	0.821086	-0.073994
O10	O	-0.316376	0.816165	0.062628
C11	C	-0.160070	0.694120	0.000026
C12	C	-0.158224	0.617006	0.000024
C13	C	-0.144934	0.061375	-0.068208
C14	C	-0.146662	0.133832	-0.068211
C15	C	-0.147526	0.170055	0.000029
C16	C	-0.146633	0.133817	0.068277
C17	C	-0.144895	0.061362	0.068278
C18	C	-0.216750	0.279770	0.052311
C19	C	-0.218496	0.352223	0.052308
C20	C	-0.152884	0.393532	0.000029
C21	C	-0.085541	0.362376	-0.052258
C22	C	-0.083802	0.289921	-0.052257
C23	C	-0.149411	0.248621	0.000036
C24	C	-0.155641	0.508328	-0.068217
C25	C	-0.157362	0.580787	-0.068217
C26	C	-0.157345	0.580770	0.068273
C27	C	-0.155613	0.508313	0.068271
C28	C	-0.154767	0.472096	0.000024
C29	C	-0.358661	0.816792	0.000035
C30	C	-0.484646	0.818640	0.000037
C31	C	-0.586960	0.820141	0.000033
C32	C	-0.715318	0.822019	0.000024
C33	C	0.056389	0.825359	0.000025
C34	C	0.182374	0.823511	0.000017
C35	C	-0.142203	0.948031	0.000033
C36	C	-0.144048	1.025145	0.000031
N37	N	-0.151123	0.821054	0.178186
N38	N	-0.151141	0.821102	-0.178125
C39	C	-0.073763	0.867996	0.217573
C40	C	-0.073757	0.868000	0.296374
C41	C	-0.151132	0.821068	0.335786
C42	C	-0.228498	0.774117	0.296390
C43	C	-0.228494	0.774110	0.217590
C44	C	-0.254542	0.812360	0.460626
C45	C	-0.254548	0.812372	0.539425
C46	C	-0.151146	0.821087	0.578833
C47	C	-0.047733	0.829804	0.539432
C48	C	-0.047728	0.829797	0.460632
C49	C	-0.151145	0.821071	0.421232
C50	C	-0.073773	0.868036	0.703665
C51	C	-0.073767	0.868035	0.782469
C52	C	-0.228517	0.774156	0.782483
C53	C	-0.228514	0.774154	0.703681
C54	C	-0.151143	0.821097	0.664277
H55	H	-0.270173	0.246143	0.094891
C56	C	-0.158323	0.620641	-0.143290
N57	N	-0.159044	0.650659	-0.199836
H58	H	-0.144241	0.031891	-0.123780
H59	H	-0.010770	0.906258	0.671582
H60	H	-0.158044	0.610263	0.123835
H61	H	-0.147390	0.163335	-0.123781
H62	H	-0.010765	0.906259	0.814538
H63	H	-0.154896	0.478815	0.123838
H64	H	-0.144177	0.031864	0.123848
H65	H	-0.010759	0.906227	0.328449
H66	H	-0.291512	0.735941	0.814571
H67	H	-0.291491	0.735883	0.185520
C68	C	-0.313699	0.722564	0.660354
N69	N	-0.377890	0.683719	0.627720
C70	C	-0.292572	0.386487	0.109825
N71	N	-0.348367	0.412293	0.153150
H72	H	0.036468	0.836901	0.571516
C73	C	-0.313605	0.722490	0.339745
N74	N	-0.377707	0.683600	0.372399
C75	C	-0.368303	0.802776	0.582758
N76	N	-0.453987	0.795544	0.615395
H77	H	-0.010761	0.906218	0.185492
C78	C	-0.147616	0.173662	0.143341
N79	N	-0.148364	0.203672	0.199882
C80	C	-0.009712	0.255655	-0.109763
N81	N	0.046101	0.229845	-0.153074
C82	C	0.066024	0.839377	0.417294
N83	N	0.151704	0.846588	0.384651
H84	H	-0.032117	0.396008	-0.094830
H85	H	-0.338750	0.805251	0.428547
H86	H	-0.154949	0.478838	-0.123788
