data_functionalizedCrystal
_audit_creation_method	'MofGen! by Chris Wilmer'
_symmetry_space_group_name_H-M	'P1'
_symmetry_Int_Tables_number	1
_symmetry_cell_setting	triclinic
loop_
_symmetry_equiv_pos_as_xyz
  x,y,z
_cell_length_a	13.897448
_cell_length_b	11.169417
_cell_length_c	11.169409
_cell_angle_alpha	90.019824
_cell_angle_beta	89.964424
_cell_angle_gamma	89.981429
loop_
_atom_site_label
_atom_site_type_symbol
_atom_site_fract_x
_atom_site_fract_y
_atom_site_fract_z
Zn1	Zn	-0.383914	-1.834901	-0.678516
Zn2	Zn	-0.050581	-1.501568	-0.345182
Zn3	Zn	0.282752	-1.168234	-0.011849
Zn4	Zn	-0.545250	-1.834765	-0.477821
Zn5	Zn	-0.211917	-1.501431	-0.144488
Zn6	Zn	0.121417	-1.168098	0.188845
Zn7	Zn	-0.383973	-1.634187	-0.477850
Zn8	Zn	-0.050640	-1.300854	-0.144517
Zn9	Zn	0.282694	-0.967520	0.188817
Zn10	Zn	-0.545171	-1.634169	-0.678466
Zn11	Zn	-0.211838	-1.300835	-0.345133
Zn12	Zn	0.121495	-0.967502	-0.011799
O13	O	-0.464577	-1.734505	-0.578163
O14	O	-0.131244	-1.401172	-0.244830
O15	O	0.202090	-1.067839	0.088503
O16	O	-0.405324	-2.002833	-0.651902
O17	O	-0.071991	-1.669499	-0.318569
O18	O	0.261343	-1.336166	0.014765
O19	O	-0.523914	-1.808108	-0.309875
O20	O	-0.190580	-1.474775	0.023458
O21	O	0.142753	-1.141441	0.356791
O22	O	-0.248984	-1.660877	-0.504502
O23	O	0.084350	-1.327543	-0.171168
O24	O	0.417683	-0.994210	0.162165
O25	O	-0.523857	-2.002732	-0.504453
O26	O	-0.190523	-1.669399	-0.171119
O27	O	0.142810	-1.336066	0.162214
O28	O	-0.248940	-1.808341	-0.651930
O29	O	0.084393	-1.475007	-0.318596
O30	O	0.417726	-1.141674	0.014737
O31	O	-0.405424	-1.660745	-0.309896
O32	O	-0.072091	-1.327411	0.023437
O33	O	0.261242	-0.994078	0.356770
O34	O	-0.405348	-1.466235	-0.504454
O35	O	-0.072015	-1.132901	-0.171120
O36	O	0.261319	-0.799568	0.162213
O37	O	-0.523723	-1.660846	-0.846423
O38	O	-0.190389	-1.327512	-0.513089
O39	O	0.142944	-0.994179	-0.179756
O40	O	-0.523780	-1.466221	-0.651845
O41	O	-0.190446	-1.132888	-0.318512
O42	O	0.142887	-0.799555	0.014821
O43	O	-0.405248	-1.808323	-0.846459
O44	O	-0.071914	-1.474990	-0.513126
O45	O	0.261419	-1.141656	-0.179792
O46	O	-0.680221	-1.808090	-0.504404
O47	O	-0.346888	-1.474757	-0.171071
O48	O	-0.013554	-1.141424	0.162262
O49	O	-0.680163	-1.660713	-0.651817
O50	O	-0.346830	-1.327380	-0.318484
O51	O	-0.013497	-0.994047	0.014849
C52	C	-0.464562	-1.422681	-0.578148
C53	C	-0.131229	-1.089347	-0.244815
C54	C	0.202104	-0.756014	0.088519
C55	C	-0.464579	-1.289281	-0.578170
C56	C	-0.131246	-0.955947	-0.244836
C57	C	0.202087	-0.622614	0.088497
C58	C	-0.715191	-1.734418	-0.578129
C59	C	-0.381858	-1.401084	-0.244795
C60	C	-0.048525	-1.067751	0.088538
C61	C	-0.822405	-1.734490	-0.578154
C62	C	-0.489072	-1.401157	-0.244821
C63	C	-0.155739	-1.067823	0.088513
C64	C	-0.464470	-1.734597	-0.891206
C65	C	-0.131137	-1.401264	-0.557873
C66	C	0.202197	-1.067931	-0.224539
C67	C	-0.464424	-1.734637	-1.024606
C68	C	-0.131091	-1.401303	-0.691273
C69	C	0.202242	-1.067970	-0.357939
C70	C	-1.018700	-1.734616	-0.578229
C71	C	-0.685367	-1.401283	-0.244896
C72	C	-0.352034	-1.067949	0.088438
C73	C	-0.909468	-1.734543	-0.578191
C74	C	-0.576135	-1.401209	-0.244858
C75	C	-0.242801	-1.067876	0.088476
C76	C	-0.212984	-1.734626	-0.578224
C77	C	0.120349	-1.401293	-0.244891
C78	C	0.453683	-1.067959	0.088442
C79	C	-0.105770	-1.734677	-0.578251
C80	C	0.227563	-1.401344	-0.244917
C81	C	0.560897	-1.068011	0.088416
C82	C	-0.464592	-2.047548	-0.578180
C83	C	-0.131259	-1.714214	-0.244846
C84	C	0.202074	-1.380881	0.088487
C85	C	-0.464599	-2.180948	-0.578186
C86	C	-0.131266	-1.847614	-0.244853
C87	C	0.202068	-1.514281	0.088480
C88	C	-0.464614	-1.734483	-0.266339
C89	C	-0.131281	-1.401149	0.066995
C90	C	0.202052	-1.067816	0.400328
C91	C	-0.464388	-1.734676	-0.132939
C92	C	-0.131055	-1.401342	0.200394
C93	C	0.202279	-1.068009	0.533727
