data_functionalizedCrystal
_audit_creation_method	'MofGen! by Chris Wilmer'
_symmetry_space_group_name_H-M	'P1'
_symmetry_Int_Tables_number	1
_symmetry_cell_setting	triclinic
loop_
_symmetry_equiv_pos_as_xyz
  x,y,z
_cell_length_a	16.625546
_cell_length_b	12.759395
_cell_length_c	12.759387
_cell_angle_alpha	89.980569
_cell_angle_beta	89.964440
_cell_angle_gamma	90.022313
loop_
_atom_site_label
_atom_site_type_symbol
_atom_site_fract_x
_atom_site_fract_y
_atom_site_fract_z
Zn1	Zn	-0.320962	1.606212	-0.593940
Zn2	Zn	-0.455818	1.606079	-0.418246
Zn3	Zn	-0.321002	1.430510	-0.418280
Zn4	Zn	-0.455756	1.430479	-0.593888
O5	O	-0.388385	1.518320	-0.506089
O6	O	-0.338860	1.753215	-0.570641
O7	O	-0.437977	1.582747	-0.271229
O8	O	-0.208165	1.453886	-0.441618
O9	O	-0.437938	1.753117	-0.441559
O10	O	-0.208135	1.582974	-0.570674
O11	O	-0.338928	1.453757	-0.271255
O12	O	-0.338869	1.283485	-0.441568
O13	O	-0.437833	1.453833	-0.740916
O14	O	-0.437872	1.283462	-0.570586
O15	O	-0.338801	1.582943	-0.740954
O16	O	-0.568642	1.582716	-0.441509
O17	O	-0.568597	1.453703	-0.570553
C18	C	-0.388369	1.245352	-0.506076
C19	C	-0.388381	1.128576	-0.506095
C20	C	-0.285379	1.128658	-0.640725
C21	C	-0.233887	1.073839	-0.708048
C22	C	-0.233901	0.964117	-0.708062
C23	C	-0.285411	0.909213	-0.640742
C24	C	-0.336903	0.964032	-0.573418
C25	C	-0.336884	1.073756	-0.573415
C26	C	-0.439900	0.963949	-0.438785
C27	C	-0.439891	1.073671	-0.438775
C28	C	-0.491410	0.909045	-0.371465
C29	C	-0.542907	0.963864	-0.304145
C30	C	-0.542891	1.073593	-0.304136
C31	C	-0.491383	1.128491	-0.371452
C32	C	-0.597876	1.518220	-0.506045
C33	C	-0.687497	1.518274	-0.506061
C34	C	-1.015672	1.518457	-0.506170
C35	C	-0.924364	1.518403	-0.506143
C36	C	-0.851587	1.518365	-0.506115
C37	C	-0.760273	1.518312	-0.506089
C38	C	-0.178076	1.518448	-0.506156
C39	C	-0.088455	1.518503	-0.506184
C40	C	-0.388306	1.518399	-0.780122
C41	C	-0.388272	1.518433	-0.896899
C42	C	-0.388401	1.792353	-0.506102
C43	C	-0.388409	1.909130	-0.506108
C44	C	-0.285156	1.652885	-0.896958
C45	C	-0.233586	1.720125	-0.951849
C46	C	-0.233557	1.720151	-1.061571
C47	C	-0.285101	1.652927	-1.116404
C48	C	-0.336671	1.585686	-1.061514
C49	C	-0.336697	1.585670	-0.951790
C50	C	-0.439782	1.451230	-1.061454
C51	C	-0.439817	1.451209	-0.951733
C52	C	-0.491326	1.384006	-1.116288
C53	C	-0.542902	1.316769	-1.061398
C54	C	-0.542929	1.316747	-0.951669
C55	C	-0.491386	1.383968	-0.896842
C56	C	-0.388405	1.518301	-0.233121
C57	C	-0.388212	1.518471	-0.116345
H58	H	-0.285358	1.217999	-0.640717
H59	H	-0.491408	1.383961	-0.807501
H60	H	-0.191947	1.118554	-0.762857
Br61	Br	-0.285051	1.652950	-1.265313
H62	H	-0.191559	1.774898	-1.106262
H63	H	-0.491361	1.217832	-0.371446
Br64	Br	-0.612840	1.225537	-1.135818
Br65	Br	-0.612915	1.225478	-0.877184
Br66	Br	-0.164012	0.889715	-0.799419
H67	H	-0.491296	1.384028	-1.205629
H68	H	-0.285412	0.819871	-0.640750
H69	H	-0.491416	0.819704	-0.371477
H70	H	-0.584838	0.919152	-0.249334
H71	H	-0.285183	1.652881	-0.807617
Br72	Br	-0.612771	1.147981	-0.212756
H73	H	-0.191619	1.774856	-0.907191
