data_functionalizedCrystal
_audit_creation_method	'MofGen! by Chris Wilmer'
_symmetry_space_group_name_H-M	'P1'
_symmetry_Int_Tables_number	1
_symmetry_cell_setting	triclinic
loop_
_symmetry_equiv_pos_as_xyz
  x,y,z
_cell_length_a	12.759395
_cell_length_b	18.050589
_cell_length_c	12.759387
_cell_angle_alpha	89.970341
_cell_angle_beta	89.980929
_cell_angle_gamma	90.029758
loop_
_atom_site_label
_atom_site_type_symbol
_atom_site_fract_x
_atom_site_fract_y
_atom_site_fract_z
Zn1	Zn	1.606155	-0.295592	-0.594011
Zn2	Zn	2.106155	0.204408	-0.094011
Zn3	Zn	1.606009	-0.419800	-0.418334
Zn4	Zn	2.106009	0.080200	0.081666
Zn5	Zn	1.430458	-0.295632	-0.418348
Zn6	Zn	1.930458	0.204368	0.081652
Zn7	Zn	1.430404	-0.419748	-0.593973
Zn8	Zn	1.930404	0.080252	-0.093973
O9	O	1.518256	-0.357693	-0.506166
O10	O	2.018256	0.142307	-0.006166
O11	O	1.753157	-0.312074	-0.570717
O12	O	2.253157	0.187926	-0.070717
O13	O	1.582683	-0.403368	-0.271315
O14	O	2.082683	0.096632	0.228685
O15	O	1.453848	-0.191702	-0.441672
O16	O	1.953848	0.308298	0.058328
O17	O	1.753049	-0.403329	-0.441648
O18	O	2.253049	0.096671	0.058352
O19	O	1.582932	-0.191673	-0.570731
O20	O	2.082932	0.308327	-0.070731
O21	O	1.453706	-0.312142	-0.271325
O22	O	1.953706	0.187858	0.228675
O23	O	1.283430	-0.312091	-0.441635
O24	O	1.783430	0.187909	0.058365
O25	O	1.453757	-0.403240	-0.740999
O26	O	1.953757	0.096760	-0.240999
O27	O	1.283390	-0.403279	-0.570666
O28	O	1.783390	0.096721	-0.070666
O29	O	1.582880	-0.312023	-0.741027
O30	O	2.082880	0.187977	-0.241027
O31	O	1.582631	-0.523718	-0.441611
O32	O	2.082631	-0.023718	0.058389
O33	O	1.453615	-0.523680	-0.570652
O34	O	1.953615	-0.023680	-0.070652
C35	C	1.245289	-0.357684	-0.506148
C36	C	1.745289	0.142316	-0.006148
C37	C	1.128512	-0.357698	-0.506166
C38	C	1.628512	0.142302	-0.006166
C39	C	1.128510	-0.452806	-0.640308
C40	C	1.628510	0.047194	-0.140308
C41	C	1.073648	-0.500365	-0.707383
C42	C	1.573648	-0.000365	-0.207383
C43	C	0.963926	-0.500374	-0.707395
C44	C	1.463926	-0.000374	-0.207395
C45	C	0.909064	-0.452817	-0.640329
C46	C	1.409064	0.047183	-0.140329
C47	C	0.963926	-0.405257	-0.573255
C48	C	1.463926	0.094743	-0.073255
C49	C	1.073650	-0.405255	-0.573247
C50	C	1.573650	0.094745	-0.073247
C51	C	0.963928	-0.310147	-0.439119
C52	C	1.463928	0.189853	0.060881
C53	C	1.073650	-0.310141	-0.439099
C54	C	1.573650	0.189859	0.060901
C55	C	0.909066	-0.262590	-0.372052
C56	C	1.409066	0.237410	0.127948
C57	C	0.963928	-0.215033	-0.304971
C58	C	1.463928	0.284967	0.195029
C59	C	1.073657	-0.215027	-0.304960
C60	C	1.573657	0.284973	0.195040
C61	C	1.128512	-0.262582	-0.372025
C62	C	1.628512	0.237418	0.127975
C63	C	1.518130	-0.550645	-0.506149
C64	C	2.018130	-0.050645	-0.006149
C65	C	1.518171	-0.633191	-0.506177
C66	C	2.018171	-0.133191	-0.006177
C67	C	1.448082	-0.832648	-0.576325
C68	C	1.948082	-0.332648	-0.076325
C69	C	1.422468	-0.882096	-0.480456
C70	C	1.922468	-0.382096	0.019544
C71	C	1.518275	-0.784321	-0.506190
C72	C	2.018275	-0.284321	-0.006190
C73	C	1.543940	-0.881955	-0.602070
C74	C	2.043940	-0.381955	-0.102070
C75	C	1.518372	-0.930307	-0.506212
C76	C	2.018372	-0.430307	-0.006212
C77	C	1.492610	-0.832682	-0.410271
C78	C	1.992610	-0.332682	0.089729
C79	C	1.614127	-0.832537	-0.531950
C80	C	2.114127	-0.332537	-0.031950
C81	C	1.588550	-0.881963	-0.436015
C82	C	2.088550	-0.381963	0.063985
C83	C	1.518216	-0.700223	-0.506179
C84	C	2.018216	-0.200223	-0.006179
C85	C	1.518432	-1.014403	-0.506212
C86	C	2.018432	-0.514403	-0.006212
C87	C	1.792290	-0.357703	-0.506185
C88	C	2.292290	0.142297	-0.006185
C89	C	1.909066	-0.357707	-0.506193
C90	C	2.409066	0.142293	-0.006193
C91	C	1.518329	-0.357622	-0.780200
C92	C	2.018329	0.142378	-0.280200
C93	C	1.518360	-0.357591	-0.896977
C94	C	2.018360	0.142409	-0.396977
C95	C	1.518412	-0.163988	-0.506207
C96	C	2.018412	0.336012	-0.006207
C97	C	1.518479	-0.081442	-0.506224
C98	C	2.018479	0.418558	-0.006224
C99	C	1.652883	-0.262555	-1.116449
C100	C	2.152883	0.237445	-0.616449
C101	C	1.720097	-0.215077	-1.061602
C102	C	2.220097	0.284923	-0.561602
C103	C	1.720068	-0.215101	-0.951880
C104	C	2.220068	0.284899	-0.451880
C105	C	1.652818	-0.262611	-0.897003
C106	C	2.152818	0.237389	-0.397003
C107	C	1.585604	-0.310088	-0.951851
C108	C	2.085604	0.189912	-0.451851
C109	C	1.585639	-0.310057	-1.061575
C110	C	2.085639	0.189943	-0.561575
C111	C	1.451145	-0.405069	-0.951824
C112	C	1.951145	0.094931	-0.451824
C113	C	1.451168	-0.405042	-1.061546
C114	C	1.951168	0.094958	-0.561546
C115	C	1.383896	-0.452578	-0.896948
C116	C	1.883896	0.047422	-0.396948
C117	C	1.316675	-0.500053	-0.951795
C118	C	1.816675	-0.000053	-0.451795
C119	C	1.316707	-0.500026	-1.061524
C120	C	1.816707	-0.000026	-0.561524
C121	C	1.383954	-0.452520	-1.116394
C122	C	1.883954	0.047480	-0.616394
C123	C	1.518245	-0.357711	-0.233199
C124	C	2.018245	0.142289	0.266801
C125	C	1.518417	-0.357532	-0.116423
C126	C	2.018417	0.142468	0.383577
H127	H	0.919258	-0.539097	-0.762019
H128	H	1.419258	-0.039097	-0.262019
F129	F	1.245288	-0.262582	-0.372014
F130	F	1.745288	0.237418	0.127986
F131	F	1.316572	-0.910547	-0.451980
F132	F	1.816572	-0.410547	0.048020
F133	F	1.383871	-0.452607	-0.780172
F134	F	1.883871	0.047393	-0.280172
H135	H	1.565609	-0.903599	-0.683146
H136	H	2.065609	-0.403599	-0.183146
H137	H	1.261931	-0.538735	-0.907106
H138	H	1.761931	-0.038735	-0.407106
F139	F	1.791609	-0.164574	-0.893506
F140	F	2.291609	0.335426	-0.393506
H141	H	0.819723	-0.452822	-0.640355
H142	H	1.319723	0.047178	-0.140355
F143	F	1.464168	-0.804512	-0.304268
F144	F	1.964168	-0.304512	0.195732
F145	F	1.245286	-0.452809	-0.640287
F146	F	1.745286	0.047191	-0.140287
F147	F	0.792291	-0.262597	-0.372074
F148	F	1.292291	0.237403	0.127926
F149	F	0.905535	-0.164421	-0.233609
F150	F	1.405535	0.335579	0.266391
F151	F	1.132043	-0.550980	-0.778751
F152	F	1.632043	-0.050980	-0.278751
F153	F	1.652904	-0.262513	-1.233225
F154	F	2.152904	0.237487	-0.733225
H155	H	1.261976	-0.538691	-1.106174
H156	H	1.761976	-0.038691	-0.606174
F157	F	1.652802	-0.262643	-0.780228
F158	F	2.152802	0.237357	-0.280228
H159	H	1.383979	-0.452488	-1.205735
H160	H	1.883979	0.047512	-0.705735
H161	H	1.118319	-0.176293	-0.250347
H162	H	1.618319	0.323707	0.249653
H163	H	1.647952	-0.903480	-0.376645
H164	H	2.147952	-0.403480	0.123355
H165	H	1.695123	-0.810754	-0.553763
H166	H	2.195123	-0.310754	-0.053763
H167	H	1.388634	-0.810994	-0.635551
H168	H	1.888634	-0.310994	-0.135551
F169	F	1.791669	-0.164519	-1.120012
F170	F	2.291669	0.335481	-0.620012
