data_functionalizedCrystal
_audit_creation_method	'MofGen! by Chris Wilmer'
_symmetry_space_group_name_H-M	'P1'
_symmetry_Int_Tables_number	1
_symmetry_cell_setting	triclinic
loop_
_symmetry_equiv_pos_as_xyz
  x,y,z
_cell_length_a	11.792254
_cell_length_b	14.472311
_cell_length_c	11.792241
_cell_angle_alpha	90.003432
_cell_angle_beta	95.803993
_cell_angle_gamma	90.006047
loop_
_atom_site_label
_atom_site_type_symbol
_atom_site_fract_x
_atom_site_fract_y
_atom_site_fract_z
O1	O	1.506904	0.076841	-0.155622
O2	O	1.176565	0.076843	-0.171640
O3	O	1.349751	0.076835	0.001539
O4	O	1.333718	0.076848	-0.328801
O5	O	1.349728	-0.076847	0.001516
O6	O	1.176542	-0.076839	-0.171663
O7	O	1.506881	-0.076841	-0.155645
Cu8	Cu	1.341709	-0.090873	-0.163656
Cu9	Cu	1.341737	0.090874	-0.163629
O10	O	1.333695	-0.076834	-0.328824
C11	C	1.134263	0.000002	-0.170642
C12	C	1.008250	0.000002	-0.167622
C13	C	0.905913	0.000006	-0.165168
C14	C	0.777527	0.000007	-0.162100
N15	N	1.341698	-0.218704	-0.163674
C16	C	1.341718	-0.407204	-0.163649
C17	C	1.249034	-0.446430	-0.256280
C18	C	1.248713	-0.553518	-0.256024
C19	C	1.341737	-0.592795	-0.163627
C20	C	1.315625	-0.553909	-0.044897
C21	C	1.314948	-0.446788	-0.045453
C22	C	1.460794	-0.446662	-0.188681
C23	C	1.460024	-0.553791	-0.191353
C24	C	1.341750	-0.697683	-0.163607
C25	C	1.341702	-0.302316	-0.163662
C26	C	1.549183	0.000001	-0.156643
C27	C	1.675196	0.000007	-0.159663
C28	C	1.348732	-0.000006	0.043819
C29	C	1.345718	-0.000005	0.169832
N30	N	1.341757	0.218705	-0.163602
C31	C	1.334714	0.000009	-0.371104
C32	C	1.337728	0.000014	-0.497118
C33	C	1.340175	0.000011	0.400545
C34	C	1.343255	0.000002	0.272160
H35	H	1.264303	-0.579811	-0.344241
H36	H	1.264366	-0.420678	-0.344796
H37	H	1.161174	-0.419530	-0.240386
H38	H	1.228099	-0.421820	-0.023578
H39	H	1.229779	-0.580761	-0.022506
H40	H	1.160363	-0.579163	-0.239899
H41	H	1.379874	-0.420837	0.025610
H42	H	1.381334	-0.579347	0.025749
F43	F	1.550952	-0.413497	-0.100409
F44	F	1.493499	-0.411355	-0.299518
H45	H	1.479822	-0.579192	-0.278711
H46	H	1.532256	-0.580526	-0.128346
