data_functionalizedCrystal
_audit_creation_method	'MofGen! by Chris Wilmer'
_symmetry_space_group_name_H-M	'P1'
_symmetry_Int_Tables_number	1
_symmetry_cell_setting	triclinic
loop_
_symmetry_equiv_pos_as_xyz
  x,y,z
_cell_length_a	19.121241
_cell_length_b	19.121063
_cell_length_c	12.827885
_cell_angle_alpha	92.403967
_cell_angle_beta	87.535413
_cell_angle_gamma	95.003121
loop_
_atom_site_label
_atom_site_type_symbol
_atom_site_fract_x
_atom_site_fract_y
_atom_site_fract_z
Zn1	Zn	1.063763	-0.234288	-0.673361
Zn2	Zn	1.058646	-0.351972	-0.505743
Zn3	Zn	0.946090	-0.239332	-0.491467
Zn4	Zn	0.941038	-0.356927	-0.673273
O5	O	1.002384	-0.295630	-0.585961
O6	O	1.161550	-0.245714	-0.657138
O7	O	1.043688	-0.337068	-0.357613
O8	O	0.965955	-0.140198	-0.509658
O9	O	1.157791	-0.332176	-0.533989
O10	O	1.052409	-0.136492	-0.643295
O11	O	0.960993	-0.254311	-0.347125
O12	O	0.846954	-0.259116	-0.509572
O13	O	0.957345	-0.340622	-0.819520
O14	O	0.843242	-0.345513	-0.643144
O15	O	1.047510	-0.250519	-0.819585
O16	O	1.038790	-0.451095	-0.533903
O17	O	0.952384	-0.454736	-0.656987
C18	C	0.819567	-0.303400	-0.574800
C19	C	0.741356	-0.306741	-0.570051
C20	C	0.706567	-0.263366	-0.632043
C21	C	0.633080	-0.266502	-0.627572
C22	C	0.594383	-0.313017	-0.561113
C23	C	0.629177	-0.356394	-0.499114
C24	C	0.702663	-0.353254	-0.503580
C25	C	0.372405	-0.324743	-0.544409
C26	C	0.298914	-0.327881	-0.539949
C27	C	0.302823	-0.237988	-0.668406
C28	C	0.376310	-0.234855	-0.672871
C29	C	0.411097	-0.278229	-0.610868
C30	C	0.519267	-0.316225	-0.556543
C31	C	0.486212	-0.275017	-0.615433
C32	C	0.994502	-0.478445	-0.597008
C33	C	0.991195	-0.556652	-0.601773
C34	C	1.034663	-0.591473	-0.539987
C35	C	1.031556	-0.664957	-0.544475
C36	C	0.984978	-0.703617	-0.610745
C37	C	0.941508	-0.668791	-0.672538
C38	C	0.944618	-0.595309	-0.668055
C39	C	0.973337	-0.925582	-0.627489
C40	C	0.970228	-0.999069	-0.631965
C41	C	1.060278	-0.995229	-0.503902
C42	C	1.063381	-0.921746	-0.499420
C43	C	1.019914	-0.886926	-0.561218
C44	C	0.981800	-0.778729	-0.615331
C45	C	1.023096	-0.811815	-0.556636
C46	C	1.185915	-0.287830	-0.597166
C47	C	1.264125	-0.284506	-0.601941
C48	C	1.002435	-0.295560	-0.858530
C49	C	1.002457	-0.295531	-0.974683
C50	C	1.010316	-0.112100	-0.574894
C51	C	1.013696	-0.033890	-0.570178
C52	C	1.047078	-0.250936	-1.026500
C53	C	1.047102	-0.250905	-1.146549
C54	C	1.002376	-0.295647	-0.314451
C55	C	1.002499	-0.295472	-0.198296
H56	H	0.267408	-0.365763	-0.485830
H57	H	0.597664	-0.394264	-0.444996
H58	H	0.400720	-0.360062	-0.493922
H59	H	1.066952	-0.693305	-0.494160
C60	C	0.740477	-0.400231	-0.436142
C61	C	0.784346	-0.358535	-0.369391
C62	C	0.819183	-0.401785	-0.307237
H63	H	0.767894	-0.429708	-0.479521
H64	H	0.706929	-0.428371	-0.395863
H65	H	0.817890	-0.330407	-0.409667
H66	H	0.756946	-0.329060	-0.325990
H67	H	0.785635	-0.429925	-0.266958
H68	H	0.846596	-0.431259	-0.350625
H69	H	0.848947	-0.373500	-0.261933
C70	C	1.097886	-0.200024	-0.967011
C71	C	1.059944	-0.156685	-0.899176
C72	C	1.106727	-0.109783	-0.844351
H73	H	1.125905	-0.171974	-1.014963
H74	H	1.127333	-0.225661	-0.927865
H75	H	1.030509	-0.131051	-0.938319
H76	H	1.031927	-0.184716	-0.851204
H77	H	1.136174	-0.135419	-0.805205
H78	H	1.134744	-0.081738	-0.892310
H79	H	1.080991	-0.080376	-0.798312
H80	H	0.517722	-0.237142	-0.669539
C81	C	0.477208	-0.366819	-0.484573
C82	C	0.433107	-0.413771	-0.543811
C83	C	0.394357	-0.460392	-0.477549
H84	H	0.449626	-0.341175	-0.435716
H85	H	0.508423	-0.392251	-0.448310
H86	H	0.401896	-0.388342	-0.580057
H87	H	0.460671	-0.439432	-0.592665
H88	H	0.425572	-0.485824	-0.441285
H89	H	0.366779	-0.434742	-0.428695
H90	H	0.364435	-0.492259	-0.517732
C91	C	1.085305	-0.549626	-0.468004
C92	C	1.122720	-0.595852	-0.414876
C93	C	1.169387	-0.557330	-0.348567
H94	H	1.059695	-0.522147	-0.418962
H95	H	1.117202	-0.519622	-0.508114
H96	H	1.090827	-0.625844	-0.374769
H97	H	1.148345	-0.623332	-0.463891
H98	H	1.201284	-0.527326	-0.388677
H99	H	1.143771	-0.529853	-0.299532
H100	H	1.194783	-0.588688	-0.312519
H101	H	0.943874	-0.810215	-0.669286
H102	H	1.095667	-1.023588	-0.453592
H103	H	0.903585	-0.700274	-0.726502
H104	H	1.101309	-0.890270	-0.445458
C105	C	0.919638	-1.040919	-0.704033
C106	C	0.882251	-0.994698	-0.757218
C107	C	0.835651	-1.033225	-0.823622
H108	H	0.887714	-1.070941	-0.664019
H109	H	0.945317	-1.068379	-0.753033
H110	H	0.856573	-0.967251	-0.708225
H111	H	0.914157	-0.964675	-0.797253
H112	H	0.861331	-1.060684	-0.872621
H113	H	0.803732	-1.063245	-0.783599
H114	H	0.810284	-1.001869	-0.859723
C115	C	0.926255	-0.887745	-0.694709
C116	C	0.967853	-0.843811	-0.761620
C117	C	0.924503	-0.808951	-0.823570
H118	H	0.896810	-0.860374	-0.651201
H119	H	0.898083	-0.921277	-0.734871
H120	H	0.996013	-0.810283	-0.721462
H121	H	0.997298	-0.871164	-0.805151
H122	H	0.896330	-0.842483	-0.863732
H123	H	0.895059	-0.781584	-0.780054
H124	H	0.952720	-0.779142	-0.868983
C125	C	0.897344	-0.557630	-0.735186
C126	C	0.855874	-0.607214	-0.794164
C127	C	0.812314	-0.572531	-0.856015
H128	H	0.925386	-0.527776	-0.780727
H129	H	0.867872	-0.530330	-0.691585
H130	H	0.885343	-0.634502	-0.837761
H131	H	0.827818	-0.637070	-0.748650
H132	H	0.782841	-0.545231	-0.812414
H133	H	0.840361	-0.542678	-0.901549
H134	H	0.784167	-0.606168	-0.896032
H135	H	1.061023	-0.780336	-0.502683
C136	C	1.097963	-0.200022	-1.206142
C137	C	1.087857	-0.210089	-1.313364
C138	C	1.134692	-0.163219	-1.368293
H139	H	1.144835	-0.208254	-1.191939
H140	H	1.089707	-0.153162	-1.184884
H141	H	1.096119	-0.256938	-1.334614
H142	H	1.040995	-0.201851	-1.327598
H143	H	1.126436	-0.116359	-1.347035
H144	H	1.181561	-0.171456	-1.354082
H145	H	1.127837	-0.170039	-1.441048
C146	C	0.418199	-0.184273	-0.745044
C147	C	0.372003	-0.146941	-0.798356
C148	C	0.410566	-0.100332	-0.864840
H149	H	0.445729	-0.209917	-0.793973
H150	H	0.448157	-0.152324	-0.705042
H151	H	0.342057	-0.178886	-0.838355
H152	H	0.344472	-0.121283	-0.749454
H153	H	0.440524	-0.068383	-0.824838
H154	H	0.438095	-0.125982	-0.913762
H155	H	0.379229	-0.074992	-0.901012
H156	H	0.964298	-0.333656	-1.153742
C157	C	0.951653	-0.346495	-1.034091
C158	C	0.989600	-0.389856	-1.101884
C159	C	0.942823	-0.436822	-1.156614
H160	H	0.922173	-0.320929	-1.073266
H161	H	0.923667	-0.374518	-0.986049
H162	H	1.017574	-0.361836	-1.149921
H163	H	1.019077	-0.415438	-1.062737
H164	H	0.914837	-0.464845	-1.108572
H165	H	0.913345	-0.411249	-1.195782
H166	H	0.968563	-0.466252	-1.202611
H167	H	0.604759	-0.231183	-0.678055
C168	C	0.748611	-0.212979	-0.704339
C169	C	0.789089	-0.251071	-0.776218
C170	C	0.827820	-0.204676	-0.842841
H171	H	0.778644	-0.181049	-0.664451
H172	H	0.717387	-0.187606	-0.740681
H173	H	0.820310	-0.276432	-0.739879
H174	H	0.759074	-0.282999	-0.816130
H175	H	0.796596	-0.179303	-0.879183
H176	H	0.857849	-0.172748	-0.802943
H177	H	0.855284	-0.230515	-0.891624
H178	H	0.274491	-0.202674	-0.718884
