data_functionalizedCrystal
_audit_creation_method	'MofGen! by Chris Wilmer'
_symmetry_space_group_name_H-M	'P1'
_symmetry_Int_Tables_number	1
_symmetry_cell_setting	triclinic
loop_
_symmetry_equiv_pos_as_xyz
  x,y,z
_cell_length_a	15.944551
_cell_length_b	15.944551
_cell_length_c	15.021413
_cell_angle_alpha	90.003065
_cell_angle_beta	89.997174
_cell_angle_gamma	83.498738
loop_
_atom_site_label
_atom_site_type_symbol
_atom_site_fract_x
_atom_site_fract_y
_atom_site_fract_z
O1	O	-1.114529	-0.108321	0.073941
O2	O	-0.869979	-0.121677	0.073964
O3	O	-0.998932	0.007276	0.073944
O4	O	-0.985576	-0.237274	0.073961
O5	O	-0.998912	0.007257	-0.074121
O6	O	-0.869959	-0.121695	-0.074101
O7	O	-1.114508	-0.108339	-0.074123
Zn8	Zn	-0.992230	-0.115020	-0.097620
Zn9	Zn	-0.992257	-0.114996	0.097461
O10	O	-0.985555	-0.237292	-0.074103
C11	C	-0.838675	-0.121132	-0.000066
C12	C	-0.745429	-0.119470	-0.000057
C13	C	-1.145813	-0.108885	-0.000092
C14	C	-1.239059	-0.110547	-0.000094
C15	C	-0.998367	0.038561	-0.000089
C16	C	-0.996705	0.131807	-0.000089
N17	N	-0.992218	-0.115036	-0.230758
C18	C	-0.530572	-0.035565	-0.000081
C19	C	-0.469562	-0.074518	0.072926
C20	C	-0.574703	-0.116462	-0.000068
C21	C	-0.469564	-0.074556	-0.073054
C22	C	-0.409790	-0.113551	-0.000083
C23	C	-0.514921	-0.155438	0.072998
C24	C	-0.514930	-0.155464	-0.073047
C25	C	-0.453937	-0.194476	-0.000023
C26	C	-0.669705	-0.118137	-0.000059
C27	C	-0.314789	-0.111883	-0.000085
C28	C	-0.986120	-0.268577	-0.000069
C29	C	-0.987782	-0.361823	-0.000063
C30	C	-0.912801	0.346663	-0.000069
C31	C	-0.951753	0.407672	-0.073077
C32	C	-0.993698	0.302533	-0.000082
C33	C	-0.951792	0.407673	0.072903
C34	C	-0.990787	0.467445	-0.000071
C35	C	-1.032672	0.362313	-0.073150
C36	C	-1.032700	0.362308	0.072895
C37	C	-1.071711	0.423298	-0.000131
C38	C	-0.995372	0.207530	-0.000089
C39	C	-0.989119	0.562446	-0.000070
C40	C	-0.932581	-0.174636	-0.470432
C41	C	-1.008481	-0.190943	-0.529772
C42	C	-0.992239	-0.115015	-0.412365
C43	C	-0.916360	-0.098727	-0.529766
C44	C	-0.992253	-0.114997	-0.587789
C45	C	-1.068178	-0.131360	-0.470398
C46	C	-0.976006	-0.039111	-0.470387
C47	C	-1.051962	-0.055386	-0.529701
C48	C	-0.992230	-0.115028	-0.311307
C49	C	-0.992271	-0.114984	-0.688844
N50	N	-0.992276	-0.114973	0.230598
H51	H	-0.563905	0.031573	0.000005
H52	H	-0.917574	0.427758	0.134630
H53	H	-0.534918	-0.189621	0.134787
N54	N	-0.908833	0.432911	-0.150498
N55	N	-0.946809	0.482717	-0.205149
H56	H	-0.916493	0.500541	-0.259825
H57	H	-1.066851	0.342314	-0.134941
H58	H	-0.852184	-0.084959	-0.555847
N59	N	-1.075595	0.337070	0.150327
N60	N	-1.048033	0.351355	0.226077
H61	H	-1.078321	0.333530	0.280771
H62	H	-1.022224	-0.255126	-0.555856
H63	H	-0.882181	-0.225096	-0.444409
H64	H	-1.132368	-0.145206	-0.444430
H65	H	-1.102474	-0.004956	-0.555561
H66	H	-0.962240	0.025051	-0.444283
H67	H	-0.449461	-0.040295	0.134642
N68	N	-1.156012	0.464919	-0.000178
N69	N	-1.180849	0.512999	0.062511
H70	H	-1.240385	0.542397	0.062476
N71	N	-0.412346	-0.278788	0.000039
N72	N	-0.424064	-0.327622	0.062780
H73	H	-0.394690	-0.387167	0.062828
N74	N	-0.540168	-0.198372	-0.150470
N75	N	-0.486127	-0.227185	-0.206116
H76	H	-0.503952	-0.257485	-0.260802
N77	N	-0.444357	-0.031615	-0.150474
N78	N	-0.472129	0.043879	-0.163466
H79	H	-0.454329	0.074212	-0.218140
H80	H	-0.845652	0.313356	-0.000136
