data_functionalizedCrystal
_audit_creation_method	'MofGen! by Chris Wilmer'
_symmetry_space_group_name_H-M	'P1'
_symmetry_Int_Tables_number	1
_symmetry_cell_setting	triclinic
loop_
_symmetry_equiv_pos_as_xyz
  x,y,z
_cell_length_a	6.817900
_cell_length_b	16.305597
_cell_length_c	16.255661
_cell_angle_alpha	95.356929
_cell_angle_beta	103.488922
_cell_angle_gamma	103.455834
loop_
_atom_site_label
_atom_site_type_symbol
_atom_site_fract_x
_atom_site_fract_y
_atom_site_fract_z
V1	V	-4.026545	-0.117398	-0.264163
O2	O	-4.014197	0.004940	-0.258836
O3	O	-3.977933	-0.232107	-0.262643
O4	O	-3.978109	-0.115900	-0.379243
O5	O	-4.014020	-0.112071	-0.141430
V6	V	-4.510205	-0.102729	-0.249448
O7	O	-4.287502	-0.149577	-0.296441
O8	O	-4.699444	-0.070550	-0.217170
O9	O	-4.335610	0.011980	-0.250968
O10	O	-4.639949	-0.225068	-0.254775
O11	O	-4.640126	-0.108056	-0.372182
O12	O	-4.335434	-0.104227	-0.134369
C13	C	-3.822883	-0.260061	-0.258550
C14	C	-3.864424	-0.353838	-0.258075
C15	C	-4.015549	-0.694592	-0.256389
C16	C	-3.779824	-0.653750	-0.251767
C17	C	-3.736286	-0.556151	-0.251926
C18	C	-3.940573	-0.525540	-0.257226
C19	C	-4.023440	-0.550705	-0.178369
C20	C	-4.065244	-0.648235	-0.177786
C21	C	-4.153687	-0.673986	-0.339640
C22	C	-4.106858	-0.576477	-0.341100
C23	C	-3.898210	-0.429999	-0.257696
C24	C	-4.057916	-0.790133	-0.255912
C25	C	-3.823107	-0.111827	-0.407283
C26	C	-3.864787	-0.111361	-0.501363
C27	C	-3.775352	-0.105795	-0.724168
C28	C	-3.931665	-0.177622	-0.793822
C29	C	-3.941173	-0.110487	-0.673609
C30	C	-3.859151	-0.037838	-0.771590
C31	C	-4.014942	-0.109639	-0.839991
C32	C	-4.096968	-0.182378	-0.742034
C33	C	-4.024392	-0.042531	-0.719786
C34	C	-4.180842	-0.114378	-0.789421
C35	C	-3.898671	-0.110976	-0.577761
C36	C	-4.057461	-0.109157	-0.935838
C37	C	-4.154001	0.039929	-0.255059
C38	C	-4.091699	0.133706	-0.255539
C39	C	-4.153778	-0.108304	-0.106324
C40	C	-4.091336	-0.108765	-0.012243
H41	H	-3.670123	-0.539380	-0.308275
Cl42	Cl	-3.617521	-0.674349	-0.159067
Cl43	Cl	-3.841139	-0.495478	-0.082506
Cl44	Cl	-3.709131	-0.701035	-0.338410
H45	H	-4.352709	-0.118026	-0.817777
H46	H	-3.966179	-0.659573	-0.115151
H47	H	-3.603603	-0.102260	-0.695679
H48	H	-4.259215	-0.556666	-0.349865
Cl49	Cl	-3.871837	-0.265801	-0.843583
H50	H	-4.063068	0.014586	-0.687535
Cl51	Cl	-3.704538	0.056473	-0.792323
H52	H	-3.609411	-0.521563	-0.191710
Cl53	Cl	-4.327728	-0.689684	-0.177703
H54	H	-4.197097	-0.243529	-0.728719
H55	H	-4.173469	-0.530855	-0.179230
H56	H	-4.126080	-0.706652	-0.399442
Cl57	Cl	-4.420224	-0.715673	-0.346133
Cl58	Cl	-4.016101	-0.552494	-0.431190
