data_functionalizedCrystal
_audit_creation_method	'MofGen! by Chris Wilmer'
_symmetry_space_group_name_H-M	'P1'
_symmetry_Int_Tables_number	1
_symmetry_cell_setting	triclinic
loop_
_symmetry_equiv_pos_as_xyz
  x,y,z
_cell_length_a	17.640112
_cell_length_b	29.839131
_cell_length_c	17.640968
_cell_angle_alpha	101.240120
_cell_angle_beta	87.860920
_cell_angle_gamma	101.262129
loop_
_atom_site_label
_atom_site_type_symbol
_atom_site_fract_x
_atom_site_fract_y
_atom_site_fract_z
Zn1	Zn	1.247773	-0.012909	0.195077
Zn2	Zn	1.581106	0.320424	0.528410
Zn3	Zn	1.914439	0.653757	0.861743
Zn4	Zn	1.221962	-0.105604	0.068070
Zn5	Zn	1.555295	0.227730	0.401403
Zn6	Zn	1.888629	0.561063	0.734737
Zn7	Zn	1.095092	-0.042135	0.093715
Zn8	Zn	1.428425	0.291198	0.427048
Zn9	Zn	1.761759	0.624532	0.760382
Zn10	Zn	1.120706	-0.099690	0.220653
Zn11	Zn	1.454039	0.233644	0.553987
Zn12	Zn	1.787372	0.566977	0.887320
O13	O	1.171383	-0.065084	0.144379
O14	O	1.504716	0.268249	0.477712
O15	O	1.838050	0.601582	0.811045
O16	O	1.350622	-0.015449	0.156792
O17	O	1.683956	0.317884	0.490126
O18	O	2.017289	0.651217	0.823459
O19	O	1.183611	-0.111891	-0.034805
O20	O	1.516945	0.221443	0.298528
O21	O	1.850278	0.554776	0.631862
O22	O	1.115428	0.024622	0.107189
O23	O	1.448761	0.357955	0.440523
O24	O	1.782094	0.691288	0.773856
O25	O	1.331660	-0.083552	0.063481
O26	O	1.664993	0.249782	0.396814
O27	O	1.998326	0.583115	0.730148
O28	O	1.227601	0.046094	0.181659
O29	O	1.560935	0.379427	0.514993
O30	O	1.894268	0.712761	0.848326
O31	O	1.090400	-0.065260	-0.015964
O32	O	1.423734	0.268073	0.317370
O33	O	1.757067	0.601406	0.650703
O34	O	0.992216	-0.059526	0.131990
O35	O	1.325549	0.273807	0.465324
O36	O	1.658883	0.607141	0.798657
O37	O	1.159083	-0.073472	0.323538
O38	O	1.492416	0.259861	0.656871
O39	O	1.825749	0.593195	0.990204
O40	O	1.011034	-0.101811	0.225251
O41	O	1.344368	0.231522	0.558585
O42	O	1.677701	0.564856	0.891918
O43	O	1.252438	-0.009715	0.304746
O44	O	1.585771	0.323619	0.638080
O45	O	1.919105	0.656952	0.971413
O46	O	1.208448	-0.167699	0.088282
O47	O	1.541781	0.165634	0.421615
O48	O	1.875115	0.498967	0.754949
O49	O	1.134055	-0.163354	0.200384
O50	O	1.467389	0.169979	0.533718
O51	O	1.800722	0.503313	0.867051
C52	C	0.974070	-0.083198	0.184179
C53	C	1.307403	0.250135	0.517513
C54	C	1.640736	0.583468	0.850846
C55	C	0.889662	-0.090956	0.201224
C56	C	1.222995	0.242377	0.534558
C57	C	1.556328	0.575711	0.867891
C58	C	0.563036	-0.006143	0.014896
C59	C	0.896370	0.327191	0.348230
C60	C	1.229703	0.660524	0.681563
C61	C	0.483724	-0.013440	0.030923
C62	C	0.817058	0.319894	0.364256
C63	C	1.150391	0.653227	0.697590
C64	C	0.503340	-0.057573	0.127868
C65	C	0.836674	0.275760	0.461202
C66	C	1.170007	0.609093	0.794535
C67	C	0.582656	-0.050278	0.111852
C68	C	0.915990	0.283055	0.445186
C69	C	1.249323	0.616388	0.778519
C70	C	0.612497	-0.024563	0.055365
C71	C	0.945831	0.308770	0.388698
C72	C	1.279164	0.642104	0.722032
C73	C	0.632117	-0.068698	0.152321
C74	C	0.965451	0.264635	0.485655
C75	C	1.298784	0.597968	0.818988
C76	C	0.711425	-0.061406	0.136304
C77	C	1.044759	0.271928	0.469637
C78	C	1.378092	0.605261	0.802970
C79	C	0.741273	-0.035693	0.079817
C80	C	1.074606	0.297641	0.413151
C81	C	1.407939	0.630974	0.746484
C82	C	0.691806	-0.017270	0.039348
C83	C	1.025139	0.316063	0.372681
C84	C	1.358472	0.649397	0.706014
C85	C	0.602274	-0.094416	0.208804
C86	C	0.935607	0.238917	0.542138
C87	C	1.268940	0.572250	0.875471
C88	C	0.651735	-0.112837	0.249273
C89	C	0.985068	0.220497	0.582606
C90	C	1.318401	0.553830	0.915940
C91	C	0.731045	-0.105541	0.233260
C92	C	1.064379	0.227792	0.566593
C93	C	1.397712	0.561125	0.899926
C94	C	0.760893	-0.079828	0.176773
C95	C	1.094226	0.253505	0.510107
C96	C	1.427559	0.586838	0.843440
C97	C	0.780512	-0.123964	0.273729
C98	C	1.113846	0.209369	0.607063
C99	C	1.447179	0.542703	0.940396
C100	C	0.859821	-0.116671	0.257712
C101	C	1.193154	0.216662	0.591045
C102	C	1.526487	0.549995	0.924378
C103	C	0.840201	-0.072536	0.160756
C104	C	1.173534	0.260798	0.494089
C105	C	1.506867	0.594131	0.827422
C106	C	1.171254	-0.181827	0.144338
C107	C	1.504588	0.151507	0.477671
C108	C	1.837921	0.484840	0.811005
C109	C	1.171274	-0.231759	0.144332
C110	C	1.504607	0.101574	0.477665
C111	C	1.837940	0.434907	0.810999
C112	C	1.229795	-0.530161	0.183227
C113	C	1.563129	-0.196827	0.516560
C114	C	1.896462	0.136506	0.849893
C115	C	1.229887	-0.717820	0.183256
C116	C	1.563220	-0.384487	0.516589
C117	C	1.896554	-0.051153	0.849922
O118	O	1.279521	-0.732543	0.216300
O119	O	1.612854	-0.399210	0.549634
O120	O	1.946188	-0.065877	0.882967
N121	N	1.171529	-0.752503	0.144437
N122	N	1.504862	-0.419170	0.477770
N123	N	1.838196	-0.085836	0.811104
C124	C	1.113141	-0.740269	0.105613
C125	C	1.446475	-0.406936	0.438946
C126	C	1.779808	-0.073602	0.772279
O127	O	1.063502	-0.774075	0.072602
O128	O	1.396835	-0.440741	0.405936
O129	O	1.730169	-0.107408	0.739269
C130	C	1.113047	-0.552610	0.105589
C131	C	1.446381	-0.219277	0.438922
C132	C	1.779714	0.114056	0.772255
C133	C	1.171413	-0.517929	0.144403
C134	C	1.504747	-0.184596	0.477737
C135	C	1.838080	0.148737	0.811070
C136	C	1.288156	-0.495481	0.222039
C137	C	1.621490	-0.162147	0.555372
C138	C	1.954823	0.171186	0.888705
C139	C	1.288135	-0.448569	0.222028
C140	C	1.621468	-0.115235	0.555361
C141	C	1.954802	0.218098	0.888694
C142	C	1.229753	-0.436337	0.183204
C143	C	1.563086	-0.103004	0.516538
C144	C	1.896420	0.230329	0.849871
C145	C	1.171392	-0.471018	0.144392
C146	C	1.504725	-0.137684	0.477725
C147	C	1.838059	0.195649	0.811059
C148	C	1.054657	-0.540377	0.066769
C149	C	1.387990	-0.207044	0.400103
C150	C	1.721324	0.126290	0.733436
C151	C	1.054638	-0.493458	0.066768
C152	C	1.387971	-0.160125	0.400102
C153	C	1.721304	0.173208	0.733435
C154	C	1.113004	-0.458777	0.105583
C155	C	1.446337	-0.125444	0.438916
C156	C	1.779670	0.207889	0.772250
C157	C	1.112989	-0.411874	0.105558
C158	C	1.446322	-0.078541	0.438891
C159	C	1.779656	0.254792	0.772224
N160	N	1.171347	-0.377191	0.144376
N161	N	1.504680	-0.043858	0.477710
N162	N	1.838014	0.289475	0.811043
C163	C	1.229729	-0.389423	0.183200
C164	C	1.563062	-0.056089	0.516533
C165	C	1.896396	0.277244	0.849866
C166	C	1.113196	-0.838792	0.105627
C167	C	1.446529	-0.505458	0.438960
C168	C	1.779862	-0.172125	0.772293
C169	C	1.113220	-0.885706	0.105631
C170	C	1.446553	-0.552373	0.438965
C171	C	1.779886	-0.219040	0.772298
C172	C	1.229965	-0.863254	0.183276
C173	C	1.563298	-0.529921	0.516609
C174	C	1.896632	-0.196587	0.849942
C175	C	1.229943	-0.816339	0.183266
C176	C	1.563277	-0.483005	0.516599
C177	C	1.896610	-0.149672	0.849933
C178	C	1.171554	-0.804109	0.144445
C179	C	1.504887	-0.470775	0.477779
C180	C	1.838220	-0.137442	0.811112
C181	C	1.229680	-0.290906	0.183173
C182	C	1.563014	0.042428	0.516506
C183	C	1.896347	0.375761	0.849839
C184	C	1.229656	-0.243991	0.183155
C185	C	1.562989	0.089342	0.516489
C186	C	1.896323	0.422676	0.849822
C187	C	1.112909	-0.266447	0.105515
C188	C	1.446242	0.066886	0.438848
C189	C	1.779575	0.400220	0.772181
C190	C	1.112935	-0.313358	0.105528
C191	C	1.446269	0.019975	0.438862
C192	C	1.779602	0.353309	0.772195
C193	C	1.171325	-0.325585	0.144363
C194	C	1.504658	0.007748	0.477696
C195	C	1.837991	0.341082	0.811030
O196	O	1.063376	-0.397117	0.072537
O197	O	1.396709	-0.063783	0.405871
O198	O	1.730043	0.269550	0.739204
O199	O	1.279351	-0.355610	0.216219
O200	O	1.612685	-0.022277	0.549553
O201	O	1.946018	0.311057	0.882886
C202	C	1.229817	-0.577073	0.183238
C203	C	1.563150	-0.243739	0.516571
C204	C	1.896483	0.089594	0.849904
C205	C	1.171456	-0.611753	0.144426
C206	C	1.504789	-0.278419	0.477759
C207	C	1.838122	0.054914	0.811092
C208	C	1.113074	-0.599521	0.105602
C209	C	1.446407	-0.266188	0.438936
C210	C	1.779740	0.067145	0.772269
C211	C	1.171480	-0.658667	0.144430
C212	C	1.504813	-0.325334	0.477764
C213	C	1.838146	0.007999	0.811097
C214	C	1.229862	-0.670899	0.183254
C215	C	1.563195	-0.337565	0.516587
C216	C	1.896529	-0.004232	0.849920
C217	C	1.288220	-0.636216	0.222072
C218	C	1.621553	-0.302882	0.555406
C219	C	1.954886	0.030451	0.888739
C220	C	1.288199	-0.589304	0.222061
C221	C	1.621532	-0.255971	0.555394
C222	C	1.954865	0.077363	0.888728
C223	C	1.054716	-0.634204	0.066784
C224	C	1.388049	-0.300871	0.400117
C225	C	1.721382	0.032462	0.733450
C226	C	1.054742	-0.681115	0.066797
C227	C	1.388075	-0.347782	0.400131
C228	C	1.721409	-0.014449	0.733464
C229	C	1.113124	-0.693347	0.105621
C230	C	1.446457	-0.360013	0.438954
C231	C	1.779791	-0.026680	0.772287
C232	C	1.369467	-0.046900	0.104423
C233	C	1.702800	0.286433	0.437756
C234	C	2.036134	0.619767	0.771090
C235	C	1.453879	-0.039151	0.087396
C236	C	1.787212	0.294182	0.420730
C237	C	2.120545	0.627516	0.754063
C238	C	1.211497	-0.037673	0.342469
C239	C	1.544830	0.295660	0.675802
C240	C	1.878163	0.628993	1.009136
C241	C	1.228591	-0.025993	0.426883
C242	C	1.561924	0.307341	0.760216
C243	C	1.895257	0.640674	1.093550
C244	C	1.171536	0.052118	0.144432
C245	C	1.504870	0.385451	0.477765
C246	C	1.838203	0.718784	0.811099
C247	C	1.171602	0.102062	0.144455
C248	C	1.504935	0.435396	0.477788
C249	C	1.838268	0.768729	0.811121
C250	C	1.131469	-0.092352	-0.052950
C251	C	1.464803	0.240981	0.280384
C252	C	1.798136	0.574314	0.613717
C253	C	1.114523	-0.103893	-0.137393
C254	C	1.447856	0.229440	0.195940
C255	C	1.781189	0.562774	0.529274
C256	C	1.041813	-0.153552	0.753423
C257	C	1.375147	0.179781	1.086756
C258	C	1.708480	0.513115	1.420089
C259	C	1.057892	-0.142569	0.832739
C260	C	1.391225	0.190765	1.166073
C261	C	1.724559	0.524098	1.499406
C262	C	1.155095	-0.076184	0.813163
C263	C	1.488428	0.257149	1.146497
C264	C	1.821761	0.590483	1.479830
C265	C	1.139022	-0.087160	0.733844
C266	C	1.472355	0.246173	1.067177
C267	C	1.805688	0.579507	1.400511
C268	C	1.082381	-0.125845	0.703980
C269	C	1.415714	0.207488	1.037313
C270	C	1.749048	0.540822	1.370647
C271	C	1.179589	-0.059453	0.684401
C272	C	1.512923	0.273880	1.017735
C273	C	1.846256	0.607213	1.351068
C274	C	1.163520	-0.070430	0.605088
C275	C	1.496854	0.262903	0.938421
C276	C	1.830187	0.596236	1.271755
C277	C	1.106884	-0.109114	0.575218
C278	C	1.440217	0.224219	0.908551
C279	C	1.773550	0.557553	1.241884
C280	C	1.066312	-0.136822	0.624667
C281	C	1.399645	0.196511	0.958000
C282	C	1.732979	0.529845	1.291334
C283	C	1.236234	-0.020771	0.714266
C284	C	1.569567	0.312563	1.047599
C285	C	1.902900	0.645896	1.380932
C286	C	1.276801	0.006936	0.664823
C287	C	1.610135	0.340270	0.998157
C288	C	1.943468	0.673603	1.331490
C289	C	1.260729	-0.004039	0.585509
C290	C	1.594062	0.329295	0.918843
C291	C	1.927395	0.662628	1.252176
C292	C	1.204092	-0.042722	0.555639
C293	C	1.537425	0.290611	0.888972
C294	C	1.870759	0.623944	1.222305
C295	C	1.301300	0.023669	0.536060
C296	C	1.634634	0.357003	0.869393
C297	C	1.967967	0.690336	1.202727
C298	C	1.285231	0.012692	0.456747
C299	C	1.618565	0.346026	0.790080
C300	C	1.951898	0.679359	1.123414
C301	C	1.188023	-0.053699	0.476326
C302	C	1.521356	0.279634	0.809659
C303	C	1.854690	0.612967	1.142992
H304	H	0.805851	-0.029757	0.066775
H305	H	1.139184	0.303577	0.400109
H306	H	1.472517	0.636910	0.733442
F307	F	1.253337	-0.009090	0.798679
F308	F	1.586671	0.324243	1.132012
F309	F	1.920004	0.657577	1.465345
F310	F	1.350320	-0.552399	0.263374
F311	F	1.683653	-0.219065	0.596708
F312	F	2.016987	0.114268	0.930041
H313	H	0.587337	0.014806	-0.031090
H314	H	0.920670	0.348139	0.302243
H315	H	1.254003	0.681472	0.635577
H316	H	1.024853	-0.165134	0.872994
H317	H	1.358186	0.168199	1.206328
H318	H	1.691519	0.501533	1.539661
H319	H	1.065414	-0.341598	0.073915
H320	H	1.398747	-0.008264	0.407248
H321	H	1.732080	0.325069	0.740582
F322	F	0.723570	0.010103	-0.020768
F323	F	1.056903	0.343436	0.312565
F324	F	1.390237	0.676769	0.645899
H325	H	1.277503	-0.873220	0.214886
H326	H	1.610836	-0.539887	0.548219
H327	H	1.944169	-0.206554	0.881553
H328	H	1.335660	-0.420333	0.253636
H329	H	1.668993	-0.087000	0.586970
H330	H	2.002327	0.246333	0.920303
F331	F	1.350356	-0.649242	0.263388
F332	F	1.683690	-0.315908	0.596721
F333	F	2.017023	0.017425	0.930055
H334	H	1.201214	-0.044688	0.837489
H335	H	1.534547	0.288646	1.170823
H336	H	1.867880	0.621979	1.504156
H337	H	0.443455	0.001566	-0.002030
H338	H	0.776789	0.334899	0.331303
H339	H	1.110122	0.668233	0.664636
F340	F	0.471571	-0.084946	0.187976
F341	F	0.804904	0.248387	0.521310
F342	F	1.138237	0.581720	0.854643
F343	F	1.006022	-0.177992	0.592881
F344	F	1.339355	0.155341	0.926214
F345	F	1.672689	0.488675	1.259547
F346	F	1.051106	-0.922613	0.064308
F347	F	1.384440	-0.589279	0.397641
F348	F	1.717773	-0.255946	0.730975
F349	F	1.127733	-0.094869	0.444540
F350	F	1.461066	0.238464	0.777873
F351	F	1.794400	0.571797	1.111206
F352	F	0.517864	-0.102183	0.225843
F353	F	0.851197	0.231150	0.559176
F354	F	1.184530	0.564483	0.892509
H355	H	0.627426	-0.133776	0.295263
H356	H	0.960760	0.199558	0.628596
H357	H	1.294093	0.532891	0.961930
H358	H	1.322920	0.038432	0.689149
H359	H	1.656254	0.371766	1.022482
H360	H	1.989587	0.705099	1.355816
H361	H	1.347422	0.055164	0.560387
H362	H	1.680756	0.388497	0.893720
H363	H	2.014089	0.721830	1.227053
F364	F	1.051043	-0.825783	0.064308
F365	F	1.384377	-0.492449	0.397641
F366	F	1.717710	-0.159116	0.730975
F367	F	0.981523	-0.194722	0.721637
F368	F	1.314857	0.138611	1.054970
F369	F	1.648190	0.471945	1.388303
F370	F	0.992489	-0.480446	0.025449
F371	F	1.325822	-0.147113	0.358783
F372	F	1.659156	0.186221	0.692116
H373	H	1.318264	0.035255	0.416489
H374	H	1.651598	0.368588	0.749823
H375	H	1.984931	0.701921	1.083156
F376	F	0.748740	-0.151340	0.333833
F377	F	1.082073	0.181993	0.667166
F378	F	1.415407	0.515327	1.000499
F379	F	1.089785	-0.120799	0.490804
F380	F	1.423118	0.212535	0.824137
F381	F	1.756452	0.545868	1.157470
F382	F	1.291781	-0.207082	0.224467
F383	F	1.625114	0.126251	0.557801
F384	F	1.958448	0.459585	0.891134
F385	F	0.871965	-0.045163	0.100640
F386	F	1.205298	0.288171	0.433973
F387	F	1.538632	0.621504	0.767307
H388	H	1.277223	-0.300854	0.214802
H389	H	1.610556	0.032479	0.548135
H390	H	1.943889	0.365813	0.881468
F391	F	0.912463	-0.136277	0.300781
F392	F	1.245797	0.197056	0.634115
F393	F	1.579130	0.530389	0.967448
H394	H	1.065376	-0.256481	0.073902
H395	H	1.398710	0.076852	0.407236
H396	H	1.732043	0.410186	0.740569
H397	H	1.335699	-0.505433	0.253658
H398	H	1.669032	-0.172099	0.586991
H399	H	2.002365	0.161234	0.920325
H400	H	1.007173	-0.624250	0.035170
H401	H	1.340506	-0.290917	0.368503
H402	H	1.673840	0.042416	0.701837
H403	H	1.007129	-0.568607	0.035162
H404	H	1.340462	-0.235274	0.368495
H405	H	1.673796	0.098059	0.701829
F406	F	0.992619	-0.718022	0.025478
F407	F	1.325952	-0.384689	0.358811
F408	F	1.659286	-0.051355	0.692145
F409	F	1.292063	-0.779432	0.224578
F410	F	1.625396	-0.446099	0.557912
F411	F	1.958730	-0.112766	0.891245
