data_functionalizedCrystal
_audit_creation_method	'MofGen! by Chris Wilmer'
_symmetry_space_group_name_H-M	'P1'
_symmetry_Int_Tables_number	1
_symmetry_cell_setting	triclinic
loop_
_symmetry_equiv_pos_as_xyz
  x,y,z
_cell_length_a	12.837943
_cell_length_b	9.730223
_cell_length_c	10.654551
_cell_angle_alpha	90.002058
_cell_angle_beta	89.657184
_cell_angle_gamma	90.001479
loop_
_atom_site_label
_atom_site_type_symbol
_atom_site_fract_x
_atom_site_fract_y
_atom_site_fract_z
O1	O	1.377801	0.114255	0.326749
O2	O	1.877801	0.614255	0.826749
O3	O	1.075880	0.114264	0.310608
O4	O	1.575880	0.614264	0.810608
O5	O	1.233782	0.114256	0.136697
O6	O	1.733782	0.614256	0.636697
O7	O	1.219899	0.114262	0.500660
O8	O	1.719899	0.614262	1.000660
O9	O	1.233773	-0.114324	0.136693
O10	O	1.733773	0.385676	0.636693
O11	O	1.075871	-0.114316	0.310604
O12	O	1.575871	0.385684	0.810604
O13	O	1.377793	-0.114325	0.326745
O14	O	1.877793	0.385675	0.826745
Zn15	Zn	1.226831	-0.150613	0.318674
Zn16	Zn	1.726831	0.349387	0.818674
Zn17	Zn	1.226842	0.150551	0.318679
Zn18	Zn	1.726842	0.650551	0.818679
O19	O	1.219891	-0.114317	0.500656
O20	O	1.719891	0.385683	1.000656
C21	C	1.037216	-0.000025	0.305153
C22	C	1.537216	0.499975	0.805153
C23	C	0.922022	-0.000022	0.288891
C24	C	1.422022	0.499978	0.788891
C25	C	1.232758	-0.000032	0.089786
C26	C	1.732758	0.499968	0.589786
C27	C	1.229708	-0.000025	-0.049990
C28	C	1.729708	0.499975	0.450010
N29	N	1.226831	-0.356149	0.318670
N30	N	1.726831	0.143851	0.818670
C31	C	0.682470	-0.000038	0.484395
C32	C	1.182470	0.499962	0.984395
C33	C	0.574234	-0.000036	0.469121
C34	C	1.074234	0.499964	0.969121
C35	C	0.597313	-0.000025	0.243070
C36	C	1.097313	0.499975	0.743070
C37	C	0.705548	-0.000027	0.258344
C38	C	1.205548	0.499973	0.758344
C39	C	0.748123	-0.000032	0.379010
C40	C	1.248123	0.499968	0.879010
C41	C	0.856360	-0.000024	0.394284
C42	C	1.356360	0.499976	0.894284
C43	C	0.879437	-0.000023	0.168233
C44	C	1.379437	0.499977	0.668233
C45	C	0.771201	-0.000021	0.152959
C46	C	1.271201	0.499979	0.652959
C47	C	1.416457	-0.000033	0.332200
C48	C	1.916457	0.499967	0.832200
C49	C	1.531651	-0.000027	0.348462
C50	C	2.031651	0.499973	0.848462
C51	C	1.296779	-0.571971	0.241697
C52	C	1.796779	-0.071971	0.741697
C53	C	1.296773	-0.428088	0.241698
C54	C	1.796773	0.071912	0.741698
C55	C	1.156899	-0.428101	0.395656
C56	C	1.656899	0.071899	0.895656
C57	C	1.156911	-0.571981	0.395661
C58	C	1.656911	-0.071981	0.895661
N59	N	1.226850	0.356088	0.318674
N60	N	1.726850	0.856088	0.818674
C61	C	1.228280	0.124575	-0.115648
C62	C	1.728280	0.624575	0.384352
C63	C	1.225406	0.124576	-0.246982
C64	C	1.725406	0.624576	0.253018
C65	C	1.225390	-0.124634	-0.246989
C66	C	1.725390	0.375366	0.253011
C67	C	1.228257	-0.124634	-0.115657
C68	C	1.728257	0.375366	0.384343
C69	C	1.220915	-0.000027	0.547567
C70	C	1.720915	0.499973	1.047567
C71	C	1.223965	-0.000024	0.687344
C72	C	1.723965	0.499976	1.187344
H73	H	0.891022	-0.000030	0.492536
H74	H	1.391022	0.499970	0.992536
H75	H	1.229459	0.226040	-0.062186
H76	H	1.729459	0.726040	0.437814
H77	H	1.099966	-0.630560	0.458350
H78	H	1.599966	-0.130560	0.958350
H79	H	1.224210	-0.226086	-0.300472
H80	H	1.724210	0.273914	0.199528
H81	H	1.224241	0.226038	-0.300435
H82	H	1.724241	0.726038	0.199565
Cl83	Cl	0.717668	-0.000019	0.001272
Cl84	Cl	1.217668	0.499981	0.501272
H85	H	1.353716	-0.369516	0.179018
H86	H	1.853716	0.130484	0.679018
H87	H	1.229413	-0.226105	-0.062197
H88	H	1.729413	0.273895	0.437803
H89	H	0.717134	-0.000040	0.582647
H90	H	1.217134	0.499960	1.082647
H91	H	0.520782	-0.000045	0.554937
H92	H	1.020782	0.499955	1.054937
Cl93	Cl	1.384706	-0.662392	0.144920
Cl94	Cl	1.884706	-0.162392	0.644920
Cl95	Cl	1.068975	-0.337667	0.492429
Cl96	Cl	1.568975	0.162333	0.992429
Cl97	Cl	0.543771	-0.000038	0.091387
Cl98	Cl	1.043771	0.499962	0.591387
Cl99	Cl	0.961979	0.000006	0.035741
Cl100	Cl	1.461979	0.500006	0.535741
