data_functionalizedCrystal
_audit_creation_method	'MofGen! by Chris Wilmer'
_symmetry_space_group_name_H-M	'P1'
_symmetry_Int_Tables_number	1
_symmetry_cell_setting	triclinic
loop_
_symmetry_equiv_pos_as_xyz
  x,y,z
_cell_length_a	12.759401
_cell_length_b	16.959454
_cell_length_c	12.759401
_cell_angle_alpha	90.008476
_cell_angle_beta	90.000621
_cell_angle_gamma	90.020236
loop_
_atom_site_label
_atom_site_type_symbol
_atom_site_fract_x
_atom_site_fract_y
_atom_site_fract_z
Zn1	Zn	1.606031	-0.314805	0.593987
Zn2	Zn	2.106031	0.185195	1.093987
Zn3	Zn	1.605963	-0.446955	0.418310
Zn4	Zn	2.105963	0.053045	0.918310
Zn5	Zn	1.430388	-0.314795	0.418327
Zn6	Zn	1.930388	0.185205	0.918327
Zn7	Zn	1.430305	-0.446946	0.593951
Zn8	Zn	1.930305	0.053054	1.093951
O9	O	1.518172	-0.380875	0.506144
O10	O	2.018172	0.119125	1.006144
O11	O	1.753043	-0.332343	0.570691
O12	O	2.253043	0.167657	1.070691
O13	O	1.582679	-0.429424	0.271291
O14	O	2.082679	0.070576	0.771291
O15	O	1.453750	-0.204186	0.441650
O16	O	1.953750	0.295814	0.941650
O17	O	1.752993	-0.429433	0.441622
O18	O	2.252993	0.070567	0.941622
O19	O	1.582794	-0.204193	0.570707
O20	O	2.082794	0.295807	1.070707
O21	O	1.453684	-0.332326	0.271303
O22	O	1.953684	0.167674	0.771303
O23	O	1.283356	-0.332317	0.441616
O24	O	1.783356	0.167683	0.941616
O25	O	1.453609	-0.429417	0.740977
O26	O	1.953609	0.070583	1.240977
O27	O	1.283295	-0.429408	0.570646
O28	O	1.783295	0.070592	1.070646
O29	O	1.582714	-0.332334	0.741003
O30	O	2.082714	0.167666	1.241003
O31	O	1.582599	-0.557565	0.441587
O32	O	2.082599	-0.057565	0.941587
O33	O	1.453544	-0.557558	0.570630
O34	O	1.953544	-0.057558	1.070630
C35	C	1.245204	-0.380861	0.506129
C36	C	1.745204	0.119139	1.006129
C37	C	1.128428	-0.380874	0.506148
C38	C	1.628428	0.119126	1.006148
C39	C	1.073562	-0.431509	0.573223
C40	C	1.573562	0.068491	1.073223
C41	C	0.963837	-0.431520	0.573235
C42	C	1.463837	0.068480	1.073235
C43	C	0.963855	-0.330255	0.439087
C44	C	1.463855	0.169745	0.939087
C45	C	1.073577	-0.330242	0.439082
C46	C	1.573577	0.169758	0.939082
C47	C	1.128412	-0.482141	0.640290
C48	C	1.628412	0.017859	1.140290
C49	C	1.073546	-0.532782	0.707370
C50	C	1.573546	-0.032782	1.207370
C51	C	0.963822	-0.532792	0.707381
C52	C	1.463822	-0.032792	1.207381
C53	C	0.908964	-0.482161	0.640313
C54	C	1.408964	0.017839	1.140313
C55	C	1.518084	-0.586242	0.506126
C56	C	2.018084	-0.086242	1.006126
C57	C	1.518142	-0.674098	0.506153
C58	C	2.018142	-0.174098	1.006153
C59	C	1.451070	-1.045600	0.573329
C60	C	1.951070	-0.545600	1.073329
C61	C	1.585566	-1.045547	0.439065
C62	C	2.085566	-0.545547	0.939065
C63	C	1.585529	-0.963002	0.439056
C64	C	2.085529	-0.463002	0.939056
C65	C	1.518261	-0.921751	0.506183
C66	C	2.018261	-0.421751	1.006183
C67	C	1.451029	-0.963046	0.573319
C68	C	1.951029	-0.463046	1.073319
C69	C	1.652752	-0.921700	0.371913
C70	C	2.152752	-0.421700	0.871913
C71	C	1.652718	-0.839149	0.371899
C72	C	2.152718	-0.339149	0.871899
C73	C	1.585453	-0.797897	0.439033
C74	C	2.085453	-0.297897	0.939033
C75	C	1.518220	-0.839198	0.506173
C76	C	2.018220	-0.339198	1.006173
C77	C	1.450951	-0.797947	0.573300
C78	C	1.950951	-0.297947	1.073300
C79	C	1.383722	-0.839246	0.640446
C80	C	1.883722	-0.339246	1.140446
C81	C	1.383765	-0.921795	0.640453
C82	C	1.883765	-0.421795	1.140453
C83	C	1.585411	-0.715349	0.439026
C84	C	2.085411	-0.215349	0.939026
C85	C	1.450910	-0.715394	0.573290
C86	C	1.950910	-0.215394	1.073290
C87	C	1.792205	-0.380891	0.506159
C88	C	2.292205	0.119109	1.006159
C89	C	1.908982	-0.380897	0.506165
C90	C	2.408982	0.119103	1.006165
C91	C	1.518160	-0.380876	0.780177
C92	C	2.018160	0.119124	1.280177
C93	C	1.518155	-0.380876	0.896954
C94	C	2.018155	0.119124	1.396954
C95	C	1.518289	-0.174707	0.506185
C96	C	2.018289	0.325293	1.006185
C97	C	1.518338	-0.086850	0.506202
C98	C	2.018338	0.413150	1.006202
C99	C	1.450999	-0.330324	0.951828
C100	C	1.950999	0.169676	1.451828
C101	C	1.450999	-0.330333	1.061552
C102	C	1.950999	0.169667	1.561552
C103	C	1.585318	-0.431447	1.061518
C104	C	2.085318	0.068553	1.561518
C105	C	1.585312	-0.431442	0.951796
C106	C	2.085312	0.068558	1.451796
C107	C	1.383842	-0.279758	0.896986
C108	C	1.883842	0.220242	1.396986
C109	C	1.316682	-0.229201	0.951861
C110	C	1.816682	0.270799	1.451861
C111	C	1.316681	-0.229210	1.061585
C112	C	1.816681	0.270790	1.561585
C113	C	1.383841	-0.279775	1.116434
C114	C	1.883841	0.220225	1.616434
C115	C	1.518171	-0.380892	1.233176
C116	C	2.018171	0.119108	1.733176
C117	C	1.518160	-0.380890	1.116400
C118	C	2.018160	0.119110	1.616400
H119	H	0.819619	-0.482167	0.640337
H120	H	1.319619	0.017833	1.140337
Br121	Br	1.292425	-0.783254	0.731536
Br122	Br	1.792425	-0.283254	1.231536
Br123	Br	1.148046	-0.261519	0.348052
Br124	Br	1.648046	0.238481	0.848052
Br125	Br	1.383832	-0.279791	1.265347
Br126	Br	1.883832	0.220209	1.765347
H127	H	1.707460	-0.805528	0.317227
H128	H	2.207460	-0.305528	0.817227
Br129	Br	1.383846	-0.279737	0.748075
Br130	Br	1.883846	0.220263	1.248075
H131	H	1.396136	-0.681812	0.627957
H132	H	1.896136	-0.181812	1.127957
Br133	Br	1.744045	-0.977685	0.280822
Br134	Br	2.244045	-0.477685	0.780822
Br135	Br	1.676458	-0.500066	1.135956
Br136	Br	2.176458	-0.000066	1.635956
H137	H	1.640143	-0.681727	0.384352
H138	H	2.140143	-0.181727	0.884352
Br139	Br	1.359842	-1.101644	0.664460
Br140	Br	1.859842	-0.601644	1.164460
H141	H	1.329029	-0.955428	0.695118
H142	H	1.829029	-0.455428	1.195118
H143	H	1.261997	-0.188037	0.907195
H144	H	1.761997	0.311963	1.407195
H145	H	1.261990	-0.188049	1.106260
H146	H	1.761990	0.311951	1.606260
Br147	Br	1.676445	-0.500055	0.877316
Br148	Br	2.176445	-0.000055	1.377316
H149	H	0.919181	-0.289035	0.384482
H150	H	1.419181	0.210965	0.884482
H151	H	1.640327	-1.079138	0.384407
H152	H	2.140327	-0.579138	0.884407
H153	H	1.118218	-0.573998	0.761981
H154	H	1.618218	-0.073998	1.261981
Br155	Br	1.277322	-0.482135	0.640272
Br156	Br	1.777322	0.017865	1.140272
H157	H	0.919152	-0.574020	0.762008
H158	H	1.419152	-0.074020	1.262008
