data_functionalizedCrystal
_audit_creation_method	'MofGen! by Chris Wilmer'
_symmetry_space_group_name_H-M	'P1'
_symmetry_Int_Tables_number	1
_symmetry_cell_setting	triclinic
loop_
_symmetry_equiv_pos_as_xyz
  x,y,z
_cell_length_a	16.992694
_cell_length_b	15.538191
_cell_length_c	16.053802
_cell_angle_alpha	91.543625
_cell_angle_beta	87.249047
_cell_angle_gamma	68.970158
loop_
_atom_site_label
_atom_site_type_symbol
_atom_site_fract_x
_atom_site_fract_y
_atom_site_fract_z
O1	O	0.989072	0.191921	-0.069317
O2	O	1.489072	0.691921	0.430683
O3	O	0.761399	0.189774	-0.069342
O4	O	1.261399	0.689774	0.430658
O5	O	0.919554	0.057054	-0.069328
O6	O	1.419554	0.557054	0.430672
O7	O	0.830917	0.324641	-0.069330
O8	O	1.330917	0.824641	0.430670
O9	O	0.910858	0.064328	0.069530
O10	O	1.410858	0.564328	0.569530
O11	O	0.752703	0.197047	0.069517
O12	O	1.252703	0.697047	0.569517
O13	O	0.980376	0.199194	0.069541
O14	O	1.480376	0.699194	0.569541
Zn15	Zn	0.865158	0.199275	0.091576
Zn16	Zn	1.365158	0.699275	0.591576
Zn17	Zn	0.876616	0.189693	-0.091376
Zn18	Zn	1.376616	0.689693	0.408624
O19	O	0.822220	0.331914	0.069528
O20	O	1.322220	0.831914	0.569528
C21	C	0.728624	0.190651	0.000084
C22	C	1.228624	0.690651	0.500084
C23	C	0.643924	0.182415	0.000075
C24	C	1.143924	0.682415	0.500075
C25	C	0.924480	0.026294	0.000099
C26	C	1.424480	0.526294	0.500099
C27	C	0.952104	-0.076201	0.000094
C28	C	1.452104	0.423799	0.500094
C29	C	0.571070	0.261869	0.000075
C30	C	1.071070	0.761869	0.500075
C31	C	0.491487	0.254127	0.000086
C32	C	0.991487	0.754127	0.500086
C33	C	0.484759	0.166930	0.000092
C34	C	0.984759	0.666930	0.500092
C35	C	0.557620	0.087471	0.000094
C36	C	1.057620	0.587471	0.500094
C37	C	0.637202	0.095214	0.000089
C38	C	1.137202	0.595214	0.500089
C39	C	0.250294	0.134837	0.000114
C40	C	0.750294	0.634837	0.500114
C41	C	0.170704	0.127099	0.000117
C42	C	0.670704	0.627099	0.500117
C43	C	0.104576	0.293756	0.000111
C44	C	0.604576	0.793756	0.500111
C45	C	0.184163	0.301491	0.000101
C46	C	0.684163	0.801491	0.500101
C47	C	0.257017	0.222032	0.000107
C48	C	0.757017	0.722032	0.500107
N49	N	0.403412	0.159014	0.000101
N50	N	0.903412	0.659014	0.500101
N51	N	0.338361	0.229949	0.000104
N52	N	0.838361	0.729949	0.500104
C53	C	0.677671	-0.384652	0.000082
C54	C	1.177671	0.115348	0.500082
C55	C	0.703646	-0.480962	0.000086
C56	C	1.203646	0.019038	0.500086
C57	C	0.849754	-0.492405	0.000102
C58	C	1.349754	0.007595	0.500102
C59	C	0.823791	-0.396094	0.000093
C60	C	1.323791	0.103906	0.500093
C61	C	0.737748	-0.342225	0.000084
C62	C	1.237748	0.157775	0.500084
C63	C	0.883869	-0.353667	0.000095
C64	C	1.383869	0.146333	0.500095
C65	C	0.857907	-0.257364	0.000091
C66	C	1.357907	0.242636	0.500091
C67	C	0.771868	-0.203488	0.000084
C68	C	1.271868	0.296512	0.500084
C69	C	0.711787	-0.245922	0.000080
C70	C	1.211787	0.254078	0.500080
C71	C	0.969911	-0.407537	0.000110
C72	C	1.469911	0.092463	0.500110
C73	C	1.029988	-0.365110	0.000113
C74	C	1.529988	0.134890	0.500113
C75	C	1.004027	-0.268806	0.000102
C76	C	1.504027	0.231194	0.500102
C77	C	0.917988	-0.214931	0.000096
C78	C	1.417988	0.285069	0.500096
C79	C	1.064108	-0.226373	0.000107
C80	C	1.564108	0.273627	0.500107
C81	C	1.038147	-0.130070	0.000103
C82	C	1.538147	0.369930	0.500103
C83	C	0.892026	-0.118628	0.000091
C84	C	1.392026	0.381372	0.500091
C85	C	1.013151	0.198317	0.000114
C86	C	1.513151	0.698317	0.500114
C87	C	1.097851	0.206552	0.000118
C88	C	1.597851	0.706552	0.500118
C89	C	0.817295	0.362675	0.000099
C90	C	1.317295	0.862675	0.500099
C91	C	0.789671	0.465169	0.000099
C92	C	1.289671	0.965169	0.500099
N93	N	0.857345	0.205815	0.216435
N94	N	1.357345	0.705815	0.716435
N95	N	0.884438	0.183146	-0.216236
N96	N	1.384438	0.683146	0.283764
C97	C	0.924652	0.149366	0.260135
C98	C	1.424652	0.649366	0.760135
C99	C	0.919191	0.153950	0.347541
C100	C	1.419191	0.653950	0.847541
C101	C	0.846424	0.214988	0.391246
C102	C	1.346424	0.714988	0.891246
C103	C	0.779111	0.271440	0.347541
C104	C	1.279111	0.771440	0.847541
C105	C	0.784570	0.266851	0.260136
C106	C	1.284570	0.766851	0.760136
C107	C	0.822584	0.235009	0.652654
C108	C	1.322584	0.735009	1.152654
C109	C	0.817130	0.239596	0.740065
C110	C	1.317130	0.739596	1.240065
C111	C	0.957211	0.122103	0.740059
C112	C	1.457211	0.622103	1.240059
C113	C	0.962666	0.117523	0.652653
C114	C	1.462666	0.617523	1.152653
C115	C	0.895351	0.173972	0.608955
C116	C	1.395351	0.673972	1.108955
N117	N	0.840841	0.219677	0.480590
N118	N	1.340841	0.719677	0.980590
N119	N	0.900932	0.169277	0.519613
N120	N	1.400932	0.669277	1.019613
H121	H	0.576539	0.332874	0.000070
H122	H	1.076539	0.832874	0.500070
H123	H	0.432170	0.318826	0.000086
H124	H	0.932170	0.818826	0.500086
H125	H	0.696521	0.030514	0.000088
H126	H	1.196521	0.530514	0.500088
H127	H	0.189632	0.372495	0.000086
H128	H	0.689632	0.872495	0.500086
F129	F	0.990826	0.093869	0.394050
F130	F	1.490826	0.593869	0.894050
H131	H	0.919811	-0.536278	0.000113
H132	H	1.419811	-0.036278	0.500113
H133	H	0.641722	-0.202059	0.000066
H134	H	1.141722	0.297941	0.500066
H135	H	0.607606	-0.340788	0.000068
H136	H	1.107606	0.159212	0.500068
H137	H	1.021919	0.067821	0.617070
H138	H	1.521919	0.567821	1.117070
H139	H	0.750731	-0.125073	0.000086
H140	H	1.250731	0.374927	0.500086
H141	H	0.757871	0.289305	0.775646
H142	H	1.257871	0.789305	1.275646
H143	H	0.045252	0.358446	0.000107
H144	H	0.545252	0.858446	0.500107
F145	F	0.750944	0.295087	0.606154
F146	F	1.250944	0.795087	1.106154
F147	F	0.327821	0.050268	0.000121
F148	F	0.827821	0.550268	0.500121
H149	H	1.087068	-0.095525	0.000106
H150	H	1.587068	0.404475	0.500106
F151	F	0.639696	-0.526112	0.000089
F152	F	1.139696	-0.026112	0.500089
H153	H	0.165234	0.056089	0.000121
H154	H	0.665234	0.556089	0.500121
F155	F	0.800450	-0.061291	0.000074
F156	F	1.300450	0.438709	0.500074
H157	H	0.552136	0.016474	0.000111
H158	H	1.052136	0.516474	0.500111
F159	F	0.997540	-0.510032	0.000121
F160	F	1.497540	-0.010032	0.500121
F161	F	1.121558	-0.422451	0.000129
F162	F	1.621558	0.077549	0.500129
H163	H	1.134164	-0.270247	0.000123
H164	H	1.634164	0.229753	0.500123
H165	H	0.983909	0.099665	0.224556
H166	H	1.483909	0.599665	0.724556
H167	H	1.012015	0.076144	0.775646
H168	H	1.512015	0.576144	1.275646
H169	H	0.719859	0.321136	0.383130
H170	H	1.219859	0.821136	0.883130
H171	H	0.729760	0.312817	0.224557
H172	H	1.229760	0.812817	0.724557
