data_functionalizedCrystal
_audit_creation_method	'MofGen! by Chris Wilmer'
_symmetry_space_group_name_H-M	'P1'
_symmetry_Int_Tables_number	1
_symmetry_cell_setting	triclinic
loop_
_symmetry_equiv_pos_as_xyz
  x,y,z
_cell_length_a	11.026607
_cell_length_b	10.654550
_cell_length_c	9.130313
_cell_angle_alpha	90.000276
_cell_angle_beta	89.997484
_cell_angle_gamma	83.464526
loop_
_atom_site_label
_atom_site_type_symbol
_atom_site_fract_x
_atom_site_fract_y
_atom_site_fract_z
O1	O	0.170768	-1.704908	-0.121683
O2	O	0.187037	-1.342961	-0.121709
O3	O	0.001997	-1.493937	-0.121693
O4	O	0.355808	-1.553932	-0.121699
O5	O	0.001991	-1.493922	0.121906
O6	O	0.187032	-1.342947	0.121889
O7	O	0.170762	-1.704894	0.121916
Cu8	Cu	0.178896	-1.523919	0.144145
Cu9	Cu	0.178903	-1.523936	-0.143939
O10	O	0.355802	-1.553918	0.121899
C11	C	0.185840	-1.295897	0.000087
C12	C	0.182266	-1.155678	0.000076
C13	C	-0.043310	-1.482861	0.000104
C14	C	-0.178302	-1.449867	0.000096
N15	N	0.178891	-1.523916	0.346768
C16	C	-0.251341	-1.540970	0.000101
C17	C	-0.390862	-1.506871	0.000093
C18	C	0.401109	-1.564993	0.000099
C19	C	0.536101	-1.597988	0.000097
C20	C	0.171959	-1.751958	0.000116
C21	C	0.175533	-1.892177	0.000117
C22	C	0.291214	-1.099841	0.000079
C23	C	0.287849	-0.968090	0.000104
C24	C	0.066576	-0.948022	0.000119
C25	C	0.069943	-1.079771	0.000104
N26	N	0.178898	-1.523947	-0.346561
C27	C	0.096990	-1.590804	0.423427
C28	C	0.096990	-1.590816	0.576764
C29	C	0.260803	-1.457050	0.576769
C30	C	0.260796	-1.457031	0.423435
H31	H	-0.431617	-1.403623	0.000076
H32	H	-0.024873	-0.886203	0.000151
C33	C	-0.233353	-1.310395	0.000084
H34	H	-0.319905	-1.305773	0.000091
H35	H	-0.207056	-1.269686	-0.084863
H36	H	-0.207071	-1.269682	0.085044
C37	C	-0.408856	-1.737468	0.000121
H38	H	-0.322304	-1.742092	0.000137
H39	H	-0.435140	-1.778193	-0.084819
H40	H	-0.435154	-1.778162	0.085088
H41	H	-0.018782	-1.125232	0.000106
C42	C	0.350866	-1.383447	0.661100
H43	H	0.399625	-1.343585	0.593480
H44	H	0.401904	-1.440122	0.720925
H45	H	0.306617	-1.321191	0.720906
H46	H	0.327490	-1.402557	0.361015
H47	H	0.376566	-0.922635	0.000109
C48	C	0.006888	-1.664360	0.339097
H49	H	-0.041897	-1.704187	0.406720
H50	H	0.051088	-1.726619	0.279265
H51	H	-0.044138	-1.607638	0.279300
C52	C	0.006901	-1.664391	0.661089
H53	H	0.018623	-1.654814	0.763391
H54	H	0.020860	-1.751352	0.635949
H55	H	-0.074371	-1.632376	0.635966
H56	H	-0.210580	-1.644212	0.000117
H57	H	0.382675	-1.161641	0.000067
