data_functionalizedCrystal
_audit_creation_method	'MofGen! by Chris Wilmer'
_symmetry_space_group_name_H-M	'P1'
_symmetry_Int_Tables_number	1
_symmetry_cell_setting	triclinic
loop_
_symmetry_equiv_pos_as_xyz
  x,y,z
_cell_length_a	15.297327
_cell_length_b	13.033293
_cell_length_c	13.033109
_cell_angle_alpha	74.800007
_cell_angle_beta	107.902170
_cell_angle_gamma	107.951422
loop_
_atom_site_label
_atom_site_type_symbol
_atom_site_fract_x
_atom_site_fract_y
_atom_site_fract_z
Zn1	Zn	-0.272005	1.651843	-0.855503
Zn2	Zn	-0.411325	1.604361	-0.702628
Zn3	Zn	-0.272022	1.451644	-0.655309
Zn4	Zn	-0.446608	1.443077	-0.863870
O5	O	-0.350490	1.537731	-0.769327
O6	O	-0.275713	1.796826	-0.851526
O7	O	-0.378087	1.567817	-0.545088
O8	O	-0.140650	1.501657	-0.658561
O9	O	-0.378070	1.761942	-0.739209
O10	O	-0.140637	1.648742	-0.805643
O11	O	-0.275742	1.455616	-0.510323
O12	O	-0.309955	1.299225	-0.666673
O13	O	-0.438205	1.487056	-1.014022
O14	O	-0.438222	1.292932	-0.819902
O15	O	-0.309925	1.640436	-1.007876
O16	O	-0.547376	1.559510	-0.747321
O17	O	-0.573298	1.441015	-0.865785
C18	C	-0.377920	1.256853	-0.739061
C19	C	-0.389679	1.136690	-0.726143
C20	C	-0.344376	1.100373	-0.776074
C21	C	-0.356529	0.976180	-0.762723
C22	C	-0.594399	1.494213	-0.812622
C23	C	-0.698738	1.475698	-0.831190
C24	C	-0.938737	1.670544	-0.637033
C25	C	-0.840705	1.687938	-0.619582
C26	C	-0.805208	1.634880	-0.672482
C27	C	-0.867754	1.564424	-0.742837
C28	C	-0.965796	1.547021	-0.760284
C29	C	-0.832267	1.511357	-0.795733
C30	C	-0.894812	1.440901	-0.866088
C31	C	-0.992844	1.423502	-0.883532
C32	C	-1.028341	1.476560	-0.830631
C33	C	-0.734225	1.528760	-0.778287
C34	C	-0.761284	1.405237	-0.901538
C35	C	-0.859316	1.387843	-0.918989
C36	C	-0.105628	1.581452	-0.725891
C37	C	-0.001282	1.600083	-0.707380
C38	C	-0.377999	1.568087	-1.051266
C39	C	-0.389722	1.581023	-1.171412
C40	C	-0.322954	1.819706	-0.799712
C41	C	-0.311220	1.939867	-0.812661
C42	C	-0.344310	1.531275	-1.207775
C43	C	-0.356425	1.544643	-1.331952
C44	C	-0.323014	1.507568	-0.488480
C45	C	-0.311007	1.494889	-0.368311
H46	H	-0.683308	1.586125	-0.721003
O47	O	-0.453107	1.650543	-1.251946
H48	H	-0.526505	1.616526	-1.241421
H49	H	-0.263157	1.442394	-1.307516
H50	H	-1.108166	1.462404	-0.844840
O51	O	-0.699474	1.653647	-0.653677
H52	H	-0.661945	1.711562	-0.595877
O53	O	-0.773252	1.763936	-0.543715
H54	H	-0.785643	1.732986	-0.460232
O55	O	-0.281077	1.180964	-0.845792
H56	H	-0.281469	1.265864	-0.845342
O57	O	-0.280924	1.461753	-1.127246
H58	H	-0.307403	1.376338	-1.142551
H59	H	-0.404277	1.597133	-1.392748
O60	O	-0.977019	1.727796	-0.580009
H61	H	-1.055697	1.703871	-0.603977
H62	H	-0.404313	0.915331	-0.710086
H63	H	-0.263428	1.000715	-0.865289
H64	H	-1.043768	1.366118	-0.940806
O65	O	-0.926777	1.311833	-0.994852
H66	H	-1.000909	1.308641	-0.998082
O67	O	-0.452976	1.056100	-0.656422
H68	H	-0.452593	0.971199	-0.656882
O69	O	-0.723014	1.348007	-0.958609
H70	H	-0.644336	1.371955	-0.934669
