data_functionalizedCrystal
_audit_creation_method	'MofGen! by Chris Wilmer'
_symmetry_space_group_name_H-M	'P1'
_symmetry_Int_Tables_number	1
_symmetry_cell_setting	triclinic
loop_
_symmetry_equiv_pos_as_xyz
  x,y,z
_cell_length_a	15.297475
_cell_length_b	15.297327
_cell_length_c	15.296720
_cell_angle_alpha	107.319222
_cell_angle_beta	88.382886
_cell_angle_gamma	88.374454
loop_
_atom_site_label
_atom_site_type_symbol
_atom_site_fract_x
_atom_site_fract_y
_atom_site_fract_z
Zn1	Zn	1.116342	0.695081	0.823122
Zn2	Zn	1.116246	0.823682	0.694497
Zn3	Zn	1.005113	0.644908	0.644396
Zn4	Zn	0.946204	0.814903	0.814406
O5	O	1.045976	0.744644	0.744105
O6	O	1.234042	0.736812	0.830675
O7	O	1.126118	0.782644	0.562870
O8	O	1.044561	0.526600	0.650785
O9	O	1.233972	0.831295	0.736174
O10	O	1.126281	0.563461	0.782095
O11	O	1.044469	0.651299	0.526062
O12	O	0.879585	0.642787	0.642333
O13	O	0.944159	0.816332	0.940543
O14	O	0.836305	0.767682	0.767239
O15	O	1.069159	0.728299	0.946946
O16	O	1.068996	0.947482	0.727722
O17	O	0.944066	0.941032	0.815819
C18	C	0.827423	0.698838	0.698404
C19	C	0.733917	0.679267	0.678877
C20	C	1.000147	0.976666	0.776286
C21	C	0.980613	1.075946	0.790099
C22	C	0.380296	0.884531	0.883671
C23	C	0.468149	0.902925	0.902016
C24	C	0.534595	0.847012	0.846233
C25	C	0.513180	0.772701	0.772102
C26	C	0.425318	0.754309	0.753750
C27	C	0.579617	0.716791	0.716312
C28	C	0.558202	0.642480	0.642181
C29	C	0.470348	0.624091	0.623833
C30	C	0.403902	0.680004	0.679616
C31	C	0.667479	0.735183	0.734664
C32	C	0.712501	0.604961	0.604743
C33	C	0.624648	0.586567	0.586398
C34	C	1.000098	0.776933	0.977057
C35	C	0.980548	0.790693	1.076327
C36	C	1.265382	0.790629	0.789986
C37	C	1.358880	0.810225	0.809537
C38	C	1.092003	0.511723	0.711823
C39	C	1.111617	0.412466	0.698067
C40	C	1.185880	1.369169	0.645759
C41	C	1.204235	1.275889	0.632777
C42	C	1.148331	1.225899	0.672106
C43	C	1.074069	1.269198	0.724420
C44	C	1.055710	1.362485	0.737398
C45	C	1.018160	1.219215	0.763745
C46	C	0.943898	1.262513	0.816059
C47	C	0.925542	1.355791	0.829035
C48	C	0.981446	1.405781	0.789706
C49	C	1.036520	1.125928	0.750767
C50	C	0.906349	1.119243	0.842406
C51	C	0.887995	1.212523	0.855389
C52	C	1.091736	0.712426	0.512061
C53	C	1.111499	0.698449	0.412791
C54	C	1.185768	0.646151	1.369491
C55	C	1.204141	0.633225	1.276224
C56	C	1.148244	0.672591	1.226245
C57	C	1.073971	0.724884	1.269543
C58	C	1.055600	0.737817	1.362821
C59	C	1.018076	0.764257	1.219575
C60	C	0.943803	0.816551	1.262873
C61	C	0.925434	0.829480	1.356142
C62	C	0.981331	0.790115	1.406121
C63	C	1.036448	0.751324	1.126296
C64	C	0.906280	0.842991	1.119626
C65	C	0.887906	0.855916	1.212894
H66	H	0.606128	0.861993	0.861175
C67	C	0.782159	0.821200	0.820480
C68	C	0.691014	0.816857	0.816149
H69	H	0.796684	0.871629	0.870788
H70	H	0.805801	0.766065	0.828341
H71	H	0.805800	0.828867	0.765253
H72	H	0.667373	0.809183	0.871374
H73	H	0.667361	0.872006	0.808295
C74	C	1.260189	0.500993	1.157151
C75	C	1.285762	0.575715	1.228638
H76	H	1.310580	0.465482	1.127773
H77	H	1.223112	0.464226	1.181154
H78	H	1.229546	0.522600	1.114037
H79	H	1.316401	0.554108	1.271756
H80	H	1.322855	0.612488	1.204635
C81	C	1.280750	1.234855	0.486182
C82	C	1.285864	1.228305	0.575282
H83	H	1.331153	1.205484	0.450690
H84	H	1.229831	1.205959	0.459133
H85	H	1.277814	1.297569	0.488297
H86	H	1.288794	1.165592	0.573168
H87	H	1.336797	1.257199	0.602338
H88	H	0.865066	1.391038	0.871621
C89	C	0.831928	1.331585	0.987637
C90	C	0.806365	1.260124	0.912886
H91	H	0.781532	1.360974	1.023128
H92	H	0.868978	1.307558	1.024417
H93	H	0.862599	1.374694	0.966057
H94	H	0.775699	1.217012	0.934465
H95	H	0.769300	1.284150	0.876099
C96	C	0.876696	0.973287	0.863215
C97	C	0.844896	1.064304	0.885647
H98	H	0.838761	0.939369	0.889912
H99	H	0.879247	0.947149	0.798517
H100	H	0.933642	0.971616	0.886018
H101	H	0.787952	1.065975	0.862838
H102	H	0.842335	1.090449	0.950358
C103	C	1.215395	0.625288	1.515441
C104	C	1.247205	0.602889	1.424430
H105	H	1.253326	0.598574	1.549356
H106	H	1.212838	0.689981	1.541603
H107	H	1.158449	0.602485	1.517088
H108	H	1.304148	0.625699	1.422783
H109	H	1.249772	0.538183	1.398261
H110	H	1.163279	1.149947	0.661531
C111	C	1.215489	1.515121	0.624917
C112	C	1.247299	1.424108	0.602495
H113	H	1.253406	1.549035	0.598197
H114	H	1.158538	1.516781	0.602142
H115	H	1.212963	1.541276	0.689621
H116	H	1.249819	1.397951	0.537790
H117	H	1.304265	1.422443	0.625265
H118	H	1.096921	0.708746	1.091052
H119	H	1.163209	0.662064	1.150302
H120	H	0.766603	0.559433	0.559318
C121	C	0.731212	0.873538	1.217865
C122	C	0.806270	0.913401	1.260496
H123	H	0.680815	0.909025	1.247259
H124	H	0.734152	0.871481	1.155174
H125	H	0.727761	0.813077	1.222267
H126	H	0.809725	0.973860	1.256089
H127	H	0.803329	0.915469	1.323204
C128	C	1.113029	1.084892	0.604170
C129	C	1.118148	1.078343	0.693271
H130	H	1.163430	1.055521	0.568676
H131	H	1.062109	1.055996	0.577124
H132	H	1.110092	1.147605	0.606285
H133	H	1.121078	1.015630	0.691156
H134	H	1.169082	1.107237	0.720323
H135	H	0.326190	0.930052	0.929077
H136	H	0.966508	1.481738	0.800276
H137	H	0.966375	0.800636	1.482068
H138	H	0.864962	0.872070	1.391395
H139	H	0.332363	0.665029	0.664685
C140	C	0.414816	1.029790	1.028591
C141	C	0.491687	0.984600	0.983501
H142	H	0.429349	1.080211	1.078903
H143	H	0.381486	1.051310	0.987194
H144	H	0.381486	0.988496	1.050271
H145	H	0.525014	1.025891	0.961815
H146	H	0.525031	0.963080	1.024906
C147	C	0.523678	0.497214	0.497259
C148	C	0.446807	0.542411	0.542345
H149	H	0.509143	0.446786	0.446955
H150	H	0.557007	0.538495	0.475576
H151	H	0.557009	0.475696	0.538667
H152	H	0.413479	0.563935	0.500937
H153	H	0.413465	0.501122	0.564027
H154	H	0.860765	0.875047	1.078934
H155	H	0.607199	0.526062	0.526039
