data_functionalizedCrystal
_audit_creation_method	'MofGen! by Chris Wilmer'
_symmetry_space_group_name_H-M	'P1'
_symmetry_Int_Tables_number	1
_symmetry_cell_setting	triclinic
loop_
_symmetry_equiv_pos_as_xyz
  x,y,z
_cell_length_a	14.628931
_cell_length_b	20.875641
_cell_length_c	20.875641
_cell_angle_alpha	89.846015
_cell_angle_beta	57.589514
_cell_angle_gamma	57.590446
loop_
_atom_site_label
_atom_site_type_symbol
_atom_site_fract_x
_atom_site_fract_y
_atom_site_fract_z
Zr1	Zr	0.940333	-0.063052	0.639074
O2	O	1.154160	-0.173585	0.528539
O3	O	0.742540	-0.029168	0.672959
O4	O	0.948350	-0.168288	0.667658
O5	O	0.936435	0.075274	0.538022
O6	O	0.936436	-0.164109	0.777397
O7	O	0.948350	-0.034465	0.533840
O8	O	0.568279	0.084750	0.786881
O9	O	1.304592	-0.173585	0.528539
O10	O	0.809065	-0.011599	0.769308
O11	O	0.809065	0.067180	0.690532
O12	O	1.051380	-0.096615	0.684290
O13	O	1.051380	-0.017836	0.605514
Zr14	Zr	0.902328	0.118634	0.820766
Zr15	Zr	0.921331	-0.056388	0.814096
Zr16	Zr	0.921330	0.111970	0.645744
Zr17	Zr	1.180255	-0.063053	0.639074
Zr18	Zr	0.662407	0.118634	0.820766
O19	O	1.100122	0.084749	0.786881
O20	O	1.127141	-0.164109	0.777397
O21	O	1.127140	0.075274	0.538022
O22	O	0.688502	0.229166	0.931302
O23	O	0.715521	-0.019693	0.921818
O24	O	0.715520	0.219691	0.682443
O25	O	0.906227	-0.019693	0.921818
O26	O	0.894311	0.223869	0.792183
O27	O	0.906226	0.219691	0.682443
O28	O	0.894312	0.090047	0.926000
O29	O	1.289488	-0.168288	0.667658
O30	O	0.553174	0.223869	0.792183
O31	O	0.538070	0.229166	0.931302
O32	O	0.553174	0.090047	0.926000
O33	O	1.289487	-0.034466	0.533840
O34	O	1.274383	-0.029169	0.672960
O35	O	0.791281	0.152196	0.775550
O36	O	0.791282	0.073417	0.854327
O37	O	1.033597	-0.011599	0.769309
O38	O	1.033596	0.067180	0.690532
C39	C	0.621226	0.027791	0.729920
C40	C	0.519373	0.027791	0.729920
C41	C	0.945100	0.019455	0.510994
C42	C	0.953167	0.016626	0.436693
C43	C	0.897561	0.246717	0.738263
C44	C	0.889494	0.321018	0.741095
C45	C	0.473964	-0.011289	0.768998
C46	C	0.368693	-0.011290	0.768999
C47	C	1.221436	0.027790	0.729921
C48	C	1.323289	0.027790	0.729921
C49	C	0.945100	-0.191135	0.721577
C50	C	0.953168	-0.265437	0.718746
C51	C	1.012186	0.311550	0.698048
C52	C	1.004599	0.381367	0.700705
C53	C	0.874317	0.460651	0.746414
C54	C	0.751615	0.470118	0.789462
C55	C	0.759205	0.400302	0.786800
C56	C	0.838056	0.674214	0.759131
C57	C	0.830475	0.744031	0.761792
C58	C	1.083460	0.655275	0.673033
C59	C	1.091037	0.585462	0.670379
C60	C	0.968336	0.594934	0.713424
N61	N	0.866558	0.532016	0.749134
N62	N	0.976097	0.523570	0.710699
C63	C	0.830474	0.059670	0.446162
C64	C	0.838062	0.057010	0.376345
C65	C	0.968344	0.011301	0.297059
C66	C	1.091046	-0.031745	0.287592
C67	C	1.083456	-0.029079	0.357408
C68	C	1.004607	-0.001425	0.083496
C69	C	1.012187	-0.004089	0.013678
C70	C	0.759203	0.084668	0.102437
C71	C	0.751625	0.087325	0.172250
C72	C	0.874326	0.044283	0.162777
N73	N	0.976104	0.008578	0.225694
N74	N	0.866564	0.047010	0.234142
C75	C	0.897562	0.036126	0.948846
C76	C	0.889495	0.038955	1.023148
C77	C	0.597457	0.036127	0.948846
C78	C	0.487537	0.038956	1.023147
C79	C	0.597456	0.246717	0.738263
C80	C	0.487536	0.321019	0.741095
C81	C	0.573687	0.255053	0.957189
C82	C	0.455700	0.332183	1.034322
C83	C	1.268975	-0.199471	0.502651
C84	C	1.386962	-0.276602	0.425519
C85	C	1.245205	0.019455	0.510995
C86	C	1.355125	0.016626	0.436693
C87	C	1.245206	-0.191136	0.721577
C88	C	1.355126	-0.265437	0.718746
C89	C	0.445201	-0.004100	1.013661
C90	C	0.341935	-0.001459	1.083468
C91	C	0.281000	0.044244	1.162760
C92	C	0.323346	0.087302	1.172245
C93	C	0.426616	0.084655	1.102439
C94	C	0.426632	0.400296	0.786803
C95	C	0.323364	0.470117	0.789461
C96	C	0.280993	0.460659	0.746414
C97	C	0.341907	0.381373	0.700700
C98	C	0.445181	0.311553	0.698038
C99	C	0.400291	0.327283	1.111672
C100	C	0.289443	0.399749	1.184153
C101	C	0.233999	0.477114	1.179282
C102	C	0.289418	0.482013	1.101924
C103	C	0.400271	0.409548	1.029444
C104	C	1.442382	-0.271702	0.348168
C105	C	1.553260	-0.344167	0.275687
C106	C	1.608709	-0.421533	0.280558
C107	C	1.553284	-0.426431	0.357917
C108	C	1.442414	-0.353966	0.430396
C109	C	1.397472	0.059674	0.446179
C110	C	1.500766	0.057013	0.376372
C111	C	1.561704	0.011308	0.297079
C112	C	1.519354	-0.031746	0.287595
C113	C	1.416069	-0.029089	0.357401
C114	C	1.397462	-0.255952	0.761802
C115	C	1.500729	-0.325759	0.759158
C116	C	1.561664	-0.405050	0.713452
C117	C	1.519318	-0.414534	0.670395
C118	C	1.416047	-0.344727	0.673044
H119	H	0.513014	-0.044743	0.802458
Br120	Br	1.558181	-0.312870	0.817594
H121	H	0.724384	0.096895	0.510717
Br122	Br	0.653648	0.851637	0.823864
H123	H	0.738153	0.092062	0.384063
Br124	Br	0.303625	-0.067066	0.824757
Br125	Br	0.083554	0.575453	1.277656
Br126	Br	1.314795	0.121707	0.553782
Br127	Br	0.214252	0.393081	1.289128
H128	H	0.480311	0.061250	0.696466
Br129	Br	0.475449	0.416213	0.924472
Br130	Br	0.284388	0.368550	0.642283
H131	H	0.273778	0.534668	0.826689
Br132	Br	1.628549	-0.531434	0.364513
H133	H	0.494815	-0.041327	0.949103
Br134	Br	0.484104	0.413155	0.845236
H135	H	0.196900	0.517517	0.748588
Br136	Br	1.314786	-0.148351	0.823838
Br137	Br	0.527819	0.203965	0.636002
H138	H	1.568986	-0.068958	0.223025
H139	H	0.244259	0.545013	1.097970
H140	H	1.397293	-0.357966	0.493376
H141	H	1.397243	-0.208714	0.344186
Br142	Br	0.592687	0.413153	0.845217
H143	H	1.645805	0.009152	0.240245
H144	H	1.568948	-0.479102	0.633182
Br145	Br	1.358615	-0.357615	0.614597
Br146	Br	1.759177	-0.519872	0.182184
Br147	Br	1.558215	0.115451	0.389264
H148	H	1.645754	-0.461884	0.711301
Br149	Br	0.388376	0.083552	0.674144
Br150	Br	1.189006	0.203953	0.636019
H151	H	1.381594	-0.064143	0.349666
H152	H	1.598369	-0.340163	0.212706
H153	H	0.645537	0.534677	0.826676
Br154	Br	1.171122	0.368511	0.642246
Br155	Br	0.484051	0.143099	1.115328
H156	H	1.197127	0.520908	0.633159
H157	H	1.183356	0.647572	0.637988
H158	H	0.659307	0.119710	0.110141
Br159	Br	0.671532	0.687078	0.817547
H160	H	0.645537	0.124530	0.236805
Br161	Br	1.189012	-0.066139	-0.093929
H162	H	1.104520	-0.036487	0.075771
H163	H	0.273717	0.124512	1.236814
Br164	Br	1.267859	-0.093771	0.179990
Br165	Br	1.249973	-0.087492	0.344556
Br166	Br	0.475519	0.222296	1.118306
H167	H	0.307471	-0.036521	1.075729
H168	H	0.196911	0.046393	1.219594
