data_functionalizedCrystal
_audit_creation_method	'MofGen! by Chris Wilmer'
_symmetry_space_group_name_H-M	'P1'
_symmetry_Int_Tables_number	1
_symmetry_cell_setting	triclinic
loop_
_symmetry_equiv_pos_as_xyz
  x,y,z
_cell_length_a	17.640112
_cell_length_b	10.686285
_cell_length_c	10.686551
_cell_angle_alpha	80.915481
_cell_angle_beta	82.289674
_cell_angle_gamma	82.237776
loop_
_atom_site_label
_atom_site_type_symbol
_atom_site_fract_x
_atom_site_fract_y
_atom_site_fract_z
Zn1	Zn	1.227280	0.081885	0.311757
Zn2	Zn	1.227218	0.310484	0.083273
Zn3	Zn	1.089657	0.139536	0.140701
Zn4	Zn	1.107968	0.329885	0.331161
O5	O	1.163031	0.215447	0.216723
O6	O	1.334774	0.079962	0.249294
O7	O	1.201281	0.303815	-0.084438
O8	O	1.100275	-0.043442	0.179305
O9	O	1.334728	0.247913	0.081427
O10	O	1.201387	-0.085798	0.304979
O11	O	1.100215	0.178221	-0.042246
O12	O	0.984583	0.197033	0.198120
O13	O	1.131484	0.280980	0.503916
O14	O	0.998036	0.336882	0.338050
O15	O	1.219142	0.098775	0.489660
O16	O	1.219036	0.488388	0.100243
O17	O	1.131424	0.502642	0.282365
C18	C	1.177232	0.540968	0.187199
C19	C	1.183380	0.680202	0.174589
C20	C	0.963436	0.275320	0.276423
C21	C	0.878051	0.300961	0.301990
C22	C	1.177363	0.185611	0.543520
C23	C	1.183470	0.172896	0.682782
C24	C	0.562104	0.020633	0.022505
C25	C	0.481874	0.044750	0.046544
C26	C	0.495935	0.190620	0.191957
C27	C	0.576168	0.166510	0.167935
C28	C	0.609246	0.081516	0.083207
C29	C	0.623309	0.227393	0.228637
C30	C	0.703535	0.203290	0.204611
C31	C	0.736620	0.118303	0.119884
C32	C	0.689472	0.057413	0.059181
C33	C	0.590230	0.312394	0.313357
C34	C	0.637371	0.373277	0.374059
C35	C	0.717599	0.349167	0.350041
C36	C	0.750683	0.264180	0.265314
C37	C	0.764747	0.410058	0.410744
C38	C	0.844973	0.385954	0.386718
C39	C	0.830909	0.240077	0.241289
C40	C	1.363405	0.155342	0.156790
C41	C	1.448792	0.129729	0.131250
C42	C	1.148795	-0.111353	0.246383
C43	C	1.142729	-0.250615	0.259023
C44	C	1.148795	0.245065	-0.108808
C45	C	1.142821	0.257382	-0.248082
H46	H	0.857843	0.170846	0.172315
H47	H	1.222950	0.090836	0.730135
H48	H	0.443493	-0.004845	-0.002884
O49	O	0.463759	0.272992	0.274422
C50	C	0.417787	0.208323	0.375788
H51	H	0.437997	0.101677	0.385389
H52	H	0.423101	0.245247	0.468287
H53	H	0.355091	0.225753	0.355658
H54	H	0.524904	0.332016	0.332916
O55	O	1.230624	0.736414	0.076868
C56	C	1.306981	0.678934	0.084369
H57	H	1.306498	0.579024	0.140600
H58	H	1.337326	0.672440	-0.015926
H59	H	1.338862	0.738856	0.134493
H60	H	0.589038	-0.048598	-0.046469
H61	H	1.103349	0.339444	0.704569
O62	O	0.605110	0.455756	0.456369
C63	C	0.524191	0.464004	0.464533
H64	H	0.507201	0.374285	0.435710
H65	H	0.498207	0.473229	0.566711
H66	H	0.501732	0.551165	0.397782
H67	H	0.716406	-0.011818	-0.009792
H68	H	0.801945	0.098683	0.100322
O69	O	1.095655	0.693087	0.356932
C70	C	1.119261	0.708455	0.473974
H71	H	1.153048	0.794351	0.459272
H72	H	1.066445	0.724374	0.546283
H73	H	1.157378	0.619071	0.511013
H74	H	0.883357	0.435531	0.436149
O75	O	0.732570	0.492438	0.493201
C76	C	0.686593	0.427782	0.594569
H77	H	0.706801	0.321135	0.604184
H78	H	0.691904	0.464716	0.687063
H79	H	0.623898	0.445211	0.574431
