data_functionalizedCrystal
_audit_creation_method	'MofGen! by Chris Wilmer'
_symmetry_space_group_name_H-M	'P1'
_symmetry_Int_Tables_number	1
_symmetry_cell_setting	triclinic
loop_
_symmetry_equiv_pos_as_xyz
  x,y,z
_cell_length_a	12.594517
_cell_length_b	12.594509
_cell_length_c	12.594516
_cell_angle_alpha	90.030839
_cell_angle_beta	89.986677
_cell_angle_gamma	89.978673
loop_
_atom_site_label
_atom_site_type_symbol
_atom_site_fract_x
_atom_site_fract_y
_atom_site_fract_z
Zn1	Zn	1.627286	-0.601841	0.423716
Zn2	Zn	1.627184	-0.423854	0.601726
Zn3	Zn	1.449290	-0.423870	0.423761
Zn4	Zn	1.449280	-0.601784	0.601652
O5	O	1.538260	-0.512837	0.512714
O6	O	1.776218	-0.578248	0.447341
O7	O	1.603548	-0.274910	0.578169
O8	O	1.472948	-0.447508	0.274809
O9	O	1.776144	-0.447482	0.578124
O10	O	1.603721	-0.578263	0.274776
O11	O	1.472849	-0.274922	0.447419
O12	O	1.300342	-0.447453	0.447347
O13	O	1.472931	-0.750738	0.577998
O14	O	1.300335	-0.578166	0.578042
O15	O	1.603711	-0.750779	0.447269
O16	O	1.603538	-0.447427	0.750662
O17	O	1.472832	-0.578151	0.750608
C18	C	1.261719	-0.512806	0.512692
C19	C	1.143413	-0.512818	0.512709
C20	C	1.074133	-0.441858	0.441526
C21	C	1.003327	-0.415674	0.538615
C22	C	1.003421	-0.539020	0.415668
C23	C	1.074165	-0.486582	0.609849
C24	C	1.074266	-0.609974	0.486836
C25	C	1.003491	-0.583826	0.583991
C26	C	1.538331	-0.790458	0.512621
C27	C	1.538361	-0.908764	0.512581
C28	C	1.467252	-0.977994	0.583644
C29	C	1.564374	-1.048784	0.609650
C30	C	1.441315	-1.048774	0.486510
C31	C	1.635534	-0.977995	0.538638
C32	C	1.512410	-0.977979	0.415453
C33	C	1.609599	-1.048736	0.441422
C34	C	1.815881	-0.512869	0.512736
C35	C	1.934186	-0.512883	0.512745
C36	C	1.538202	-0.512804	0.789255
C37	C	1.538275	-0.512826	0.907560
C38	C	1.538250	-0.236296	0.512730
C39	C	1.538426	-0.117991	0.512470
C40	C	1.538347	-0.512893	0.235093
C41	C	1.538384	-0.512917	0.116787
C42	C	1.609496	-0.441848	1.047568
C43	C	1.512366	-0.415690	0.976883
C44	C	1.635393	-0.538936	0.976673
C45	C	1.441203	-0.486709	1.047661
C46	C	1.564296	-0.610001	1.047457
C47	C	1.467099	-0.583879	0.976805
H48	H	1.105152	-0.381777	0.381389
C49	C	1.385700	-0.665013	0.935081
N50	N	1.324386	-0.726117	0.903650
C51	C	1.690966	-1.090437	0.360171
N52	N	1.752255	-1.121848	0.298976
C53	C	1.690697	-0.360648	1.089552
N54	N	1.751851	-0.299485	1.121178
C55	C	0.961444	-0.568929	0.304779
N56	N	0.929832	-0.591449	0.221254
C57	C	1.482667	-0.935922	0.304585
N58	N	1.460253	-0.904242	0.221078
H59	H	1.586294	-0.692118	1.078484
H60	H	1.717655	-0.947035	0.560736
H61	H	0.972668	-0.643862	0.644273
H62	H	1.105110	-0.464357	0.691955
H63	H	1.105449	-0.692084	0.464899
C64	C	1.386092	-0.936007	0.664958
N65	N	1.324972	-0.904373	0.726207
C66	C	1.594073	-1.090806	0.720551
N67	N	1.616434	-1.122455	0.804083
H68	H	0.972169	-0.333539	0.560522
C69	C	1.330405	-1.090770	0.456778
N70	N	1.246865	-1.122397	0.434391
H71	H	1.490396	-0.333549	0.945879
C72	C	1.330279	-0.456791	1.089602
N73	N	1.246734	-0.434252	1.121195
H74	H	1.717478	-0.560981	0.945493
