data_functionalizedCrystal
_audit_creation_method	'MofGen! by Chris Wilmer'
_symmetry_space_group_name_H-M	'P1'
_symmetry_Int_Tables_number	1
_symmetry_cell_setting	triclinic
loop_
_symmetry_equiv_pos_as_xyz
  x,y,z
_cell_length_a	12.827893
_cell_length_b	12.827893
_cell_length_c	12.827893
_cell_angle_alpha	90.002525
_cell_angle_beta	90.003976
_cell_angle_gamma	90.003290
loop_
_atom_site_label
_atom_site_type_symbol
_atom_site_fract_x
_atom_site_fract_y
_atom_site_fract_z
Zn1	Zn	1.597600	-0.416214	0.590884
Zn2	Zn	1.597577	-0.590923	0.416159
Zn3	Zn	1.422888	-0.416196	0.416158
Zn4	Zn	1.422863	-0.590913	0.590859
O5	O	1.510232	-0.503561	0.503515
O6	O	1.743833	-0.439400	0.567717
O7	O	1.574405	-0.567742	0.269923
O8	O	1.446083	-0.269963	0.439345
O9	O	1.743816	-0.567758	0.439348
O10	O	1.574443	-0.269975	0.567716
O11	O	1.446061	-0.439371	0.269922
O12	O	1.276648	-0.439362	0.439321
O13	O	1.446041	-0.567742	0.737099
O14	O	1.276630	-0.567725	0.567674
O15	O	1.574419	-0.439391	0.737117
O16	O	1.574381	-0.737158	0.439324
O17	O	1.446020	-0.737150	0.567675
C18	C	1.238722	-0.503541	0.503495
C19	C	1.122569	-0.503558	0.503512
C20	C	1.510224	-0.775071	0.503520
C21	C	1.510316	-0.891224	0.503557
C22	C	1.510230	-0.503567	0.776085
C23	C	1.510229	-0.503570	0.892238
C24	C	1.070803	-0.567175	0.566926
C25	C	0.950752	-0.567194	0.566945
C26	C	1.782802	-0.503582	0.503536
C27	C	1.898955	-0.503591	0.503544
C28	C	1.510268	-0.230991	0.503533
C29	C	1.510284	-0.114838	0.503541
C30	C	1.446799	0.056997	0.440038
C31	C	1.446781	-0.063053	0.440029
C32	C	1.573746	-0.440070	1.064076
C33	C	1.573748	-0.440066	0.944026
C34	C	1.510226	-0.503579	1.232005
C35	C	1.510226	-0.503576	1.115852
H36	H	0.906235	-0.621662	0.621234
O37	O	1.575052	-0.061778	0.568574
C38	C	1.552250	-0.088396	0.672745
H39	H	1.468790	-0.118464	0.678038
H40	H	1.561194	-0.016572	0.724316
H41	H	1.608326	-0.151674	0.700117
H42	H	1.392436	0.101542	0.385660
O43	O	1.445398	-0.568587	0.945225
C44	C	1.468220	-0.672765	0.918643
H45	H	1.508323	-0.675001	0.839373
H46	H	1.392792	-0.719623	0.915006
H47	H	1.521995	-0.707913	0.980052
O48	O	1.638774	-0.375317	1.117166
C49	C	1.742947	-0.398118	1.090556
H50	H	1.748241	-0.481574	1.060478
H51	H	1.794511	-0.389186	1.162387
H52	H	1.770326	-0.342034	1.027289
H53	H	1.392397	-0.107581	0.385653
H54	H	1.564686	0.064228	0.557927
H55	H	1.628124	-0.385691	0.899500
H56	H	1.455851	-0.557948	1.071302
H57	H	1.115361	-0.621623	0.621208
O58	O	0.952003	-0.438721	0.438617
C59	C	0.925365	-0.461359	0.334409
H60	H	0.895296	-0.544811	0.328977
H61	H	0.997180	-0.452334	0.282849
H62	H	0.862082	-0.405240	0.307136
H63	H	1.078011	-0.449102	0.449238
