data_functionalizedCrystal
_audit_creation_method	'MofGen! by Chris Wilmer'
_symmetry_space_group_name_H-M	'P1'
_symmetry_Int_Tables_number	1
_symmetry_cell_setting	triclinic
loop_
_symmetry_equiv_pos_as_xyz
  x,y,z
_cell_length_a	17.038272
_cell_length_b	17.038272
_cell_length_c	16.098538
_cell_angle_alpha	92.920305
_cell_angle_beta	87.069734
_cell_angle_gamma	91.111556
loop_
_atom_site_label
_atom_site_type_symbol
_atom_site_fract_x
_atom_site_fract_y
_atom_site_fract_z
O1	O	1.052033	0.167266	-0.069152
O2	O	1.552033	0.667266	0.430848
O3	O	0.824222	0.164557	-0.069177
O4	O	1.324222	0.664557	0.430823
O5	O	0.936773	0.052006	-0.069158
O6	O	1.436773	0.552006	0.430842
O7	O	0.939482	0.279817	-0.069171
O8	O	1.439482	0.779817	0.430829
O9	O	0.930197	0.058553	0.069354
O10	O	1.430197	0.558553	0.569354
O11	O	0.817646	0.171104	0.069335
O12	O	1.317646	0.671104	0.569335
O13	O	1.045456	0.173813	0.069359
O14	O	1.545456	0.673813	0.569359
Zn15	Zn	0.930507	0.173498	0.091339
Zn16	Zn	1.430507	0.673498	0.591339
Zn17	Zn	0.939172	0.164872	-0.091156
Zn18	Zn	1.439172	0.664872	0.408844
O19	O	0.932905	0.286364	0.069341
O20	O	1.432905	0.786364	0.569341
C21	C	0.791641	0.165367	0.000076
C22	C	1.291641	0.665367	0.500076
C23	C	0.704358	0.158019	0.000067
C24	C	1.204358	0.658019	0.500067
C25	C	0.658749	0.225482	0.000064
C26	C	1.158749	0.725482	0.500064
C27	C	0.576737	0.218574	0.000075
C28	C	1.076737	0.718574	0.500075
C29	C	0.540335	0.144201	0.000085
C30	C	1.040335	0.644201	0.500085
C31	C	0.585950	0.076733	0.000090
C32	C	1.085950	0.576733	0.500090
C33	C	0.667961	0.083642	0.000084
C34	C	1.167961	0.583642	0.500084
C35	C	0.292946	0.119792	0.000108
C36	C	0.792946	0.619792	0.500108
C37	C	0.210929	0.112887	0.000112
C38	C	0.710929	0.612887	0.500112
C39	C	0.201722	0.254729	0.000098
C40	C	0.701722	0.754729	0.500098
C41	C	0.283734	0.261632	0.000088
C42	C	0.783734	0.761632	0.500088
C43	C	0.329342	0.194164	0.000098
C44	C	0.829342	0.694164	0.500098
C45	C	0.456505	0.137138	0.000094
C46	C	0.956505	0.637138	0.500094
C47	C	0.413170	0.201228	0.000094
C48	C	0.913170	0.701228	0.500094
C49	C	0.931022	0.025987	0.000097
C50	C	1.431022	0.525987	0.500097
C51	C	0.923674	-0.061297	0.000096
C52	C	1.423674	0.438703	0.500096
C53	C	0.991137	-0.106906	0.000104
C54	C	1.491137	0.393094	0.500104
C55	C	0.984229	-0.188918	0.000096
C56	C	1.484229	0.311082	0.500096
C57	C	0.909856	-0.225320	0.000085
C58	C	1.409856	0.274680	0.500085
C59	C	0.842388	-0.179705	0.000074
C60	C	1.342388	0.320295	0.500074
C61	C	0.849297	-0.097694	0.000077
C62	C	1.349297	0.402306	0.500077
C63	C	0.885446	-0.472708	0.000071
C64	C	1.385446	0.027292	0.500071
C65	C	0.878541	-0.554725	0.000071
C66	C	1.378541	-0.054725	0.500071
C67	C	1.020383	-0.563932	0.000091
C68	C	1.520383	-0.063932	0.500091
C69	C	1.027286	-0.481920	0.000098
C70	C	1.527286	0.018080	0.500098
C71	C	0.959818	-0.436312	0.000083
C72	C	1.459818	0.063688	0.500083
C73	C	0.902792	-0.309149	0.000079
C74	C	1.402792	0.190851	0.500079
C75	C	0.966882	-0.352485	0.000084
C76	C	1.466882	0.147515	0.500084
C77	C	1.078037	0.173002	0.000105
C78	C	1.578037	0.673002	0.500105
C79	C	1.165320	0.180351	0.000108
C80	C	1.665320	0.680351	0.500108
C81	C	0.938656	0.312383	0.000083
C82	C	1.438656	0.812383	0.500083
C83	C	0.946005	0.399666	0.000079
C84	C	1.446005	0.899666	0.500079
N85	N	0.924599	0.179385	0.215887
N86	N	1.424599	0.679385	0.715887
N87	N	0.945085	0.158979	-0.215705
N88	N	1.445085	0.658979	0.284295
C89	C	0.972390	0.131633	0.259480
C90	C	1.472390	0.631633	0.759480
C91	C	0.968265	0.135759	0.346668
C92	C	1.468265	0.635759	0.846668
C93	C	0.916352	0.187642	0.390262
C94	C	1.416352	0.687642	0.890262
C95	C	0.868556	0.235395	0.346663
C96	C	1.368556	0.735395	0.846663
C97	C	0.872678	0.231265	0.259476
C98	C	1.372678	0.731265	0.759476
C99	C	0.901410	0.202602	0.653510
C100	C	1.401410	0.702602	1.153510
C101	C	0.897294	0.206731	0.740702
C102	C	1.397294	0.706731	1.240702
C103	C	0.997003	0.107093	0.740702
C104	C	1.497003	0.607093	1.240702
C105	C	1.001123	0.102971	0.653513
C106	C	1.501123	0.602971	1.153513
C107	C	0.953324	0.150721	0.609922
C108	C	1.453324	0.650721	1.109922
C109	C	0.912136	0.191862	0.479383
C110	C	1.412136	0.691862	0.979383
C111	C	0.957536	0.146496	0.520803
C112	C	1.457536	0.646496	1.020803
H113	H	0.181294	0.052321	0.000118
H114	H	0.681294	0.552321	0.500118
Cl115	Cl	0.704503	0.318984	0.000047
Cl116	Cl	1.204503	0.818984	0.500047
H117	H	0.869870	0.234107	0.514884
H118	H	1.369870	0.734107	1.014884
H119	H	0.781832	-0.209350	0.000060
H120	H	1.281832	0.290650	0.500060
Cl121	Cl	0.410737	0.043643	0.000102
Cl122	Cl	0.910737	0.543643	0.500102
Cl123	Cl	0.764483	-0.040357	0.000064
Cl124	Cl	1.264483	0.459643	0.500064
H125	H	1.035918	0.068216	0.776202
H126	H	1.535918	0.568216	1.276202
H127	H	1.087848	-0.452287	0.000107
H128	H	1.587848	0.047713	0.500107
H129	H	1.051699	-0.077274	0.000118
H130	H	1.551699	0.422726	0.500118
H131	H	1.075312	-0.601075	0.000101
H132	H	1.575312	-0.101075	0.500101
H133	H	0.862492	0.241484	0.618024
H134	H	1.362492	0.741484	1.118024
Cl135	Cl	1.060377	-0.306721	0.000093
Cl136	Cl	1.560377	0.193279	0.500093
Cl137	Cl	0.812591	0.291296	0.204674
Cl138	Cl	1.312591	0.791296	0.704674
H139	H	0.817975	-0.584359	0.000075
H140	H	1.317975	-0.084359	0.500075
Cl141	Cl	0.800628	-0.415384	0.000050
Cl142	Cl	1.300628	0.084616	0.500050
H143	H	0.539605	0.273510	0.000072
H144	H	1.039605	0.773510	0.500072
H145	H	0.313367	0.322194	0.000070
H146	H	0.813367	0.822194	0.500070
H147	H	0.999800	0.104250	0.485307
H148	H	1.499800	0.604250	0.985307
Cl149	Cl	0.540188	-0.016765	0.000107
Cl150	Cl	1.040188	0.483235	0.500107
Cl151	Cl	0.144382	0.339541	0.000089
Cl152	Cl	0.644382	0.839541	0.500089
H153	H	1.014666	0.089389	0.223992
H154	H	1.514666	0.589389	0.723992
Cl155	Cl	0.350271	0.034973	0.000120
Cl156	Cl	0.850271	0.534973	0.500120
Cl157	Cl	0.809298	-0.354918	0.000061
Cl158	Cl	1.309298	0.145082	0.500061
H159	H	1.039165	-0.226050	0.000104
H160	H	1.539165	0.273950	0.500104
Cl161	Cl	1.028345	0.075727	0.401473
Cl162	Cl	1.528345	0.575727	0.901473
H163	H	1.043394	0.060724	0.618021
H164	H	1.543394	0.560724	1.118021
H165	H	0.855019	0.248983	0.776192
H166	H	1.355019	0.748983	1.276192
Cl167	Cl	0.803289	0.300616	0.401465
Cl168	Cl	1.303289	0.800616	0.901465
H169	H	0.442811	0.261782	0.000091
H170	H	0.942811	0.761782	0.500091
H171	H	0.705095	0.028706	0.000086
H172	H	1.205095	0.528706	0.500086
