data_functionalizedCrystal
_audit_creation_method	'MofGen! by Chris Wilmer'
_symmetry_space_group_name_H-M	'P1'
_symmetry_Int_Tables_number	1
_symmetry_cell_setting	triclinic
loop_
_symmetry_equiv_pos_as_xyz
  x,y,z
_cell_length_a	16.109318
_cell_length_b	17.019294
_cell_length_c	14.586319
_cell_angle_alpha	93.883317
_cell_angle_beta	90.000556
_cell_angle_gamma	83.431560
loop_
_atom_site_label
_atom_site_type_symbol
_atom_site_fract_x
_atom_site_fract_y
_atom_site_fract_z
O1	O	1.103031	0.101460	0.084173
O2	O	0.860960	0.114065	0.085186
O3	O	0.988748	-0.007072	0.075609
O4	O	0.975243	0.222597	0.093750
O5	O	0.988738	-0.007074	-0.076872
O6	O	0.860950	0.114062	-0.067295
O7	O	1.103021	0.101458	-0.068308
Cu8	Cu	0.981984	0.107759	-0.081724
Cu9	Cu	0.981996	0.107763	0.098602
O10	O	0.975232	0.222594	-0.058731
C11	C	0.829981	0.113550	0.008907
C12	C	0.737687	0.112012	0.008793
C13	C	0.438624	0.107047	0.091502
C14	C	0.525344	0.108487	0.091621
C15	C	0.525351	0.108473	-0.074623
C16	C	0.438634	0.107027	-0.074742
C17	C	0.395272	0.106319	0.008324
C18	C	0.568709	0.109204	0.008562
C19	C	0.662735	0.110765	0.008691
C20	C	0.301240	0.104756	0.008195
C21	C	0.988231	-0.036462	-0.002951
C22	C	0.986695	-0.124032	-0.009862
C23	C	0.985981	-0.165167	0.070008
C24	C	0.984532	-0.247448	0.063512
C25	C	0.983803	-0.288593	-0.022856
C26	C	0.984515	-0.247452	-0.102732
C27	C	0.985958	-0.165172	-0.096234
C28	C	0.979441	-0.537025	-0.046631
C29	C	0.978000	-0.619311	-0.053122
C30	C	0.978016	-0.619300	0.113122
C31	C	0.979463	-0.537019	0.119611
C32	C	0.980171	-0.495885	0.039735
C33	C	0.982325	-0.372697	-0.029498
C34	C	0.981643	-0.411782	0.046379
C35	C	1.134000	0.101972	0.007972
C36	C	1.226293	0.103510	0.008093
C37	C	0.975750	0.251984	0.019831
C38	C	0.977286	0.339554	0.026748
N39	N	0.981982	0.107756	-0.208556
C40	C	1.038589	0.054135	-0.543790
C41	C	1.038587	0.054135	-0.447808
C42	C	0.925396	0.161387	-0.439339
C43	C	0.925403	0.161389	-0.535319
C44	C	0.981998	0.107759	-0.587542
C45	C	0.981989	0.107757	-0.395581
C46	C	0.981987	0.107758	-0.291514
C47	C	0.982002	0.107759	-0.691615
N48	N	0.982005	0.107759	0.225434
H49	H	0.986578	-0.131673	0.140338
H50	H	0.403321	0.106469	0.159139
C51	C	0.863138	0.220371	-0.381886
N52	N	0.816241	0.264796	-0.338613
H53	H	0.560667	0.109051	-0.142252
H54	H	0.403336	0.106433	-0.142479
H55	H	1.084673	0.010467	-0.586308
H56	H	0.983954	-0.280936	0.128551
H57	H	0.986528	-0.131680	-0.161273
C58	C	0.983707	-0.292715	-0.197737
N59	N	0.983101	-0.326805	-0.269297
H60	H	0.977403	-0.652809	-0.123456
H61	H	0.980058	-0.503525	0.189941
C62	C	0.977228	-0.664553	0.200979
N63	N	0.976630	-0.698637	0.267157
H64	H	0.980033	-0.503546	-0.111672
H65	H	0.982231	-0.378277	0.116698
C66	C	0.573027	0.109286	0.183124
N67	N	0.608942	0.109886	0.252047
H68	H	0.981734	-0.406208	-0.099818
H69	H	1.084669	0.010471	-0.412188
C70	C	0.863144	0.220382	-0.583448
N71	N	0.816253	0.264814	-0.619700
