data_functionalizedCrystal
_audit_creation_method	'MofGen! by Chris Wilmer'
_symmetry_space_group_name_H-M	'P1'
_symmetry_Int_Tables_number	1
_symmetry_cell_setting	triclinic
loop_
_symmetry_equiv_pos_as_xyz
  x,y,z
_cell_length_a	34.571875
_cell_length_b	34.571051
_cell_length_c	34.567439
_cell_angle_alpha	60.004367
_cell_angle_beta	60.008842
_cell_angle_gamma	59.994195
loop_
_atom_site_label
_atom_site_type_symbol
_atom_site_fract_x
_atom_site_fract_y
_atom_site_fract_z
O1	O	0.053721	-0.565181	0.472559
O2	O	0.020283	-0.440038	0.380761
O3	O	0.099534	-0.519209	0.380676
O4	O	-0.025530	-0.486010	0.472643
O5	O	0.125831	-0.492917	0.406885
O6	O	0.046580	-0.413746	0.406969
O7	O	0.080018	-0.538889	0.498767
Zn8	Zn	0.067475	-0.472143	0.457030
Zn9	Zn	0.032827	-0.506784	0.422498
O10	O	0.000767	-0.459718	0.498852
N11	N	0.091122	-0.448505	0.480598
N12	N	0.009184	-0.530426	0.398930
C13	C	0.124402	-0.415465	0.717633
C14	C	0.328327	-0.415388	0.513477
C15	C	0.124221	-0.415437	0.513630
C16	C	0.124201	-0.211364	0.513624
C17	C	0.157075	-0.309853	0.546423
C18	C	0.157084	-0.382601	0.546423
C19	C	0.175289	-0.364414	0.564591
C20	C	0.254624	-0.350722	0.522790
C21	C	0.304220	-0.367243	0.506229
C22	C	0.304249	-0.447494	0.536832
C23	C	0.254655	-0.430972	0.553394
C24	C	0.169014	-0.285043	0.497667
C25	C	0.152454	-0.235444	0.481153
C26	C	0.112020	-0.235469	0.562154
C27	C	0.128580	-0.285068	0.578668
C28	C	0.108321	-0.370634	0.558439
C29	C	0.091776	-0.387168	0.541918
C30	C	0.172754	-0.427637	0.501375
C31	C	0.189301	-0.411103	0.517891
C32	C	0.108399	-0.370649	0.643978
C33	C	0.091911	-0.387197	0.693575
C34	C	0.172928	-0.427676	0.693511
C35	C	0.189415	-0.411128	0.643912
C36	C	0.157149	-0.382613	0.619147
C37	C	0.229844	-0.382585	0.546371
C38	C	0.105624	-0.433333	0.772186
C39	C	0.382878	-0.432925	0.495007
C40	C	0.105380	-0.433313	0.495792
C41	C	0.105683	-0.156808	0.496094
C42	C	-0.023527	-0.563458	0.161535
C43	C	-0.023851	-0.767445	0.365663
C44	C	-0.023821	-0.563448	0.365756
C45	C	-0.227785	-0.563229	0.365355
C46	C	-0.129302	-0.596153	0.332678
C47	C	-0.056593	-0.596234	0.332823
C48	C	-0.074746	-0.614396	0.314578
C49	C	-0.088477	-0.693710	0.356299
C50	C	-0.071982	-0.743310	0.372851
C51	C	0.008266	-0.743392	0.342376
C52	C	-0.008230	-0.693794	0.325823
C53	C	-0.154162	-0.608103	0.381422
C54	C	-0.203757	-0.591517	0.397874
C55	C	-0.203630	-0.551037	0.316836
C56	C	-0.154034	-0.567623	0.300384
C57	C	-0.068543	-0.547475	0.320829
C58	C	-0.052041	-0.530969	0.337421
C59	C	-0.011639	-0.611977	0.377990
C60	C	-0.028141	-0.628485	0.361404
C61	C	-0.068417	-0.547482	0.235199
C62	C	-0.051814	-0.530977	0.185602
C63	C	-0.011349	-0.611990	0.185649
C64	C	-0.027951	-0.628493	0.235248
C65	C	-0.056486	-0.596238	0.260022
C66	C	-0.056602	-0.668955	0.332787
C67	C	-0.005599	-0.544662	0.106983
C68	C	-0.006342	-0.821999	0.384121
C69	C	-0.005979	-0.544649	0.383673
C70	C	-0.282336	-0.544682	0.382817
N71	N	0.427518	-0.448428	0.480350
O72	O	0.589573	-0.456297	0.363634
O73	O	0.589761	-0.548399	0.488643
O74	O	0.589681	-0.548188	0.409364
O75	O	0.589654	-0.456508	0.442913
O76	O	0.510890	-0.521988	0.435708
O77	O	0.510970	-0.522199	0.514987
O78	O	0.510782	-0.430098	0.389978
Zn79	Zn	0.498366	-0.471989	0.456665
Zn80	Zn	0.602177	-0.506508	0.421956
O81	O	0.510862	-0.430308	0.469257
N82	N	0.673025	-0.530068	0.398267
N83	N	0.091092	-0.112167	0.480590
O84	O	-0.025539	0.049976	0.472612
O85	O	0.099472	0.050011	0.380491
O86	O	0.020155	0.049979	0.380751
O87	O	0.053778	0.050009	0.472352
O88	O	0.046458	-0.028818	0.407008
O89	O	0.125775	-0.028785	0.406748
O90	O	0.000764	-0.028821	0.498869
Zn91	Zn	0.067445	-0.041314	0.456977
Zn92	Zn	0.032791	0.062504	0.422382
O93	O	0.080081	-0.028788	0.498609
N94	N	0.009138	0.133358	0.398771
N95	N	0.091421	-0.448552	0.816827
O96	O	0.083469	-0.565164	0.978960
O97	O	-0.008614	-0.440110	0.979002
O98	O	-0.008399	-0.519410	0.978978
O99	O	0.083253	-0.485863	0.978984
O100	O	0.017837	-0.493128	0.900185
O101	O	0.017621	-0.413827	0.900208
O102	O	0.109704	-0.538881	0.900167
Zn103	Zn	0.067828	-0.472181	0.887677
Zn104	Zn	0.033262	-0.506810	0.991491
O105	O	0.109489	-0.459581	0.900191
N106	N	0.009668	-0.530444	1.062341
C107	C	0.030297	-0.411123	0.381218
C108	C	0.128439	-0.509167	0.381113
C109	C	0.070004	-0.567805	0.498310
C110	C	-0.028138	-0.469761	0.498415
C111	C	0.550388	-0.547982	0.517564
C112	C	0.550290	-0.547721	0.419387
C113	C	0.550153	-0.430514	0.361058
C114	C	0.550253	-0.430775	0.459234
C115	C	0.128339	0.010714	0.380902
C116	C	0.030148	0.010577	0.381256
C117	C	-0.028136	0.010574	0.498426
C118	C	0.070089	0.010613	0.498104
C119	C	-0.008178	-0.411214	0.939610
C120	C	-0.007906	-0.509413	0.939566
C121	C	0.109268	-0.567777	0.939558
C122	C	0.109002	-0.469572	0.939586
H123	H	0.052212	-0.377448	0.713786
O124	O	-0.042610	-0.368328	0.939561
C125	C	-0.026432	-0.332609	0.898754
H126	H	0.013950	-0.345639	0.885141
H127	H	-0.040284	-0.299553	0.907942
H128	H	-0.039879	-0.323749	0.870180
H129	H	0.550247	-0.401977	0.466412
O130	O	0.016374	-0.643388	0.161660
C131	C	0.023330	-0.689960	0.194207
H132	H	0.017740	-0.689862	0.229578
H133	H	0.060943	-0.713546	0.179933
H134	H	-0.003069	-0.704133	0.199429
H135	H	0.023152	-0.375173	0.352387
O136	O	0.143818	-0.610589	0.939523
C137	C	0.184591	-0.610582	0.939534
H138	H	0.184022	-0.572576	0.924628
H139	H	0.217564	-0.631642	0.916649
H140	H	0.185160	-0.627521	0.977334
H141	H	0.137795	-0.462392	0.939581
O142	O	0.171039	0.011046	0.346253
C143	C	0.164539	0.051947	0.306470
H144	H	0.126713	0.065390	0.307130
H145	H	0.190460	0.042946	0.272723
H146	H	0.171190	0.080577	0.307385
O147	O	0.171288	-0.517680	0.346674
C148	C	0.179752	-0.556014	0.335727
H149	H	0.157619	-0.578781	0.367061
H150	H	0.218919	-0.578322	0.328031
H151	H	0.169564	-0.541937	0.303239
H152	H	0.082121	-0.347425	0.623816
O153	O	0.078726	0.010531	0.532456
C154	C	0.117116	-0.030266	0.543307
H155	H	0.120842	-0.058790	0.532902
H156	H	0.110471	-0.043971	0.582943
H157	H	0.151076	-0.021029	0.522852
H158	H	-0.064060	-0.462687	0.527292
O159	O	-0.042184	-0.518030	0.939502
C160	C	-0.024925	-0.564601	0.939487
H161	H	0.015429	-0.577074	0.924588
H162	H	-0.039332	-0.565269	0.916581
H163	H	-0.036914	-0.589119	0.977277
H164	H	-0.061773	-0.491265	0.327657
H165	H	0.199204	-0.450885	0.713670
O166	O	0.550470	-0.582433	0.560414
C167	C	0.550474	-0.565369	0.589896
H168	H	0.565352	-0.534935	0.567113
H169	H	0.573391	-0.595133	0.612565
H170	H	0.512684	-0.552242	0.613851
O171	O	0.550219	-0.582039	0.410832
C172	C	0.509392	-0.565742	0.399713
H173	H	0.480863	-0.536340	0.415028
H174	H	0.495727	-0.596272	0.415526
H175	H	0.518569	-0.551438	0.359596
H176	H	0.022945	0.010574	0.352477
O177	O	0.550103	-0.396073	0.318197
C178	C	0.550070	-0.413127	0.288724
H179	H	0.565031	-0.453483	0.301531
H180	H	0.572895	-0.398573	0.250762
H181	H	0.512257	-0.401116	0.290048
H182	H	-0.064037	0.010563	0.527345
H183	H	0.198991	-0.450848	0.478149
O184	O	0.078446	-0.610693	0.532725
C185	C	0.045950	-0.631747	0.545485
H186	H	0.013134	-0.603057	0.536004
H187	H	0.035330	-0.651665	0.585238
H188	H	0.063109	-0.657544	0.525535
H189	H	0.082085	-0.347427	0.581670
O190	O	0.236785	-0.422836	0.619845
C191	C	0.257399	-0.472513	0.631937
H192	H	0.233911	-0.489880	0.667956
H193	H	0.293892	-0.484100	0.633605
H194	H	0.261066	-0.483728	0.604028
O195	O	0.044392	-0.375521	0.553653
C196	C	0.019502	-0.346814	0.582372
H197	H	0.043180	-0.353138	0.600378
H198	H	-0.013574	-0.356129	0.610453
H199	H	0.008774	-0.307960	0.559510
H200	H	0.234479	-0.456922	0.572596
O201	O	0.236685	-0.422774	0.506180
C202	C	0.261575	-0.451459	0.477438
H203	H	0.237932	-0.469512	0.483792
H204	H	0.294704	-0.479503	0.486689
H205	H	0.272214	-0.428557	0.438593
H206	H	0.324452	-0.486894	0.542541
H207	H	0.324395	-0.341295	0.487026
H208	H	0.234427	-0.311322	0.517070
O209	O	-0.130209	-0.635795	0.412855
C210	C	-0.162788	-0.642790	0.459407
H211	H	-0.198120	-0.612858	0.459262
H212	H	-0.148498	-0.643064	0.482999
H213	H	-0.168089	-0.678103	0.473603
H214	H	0.162174	-0.215242	0.441450
O215	O	0.196669	-0.309047	0.466282
C216	C	0.203659	-0.276510	0.419706
H217	H	0.173747	-0.241162	0.419818
H218	H	0.203896	-0.290837	0.396169
H219	H	0.238986	-0.271223	0.405469
H220	H	0.088825	-0.215289	0.588411
H221	H	-0.061536	-0.491273	0.165398
O222	O	0.116956	-0.309099	0.626048
C223	C	0.088243	-0.276588	0.650966
H224	H	0.094549	-0.241224	0.627314
H225	H	0.097569	-0.290923	0.684051
H226	H	0.049396	-0.271326	0.661684
H227	H	-0.018232	-0.668197	0.255455
O228	O	-0.096061	-0.516132	0.259248
C229	C	-0.071009	-0.487488	0.247170
H230	H	-0.031331	-0.506676	0.233588
H231	H	-0.079916	-0.479988	0.279800
H232	H	-0.081522	-0.452640	0.218358
O233	O	-0.096242	-0.516189	0.293123
C234	C	-0.140353	-0.523272	0.315603
H235	H	-0.136400	-0.560903	0.341819
H236	H	-0.153013	-0.517741	0.287870
H237	H	-0.167315	-0.496901	0.335297
O238	O	0.016050	-0.643353	0.405694
C239	C	0.057665	-0.672057	0.380695
H240	H	0.051058	-0.672535	0.351786
H241	H	0.068080	-0.709668	0.406167
H242	H	0.087508	-0.657178	0.363917
O243	O	-0.016601	-0.675843	0.373076
C244	C	-0.058278	-0.687798	0.397952
H245	H	-0.088088	-0.659840	0.414736
H246	H	-0.051774	-0.723815	0.426847
H247	H	-0.068674	-0.689405	0.372388
O248	O	0.022788	-0.669796	0.302935
C249	C	0.056491	-0.681940	0.262065
H250	H	0.058817	-0.717943	0.266534
H251	H	0.092576	-0.683673	0.256708
H252	H	0.045334	-0.654025	0.229904
O253	O	0.055253	-0.767577	0.335589
C254	C	0.072465	-0.796267	0.308603
H255	H	0.041855	-0.803660	0.312429
H256	H	0.099860	-0.831162	0.321811
H257	H	0.089599	-0.777178	0.269748
H258	H	-0.097938	-0.763465	0.391989
H259	H	-0.223999	-0.601245	0.437568
O260	O	-0.135456	-0.669599	0.362986
C261	C	-0.150556	-0.681712	0.340662
H262	H	-0.118853	-0.695387	0.311398
H263	H	-0.177825	-0.649077	0.324709
H264	H	-0.167200	-0.710468	0.367827
O265	O	-0.227585	-0.523315	0.285403
C266	C	-0.195007	-0.516344	0.238850
H267	H	-0.159669	-0.521921	0.239001
H268	H	-0.209288	-0.478727	0.215270
H269	H	-0.189722	-0.542744	0.224635
H270	H	-0.133793	-0.557888	0.260690
