data_functionalizedCrystal
_audit_creation_method	'MofGen! by Chris Wilmer'
_symmetry_space_group_name_H-M	'P1'
_symmetry_Int_Tables_number	1
_symmetry_cell_setting	triclinic
loop_
_symmetry_equiv_pos_as_xyz
  x,y,z
_cell_length_a	15.995350
_cell_length_b	15.995343
_cell_length_c	14.472310
_cell_angle_alpha	89.994209
_cell_angle_beta	89.990621
_cell_angle_gamma	83.490780
loop_
_atom_site_label
_atom_site_type_symbol
_atom_site_fract_x
_atom_site_fract_y
_atom_site_fract_z
O1	O	1.110994	0.107921	-0.076772
O2	O	1.610994	0.607921	0.423228
O3	O	0.867218	0.121249	-0.076793
O4	O	1.367218	0.621249	0.423207
O5	O	0.995773	-0.007303	-0.076765
O6	O	1.495773	0.492697	0.423235
O7	O	0.982439	0.236473	-0.076800
O8	O	1.482439	0.736473	0.423200
O9	O	0.995740	-0.007296	0.076917
O10	O	1.495740	0.492704	0.576917
O11	O	0.867185	0.121256	0.076889
O12	O	1.367185	0.621256	0.576889
O13	O	1.110960	0.107929	0.076910
O14	O	1.610960	0.607929	0.576910
Cu15	Cu	0.989070	0.114593	0.090932
Cu16	Cu	1.489070	0.614593	0.590932
Cu17	Cu	0.989109	0.114584	-0.090815
Cu18	Cu	1.489109	0.614584	0.409185
O19	O	0.982405	0.236481	0.076882
O20	O	1.482405	0.736481	0.576882
C21	C	0.836007	0.120702	0.000046
C22	C	1.336007	0.620702	0.500046
C23	C	0.743056	0.119050	0.000039
C24	C	1.243056	0.619050	0.500039
C25	C	0.995206	-0.038494	0.000078
C26	C	1.495206	0.461506	0.500078
C27	C	0.993557	-0.131445	0.000086
C28	C	1.493557	0.368555	0.500086
C29	C	0.405309	0.113118	0.000059
C30	C	0.905309	0.613118	0.500059
C31	C	0.452745	0.021565	0.000415
C32	C	0.952745	0.521565	0.500415
C33	C	0.549436	0.023217	0.000062
C34	C	1.049436	0.523217	0.500062
C35	C	0.572869	0.116060	0.000050
C36	C	1.072869	0.616060	0.500050
C37	C	0.531800	0.161212	-0.087713
C38	C	1.031800	0.661212	0.412287
C39	C	0.435164	0.158913	-0.087780
C40	C	0.935164	0.658913	0.412220
C41	C	0.434788	0.160813	0.086985
C42	C	0.934788	0.660813	0.586985
C43	C	0.531733	0.160791	0.088138
C44	C	1.031733	0.660791	0.588138
C45	C	0.667567	0.117728	0.000041
C46	C	1.167567	0.617728	0.500041
C47	C	0.310611	0.111452	0.000061
C48	C	0.810611	0.611452	0.500061
C49	C	0.990563	-0.301631	0.000064
C50	C	1.490563	0.198369	0.500064
C51	C	0.897766	-0.324977	0.000055
C52	C	1.397766	0.175023	0.500055
C53	C	0.896021	-0.421655	-0.000305
C54	C	1.396021	0.078345	0.499695
C55	C	0.987615	-0.469191	0.000044
C56	C	1.487615	0.030809	0.500044
C57	C	1.034294	-0.440096	-0.087535
C58	C	1.534294	0.059904	0.412465
C59	C	1.035394	-0.343304	-0.087598
C60	C	1.535394	0.156696	0.412402
C61	C	1.036715	-0.343400	0.087173
C62	C	1.536715	0.156600	0.587173
C63	C	1.033289	-0.439895	0.088314
C64	C	1.533289	0.060105	0.588314
C65	C	0.985953	-0.563889	0.000030
C66	C	1.485953	-0.063889	0.500030
C67	C	0.992228	-0.206933	0.000072
C68	C	1.492228	0.293067	0.500072
C69	C	1.142172	0.108476	0.000069
C70	C	1.642172	0.608476	0.500069
C71	C	1.235122	0.110128	0.000070
C72	C	1.735122	0.610128	0.500070
C73	C	0.982972	0.267672	0.000036
C74	C	1.482972	0.767672	0.500036
C75	C	0.984621	0.360622	0.000023
C76	C	1.484621	0.860622	0.500023
N77	N	0.989048	0.114599	0.218763
N78	N	1.489048	0.614599	0.718763
N79	N	0.989137	0.114572	-0.218646
N80	N	1.489137	0.614572	0.281354
C81	C	0.989108	0.114581	0.592854
C82	C	1.489108	0.614581	1.092854
C83	C	0.920090	0.183136	0.553673
C84	C	1.420090	0.683136	1.053673
C85	C	0.920249	0.183386	0.446585
C86	C	1.420249	0.683386	0.946585
C87	C	0.989077	0.114590	0.407263
C88	C	1.489077	0.614590	0.907263
C89	C	1.076441	0.133672	0.446104
C90	C	1.576441	0.633672	0.946104
C91	C	1.076054	0.134159	0.553225
C92	C	1.576054	0.634159	1.053225
C93	C	0.971541	0.026741	0.553394
C94	C	1.471541	0.526741	1.053394
C95	C	0.969537	0.027327	0.446267
C96	C	1.469537	0.527327	0.946267
C97	C	0.989066	0.114593	0.302375
C98	C	1.489066	0.614593	0.802375
C99	C	0.989125	0.114579	0.697742
C100	C	1.489125	0.614579	1.197742
H101	H	0.434211	-0.015027	0.063354
H102	H	0.934211	0.484973	0.563354
H103	H	0.403024	0.228313	0.087569
H104	H	0.903024	0.728313	0.587569
H105	H	0.433166	-0.014865	-0.062166
H106	H	0.933166	0.485135	0.437834
N107	N	0.565962	0.119412	0.169581
N108	N	1.065962	0.619412	0.669581
N109	N	0.558215	0.043431	0.182678
N110	N	1.058215	0.543431	0.682678
H111	H	0.582394	0.014198	0.240193
H112	H	1.082394	0.514198	0.740193
N113	N	0.412212	0.117576	-0.170054
N114	N	0.912212	0.617576	0.329946
N115	N	0.376580	0.052124	-0.164588
N116	N	0.876580	0.552124	0.335412
H117	H	0.360375	0.022925	-0.222694
H118	H	0.860375	0.522925	0.277306
N119	N	0.584396	-0.021617	-0.078989
N120	N	1.084396	0.478383	0.421011
N121	N	0.537374	-0.054220	-0.134075
N122	N	1.037374	0.445780	0.365925
H123	H	0.562063	-0.085885	-0.189909
H124	H	1.062063	0.414115	0.310091
N125	N	0.838362	0.169102	0.586022
N126	N	1.338362	0.669102	1.086022
N127	N	0.830025	0.108414	0.638335
N128	N	1.330025	0.608414	1.138335
H129	H	0.772302	0.098499	0.661187
H130	H	1.272302	0.598499	1.161187
H131	H	0.560189	0.129845	-0.153019
H132	H	1.060189	0.629845	0.346981
H133	H	0.547095	0.228495	0.093430
H134	H	1.047095	0.728495	0.593430
H135	H	0.905271	0.012846	0.420881
H136	H	1.405271	0.512846	0.920881
H137	H	1.016542	-0.026079	0.419504
H138	H	1.516542	0.473921	0.919504
H139	H	1.002292	-0.460184	-0.152968
H140	H	1.502292	0.039816	0.347032
N141	N	0.394696	0.243229	-0.092780
N142	N	0.894696	0.743229	0.407220
N143	N	0.406955	0.294980	-0.030909
N144	N	0.906955	0.794980	0.469091
H145	H	0.378376	0.354527	-0.034444
H146	H	0.878376	0.854527	0.465556
N147	N	0.850837	-0.444855	-0.079800
N148	N	1.350837	0.055145	0.420200
N149	N	0.841887	-0.520405	-0.094014
N150	N	1.341887	-0.020405	0.405986
H151	H	0.810124	-0.536810	-0.150263
H152	H	1.310124	-0.036810	0.349737
H153	H	0.859474	-0.440675	0.062458
H154	H	1.359474	0.059325	0.562458
N155	N	0.999957	-0.307940	0.170474
N156	N	1.499957	0.192060	0.670474
N157	N	0.939292	-0.251445	0.166649
N158	N	1.439292	0.248555	0.666649
H159	H	0.913321	-0.226402	0.225476
H160	H	1.413321	0.273598	0.725476
H161	H	1.021872	-0.024275	0.578732
H162	H	1.521872	0.475725	1.078732
H163	H	0.862397	-0.295990	-0.062662
H164	H	1.362397	0.204010	0.437338
H165	H	0.545924	0.229421	-0.090986
H166	H	1.045924	0.729421	0.409014
H167	H	0.577852	-0.012275	0.062975
H168	H	1.077852	0.487725	0.562975
H169	H	1.100125	-0.472843	0.093871
H170	H	1.600125	0.027157	0.593871
H171	H	1.105017	-0.329379	0.088030
H172	H	1.605017	0.170621	0.588030
H173	H	0.414239	0.130885	0.153507
H174	H	0.914239	0.630885	0.653507
H175	H	0.861784	-0.296971	0.062851
H176	H	1.361784	0.203029	0.562851
H177	H	1.003472	-0.316516	-0.153320
H178	H	1.503472	0.183484	0.346680
H179	H	0.931466	0.248570	0.420942
H180	H	1.431466	0.748570	0.920942
N181	N	0.893333	0.003739	0.587290
N182	N	1.393333	0.503739	1.087290
N183	N	0.835970	-0.008553	0.531981
N184	N	1.335970	0.491447	1.031981
H185	H	0.780730	-0.024791	0.555916
H186	H	1.280730	0.475209	1.055916
H187	H	1.103446	-0.328730	-0.091326
H188	H	1.603446	0.171270	0.408674
H189	H	1.101705	-0.471942	-0.090542
H190	H	1.601705	0.028058	0.409458
H191	H	0.999297	-0.458457	0.153107
H192	H	1.499297	0.041543	0.653107
N193	N	0.838645	0.169413	0.413820
N194	N	1.338645	0.669413	0.913820
N195	N	0.808357	0.103215	0.434589
N196	N	1.308357	0.603215	0.934589
H197	H	0.750666	0.093460	0.411522
H198	H	1.250666	0.593460	0.911522
N199	N	0.933971	0.264445	0.587427
N200	N	1.433971	0.764445	1.087427
N201	N	0.994474	0.272123	0.640212
N202	N	1.494474	0.772123	1.140212
H203	H	1.004281	0.329547	0.664053
H204	H	1.504281	0.829547	1.164053
N205	N	1.095459	0.214531	0.584536
N206	N	1.595459	0.714531	1.084536
N207	N	1.049146	0.279693	0.562431
N208	N	1.549146	0.779693	1.062431
H209	H	1.062849	0.336460	0.584538
H210	H	1.562849	0.836460	1.084538
N211	N	1.142416	0.073899	0.585730
N212	N	1.642416	0.573899	1.085730
N213	N	1.188872	0.031622	0.529299
N214	N	1.688872	0.531622	1.029299
H215	H	1.235743	-0.010933	0.552251
H216	H	1.735743	0.489067	1.052251
N217	N	1.142404	0.072694	0.414149
N218	N	1.642404	0.572694	0.914149
N219	N	1.125722	0.014354	0.362267
N220	N	1.625722	0.514354	0.862267
H221	H	1.172307	-0.028714	0.339697
H222	H	1.672307	0.471286	0.839697
N223	N	1.096321	0.213118	0.412420
N224	N	1.596321	0.713118	0.912420
N225	N	1.046293	0.255815	0.359820
N226	N	1.546293	0.755815	0.859820
H227	H	1.060329	0.311926	0.336031
H228	H	1.560329	0.811926	0.836031
