data_functionalizedCrystal
_audit_creation_method	'MofGen! by Chris Wilmer'
_symmetry_space_group_name_H-M	'P1'
_symmetry_Int_Tables_number	1
_symmetry_cell_setting	triclinic
loop_
_symmetry_equiv_pos_as_xyz
  x,y,z
_cell_length_a	19.288862
_cell_length_b	15.186229
_cell_length_c	19.288865
_cell_angle_alpha	89.991032
_cell_angle_beta	83.135763
_cell_angle_gamma	89.979995
loop_
_atom_site_label
_atom_site_type_symbol
_atom_site_fract_x
_atom_site_fract_y
_atom_site_fract_z
O1	O	-0.921348	0.073578	-0.086639
O2	O	-0.421348	0.573578	0.413361
O3	O	-0.719087	0.073507	-0.098329
O4	O	-0.219087	0.573507	0.401671
O5	O	-0.826062	0.073527	0.008646
O6	O	-0.326062	0.573527	0.508646
O7	O	-0.814373	0.073558	-0.193615
O8	O	-0.314373	0.573558	0.306385
O9	O	-0.826055	-0.072930	0.008648
O10	O	-0.326055	0.427070	0.508648
O11	O	-0.719080	-0.072950	-0.098328
O12	O	-0.219080	0.427050	0.401672
O13	O	-0.921341	-0.072879	-0.086637
O14	O	-0.421341	0.427121	0.413363
Zn15	Zn	-0.820210	-0.096168	-0.092482
Zn16	Zn	-0.320210	0.403832	0.407518
Zn17	Zn	-0.820219	0.096796	-0.092484
Zn18	Zn	-0.320219	0.596796	0.407516
O19	O	-0.814366	-0.072899	-0.193613
O20	O	-0.314366	0.427101	0.306387
C21	C	-0.693207	0.000269	-0.097953
C22	C	-0.193207	0.500269	0.402047
C23	C	-0.616104	0.000241	-0.096824
C24	C	-0.116104	0.500241	0.403176
C25	C	-0.571407	0.000262	-0.159593
C26	C	-0.071407	0.500262	0.340407
C27	C	-0.498960	0.000267	-0.158533
C28	C	0.001040	0.500267	0.341467
C29	C	-0.471213	0.000269	-0.094701
C30	C	0.028787	0.500269	0.405299
C31	C	-0.515919	0.000243	-0.031924
C32	C	-0.015919	0.500243	0.468076
C33	C	-0.588364	0.000229	-0.032986
C34	C	-0.088364	0.500229	0.467014
C35	C	-0.362953	0.051594	-0.044523
C36	C	0.137047	0.551594	0.455477
C37	C	-0.290508	0.051613	-0.043464
C38	C	0.209492	0.551613	0.456536
C39	C	-0.247767	0.000307	-0.091423
C40	C	0.252233	0.500307	0.408577
C41	C	-0.277477	-0.051006	-0.140453
C42	C	0.222523	0.448994	0.359547
C43	C	-0.349923	-0.051020	-0.141515
C44	C	0.150077	0.448980	0.358485
C45	C	-0.392659	0.000283	-0.093542
C46	C	0.107341	0.500283	0.406458
C47	C	-0.124514	0.000333	-0.153046
C48	C	0.375486	0.500333	0.346954
C49	C	-0.052066	0.000332	-0.151983
C50	C	0.447934	0.500332	0.348017
C51	C	-0.069026	0.000317	-0.025373
C52	C	0.430974	0.500317	0.474627
C53	C	-0.141473	0.000309	-0.026438
C54	C	0.358527	0.500309	0.473562
C55	C	-0.169212	0.000321	-0.090276
C56	C	0.330788	0.500321	0.409724
N57	N	-0.820208	-0.227861	-0.092481
N58	N	-0.320208	0.272139	0.407519
C59	C	-0.867593	-0.453574	-0.045128
C60	C	-0.367593	0.046426	0.454872
C61	C	-0.867595	-0.545764	-0.045126
C62	C	-0.367595	-0.045764	0.454874
C63	C	-0.772836	-0.545791	-0.139836
C64	C	-0.272836	-0.045791	0.360164
C65	C	-0.772831	-0.453603	-0.139834
C66	C	-0.272831	0.046397	0.360166
C67	C	-0.820213	-0.407497	-0.092480
C68	C	-0.320213	0.092503	0.407520
C69	C	-0.820221	-0.591875	-0.092481
C70	C	-0.320221	-0.091875	0.407519
C71	C	-0.820223	-0.691831	-0.092480
C72	C	-0.320223	-0.191831	0.407520
C73	C	-0.820211	-0.307535	-0.092481
C74	C	-0.320211	0.192465	0.407519
C75	C	0.052779	0.000345	-0.087016
C76	C	0.552779	0.500345	0.412984
C77	C	-0.024324	0.000333	-0.088151
C78	C	0.475676	0.500333	0.411849
C79	C	-0.825683	0.000296	0.034523
C80	C	-0.325683	0.500296	0.534523
C81	C	-0.824554	0.000288	0.111627
C82	C	-0.324554	0.500288	0.611627
N83	N	-0.820226	0.228488	-0.092481
N84	N	-0.320226	0.728488	0.407519
C85	C	-0.814746	0.000334	-0.219490
C86	C	-0.314746	0.500334	0.280510
C87	C	-0.815875	0.000348	-0.296594
C88	C	-0.315875	0.500348	0.203406
C89	C	-0.887322	0.000306	0.156324
C90	C	-0.387322	0.500306	0.656324
C91	C	-0.886261	0.000319	0.228771
C92	C	-0.386261	0.500319	0.728771
C93	C	-0.822429	0.000297	0.256518
C94	C	-0.322429	0.500297	0.756518
C95	C	-0.759652	0.000284	0.211811
C96	C	-0.259652	0.500284	0.711811
C97	C	-0.760715	0.000279	0.139366
C98	C	-0.260715	0.500279	0.639366
C99	C	-0.772247	-0.051021	0.364805
C100	C	-0.272247	0.448979	0.864805
C101	C	-0.771187	-0.051022	0.437250
C102	C	-0.271187	0.448978	0.937250
C103	C	-0.819149	0.000316	0.479963
C104	C	-0.319149	0.500316	0.979963
C105	C	-0.868183	0.051643	0.450225
C106	C	-0.368183	0.551643	0.950225
C107	C	-0.869245	0.051638	0.377780
C108	C	-0.369245	0.551638	0.877780
C109	C	-0.821269	0.000303	0.335072
C110	C	-0.321269	0.500303	0.835072
C111	C	-0.880771	0.000349	0.603216
C112	C	-0.380771	0.500349	1.103216
C113	C	-0.879708	0.000368	0.675664
C114	C	-0.379708	0.500368	1.175664
C115	C	-0.753098	0.000325	0.658703
C116	C	-0.253098	0.500325	1.158703
C117	C	-0.754163	0.000315	0.586257
C118	C	-0.254163	0.500315	1.086257
C119	C	-0.818001	0.000323	0.558518
C120	C	-0.318001	0.500323	1.058518
H121	H	-0.493322	0.000256	0.020048
H122	H	0.006678	0.500256	0.520048
H123	H	-0.015674	0.000344	-0.203099
H124	H	0.484326	0.500344	0.296901
H125	H	-0.374110	-0.092805	-0.181435
H126	H	0.125890	0.407195	0.318565
C127	C	-0.721367	-0.595967	-0.191139
C128	C	-0.221367	-0.095967	0.308861
C129	C	-0.678982	-0.648943	-0.154249
C130	C	-0.178982	-0.148943	0.345751
C131	C	-0.631568	-0.695185	-0.201488
C132	C	-0.131568	-0.195185	0.298512
H133	H	-0.693079	-0.555423	-0.219360
H134	H	-0.193079	-0.055423	0.280640
H135	H	-0.746247	-0.631959	-0.219979
H136	H	-0.246247	-0.131959	0.280021
H137	H	-0.654105	-0.612955	-0.125421
H138	H	-0.154105	-0.112955	0.374579
H139	H	-0.707251	-0.689504	-0.126030
H140	H	-0.207251	-0.189504	0.373970
H141	H	-0.656447	-0.731177	-0.230328
H142	H	-0.156447	-0.231177	0.269672
H143	H	-0.603285	-0.654635	-0.229707
H144	H	-0.103285	-0.154635	0.270293
H145	H	-0.602809	-0.731141	-0.176466
H146	H	-0.102809	-0.231141	0.323534
H147	H	-0.734246	-0.416085	-0.178394
H148	H	-0.234246	0.083915	0.321606
H149	H	-0.939304	0.000315	0.133744
H150	H	-0.439304	0.500315	0.633744
C151	C	-0.954487	0.000290	0.277195
C152	C	-0.454487	0.500290	0.777195
C153	C	-1.010620	0.000277	0.237396
C154	C	-0.510620	0.500277	0.737396
C155	C	-1.073480	0.000238	0.281978
C156	C	-0.573480	0.500238	0.781978
H157	H	-0.956809	0.051350	0.305818
H158	H	-0.456809	0.551350	0.805818
H159	H	-0.956733	-0.050802	0.305805
H160	H	-0.456733	0.449198	0.805805
H161	H	-1.008376	0.051364	0.208799
H162	H	-0.508376	0.551364	0.708799
H163	H	-1.008322	-0.050779	0.208775
H164	H	-0.508322	0.449221	0.708775
H165	H	-1.075726	-0.050854	0.310588
H166	H	-0.575726	0.449146	0.810588
H167	H	-1.075795	0.051299	0.310599
H168	H	-0.575795	0.551299	0.810599
H169	H	-1.111574	0.000221	0.254982
H170	H	-0.611574	0.500221	0.754982
H171	H	-0.046435	0.000373	0.026600
H172	H	0.453565	0.500373	0.526600
H173	H	-0.593988	0.000273	-0.211575
H174	H	-0.093988	0.500273	0.288425
H175	H	-0.909169	0.093432	0.353570
H176	H	-0.409169	0.593432	0.853570
H177	H	-0.906173	-0.416037	-0.006569
H178	H	-0.406173	0.083963	0.493431
H179	H	-0.907238	0.093447	0.485002
H180	H	-0.407238	0.593447	0.985002
C181	C	-0.720129	-0.106851	0.318554
C182	C	-0.220129	0.393149	0.818554
C183	C	-0.676977	-0.151819	0.360102
C184	C	-0.176977	0.348181	0.860102
C185	C	-0.628964	-0.203259	0.317522
C186	C	-0.128964	0.296741	0.817522
H187	H	-0.692432	-0.069957	0.286521
H188	H	-0.192432	0.430043	0.786521
H189	H	-0.744533	-0.148150	0.293526
H190	H	-0.244533	0.351850	0.793526
H191	H	-0.652575	-0.110525	0.385119
H192	H	-0.152575	0.389475	0.885119
H193	H	-0.704654	-0.188728	0.392134
H194	H	-0.204654	0.311272	0.892134
H195	H	-0.653368	-0.244558	0.292494
H196	H	-0.153368	0.255442	0.792494
H197	H	-0.601272	-0.166359	0.285491
H198	H	-0.101272	0.333641	0.785491
H199	H	-0.599683	-0.233782	0.345707
H200	H	-0.099683	0.266218	0.845707
H201	H	-0.906175	-0.583278	-0.006567
H202	H	-0.406175	-0.083278	0.493433
H203	H	-0.462561	0.000281	-0.209648
H204	H	0.037439	0.500281	0.290352
H205	H	-0.932752	0.000360	0.580630
H206	H	-0.432752	0.500360	1.080630
C207	C	-0.718059	-0.106862	0.469588
C208	C	-0.218059	0.393138	0.969588
C209	C	-0.753006	-0.167589	0.515939
C210	C	-0.253006	0.332411	1.015939
C211	C	-0.704085	-0.219048	0.545734
C212	C	-0.204085	0.280952	1.045734
H213	H	-0.689585	-0.069970	0.494141
H214	H	-0.189585	0.430030	0.994141
H215	H	-0.689646	-0.137483	0.433800
H216	H	-0.189646	0.362517	0.933800
H217	H	-0.781406	-0.136970	0.551722
H218	H	-0.281406	0.363030	1.051722
H219	H	-0.781476	-0.204500	0.491403
H220	H	-0.281476	0.295500	0.991403
H221	H	-0.675673	-0.249669	0.509946
H222	H	-0.175673	0.250331	1.009946
H223	H	-0.675615	-0.182149	0.570283
H224	H	-0.175615	0.317851	1.070283
H225	H	-0.727790	-0.260262	0.577182
H226	H	-0.227790	0.239738	1.077182
C227	C	-0.947935	0.000344	0.724081
C228	C	-0.447935	0.500344	1.224081
C229	C	-1.004066	0.000325	0.684278
C230	C	-0.504066	0.500325	1.184278
C231	C	-1.066928	0.000290	0.728856
C232	C	-0.566928	0.500290	1.228856
H233	H	-0.950259	0.051407	0.752701
H234	H	-0.450259	0.551407	1.252701
H235	H	-0.950183	-0.050746	0.752694
H236	H	-0.450183	0.449254	1.252694
H237	H	-1.001819	0.051409	0.655677
H238	H	-0.501819	0.551409	1.155677
H239	H	-1.001765	-0.050734	0.655659
H240	H	-0.501765	0.449266	1.155659
H241	H	-1.069176	-0.050800	0.757469
H242	H	-0.569176	0.449200	1.257469
H243	H	-1.069244	0.051354	0.757473
H244	H	-0.569244	0.551354	1.257473
H245	H	-1.105019	0.000269	0.701856
H246	H	-0.605019	0.500269	1.201856
H247	H	-0.701124	0.000311	0.681294
H248	H	-0.201124	0.500311	1.181294
H249	H	-0.709600	0.000265	0.102973
H250	H	-0.209600	0.500265	0.602973
H251	H	-0.703050	0.000295	0.549863
H252	H	-0.203050	0.500295	1.049863
C253	C	-0.690327	0.000442	0.241894
C254	C	-0.190327	0.500442	0.741894
C255	C	-0.652409	0.075791	0.219161
C256	C	-0.152409	0.575791	0.719161
C257	C	-0.588545	0.075977	0.246866
C258	C	-0.088545	0.575977	0.746866
H259	H	-0.664403	-0.050579	0.226563
H260	H	-0.164403	0.449421	0.726563
H261	H	-0.698655	0.000493	0.291445
H262	H	-0.198655	0.500493	0.791445
H263	H	-0.644079	0.075732	0.169621
H264	H	-0.144079	0.575732	0.669621
H265	H	-0.678312	0.126823	0.234491
H266	H	-0.178312	0.626823	0.734491
H267	H	-0.596873	0.076028	0.296416
H268	H	-0.096873	0.576028	0.796416
H269	H	-0.562627	0.024953	0.231533
H270	H	-0.062627	0.524953	0.731533
H271	H	-0.562812	0.127104	0.231451
H272	H	-0.062812	0.627104	0.731451
H273	H	-0.242678	-0.092785	-0.179506
H274	H	0.257322	0.407215	0.320494
H275	H	-0.147101	0.000329	-0.205027
H276	H	0.352899	0.500329	0.294973
H277	H	-0.266324	0.093400	-0.003543
H278	H	0.233676	0.593400	0.496457
C279	C	-0.189890	0.000342	0.041787
C280	C	0.310110	0.500342	0.541787
C281	C	-0.150087	0.000367	0.097917
C282	C	0.349913	0.500367	0.597917
C283	C	-0.194665	0.000406	0.160780
C284	C	0.305335	0.500406	0.660780
H285	H	-0.218500	-0.050723	0.044105
H286	H	0.281500	0.449277	0.544105
H287	H	-0.218513	0.051430	0.044041
H288	H	0.281487	0.551430	0.544041
H289	H	-0.121476	-0.050716	0.095665
H290	H	0.378524	0.449284	0.595665
H291	H	-0.121479	0.051427	0.095623
H292	H	0.378521	0.551427	0.595623
H293	H	-0.223288	0.051494	0.163034
H294	H	0.276712	0.551494	0.663034
H295	H	-0.223273	-0.050659	0.163090
H296	H	0.276727	0.449341	0.663090
H297	H	-0.167666	0.000431	0.198871
H298	H	0.332334	0.500431	0.698871
C299	C	-0.409311	0.107463	0.007470
C300	C	0.090689	0.607463	0.507470
C301	C	-0.390509	0.196150	-0.001437
C302	C	0.109491	0.696150	0.498563
C303	C	-0.433204	0.247641	0.046436
C304	C	0.066796	0.747641	0.546436
H305	H	-0.403625	0.089541	0.053635
H306	H	0.096375	0.589541	0.553635
H307	H	-0.456717	0.100164	-0.000188
H308	H	0.043283	0.600164	0.499812
H309	H	-0.343114	0.203444	0.006226
H310	H	0.156886	0.703444	0.506226
H311	H	-0.396198	0.214098	-0.047592
H312	H	0.103802	0.714098	0.452408
H313	H	-0.480610	0.240342	0.038778
H314	H	0.019390	0.740342	0.538778
H315	H	-0.427515	0.229711	0.092598
H316	H	0.072485	0.729711	0.592598
H317	H	-0.420457	0.307821	0.040395
H318	H	0.079543	0.807821	0.540395
H319	H	-0.624757	0.000212	0.018129
H320	H	-0.124757	0.500212	0.518129
