data_functionalizedCrystal
_audit_creation_method	'MofGen! by Chris Wilmer'
_symmetry_space_group_name_H-M	'P1'
_symmetry_Int_Tables_number	1
_symmetry_cell_setting	triclinic
loop_
_symmetry_equiv_pos_as_xyz
  x,y,z
_cell_length_a	14.044220
_cell_length_b	17.699097
_cell_length_c	16.176319
_cell_angle_alpha	89.988988
_cell_angle_beta	89.992517
_cell_angle_gamma	88.238654
loop_
_atom_site_label
_atom_site_type_symbol
_atom_site_fract_x
_atom_site_fract_y
_atom_site_fract_z
O1	O	0.119911	1.012344	-0.068818
O2	O	0.619911	1.512344	0.431182
O3	O	0.135490	0.793042	-0.068805
O4	O	0.635490	1.293042	0.431195
O5	O	-0.010277	0.899401	-0.068803
O6	O	0.489723	1.399401	0.431197
O7	O	0.265678	0.905985	-0.068820
O8	O	0.765678	1.405985	0.431180
O9	O	-0.010286	0.899385	0.068690
O10	O	0.489714	1.399385	0.568690
O11	O	0.135481	0.793025	0.068688
O12	O	0.635481	1.293025	0.568688
O13	O	0.119901	1.012327	0.068675
O14	O	0.619901	1.512327	0.568675
Cu15	Cu	0.127690	0.902675	0.081236
Cu16	Cu	0.627690	1.402675	0.581236
Cu17	Cu	0.127701	0.902694	-0.081366
Cu18	Cu	0.627701	1.402694	0.418634
O19	O	0.265668	0.905968	0.068673
O20	O	0.765668	1.405968	0.568673
C21	C	0.134925	0.764798	-0.000057
C22	C	0.634925	1.264798	0.499943
C23	C	0.133244	0.680664	-0.000051
C24	C	0.633244	1.180664	0.499949
C25	C	0.122944	0.164244	-0.075032
C26	C	0.622944	0.664244	0.424968
C27	C	0.124518	0.243297	-0.075028
C28	C	0.624518	0.743297	0.424972
C29	C	0.125301	0.282808	-0.000077
C30	C	0.625301	0.782808	0.499923
C31	C	0.124501	0.243263	0.074875
C32	C	0.624501	0.743263	0.574875
C33	C	0.122921	0.164212	0.074870
C34	C	0.622921	0.664212	0.574870
C35	C	0.130871	0.562067	0.074896
C36	C	0.630871	1.062067	0.574896
C37	C	0.132454	0.641123	0.074895
C38	C	0.632454	1.141123	0.574895
C39	C	0.132468	0.641152	-0.075001
C40	C	0.632468	1.141152	0.424999
C41	C	0.130888	0.562101	-0.075006
C42	C	0.630888	1.062101	0.424994
C43	C	0.130083	0.522563	-0.000055
C44	C	0.630083	1.022563	0.499945
C45	C	0.128376	0.436845	-0.000060
C46	C	0.628376	0.936845	0.499940
C47	C	0.127015	0.368524	-0.000071
C48	C	0.627015	0.868524	0.499929
C49	C	-0.045589	0.896511	-0.000056
C50	C	0.454411	1.396511	0.499944
C51	C	-0.150796	0.887915	-0.000055
C52	C	0.349204	1.387915	0.499945
C53	C	-0.343422	0.872200	-0.000066
C54	C	0.156578	1.372200	0.499934
C55	C	-0.401192	0.933166	-0.000072
C56	C	0.098808	1.433166	0.499928
C57	C	-0.508376	0.924422	-0.000078
C58	C	-0.008376	1.424422	0.499922
C59	C	-0.236228	0.880943	-0.000059
C60	C	0.263772	1.380943	0.499941
C61	C	0.300981	0.908858	-0.000076
C62	C	0.800981	1.408858	0.499924
C63	C	0.406188	0.917454	-0.000083
C64	C	0.906188	1.417454	0.499917
C65	C	0.120466	1.040571	-0.000075
C66	C	0.620466	1.540571	0.499925
C67	C	0.122148	1.124705	-0.000086
C68	C	0.622148	1.624705	0.499914
N69	N	0.127682	0.902666	0.195601
N70	N	0.627682	1.402666	0.695601
N71	N	0.127702	0.902708	-0.195731
N72	N	0.627702	1.402708	0.304269
C73	C	0.063163	0.949780	0.238866
C74	C	0.563163	1.449780	0.738866
C75	C	0.063162	0.949783	0.325413
C76	C	0.563162	1.449783	0.825413
C77	C	0.127685	0.902677	0.368694
C78	C	0.627685	1.402677	0.868694
C79	C	0.192208	0.855559	0.325423
C80	C	0.692208	1.355559	0.825423
C81	C	0.192204	0.855552	0.238877
C82	C	0.692204	1.355552	0.738877
C83	C	0.192226	0.855586	0.674451
C84	C	0.692226	1.355586	1.174451
C85	C	0.192227	0.855598	0.761002
C86	C	0.692227	1.355598	1.261002
C87	C	0.063184	0.949818	0.760987
C88	C	0.563184	1.449818	1.260987
C89	C	0.063180	0.949811	0.674441
C90	C	0.563180	1.449811	1.174441
C91	C	0.127698	0.902690	0.631178
C92	C	0.627698	1.402690	1.131178
C93	C	0.127697	0.902685	0.537334
C94	C	0.627697	1.402685	1.037334
C95	C	0.127692	0.902685	0.462536
C96	C	0.627692	1.402685	0.962536
H97	H	0.133119	0.673353	-0.136030
H98	H	0.633119	1.173353	0.363970
C99	C	0.129999	0.518584	0.157339
C100	C	0.629999	1.018584	0.657339
H101	H	0.130704	0.553439	0.201975
H102	H	0.630704	1.053439	0.701975
H103	H	0.074139	0.489787	0.160463
H104	H	0.574139	0.989787	0.660463
H105	H	0.184636	0.485706	0.160448
H106	H	0.684636	0.985706	0.660448
H107	H	0.010642	0.988171	0.639205
H108	H	0.510642	1.488171	1.139205
C109	C	0.125365	0.286723	0.157319
C110	C	0.625365	0.786723	0.657319
H111	H	0.126430	0.339466	0.146590
H112	H	0.626430	0.839466	0.646590
H113	H	0.069859	0.275805	0.188120
H114	H	0.569859	0.775805	0.688120
H115	H	0.180356	0.271717	0.188108
H116	H	0.680356	0.771717	0.688108
H117	H	0.244771	0.817236	0.796240
H118	H	0.744771	1.317236	1.296240
C119	C	0.122049	0.120718	0.157310
C120	C	0.622049	0.620718	0.657310
H121	H	0.122751	0.155570	0.201950
H122	H	0.622751	0.655570	0.701950
H123	H	0.066188	0.091921	0.160428
H124	H	0.566188	0.591921	0.660428
H125	H	0.176685	0.087839	0.160420
H126	H	0.676685	0.587839	0.660420
H127	H	0.010646	0.988184	0.796221
H128	H	0.510646	1.488184	1.296221
C129	C	0.263201	0.803762	0.626872
C130	C	0.763201	1.303762	1.126872
H131	H	0.301635	0.775717	0.665046
H132	H	0.801635	1.275717	1.165046
H133	H	0.229159	0.769955	0.593126
H134	H	0.729159	1.269955	1.093126
H135	H	0.302614	0.833648	0.593096
H136	H	0.802614	1.333648	1.093096
H137	H	0.244741	0.817200	0.360667
H138	H	0.744741	1.317200	0.860667
C139	C	-0.359267	1.012548	-0.000058
C140	C	0.140733	1.512548	0.499942
H141	H	-0.291682	1.008089	-0.000044
H142	H	0.208318	1.508089	0.499956
H143	H	-0.380107	1.039278	-0.048001
H144	H	0.119893	1.539278	0.451999
H145	H	-0.380135	1.039243	0.047898
H146	H	0.119865	1.539243	0.547898
H147	H	-0.374459	0.813443	-0.000064
H148	H	0.125541	1.313443	0.499936
C149	C	-0.007816	1.001596	0.191265
C150	C	0.492184	1.501596	0.691265
H151	H	-0.046247	1.029650	0.229431
H152	H	0.453753	1.529650	0.729431
H153	H	0.026224	1.035395	0.157486
H154	H	0.526224	1.535395	0.657486
H155	H	-0.047232	0.971703	0.157521
H156	H	0.452768	1.471703	0.657521
H157	H	0.125161	0.275487	-0.136056
H158	H	0.625161	0.775487	0.363944
C159	C	-0.007809	1.001606	0.373005
C160	C	0.492191	1.501606	0.873005
H161	H	0.001424	0.994858	0.430747
H162	H	0.501424	1.494858	0.930747
H163	H	0.002407	1.052804	0.358807
H164	H	0.502407	1.552804	0.858807
H165	H	-0.071052	0.989114	0.358830
H166	H	0.428948	1.489114	0.858830
C167	C	0.122091	0.120789	-0.157479
C168	C	0.622091	0.620789	0.342521
H169	H	0.122785	0.155662	-0.202113
H170	H	0.622785	0.655662	0.297887
H171	H	0.176722	0.087911	-0.160598
H172	H	0.676722	0.587911	0.339402
H173	H	0.066225	0.091992	-0.160597
H174	H	0.566225	0.591992	0.339403
C175	C	0.130023	0.518642	-0.157452
C176	C	0.630023	1.018642	0.342548
H177	H	0.130714	0.553514	-0.202088
H178	H	0.630714	1.053514	0.297912
H179	H	0.184650	0.485761	-0.160575
H180	H	0.684650	0.985761	0.339425
H181	H	0.074153	0.489850	-0.160562
H182	H	0.574153	0.989850	0.339438
C183	C	0.263178	0.803731	0.191286
C184	C	0.763178	1.303731	0.691286
H185	H	0.301614	0.775682	0.229456
H186	H	0.801614	1.275682	0.729456
H187	H	0.229132	0.769927	0.157539
H188	H	0.729132	1.269927	0.657539
H189	H	0.302591	0.833617	0.157510
H190	H	0.802591	1.333617	0.657510
H191	H	0.133092	0.673291	0.135933
H192	H	0.633092	1.173291	0.635933
