data_functionalizedCrystal
_audit_creation_method	'MofGen! by Chris Wilmer'
_symmetry_space_group_name_H-M	'P1'
_symmetry_Int_Tables_number	1
_symmetry_cell_setting	triclinic
loop_
_symmetry_equiv_pos_as_xyz
  x,y,z
_cell_length_a	16.992694
_cell_length_b	10.540539
_cell_length_c	16.053802
_cell_angle_alpha	92.593658
_cell_angle_beta	87.249047
_cell_angle_gamma	87.596857
loop_
_atom_site_label
_atom_site_type_symbol
_atom_site_fract_x
_atom_site_fract_y
_atom_site_fract_z
O1	O	1.045174	0.264306	-0.069318
O2	O	1.545174	0.764306	0.430682
O3	O	0.816873	0.261349	-0.069343
O4	O	1.316873	0.761349	0.430657
O5	O	0.936232	0.078573	-0.069329
O6	O	1.436232	0.578573	0.430671
O7	O	0.925815	0.447082	-0.069332
O8	O	1.425815	0.947082	0.430668
O9	O	0.929662	0.088589	0.069529
O10	O	1.429662	0.588589	0.569529
O11	O	0.810303	0.271366	0.069516
O12	O	1.310303	0.771366	0.569516
O13	O	1.038604	0.274322	0.069540
O14	O	1.538604	0.774322	0.569540
Zn15	Zn	0.923410	0.274434	0.091575
Zn16	Zn	1.423410	0.774434	0.591575
Zn17	Zn	0.932067	0.261237	-0.091377
Zn18	Zn	1.432067	0.761237	0.408623
O19	O	0.919245	0.457098	0.069526
O20	O	1.419245	0.957098	0.569526
C21	C	0.784355	0.262556	0.000083
C22	C	1.284355	0.762556	0.500083
C23	C	0.697247	0.251215	0.000074
C24	C	1.197247	0.751215	0.500074
C25	C	0.932166	0.036210	0.000099
C26	C	1.432166	0.536210	0.500099
C27	C	0.929829	-0.104941	0.000094
C28	C	1.429829	0.395059	0.500094
C29	C	0.647620	0.360635	0.000073
C30	C	1.147620	0.860635	0.500073
C31	C	0.565773	0.349973	0.000085
C32	C	1.065773	0.849973	0.500085
C33	C	0.533555	0.229889	0.000091
C34	C	1.033555	0.729889	0.500091
C35	C	0.583189	0.120461	0.000094
C36	C	1.083189	0.620461	0.500094
C37	C	0.665034	0.131125	0.000088
C38	C	1.165034	0.631125	0.500088
C39	C	0.289709	0.185691	0.000114
C40	C	0.789709	0.685691	0.500114
C41	C	0.207858	0.175036	0.000117
C42	C	0.707858	0.675036	0.500117
C43	C	0.190447	0.404549	0.000110
C44	C	0.690447	0.904549	0.500110
C45	C	0.272294	0.415202	0.000099
C46	C	0.772294	0.915202	0.500099
C47	C	0.321921	0.305774	0.000106
C48	C	0.821921	0.805774	0.500106
N49	N	0.449895	0.218988	0.000100
N50	N	0.949895	0.718988	0.500100
N51	N	0.405579	0.316677	0.000103
N52	N	0.905579	0.816677	0.500103
C53	C	0.840283	-0.296162	-0.000227
C54	C	1.340283	0.203838	0.499773
C55	C	0.842638	-0.149316	0.000086
C56	C	1.342638	0.350684	0.500086
C57	C	0.968037	-0.157237	0.079393
C58	C	1.468037	0.342763	0.579393
C59	C	0.965058	-0.304035	0.079460
C60	C	1.465058	0.195965	0.579460
C61	C	0.974303	-0.315790	-0.078448
C62	C	1.474303	0.184210	0.421552
C63	C	0.975156	-0.168814	-0.079496
C64	C	1.475156	0.331186	0.420504
C65	C	1.071123	0.273115	0.000112
C66	C	1.571123	0.773115	0.500112
C67	C	1.158230	0.284456	0.000117
C68	C	1.658230	0.784456	0.500117
C69	C	0.923311	0.499461	0.000097
C70	C	1.423311	0.999461	0.500097
C71	C	0.925649	0.640612	0.000096
C72	C	1.425649	1.140612	0.500096
N73	N	0.917508	0.283440	0.216434
N74	N	1.417508	0.783440	0.716434
N75	N	0.937975	0.252222	-0.216237
N76	N	1.437975	0.752222	0.283763
C77	C	0.968315	0.205700	0.260134
C78	C	1.468315	0.705700	0.760134
C79	C	0.964193	0.212013	0.347540
C80	C	1.464193	0.712013	0.847540
C81	C	0.909269	0.296073	0.391245
C82	C	1.409269	0.796073	0.891245
C83	C	0.858458	0.373817	0.347539
C84	C	1.358458	0.873817	0.847539
C85	C	0.862576	0.367497	0.260134
C86	C	1.362576	0.867497	0.760134
C87	C	0.891281	0.323645	0.652653
C88	C	1.391281	0.823645	1.152653
C89	C	0.887169	0.329962	0.740063
C90	C	1.387169	0.829962	1.240063
C91	C	0.992904	0.168156	0.740059
C92	C	1.492904	0.668156	1.240059
C93	C	0.997020	0.161848	0.652652
C94	C	1.497020	0.661848	1.152652
C95	C	0.946206	0.239587	0.608954
C96	C	1.446206	0.739587	1.108954
N97	N	0.905057	0.302531	0.480588
N98	N	1.405057	0.802531	0.980588
N99	N	0.950415	0.233122	0.519612
N100	N	1.450415	0.733122	1.019612
H101	H	0.673844	0.458420	0.000068
H102	H	1.173844	0.958420	0.500068
H103	H	1.013043	0.137255	0.224555
H104	H	1.513043	0.637255	0.724555
H105	H	0.181630	0.077244	0.000121
H106	H	0.681630	0.577244	0.500121
O107	O	0.307037	0.544725	0.000091
O108	O	0.807037	1.044725	0.500091
H109	H	0.372287	0.533756	0.000078
H110	H	0.872287	1.033756	0.500078
O111	O	0.938226	-0.123725	-0.157211
O112	O	1.438226	0.376275	0.342789
H113	H	0.941385	-0.018898	-0.158871
H114	H	1.441385	0.481102	0.341129
H115	H	0.330106	0.096587	0.000120
H116	H	0.830106	0.596587	0.500120
O117	O	1.056253	0.071172	0.605513
O118	O	1.556253	0.571172	1.105513
H119	H	1.090885	0.018164	0.650585
H120	H	1.590885	0.518164	1.150585
O121	O	0.512248	0.467995	0.000087
O122	O	1.012248	0.967995	0.500087
H123	H	0.477204	0.464539	-0.056501
H124	H	0.977204	0.964539	0.443499
H125	H	0.842440	0.398419	0.775644
H126	H	1.342440	0.898419	1.275644
H127	H	0.849907	0.386945	0.617080
H128	H	1.349907	0.886945	1.117080
H129	H	1.031928	-0.129114	0.082349
H130	H	1.531928	0.370886	0.582349
H131	H	1.027595	-0.346303	0.083064
H132	H	1.527595	0.153697	0.583064
H133	H	0.150032	0.493638	0.000105
H134	H	0.650032	0.993638	0.500105
O135	O	0.940722	-0.366638	-0.158062
O136	O	1.440722	0.133362	0.341938
H137	H	0.976059	-0.334610	-0.212512
H138	H	1.476059	0.165390	0.287488
O139	O	0.548447	-0.009063	0.000103
O140	O	1.048447	0.490937	0.500103
H141	H	0.483198	0.001901	0.000099
H142	H	0.983198	0.501901	0.500099
O143	O	1.059664	-0.129898	-0.085836
O144	O	1.559664	0.370102	0.414164
H145	H	1.070730	-0.064137	-0.032116
H146	H	1.570730	0.435863	0.467884
O147	O	0.718568	0.013110	0.000086
O148	O	1.218568	0.513110	0.500086
H149	H	0.682417	-0.072185	0.000083
H150	H	1.182417	0.427815	0.500083
O151	O	1.057761	-0.371142	-0.079151
O152	O	1.557761	0.128858	0.420849
H153	H	1.070453	-0.431715	-0.136992
H154	H	1.570453	0.068285	0.363008
O155	O	1.047708	0.084305	0.787186
O156	O	1.547708	0.584305	1.287186
H157	H	1.012466	0.022063	0.827012
H158	H	1.512466	0.522063	1.327012
H159	H	1.005563	0.148710	0.383120
H160	H	1.505563	0.648710	0.883120
O161	O	0.802452	-0.102090	-0.075199
O162	O	1.302452	0.397910	0.424801
H163	H	0.781155	-0.184173	-0.112158
H164	H	1.281155	0.315827	0.387842
O165	O	0.925738	-0.098529	0.157560
O166	O	1.425738	0.401471	0.657560
H167	H	0.877499	-0.032109	0.140130
H168	H	1.377499	0.467891	0.640130
O169	O	0.798207	-0.343455	-0.075540
O170	O	1.298207	0.156545	0.424460
H171	H	0.837682	-0.412534	-0.113547
H172	H	1.337682	0.087466	0.386453
H173	H	0.803306	-0.325268	0.056314
H174	H	1.303306	0.174732	0.556314
O175	O	0.920266	-0.339295	0.157970
O176	O	1.420266	0.160705	0.657970
H177	H	0.917702	-0.444281	0.158799
H178	H	1.417702	0.055719	0.658799
O179	O	0.795047	-0.092369	0.075508
O180	O	1.295047	0.407631	0.575508
H181	H	0.770265	-0.169730	0.111905
H182	H	1.270265	0.330270	0.611905
H183	H	0.813733	0.442256	0.383129
H184	H	1.313733	0.942256	0.883129
H185	H	0.821203	0.430799	0.224555
H186	H	1.321203	0.930799	0.724555
