data_functionalizedCrystal
_audit_creation_method	'MofGen! by Chris Wilmer'
_symmetry_space_group_name_H-M	'P1'
_symmetry_Int_Tables_number	1
_symmetry_cell_setting	triclinic
loop_
_symmetry_equiv_pos_as_xyz
  x,y,z
_cell_length_a	14.044220
_cell_length_b	16.109301
_cell_length_c	15.186229
_cell_angle_alpha	90.005167
_cell_angle_beta	89.997033
_cell_angle_gamma	91.674821
loop_
_atom_site_label
_atom_site_type_symbol
_atom_site_fract_x
_atom_site_fract_y
_atom_site_fract_z
O1	O	1.257643	-0.200436	-0.073232
O2	O	1.507643	0.049564	0.176768
O3	O	1.757643	0.299564	0.426768
O4	O	2.007643	0.549564	0.676768
O5	O	0.981676	-0.193203	-0.073234
O6	O	1.231676	0.056797	0.176766
O7	O	1.481676	0.306797	0.426766
O8	O	1.731676	0.556797	0.676766
O9	O	1.127241	-0.076352	-0.073224
O10	O	1.377241	0.173648	0.176776
O11	O	1.627241	0.423648	0.426776
O12	O	1.877241	0.673648	0.676776
O13	O	1.112079	-0.317286	-0.073242
O14	O	1.362079	-0.067286	0.176758
O15	O	1.612079	0.182714	0.426758
O16	O	1.862079	0.432714	0.676758
O17	O	1.127231	-0.076350	0.073233
O18	O	1.377231	0.173650	0.323233
O19	O	1.627231	0.423650	0.573233
O20	O	1.877231	0.673650	0.823233
O21	O	0.981667	-0.193200	0.073223
O22	O	1.231667	0.056800	0.323223
O23	O	1.481667	0.306800	0.573223
O24	O	1.731667	0.556800	0.823223
O25	O	1.257634	-0.200433	0.073225
O26	O	1.507634	0.049567	0.323225
O27	O	1.757634	0.299567	0.573225
O28	O	2.007634	0.549567	0.823225
Zn29	Zn	1.119649	-0.196816	0.096478
Zn30	Zn	1.369649	0.053184	0.346478
Zn31	Zn	1.619649	0.303184	0.596478
Zn32	Zn	1.869649	0.553184	0.846478
Zn33	Zn	1.119661	-0.196820	-0.096486
Zn34	Zn	1.369661	0.053180	0.153514
Zn35	Zn	1.619661	0.303180	0.403514
Zn36	Zn	1.869661	0.553180	0.653514
O37	O	1.112069	-0.317284	0.073215
O38	O	1.362069	-0.067284	0.323215
O39	O	1.612069	0.182716	0.573215
O40	O	1.862069	0.432716	0.823215
C41	C	1.126622	-0.045330	0.000005
C42	C	1.376622	0.204670	0.250005
C43	C	1.626622	0.454670	0.500005
C44	C	1.876622	0.704670	0.750005
C45	C	1.124781	0.047102	0.000006
C46	C	1.374781	0.297102	0.250006
C47	C	1.624781	0.547102	0.500006
C48	C	1.874781	0.797102	0.750006
C49	C	0.946358	-0.190036	-0.000005
C50	C	1.196358	0.059964	0.249995
C51	C	1.446358	0.309964	0.499995
C52	C	1.696358	0.559964	0.749995
C53	C	0.841135	-0.180592	-0.000006
C54	C	1.091135	0.069408	0.249994
C55	C	1.341135	0.319408	0.499994
C56	C	1.591135	0.569408	0.749994
C57	C	1.292952	-0.203600	-0.000005
C58	C	1.542952	0.046400	0.249995
C59	C	1.792952	0.296400	0.499995
C60	C	2.042952	0.546400	0.749995
C61	C	1.398175	-0.213044	-0.000010
C62	C	1.648175	0.036956	0.249990
C63	C	1.898175	0.286956	0.499990
C64	C	2.148175	0.536956	0.749990
C65	C	1.590831	-0.230310	-0.000011
C66	C	1.840831	0.019690	0.249989
C67	C	2.090831	0.269690	0.499989
C68	C	2.340831	0.519690	0.749989
C69	C	1.648485	-0.163330	-0.000005
C70	C	1.898485	0.086670	0.249995
C71	C	2.148485	0.336670	0.499995
C72	C	2.398485	0.586670	0.749995
C73	C	1.755685	-0.172937	-0.000006
C74	C	2.005685	0.077063	0.249994
C75	C	2.255685	0.327063	0.499994
C76	C	2.505685	0.577063	0.749994
C77	C	1.483620	-0.220704	-0.000011
C78	C	1.733620	0.029296	0.249989
C79	C	1.983620	0.279296	0.499989
C80	C	2.233620	0.529296	0.749989
C81	C	1.112688	-0.348306	-0.000016
C82	C	1.362688	-0.098306	0.249984
C83	C	1.612688	0.151694	0.499984
C84	C	1.862688	0.401694	0.749984
C85	C	1.114529	-0.440738	-0.000023
C86	C	1.364529	-0.190738	0.249977
C87	C	1.614529	0.059262	0.499977
C88	C	1.864529	0.309262	0.749977
N89	N	1.119647	-0.196814	0.228170
N90	N	1.369647	0.053186	0.478170
N91	N	1.619647	0.303186	0.728170
N92	N	1.869647	0.553186	0.978170
C93	C	1.206874	0.263266	-0.000007
C94	C	1.456874	0.513266	0.249993
C95	C	1.706874	0.763266	0.499993
C96	C	1.956874	1.013266	0.749993
C97	C	1.205137	0.350116	-0.000014
C98	C	1.455137	0.600116	0.249986
C99	C	1.705137	0.850116	0.499986
C100	C	1.955137	1.100116	0.749986
C101	C	1.032429	0.343091	-0.000012
C102	C	1.282429	0.593091	0.249988
C103	C	1.532429	0.843091	0.499988
C104	C	1.782429	1.093091	0.749988
C105	C	1.034168	0.256243	-0.000011
C106	C	1.284168	0.506243	0.249989
C107	C	1.534168	0.756243	0.499989
C108	C	1.784168	1.006243	0.749989
C109	C	1.121393	0.216333	-0.000004
C110	C	1.371393	0.466333	0.249996
C111	C	1.621393	0.716333	0.499996
C112	C	1.871393	0.966333	0.749996
C113	C	1.117917	0.390031	-0.000012
C114	C	1.367917	0.640031	0.249988
C115	C	1.617917	0.890031	0.499988
C116	C	1.867917	1.140031	0.749988
C117	C	1.116032	0.484197	-0.000020
C118	C	1.366032	0.734197	0.249980
C119	C	1.616032	0.984197	0.499980
C120	C	1.866032	1.234197	0.749980
C121	C	1.123278	0.122161	0.000002
C122	C	1.373278	0.372161	0.250002
C123	C	1.623278	0.622161	0.500002
C124	C	1.873278	0.872161	0.750002
N125	N	1.119671	-0.196816	-0.228179
N126	N	1.369671	0.053184	0.021821
N127	N	1.619671	0.303184	0.271821
N128	N	1.869671	0.553184	0.521821
C129	C	1.184125	-0.145093	0.453898
C130	C	1.434125	0.104907	0.703898
C131	C	1.684125	0.354907	0.953898
C132	C	1.934125	0.604907	1.203898
C133	C	1.184128	-0.145092	0.546087
C134	C	1.434128	0.104908	0.796087
C135	C	1.684128	0.354908	1.046087
C136	C	1.934128	0.604908	1.296087
C137	C	1.055186	-0.248539	0.546087
C138	C	1.305186	0.001461	0.796087
C139	C	1.555186	0.251461	1.046087
C140	C	1.805186	0.501461	1.296087
C141	C	1.055179	-0.248536	0.453899
C142	C	1.305179	0.001464	0.703899
C143	C	1.555179	0.251464	0.953899
C144	C	1.805179	0.501464	1.203899
C145	C	1.119654	-0.196814	0.407807
C146	C	1.369654	0.053186	0.657807
C147	C	1.619654	0.303186	0.907807
C148	C	1.869654	0.553186	1.157807
C149	C	1.119664	-0.196816	0.592185
C150	C	1.369664	0.053184	0.842185
C151	C	1.619664	0.303184	1.092185
C152	C	1.869664	0.553184	1.342185
C153	C	1.119666	-0.196814	0.692141
C154	C	1.369666	0.053186	0.942141
C155	C	1.619666	0.303186	1.192141
C156	C	1.869666	0.553186	1.442141
C157	C	1.119650	-0.196814	0.307844
C158	C	1.369650	0.053186	0.557844
C159	C	1.619650	0.303186	0.807844
C160	C	1.869650	0.553186	1.057844
H161	H	1.617334	-0.098773	-0.000065
H162	H	1.867334	0.151227	0.249935
H163	H	2.117334	0.401227	0.499935
H164	H	2.367334	0.651227	0.749935
H165	H	1.277898	0.230774	-0.000003
H166	H	1.527898	0.480774	0.249997
H167	H	1.777898	0.730774	0.499997
H168	H	2.027898	0.980774	0.749997
H169	H	1.002675	-0.290653	0.416370
H170	H	1.252675	-0.040653	0.666370
H171	H	1.502675	0.209347	0.916370
H172	H	1.752675	0.459347	1.166370
H173	H	1.621980	-0.294862	-0.000016
H174	H	1.871980	-0.044862	0.249984
H175	H	2.121980	0.205138	0.499984
H176	H	2.371980	0.455138	0.749984
H177	H	1.274744	0.388326	-0.000018
H178	H	1.524744	0.638326	0.249982
H179	H	1.774744	0.888326	0.499982
H180	H	2.024744	1.138326	0.749982
H181	H	0.961413	0.375597	-0.000016
H182	H	1.211413	0.625597	0.249984
H183	H	1.461413	0.875597	0.499984
H184	H	1.711413	1.125597	0.749984
H185	H	0.964554	0.218029	-0.000011
H186	H	1.214554	0.468029	0.249989
H187	H	1.464554	0.718029	0.499989
H188	H	1.714554	0.968029	0.749989
H189	H	1.236623	-0.102977	0.416371
H190	H	1.486623	0.147023	0.666371
H191	H	1.736623	0.397023	0.916371
H192	H	1.986623	0.647023	1.166371
H193	H	1.236624	-0.102975	0.583612
H194	H	1.486624	0.147025	0.833612
H195	H	1.736624	0.397025	1.083612
H196	H	1.986624	0.647025	1.333612
H197	H	1.002693	-0.290651	0.583625
H198	H	1.252693	-0.040651	0.833625
H199	H	1.502693	0.209349	1.083625
H200	H	1.752693	0.459349	1.333625
