data_functionalizedCrystal
_audit_creation_method	'MofGen! by Chris Wilmer'
_symmetry_space_group_name_H-M	'P1'
_symmetry_Int_Tables_number	1
_symmetry_cell_setting	triclinic
loop_
_symmetry_equiv_pos_as_xyz
  x,y,z
_cell_length_a	27.732064
_cell_length_b	26.809956
_cell_length_c	14.971486
_cell_angle_alpha	90.004748
_cell_angle_beta	83.131776
_cell_angle_gamma	90.008415
loop_
_atom_site_label
_atom_site_type_symbol
_atom_site_fract_x
_atom_site_fract_y
_atom_site_fract_z
O1	O	0.641422	0.041391	0.106496
O2	O	0.500704	0.041411	0.122663
O3	O	0.574834	0.041397	-0.015680
O4	O	0.567291	0.041405	0.244839
O5	O	0.574811	-0.041562	-0.015680
O6	O	0.500681	-0.041548	0.122663
O7	O	0.641399	-0.041568	0.106496
Zn8	Zn	0.571036	-0.054730	0.114579
Zn9	Zn	0.571066	0.054573	0.114579
O10	O	0.567268	-0.041554	0.244839
C11	C	0.482684	-0.000066	0.122321
C12	C	0.429025	-0.000058	0.121292
N13	N	0.571019	-0.129326	0.114579
C14	C	0.051543	-0.000089	0.032536
C15	C	0.253220	-0.000076	0.036322
O16	O	0.284155	-0.000097	-0.032551
N17	N	0.272726	-0.000071	0.118357
C18	C	0.241809	-0.000073	0.199450
O19	O	0.263028	-0.000074	0.269313
C20	C	0.040133	-0.000089	0.195663
C21	C	0.020630	-0.000089	0.113623
C22	C	0.032039	-0.000089	-0.049498
C23	C	-0.018378	-0.000090	-0.050443
C24	C	-0.049290	-0.000090	0.030644
C25	C	-0.029787	-0.000090	0.112678
C26	C	0.009217	-0.000095	0.276756
C27	C	-0.041205	-0.000100	0.275802
C28	C	-0.060708	-0.000100	0.193762
C29	C	-0.111116	-0.000091	0.192820
N30	N	-0.130622	-0.000095	0.110785
C31	C	-0.099709	-0.000095	0.029697
C32	C	0.347693	-0.000063	0.201433
C33	C	0.398112	-0.000058	0.202380
C34	C	0.409519	-0.000062	0.039251
C35	C	0.359099	-0.000064	0.038305
C36	C	0.328187	-0.000068	0.119398
C37	C	-0.205588	-0.000096	0.027717
C38	C	-0.256009	-0.000094	0.026779
C39	C	-0.267412	-0.000093	0.189907
C40	C	-0.216995	-0.000092	0.190846
C41	C	-0.186084	-0.000095	0.109744
O42	O	-0.142080	-0.000075	0.261655
O43	O	-0.120937	-0.000105	-0.040155
C44	C	0.101959	-0.000088	0.033481
C45	C	0.121463	-0.000088	0.115515
C46	C	0.090550	-0.000088	0.196602
C47	C	0.171882	-0.000083	0.116462
C48	C	0.202794	-0.000083	0.035374
C49	C	0.183288	-0.000088	-0.046661
C50	C	0.132872	-0.000088	-0.047606
C51	C	0.110056	-0.000084	0.278637
C52	C	0.160473	-0.000082	0.279576
C53	C	0.191386	-0.000082	0.198488
C54	C	0.600405	-0.473954	0.168448
C55	C	0.600421	-0.682832	0.168447
O56	O	0.625393	-0.709838	0.214239
N57	N	0.571078	-0.708953	0.114570
C58	C	0.541731	-0.682851	0.060685
O59	O	0.516777	-0.709861	0.014852
C60	C	0.541719	-0.473974	0.060682
C61	C	0.571060	-0.447856	0.114569
C62	C	0.629744	-0.447836	0.222331
C63	C	0.629738	-0.395620	0.222334
C64	C	0.600393	-0.369522	0.168455
C65	C	0.571054	-0.395640	0.114573
C66	C	0.512375	-0.447873	0.006792
C67	C	0.512375	-0.395650	0.006794
C68	C	0.541716	-0.369532	0.060682
C69	C	0.541702	-0.317325	0.060697
N70	N	0.571045	-0.291204	0.114574
C71	C	0.600390	-0.317303	0.168453
C72	C	0.541739	-0.792514	0.060692
C73	C	0.541742	-0.844733	0.060694
C74	C	0.600432	-0.844711	0.168455
C75	C	0.600427	-0.792491	0.168457
C76	C	0.571082	-0.766393	0.114569
C77	C	0.600375	-0.207645	0.168457
C78	C	0.600365	-0.155424	0.168458
C79	C	0.541676	-0.155451	0.060693
C80	C	0.541684	-0.207667	0.060695
C81	C	0.571038	-0.233763	0.114579
O82	O	0.516747	-0.290287	0.014921
O83	O	0.625349	-0.290284	0.214264
C84	C	0.600411	-0.526171	0.168445
C85	C	0.571072	-0.552289	0.114562
C86	C	0.541727	-0.526190	0.060683
C87	C	0.571075	-0.604508	0.114564
C88	C	0.600420	-0.630606	0.168443
C89	C	0.629763	-0.604485	0.222321
C90	C	0.629757	-0.552269	0.222324
C91	C	0.512384	-0.552311	0.006806
C92	C	0.512392	-0.604527	0.006808
C93	C	0.541737	-0.630625	0.060687
C94	C	0.659418	-0.000090	0.106838
C95	C	0.713078	-0.000095	0.107866
C96	C	0.574486	-0.000082	-0.048999
C97	C	0.573475	-0.000082	-0.148280
N98	N	0.571087	0.129169	0.114573
C99	C	0.617024	-0.000088	-0.206189
C100	C	0.616071	-0.000083	-0.299474
C101	C	0.571569	-0.000075	-0.334848
C102	C	0.528016	-0.000067	-0.276932
C103	C	0.528969	-0.000068	-0.183649
C104	C	0.526032	-0.000065	-0.471363
C105	C	0.525078	-0.000064	-0.564652
C106	C	0.613134	-0.000080	-0.587188
C107	C	0.614088	-0.000081	-0.493905
C108	C	0.570534	-0.000074	-0.435995
C109	C	0.567617	-0.000073	0.278158
C110	C	0.568628	-0.000071	0.377439
H111	H	-0.271886	-0.000093	-0.040031
H112	H	0.322528	-0.000066	0.267473
F113	F	0.510497	-0.764745	0.003346
F114	F	0.510506	-0.872524	0.003352
H115	H	0.624277	-0.228886	0.212334
H116	H	0.488494	-0.625788	-0.037071
F117	F	-0.300321	-0.000091	0.276202
H118	H	0.648597	-0.000084	-0.634343
F119	F	0.510452	-0.235464	0.003351
H120	H	0.434697	-0.000060	-0.026774
H121	H	0.624258	-0.134161	0.212344
H122	H	-0.066372	-0.000106	0.341840
F123	F	0.481145	-0.475658	-0.050563
F124	F	0.481143	-0.524542	-0.050532
F125	F	0.477713	-0.000056	-0.602298
F126	F	0.664391	-0.000102	-0.168551
F127	F	0.479677	-0.000056	-0.409733
F128	F	0.077162	-0.000083	0.364947
H129	H	0.653649	-0.531009	0.266205
H130	H	-0.201115	-0.000092	0.257650
F131	F	0.510445	-0.127666	0.003357
F132	F	0.661453	-0.000089	-0.456259
F133	F	-0.172697	-0.000099	-0.058601
F134	F	0.112122	-0.000086	-0.134925
H135	H	0.491781	-0.000057	-0.305740
H136	H	0.651534	-0.000090	-0.346620
H137	H	0.413987	-0.000051	0.269185
H138	H	0.488479	-0.374404	-0.037090
H139	H	0.493506	-0.000063	-0.136500
H140	H	-0.034252	-0.000092	-0.117249
F141	F	0.064932	-0.000090	-0.135810
F142	F	0.216197	-0.000085	-0.132960
H143	H	0.025087	-0.000093	0.343562
H144	H	0.653644	-0.469080	0.266206
F145	F	0.338348	-0.000065	-0.049012
F146	F	0.660961	-0.367830	0.279700
H147	H	0.624319	-0.771229	0.212338
F148	F	0.181223	-0.000079	0.366901
F149	F	0.631665	-0.872495	0.225796
H150	H	0.653655	-0.625744	0.266195
