data_functionalizedCrystal
_audit_creation_method	'MofGen! by Chris Wilmer'
_symmetry_space_group_name_H-M	'P1'
_symmetry_Int_Tables_number	1
_symmetry_cell_setting	triclinic
loop_
_symmetry_equiv_pos_as_xyz
  x,y,z
_cell_length_a	21.395364
_cell_length_b	19.120786
_cell_length_c	21.395355
_cell_angle_alpha	92.459295
_cell_angle_beta	90.024552
_cell_angle_gamma	92.480057
loop_
_atom_site_label
_atom_site_type_symbol
_atom_site_fract_x
_atom_site_fract_y
_atom_site_fract_z
Zn1	Zn	0.947247	-0.279432	0.343622
Zn2	Zn	1.280581	0.053901	0.676955
Zn3	Zn	1.613914	0.387234	1.010289
Zn4	Zn	0.942690	-0.396873	0.234373
Zn5	Zn	1.276023	-0.063539	0.567706
Zn6	Zn	1.609356	0.269794	0.901039
Zn7	Zn	0.842461	-0.279463	0.238857
Zn8	Zn	1.175794	0.053870	0.572191
Zn9	Zn	1.509128	0.387204	0.905524
Zn10	Zn	0.837971	-0.396885	0.339112
Zn11	Zn	1.171304	-0.063552	0.672446
Zn12	Zn	1.504638	0.269782	1.005779
O13	O	0.892592	-0.338163	0.288991
O14	O	1.225926	-0.004830	0.622324
O15	O	1.559259	0.328503	0.955658
O16	O	1.034321	-0.294993	0.329140
O17	O	1.367655	0.038340	0.662473
O18	O	1.700988	0.371674	0.995807
O19	O	0.929366	-0.381306	0.147289
O20	O	1.262699	-0.047972	0.480623
O21	O	1.596033	0.285361	0.813956
O22	O	0.860148	-0.181168	0.256519
O23	O	1.193481	0.152165	0.589852
O24	O	1.526814	0.485498	0.923185
O25	O	1.030973	-0.381276	0.248875
O26	O	1.364306	-0.047942	0.582209
O27	O	1.697640	0.285391	0.915542
O28	O	0.937134	-0.181146	0.333489
O29	O	1.270467	0.152188	0.666822
O30	O	1.603800	0.485521	1.000155
O31	O	0.855728	-0.295045	0.150584
O32	O	1.189062	0.038288	0.483918
O33	O	1.522395	0.371621	0.817251
O34	O	0.754187	-0.295057	0.252146
O35	O	1.087520	0.038276	0.585479
O36	O	1.420854	0.371609	0.918813
O37	O	0.852495	-0.381297	0.427389
O38	O	1.185828	-0.047964	0.760722
O39	O	1.519162	0.285370	1.094055
O40	O	0.750888	-0.381327	0.325803
O41	O	1.084221	-0.047994	0.659136
O42	O	1.417555	0.285340	0.992470
O43	O	0.932780	-0.295005	0.430702
O44	O	1.266113	0.038328	0.764035
O45	O	1.599446	0.371662	1.097369
O46	O	0.925012	-0.495165	0.244503
O47	O	1.258345	-0.161831	0.577836
O48	O	1.591679	0.171502	0.911169
O49	O	0.848076	-0.495174	0.321454
O50	O	1.181409	-0.161841	0.654788
O51	O	1.514742	0.171493	0.988121
C52	C	0.729803	-0.338197	0.288972
C53	C	1.063137	-0.004864	0.622306
C54	C	1.396470	0.328469	0.955639
C55	C	0.660161	-0.338229	0.288978
C56	C	0.993494	-0.004896	0.622312
C57	C	1.326828	0.328438	0.955645
C58	C	0.629211	-0.293375	0.330831
C59	C	0.962544	0.039958	0.664165
C60	C	1.295877	0.373292	0.997498
C61	C	0.563776	-0.293356	0.330835
C62	C	0.897109	0.039977	0.664168
C63	C	1.230443	0.373310	0.997501
C64	C	0.529294	-0.338204	0.288991
C65	C	0.862627	-0.004871	0.622324
C66	C	1.195960	0.328463	0.955657
C67	C	0.560251	-0.383061	0.247130
C68	C	0.893585	-0.049728	0.580463
C69	C	1.226918	0.283605	0.913796
C70	C	0.625685	-0.383074	0.247124
C71	C	0.959018	-0.049740	0.580457
C72	C	1.292352	0.283593	0.913790
C73	C	0.423167	-0.401459	0.281545
C74	C	0.756500	-0.068125	0.614878
C75	C	1.089834	0.265208	0.948211
C76	C	0.357734	-0.401447	0.281555
C77	C	0.691068	-0.068114	0.614889
C78	C	1.024401	0.265219	0.948222
C79	C	0.327474	-0.338165	0.289006
C80	C	0.660808	-0.004832	0.622339
C81	C	0.994141	0.328501	0.955673
C82	C	0.362655	-0.274893	0.296460
C83	C	0.695988	0.058440	0.629793
C84	C	1.029321	0.391774	0.963126
C85	C	0.428088	-0.274905	0.296454
C86	C	0.761422	0.058428	0.629787
C87	C	1.094755	0.391761	0.963120
C88	C	0.458341	-0.338195	0.288992
C89	C	0.791675	-0.004862	0.622326
C90	C	1.125008	0.328471	0.955659
C91	C	0.225573	-0.293287	0.330865
C92	C	0.558906	0.040046	0.664198
C93	C	0.892239	0.373379	0.997532
C94	C	0.160137	-0.293268	0.330864
C95	C	0.493470	0.040066	0.664197
C96	C	0.826803	0.373399	0.997530
C97	C	0.156613	-0.382979	0.247162
C98	C	0.489946	-0.049645	0.580495
C99	C	0.823280	0.283688	0.913829
C100	C	0.222048	-0.382992	0.247160
C101	C	0.555381	-0.049659	0.580493
C102	C	0.888714	0.283674	0.913827
C103	C	0.256524	-0.338148	0.289015
C104	C	0.589857	-0.004814	0.622348
C105	C	0.923190	0.328519	0.955682
C106	C	0.885579	-0.520655	0.282016
C107	C	1.218912	-0.187322	0.615350
C108	C	1.552246	0.146012	0.948683
C109	C	0.882636	-0.598726	0.279053
C110	C	1.215969	-0.265393	0.612387
C111	C	1.549303	0.067941	0.945720
C112	C	0.921306	-0.635331	0.317768
C113	C	1.254639	-0.301998	0.651101
C114	C	1.587973	0.031335	0.984435
C115	C	0.918538	-0.708687	0.314985
C116	C	1.251872	-0.375354	0.648318
C117	C	1.585205	-0.042021	0.981652
C118	C	0.877103	-0.745436	0.273484
C119	C	1.210437	-0.412103	0.606817
C120	C	1.543770	-0.078769	0.940151
C121	C	0.838429	-0.708825	0.234768
C122	C	1.171762	-0.375492	0.568101
C123	C	1.505096	-0.042159	0.901434
C124	C	0.841194	-0.635471	0.237554
C125	C	1.174528	-0.302138	0.570887
C126	C	1.507861	0.031196	0.904221
C127	C	0.866748	-0.966923	0.263067
C128	C	1.200082	-0.633589	0.596400
C129	C	1.533415	-0.300256	0.929734
C130	C	0.863987	-1.040282	0.260282
C131	C	1.197321	-0.706949	0.593615
C132	C	1.530654	-0.373616	0.926949
C133	C	0.944096	-1.040139	0.340501
C134	C	1.277430	-0.706806	0.673834
C135	C	1.610763	-0.373473	1.007167
C136	C	0.946860	-0.966783	0.343281
C137	C	1.280194	-0.633450	0.676614
C138	C	1.613527	-0.300117	1.009947
C139	C	0.908184	-0.930179	0.304567
C140	C	1.241517	-0.596846	0.637900
C141	C	1.574850	-0.263512	0.971234
C142	C	0.874275	-0.820417	0.270637
C143	C	1.207608	-0.487084	0.603970
C144	C	1.540941	-0.153751	0.937304
C145	C	0.911010	-0.855199	0.307417
C146	C	1.244343	-0.521866	0.640751
C147	C	1.577676	-0.188532	0.974084
C148	C	1.056017	-0.338129	0.289010
C149	C	1.389350	-0.004796	0.622344
C150	C	1.722683	0.328537	0.955677
C151	C	1.125659	-0.338115	0.289019
C152	C	1.458992	-0.004782	0.622352
C153	C	1.792325	0.328552	0.955685
C154	C	0.892645	-0.338149	0.452415
C155	C	1.225978	-0.004816	0.785748
C156	C	1.559311	0.328518	1.119082
C157	C	0.892667	-0.338143	0.522057
C158	C	1.226001	-0.004810	0.855390
C159	C	1.559334	0.328524	1.188723
C160	C	0.899650	-0.154959	0.296007
C161	C	1.232983	0.178375	0.629340
C162	C	1.566317	0.511708	0.962674
C163	C	0.902657	-0.076888	0.298997
C164	C	1.235991	0.256445	0.632330
C165	C	1.569324	0.589779	0.965663
C166	C	0.892578	-0.338127	0.126205
C167	C	1.225911	-0.004793	0.459538
C168	C	1.559245	0.328540	0.792872
C169	C	0.892684	-0.337935	0.056571
C170	C	1.226018	-0.004602	0.389905
C171	C	1.559351	0.328732	0.723238
C172	C	0.934470	-0.293209	0.556496
C173	C	1.267803	0.040125	0.889829
C174	C	1.601137	0.373458	1.223162
C175	C	0.934470	-0.293179	0.621932
C176	C	1.267804	0.040155	0.955266
C177	C	1.601137	0.373488	1.288599
C178	C	0.892674	-0.338095	0.652927
C179	C	1.226007	-0.004762	0.986260
C180	C	1.559341	0.328572	1.319593
C181	C	0.850863	-0.383032	0.618479
C182	C	1.184197	-0.049699	0.951813
C183	C	1.517530	0.283634	1.285146
C184	C	0.850860	-0.383056	0.553044
C185	C	1.184193	-0.049723	0.886378
C186	C	1.517527	0.283610	1.219711
C187	C	0.885296	-0.401340	0.754184
C188	C	1.218629	-0.068007	1.087517
C189	C	1.551963	0.265326	1.420851
C190	C	0.885304	-0.401318	0.819618
C191	C	1.218637	-0.067984	1.152951
C192	C	1.551970	0.265349	1.486285
C193	C	0.892681	-0.338021	0.854750
C194	C	1.226014	-0.004688	1.188084
C195	C	1.559347	0.328646	1.521417
C196	C	0.900063	-0.274745	0.824441
C197	C	1.233396	0.058589	1.157774
C198	C	1.566730	0.391922	1.491108
C199	C	0.900060	-0.274769	0.759006
C200	C	1.233393	0.058565	1.092339
C201	C	1.566726	0.391898	1.425673
C202	C	0.892673	-0.338074	0.723880
C203	C	1.226006	-0.004740	1.057213
C204	C	1.559339	0.328593	1.390547
C205	C	0.934486	-0.293050	0.960144
C206	C	1.267819	0.040283	1.293477
C207	C	1.601153	0.373617	1.626810
C208	C	0.934482	-0.293019	1.025582
C209	C	1.267815	0.040315	1.358915
C210	C	1.601149	0.373648	1.692248
C211	C	0.850878	-0.382879	1.022127
C212	C	1.184211	-0.049545	1.355460
C213	C	1.517545	0.283788	1.688794
C214	C	0.850879	-0.382904	0.956691
C215	C	1.184212	-0.049571	1.290024
C216	C	1.517546	0.283763	1.623357
C217	C	0.892686	-0.337991	0.925703
C218	C	1.226020	-0.004657	1.259036
C219	C	1.559353	0.328676	1.592370
H220	H	0.134939	-0.256738	0.364945
H221	H	0.468272	0.076595	0.698278
H222	H	0.801605	0.409929	1.031611
O223	O	0.908018	-0.206528	0.726312
O224	O	1.241352	0.126805	1.059645
O225	O	1.574685	0.460139	1.392978
H226	H	0.913146	-0.162506	0.761729
H227	H	1.246480	0.170827	1.095063
H228	H	1.579813	0.504161	1.428396
H229	H	0.980600	-0.936864	0.377074
H230	H	1.313933	-0.603531	0.710408
H231	H	1.647267	-0.270197	1.043741
H232	H	0.816841	-0.419444	1.047362
H233	H	1.150174	-0.086110	1.380695
H234	H	1.483507	0.247223	1.714029
O235	O	0.965999	-0.595698	0.362530
O236	O	1.299333	-0.262365	0.695863
O237	O	1.632666	0.070968	1.029196
H238	H	0.999154	-0.562258	0.335783
H239	H	1.332487	-0.228925	0.669117
H240	H	1.665820	0.104408	1.002450
H241	H	0.247247	-0.419520	0.213081
H242	H	0.580581	-0.086187	0.546414
H243	H	0.913914	0.247146	0.879748
H244	H	0.816831	-0.419601	0.643719
H245	H	1.150164	-0.086268	0.977053
H246	H	1.483497	0.247065	1.310386
H247	H	0.835257	-0.937125	0.231543
H248	H	1.168591	-0.603792	0.564877
H249	H	1.501924	-0.270459	0.898210
O250	O	0.979556	-0.244762	0.523075
O251	O	1.312890	0.088571	0.856408
O252	O	1.646223	0.421905	1.189742
H253	H	1.010223	-0.276205	0.492082
H254	H	1.343557	0.057128	0.825416
H255	H	1.676890	0.390462	1.158749
H256	H	0.950032	-0.738488	0.346506
H257	H	1.283366	-0.405155	0.679839
H258	H	1.616699	-0.071822	1.013173
O259	O	0.262765	-0.244913	0.375996
O260	O	0.596098	0.088420	0.709330
O261	O	0.929432	0.421753	1.042663
H262	H	0.230248	-0.213709	0.405093
H263	H	0.563581	0.119624	0.738427
H264	H	0.896914	0.452957	1.071760
H265	H	0.816842	-0.419498	0.928650
H266	H	1.150176	-0.086165	1.261983
H267	H	1.483509	0.247168	1.595316
H268	H	0.128538	-0.419495	0.213092
H269	H	0.461871	-0.086161	0.546425
H270	H	0.795204	0.247172	0.879758
H271	H	0.975584	-1.069950	0.372020
H272	H	1.308917	-0.736617	0.705353
H273	H	1.642250	-0.403284	1.038687
H274	H	0.906071	-0.223202	0.853045
H275	H	1.239404	0.110131	1.186378
H276	H	1.572738	0.443464	1.519711
H277	H	0.830243	-1.070201	0.226486
H278	H	1.163576	-0.736868	0.559820
H279	H	1.496910	-0.403534	0.893153
O280	O	0.455798	-0.469719	0.273495
O281	O	0.789132	-0.136385	0.606828
O282	O	1.122465	0.196948	0.940162
H283	H	0.507208	-0.459098	0.274732
H284	H	0.840541	-0.125764	0.608065
H285	H	1.173875	0.207569	0.941398
O286	O	0.877335	-0.469560	0.852308
O287	O	1.210669	-0.136227	1.185642
O288	O	1.544002	0.197107	1.518975
H289	H	0.872190	-0.513577	0.816887
H290	H	1.205523	-0.180243	1.150221
H291	H	1.538856	0.153090	1.483554
O292	O	0.319791	-0.469685	0.273505
O293	O	0.653124	-0.136352	0.606838
O294	O	0.986457	0.196981	0.940171
H295	H	0.351824	-0.513689	0.268305
H296	H	0.685157	-0.180356	0.601638
H297	H	1.018490	0.152977	0.934972
O298	O	0.799491	-0.595987	0.195791
O299	O	1.132824	-0.262654	0.529124
O300	O	1.466158	0.070679	0.862457
H301	H	0.749778	-0.610127	0.205949
H302	H	1.083112	-0.276794	0.539282
H303	H	1.416445	0.056540	0.872615
O304	O	0.523065	-0.431434	0.201996
O305	O	0.856399	-0.098101	0.535330
O306	O	1.189732	0.235232	0.868663
H307	H	0.472364	-0.423896	0.209036
H308	H	0.805698	-0.090562	0.542369
H309	H	1.139031	0.242771	0.875702
H310	H	0.650884	-0.419600	0.213041
H311	H	0.984217	-0.086267	0.546374
H312	H	1.317551	0.247066	0.879707
O313	O	0.955707	-0.815566	0.352171
O314	O	1.289040	-0.482232	0.685505
O315	O	1.622373	-0.148899	1.018838
H316	H	0.944414	-0.829625	0.400805
H317	H	1.277747	-0.496291	0.734139
H318	H	1.611081	-0.162958	1.067472
O319	O	0.979564	-0.244719	0.659090
O320	O	1.312897	0.088615	0.992423
O321	O	1.646230	0.421948	1.325757
H322	H	1.008637	-0.213496	0.626549
H323	H	1.341970	0.119837	0.959882
H324	H	1.675304	0.453171	1.293215
O325	O	0.793745	-0.748456	0.189996
O326	O	1.127078	-0.415123	0.523329
O327	O	1.460412	-0.081789	0.856662
H328	H	0.798326	-0.805614	0.194553
H329	H	1.131659	-0.472281	0.527887
H330	H	1.464992	-0.138948	0.861220
O331	O	0.979568	-0.244603	0.926714
O332	O	1.312901	0.088730	1.260047
O333	O	1.646234	0.422063	1.593380
H334	H	1.008629	-0.213343	0.961658
H335	H	1.341963	0.119991	1.294992
H336	H	1.675296	0.453324	1.628325
H337	H	0.840540	-0.850347	0.236845
H338	H	1.173873	-0.517013	0.570178
H339	H	1.507207	-0.183680	0.903511
O340	O	0.979572	-0.244553	1.062732
O341	O	1.312905	0.088780	1.396065
O342	O	1.646239	0.422113	1.729399
H343	H	1.008645	-0.213334	1.030188
H344	H	1.341978	0.119999	1.363521
H345	H	1.675311	0.453333	1.696855
O346	O	0.877331	-0.469614	0.716292
O347	O	1.210665	-0.136280	1.049626
O348	O	1.543998	0.197053	1.382959
H349	H	0.872206	-0.513608	0.748359
H350	H	1.205539	-0.180275	1.081693
H351	H	1.538872	0.153059	1.415026
H352	H	0.538572	-0.256827	0.364915
H353	H	0.871905	0.076506	0.698249
H354	H	1.205238	0.409839	1.031582
O355	O	0.805758	-0.431507	0.515893
O356	O	1.139092	-0.098174	0.849226
O357	O	1.472425	0.235159	1.182560
H358	H	0.776689	-0.462732	0.548436
H359	H	1.110022	-0.129399	0.881769
H360	H	1.443355	0.203935	1.215103
H361	H	0.456730	-0.223387	0.302521
H362	H	0.790063	0.109947	0.635854
H363	H	1.123396	0.443280	0.969187
O364	O	0.666398	-0.244996	0.375961
O365	O	0.999731	0.088337	0.709295
O366	O	1.333064	0.421670	1.042628
H367	H	0.633879	-0.213796	0.405059
H368	H	0.967212	0.119537	0.738393
H369	H	1.300545	0.452870	1.071726
H370	H	0.338019	-0.223363	0.302527
H371	H	0.671352	0.109971	0.635860
H372	H	1.004685	0.443304	0.969194
