data_functionalizedCrystal
_audit_creation_method	'MofGen! by Chris Wilmer'
_symmetry_space_group_name_H-M	'P1'
_symmetry_Int_Tables_number	1
_symmetry_cell_setting	triclinic
loop_
_symmetry_equiv_pos_as_xyz
  x,y,z
_cell_length_a	13.032831
_cell_length_b	18.050589
_cell_length_c	13.032268
_cell_angle_alpha	97.149417
_cell_angle_beta	90.886977
_cell_angle_gamma	82.833186
loop_
_atom_site_label
_atom_site_type_symbol
_atom_site_fract_x
_atom_site_fract_y
_atom_site_fract_z
Zn1	Zn	1.498351	-0.501530	-0.780835
Zn2	Zn	1.520065	-0.612177	-0.608855
Zn3	Zn	1.348217	-0.470507	-0.587076
Zn4	Zn	1.326314	-0.608161	-0.758980
O5	O	1.423237	-0.548094	-0.683937
O6	O	1.645148	-0.530872	-0.776283
O7	O	1.515523	-0.582081	-0.462049
O8	O	1.368212	-0.370708	-0.612810
O9	O	1.661101	-0.612163	-0.649930
O10	O	1.478515	-0.393501	-0.755164
O11	O	1.389267	-0.477997	-0.446048
O12	O	1.201395	-0.474104	-0.591619
O13	O	1.330881	-0.605320	-0.905796
O14	O	1.185303	-0.575238	-0.717916
O15	O	1.457276	-0.526978	-0.921853
O16	O	1.494284	-0.715559	-0.628738
O17	O	1.351936	-0.712609	-0.739034
C18	C	1.156033	-0.520869	-0.650033
C19	C	1.041718	-0.509242	-0.635553
C20	C	0.982831	-0.554162	-0.691494
C21	C	0.864681	-0.542146	-0.676530
C22	C	1.423115	-0.741032	-0.683904
C23	C	1.423152	-0.823584	-0.683936
C24	C	1.345814	-1.021463	-0.743900
C25	C	1.332669	-1.060964	-0.646879
C26	C	1.423252	-0.974726	-0.683962
C27	C	1.436446	-1.082312	-0.781001
C28	C	1.423345	-1.120722	-0.683996
C29	C	1.410063	-1.013131	-0.586886
C30	C	1.513876	-1.034484	-0.721076
C31	C	1.500775	-1.073962	-0.623995
C32	C	1.423195	-0.890621	-0.683944
C33	C	1.423402	-1.204825	-0.684003
C34	C	1.691484	-0.575426	-0.717973
C35	C	1.805795	-0.587073	-0.732478
C36	C	1.389213	-0.569162	-0.952184
C37	C	1.374714	-0.578139	-1.066495
C38	C	1.423384	-0.354407	-0.683996
C39	C	1.423447	-0.271869	-0.684021
C40	C	1.430788	-0.543380	-1.125403
C41	C	1.415804	-0.552658	-1.243549
C42	C	1.457187	-0.527061	-0.416741
C43	C	1.471885	-0.517894	-0.302456
H44	H	1.280253	-0.998449	-0.794494
C45	C	1.148232	-1.050645	-0.667374
C46	C	1.229269	-1.077183	-0.604513
H47	H	1.084398	-1.060661	-0.641225
H48	H	1.147219	-0.997963	-0.667643
H49	H	1.158115	-1.075324	-0.735882
H50	H	1.219390	-1.052501	-0.536006
H51	H	1.230280	-1.129875	-0.604233
H52	H	1.315608	-0.614761	-1.103528
C53	C	0.778754	-0.690240	-0.860959
C54	C	0.855797	-0.651005	-0.812096
H55	H	0.809625	-0.729705	-0.910115
H56	H	0.742524	-0.710839	-0.810812
H57	H	0.731873	-0.656786	-0.895105
H58	H	0.902674	-0.684458	-0.777945
H59	H	0.892044	-0.630406	-0.862252
C60	C	1.394957	-0.895191	-0.477067
C61	C	1.394916	-0.972668	-0.476073
H62	H	1.385596	-0.870211	-0.408658
H63	H	1.459074	-0.885996	-0.503493
H64	H	1.340215	-0.876821	-0.519712
H65	H	1.449663	-0.991039	-0.433433
H66	H	1.330791	-0.981868	-0.449633
H67	H	1.590448	-1.022459	-0.752483
H68	H	1.489884	-0.506750	-1.088368
H69	H	1.566310	-1.096823	-0.573255
C70	C	1.370241	-1.096295	-0.954363
C71	C	1.451473	-1.122887	-0.891765
H72	H	1.379518	-1.121339	-1.022746
H73	H	1.306437	-1.105813	-0.927602
H74	H	1.369690	-1.043700	-0.955207
H75	H	1.452020	-1.175482	-0.890915
H76	H	1.515294	-1.113375	-0.918533
C77	C	1.386216	-0.660525	-1.362636
C78	C	1.336018	-0.602114	-1.293524
H79	H	1.336961	-0.691058	-1.393482
H80	H	1.419440	-0.639917	-1.414899
H81	H	1.436281	-0.690220	-1.326391
H82	H	1.285958	-0.572414	-1.329771
H83	H	1.302777	-0.622722	-1.241253
C84	C	1.086264	-0.587710	-0.845013
C85	C	1.032845	-0.618091	-0.771104
H86	H	1.117144	-0.627180	-0.894157
H87	H	1.039376	-0.554273	-0.879160
H88	H	1.138514	-0.561085	-0.811843
H89	H	0.980590	-0.644712	-0.804273
H90	H	1.079737	-0.651541	-0.736954
C91	C	0.707314	-0.478699	-0.597477
C92	C	0.814677	-0.478224	-0.596898
H93	H	0.676447	-0.439242	-0.548308
H94	H	0.681013	-0.471553	-0.664385
H95	H	0.691672	-0.525622	-0.580113
H96	H	0.830320	-0.431302	-0.614270
H97	H	0.840987	-0.485364	-0.529976
C98	C	1.501454	-0.410019	-1.183382
C99	C	1.551663	-0.468429	-1.252487
H100	H	1.550703	-0.379481	-1.152533
H101	H	1.451390	-0.380333	-1.219624
H102	H	1.468230	-0.430631	-1.131110
H103	H	1.584880	-0.447816	-1.304763
H104	H	1.601745	-0.498119	-1.216243
C105	C	1.030513	-0.455843	-0.457305
C106	C	0.991719	-0.445313	-0.555936
H107	H	0.999653	-0.416372	-0.408153
H108	H	1.014843	-0.502751	-0.439935
H109	H	1.103352	-0.455536	-0.456936
H110	H	0.918880	-0.445626	-0.556307
H111	H	1.007381	-0.398393	-0.573310
