data_functionalizedCrystal
_audit_creation_method	'MofGen! by Chris Wilmer'
_symmetry_space_group_name_H-M	'P1'
_symmetry_Int_Tables_number	1
_symmetry_cell_setting	triclinic
loop_
_symmetry_equiv_pos_as_xyz
  x,y,z
_cell_length_a	16.959454
_cell_length_b	19.805407
_cell_length_c	19.805399
_cell_angle_alpha	89.979591
_cell_angle_beta	89.977613
_cell_angle_gamma	90.022016
loop_
_atom_site_label
_atom_site_type_symbol
_atom_site_fract_x
_atom_site_fract_y
_atom_site_fract_z
Zn1	Zn	-0.314659	1.034765	-0.382759
Zn2	Zn	-0.446841	1.034693	-0.269581
Zn3	Zn	-0.314685	0.921580	-0.269582
Zn4	Zn	-0.446804	0.921556	-0.382726
O5	O	-0.380747	0.978149	-0.326162
O6	O	-0.332198	1.129472	-0.367759
O7	O	-0.429337	1.019668	-0.174865
O8	O	-0.204071	0.936635	-0.284609
O9	O	-0.429312	1.129419	-0.284608
O10	O	-0.204052	1.019792	-0.367760
O11	O	-0.332243	0.936564	-0.174865
O12	O	-0.332206	0.826860	-0.284578
O13	O	-0.429248	0.936594	-0.477447
O14	O	-0.429273	0.826843	-0.367704
O15	O	-0.332162	1.019768	-0.477471
O16	O	-0.557447	1.019645	-0.284576
O17	O	-0.557420	0.936524	-0.367703
C18	C	-0.380739	0.802293	-0.326138
C19	C	-0.380755	0.727061	-0.326143
C20	C	-0.330275	0.265301	-0.369552
C21	C	-0.330276	0.335989	-0.369547
C22	C	-0.380759	0.371299	-0.326184
C23	C	-0.431250	0.335916	-0.282828
C24	C	-0.431252	0.265229	-0.282837
C25	C	-0.431244	0.620990	-0.282792
C26	C	-0.431236	0.691682	-0.282786
C27	C	-0.330268	0.691750	-0.369502
C28	C	-0.330270	0.621063	-0.369511
C29	C	-0.380763	0.585686	-0.326158
C30	C	-0.380762	0.509038	-0.326165
C31	C	-0.380757	0.447946	-0.326173
C32	C	-0.586114	0.978092	-0.326151
C33	C	-0.673970	0.978130	-0.326168
C34	C	-1.045461	0.934930	-0.369442
C35	C	-1.045430	1.021556	-0.282951
C36	C	-0.962884	1.021532	-0.282945
C37	C	-0.921623	0.978206	-0.326187
C38	C	-0.962908	0.934904	-0.369436
C39	C	-0.921593	1.064828	-0.239693
C40	C	-0.839042	1.064806	-0.239684
C41	C	-0.797780	1.021483	-0.282930
C42	C	-0.839070	0.978180	-0.326181
C43	C	-0.797808	0.934854	-0.369423
C44	C	-0.839097	0.891553	-0.412678
C45	C	-0.921645	0.891581	-0.412682
C46	C	-0.715231	1.021455	-0.282926
C47	C	-0.715255	0.934827	-0.369417
C48	C	-0.174579	0.978224	-0.326189
C49	C	-0.086722	0.978256	-0.326200
C50	C	-0.380698	0.978187	-0.502705
C51	C	-0.380676	0.978203	-0.577937
C52	C	-0.380756	1.154691	-0.326187
C53	C	-0.380760	1.229923	-0.326198
C54	C	-0.330121	1.021513	-0.613295
C55	C	-0.330098	1.021520	-0.683983
C56	C	-0.380635	0.978220	-0.719313
C57	C	-0.431193	0.934905	-0.683950
C58	C	-0.431211	0.934895	-0.613263
C59	C	-0.431119	0.934943	-0.969023
C60	C	-0.431098	0.934958	-1.039715
C61	C	-0.330006	1.021568	-1.039744
C62	C	-0.330024	1.021558	-0.969057
C63	C	-0.380579	0.978241	-0.933700
C64	C	-0.380602	0.978233	-0.857052
C65	C	-0.380616	0.978230	-0.795960
C66	C	-0.380740	0.978150	-0.150306
C67	C	-0.380538	0.978265	-0.075075
H68	H	-0.289159	0.592317	-0.404819
Br69	Br	-0.261394	1.080355	-1.087732
H70	H	-0.289156	0.720562	-0.404804
Br71	Br	-0.499752	0.739602	-0.223931
Br72	Br	-0.499747	0.572988	-0.223936
Br73	Br	-0.977683	0.832822	-0.471379
Br74	Br	-0.499770	0.383836	-0.223983
H75	H	-0.805492	0.856274	-0.447883
Br76	Br	-0.499820	0.876111	-0.565276
H77	H	-0.472364	0.236426	-0.247535
H78	H	-0.681618	1.056707	-0.247706
H79	H	-0.681665	0.899549	-0.404632
Br80	Br	-1.101491	0.876173	-0.428147
Br81	Br	-0.261521	1.080331	-0.731967
H82	H	-0.289160	0.236557	-0.404859
H83	H	-0.288970	1.056775	-0.584535
Br84	Br	-0.261440	1.080328	-0.921113
Br85	Br	-1.101427	1.080351	-0.224268
H86	H	-0.955194	1.100097	-0.204483
H87	H	-0.805431	1.100064	-0.204465
H88	H	-0.472253	0.899695	-1.068479
H89	H	-0.289169	0.364791	-0.404852
Br90	Br	-0.499727	0.876155	-0.921048
Br91	Br	-0.499775	0.876136	-0.731896
