data_functionalizedCrystal
_audit_creation_method	'MofGen! by Chris Wilmer'
_symmetry_space_group_name_H-M	'P1'
_symmetry_Int_Tables_number	1
_symmetry_cell_setting	triclinic
loop_
_symmetry_equiv_pos_as_xyz
  x,y,z
_cell_length_a	6.817900
_cell_length_b	11.102244
_cell_length_c	17.982856
_cell_angle_alpha	94.234900
_cell_angle_beta	102.449936
_cell_angle_gamma	108.604870
loop_
_atom_site_label
_atom_site_type_symbol
_atom_site_fract_x
_atom_site_fract_y
_atom_site_fract_z
V1	V	-4.041353	-0.177044	-0.237548
O2	O	-4.001727	0.007267	-0.233028
O3	O	-4.018604	-0.349856	-0.235921
O4	O	-3.987530	-0.174865	-0.341151
O5	O	-4.033017	-0.168935	-0.127069
V6	V	-4.522360	-0.154934	-0.224334
O7	O	-4.308131	-0.225544	-0.266533
O8	O	-4.705779	-0.106434	-0.195348
O9	O	-4.321902	0.017877	-0.225960
O10	O	-4.679382	-0.339245	-0.228854
O11	O	-4.648093	-0.163044	-0.334812
O12	O	-4.352976	-0.157113	-0.120730
C13	C	-3.870021	-0.391966	-0.232173
C14	C	-3.932672	-0.533245	-0.231534
C15	C	-3.922543	-0.581124	-0.161466
C16	C	-3.981422	-0.713874	-0.160874
C17	C	-4.060549	-0.750854	-0.300424
C18	C	-4.001685	-0.618108	-0.301015
C19	C	-3.876851	-0.559775	-0.080897
C20	C	-3.935731	-0.692524	-0.080305
C21	C	-3.830381	-0.168747	-0.366404
C22	C	-3.867828	-0.168109	-0.451100
C23	C	-3.942365	-0.284249	-0.501769
C24	C	-3.977558	-0.283648	-0.581351
C25	C	-3.938198	-0.166904	-0.610261
C26	C	-3.863660	-0.050755	-0.559585
C27	C	-3.828482	-0.051359	-0.480006
C28	C	-4.005527	-0.048319	-0.880519
C29	C	-4.040705	-0.047725	-0.960105
C30	C	-4.154603	-0.280609	-0.981865
C31	C	-4.119426	-0.281212	-0.902285
C32	C	-4.044902	-0.165064	-0.851617
C33	C	-4.006746	-0.165718	-0.765326
C34	C	-3.976338	-0.166249	-0.696550
C35	C	-4.133828	0.059981	-0.229706
C36	C	-4.050416	0.201259	-0.230350
C37	C	-4.173468	-0.163235	-0.095474
C38	C	-4.115259	-0.163867	-0.010776
H39	H	-4.084684	-0.732213	-0.058129
H40	H	-3.793756	-0.715370	-0.046298
Cl41	Cl	-3.911671	0.097701	-0.816829
H42	H	-4.215296	-0.375182	-1.023129
Cl43	Cl	-3.991221	0.099050	-0.996447
Cl44	Cl	-4.041874	-0.499187	-0.037889
H45	H	-3.831627	0.044299	-0.583130
Cl46	Cl	-4.071269	-0.429660	-0.645047
Cl47	Cl	-3.603116	-0.478025	-0.037939
H48	H	-3.767790	0.043215	-0.438750
Cl49	Cl	-4.168910	-0.427981	-0.865946
H50	H	-4.116745	-0.819965	-0.356993
H51	H	-3.974406	-0.379315	-0.478238
Cl52	Cl	-4.014456	-0.557923	-0.389105
