data_functionalizedCrystal
_audit_creation_method	'MofGen! by Chris Wilmer'
_symmetry_space_group_name_H-M	'P1'
_symmetry_Int_Tables_number	1
_symmetry_cell_setting	triclinic
loop_
_symmetry_equiv_pos_as_xyz
  x,y,z
_cell_length_a	18.215407
_cell_length_b	18.050589
_cell_length_c	18.215399
_cell_angle_alpha	89.976397
_cell_angle_beta	89.980167
_cell_angle_gamma	90.028669
loop_
_atom_site_label
_atom_site_type_symbol
_atom_site_fract_x
_atom_site_fract_y
_atom_site_fract_z
Zn1	Zn	1.125055	-0.295658	-0.416138
Zn2	Zn	1.124956	-0.419853	-0.293081
Zn3	Zn	1.001987	-0.295682	-0.293085
Zn4	Zn	1.001946	-0.419812	-0.416106
O5	O	1.063486	-0.357751	-0.354603
O6	O	1.228026	-0.312140	-0.399826
O7	O	1.108620	-0.403409	-0.190097
O8	O	1.018371	-0.191755	-0.309424
O9	O	1.227953	-0.403386	-0.309417
O10	O	1.108788	-0.191737	-0.399830
O11	O	1.018275	-0.312181	-0.190101
O12	O	0.898998	-0.312141	-0.309393
O13	O	1.018301	-0.403315	-0.519095
O14	O	0.898967	-0.403339	-0.399775
O15	O	1.108748	-0.312100	-0.519118
O16	O	1.108580	-0.523772	-0.309385
O17	O	1.018205	-0.523742	-0.399771
C18	C	0.872280	-0.357739	-0.354582
C19	C	0.790481	-0.357751	-0.354590
C20	C	0.602291	-0.405312	-0.401593
C21	C	0.525432	-0.405315	-0.401602
C22	C	0.525434	-0.310204	-0.307628
C23	C	0.602291	-0.310199	-0.307623
C24	C	0.640718	-0.357757	-0.354605
C25	C	0.487001	-0.357765	-0.354619
C26	C	0.403668	-0.357767	-0.354628
C27	C	0.724056	-0.357754	-0.354596
C28	C	1.063397	-0.550704	-0.354590
C29	C	1.063427	-0.633249	-0.354610
C30	C	1.014329	-0.832710	-0.403744
C31	C	0.996389	-0.882151	-0.336590
C32	C	1.063499	-0.784380	-0.354619
C33	C	1.081475	-0.882021	-0.421781
C34	C	1.063567	-0.930365	-0.354635
C35	C	1.045524	-0.832733	-0.287430
C36	C	1.130641	-0.832599	-0.372666
C37	C	1.112726	-0.882017	-0.305466
C38	C	1.063458	-0.700281	-0.354612
C39	C	1.063609	-1.014461	-0.354635
C40	C	1.255439	-0.357765	-0.354624
C41	C	1.337238	-0.357770	-0.354634
C42	C	1.063531	-0.357700	-0.546556
C43	C	1.063550	-0.357678	-0.628355
C44	C	1.063595	-0.164046	-0.354631
C45	C	1.063642	-0.081500	-0.354643
C46	C	1.110663	-0.310138	-0.816562
C47	C	1.110672	-0.310117	-0.893421
C48	C	1.016489	-0.405104	-0.893385
C49	C	1.016477	-0.405121	-0.816528
C50	C	1.063568	-0.357639	-0.778118
C51	C	1.063589	-0.357600	-0.931834
C52	C	1.063598	-0.357577	-1.015168
C53	C	1.063558	-0.357661	-0.694779
C54	C	1.063484	-0.357749	-0.163396
C55	C	1.063607	-0.357561	-0.081598
H56	H	0.972687	-0.811060	-0.445229
O57	O	0.639651	-0.451582	-0.447129
C58	C	0.684085	-0.499483	-0.405154
H59	H	0.660900	-0.504003	-0.347185
H60	H	0.742343	-0.476515	-0.402653
C61	C	0.713723	-0.571178	-0.512183
C62	C	0.685242	-0.576734	-0.440987
H63	H	0.714440	-0.618830	-0.534288
H64	H	0.683789	-0.538905	-0.540464
H65	H	0.762269	-0.552035	-0.510090
H66	H	0.636695	-0.595868	-0.443083
H67	H	0.715168	-0.609013	-0.412708
O68	O	1.027356	-0.807143	-0.219606
C69	C	1.014672	-0.867559	-0.172177
H70	H	1.044483	-0.918538	-0.193948
H71	H	0.953250	-0.879353	-0.169229
C72	C	1.006906	-0.786146	-0.068199
C73	C	1.043525	-0.848758	-0.094936
H74	H	1.024701	-0.774548	-0.020552
H75	H	1.015449	-0.745441	-0.100153
H76	H	0.955723	-0.795982	-0.065749
H77	H	1.094706	-0.838918	-0.097394
H78	H	1.034992	-0.889460	-0.062980
O79	O	0.970705	-0.451338	-0.779292
C80	C	0.929135	-0.493235	-0.829672
H81	H	0.959284	-0.495798	-0.884465
H82	H	0.873258	-0.466036	-0.837840
C83	C	0.881454	-0.569132	-0.732358
C84	C	0.918486	-0.572285	-0.799654
H85	H	0.874882	-0.617893	-0.713840
H86	H	0.909458	-0.540904	-0.698415
H87	H	0.834894	-0.546463	-0.739173
H88	H	0.965049	-0.594945	-0.792836
H89	H	0.890490	-0.600519	-0.833595
H90	H	1.187375	-0.810819	-0.387948
H91	H	0.939642	-0.903933	-0.321340
O92	O	1.162285	-0.907655	-0.255759
C93	C	1.143106	-0.882390	-0.185079
H94	H	1.082043	-0.868662	-0.183622
H95	H	1.176263	-0.830615	-0.171436
C96	C	1.234852	-0.960138	-0.130059
C97	C	1.159852	-0.943283	-0.128268
H98	H	1.245184	-0.997698	-0.095014
H99	H	1.247775	-0.977158	-0.177678
H100	H	1.262474	-0.916987	-0.118692
H101	H	1.132231	-0.986431	-0.139643
H102	H	1.146924	-0.926272	-0.080649
O103	O	0.488218	-0.451582	-0.447269
C104	C	0.538618	-0.493539	-0.488746
H105	H	0.593390	-0.496068	-0.458592
H106	H	0.546830	-0.466415	-0.544683
C107	C	0.441321	-0.569488	-0.536260
C108	C	0.508591	-0.572600	-0.499221
H109	H	0.422798	-0.618255	-0.542725
H110	H	0.407365	-0.541219	-0.508319
H111	H	0.448174	-0.546881	-0.582870
H112	H	0.501736	-0.595198	-0.452608
H113	H	0.542546	-0.600874	-0.527155
O114	O	0.639738	-0.264026	-0.262043
C115	C	0.715813	-0.274232	-0.272104
H116	H	0.726320	-0.298625	-0.328858
H117	H	0.737590	-0.313724	-0.228387
C118	C	0.742401	-0.169120	-0.195777
C119	C	0.755306	-0.199075	-0.265486
H120	H	0.766763	-0.122761	-0.191691
H121	H	0.691148	-0.162245	-0.188996
H122	H	0.760549	-0.202037	-0.159353
H123	H	0.737150	-0.166162	-0.301907
H124	H	0.806557	-0.205942	-0.272272
O125	O	1.099499	-0.907763	-0.489587
C126	C	1.047466	-0.882655	-0.541189
H127	H	1.019421	-0.830694	-0.519352
H128	H	1.004622	-0.927681	-0.550779
C129	C	1.120833	-0.928420	-0.640919
C130	C	1.086392	-0.864596	-0.614101
H131	H	1.144843	-0.917282	-0.685896
H132	H	1.155888	-0.945337	-0.606154
H133	H	1.085123	-0.965935	-0.648905
H134	H	1.122103	-0.827086	-0.606106
H135	H	1.051344	-0.847671	-0.648866
H136	H	0.494138	-0.271485	-0.269377
O137	O	1.156424	-0.263942	-0.779364
C138	C	1.198004	-0.222024	-0.829781
H139	H	1.167869	-0.219442	-0.884562
H140	H	1.253885	-0.249218	-0.837961
C141	C	1.245657	-0.146162	-0.732521
C142	C	1.208642	-0.142985	-0.799802
H143	H	1.252223	-0.097408	-0.714028
H144	H	1.217647	-0.174404	-0.698553
H145	H	1.292221	-0.168826	-0.739347
H146	H	1.162077	-0.120329	-0.792974
H147	H	1.236646	-0.114737	-0.833768
O148	O	1.156315	-0.263893	-0.930796
C149	C	1.114447	-0.215924	-0.975262
H150	H	1.056484	-0.211344	-0.952090
H151	H	1.111910	-0.238866	-1.033509
C152	C	1.221631	-0.144345	-1.004917
C153	C	1.150442	-0.138715	-0.976452
H154	H	1.243835	-0.096720	-1.005654
H155	H	1.249839	-0.176665	-0.974961
H156	H	1.219507	-0.163467	-1.053453
H157	H	1.152568	-0.119603	-0.927914
H158	H	1.122235	-0.106391	-1.006400
H159	H	0.978151	-0.443763	-0.924667
