data_functionalizedCrystal
_audit_creation_method	'MofGen! by Chris Wilmer'
_symmetry_space_group_name_H-M	'P1'
_symmetry_Int_Tables_number	1
_symmetry_cell_setting	triclinic
loop_
_symmetry_equiv_pos_as_xyz
  x,y,z
_cell_length_a	14.044220
_cell_length_b	13.101039
_cell_length_c	16.109304
_cell_angle_alpha	86.635836
_cell_angle_beta	88.325758
_cell_angle_gamma	93.659868
loop_
_atom_site_label
_atom_site_type_symbol
_atom_site_fract_x
_atom_site_fract_y
_atom_site_fract_z
O1	O	1.262855	0.085094	0.196241
O2	O	1.512855	0.335094	0.446241
O3	O	1.762855	0.585094	0.696241
O4	O	2.012855	0.835094	0.946241
O5	O	0.986890	0.085120	0.189007
O6	O	1.236890	0.335120	0.439007
O7	O	1.486890	0.585120	0.689007
O8	O	1.736890	0.835120	0.939007
O9	O	1.132452	0.085107	0.072157
O10	O	1.382452	0.335107	0.322157
O11	O	1.632452	0.585107	0.572157
O12	O	1.882452	0.835107	0.822157
O13	O	1.117293	0.085107	0.313091
O14	O	1.367293	0.335107	0.563091
O15	O	1.617293	0.585107	0.813091
O16	O	1.867293	0.835107	1.063091
O17	O	1.122008	-0.085322	0.080556
O18	O	1.372008	0.164678	0.330556
O19	O	1.622008	0.414678	0.580556
O20	O	1.872008	0.664678	0.830556
O21	O	0.976446	-0.085309	0.197406
O22	O	1.226446	0.164691	0.447406
O23	O	1.476446	0.414691	0.697406
O24	O	1.726446	0.664691	0.947406
O25	O	1.252411	-0.085335	0.204640
O26	O	1.502411	0.164665	0.454640
O27	O	1.752411	0.414665	0.704640
O28	O	2.002411	0.664665	0.954640
Zn29	Zn	1.112770	-0.112381	0.202356
Zn30	Zn	1.362770	0.137619	0.452356
Zn31	Zn	1.612770	0.387619	0.702356
Zn32	Zn	1.862770	0.637619	0.952356
Zn33	Zn	1.126531	0.112166	0.191290
Zn34	Zn	1.376531	0.362166	0.441290
Zn35	Zn	1.626531	0.612166	0.691290
Zn36	Zn	1.876531	0.862166	0.941290
O37	O	1.106849	-0.085322	0.321490
O38	O	1.356849	0.164678	0.571490
O39	O	1.606849	0.414678	0.821490
O40	O	1.856849	0.664678	1.071490
C41	C	0.946355	-0.000091	0.190040
C42	C	1.196355	0.249909	0.440040
C43	C	1.446355	0.499909	0.690040
C44	C	1.696355	0.749909	0.940040
C45	C	0.841132	-0.000081	0.180596
C46	C	1.091132	0.249919	0.430596
C47	C	1.341132	0.499919	0.680596
C48	C	1.591132	0.749919	0.930596
N49	N	1.103386	-0.265629	0.209908
N50	N	1.353386	-0.015629	0.459908
N51	N	1.603386	0.234371	0.709908
N52	N	1.853386	0.484371	0.959908
C53	C	0.648475	-0.000101	0.163331
C54	C	0.898475	0.249899	0.413331
C55	C	1.148475	0.499899	0.663331
C56	C	1.398475	0.749899	0.913331
C57	C	0.590821	-0.000105	0.230311
C58	C	0.840821	0.249895	0.480311
C59	C	1.090821	0.499895	0.730311
C60	C	1.340821	0.749895	0.980311
C61	C	0.483620	-0.000117	0.220705
C62	C	0.733620	0.249883	0.470705
C63	C	0.983620	0.499883	0.720705
C64	C	1.233620	0.749883	0.970705
C65	C	0.755686	-0.000090	0.172936
C66	C	1.005686	0.249910	0.422936
C67	C	1.255686	0.499910	0.672936
C68	C	1.505686	0.749910	0.922936
C69	C	1.090619	-0.474671	0.220191
C70	C	1.340619	-0.224671	0.470191
C71	C	1.590619	0.025329	0.720191
C72	C	1.840619	0.275329	0.970191
C73	C	1.148687	-0.525552	0.173452
C74	C	1.398687	-0.275552	0.423452
C75	C	1.648687	-0.025552	0.673452
C76	C	1.898687	0.224448	0.923452
C77	C	1.141583	-0.641869	0.179173
C78	C	1.391583	-0.391869	0.429173
C79	C	1.641583	-0.141869	0.679173
C80	C	1.891583	0.108131	0.929173
C81	C	1.097722	-0.358342	0.214471
C82	C	1.347722	-0.108342	0.464471
C83	C	1.597722	0.141658	0.714471
C84	C	1.847722	0.391658	0.964471
C85	C	1.292947	-0.000122	0.203606
C86	C	1.542947	0.249878	0.453606
C87	C	1.792947	0.499878	0.703606
C88	C	2.042947	0.749878	0.953606
C89	C	1.398170	-0.000126	0.213050
C90	C	1.648170	0.249874	0.463050
C91	C	1.898170	0.499874	0.713050
C92	C	2.148170	0.749874	0.963050
C93	C	1.126616	-0.000106	0.045336
C94	C	1.376616	0.249894	0.295336
C95	C	1.626616	0.499894	0.545336
C96	C	1.876616	0.749894	0.795336
C97	C	1.124774	-0.000098	-0.047097
C98	C	1.374774	0.249902	0.202903
C99	C	1.624774	0.499902	0.452903
C100	C	1.874774	0.749902	0.702903
N101	N	1.135922	0.265414	0.183732
N102	N	1.385922	0.515414	0.433732
N103	N	1.635922	0.765414	0.683732
N104	N	1.885922	1.015414	0.933732
C105	C	1.126210	0.092799	-0.264329
C106	C	1.376210	0.342799	-0.014329
C107	C	1.626210	0.592799	0.235671
C108	C	1.876210	0.842799	0.485671
C109	C	1.124470	0.092798	-0.351179
C110	C	1.374470	0.342798	-0.101179
C111	C	1.624470	0.592798	0.148821
C112	C	1.874470	0.842798	0.398821
C113	C	1.113088	-0.093013	-0.342018
C114	C	1.363088	0.156987	-0.092018
C115	C	1.613088	0.406987	0.157982
C116	C	1.863088	0.656987	0.407982
C117	C	1.114822	-0.093011	-0.255170
C118	C	1.364822	0.156989	-0.005170
C119	C	1.614822	0.406989	0.244830
C120	C	1.864822	0.656989	0.494830
C121	C	1.121387	-0.000102	-0.216328
C122	C	1.371387	0.249898	0.033672
C123	C	1.621387	0.499898	0.283672
C124	C	1.871387	0.749898	0.533672
C125	C	1.117914	-0.000105	-0.390026
C126	C	1.367914	0.249895	-0.140026
C127	C	1.617914	0.499895	0.109974
C128	C	1.867914	0.749895	0.359974
C129	C	1.116028	-0.000106	-0.484192
C130	C	1.366028	0.249894	-0.234192
C131	C	1.616028	0.499894	0.015808
C132	C	1.866028	0.749894	0.265808
C133	C	1.123272	-0.000100	-0.122156
C134	C	1.373272	0.249900	0.127844
C135	C	1.623272	0.499900	0.377844
C136	C	1.873272	0.749900	0.627844
C137	C	1.112685	-0.000108	0.348311
C138	C	1.362685	0.249892	0.598311
C139	C	1.612685	0.499892	0.848311
C140	C	1.862685	0.749892	1.098311
C141	C	1.114528	-0.000108	0.440743
C142	C	1.364528	0.249892	0.690743
C143	C	1.614528	0.499892	0.940743
C144	C	1.864528	0.749892	1.190743
H145	H	0.621974	-0.000100	0.294868
H146	H	0.871974	0.249900	0.544868
H147	H	1.121974	0.499900	0.794868
H148	H	1.371974	0.749900	1.044868
H149	H	1.128395	0.168448	-0.390258
H150	H	1.378395	0.418448	-0.140258
H151	H	1.628395	0.668448	0.109742
H152	H	1.878395	0.918448	0.359742
H153	H	0.617324	-0.000107	0.098779
H154	H	0.867324	0.249893	0.348779
H155	H	1.117324	0.499893	0.598779
H156	H	1.367324	0.749893	0.848779
H157	H	1.035574	-0.518463	0.264501
H158	H	1.285574	-0.268463	0.514501
H159	H	1.535574	-0.018463	0.764501
H160	H	1.785574	0.231537	1.014501
F161	F	1.133194	0.191681	-0.222993
F162	F	1.383194	0.441681	0.027007
F163	F	1.633194	0.691681	0.277007
F164	F	1.883194	0.941681	0.527007
F165	F	1.106101	-0.191887	-0.383364
F166	F	1.356101	0.058113	-0.133364
F167	F	1.606101	0.308113	0.116636
F168	F	1.856101	0.558113	0.366636
H169	H	1.110889	-0.168667	-0.216086
H170	H	1.360889	0.081333	0.033914
H171	H	1.610889	0.331333	0.283914
H172	H	1.860889	0.581333	0.533914
H173	H	1.203736	-0.481754	0.129140
H174	H	1.453736	-0.231754	0.379140
H175	H	1.703736	0.018246	0.629140
H176	H	1.953736	0.268246	0.879140
