data_functionalizedCrystal
_audit_creation_method	'MofGen! by Chris Wilmer'
_symmetry_space_group_name_H-M	'P1'
_symmetry_Int_Tables_number	1
_symmetry_cell_setting	triclinic
loop_
_symmetry_equiv_pos_as_xyz
  x,y,z
_cell_length_a	19.805407
_cell_length_b	18.050590
_cell_length_c	19.805399
_cell_angle_alpha	89.972574
_cell_angle_beta	89.980427
_cell_angle_gamma	90.018553
loop_
_atom_site_label
_atom_site_type_symbol
_atom_site_fract_x
_atom_site_fract_y
_atom_site_fract_z
Zn1	Zn	1.034773	-0.295677	-0.382720
Zn2	Zn	1.534773	0.204323	0.117280
Zn3	Zn	1.034703	-0.419869	-0.269532
Zn4	Zn	1.534703	0.080131	0.230468
Zn5	Zn	0.921587	-0.295697	-0.269545
Zn6	Zn	1.421587	0.204303	0.230455
Zn7	Zn	0.921566	-0.419829	-0.382679
Zn8	Zn	1.421566	0.080171	0.117321
O9	O	0.978157	-0.357768	-0.326119
O10	O	1.478157	0.142232	0.173881
O11	O	1.129480	-0.312159	-0.367718
O12	O	1.629480	0.187841	0.132282
O13	O	1.019678	-0.403422	-0.174817
O14	O	1.519678	0.096578	0.325183
O15	O	0.936639	-0.191770	-0.284580
O16	O	1.436639	0.308230	0.215420
O17	O	1.129429	-0.403402	-0.284559
O18	O	1.629429	0.096598	0.215441
O19	O	1.019796	-0.191755	-0.367730
O20	O	1.519796	0.308245	0.132270
O21	O	0.936572	-0.312194	-0.174827
O22	O	1.436572	0.187806	0.325173
O23	O	0.826868	-0.312156	-0.284540
O24	O	1.326868	0.187844	0.215460
O25	O	0.936604	-0.403335	-0.477401
O26	O	1.436604	0.096665	0.022599
O27	O	0.826853	-0.403355	-0.367660
O28	O	1.326853	0.096645	0.132340
O29	O	1.019776	-0.312121	-0.477432
O30	O	1.519776	0.187879	0.022568
O31	O	1.019657	-0.523788	-0.284519
O32	O	1.519657	-0.023788	0.215481
O33	O	0.936536	-0.523759	-0.367648
O34	O	1.436536	-0.023759	0.132352
C35	C	0.802301	-0.357754	-0.326097
C36	C	1.302301	0.142246	0.173903
C37	C	0.727069	-0.357766	-0.326104
C38	C	1.227069	0.142234	0.173896
C39	C	0.978105	-0.550720	-0.326092
C40	C	1.478105	-0.050720	0.173908
C41	C	0.978145	-0.633266	-0.326103
C42	C	1.478145	-0.133266	0.173897
C43	C	0.691735	-0.405325	-0.369314
C44	C	1.191735	0.094675	0.130686
C45	C	0.621046	-0.405326	-0.369324
C46	C	1.121046	0.094674	0.130676
C47	C	0.585694	-0.357771	-0.326119
C48	C	1.085694	0.142229	0.173881
C49	C	0.621033	-0.310207	-0.282907
C50	C	1.121033	0.189793	0.217093
C51	C	0.691720	-0.310203	-0.282902
C52	C	1.191720	0.189797	0.217098
C53	C	0.335960	-0.310224	-0.282930
C54	C	0.835960	0.189776	0.217070
C55	C	0.265268	-0.310233	-0.282937
C56	C	0.765268	0.189767	0.217063
C57	C	0.265286	-0.405347	-0.369352
C58	C	0.765286	0.094653	0.130648
C59	C	0.335973	-0.405342	-0.369346
C60	C	0.835973	0.094658	0.130654
C61	C	0.371306	-0.357776	-0.326137
C62	C	0.871306	0.142224	0.173863
C63	C	0.447955	-0.357774	-0.326128
C64	C	0.947955	0.142226	0.173872
C65	C	0.509047	-0.357776	-0.326124
C66	C	1.009047	0.142224	0.173876
C67	C	1.023440	-0.832705	-0.280961
C68	C	1.523440	-0.332705	0.219039
C69	C	1.039973	-0.882039	-0.342736
C70	C	1.539973	-0.382039	0.157264
C71	C	0.978183	-0.784396	-0.326130
C72	C	1.478183	-0.284396	0.173870
C73	C	0.961720	-0.882144	-0.264383
C74	C	1.461720	-0.382144	0.235617
C75	C	0.978222	-0.930381	-0.326151
C76	C	1.478222	-0.430381	0.173849
C77	C	0.994748	-0.832643	-0.387938
C78	C	1.494748	-0.332643	0.112062
C79	C	0.916466	-0.832743	-0.309543
C80	C	1.416466	-0.332743	0.190457
C81	C	0.932975	-0.882055	-0.371361
C82	C	1.432975	-0.382055	0.128639
C83	C	0.978163	-0.700298	-0.326118
C84	C	1.478163	-0.200298	0.173882
C85	C	0.978242	-1.014478	-0.326171
C86	C	1.478242	-0.514478	0.173829
C87	C	1.154700	-0.357783	-0.326142
C88	C	1.654700	0.142217	0.173858
C89	C	1.229932	-0.357789	-0.326151
C90	C	1.729932	0.142211	0.173849
C91	C	0.978195	-0.357721	-0.502662
C92	C	1.478195	0.142279	-0.002662
C93	C	0.978211	-0.357701	-0.577894
C94	C	1.478211	0.142299	-0.077894
C95	C	0.978228	-0.164062	-0.326161
C96	C	1.478228	0.335938	0.173839
C97	C	0.978258	-0.081517	-0.326179
C98	C	1.478258	0.418483	0.173821
C99	C	1.021520	-0.310204	-0.613255
C100	C	1.521520	0.189796	-0.113255
C101	C	1.021527	-0.310182	-0.683944
C102	C	1.521527	0.189818	-0.183944
C103	C	0.978228	-0.357662	-0.719270
C104	C	1.478228	0.142338	-0.219270
C105	C	0.934915	-0.405162	-0.683904
C106	C	1.434915	0.094838	-0.183904
C107	C	0.934905	-0.405180	-0.613217
C108	C	1.434905	0.094820	-0.113217
C109	C	0.934953	-0.405093	-0.968977
C110	C	1.434953	0.094907	-0.468977
C111	C	0.934968	-0.405074	-1.039669
C112	C	1.434968	0.094926	-0.539669
C113	C	1.021575	-0.310096	-1.039704
C114	C	1.521575	0.189904	-0.539704
C115	C	1.021565	-0.310113	-0.969017
C116	C	1.521565	0.189887	-0.469017
C117	C	0.978250	-0.357609	-0.933657
C118	C	1.478250	0.142391	-0.433657
C119	C	0.978242	-0.357631	-0.857009
C120	C	1.478242	0.142369	-0.357009
C121	C	0.978239	-0.357645	-0.795917
C122	C	1.478239	0.142355	-0.295917
C123	C	0.978158	-0.357761	-0.150263
C124	C	1.478158	0.142239	0.349737
C125	C	0.978273	-0.357572	-0.075032
C126	C	1.478273	0.142428	0.424968
H127	H	0.592280	-0.444054	-0.404509
H128	H	1.092280	0.055946	0.095491
C129	C	0.328889	-0.499356	-0.454773
C130	C	0.828889	0.000644	0.045227
C131	C	0.374832	-0.457613	-0.416840
C132	C	0.874832	0.042387	0.083160
H133	H	0.352880	-0.531620	-0.484098
H134	H	0.852880	-0.031620	0.015902
H135	H	0.301302	-0.527724	-0.425241
H136	H	0.801302	-0.027724	0.074759
H137	H	0.301335	-0.467029	-0.480715
H138	H	0.801335	0.032971	0.019285
H139	H	0.402383	-0.489939	-0.390894
H140	H	0.902383	0.010061	0.109106
H141	H	0.402430	-0.429242	-0.446376
H142	H	0.902430	0.070758	0.053624
H143	H	0.899693	-0.443779	-0.940196
H144	H	1.399693	0.056221	-0.440196
H145	H	1.056795	-0.271506	-0.712731
H146	H	1.556795	0.228494	-0.212731
C147	C	0.272346	-0.216195	-0.197524
C148	C	0.772346	0.283805	0.302476
C149	C	0.226406	-0.257951	-0.235448
C150	C	0.726406	0.242049	0.264552
H151	H	0.248353	-0.183919	-0.168212
H152	H	0.748353	0.316081	0.331788
H153	H	0.299897	-0.248507	-0.171575
H154	H	0.799897	0.251493	0.328425
H155	H	0.299937	-0.187832	-0.227068
H156	H	0.799937	0.312168	0.272932
H157	H	0.198819	-0.286319	-0.205905
H158	H	0.698819	0.213681	0.294095
H159	H	0.198844	-0.225636	-0.261400
H160	H	0.698844	0.274364	0.238600
C161	C	1.105897	-0.953886	-0.420583
C162	C	1.605897	-0.453886	0.079417
C163	C	1.110454	-0.911260	-0.361708
C164	C	1.610454	-0.411260	0.138292
H165	H	1.149412	-0.971913	-0.432296
H166	H	1.649412	-0.471913	0.067704
H167	H	1.076308	-0.994480	-0.413053
H168	H	1.576308	-0.494480	0.086947
H169	H	1.088891	-0.924166	-0.456330
H170	H	1.588891	-0.424166	0.043670
H171	H	1.127456	-0.940981	-0.325960
H172	H	1.627456	-0.440981	0.174040
H173	H	1.140054	-0.870660	-0.369235
H174	H	1.640054	-0.370660	0.130765
H175	H	1.056843	-0.271419	-1.068503
H176	H	1.556843	0.228581	-0.568503
C177	C	1.013495	-0.725852	-0.457804
C178	C	1.513495	-0.225852	0.042196
C179	C	1.013657	-0.803421	-0.458463
C180	C	1.513657	-0.303421	0.041537
H181	H	1.025175	-0.707813	-0.501341
H182	H	1.525175	-0.207813	-0.001341
H183	H	0.969780	-0.708569	-0.445947
H184	H	1.469780	-0.208569	0.054053
H185	H	1.045429	-0.708569	-0.425683
H186	H	1.545429	-0.208569	0.074317
H187	H	0.981719	-0.820705	-0.490580
H188	H	1.481719	-0.320705	0.009420
H189	H	1.057378	-0.820712	-0.470328
H190	H	1.557378	-0.320712	0.029672
H191	H	0.947779	-0.903887	-0.212156
H192	H	1.447779	-0.403887	0.287844
C193	C	1.107172	-0.216219	-0.976153
C194	C	1.607172	0.283781	-0.476153
C195	C	1.069158	-0.257918	-0.930187
C196	C	1.569158	0.242082	-0.430187
H197	H	1.136549	-0.183991	-0.952181
H198	H	1.636549	0.316009	-0.452181
H199	H	1.133056	-0.248569	-1.003719
H200	H	1.633056	0.251431	-0.503719
H201	H	1.077688	-0.187806	-1.003727
H202	H	1.577688	0.312194	-0.503727
H203	H	1.098642	-0.286336	-0.902616
H204	H	1.598642	0.213664	-0.402616
H205	H	1.043272	-0.225564	-0.902610
H206	H	1.543272	0.274436	-0.402610
H207	H	0.894719	-0.903587	-0.409612
H208	H	1.394719	-0.403587	0.090388
C209	C	0.628121	-0.216184	-0.197490
C210	C	1.128121	0.283816	0.302510
C211	C	0.582176	-0.257932	-0.235416
C212	C	1.082176	0.242068	0.264584
H213	H	0.604131	-0.183909	-0.168173
H214	H	1.104131	0.316091	0.331827
H215	H	0.655672	-0.248501	-0.171546
H216	H	1.155672	0.251499	0.328454
H217	H	0.655711	-0.187819	-0.227032
H218	H	1.155711	0.312181	0.272968
H219	H	0.554589	-0.286301	-0.205874
H220	H	1.054589	0.213699	0.294126
H221	H	0.554613	-0.225611	-0.261362
H222	H	1.054613	0.274389	0.238638
H223	H	0.364720	-0.271497	-0.247741
H224	H	0.864720	0.228503	0.252259
C225	C	0.849339	-0.498953	-1.032539
C226	C	1.349339	0.001047	-0.532539
C227	C	0.887364	-0.457262	-1.078502
C228	C	1.387364	0.042738	-0.578502
H229	H	0.819951	-0.531166	-1.056514
H230	H	1.319951	-0.031166	-0.556514
H231	H	0.878809	-0.527373	-1.004968
H232	H	1.378809	-0.027373	-0.504968
H233	H	0.823460	-0.466590	-1.004970
H234	H	1.323460	0.033410	-0.504970
H235	H	0.913248	-0.489625	-1.106067
H236	H	1.413248	0.010375	-0.606067
H237	H	0.857891	-0.428840	-1.106084
H238	H	1.357891	0.071160	-0.606084
C239	C	0.771185	-0.299752	-0.191871
C240	C	1.271185	0.200248	0.308129
C241	C	0.730567	-0.257928	-0.235403
C242	C	1.230567	0.242072	0.264597
H243	H	0.795169	-0.267476	-0.162552
H244	H	1.295169	0.232524	0.337448
H245	H	0.743590	-0.332064	-0.165930
H246	H	1.243590	0.167936	0.334070
H247	H	0.802350	-0.328070	-0.217611
H248	H	1.302350	0.171930	0.282389
H249	H	0.699398	-0.229613	-0.209663
H250	H	1.199398	0.270387	0.290337
H251	H	0.758163	-0.225603	-0.261347
H252	H	1.258163	0.274397	0.238653
C253	C	0.896475	-0.447313	-0.792245
C254	C	1.396475	0.052687	-0.292245
C255	C	0.887319	-0.457354	-0.722733
C256	C	1.387319	0.042646	-0.222733
H257	H	0.867094	-0.479540	-0.816214
H258	H	1.367094	0.020460	-0.316214
H259	H	0.886589	-0.397418	-0.803837
H260	H	1.386589	0.102582	-0.303837
H261	H	0.941952	-0.458186	-0.803828
H262	H	1.441952	0.041814	-0.303828
H263	H	0.841843	-0.446477	-0.711149
H264	H	1.341843	0.053523	-0.211149
H265	H	0.897201	-0.507262	-0.711137
H266	H	1.397201	-0.007262	-0.211137
H267	H	0.864271	-0.811072	-0.295482
H268	H	1.364271	-0.311072	0.204518
C269	C	1.107126	-0.216311	-0.620397
C270	C	1.607126	0.283689	-0.120397
C271	C	1.069115	-0.258009	-0.574428
C272	C	1.569115	0.241991	-0.074428
H273	H	1.136506	-0.184084	-0.596427
H274	H	1.636506	0.315916	-0.096427
H275	H	1.133009	-0.248663	-0.647963
H276	H	1.633009	0.251337	-0.147963
H277	H	1.077642	-0.187899	-0.647970
H278	H	1.577642	0.312101	-0.147970
H279	H	1.098600	-0.286426	-0.546858
H280	H	1.598600	0.213574	-0.046858
H281	H	1.043231	-0.225653	-0.546850
H282	H	1.543231	0.274347	-0.046850
C283	C	0.849313	-0.499083	-0.620278
C284	C	1.349313	0.000917	-0.120278
C285	C	0.887310	-0.457403	-0.574345
C286	C	1.387310	0.042597	-0.074345
H287	H	0.819934	-0.531328	-0.596279
H288	H	1.319934	-0.031328	-0.096279
H289	H	0.823432	-0.466721	-0.647845
H290	H	1.323432	0.033279	-0.147845
H291	H	0.878807	-0.527476	-0.647853
H292	H	1.378807	-0.027476	-0.147853
H293	H	0.857816	-0.429006	-0.546773
H294	H	1.357816	0.070994	-0.046773
H295	H	0.913194	-0.489770	-0.546766
H296	H	1.413194	0.010230	-0.046766
C297	C	1.139738	-0.828328	-0.246998
C298	C	1.639738	-0.328328	0.253002
C299	C	1.075119	-0.803444	-0.229449
C300	C	1.575119	-0.303444	0.270551
H301	H	1.171642	-0.810258	-0.215201
H302	H	1.671642	-0.310258	0.284799
H303	H	1.140389	-0.880943	-0.246934
H304	H	1.640389	-0.380943	0.253066
H305	H	1.151010	-0.810648	-0.290759
H306	H	1.651010	-0.310648	0.209241
H307	H	1.063845	-0.821128	-0.185691
H308	H	1.563845	-0.321128	0.314309
H309	H	1.074467	-0.750818	-0.229506
H310	H	1.574467	-0.250818	0.270494
H311	H	0.720514	-0.444052	-0.404494
H312	H	1.220514	0.055948	0.095506
H313	H	0.236509	-0.444075	-0.404537
H314	H	0.736509	0.055925	0.095463
