data_functionalizedCrystal
_audit_creation_method	'MofGen! by Chris Wilmer'
_symmetry_space_group_name_H-M	'P1'
_symmetry_Int_Tables_number	1
_symmetry_cell_setting	triclinic
loop_
_symmetry_equiv_pos_as_xyz
  x,y,z
_cell_length_a	19.121102
_cell_length_b	19.120904
_cell_length_c	13.897447
_cell_angle_alpha	92.415897
_cell_angle_beta	87.573956
_cell_angle_gamma	90.088173
loop_
_atom_site_label
_atom_site_type_symbol
_atom_site_fract_x
_atom_site_fract_y
_atom_site_fract_z
Zn1	Zn	1.054878	-0.442077	-0.471841
Zn2	Zn	1.554878	0.057923	0.028159
Zn3	Zn	1.059808	-0.324845	-0.626569
Zn4	Zn	1.559808	0.175155	-0.126569
Zn5	Zn	0.942646	-0.319860	-0.458122
Zn6	Zn	1.442646	0.180140	0.041878
Zn7	Zn	0.937620	-0.437047	-0.625920
Zn8	Zn	1.437620	0.062953	-0.125920
O9	O	0.998738	-0.380957	-0.545613
O10	O	1.498738	0.119043	-0.045613
O11	O	1.153638	-0.430717	-0.498379
O12	O	1.653638	0.069283	0.001621
O13	O	1.048433	-0.226079	-0.598753
O14	O	1.548433	0.273921	-0.098753
O15	O	0.957574	-0.336091	-0.324963
O16	O	1.457574	0.163909	0.175037
O17	O	1.157260	-0.344587	-0.612057
O18	O	1.657260	0.155413	-0.112057
O19	O	1.040031	-0.425883	-0.335043
O20	O	1.540031	0.074117	0.164957
O21	O	0.962355	-0.222416	-0.474996
O22	O	1.462355	0.277584	0.025004
O23	O	0.843874	-0.331214	-0.474367
O24	O	1.343874	0.168786	0.025633
O25	O	0.949008	-0.535820	-0.610952
O26	O	1.449008	-0.035820	-0.110952
O27	O	0.840181	-0.417311	-0.597648
O28	O	1.340181	0.082689	-0.097648
O29	O	1.035157	-0.539515	-0.497751
O30	O	1.535157	-0.039515	0.002249
O31	O	1.043560	-0.339710	-0.761461
O32	O	1.543560	0.160290	-0.261461
O33	O	0.953788	-0.422145	-0.760984
O34	O	1.453788	0.077855	-0.260984
C35	C	0.816589	-0.373177	-0.534449
C36	C	1.316589	0.126823	-0.034449
C37	C	0.738665	-0.369865	-0.529698
C38	C	1.238665	0.130135	-0.029698
C39	C	0.990972	-0.563816	-0.555809
C40	C	1.490972	-0.063816	-0.055809
C41	C	0.987662	-0.641739	-0.560154
C42	C	1.487662	-0.141739	-0.060154
C43	C	0.998682	-0.380939	-0.796223
C44	C	1.498682	0.119061	-0.296223
C45	C	0.998721	-0.380957	-0.903440
C46	C	1.498721	0.119043	-0.403440
C47	C	0.700154	-0.413064	-0.591740
C48	C	1.200154	0.086936	-0.091740
C49	C	0.626935	-0.409955	-0.587263
C50	C	1.126935	0.090045	-0.087263
C51	C	0.592229	-0.363643	-0.520747
C52	C	1.092229	0.136357	-0.020747
C53	C	0.630744	-0.320442	-0.458698
C54	C	1.130744	0.179558	0.041302
C55	C	0.703962	-0.323555	-0.463171
C56	C	1.203962	0.176445	0.036829
C57	C	0.371255	-0.352009	-0.504021
C58	C	0.871255	0.147991	-0.004021
C59	C	0.298033	-0.348898	-0.499554
C60	C	0.798033	0.151102	0.000446
C61	C	0.294229	-0.438413	-0.628119
C62	C	0.794229	0.061587	-0.128119
C63	C	0.367448	-0.441519	-0.632590
C64	C	0.867448	0.058481	-0.132590
C65	C	0.405957	-0.398320	-0.570537
C66	C	0.905957	0.101680	-0.070537
C67	C	0.517388	-0.360463	-0.516171
C68	C	1.017388	0.139537	-0.016171
C69	C	0.480796	-0.401504	-0.575109
C70	C	0.980796	0.098496	-0.075109
C71	C	1.181598	-0.388769	-0.556821
C72	C	1.681598	0.111231	-0.056821
C73	C	1.259522	-0.392098	-0.561597
C74	C	1.759522	0.107902	-0.061597
C75	C	1.030958	-0.680273	-0.503261
C76	C	1.530958	-0.180273	-0.003261
C77	C	1.027840	-0.753490	-0.507339
C78	C	1.527840	-0.253490	-0.007339
C79	C	0.981428	-0.788172	-0.568317
C80	C	1.481428	-0.288172	-0.068317
C81	C	0.938127	-0.749633	-0.625213
C82	C	1.438127	-0.249633	-0.125213
C83	C	0.941243	-0.676418	-0.621129
C84	C	1.441243	-0.176418	-0.121129
C85	C	0.969775	-1.009140	-0.583592
C86	C	1.469775	-0.509140	-0.083592
C87	C	0.966664	-1.082361	-0.587674
C88	C	1.466664	-0.582361	-0.087674
C89	C	1.056376	-1.086213	-0.469799
C90	C	1.556376	-0.586213	0.030201
C91	C	1.059490	-1.012995	-0.465724
C92	C	1.559490	-0.512995	0.034276
C93	C	1.016187	-0.974463	-0.522616
C94	C	1.516187	-0.474463	-0.022616
C95	C	0.978241	-0.863012	-0.572489
C96	C	1.478241	-0.363012	-0.072489
C97	C	1.019371	-0.899625	-0.518438
C98	C	1.519371	-0.399625	-0.018438
C99	C	1.006515	-0.198812	-0.535389
C100	C	1.506515	0.301188	-0.035389
C101	C	1.009960	-0.120895	-0.530781
C102	C	1.509960	0.379105	-0.030781
C103	C	0.998754	-0.380974	-0.990513
C104	C	1.498754	0.119026	-0.490513
C105	C	0.998802	-0.380994	-1.099749
C106	C	1.498802	0.119006	-0.599749
C107	C	0.998813	-0.380992	-0.294026
C108	C	1.498813	0.119008	0.205974
C109	C	0.998845	-0.381007	-0.186815
C110	C	1.498845	0.118993	0.313185
H111	H	0.595583	-0.445132	-0.637786
H112	H	1.095583	0.054868	-0.137786
H113	H	0.602480	-0.282737	-0.404535
H114	H	1.102480	0.217263	0.095465
H115	H	0.728407	-0.450774	-0.645908
H116	H	1.228407	0.049226	-0.145908
H117	H	0.395701	-0.479229	-0.686756
H118	H	0.895701	0.020771	-0.186756
H119	H	0.262867	-0.473584	-0.678637
H120	H	0.762867	0.026416	-0.178637
H121	H	0.269777	-0.311190	-0.445378
H122	H	0.769777	0.188810	0.054622
O123	O	1.109549	-0.975593	-0.399951
O124	O	1.609549	-0.475593	0.100049
H125	H	1.104446	-0.918208	-0.406676
H126	H	1.604446	-0.418208	0.093324
O127	O	0.518230	-0.451464	-0.646833
O128	O	1.018230	0.048536	-0.146833
H129	H	0.552910	-0.421445	-0.696125
H130	H	1.052910	0.078555	-0.196125
O131	O	0.894536	-0.634859	-0.682489
O132	O	1.394536	-0.134859	-0.182489
H133	H	0.927309	-0.602828	-0.731626
H134	H	1.427309	-0.102828	-0.231626
O135	O	0.412788	-0.305397	-0.437126
O136	O	0.912788	0.194603	0.062874
H137	H	0.376351	-0.272660	-0.390140
H138	H	0.876351	0.227340	0.109860
O139	O	0.745504	-0.276953	-0.396266
O140	O	1.245504	0.223047	0.103734
H141	H	0.709071	-0.244219	-0.349270
H142	H	1.209071	0.255781	0.150730
H143	H	0.489121	-0.322754	-0.462016
H144	H	0.989121	0.177246	0.037984
H145	H	0.900336	-0.777877	-0.674859
H146	H	1.400336	-0.277877	-0.174859
H147	H	1.091630	-1.117594	-0.423479
H148	H	1.591630	-0.617594	0.076521
O149	O	0.916600	-1.119773	-0.653439
O150	O	1.416600	-0.619773	-0.153439
H151	H	0.887006	-1.080679	-0.692307
H152	H	1.387006	-0.580679	-0.192307
H153	H	1.068753	-0.652040	-0.453609
H154	H	1.568753	-0.152040	0.046391
H155	H	1.057156	-0.871383	-0.468786
H156	H	1.557156	-0.371383	0.031214
O157	O	1.074541	-0.795054	-0.445982
O158	O	1.574541	-0.295054	0.054018
H159	H	1.107344	-0.758637	-0.402905
H160	H	1.607344	-0.258637	0.097095
O161	O	0.923036	-0.967582	-0.644900
O162	O	1.423036	-0.467582	-0.144900
H163	H	0.890233	-1.004001	-0.687973
H164	H	1.390233	-0.504001	-0.187973
H165	H	0.940456	-0.891258	-0.622142
H166	H	1.440456	-0.391258	-0.122142
