data_functionalizedCrystal
_audit_creation_method	'MofGen! by Chris Wilmer'
_symmetry_space_group_name_H-M	'P1'
_symmetry_Int_Tables_number	1
_symmetry_cell_setting	triclinic
loop_
_symmetry_equiv_pos_as_xyz
  x,y,z
_cell_length_a	19.288864
_cell_length_b	15.455301
_cell_length_c	19.288865
_cell_angle_alpha	93.013473
_cell_angle_beta	83.136245
_cell_angle_gamma	93.022369
loop_
_atom_site_label
_atom_site_type_symbol
_atom_site_fract_x
_atom_site_fract_y
_atom_site_fract_z
O1	O	0.924065	0.072421	0.089363
O2	O	1.424065	0.572421	0.589363
O3	O	0.721802	0.072363	0.101050
O4	O	1.221802	0.572363	0.601050
O5	O	0.828777	0.072376	-0.005924
O6	O	1.328777	0.572376	0.494076
O7	O	0.817090	0.072407	0.196338
O8	O	1.317090	0.572407	0.696338
O9	O	0.823357	-0.071889	-0.011337
O10	O	1.323357	0.428111	0.488663
O11	O	0.716381	-0.071903	0.095637
O12	O	1.216381	0.428097	0.595637
O13	O	0.918644	-0.071845	0.083950
O14	O	1.418644	0.428155	0.583950
Cu15	Cu	0.817018	-0.085046	0.089299
Cu16	Cu	1.317018	0.414954	0.589299
Cu17	Cu	0.823428	0.085564	0.095701
Cu18	Cu	1.323428	0.585564	0.595701
O19	O	0.811669	-0.071858	0.190924
O20	O	1.311669	0.428142	0.690924
C21	C	0.693215	0.000222	0.097967
C22	C	1.193215	0.500222	0.597967
C23	C	0.616110	0.000199	0.096837
C24	C	1.116110	0.500199	0.596837
C25	C	0.571415	0.000223	0.159606
C26	C	1.071415	0.500223	0.659606
C27	C	0.498968	0.000232	0.158546
C28	C	0.998968	0.500232	0.658546
C29	C	0.471221	0.000236	0.094714
C30	C	0.971221	0.500236	0.594714
C31	C	0.515926	0.000208	0.031936
C32	C	1.015926	0.500208	0.531936
C33	C	0.588371	0.000189	0.032998
C34	C	1.088371	0.500189	0.532998
C35	C	0.364859	0.050800	0.046432
C36	C	0.864859	0.550800	0.546432
C37	C	0.292415	0.050823	0.045373
C38	C	0.792415	0.550823	0.545373
C39	C	0.247777	0.000288	0.091436
C40	C	0.747777	0.500288	0.591436
C41	C	0.275591	-0.050260	0.138570
C42	C	0.775591	0.449740	0.638570
C43	C	0.348036	-0.050278	0.139632
C44	C	0.848036	0.449722	0.639632
C45	C	0.392668	0.000255	0.093555
C46	C	0.892668	0.500255	0.593555
C47	C	0.124526	0.000320	0.153059
C48	C	0.624526	0.500320	0.653059
C49	C	0.052078	0.000324	0.151996
C50	C	0.552078	0.500324	0.651996
C51	C	0.069038	0.000308	0.025385
C52	C	0.569038	0.500308	0.525385
C53	C	0.141484	0.000295	0.026450
C54	C	0.641484	0.500295	0.526450
C55	C	0.169224	0.000305	0.090289
C56	C	0.669224	0.500305	0.590289
N57	N	0.812514	-0.205044	0.084796
N58	N	1.312514	0.294956	0.584796
C59	C	0.852804	-0.250416	0.125116
C60	C	1.352804	0.249584	0.625116
C61	C	0.849408	-0.341226	0.121706
C62	C	1.349408	0.158774	0.621706
C63	C	0.805717	-0.386662	0.077979
C64	C	1.305717	0.113338	0.577979
C65	C	0.765425	-0.341284	0.037655
C66	C	1.265425	0.158716	0.537655
C67	C	0.768826	-0.250476	0.041062
C68	C	1.268826	0.249524	0.541062
C69	C	0.791047	-0.658252	0.063281
C70	C	1.291047	-0.158252	0.563281
C71	C	0.787647	-0.749066	0.059879
C72	C	1.287647	-0.249066	0.559879
C73	C	0.871631	-0.749002	0.143929
C74	C	1.371631	-0.249002	0.643929
C75	C	0.875025	-0.658192	0.147335
C76	C	1.375025	-0.158192	0.647335
C77	C	0.834736	-0.612822	0.107008
C78	C	1.334736	-0.112822	0.607008
N79	N	0.802242	-0.479484	0.074494
N80	N	1.302242	0.020516	0.574494
N81	N	0.838215	-0.520001	0.110490
N82	N	1.338215	-0.020001	0.610490
C83	C	0.947231	0.000298	0.087033
C84	C	1.447231	0.500298	0.587033
C85	C	1.024336	0.000326	0.088163
C86	C	1.524336	0.500326	0.588163
C87	C	0.825691	0.000241	-0.034507
C88	C	1.325691	0.500241	0.465493
C89	C	0.824561	0.000233	-0.111611
C90	C	1.324561	0.500233	0.388389
N91	N	0.827937	0.205562	0.100199
N92	N	1.327937	0.705562	0.600199
C93	C	0.887330	0.000247	-0.156307
C94	C	1.387330	0.500247	0.343693
C95	C	0.886270	0.000260	-0.228754
C96	C	1.386270	0.500260	0.271246
C97	C	0.822437	0.000242	-0.256502
C98	C	1.322437	0.500242	0.243498
C99	C	0.759660	0.000233	-0.211796
C100	C	1.259660	0.500233	0.288204
C101	C	0.760723	0.000229	-0.139351
C102	C	1.260723	0.500229	0.360649
C103	C	0.770358	-0.050305	-0.366686
C104	C	1.270358	0.449695	0.133314
C105	C	0.769298	-0.050306	-0.439130
C106	C	1.269298	0.449694	0.060870
C107	C	0.819158	0.000261	-0.479947
C108	C	1.319158	0.500261	0.020053
C109	C	0.870089	0.050817	-0.448312
C110	C	1.370089	0.550817	0.051688
C111	C	0.871151	0.050812	-0.375866
C112	C	1.371151	0.550812	0.124134
C113	C	0.821278	0.000248	-0.335056
C114	C	1.321278	0.500248	0.164944
C115	C	0.880781	0.000290	-0.603198
C116	C	1.380781	0.500290	-0.103198
C117	C	0.879718	0.000309	-0.675645
C118	C	1.379718	0.500309	-0.175645
C119	C	0.753107	0.000274	-0.658686
C120	C	1.253107	0.500274	-0.158686
C121	C	0.754172	0.000264	-0.586240
C122	C	1.254172	0.500264	-0.086240
C123	C	0.818011	0.000268	-0.558501
C124	C	1.318011	0.500268	-0.058501
C125	C	0.814756	0.000279	0.219508
C126	C	1.314756	0.500279	0.719508
C127	C	0.815885	0.000293	0.296612
C128	C	1.315885	0.500293	0.796612
H129	H	0.493330	0.000222	-0.020036
H130	H	0.993330	0.500222	0.479964
C131	C	0.717354	-0.391258	-0.010433
C132	C	1.217354	0.108742	0.489567
H133	H	0.693847	-0.351227	-0.033960
H134	H	1.193847	0.148773	0.466040
H135	H	0.683974	-0.426684	0.016792
H136	H	1.183974	0.073316	0.516792
H137	H	0.744586	-0.426681	-0.043807
H138	H	1.244586	0.073319	0.456193
H139	H	0.910605	-0.621203	0.182940
H140	H	1.410605	-0.121203	0.682940
C141	C	0.893718	-0.391135	0.166064
C142	C	1.393718	0.108865	0.666064
H143	H	0.885441	-0.451724	0.157770
H144	H	1.385441	0.048276	0.657770
H145	H	0.881212	-0.376247	0.214179
H146	H	1.381212	0.123753	0.714179
H147	H	0.941844	-0.376233	0.153600
H148	H	1.441844	0.123767	0.653600
H149	H	0.593996	0.000233	0.211589
H150	H	1.093996	0.500233	0.711589
C151	C	0.715512	-0.105933	-0.321792
C152	C	1.215512	0.394067	0.178208
H153	H	0.723434	-0.098690	-0.274115
H154	H	1.223434	0.401310	0.225885
H155	H	0.719215	-0.165238	-0.336717
H156	H	1.219215	0.334762	0.163283
H157	H	0.670047	-0.088171	-0.326839
H158	H	1.170047	0.411829	0.173161
C159	C	0.915951	-0.798910	0.188278
C160	C	1.415951	-0.298910	0.688278
H161	H	0.907675	-0.859500	0.179984
H162	H	1.407675	-0.359500	0.679984
H163	H	0.903456	-0.784025	0.236395
H164	H	1.403456	-0.284025	0.736395
H165	H	0.964075	-0.784005	0.175803
H166	H	1.464075	-0.284005	0.675803
C167	C	0.637538	0.000174	-0.036050
C168	C	1.137538	0.500174	0.463950
H169	H	0.610640	0.000182	-0.074220
H170	H	1.110640	0.500182	0.425780
H171	H	0.664248	-0.050138	-0.040157
H172	H	1.164248	0.449862	0.459843
H173	H	0.668054	0.050486	-0.036376
H174	H	1.168054	0.550486	0.463624
C175	C	0.691676	0.000212	-0.090180
C176	C	1.191676	0.500212	0.409820
H177	H	0.701452	0.000215	-0.043061
H178	H	1.201452	0.500215	0.456939
H179	H	0.663597	-0.050100	-0.100465
H180	H	1.163597	0.449900	0.399535
H181	H	0.667387	0.050523	-0.096672
H182	H	1.167387	0.550523	0.403328
C183	C	0.378633	-0.105880	0.191469
C184	C	0.878633	0.394120	0.691469
H185	H	0.428170	-0.098646	0.185505
H186	H	0.928170	0.401354	0.685505
H187	H	0.365330	-0.165187	0.182965
H188	H	0.865330	0.334813	0.682965
H189	H	0.361282	-0.088097	0.237920
H190	H	0.861282	0.411903	0.737920
C191	C	0.449795	0.000271	0.227594
C192	C	0.949795	0.500271	0.727594
H193	H	0.476692	0.000282	0.265766
H194	H	0.976692	0.500282	0.765766
H195	H	0.419268	-0.050025	0.227932
H196	H	0.919268	0.449975	0.727932
H197	H	0.423097	0.050598	0.231688
H198	H	0.923097	0.550598	0.731688
C199	C	0.739569	-0.799045	0.011794
C200	C	1.239569	-0.299045	0.511794
H201	H	0.716060	-0.759019	-0.011734
H202	H	1.216060	-0.259019	0.488266
H203	H	0.706191	-0.834466	0.039027
H204	H	1.206191	-0.334466	0.539027
H205	H	0.766797	-0.834475	-0.021578
H206	H	1.266797	-0.334475	0.478422
C207	C	0.226499	-0.105847	0.189246
C208	C	0.726499	0.394153	0.689246
H209	H	0.179370	-0.098604	0.181861
H210	H	0.679370	0.401396	0.681861
H211	H	0.232891	-0.088068	0.236041
H212	H	0.732891	0.411932	0.736041
H213	H	0.236940	-0.165164	0.181091
H214	H	0.736940	0.334836	0.681091
C215	C	0.155043	0.000322	0.223277
C216	C	0.655043	0.500322	0.723277
H217	H	0.118045	0.000325	0.260509
H218	H	0.618045	0.500325	0.760509
H219	H	0.184857	0.050626	0.228212
H220	H	0.684857	0.550626	0.728212
H221	H	0.181045	-0.049997	0.224434
H222	H	0.681045	0.450003	0.724434
C223	C	0.713277	-0.105909	-0.473926
C224	C	1.213277	0.394091	0.026074
H225	H	0.719789	-0.098673	-0.522918
H226	H	1.219789	0.401327	-0.022918
H227	H	0.668166	-0.088144	-0.455229
H228	H	1.168166	0.411856	0.044771
H229	H	0.717324	-0.165222	-0.465105
H230	H	1.217324	0.334778	0.034895
H231	H	0.015687	0.000338	0.203112
H232	H	0.515687	0.500338	0.703112
C233	C	0.689445	0.000217	-0.242312
C234	C	1.189445	0.500217	0.257688
H235	H	0.652213	0.000216	-0.205314
H236	H	1.152213	0.500216	0.294686
H237	H	0.684504	-0.050089	-0.272117
H238	H	1.184504	0.449911	0.227883
H239	H	0.688294	0.050534	-0.268324
H240	H	1.188294	0.550534	0.231676
H241	H	0.758241	-0.621322	0.030444
H242	H	1.258241	-0.121322	0.530444
C243	C	0.724504	-0.200567	-0.003287
C244	C	1.224504	0.299433	0.496713
H245	H	0.697991	-0.240631	-0.029812
H246	H	1.197991	0.259369	0.470188
H247	H	0.754394	-0.165135	-0.033997
H248	H	1.254394	0.334865	0.466003
H249	H	0.693772	-0.165154	0.026592
H250	H	1.193772	0.334846	0.526592
H251	H	0.937385	0.000275	-0.265152
H252	H	1.437385	0.500275	0.234848
C253	C	0.038525	0.000317	-0.044829
C254	C	0.538525	0.500317	0.455171
H255	H	-0.011022	0.000338	-0.036472
H256	H	0.488978	0.500338	0.463528
H257	H	0.051973	-0.049994	-0.072557
H258	H	0.551973	0.450006	0.427443
H259	H	0.055789	0.050629	-0.068771
H260	H	0.555789	0.550629	0.431229
H261	H	0.177876	0.000281	-0.024663
H262	H	0.677876	0.500281	0.475337
C263	C	0.957550	0.000267	-0.125796
C264	C	1.457550	0.500267	0.374204
H265	H	0.994781	0.000285	-0.162796
H266	H	1.494781	0.500285	0.337204
H267	H	0.958710	-0.050039	-0.099780
H268	H	1.458710	0.449961	0.400220
H269	H	0.962485	0.050584	-0.095996
H270	H	1.462485	0.550584	0.404004
H271	H	0.269775	0.091986	0.006996
H272	H	0.769775	0.591986	0.506996
C273	C	0.927163	0.106428	-0.341068
C274	C	1.427163	0.606428	0.158932
H275	H	0.956705	0.136551	-0.375747
H276	H	1.456705	0.636551	0.124253
H277	H	0.954255	0.069999	-0.317933
H278	H	1.454255	0.569999	0.182067
H279	H	0.905081	0.147062	-0.308062
H280	H	1.405081	0.647062	0.191938
C281	C	0.413954	0.106400	-0.004235
C282	C	0.913954	0.606400	0.495765
H283	H	0.387014	0.136518	-0.032449
H284	H	0.887014	0.636518	0.467551
H285	H	0.444594	0.069960	-0.033237
H286	H	0.944594	0.569960	0.466763
H287	H	0.440534	0.147039	0.021729
H288	H	0.940534	0.647039	0.521729
C289	C	0.924934	0.106448	-0.493199
C290	C	1.424934	0.606448	0.006801
H291	H	0.917003	0.099222	-0.540874
H292	H	1.417003	0.599222	-0.040874
H293	H	0.970398	0.088694	-0.488154
H294	H	1.470398	0.588694	0.011846
H295	H	0.921225	0.165757	-0.478268
H296	H	1.421225	0.665757	0.021732
H297	H	0.932763	0.000298	-0.580611
H298	H	1.432763	0.500298	-0.080611
H299	H	0.888378	-0.213428	0.160727
H300	H	1.388378	0.286572	0.660727
H301	H	0.930834	0.000325	-0.712036
H302	H	1.430834	0.500325	-0.212036
C303	C	0.682892	0.000257	-0.689201
C304	C	1.182892	0.500257	-0.189201
H305	H	0.691248	0.000258	-0.738748
H306	H	1.191248	0.500258	-0.238748
H307	H	0.658946	0.050557	-0.671947
H308	H	1.158946	0.550557	-0.171947
H309	H	0.655166	-0.050066	-0.675742
H310	H	1.155166	0.449934	-0.175742
H311	H	0.703059	0.000248	-0.549848
H312	H	1.203059	0.500248	-0.049848
