data_functionalizedCrystal
_audit_creation_method	'MofGen! by Chris Wilmer'
_symmetry_space_group_name_H-M	'P1'
_symmetry_Int_Tables_number	1
_symmetry_cell_setting	triclinic
loop_
_symmetry_equiv_pos_as_xyz
  x,y,z
_cell_length_a	15.944551
_cell_length_b	23.532407
_cell_length_c	15.021413
_cell_angle_alpha	89.999348
_cell_angle_beta	89.997174
_cell_angle_gamma	83.173708
loop_
_atom_site_label
_atom_site_type_symbol
_atom_site_fract_x
_atom_site_fract_y
_atom_site_fract_z
O1	O	1.113910	0.073442	-0.073949
O2	O	0.869284	0.082498	-0.073972
O3	O	0.998974	-0.004933	-0.073943
O4	O	0.984220	0.160873	-0.073977
O5	O	0.998953	-0.004921	0.074121
O6	O	0.869263	0.082510	0.074092
O7	O	1.113889	0.073455	0.074116
Zn8	Zn	0.991573	0.077985	0.097612
Zn9	Zn	0.991600	0.077968	-0.097469
O10	O	0.984200	0.160886	0.074087
C11	C	0.837983	0.082128	0.000057
C12	C	0.744746	0.081001	0.000049
C13	C	0.530369	0.024113	0.000078
C14	C	0.469137	0.050524	-0.072931
C15	C	0.574038	0.078962	0.000060
C16	C	0.469138	0.050549	0.073049
C17	C	0.409142	0.076989	0.000075
C18	C	0.514033	0.105388	-0.073009
C19	C	0.514041	0.105405	0.073036
C20	C	0.452826	0.131856	0.000010
C21	C	0.669030	0.080097	0.000051
C22	C	0.314150	0.075858	0.000077
C23	C	0.998588	-0.026144	0.000091
C24	C	0.997458	-0.089366	0.000098
C25	C	1.067121	-0.488199	0.000056
C26	C	1.066072	-0.547603	0.000049
O27	O	1.130650	-0.584098	0.000022
N28	N	0.988971	-0.570528	0.000042
C29	C	0.912915	-0.534045	0.000033
O30	O	0.847239	-0.558999	0.000026
C31	C	0.913965	-0.474642	0.000034
C32	C	0.991071	-0.451721	0.000049
C33	C	1.144220	-0.465277	0.000070
C34	C	1.145269	-0.405877	0.000079
C35	C	1.069219	-0.369399	0.000073
C36	C	0.992120	-0.392320	0.000058
C37	C	0.837910	-0.438160	0.000018
C38	C	0.838967	-0.378754	0.000018
C39	C	0.916072	-0.355832	0.000034
C40	C	0.917118	-0.296442	0.000060
N41	N	0.994219	-0.273517	0.000067
C42	C	1.070269	-0.309995	0.000073
C43	C	0.910716	-0.658796	0.000031
C44	C	0.909664	-0.718198	0.000037
C45	C	1.062821	-0.731752	0.000050
C46	C	1.063872	-0.672349	0.000051
C47	C	0.987816	-0.635871	0.000037
C48	C	1.072466	-0.185250	0.000092
C49	C	1.073508	-0.125844	0.000104
C50	C	0.920352	-0.112295	0.000085
C51	C	0.919309	-0.171696	0.000078
C52	C	0.995373	-0.208173	0.000078
O53	O	0.852574	-0.259913	0.000083
O54	O	1.135935	-0.285033	0.000069
C55	C	1.145190	0.073824	0.000084
C56	C	1.238427	0.074951	0.000087
C57	C	0.984586	0.182097	0.000051
C58	C	0.985715	0.245318	0.000038
N59	N	0.991561	0.077995	0.230750
N60	N	0.991619	0.077953	-0.230606
C61	C	0.931583	0.118404	0.470420
C62	C	1.007390	0.129461	0.529759
C63	C	0.991582	0.077981	0.412357
C64	C	0.915796	0.066938	0.529760
C65	C	0.991596	0.077969	0.587781
C66	C	1.067428	0.089063	0.470389
C67	C	0.975783	0.026518	0.470385
C68	C	1.051645	0.037552	0.529697
C69	C	0.991573	0.077990	0.311300
C70	C	0.991614	0.077960	0.688836
H71	H	0.564086	-0.021407	-0.000003
C72	C	0.442236	0.019179	-0.156297
H73	H	0.469059	-0.019095	-0.156201
H74	H	0.458362	0.038290	-0.208143
H75	H	0.382688	0.018994	-0.155963
H76	H	0.533834	0.128564	-0.134800
C77	C	0.824849	-0.743405	0.000026
H78	H	0.779711	-0.713167	0.000017
H79	H	0.821242	-0.766300	0.051655
H80	H	0.821262	-0.766292	-0.051618
C81	C	0.836703	-0.072162	0.000073
H82	H	0.848378	-0.033502	0.000070
H83	H	0.805050	-0.079108	0.051698
H84	H	0.805081	-0.079110	-0.051575
H85	H	1.134405	-0.214943	0.000089
C86	C	0.442258	0.019207	0.156431
H87	H	0.469096	-0.019063	0.156342
H88	H	0.382715	0.019020	0.156124
H89	H	0.458399	0.038324	0.208270
C90	C	0.540970	0.136728	0.156405
H91	H	0.567229	0.169145	0.138866
H92	H	0.579667	0.111551	0.190189
H93	H	0.492620	0.148819	0.191594
H94	H	0.848778	-0.629098	0.000027
C95	C	1.158328	-0.100634	0.000116
H96	H	1.203468	-0.130870	0.000109
H97	H	1.161918	-0.077745	0.051752
H98	H	1.161927	-0.077742	-0.051521
H99	H	1.208056	-0.387220	0.000088
C100	C	1.025465	0.188243	0.564998
H101	H	1.075579	0.183731	0.599778
H102	H	0.979466	0.204305	0.600694
H103	H	1.032513	0.212955	0.516252
H104	H	0.856524	-0.190359	0.000090
H105	H	0.775123	-0.456812	0.000000
C106	C	1.146478	-0.771884	0.000051
H107	H	1.192553	-0.749728	0.000063
H108	H	1.149254	-0.795337	-0.051584
H109	H	1.149242	-0.795339	0.051689
C110	C	1.227883	-0.505395	0.000085
H111	H	1.273943	-0.483227	0.000100
H112	H	1.230679	-0.528854	-0.051545
H113	H	1.230650	-0.528846	0.051728
H114	H	0.851698	0.057603	0.555841
C115	C	0.957685	-0.032248	0.435114
H116	H	1.004142	-0.048629	0.400317
H117	H	0.908161	-0.027626	0.399426
H118	H	0.949596	-0.056748	0.483843
H119	H	0.419284	0.177423	-0.000040
H120	H	1.126658	-0.653691	0.000063
H121	H	0.777032	-0.349056	0.000006
H122	H	0.880895	0.152617	0.444393
C123	C	1.154037	0.101746	0.435319
H124	H	1.190195	0.107016	0.484138
H125	H	1.147023	0.135514	0.400121
H126	H	1.178331	0.070526	0.400071
C127	C	1.120267	-0.008636	0.564647
H128	H	1.174050	-0.000700	0.544208
H129	H	1.109496	-0.045096	0.543419
H130	H	1.119600	-0.008597	0.627887
