data_functionalizedCrystal
_audit_creation_method	'MofGen! by Chris Wilmer'
_symmetry_space_group_name_H-M	'P1'
_symmetry_Int_Tables_number	1
_symmetry_cell_setting	triclinic
loop_
_symmetry_equiv_pos_as_xyz
  x,y,z
_cell_length_a	16.109301
_cell_length_b	15.995350
_cell_length_c	14.586319
_cell_angle_alpha	89.998440
_cell_angle_beta	89.999213
_cell_angle_gamma	83.476928
loop_
_atom_site_label
_atom_site_type_symbol
_atom_site_fract_x
_atom_site_fract_y
_atom_site_fract_z
O1	O	1.103160	0.107624	-0.076178
O2	O	1.603160	0.607624	0.423822
O3	O	0.861101	0.121018	-0.076192
O4	O	1.361101	0.621018	0.423808
O5	O	0.988747	-0.007569	-0.076184
O6	O	1.488747	0.492431	0.423816
O7	O	0.975514	0.236210	-0.076186
O8	O	1.475514	0.736210	0.423814
O9	O	0.988739	-0.007570	0.076297
O10	O	1.488739	0.492430	0.576297
O11	O	0.861093	0.121016	0.076289
O12	O	1.361093	0.621016	0.576289
O13	O	1.103151	0.107622	0.076303
O14	O	1.603151	0.607622	0.576303
Cu15	Cu	0.982121	0.114319	0.090219
Cu16	Cu	1.482121	0.614319	0.590219
Cu17	Cu	0.982131	0.114321	-0.090107
Cu18	Cu	1.482131	0.614321	0.409893
O19	O	0.975505	0.236208	0.076295
O20	O	1.475505	0.736208	0.576295
C21	C	0.830122	0.120474	0.000047
C22	C	1.330122	0.620474	0.500047
C23	C	0.737826	0.118848	0.000041
C24	C	1.237826	0.618848	0.500041
C25	C	0.515573	0.191366	0.000051
C26	C	1.015573	0.691366	0.500051
C27	C	0.428853	0.189831	0.000057
C28	C	0.928853	0.689831	0.500057
C29	C	0.448686	0.037268	0.000055
C30	C	0.948686	0.537268	0.500055
C31	C	0.535405	0.038804	0.000055
C32	C	1.035405	0.538804	0.500055
C33	C	0.568846	0.115855	0.000049
C34	C	1.068846	0.615855	0.500049
C35	C	0.395406	0.112785	0.000054
C36	C	0.895406	0.612785	0.500054
C37	C	0.301380	0.111120	0.000061
C38	C	0.801380	0.611120	0.500061
C39	C	0.662879	0.117520	0.000044
C40	C	1.162879	0.617520	0.500044
C41	C	0.988196	-0.038764	0.000055
C42	C	1.488196	0.461236	0.500055
C43	C	0.986556	-0.131714	0.000050
C44	C	1.486556	0.368286	0.500050
C45	C	0.980665	-0.469460	0.000053
C46	C	1.480665	0.030540	0.500053
C47	C	0.889758	-0.422001	-0.000295
C48	C	1.389758	0.077999	0.499705
C49	C	0.891399	-0.325311	0.000049
C50	C	1.391399	0.174689	0.500049
C51	C	0.983587	-0.301900	0.000051
C52	C	1.483587	0.198100	0.500051
C53	C	1.028421	-0.342991	0.087126
C54	C	1.528421	0.157009	0.587126
C55	C	1.026137	-0.439626	0.087198
C56	C	1.526137	0.060374	0.587198
C57	C	1.028025	-0.439983	-0.086201
C58	C	1.528025	0.060017	0.413799
C59	C	1.028003	-0.343037	-0.087351
C60	C	1.528003	0.156963	0.412649
C61	C	0.985243	-0.207203	0.000053
C62	C	1.485243	0.292797	0.500053
C63	C	0.979012	-0.564157	0.000057
C64	C	1.479012	-0.064157	0.500057
C65	C	1.134130	0.108166	0.000062
C66	C	1.634130	0.608166	0.500062
C67	C	1.226426	0.109792	0.000062
C68	C	1.726426	0.609792	0.500062
C69	C	0.976056	0.267404	0.000054
C70	C	1.476056	0.767404	0.500054
C71	C	0.977697	0.360354	0.000053
C72	C	1.477697	0.860354	0.500053
N73	N	0.982120	0.114317	0.217050
N74	N	1.482120	0.614317	0.717050
N75	N	0.982139	0.114317	-0.216939
N76	N	1.482139	0.614317	0.283061
C77	C	1.038660	0.057398	0.452061
C78	C	1.538660	0.557398	0.952061
C79	C	1.038662	0.057396	0.548042
C80	C	1.538662	0.557396	1.048042
C81	C	0.925593	0.171238	0.548044
C82	C	1.425593	0.671238	1.048044
C83	C	0.925587	0.171236	0.452064
C84	C	1.425587	0.671236	0.952064
C85	C	0.982125	0.114316	0.404075
C86	C	1.482125	0.614316	0.904075
C87	C	0.982134	0.114317	0.596036
C88	C	1.482134	0.614317	1.096036
C89	C	0.982136	0.114315	0.700103
C90	C	1.482136	0.614315	1.200103
C91	C	0.982122	0.114317	0.300001
C92	C	1.482122	0.614317	0.800001
H93	H	0.421447	-0.025465	0.000066
H94	H	0.921447	0.474535	0.500066
C95	C	0.552355	0.276125	0.000056
C96	C	1.052355	0.776125	0.500056
N97	N	0.580057	0.339968	0.000064
N98	N	1.080057	0.839968	0.500064
H99	H	0.385481	0.251320	0.000061
H100	H	0.885481	0.751320	0.500061
H101	H	0.853427	-0.440522	-0.062738
H102	H	1.353427	0.059478	0.437262
C103	C	0.983762	-0.306164	-0.174378
C104	C	1.483762	0.193836	0.325622
N105	N	0.950432	-0.278394	-0.239925
N106	N	1.450432	0.221606	0.260075
C107	C	0.863429	0.233892	0.399278
C108	C	1.363429	0.733892	0.899278
N109	N	0.816626	0.281095	0.359518
N110	N	1.316626	0.781095	0.859518
C111	C	0.594009	-0.044268	0.000053
C112	C	1.094009	0.455732	0.500053
N113	N	0.638150	-0.106836	0.000054
N114	N	1.138150	0.393164	0.500054
H115	H	0.853581	-0.441586	0.061797
H116	H	1.353581	0.058414	0.561797
H117	H	0.856156	-0.296879	-0.062370
H118	H	1.356156	0.203121	0.437630
H119	H	0.997274	-0.314602	0.151923
H120	H	1.497274	0.185398	0.651923
H121	H	0.855912	-0.297438	0.062570
H122	H	1.355912	0.202562	0.562570
C123	C	0.981951	-0.464340	0.175125
C124	C	1.481951	0.035660	0.675125
N125	N	0.948666	-0.482950	0.241351
N126	N	1.448666	0.017050	0.741351
H127	H	1.092879	-0.471892	0.091150
H128	H	1.592879	0.028108	0.591150
C129	C	1.100848	-0.005226	0.600821
C130	C	1.600848	0.494774	1.100821
N131	N	1.147687	-0.052399	0.640574
N132	N	1.647687	0.447601	1.140574
H133	H	0.998307	-0.460513	-0.152198
H134	H	1.498307	0.039487	0.347802
C135	C	1.119913	-0.323917	0.091517
C136	C	1.619913	0.176083	0.591517
N137	N	1.188824	-0.309542	0.094827
N138	N	1.688824	0.190458	0.594827
C139	C	1.118829	-0.322316	-0.094450
C140	C	1.618829	0.177684	0.405550
N141	N	1.187244	-0.306712	-0.099788
N142	N	1.687244	0.193288	0.400212
H143	H	0.879562	0.217582	0.587126
H144	H	1.379562	0.717582	1.087126
H145	H	1.084696	0.011050	0.412990
H146	H	1.584696	0.511050	0.912990
C147	C	1.118571	-0.482920	-0.086994
C148	C	1.618571	0.017080	0.413006
N149	N	1.186767	-0.515265	-0.087586
N150	N	1.686767	-0.015265	0.412414
