data_functionalizedCrystal
_audit_creation_method	'MofGen! by Chris Wilmer'
_symmetry_space_group_name_H-M	'P1'
_symmetry_Int_Tables_number	1
_symmetry_cell_setting	triclinic
loop_
_symmetry_equiv_pos_as_xyz
  x,y,z
_cell_length_a	12.827893
_cell_length_b	19.805405
_cell_length_c	19.805399
_cell_angle_alpha	90.029301
_cell_angle_beta	89.983356
_cell_angle_gamma	89.973619
loop_
_atom_site_label
_atom_site_type_symbol
_atom_site_fract_x
_atom_site_fract_y
_atom_site_fract_z
Zn1	Zn	1.597562	0.269479	-0.382659
Zn2	Zn	1.597431	0.382668	-0.269467
Zn3	Zn	1.422812	0.269498	-0.269489
Zn4	Zn	1.422756	0.382632	-0.382620
O5	O	1.510140	0.326069	-0.326059
O6	O	1.743781	0.284501	-0.367651
O7	O	1.574236	0.367678	-0.174753
O8	O	1.446072	0.174779	-0.284527
O9	O	1.743684	0.367660	-0.284489
O10	O	1.574460	0.174765	-0.367672
O11	O	1.445944	0.284533	-0.174769
O12	O	1.276568	0.284498	-0.284489
O13	O	1.445975	0.367599	-0.477341
O14	O	1.276527	0.367617	-0.367605
O15	O	1.574405	0.284466	-0.477370
O16	O	1.574181	0.477380	-0.284451
O17	O	1.445848	0.477353	-0.367584
C18	C	1.238630	0.326056	-0.326046
C19	C	1.122477	0.326067	-0.326056
C20	C	1.070700	0.367261	-0.367121
C21	C	0.950649	0.367273	-0.367133
C22	C	1.510023	0.501925	-0.326026
C23	C	1.510068	0.577157	-0.326034
C24	C	1.510199	0.326027	-0.502601
C25	C	1.510224	0.326008	-0.577833
C26	C	1.782710	0.326083	-0.326072
C27	C	1.898863	0.326089	-0.326078
C28	C	1.510287	0.149526	-0.326106
C29	C	1.510349	0.074294	-0.326127
C30	C	1.576956	0.612493	-0.282793
C31	C	1.577000	0.683181	-0.282808
C32	C	1.510151	0.718533	-0.326061
C33	C	1.443260	0.683192	-0.369308
C34	C	1.443221	0.612505	-0.369296
C35	C	1.443414	0.968266	-0.369358
C36	C	1.443455	1.038958	-0.369366
C37	C	1.577193	1.038942	-0.282870
C38	C	1.577154	0.968254	-0.282858
C39	C	1.510268	0.932920	-0.326107
C40	C	1.510222	0.856272	-0.326091
C41	C	1.510191	0.795180	-0.326074
C42	C	1.577099	0.282719	-0.613194
C43	C	1.577109	0.282700	-0.683882
C44	C	1.510250	0.325973	-0.719209
C45	C	1.443367	0.369264	-0.683844
C46	C	1.443352	0.369280	-0.613157
C47	C	1.443426	0.369201	-0.968917
C48	C	1.443449	0.369184	-1.039609
C49	C	1.577184	0.282621	-1.039643
C50	C	1.577168	0.282636	-0.968956
C51	C	1.510283	0.325925	-0.933597
C52	C	1.510271	0.325945	-0.856948
C53	C	1.510266	0.325957	-0.795856
C54	C	1.510142	0.326063	-0.150203
C55	C	1.510319	0.325890	-0.074971
H56	H	1.631388	0.583714	-0.247567
H57	H	1.631642	0.247371	-1.068440
C58	C	1.369840	0.416796	-0.930014
C59	C	1.415029	0.469942	-0.881385
C60	C	1.341430	0.517528	-0.842470
C61	C	1.222642	0.511968	-0.852185
C62	C	1.177448	0.458820	-0.900817
C63	C	1.251047	0.411234	-0.939731
H64	H	1.502968	0.474060	-0.874191
H65	H	1.374886	0.556872	-0.806470
H66	H	1.168160	0.547194	-0.823379
H67	H	1.089509	0.454702	-0.908010
H68	H	1.217590	0.371890	-0.975731
C69	C	1.369922	1.077847	-0.416952
C70	C	1.415192	1.126387	-0.470117
C71	C	1.341663	1.165277	-0.517699
C72	C	1.222863	1.155625	-0.512117
C73	C	1.177586	1.107082	-0.458949
C74	C	1.251116	1.068193	-0.411367
H75	H	1.503141	1.133534	-0.474252
H76	H	1.375181	1.201211	-0.557058
H77	H	1.168432	1.184413	-0.547340
H78	H	1.089638	1.099936	-0.454814
H79	H	1.217598	1.032258	-0.372009
H80	H	1.388925	0.404496	-0.712613
C81	C	1.062307	0.278431	-0.278569
C82	C	0.987291	0.225382	-0.308046
C83	C	0.927124	0.177744	-0.260558
C84	C	0.941974	0.183156	-0.183592
C85	C	1.016994	0.236208	-0.154111
C86	C	1.077161	0.283845	-0.201600
H87	H	0.976295	0.221373	-0.365024
H88	H	0.871589	0.138472	-0.282382
H89	H	0.897435	0.147892	-0.148438
H90	H	1.027990	0.240216	-0.097133
H91	H	1.132696	0.323118	-0.179776
C92	C	0.890505	0.414921	-0.414632
C93	C	0.905370	0.491866	-0.408976
C94	C	0.845224	0.539516	-0.456477
C95	C	0.770212	0.510220	-0.509633
C96	C	0.755344	0.433271	-0.515291
C97	C	0.815490	0.385621	-0.467791
H98	H	0.960901	0.513556	-0.369625
H99	H	0.856231	0.596479	-0.452288
H100	H	0.725688	0.545493	-0.544796
H101	H	0.699813	0.411581	-0.554643
H102	H	0.804483	0.328658	-0.471980
C103	C	1.369843	0.929404	-0.416932
C104	C	1.296314	0.968292	-0.464510
C105	C	1.222743	0.929427	-0.512090
C106	C	1.222702	0.851674	-0.512091
C107	C	1.296234	0.812781	-0.464511
C108	C	1.369805	0.851646	-0.416932
H109	H	1.296342	1.025853	-0.464511
H110	H	1.168310	0.958218	-0.547311
H111	H	1.168240	0.822903	-0.547312
H112	H	1.296206	0.755220	-0.464511
H113	H	1.424238	0.822855	-0.381710
C114	C	1.650712	0.235033	-0.930096
C115	C	1.732721	0.264375	-0.881498
C116	C	1.806261	0.216768	-0.842638
C117	C	1.797792	0.139821	-0.852377
C118	C	1.715779	0.110475	-0.900977
C119	C	1.642239	0.158082	-0.939836
H120	H	1.738993	0.321340	-0.874287
H121	H	1.866972	0.238492	-0.806662
H122	H	1.852231	0.104579	-0.823611
H123	H	1.709507	0.053510	-0.908188
H124	H	1.581528	0.136358	-0.975813
H125	H	1.631467	0.711948	-0.247595
C126	C	1.650692	0.929368	-0.235279
C127	C	1.724276	0.968236	-0.187716
C128	C	1.797819	0.929351	-0.140139
C129	C	1.797778	0.851598	-0.140125
C130	C	1.724192	0.812726	-0.187690
C131	C	1.650649	0.851611	-0.235267
H132	H	1.724308	1.025798	-0.187725
H133	H	1.852292	0.958127	-0.104929
H134	H	1.852219	0.822813	-0.104906
H135	H	1.724160	0.755164	-0.187681
H136	H	1.596176	0.822835	-0.270478
C137	C	1.650780	1.077811	-0.235300
C138	C	1.605574	1.126469	-0.182145
C139	C	1.679156	1.165337	-0.134574
C140	C	1.797943	1.155546	-0.140159
C141	C	1.843155	1.106886	-0.193317
C142	C	1.769573	1.068018	-0.240887
H143	H	1.517635	1.133719	-0.178008
H144	H	1.645686	1.201359	-0.095224
H145	H	1.852413	1.184319	-0.104945
H146	H	1.931094	1.099636	-0.197453
H147	H	1.803043	1.031997	-0.280238
H148	H	0.943384	0.290821	-0.290916
C149	C	1.369640	0.573633	-0.416860
C150	C	1.250852	0.583414	-0.411270
C151	C	1.177272	0.544542	-0.458838
C152	C	1.222481	0.495888	-0.511995
C153	C	1.341276	0.486104	-0.517588
C154	C	1.414855	0.524976	-0.470020
H155	H	1.217380	0.619433	-0.371917
H156	H	1.089332	0.551785	-0.454697
H157	H	1.168013	0.467112	-0.547208
H158	H	1.374747	0.450085	-0.556941
H159	H	1.502795	0.517733	-0.474161
H160	H	1.388885	0.404524	-0.584367
H161	H	1.388834	0.711981	-0.404529
H162	H	1.631547	0.247483	-0.584435
H163	H	1.631568	0.247451	-0.712669
H164	H	1.115248	0.402517	-0.402273
C165	C	1.369890	0.416782	-1.078471
C166	C	1.296313	0.464395	-1.039580
C167	C	1.222759	0.511990	-1.078442
C168	C	1.222782	0.511973	-1.156195
C169	C	1.296362	0.464358	-1.195090
C170	C	1.369916	0.416763	-1.156228
H171	H	1.296293	0.464409	-0.982018
H172	H	1.168290	0.547238	-1.049648
H173	H	1.168333	0.547206	-1.184963
H174	H	1.296382	0.464344	-1.252652
H175	H	1.424385	0.381515	-1.185022
