data_functionalizedCrystal
_audit_creation_method	'MofGen! by Chris Wilmer'
_symmetry_space_group_name_H-M	'P1'
_symmetry_Int_Tables_number	1
_symmetry_cell_setting	triclinic
loop_
_symmetry_equiv_pos_as_xyz
  x,y,z
_cell_length_a	17.699091
_cell_length_b	17.699083
_cell_length_c	16.176319
_cell_angle_alpha	89.998611
_cell_angle_beta	90.005674
_cell_angle_gamma	96.715455
loop_
_atom_site_label
_atom_site_type_symbol
_atom_site_fract_x
_atom_site_fract_y
_atom_site_fract_z
O1	O	-0.095713	1.004081	-0.068629
O2	O	-0.108165	0.783703	-0.068655
O3	O	0.008250	0.900116	-0.068638
O4	O	-0.212128	0.887669	-0.068646
O5	O	0.008257	0.900100	0.068855
O6	O	-0.108158	0.783687	0.068838
O7	O	-0.095705	1.004065	0.068865
Cu8	Cu	-0.101931	0.893875	0.081405
Cu9	Cu	-0.101940	0.893894	-0.081196
O10	O	-0.212120	0.887653	0.068847
C11	C	-0.107715	0.755498	0.000088
C12	C	-0.106377	0.671480	0.000077
C13	C	0.036450	0.899661	0.000107
C14	C	0.120468	0.898320	0.000104
C15	C	-0.174710	0.622861	0.000075
C16	C	-0.173448	0.543918	0.000086
C17	C	-0.103851	0.513595	0.000093
C18	C	-0.035513	0.562220	0.000098
C19	C	-0.036776	0.641162	0.000093
C20	C	-0.030418	0.243857	0.000118
C21	C	-0.029160	0.164909	0.000121
C22	C	-0.167089	0.146613	0.000112
C23	C	-0.168352	0.225555	0.000107
C24	C	-0.100014	0.274173	0.000116
C25	C	-0.101384	0.359772	0.000106
C26	C	-0.102481	0.427997	0.000097
C27	C	0.159932	0.897700	-0.074844
C28	C	0.238875	0.896436	-0.074844
C29	C	0.278353	0.895796	0.000105
C30	C	0.238884	0.896413	0.075058
C31	C	0.159942	0.897672	0.075058
C32	C	0.557249	0.891333	0.075062
C33	C	0.636197	0.890076	0.075057
C34	C	0.636182	0.890097	-0.074840
C35	C	0.557240	0.891356	-0.074840
C36	C	0.517777	0.891969	0.000113
C37	C	0.432178	0.893339	0.000113
C38	C	0.363952	0.894431	0.000106
C39	C	0.759679	0.888109	0.000103
C40	C	0.675662	0.889451	0.000108
C41	C	-0.096155	1.032270	0.000120
C42	C	-0.097494	1.116288	0.000124
N43	N	-0.101924	0.893867	0.195771
N44	N	-0.101940	0.893908	-0.195561
C45	C	-0.050397	0.945430	0.239042
C46	C	-0.050396	0.945434	0.325590
C47	C	-0.101927	0.893878	0.368863
C48	C	-0.153457	0.842309	0.325585
C49	C	-0.153453	0.842303	0.239040
C50	C	-0.153471	0.842335	0.674614
C51	C	-0.153472	0.842348	0.761165
C52	C	-0.050414	0.945467	0.761163
C53	C	-0.050410	0.945460	0.674618
C54	C	-0.101937	0.893889	0.631347
C55	C	-0.101936	0.893885	0.537503
C56	C	-0.101932	0.893885	0.462706
H57	H	-0.231383	0.647543	0.000069
O58	O	0.121549	0.898140	0.147839
C59	C	0.067185	0.833351	0.152297
H60	H	0.084903	0.787183	0.109759
H61	H	0.063371	0.811360	0.218582
H62	H	0.009320	0.849121	0.132157
H63	H	-0.008455	0.987456	0.796403
H64	H	0.127794	0.898225	-0.135876
H65	H	0.018868	0.680748	0.000094
H66	H	0.027517	0.140224	0.000127
H67	H	0.525130	0.891848	0.136094
O68	O	-0.233426	0.099306	0.000001
C69	C	-0.236833	0.053105	-0.071214
H70	H	-0.176766	0.049219	-0.094947
H71	H	-0.265136	-0.006279	-0.055197
H72	H	-0.271352	0.079012	-0.121084
O73	O	0.277110	0.895760	0.147938
C74	C	0.225350	0.896595	0.214090
H75	H	0.165899	0.873541	0.192114
H76	H	0.243292	0.859495	0.266505
H77	H	0.225005	0.957422	0.237143
O78	O	0.277101	0.895902	-0.147723
C79	C	0.225329	0.896740	-0.213874
H80	H	0.172225	0.921560	-0.191881
H81	H	0.253000	0.933149	-0.266265
H82	H	0.208897	0.836191	-0.236966
O83	O	-0.000266	0.995541	0.197138
C84	C	0.045201	1.041064	0.253894
H85	H	0.046014	1.010040	0.315590
H86	H	0.105662	1.052721	0.228898
H87	H	0.020696	1.097241	0.263088
H88	H	0.525100	0.891881	-0.135871
O89	O	-0.000269	0.995423	0.367656
C90	C	0.046370	0.954993	0.417744
H91	H	0.047579	0.895307	0.391675
H92	H	0.106565	0.985990	0.418724
H93	H	0.022681	0.950990	0.483335
H94	H	-0.008451	0.987444	0.639387
H95	H	0.021154	0.537526	0.000115
H96	H	0.668322	0.889594	-0.135870
O97	O	-0.239896	0.496797	0.000046
C98	C	-0.301594	0.540489	0.000055
H99	H	-0.282275	0.599441	-0.025981
H100	H	-0.349465	0.511277	-0.039864
H101	H	-0.322933	0.546077	0.066015
O102	O	-0.203556	0.792185	0.803075
C103	C	-0.249046	0.746676	0.746326
H104	H	-0.218016	0.745874	0.684637
H105	H	-0.260660	0.686217	0.771343
H106	H	-0.305245	0.771135	0.737110
H107	H	-0.195427	0.800346	0.639390
O108	O	0.674602	0.889576	0.147844
C109	C	0.728972	0.954358	0.152337
H110	H	0.711251	1.000551	0.109827
H111	H	0.732799	0.976315	0.218635
H112	H	0.786832	0.938594	0.132185
O113	O	-0.236007	0.254915	-0.000012
C114	C	-0.277649	0.230068	-0.071232
H115	H	-0.257119	0.175354	-0.094968
H116	H	-0.340696	0.218992	-0.055219
H117	H	-0.268804	0.275764	-0.121097
H118	H	-0.195412	0.800328	0.360824
H119	H	-0.195411	0.800314	0.203809
H120	H	0.025227	0.283433	0.000126
