data_functionalizedCrystal
_audit_creation_method	'MofGen! by Chris Wilmer'
_symmetry_space_group_name_H-M	'P1'
_symmetry_Int_Tables_number	1
_symmetry_cell_setting	triclinic
loop_
_symmetry_equiv_pos_as_xyz
  x,y,z
_cell_length_a	10.686220
_cell_length_b	10.686285
_cell_length_c	17.077395
_cell_angle_alpha	85.609671
_cell_angle_beta	94.355034
_cell_angle_gamma	90.345430
loop_
_atom_site_label
_atom_site_type_symbol
_atom_site_fract_x
_atom_site_fract_y
_atom_site_fract_z
Zn1	Zn	1.956121	-0.352099	-0.333847
Zn2	Zn	1.972138	-0.561884	-0.191834
Zn3	Zn	1.746368	-0.368250	-0.211824
Zn4	Zn	1.762446	-0.577920	-0.332289
O5	O	1.859268	-0.465038	-0.267449
O6	O	2.133784	-0.366457	-0.307295
O7	O	1.942164	-0.536246	-0.084637
O8	O	1.760760	-0.190565	-0.237030
O9	O	2.145552	-0.520585	-0.202958
O10	O	1.914864	-0.178698	-0.326679
O11	O	1.776291	-0.393984	-0.099325
O12	O	1.572962	-0.409534	-0.235518
O13	O	1.788163	-0.547917	-0.442344
O14	O	1.584774	-0.563578	-0.324023
O15	O	1.930455	-0.382007	-0.443489
O16	O	1.957754	-0.739554	-0.201447
O17	O	1.803694	-0.751336	-0.304639
C18	C	1.884241	-0.790959	-0.250720
C19	C	1.895039	-0.930381	-0.243584
C20	C	1.533353	-0.490050	-0.281771
C21	C	1.393927	-0.500780	-0.287915
C22	C	2.186456	-0.439930	-0.253070
C23	C	2.325884	-0.429230	-0.246943
C24	C	1.859315	-0.464949	-0.472195
C25	C	1.859336	-0.464911	-0.559446
C26	C	1.834232	-0.137842	-0.284258
C27	C	1.823563	0.001589	-0.291422
C28	C	1.933553	-0.378341	-0.935860
C29	C	1.933531	-0.378387	-0.853879
C30	C	1.859430	-0.464784	-0.812296
C31	C	1.785356	-0.551150	-0.852699
C32	C	1.785386	-0.551109	-0.934678
C33	C	1.785297	-0.551228	-0.681828
C34	C	1.785265	-0.551268	-0.599843
C35	C	1.933441	-0.378505	-0.601028
C36	C	1.933471	-0.378464	-0.683008
C37	C	1.859395	-0.464829	-0.723405
C38	C	1.859286	-0.465031	-0.063500
C39	C	1.859482	-0.464697	0.023743
H40	H	1.964485	-0.978799	-0.197164
H41	H	1.754104	-0.949988	-0.337840
H42	H	1.345511	-0.570258	-0.327692
H43	H	1.993805	-0.308107	-0.716863
H44	H	1.993886	-0.307978	-0.969712
H45	H	1.374295	-0.359766	-0.207164
C46	C	2.015003	-0.283377	-0.809447
N47	N	2.076368	-0.211808	-0.775982
C48	C	2.014934	-0.283510	-0.556589
N49	N	2.076311	-0.211961	-0.523114
C50	C	1.703769	-0.646326	-0.554102
N51	N	1.642392	-0.717931	-0.519649
C52	C	1.703806	-0.646231	-0.726263
N53	N	1.642422	-0.717781	-0.759732
C54	C	1.703899	-0.646105	-0.979115
N55	N	1.642522	-0.717662	-1.012583
H56	H	1.725028	-0.621502	-0.818835
