data_functionalizedCrystal
_audit_creation_method	'MofGen! by Chris Wilmer'
_symmetry_space_group_name_H-M	'P1'
_symmetry_Int_Tables_number	1
_symmetry_cell_setting	triclinic
loop_
_symmetry_equiv_pos_as_xyz
  x,y,z
_cell_length_a	6.817900
_cell_length_b	11.102285
_cell_length_c	14.858572
_cell_angle_alpha	93.469105
_cell_angle_beta	104.524003
_cell_angle_gamma	108.605686
loop_
_atom_site_label
_atom_site_type_symbol
_atom_site_fract_x
_atom_site_fract_y
_atom_site_fract_z
V1	V	-4.064550	-0.176640	-0.289965
O2	O	-4.024474	0.007665	-0.284440
O3	O	-4.041652	-0.349456	-0.287986
O4	O	-4.020841	-0.174284	-0.416426
O5	O	-4.045429	-0.168719	-0.155111
V6	V	-4.544266	-0.154552	-0.273835
O7	O	-4.334160	-0.225091	-0.325348
O8	O	-4.724854	-0.106101	-0.238452
O9	O	-4.343958	0.018264	-0.275813
O10	O	-4.701739	-0.338857	-0.279359
O11	O	-4.680784	-0.162473	-0.408688
O12	O	-4.364770	-0.156908	-0.147373
C13	C	-3.892704	-0.391573	-0.283413
C14	C	-3.955300	-0.532855	-0.282638
C15	C	-4.031079	-0.617617	-0.367437
C16	C	-4.089868	-0.750363	-0.366700
C17	C	-3.997099	-0.713572	-0.196360
C18	C	-3.938297	-0.580828	-0.197097
C19	C	-4.108162	-0.949706	-0.465031
C20	C	-4.183980	-1.034475	-0.549835
C21	C	-4.323655	-1.011804	-0.628252
C22	C	-4.387564	-0.904369	-0.621871
C23	C	-4.311767	-0.819607	-0.537066
C24	C	-4.172046	-0.842275	-0.458651
C25	C	-3.920022	-0.381485	-0.098772
C26	C	-3.844237	-0.296721	-0.013967
C27	C	-3.704569	-0.319388	0.064458
C28	C	-3.640687	-0.426827	0.058085
C29	C	-3.716471	-0.511590	-0.026720
C30	C	-3.856132	-0.488914	-0.105145
C31	C	-3.866156	-0.168123	-0.447250
C32	C	-3.911871	-0.167340	-0.550633
C33	C	-4.079188	-0.164479	-0.929201
C34	C	-4.032627	-0.165275	-0.823872
C35	C	-3.995531	-0.165911	-0.739921
C36	C	-3.948967	-0.166704	-0.634584
C37	C	-4.156248	0.060374	-0.280384
C38	C	-4.072891	0.201655	-0.281165
C39	C	-4.182796	-0.163074	-0.116545
C40	C	-4.116319	-0.163850	-0.013161
H41	H	-4.501326	-0.885930	-0.685725
H42	H	-4.385385	-1.080831	-0.697301
H43	H	-3.983269	-0.752649	-0.126715
H44	H	-4.044938	-0.578562	-0.437090
H45	H	-3.896278	-0.209245	-0.008780
H46	H	-4.131929	-1.121947	-0.555024
H47	H	-3.526962	-0.445285	0.121946
H48	H	-3.664441	-0.599071	-0.031905
H49	H	-3.994405	-0.968167	-0.401186
H50	H	-4.033745	-0.363015	-0.162631
C51	C	-4.382035	-0.701428	-0.530040
C52	C	-4.535689	-0.676486	-0.616296
C53	C	-4.605946	-0.558300	-0.609274
C54	C	-4.522549	-0.465056	-0.515997
C55	C	-4.368886	-0.489996	-0.429734
C56	C	-4.298628	-0.608182	-0.436755
H57	H	-4.597433	-0.745513	-0.685351
H58	H	-4.719699	-0.539838	-0.673132
H59	H	-4.574558	-0.377567	-0.510799
H60	H	-4.307142	-0.420969	-0.360678
H61	H	-4.184876	-0.626644	-0.372897
H62	H	-3.642884	-0.250366	0.133512
