data_functionalizedCrystal
_audit_creation_method	'MofGen! by Chris Wilmer'
_symmetry_space_group_name_H-M	'P1'
_symmetry_Int_Tables_number	1
_symmetry_cell_setting	triclinic
loop_
_symmetry_equiv_pos_as_xyz
  x,y,z
_cell_length_a	14.908183
_cell_length_b	21.295418
_cell_length_c	14.908308
_cell_angle_alpha	86.746315
_cell_angle_beta	89.779152
_cell_angle_gamma	86.668613
loop_
_atom_site_label
_atom_site_type_symbol
_atom_site_fract_x
_atom_site_fract_y
_atom_site_fract_z
Zn1	Zn	-0.386929	-0.927129	-0.488292
Zn2	Zn	0.113071	-0.427129	0.011708
Zn3	Zn	-0.528639	-0.927763	-0.329256
Zn4	Zn	-0.028639	-0.427763	0.170744
Zn5	Zn	-0.378330	-0.828266	-0.337890
Zn6	Zn	0.121670	-0.328266	0.162110
Zn7	Zn	-0.537302	-0.816143	-0.479498
Zn8	Zn	-0.037302	-0.316143	0.020502
O9	O	-0.457800	-0.874825	-0.408734
O10	O	0.042200	-0.374825	0.091266
O11	O	-0.405701	-1.015300	-0.467263
O12	O	0.094299	-0.515300	0.032737
O13	O	-0.501476	-0.919903	-0.204580
O14	O	-0.001476	-0.419903	0.295420
O15	O	-0.253635	-0.846188	-0.365135
O16	O	0.246365	-0.346188	0.134865
O17	O	-0.509814	-1.015766	-0.350419
O18	O	-0.009814	-0.515766	0.149581
O19	O	-0.259952	-0.918822	-0.475635
O20	O	0.240048	-0.418822	0.024365
O21	O	-0.391045	-0.846803	-0.210923
O22	O	0.108955	-0.346803	0.289077
O23	O	-0.399445	-0.738570	-0.356608
O24	O	0.100555	-0.238570	0.143392
O25	O	-0.524579	-0.825526	-0.606486
O26	O	-0.024579	-0.325526	-0.106486
O27	O	-0.516240	-0.729663	-0.460647
O28	O	-0.016240	-0.229663	0.039353
O29	O	-0.414101	-0.907067	-0.612947
O30	O	0.085899	-0.407067	-0.112947
O31	O	-0.655624	-0.908148	-0.341892
O32	O	-0.155624	-0.408148	0.158108
O33	O	-0.661988	-0.826141	-0.452275
O34	O	-0.161988	-0.326141	0.047725
C35	C	-0.457850	-0.711276	-0.408610
C36	C	0.042150	-0.211276	0.091390
C37	C	-0.457894	-0.641308	-0.408578
C38	C	0.042106	-0.141308	0.091422
C39	C	-0.518783	-0.603821	-0.462657
C40	C	-0.018783	-0.103821	0.037343
C41	C	-0.518767	-0.538077	-0.462692
C42	C	-0.018767	-0.038077	0.037308
C43	C	-0.457870	-0.509824	-0.408630
C44	C	0.042130	-0.009824	0.091370
C45	C	-0.396970	-0.547319	-0.354548
C46	C	0.103030	-0.047319	0.145452
C47	C	-0.396982	-0.613061	-0.354521
C48	C	0.103018	-0.113061	0.145479
N49	N	-0.446316	-0.410169	-0.330385
N50	N	0.053684	0.089831	0.169615
N51	N	-0.446310	-0.347716	-0.330412
N52	N	0.053690	0.152284	0.169588
C53	C	-0.457829	-0.311748	-0.408708
C54	C	0.042171	0.188252	0.091292
N55	N	-0.469372	-0.340590	-0.486976
N56	N	0.030628	0.159410	0.013024
N57	N	-0.469383	-0.403048	-0.486947
N58	N	0.030617	0.096952	0.013053
C59	C	-0.457850	-0.438538	-0.408653
C60	C	0.042150	0.061462	0.091347
C61	C	-0.518703	-0.202974	-0.462830
C62	C	-0.018703	0.297026	0.037170
C63	C	-0.518681	-0.137230	-0.462866
C64	C	-0.018681	0.362770	0.037134
C65	C	-0.396889	-0.146473	-0.354714
C66	C	0.103111	0.353527	0.145286
C67	C	-0.396907	-0.212216	-0.354686
C68	C	0.103093	0.287784	0.145314
C69	C	-0.457819	-0.240463	-0.408742
C70	C	0.042181	0.259537	0.091258
C71	C	-0.691435	-0.865914	-0.395212
C72	C	-0.191435	-0.365914	0.104788
C73	C	-0.791387	-0.862158	-0.389457
C74	C	-0.291387	-0.362158	0.110543
C75	C	-0.929048	-0.819083	-0.323767
C76	C	-0.429048	-0.319083	0.176233
C77	C	-0.835134	-0.822610	-0.329172
C78	C	-0.335134	-0.322610	0.170828
C79	C	-0.841561	-0.898182	-0.444342
C80	C	-0.341561	-0.398182	0.055658
C81	C	-0.935475	-0.894655	-0.438937
C82	C	-0.435475	-0.394655	0.061063
C83	C	-0.979215	-0.855105	-0.378646
C84	C	-0.479215	-0.355105	0.121354
C85	C	-1.073130	-0.851583	-0.373237
C86	C	-0.573130	-0.351583	0.126763
C87	C	-1.079555	-0.927150	-0.488411
C88	C	-0.579555	-0.427150	0.011589
C89	C	-0.985641	-0.930677	-0.493816
C90	C	-0.485641	-0.430677	0.006184
C91	C	-0.223253	-0.883787	-0.422329
C92	C	0.276747	-0.383787	0.077671
C93	C	-0.123304	-0.887606	-0.428122
C94	C	0.376696	-0.387606	0.071878
C95	C	-0.471265	-0.864874	-0.643253
C96	C	0.028735	-0.364874	-0.143253
C97	C	-0.477003	-0.860633	-0.743190
C98	C	0.022997	-0.360633	-0.243190
C99	C	-0.457764	-0.039013	-0.408832
C100	C	0.042236	0.460987	0.091168
C101	C	-0.457783	-0.108981	-0.408805
C102	C	0.042217	0.391019	0.091195
C103	C	-0.372724	-0.937572	-0.937715
C104	C	0.127276	-0.437572	-0.437715
C105	C	-0.378112	-0.933590	-1.031616
C106	C	0.121888	-0.433590	-0.531616
C107	C	-0.493163	-0.848684	-1.024895
C108	C	0.006837	-0.348684	-0.524895
C109	C	-0.487775	-0.852666	-0.930994
C110	C	0.012225	-0.352666	-0.430994
C111	C	-0.427554	-0.897112	-0.887407
C112	C	0.072446	-0.397112	-0.387407
C113	C	-0.422171	-0.901097	-0.793505
C114	C	0.077829	-0.401097	-0.293505
C115	C	-0.537216	-0.816189	-0.786786
C116	C	-0.037216	-0.316189	-0.286786
C117	C	-0.542605	-0.812206	-0.880686
C118	C	-0.042605	-0.312206	-0.380686
C119	C	-0.444322	-0.884776	-0.175132
C120	C	0.055678	-0.384776	0.324868
C121	C	-0.438331	-0.889148	-0.075209
C122	C	0.061669	-0.389148	0.424791
H123	H	-0.347397	-0.643584	-0.310483
H124	H	0.152603	-0.143584	0.189517
N125	N	-0.940972	-0.971084	-0.555393
N126	N	-0.440972	-0.471084	-0.055393
N127	N	-0.985778	-1.003247	-0.604382
N128	N	-0.485778	-0.503247	-0.104382
H129	H	-0.954232	-1.031788	-0.647871
H130	H	-0.454232	-0.531788	-0.147871
H131	H	-0.568381	-0.626814	-0.506675
H132	H	-0.068381	-0.126814	-0.006675
H133	H	-0.347329	-0.242739	-0.310643
H134	H	0.152671	0.257261	0.189357
H135	H	-1.108741	-0.819380	-0.324144
H136	H	-0.608741	-0.319380	0.175856
H137	H	-0.805936	-0.930377	-0.493435
H138	H	-0.305936	-0.430377	0.006565
H139	H	-1.120411	-0.956484	-0.533095
H140	H	-0.620411	-0.456484	-0.033095
H141	H	-0.568297	-0.225973	-0.506850
H142	H	-0.068297	0.274027	-0.006850
N143	N	-0.311216	-0.982964	-0.893173
N144	N	0.188784	-0.482964	-0.393173
N145	N	-0.306412	-0.986512	-0.809333
N146	N	0.193588	-0.486512	-0.309333
H147	H	-0.262971	-1.018571	-0.777874
H148	H	0.237029	-0.518571	-0.277874
N149	N	-0.360646	-0.946493	-0.748995
N150	N	0.139354	-0.446493	-0.248995
N151	N	-0.278275	-0.945035	-0.764290
N152	N	0.221725	-0.445035	-0.264290
H153	H	-0.234817	-0.977096	-0.732858
H154	H	0.265183	-0.477096	-0.232858
H155	H	-0.333462	-0.966535	-1.072573
H156	H	0.166538	-0.466535	-0.572573
N157	N	-0.554656	-0.803284	-1.069441
N158	N	-0.054656	-0.303284	-0.569441
N159	N	-0.559448	-0.799732	-1.153281
N160	N	-0.059448	-0.299732	-0.653281
H161	H	-0.602877	-0.767667	-1.184744
H162	H	-0.102877	-0.267667	-0.684744
N163	N	-0.593212	-0.774853	-0.735387
N164	N	-0.093212	-0.274853	-0.235387
N165	N	-0.558580	-0.738171	-0.684794
N166	N	-0.058580	-0.238171	-0.184794
H167	H	-0.598125	-0.708977	-0.648494
H168	H	-0.098125	-0.208977	-0.148494
H169	H	-0.568262	-0.106708	-0.506910
H170	H	-0.068262	0.393292	-0.006910
N171	N	-0.604096	-0.766800	-0.925223
N172	N	-0.104096	-0.266800	-0.425223
N173	N	-0.575466	-0.725676	-0.979421
N174	N	-0.075466	-0.225676	-0.479421
H175	H	-0.618893	-0.693606	-1.010877
H176	H	-0.118893	-0.193606	-0.510877
N177	N	-0.580982	-0.499785	-0.517928
N178	N	-0.080982	0.000215	-0.017928
N179	N	-0.663598	-0.504191	-0.507012
N180	N	-0.163598	-0.004191	-0.007012
H181	H	-0.707540	-0.477149	-0.546021
H182	H	-0.207540	0.022851	-0.046021
N183	N	-0.334766	-0.518452	-0.299337
N184	N	0.165234	-0.018452	0.200663
N185	N	-0.334763	-0.459754	-0.299367
N186	N	0.165237	0.040246	0.200633
H187	H	-0.290827	-0.439366	-0.260376
H188	H	0.209173	0.060634	0.239624
N189	N	-0.973717	-0.778704	-0.262155
N190	N	-0.473717	-0.278704	0.237845
N191	N	-0.928913	-0.746557	-0.213141
N192	N	-0.428913	-0.246557	0.286859
H193	H	-0.960458	-0.718043	-0.169618
H194	H	-0.460458	-0.218043	0.330382
N195	N	-0.334670	-0.117633	-0.299492
N196	N	0.165330	0.382367	0.200508
N197	N	-0.252055	-0.127918	-0.310392
N198	N	0.247945	0.372082	0.189608
H199	H	-0.208107	-0.107549	-0.271392
H200	H	0.291893	0.392451	0.228608
N201	N	-0.783903	-0.785807	-0.273113
N202	N	-0.283903	-0.285807	0.226887
N203	N	-0.822972	-0.750497	-0.219293
N204	N	-0.322972	-0.250497	0.280707
H205	H	-0.786791	-0.724501	-0.179699
H206	H	-0.286791	-0.224501	0.320301
