data_functionalizedCrystal
_audit_creation_method	'MofGen! by Chris Wilmer'
_symmetry_space_group_name_H-M	'P1'
_symmetry_Int_Tables_number	1
_symmetry_cell_setting	triclinic
loop_
_symmetry_equiv_pos_as_xyz
  x,y,z
_cell_length_a	23.532407
_cell_length_b	10.489741
_cell_length_c	9.565339
_cell_angle_alpha	90.000900
_cell_angle_beta	89.991753
_cell_angle_gamma	96.306039
loop_
_atom_site_label
_atom_site_type_symbol
_atom_site_fract_x
_atom_site_fract_y
_atom_site_fract_z
O1	O	0.080340	-1.691382	-0.116203
O2	O	0.087882	-1.319936	-0.116227
O3	O	0.001253	-1.516860	-0.116175
O4	O	0.166968	-1.494458	-0.116255
O5	O	0.001259	-1.516844	0.116345
O6	O	0.087887	-1.319920	0.116293
O7	O	0.080345	-1.691367	0.116317
Zn8	Zn	0.084117	-1.505641	0.153223
Zn9	Zn	0.084110	-1.505661	-0.153133
O10	O	0.166974	-1.494443	0.116265
C11	C	0.087315	-1.272415	0.000030
C12	C	0.085611	-1.130842	0.000023
C13	C	-0.019964	-1.516282	0.000092
C14	C	-0.083192	-1.514566	0.000113
C15	C	0.080912	-1.738887	0.000057
C16	C	0.082616	-1.880460	0.000055
C17	C	-0.350179	-1.390958	0.000018
C18	C	-0.290768	-1.392551	0.000029
O19	O	-0.254673	-1.294494	-0.000022
N20	N	-0.267366	-1.509622	0.000052
C21	C	-0.303378	-1.625108	0.000051
O22	O	-0.278018	-1.724833	0.000071
C23	C	-0.362788	-1.623513	0.000030
C24	C	-0.386186	-1.506434	0.000021
C25	C	-0.373578	-1.273888	0.000006
C26	C	-0.432985	-1.272296	-0.000002
C27	C	-0.468992	-1.387772	0.000001
C28	C	-0.445593	-1.504842	0.000012
C29	C	-0.398799	-1.738998	0.000019
C30	C	-0.458212	-1.737393	-0.000003
C31	C	-0.481611	-1.620314	-0.000013
C32	C	-0.541007	-1.618726	0.000007
N33	N	-0.564409	-1.501654	-0.000017
C34	C	-0.528402	-1.386178	-0.000020
C35	C	-0.178613	-1.628448	0.000092
C36	C	-0.119205	-1.630044	0.000123
C37	C	-0.106599	-1.397486	0.000098
C38	C	-0.166009	-1.395892	0.000077
C39	C	-0.202016	-1.511376	0.000069
C40	C	-0.653161	-1.382842	-0.000036
C41	C	-0.712573	-1.381259	-0.000038
C42	C	-0.725174	-1.613816	-0.000021
C43	C	-0.665767	-1.615399	-0.000011
C44	C	-0.629761	-1.499902	-0.000023
O45	O	-0.577137	-1.716732	0.000052
O46	O	-0.553771	-1.286470	-0.000058
C47	C	0.188191	-1.495021	-0.000005
C48	C	0.251419	-1.496736	-0.000035
N49	N	0.084122	-1.505636	0.362302
C50	C	0.030491	-1.064535	0.000062
C51	C	0.056527	-0.971550	-0.114592
C52	C	0.056545	-0.971568	0.114655
C53	C	0.111668	-1.039722	-0.114726
C54	C	0.111679	-1.039750	0.114623
C55	C	0.137754	-0.946792	-0.000059
N56	N	0.084101	-1.505676	-0.362212
C57	C	0.124171	-1.414538	0.453481
C58	C	0.135693	-1.529652	0.546661
C59	C	0.072603	-1.390572	0.546677
C60	C	0.095670	-1.620808	0.453430
C61	C	0.032557	-1.481652	0.453438
C62	C	0.044059	-1.596850	0.546576
H63	H	-0.623851	-1.288792	-0.000046
H64	H	-0.077270	-1.303459	0.000097
N65	N	-0.336811	-1.155909	-0.000005
N66	N	-0.357722	-1.051402	-0.000020
H67	H	-0.331759	-0.968070	-0.000020
H68	H	0.179291	-1.549965	0.587609
H69	H	-0.011026	-1.461303	0.412458
H70	H	-0.100160	-1.725381	0.000153
H71	H	-0.646715	-1.710734	0.000017
H72	H	-0.379759	-1.834336	0.000026
N73	N	0.107941	-1.742925	0.402253
N74	N	0.109949	-1.762601	0.273554
H75	H	0.118616	-1.848844	0.237406
N76	N	0.001559	-1.693626	0.597522
N77	N	0.004355	-1.808709	0.567338
H78	H	-0.025659	-1.877062	0.603319
H79	H	0.033202	-0.941317	-0.211503
N80	N	-0.494983	-1.855374	-0.000020
N81	N	-0.474079	-1.959889	-0.000013
H82	H	-0.500047	-2.043214	-0.000023
N83	N	0.060401	-1.268477	0.598068
N84	N	0.092783	-1.169688	0.568240
H85	H	0.084171	-1.083455	0.604535
N86	N	-0.761969	-1.731756	-0.000009
N87	N	-0.815011	-1.730302	-0.000023
H88	H	-0.841000	-1.813597	-0.000022
H89	H	0.158071	-1.337569	0.412606
N90	N	0.194646	-0.882842	-0.000160
N91	N	0.211181	-0.809614	0.098277
H92	H	0.251359	-0.764436	0.098196
H93	H	-0.452030	-1.176958	-0.000022
H94	H	-0.185055	-1.300556	0.000075
N95	N	-0.736464	-1.261649	-0.000036
N96	N	-0.704303	-1.158556	-0.000039
H97	H	-0.721173	-1.074083	-0.000037
N98	N	-0.215384	-1.746433	0.000091
N99	N	-0.194476	-1.850945	0.000112
H100	H	-0.220441	-1.934273	0.000109
H101	H	-0.014820	-1.115731	-0.000059
H102	H	0.134984	-1.070015	0.211540
N103	N	0.140912	-1.077437	-0.236441
N104	N	0.146929	-1.192992	-0.256113
H105	H	0.167586	-1.219632	-0.342067
H106	H	0.033215	-0.941359	0.211587
