data_functionalizedCrystal
_audit_creation_method	'MofGen! by Chris Wilmer'
_symmetry_space_group_name_H-M	'P1'
_symmetry_Int_Tables_number	1
_symmetry_cell_setting	triclinic
loop_
_symmetry_equiv_pos_as_xyz
  x,y,z
_cell_length_a	15.944499
_cell_length_b	15.944551
_cell_length_c	17.766277
_cell_angle_alpha	90.006164
_cell_angle_beta	90.011991
_cell_angle_gamma	83.488174
loop_
_atom_site_label
_atom_site_type_symbol
_atom_site_fract_x
_atom_site_fract_y
_atom_site_fract_z
O1	O	1.114557	0.108125	0.062641
O2	O	0.870002	0.121527	0.062633
O3	O	0.998958	-0.007450	0.062630
O4	O	0.985601	0.237102	0.062643
O5	O	0.998935	-0.007454	-0.062558
O6	O	0.869979	0.121523	-0.062556
O7	O	1.114534	0.108121	-0.062548
Cu8	Cu	0.992254	0.114822	-0.073982
Cu9	Cu	0.992282	0.114826	0.074068
O10	O	0.985578	0.237098	-0.062545
C11	C	0.838695	0.120976	0.000037
C12	C	0.745447	0.119331	0.000034
C13	C	0.453911	0.194263	0.000049
C14	C	0.514952	0.155314	0.061773
C15	C	0.409810	0.113355	0.000051
C16	C	0.514915	0.155288	-0.061653
C17	C	0.574719	0.116296	0.000041
C18	C	0.469623	0.074383	0.061826
C19	C	0.469580	0.074369	-0.061656
C20	C	0.530603	0.035360	0.000083
C21	C	0.314810	0.111663	0.000057
C22	C	0.669718	0.117981	0.000041
C23	C	0.998392	-0.038746	0.000036
C24	C	0.996729	-0.131992	0.000035
C25	C	0.912823	-0.346833	0.000043
C26	C	0.951775	-0.407859	-0.061681
C27	C	0.993722	-0.302717	0.000041
C28	C	0.951817	-0.407839	0.061745
C29	C	0.990811	-0.467629	0.000050
C30	C	1.032696	-0.362515	-0.061734
C31	C	1.032727	-0.362488	0.061747
C32	C	1.071737	-0.423497	0.000008
C33	C	0.995397	-0.207715	0.000035
C34	C	0.989143	-0.562630	0.000050
C35	C	1.145840	0.108672	0.000049
C36	C	1.239089	0.110317	0.000058
C37	C	0.986144	0.268394	0.000051
C38	C	0.987806	0.361640	0.000056
N39	N	0.992241	0.114818	-0.178113
C40	C	1.043180	0.165790	-0.217489
C41	C	1.043193	0.165788	-0.296290
C42	C	0.992252	0.114823	-0.335713
C43	C	0.941310	0.063841	-0.296328
C44	C	0.941305	0.063838	-0.217528
C45	C	0.916526	0.112471	-0.460575
C46	C	0.916530	0.112480	-0.539374
C47	C	0.992269	0.114826	-0.578760
C48	C	1.068007	0.117181	-0.539336
C49	C	1.068001	0.117178	-0.460536
C50	C	0.992253	0.114820	-0.421159
C51	C	1.043227	0.165798	-0.703581
C52	C	1.043242	0.165789	-0.782385
C53	C	0.941351	0.063848	-0.782421
C54	C	0.941344	0.063851	-0.703619
C55	C	0.992280	0.114831	-0.664204
N56	N	0.992301	0.114823	0.178198
H57	H	0.535059	0.189539	0.113956
H58	H	1.138946	-0.456668	-0.000024
O59	O	0.538968	0.196006	-0.123929
C60	C	0.621973	0.186603	-0.237572
C61	C	0.594823	0.140389	-0.167073
H62	H	0.667122	0.141652	-0.272481
H63	H	0.654964	0.243249	-0.219807
H64	H	0.563876	0.209112	-0.272649
H65	H	0.652876	0.117825	-0.131965
H66	H	0.561802	0.083783	-0.184890
O67	O	0.445247	0.033813	-0.123929
C68	C	0.329435	-0.013344	-0.193270
C69	C	0.356998	0.032412	-0.122647
H70	H	0.258082	-0.014476	-0.192265
H71	H	0.361971	-0.080802	-0.194123
H72	H	0.347849	0.021429	-0.245737
H73	H	0.338588	-0.002290	-0.070142
H74	H	0.324468	0.099873	-0.121860
H75	H	0.563780	-0.031846	0.000112
H76	H	0.449654	0.040195	0.114067
H77	H	0.899823	0.022330	-0.185468
O78	O	0.832702	-0.307114	-0.000162
C79	C	0.699542	-0.285081	-0.065449
C80	C	0.790259	-0.330101	-0.065316
H81	H	0.665195	-0.303663	-0.118113
H82	H	0.701503	-0.213832	-0.064960
H83	H	0.664749	-0.304465	-0.013337
H84	H	0.825105	-0.310785	-0.117420
H85	H	0.788237	-0.401341	-0.065767
O86	O	0.842986	0.110302	-0.422234
C87	C	0.744586	0.180291	-0.333307
C88	C	0.827887	0.182850	-0.376669
H89	H	0.732343	0.238947	-0.296469
H90	H	0.749237	0.121482	-0.296373
H91	H	0.690474	0.178574	-0.375028
H92	H	0.882042	0.184599	-0.335003
H93	H	0.823164	0.241652	-0.413615
O94	O	0.911002	-0.431998	-0.123913
C95	C	0.864356	-0.547592	-0.193906
C96	C	0.910575	-0.520378	-0.123412
H97	H	0.863980	-0.619046	-0.193517
H98	H	0.898181	-0.528126	-0.246535
H99	H	0.796632	-0.515735	-0.193829
H100	H	0.978301	-0.552221	-0.123416
H101	H	0.876685	-0.539829	-0.070815
H102	H	1.066875	-0.342533	-0.113974
H103	H	1.066924	-0.342363	0.113935
H104	H	0.917599	-0.427908	0.113931
O105	O	0.891722	0.014442	-0.665404
C106	C	0.750353	-0.018451	-0.641385
C107	C	0.806453	0.037580	-0.684692
H108	H	0.681403	0.000224	-0.656975
H109	H	0.759017	-0.009696	-0.578283
H110	H	0.769121	-0.087412	-0.656875
H111	H	0.787720	0.106562	-0.669265
H112	H	0.797782	0.028753	-0.747784
H113	H	1.084660	0.207298	-0.185402
O114	O	0.414236	0.274402	0.000023
C115	C	0.393201	0.408126	-0.064393
C116	C	0.438203	0.317403	-0.064453
H117	H	0.412547	0.442913	-0.116525
H118	H	0.411718	0.442529	-0.011739
H119	H	0.321964	0.406079	-0.064894
H120	H	0.509447	0.319372	-0.063979
H121	H	0.419617	0.283036	-0.117103
H122	H	1.084674	0.207297	-0.328357
O123	O	1.141647	0.119422	-0.422357
C124	C	1.291888	0.124125	-0.430625
C125	C	1.208546	0.121570	-0.473956
H126	H	1.345995	0.125880	-0.472324
H127	H	1.304177	0.065499	-0.393759
H128	H	1.287176	0.182953	-0.393704
H129	H	1.213196	0.062780	-0.510919
H130	H	1.196287	0.180236	-0.510774
O131	O	0.842891	0.110168	-0.577550
C132	C	0.692636	0.105577	-0.569269
C133	C	0.775977	0.108164	-0.525945
H134	H	0.638511	0.103974	-0.527565
H135	H	0.697239	0.046724	-0.606156
H136	H	0.680453	0.164185	-0.606168
H137	H	0.788209	0.049598	-0.489004
H138	H	0.771333	0.167055	-0.489105
O139	O	1.141589	0.119306	-0.577616
C140	C	1.239951	0.049349	-0.666591
C141	C	1.156619	0.046824	-0.623271
H142	H	1.252120	-0.009237	-0.703526
H143	H	1.294116	0.050977	-0.624911
H144	H	1.235278	0.108219	-0.703448
H145	H	1.161209	-0.012039	-0.586413
H146	H	1.102487	0.045241	-0.664992
O147	O	1.092749	0.215384	-0.820520
C148	C	1.193833	0.316469	-0.812165
C149	C	1.137792	0.260358	-0.768882
H150	H	1.230278	0.352832	-0.770435
H151	H	1.152560	0.362893	-0.849044
H152	H	1.240196	0.275170	-0.849069
H153	H	1.091421	0.301589	-0.731937
H154	H	1.179118	0.213929	-0.732051
O155	O	1.092586	0.215404	-0.665254
C156	C	1.097436	0.328788	-0.576236
C157	C	1.041437	0.272682	-0.619606
H158	H	1.056107	0.375099	-0.539308
H159	H	1.133837	0.365277	-0.617884
H160	H	1.143837	0.287475	-0.539369
H161	H	0.994989	0.313933	-0.656474
H162	H	1.005096	0.236187	-0.577918
H163	H	0.899875	0.022350	-0.814518
H164	H	0.899834	0.022344	-0.328431
