data_functionalizedCrystal
_audit_creation_method	'MofGen! by Chris Wilmer'
_symmetry_space_group_name_H-M	'P1'
_symmetry_Int_Tables_number	1
_symmetry_cell_setting	triclinic
loop_
_symmetry_equiv_pos_as_xyz
  x,y,z
_cell_length_a	14.908571
_cell_length_b	16.625546
_cell_length_c	14.909241
_cell_angle_alpha	86.671627
_cell_angle_beta	83.210755
_cell_angle_gamma	86.718495
loop_
_atom_site_label
_atom_site_type_symbol
_atom_site_fract_x
_atom_site_fract_y
_atom_site_fract_z
Zn1	Zn	1.413346	-0.363476	-0.591501
Zn2	Zn	1.404503	-0.505675	-0.440124
Zn3	Zn	1.253243	-0.363496	-0.431432
Zn4	Zn	1.261940	-0.490903	-0.582727
O5	O	1.333258	-0.430888	-0.511446
O6	O	1.538840	-0.388514	-0.578730
O7	O	1.377096	-0.493006	-0.312302
O8	O	1.274542	-0.250662	-0.452700
O9	O	1.532343	-0.492987	-0.467514
O10	O	1.392169	-0.250648	-0.570302
O11	O	1.265966	-0.388547	-0.305916
O12	O	1.127729	-0.374223	-0.444192
O13	O	1.289366	-0.467809	-0.710560
O14	O	1.134120	-0.467828	-0.555348
O15	O	1.400603	-0.374189	-0.717006
O16	O	1.385530	-0.616547	-0.459006
O17	O	1.280790	-0.605694	-0.563776
C18	C	1.098081	-0.419425	-0.497875
C19	C	0.997473	-0.414540	-0.492091
C20	C	1.333170	-0.640376	-0.511403
C21	C	1.333217	-0.729999	-0.511420
C22	C	0.815112	-0.502998	-0.596813
C23	C	0.720582	-0.498410	-0.591381
C24	C	0.713880	-0.400772	-0.475801
C25	C	0.808411	-0.405360	-0.481233
C26	C	0.859023	-0.456476	-0.541740
C27	C	0.953555	-0.461067	-0.547166
C28	C	0.946852	-0.363425	-0.431592
C29	C	0.852322	-0.358837	-0.426160
C30	C	1.333380	-1.058178	-0.511524
C31	C	1.333332	-0.966868	-0.511497
C32	C	1.333298	-0.894091	-0.511471
C33	C	1.333251	-0.802776	-0.511446
C34	C	1.569353	-0.442396	-0.525071
C35	C	1.669963	-0.447300	-0.530877
C36	C	1.346941	-0.419349	-0.747545
C37	C	1.352772	-0.414432	-0.848157
C38	C	1.333372	-0.220581	-0.511510
C39	C	1.333421	-0.130961	-0.511538
C40	C	1.247900	-0.502697	-1.030505
C41	C	1.253376	-0.498080	-1.125038
C42	C	1.369203	-0.400584	-1.131758
C43	C	1.363728	-0.405202	-1.037225
C44	C	1.303073	-0.456259	-0.986602
C45	C	1.297593	-0.460872	-0.892067
C46	C	1.413425	-0.363381	-0.898788
C47	C	1.418901	-0.358764	-0.993321
C48	C	1.319680	-0.442326	-0.276269
C49	C	1.314024	-0.447024	-0.175668
H50	H	0.856322	-0.544623	-0.646075
N51	N	1.197001	-0.545497	-1.169887
N52	N	1.142390	-0.511737	-1.219312
H53	H	1.102573	-0.545226	-1.250988
N54	N	1.480836	-0.306597	-1.045037
N55	N	1.474243	-0.232419	-1.034158
H56	H	1.517982	-0.195572	-1.070682
N57	N	0.662186	-0.348558	-0.413997
N58	N	0.701400	-0.307020	-0.364828
H59	H	0.664892	-0.270141	-0.321179
N60	N	1.431150	-0.348421	-1.183462
N61	N	1.480404	-0.306954	-1.144255
H62	H	1.524152	-0.270110	-1.180770
N63	N	0.800619	-0.306616	-0.364370
N64	N	0.749746	-0.251155	-0.393289
H65	H	0.713231	-0.214272	-0.349648
N66	N	1.469771	-0.315939	-0.853926
N67	N	1.464869	-0.320060	-0.769522
H68	H	1.504658	-0.286551	-0.737836
H69	H	1.248196	-0.502437	-0.850850
N70	N	1.005243	-0.513288	-0.608968
N71	N	0.966021	-0.554821	-0.658135
H72	H	1.002522	-0.591703	-0.701785
N73	N	0.991720	-0.315911	-0.375332
N74	N	1.076122	-0.320017	-0.380183
H75	H	1.107812	-0.286464	-0.340449
H76	H	1.198496	-0.544254	-0.989286
H77	H	0.684834	-0.536292	-0.636229
