data_functionalizedCrystal
_audit_creation_method	'MofGen! by Chris Wilmer'
_symmetry_space_group_name_H-M	'P1'
_symmetry_Int_Tables_number	1
_symmetry_cell_setting	triclinic
loop_
_symmetry_equiv_pos_as_xyz
  x,y,z
_cell_length_a	16.959455
_cell_length_b	16.959454
_cell_length_c	14.908308
_cell_angle_alpha	93.269679
_cell_angle_beta	93.278786
_cell_angle_gamma	90.019503
loop_
_atom_site_label
_atom_site_type_symbol
_atom_site_fract_x
_atom_site_fract_y
_atom_site_fract_z
Zn1	Zn	1.182614	-0.340470	-0.510095
Zn2	Zn	1.190157	-0.465035	-0.359247
Zn3	Zn	1.058063	-0.332874	-0.359255
Zn4	Zn	1.050409	-0.472607	-0.510058
O5	O	1.120311	-0.402747	-0.434664
O6	O	1.294225	-0.357004	-0.490097
O7	O	1.178995	-0.441156	-0.233006
O8	O	1.074631	-0.223272	-0.379283
O9	O	1.299767	-0.448522	-0.379269
O10	O	1.166139	-0.228853	-0.490104
O11	O	1.081946	-0.344057	-0.233012
O12	O	0.946437	-0.351400	-0.379247
O13	O	1.061587	-0.461427	-0.636304
O14	O	0.940814	-0.454061	-0.490041
O15	O	1.158717	-0.364347	-0.636332
O16	O	1.171573	-0.576650	-0.379233
O17	O	1.068901	-0.582213	-0.490033
C18	C	0.914946	-0.402728	-0.434641
C19	C	0.827089	-0.402741	-0.434653
C20	C	0.788702	-0.450313	-0.376868
C21	C	0.782921	-0.355174	-0.492445
C22	C	0.700375	-0.355181	-0.492456
C23	C	0.661988	-0.402754	-0.434671
C24	C	0.706148	-0.450320	-0.376876
C25	C	0.656209	-0.307610	-0.550244
C26	C	0.573657	-0.307614	-0.550256
C27	C	0.535269	-0.355192	-0.492475
C28	C	0.579434	-0.402760	-0.434678
C29	C	0.541048	-0.450333	-0.376893
C30	C	0.585212	-0.497906	-0.319100
C31	C	0.667761	-0.497897	-0.319095
C32	C	0.452720	-0.355201	-0.492481
C33	C	0.458494	-0.450340	-0.376901
C34	C	1.120246	-0.608112	-0.434648
C35	C	1.120288	-0.695970	-0.434672
C36	C	1.066923	-1.070372	-0.492351
C37	C	1.173914	-1.064523	-0.377068
C38	C	1.173887	-0.981977	-0.377060
C39	C	1.120376	-0.943624	-0.434697
C40	C	1.066893	-0.987818	-0.492342
C41	C	1.227365	-0.937777	-0.319409
C42	C	1.227339	-0.855226	-0.319398
C43	C	1.173831	-0.816872	-0.377040
C44	C	1.120346	-0.861070	-0.434688
C45	C	1.066835	-0.822717	-0.492326
C46	C	1.013353	-0.866915	-0.549979
C47	C	1.013385	-0.949463	-0.549985
C48	C	1.173799	-0.734323	-0.377035
C49	C	1.066805	-0.740163	-0.492317
C50	C	1.326478	-0.402766	-0.434686
C51	C	1.414334	-0.402774	-0.434696
C52	C	1.108457	-0.414579	-0.669966
C53	C	1.103405	-0.419621	-0.770238
C54	C	1.120397	-0.196580	-0.434699
C55	C	1.120434	-0.108724	-0.434714
C56	C	1.195052	-0.327988	-0.958690
C57	C	1.190308	-0.332723	-1.052905
C58	C	1.089170	-0.433821	-1.052884
C59	C	1.093914	-0.429087	-0.958669
C60	C	1.146857	-0.376169	-0.911576
C61	C	1.151605	-0.371438	-0.817359
C62	C	1.050463	-0.472533	-0.817340
C63	C	1.045719	-0.477268	-0.911554
C64	C	1.132165	-0.390903	-0.200276
C65	C	1.137369	-0.385638	-0.100005
H66	H	0.814180	-0.316439	-0.539487
O67	O	0.961512	-0.992369	-0.606109
C68	C	0.915280	-1.025315	-0.759519
C69	C	0.974082	-0.976691	-0.696066
H70	H	0.925411	-1.012645	-0.832262
H71	H	0.924493	-1.090915	-0.749696
H72	H	0.852358	-1.008340	-0.743563
H73	H	1.037027	-0.993598	-0.711983
H74	H	0.964800	-0.911103	-0.705901
O75	O	0.710743	-0.544146	-0.263080
C76	C	0.804512	-0.650240	-0.250737
C77	C	0.755888	-0.597911	-0.314274
H78	H	0.841011	-0.693733	-0.292103
H79	H	0.845584	-0.611555	-0.203647
H80	H	0.762888	-0.684209	-0.209415
H81	H	0.797452	-0.563933	-0.355654
H82	H	0.714806	-0.636638	-0.361305
H83	H	0.537706	-0.268879	-0.597316
H84	H	1.229551	-0.293486	-1.091262
H85	H	1.194716	-0.328351	-0.779017
O86	O	1.037800	-0.485191	-1.098778
C87	C	0.985611	-0.537220	-1.243917
C88	C	1.043841	-0.479029	-1.192054
H89	H	0.990463	-0.532246	-1.319340
H90	H	1.000383	-0.600054	-1.225469
H91	H	0.922830	-0.522399	-1.225325
H92	H	1.106642	-0.493777	-1.210618
H93	H	1.029000	-0.416212	-1.210506
O94	O	0.994360	-0.528651	-0.957444
C95	C	0.942191	-0.580715	-1.102576
C96	C	1.000402	-0.522501	-1.050722
H97	H	0.947044	-0.575751	-1.178001
H98	H	0.956981	-0.643541	-1.084115
H99	H	0.879405	-0.565910	-1.083992
H100	H	1.063208	-0.537233	-1.069279
H101	H	0.985543	-0.459692	-1.069189
O102	O	0.409793	-0.308903	-0.548485
C103	C	0.315964	-0.202862	-0.560828
C104	C	0.364547	-0.255229	-0.497295
H105	H	0.279358	-0.159465	-0.519468
H106	H	0.357546	-0.168798	-0.602106
H107	H	0.274977	-0.241600	-0.607957
H108	H	0.405538	-0.216549	-0.450111
H109	H	0.322919	-0.289299	-0.456080
H110	H	1.011221	-0.511767	-0.778969
H111	H	1.270925	-0.969010	-0.272477
O112	O	0.421335	-0.496575	-0.320683
C113	C	0.435780	-0.590982	-0.206089
C114	C	0.477963	-0.538645	-0.269693
H115	H	0.481543	-0.625022	-0.164861
H116	H	0.399535	-0.552301	-0.158924
H117	H	0.395020	-0.634412	-0.247449
H118	H	0.518762	-0.495208	-0.228406
H119	H	0.514157	-0.577375	-0.316860
O120	O	0.548004	-0.544229	-0.263014
C121	C	0.524862	-0.676416	-0.219018
C122	C	0.567064	-0.624049	-0.282574
H123	H	0.540243	-0.740961	-0.234822
H124	H	0.544764	-0.658852	-0.146283
H125	H	0.458282	-0.668199	-0.228937
H126	H	0.633650	-0.632238	-0.272735
H127	H	0.547097	-0.641625	-0.355285
H128	H	1.023232	-0.708942	-0.539256
H129	H	0.687469	-0.268876	-0.597285
O130	O	0.961449	-0.829531	-0.605937
C131	C	0.913958	-0.704939	-0.656957
C132	C	0.972791	-0.747179	-0.593558
H133	H	0.923096	-0.638350	-0.646958
H134	H	0.924128	-0.724736	-0.729739
H135	H	0.851048	-0.720467	-0.641065
H136	H	1.035724	-0.731671	-0.609369
H137	H	0.962552	-0.727379	-0.520796
O138	O	1.225941	-1.101832	-0.321193
C139	C	1.333225	-1.194444	-0.309116
C140	C	1.274375	-1.152219	-0.372511
H141	H	1.372388	-1.235203	-0.350580
H142	H	1.371506	-1.148729	-0.267908
H143	H	1.299303	-1.230700	-0.261915
H144	H	1.308233	-1.115964	-0.419766
H145	H	1.236095	-1.197973	-0.413656
O146	O	1.279369	-0.812417	-0.263373
C147	C	1.385468	-0.815334	-0.148995
C148	C	1.326596	-0.863912	-0.212407
H149	H	1.423654	-0.856946	-0.107759
H150	H	1.424722	-0.778758	-0.190413
H151	H	1.351566	-0.774324	-0.101821
H152	H	1.360433	-0.904965	-0.259594
H153	H	1.287342	-0.900435	-0.170933
O154	O	1.246569	-0.276702	-0.912899
C155	C	1.358618	-0.260735	-0.806497
C156	C	1.300337	-0.318904	-0.858312
H157	H	1.402094	-0.294830	-0.762337
H158	H	1.392313	-0.227127	-0.856317
H159	H	1.324550	-0.217170	-0.762430
H160	H	1.334343	-0.362517	-0.902381
H161	H	1.266641	-0.352454	-0.808444
H162	H	0.824664	-0.489049	-0.329817
O163	O	1.225709	-0.691469	-0.320910
C164	C	1.271859	-0.658459	-0.167486
C165	C	1.213037	-0.707049	-0.230950
H166	H	1.261623	-0.671025	-0.094739
H167	H	1.334808	-0.675452	-0.183312
H168	H	1.262657	-0.592878	-0.177430
H169	H	1.222167	-0.772642	-0.221042
H170	H	1.150110	-0.689990	-0.215108
H171	H	1.023381	-1.106361	-0.539294
