data_functionalizedCrystal
_audit_creation_method	'MofGen! by Chris Wilmer'
_symmetry_space_group_name_H-M	'P1'
_symmetry_Int_Tables_number	1
_symmetry_cell_setting	triclinic
loop_
_symmetry_equiv_pos_as_xyz
  x,y,z
_cell_length_a	18.050589
_cell_length_b	13.897449
_cell_length_c	13.897441
_cell_angle_alpha	90.020733
_cell_angle_beta	90.027873
_cell_angle_gamma	90.029500
loop_
_atom_site_label
_atom_site_type_symbol
_atom_site_fract_x
_atom_site_fract_y
_atom_site_fract_z
Zn1	Zn	-0.295610	1.474632	0.545399
Zn2	Zn	0.037723	1.807965	0.878733
Zn3	Zn	0.371056	2.141299	1.212066
Zn4	Zn	-0.419815	1.474496	0.384108
Zn5	Zn	-0.086481	1.807830	0.717442
Zn6	Zn	0.246852	2.141163	1.050775
Zn7	Zn	-0.295646	1.313321	0.384118
Zn8	Zn	0.037688	1.646655	0.717451
Zn9	Zn	0.371021	1.979988	1.050784
Zn10	Zn	-0.419766	1.313273	0.545361
Zn11	Zn	-0.086433	1.646607	0.878694
Zn12	Zn	0.246901	1.979940	1.212028
O13	O	-0.357709	1.393931	0.464747
O14	O	-0.024376	1.727264	0.798080
O15	O	0.308957	2.060597	1.131413
O16	O	-0.312092	1.609596	0.524016
O17	O	0.021241	1.942929	0.857349
O18	O	0.354575	2.276262	1.190683
O19	O	-0.403379	1.453079	0.249128
O20	O	-0.070045	1.786413	0.582461
O21	O	0.263288	2.119746	0.915795
O22	O	-0.191716	1.334796	0.405532
O23	O	0.141617	1.668130	0.738865
O24	O	0.474950	2.001463	1.072199
O25	O	-0.403344	1.609496	0.405516
O26	O	-0.070011	1.942829	0.738850
O27	O	0.263322	2.276163	1.072183
O28	O	-0.191690	1.453311	0.524025
O29	O	0.141643	1.786644	0.857358
O30	O	0.474976	2.119977	1.190692
O31	O	-0.312152	1.334665	0.249135
O32	O	0.021181	1.667998	0.582468
O33	O	0.354514	2.001331	0.915802
O34	O	-0.312105	1.178333	0.405495
O35	O	0.021228	1.511667	0.738828
O36	O	0.354562	1.845000	1.072162
O37	O	-0.403261	1.334715	0.680348
O38	O	-0.069928	1.668048	1.013681
O39	O	0.263405	2.001381	1.347015
O40	O	-0.403295	1.178298	0.523960
O41	O	-0.069962	1.511631	0.857293
O42	O	0.263371	1.844965	1.190626
O43	O	-0.312045	1.453264	0.680376
O44	O	0.021289	1.786598	1.013709
O45	O	0.354622	2.119931	1.347043
O46	O	-0.523733	1.453033	0.405479
O47	O	-0.190399	1.786366	0.738812
O48	O	0.142934	2.119700	1.072146
O49	O	-0.523697	1.334583	0.523951
O50	O	-0.190364	1.667916	0.857284
O51	O	0.142970	2.001250	1.190617
C52	C	-0.357699	1.143316	0.464725
C53	C	-0.024366	1.476650	0.798058
C54	C	0.308967	1.809983	1.131391
C55	C	-0.357713	1.036102	0.464738
C56	C	-0.024380	1.369436	0.798072
C57	C	0.308954	1.702769	1.131405
C58	C	-0.357716	0.839807	0.464763
C59	C	-0.024382	1.173141	0.798097
C60	C	0.308951	1.506474	1.131430
C61	C	-0.357712	0.949040	0.464747
C62	C	-0.024378	1.282373	0.798080
C63	C	0.308955	1.615707	1.131413
C64	C	-0.550661	1.393814	0.464731
C65	C	-0.217328	1.727148	0.798064
C66	C	0.116005	2.060481	1.131397
C67	C	-0.633207	1.393853	0.464756
C68	C	-0.299874	1.727186	0.798089
C69	C	0.033460	2.060519	1.131423
C70	C	-0.832665	1.329503	0.529158
C71	C	-0.499332	1.662836	0.862492
C72	C	-0.165999	1.996170	1.195825
C73	C	-0.882111	1.305986	0.441140
C74	C	-0.548778	1.639319	0.774473
C75	C	-0.215444	1.972653	1.107807
C76	C	-0.784337	1.393947	0.464769
C77	C	-0.451004	1.727281	0.798102
C78	C	-0.117671	2.060614	1.131435
C79	C	-0.881973	1.417512	0.552797
C80	C	-0.548640	1.750845	0.886131
C81	C	-0.215307	2.084178	1.219464
C82	C	-0.930323	1.394037	0.464789
C83	C	-0.596989	1.727371	0.798122
C84	C	-0.263656	2.060704	1.131455
C85	C	-0.832696	1.370384	0.376703
C86	C	-0.499363	1.703718	0.710037
C87	C	-0.166029	2.037051	1.043370
C88	C	-0.832554	1.481951	0.488420
C89	C	-0.499221	1.815284	0.821754
C90	C	-0.165887	2.148618	1.155087
C91	C	-0.881977	1.458467	0.400341
C92	C	-0.548644	1.791801	0.733674
C93	C	-0.215311	2.125134	1.067008
C94	C	-0.700239	1.393893	0.464758
C95	C	-0.366906	1.727227	0.798092
C96	C	-0.033573	2.060560	1.131425
C97	C	-1.014419	1.394092	0.464789
C98	C	-0.681086	1.727425	0.798122
C99	C	-0.347752	2.060758	1.131456
C100	C	-0.164004	1.394074	0.464784
C101	C	0.169330	1.727407	0.798117
C102	C	0.502663	2.060741	1.131451
C103	C	-0.081458	1.394135	0.464800
C104	C	0.251876	1.727468	0.798133
C105	C	0.585209	2.060802	1.131466
C106	C	-0.357644	1.393999	0.716340
C107	C	-0.024310	1.727333	1.049673
C108	C	0.309023	2.060666	1.383006
C109	C	-0.357616	1.394028	0.823554
C110	C	-0.024282	1.727362	1.156887
C111	C	0.309051	2.060695	1.490220
C112	C	-0.357720	1.645524	0.464769
C113	C	-0.024386	1.978857	0.798103
C114	C	0.308947	2.312190	1.131436
C115	C	-0.357724	1.752738	0.464779
C116	C	-0.024391	2.086071	0.798112
C117	C	0.308943	2.419404	1.131446
C118	C	-0.357721	1.393918	0.214132
C119	C	-0.024388	1.727251	0.547466
C120	C	0.308946	2.060585	0.880799
C121	C	-0.357540	1.394076	0.106919
C122	C	-0.024206	1.727409	0.440252
C123	C	0.309127	2.060742	0.773586
C124	C	-0.357565	1.394055	1.019849
C125	C	-0.024232	1.727388	1.353182
C126	C	0.309101	2.060721	1.686516
C127	C	-0.357595	1.394037	0.910616
C128	C	-0.024262	1.727370	1.243950
C129	C	0.309071	2.060704	1.577283
H130	H	-0.811012	1.274924	0.583534
H131	H	-0.477679	1.608258	0.916867
H132	H	-0.144345	1.941591	1.250200
N133	N	-0.804153	1.343911	0.278075
N134	N	-0.470819	1.677244	0.611408
N135	N	-0.137486	2.010578	0.944741
H136	H	-0.822511	1.392296	0.229389
H137	H	-0.489177	1.725629	0.562723
H138	H	-0.155844	2.058962	0.896056
H139	H	-0.748203	1.343998	0.278770
H140	H	-0.414870	1.677331	0.612103
H141	H	-0.081537	2.010664	0.945436
H142	H	-0.903895	1.231606	0.421153
H143	H	-0.570562	1.564940	0.754487
H144	H	-0.237228	1.898273	1.087820
H145	H	-0.903493	1.513005	0.345834
H146	H	-0.570160	1.846338	0.679168
H147	H	-0.236827	2.179671	1.012501
H148	H	-0.810772	1.556314	0.508449
H149	H	-0.477439	1.889647	0.841782
H150	H	-0.144105	2.222981	1.175116
N151	N	-0.910654	1.443868	0.651391
N152	N	-0.577321	1.777201	0.984724
N153	N	-0.243987	2.110535	1.318057
H154	H	-0.892717	1.395106	0.699964
H155	H	-0.559383	1.728440	1.033297
H156	H	-0.226050	2.061773	1.366631
H157	H	-0.891848	1.509850	0.669665
H158	H	-0.558515	1.843184	1.002999
H159	H	-0.225181	2.176517	1.336332
