data_functionalizedCrystal
_audit_creation_method	'MofGen! by Chris Wilmer'
_symmetry_space_group_name_H-M	'P1'
_symmetry_Int_Tables_number	1
_symmetry_cell_setting	triclinic
loop_
_symmetry_equiv_pos_as_xyz
  x,y,z
_cell_length_a	14.519709
_cell_length_b	12.503572
_cell_length_c	14.519709
_cell_angle_alpha	86.471162
_cell_angle_beta	83.680145
_cell_angle_gamma	93.519209
loop_
_atom_site_label
_atom_site_type_symbol
_atom_site_fract_x
_atom_site_fract_y
_atom_site_fract_z
O1	O	1.229169	0.089182	0.115573
O2	O	0.960694	0.089215	0.129808
O3	O	1.102049	0.089188	-0.011548
O4	O	1.087813	0.089209	0.256928
O5	O	1.091418	-0.089452	-0.000899
O6	O	0.950063	-0.089424	0.140456
O7	O	1.218538	-0.089458	0.126221
Cu8	Cu	1.083330	-0.105752	0.134311
Cu9	Cu	1.095902	0.105510	0.121718
O10	O	1.077183	-0.089430	0.267577
C11	C	0.921019	-0.000100	0.134468
C12	C	0.818638	-0.000088	0.132479
N13	N	1.074494	-0.254343	0.143168
C14	C	0.443739	-0.000137	0.125163
C15	C	0.548048	-0.000123	0.127194
C16	C	0.631186	-0.000112	0.128821
C17	C	0.735501	-0.000100	0.130853
C18	C	1.061496	-0.473456	0.156204
C19	C	1.117740	-0.526793	0.099821
C20	C	1.110507	-0.648715	0.107074
C21	C	1.068727	-0.351523	0.148951
C22	C	1.258213	-0.000139	0.121561
C23	C	1.360594	-0.000145	0.123549
C24	C	1.096070	-0.000132	-0.040583
C25	C	1.094082	-0.000132	-0.142964
N26	N	1.104745	0.254101	0.112854
C27	C	1.086764	-0.000103	-0.517862
C28	C	1.088796	-0.000112	-0.413553
C29	C	1.090422	-0.000119	-0.330416
C30	C	1.092455	-0.000125	-0.226101
C31	C	1.083162	-0.000108	0.296612
C32	C	1.085150	-0.000101	0.398993
H33	H	1.171323	-0.480891	0.046103
O34	O	0.997659	-0.528372	0.220267
C35	C	0.932105	-0.701740	0.285936
C36	C	1.004451	-0.639664	0.213356
H37	H	0.937559	-0.791730	0.280359
H38	H	0.945660	-0.679783	0.358527
H39	H	0.859485	-0.679650	0.272609
H40	H	1.077100	-0.661720	0.226596
H41	H	0.990816	-0.661626	0.140788
