data_functionalizedCrystal
_audit_creation_method	'MofGen! by Chris Wilmer'
_symmetry_space_group_name_H-M	'P1'
_symmetry_Int_Tables_number	1
_symmetry_cell_setting	triclinic
loop_
_symmetry_equiv_pos_as_xyz
  x,y,z
_cell_length_a	16.992695
_cell_length_b	9.065218
_cell_length_c	8.140239
_cell_angle_alpha	90.002802
_cell_angle_beta	89.996131
_cell_angle_gamma	92.157946
loop_
_atom_site_label
_atom_site_type_symbol
_atom_site_fract_x
_atom_site_fract_y
_atom_site_fract_z
O1	O	0.115065	-1.971073	-0.136620
O2	O	0.124504	-1.542664	-0.136623
O3	O	0.005630	-1.755151	-0.136608
O4	O	0.233939	-1.758586	-0.136634
O5	O	0.005628	-1.755138	0.136619
O6	O	0.124502	-1.542651	0.136605
O7	O	0.115064	-1.971060	0.136607
Zn8	Zn	0.119783	-1.756854	0.179986
Zn9	Zn	0.119785	-1.756871	-0.180002
O10	O	0.233938	-1.758573	0.136593
C11	C	0.123596	-1.487587	-0.000009
C12	C	0.120884	-1.323492	-0.000010
C13	C	0.115972	-2.026138	-0.000010
C14	C	0.118684	-2.190232	-0.000020
C15	C	-0.023615	-1.750726	0.000005
C16	C	-0.110753	-1.737542	0.000005
C17	C	-0.160090	-1.864748	0.000007
C18	C	-0.241964	-1.852352	-0.000009
C19	C	-0.274500	-1.712748	-0.000015
C20	C	-0.225157	-1.585533	-0.000022
C21	C	-0.143284	-1.597931	-0.000019
C22	C	-0.518463	-1.661364	-0.000038
C23	C	-0.600343	-1.648976	-0.000037
C24	C	-0.617144	-1.915797	-0.000026
C25	C	-0.535269	-1.928182	-0.000012
C26	C	-0.485933	-1.800967	-0.000029
N27	N	-0.358189	-1.700074	-0.000026
N28	N	-0.402245	-1.813642	-0.000029
C29	C	0.263183	-1.762998	-0.000024
C30	C	0.350320	-1.776182	-0.000034
N31	N	0.119781	-1.756853	0.425669
N32	N	0.119780	-1.756882	-0.425685
H33	H	-0.133606	-1.978428	0.000022
H34	H	-0.508785	-2.041862	-0.000007
O35	O	-0.665182	-2.039215	-0.000098
C36	C	-0.744423	-1.998347	-0.000062
H37	H	-0.748383	-1.882002	-0.051787
H38	H	-0.768062	-2.001151	0.131017
C39	C	-0.788836	-2.249973	-0.043689
C40	C	-0.793701	-2.107081	-0.107232
H41	H	-0.819234	-2.317048	-0.109789
H42	H	-0.735450	-2.277509	-0.043707
H43	H	-0.808534	-2.252289	0.065542
H44	H	-0.773994	-2.104763	-0.216453
H45	H	-0.847084	-2.079547	-0.107234
O46	O	-0.256889	-1.450034	0.000044
C47	C	-0.339732	-1.466365	0.000005
H48	H	-0.358138	-1.579321	0.051734
H49	H	-0.362565	-1.456529	-0.131075
C50	C	-0.351913	-1.206169	0.043620
C51	C	-0.374520	-1.344899	0.107168
H52	H	-0.373373	-1.131241	0.109716
H53	H	-0.296100	-1.195165	0.043640
H54	H	-0.370942	-1.197994	-0.065612
H55	H	-0.355483	-1.353080	0.216390
H56	H	-0.430331	-1.355902	0.107169
H57	H	-0.478303	-1.557776	-0.000051
O58	O	-0.095468	-1.474213	0.000052
C59	C	-0.141739	-1.348335	0.000004
H60	H	-0.202566	-1.378601	0.051738
H61	H	-0.147861	-1.306011	-0.131081
C62	C	-0.027140	-1.189948	0.043599
C63	C	-0.101846	-1.227119	0.107153
H64	H	-0.002531	-1.115173	0.109687
H65	H	0.004035	-1.274753	0.043626
H66	H	-0.032251	-1.154687	-0.065636
H67	H	-0.096733	-1.262396	0.216379
H68	H	-0.133019	-1.142316	0.107148
H69	H	-0.282132	-1.955937	-0.000003
H70	H	-0.626830	-1.535289	-0.000016
