data_functionalizedCrystal
_audit_creation_method	'MofGen! by Chris Wilmer'
_symmetry_space_group_name_H-M	'P1'
_symmetry_Int_Tables_number	1
_symmetry_cell_setting	triclinic
loop_
_symmetry_equiv_pos_as_xyz
  x,y,z
_cell_length_a	23.532355
_cell_length_b	19.288871
_cell_length_c	18.366186
_cell_angle_alpha	90.007393
_cell_angle_beta	89.996770
_cell_angle_gamma	97.016777
loop_
_atom_site_label
_atom_site_type_symbol
_atom_site_fract_x
_atom_site_fract_y
_atom_site_fract_z
O1	O	0.755458	-0.084147	-0.060453
O2	O	1.255458	0.415853	0.439547
O3	O	0.589616	-0.096385	-0.060476
O4	O	1.089616	0.403615	0.439524
O5	O	0.677328	0.010880	-0.060457
O6	O	1.177328	0.510880	0.439543
O7	O	0.667747	-0.191412	-0.060472
O8	O	1.167747	0.308588	0.439528
O9	O	0.677313	0.010885	0.060643
O10	O	1.177313	0.510885	0.560643
O11	O	0.589602	-0.096380	0.060623
O12	O	1.089602	0.403620	0.560623
O13	O	0.755444	-0.084142	0.060647
O14	O	1.255444	0.415858	0.560647
Zn15	Zn	0.672520	-0.090260	0.079862
Zn16	Zn	1.172520	0.409740	0.579862
Zn17	Zn	0.672540	-0.090267	-0.079691
Zn18	Zn	1.172540	0.409733	0.420309
O19	O	0.667732	-0.191407	0.060628
O20	O	1.167732	0.308593	0.560628
C21	C	0.568392	-0.096077	0.000071
C22	C	1.068392	0.403923	0.500071
C23	C	0.505171	-0.095157	0.000062
C24	C	1.005171	0.404843	0.500062
C25	C	0.113137	-0.089375	0.066104
C26	C	0.613137	0.410625	0.566104
C27	C	0.053736	-0.088500	0.066107
C28	C	0.553736	0.411500	0.566107
O29	O	0.023009	-0.088022	0.122247
O30	O	0.523009	0.411978	0.622247
N31	N	0.024035	-0.088069	0.000096
N32	N	0.524035	0.411931	0.500096
C33	C	0.053739	-0.088506	-0.065922
C34	C	0.553739	0.411494	0.434078
O35	O	0.023021	-0.088059	-0.122069
O36	O	0.523021	0.411941	0.377931
C37	C	0.113139	-0.089376	-0.065924
C38	C	0.613139	0.410624	0.434076
C39	C	0.142837	-0.089814	0.000091
C40	C	0.642837	0.410186	0.500091
C41	C	0.142835	-0.089813	0.132114
C42	C	0.642835	0.410187	0.632114
C43	C	0.202232	-0.090689	0.132111
C44	C	0.702232	0.409311	0.632111
C45	C	0.231931	-0.091128	0.066098
C46	C	0.731931	0.408872	0.566098
C47	C	0.202234	-0.090691	0.000088
C48	C	0.702234	0.409309	0.500088
C49	C	0.142842	-0.089808	-0.131942
C50	C	0.642842	0.410192	0.368058
C51	C	0.202247	-0.090678	-0.131938
C52	C	0.702247	0.409322	0.368062
C53	C	0.231945	-0.091116	-0.065923
C54	C	0.731945	0.408884	0.434077
C55	C	0.291330	-0.092006	-0.065928
C56	C	0.791330	0.407994	0.434072
N57	N	0.321031	-0.092437	0.000083
N58	N	0.821031	0.407563	0.500083
C59	C	0.291332	-0.091998	0.066096
C60	C	0.791332	0.408002	0.566096
C61	C	-0.071007	-0.086678	-0.065913
C62	C	0.428993	0.413322	0.434087
C63	C	-0.130407	-0.085813	-0.065911
C64	C	0.369593	0.414187	0.434089
C65	C	-0.130405	-0.085806	0.066118
C66	C	0.369595	0.414194	0.566118
C67	C	-0.071005	-0.086676	0.066116
C68	C	0.428995	0.413324	0.566116
C69	C	-0.041306	-0.087109	0.000098
C70	C	0.458694	0.412891	0.500098
C71	C	0.416070	-0.093839	0.066084
C72	C	0.916070	0.406161	0.566084
C73	C	0.475472	-0.094718	0.066075
C74	C	0.975472	0.405282	0.566075
C75	C	0.475465	-0.094721	-0.065954
C76	C	0.975465	0.405279	0.434046
C77	C	0.416068	-0.093846	-0.065945
C78	C	0.916068	0.406154	0.434055
C79	C	0.386372	-0.093402	0.000080
C80	C	0.886372	0.406598	0.500080
O81	O	0.322095	-0.092482	-0.122039
O82	O	0.822095	0.407518	0.377961
O83	O	0.322058	-0.092436	0.122234
O84	O	0.822058	0.407564	0.622234
C85	C	0.677011	0.036758	0.000093
C86	C	1.177011	0.536758	0.500093
C87	C	0.676084	0.113858	0.000094
C88	C	1.176084	0.613858	0.500094
C89	C	0.776668	-0.084450	0.000098
C90	C	1.276668	0.415550	0.500098
C91	C	0.839889	-0.085370	0.000102
C92	C	1.339889	0.414630	0.500102
N93	N	0.672511	-0.090255	0.188753
N94	N	1.172511	0.409745	0.688753
C95	C	0.669418	0.669409	0.066093
C96	C	1.169418	1.169409	0.566093
C97	C	0.670283	0.596964	0.066096
C98	C	1.170283	1.096964	0.566096
C99	C	0.670727	0.560731	0.000085
C100	C	1.170727	1.060731	0.500085
C101	C	0.670290	0.596947	-0.065934
C102	C	1.170290	1.096947	0.434066
C103	C	0.669420	0.669390	-0.065935
C104	C	1.169420	1.169390	0.434065
C105	C	0.705469	0.451513	-0.050482
C106	C	1.205469	0.951513	0.449518
C107	C	0.706343	0.379072	-0.050478
C108	C	1.206343	0.879072	0.449522
C109	C	0.673410	0.337294	0.000086
C110	C	1.173410	0.837294	0.500086
C111	C	0.639609	0.367966	0.050659
C112	C	1.139609	0.867966	0.550659
C113	C	0.638739	0.440409	0.050658
C114	C	1.138739	0.940409	0.550658
C115	C	0.671671	0.482179	0.000079
C116	C	1.171671	0.982179	0.500079
C117	C	0.674780	0.222533	0.066105
C118	C	1.174780	0.722533	0.566105
C119	C	0.675642	0.150086	0.066105
C120	C	1.175642	0.650086	0.566105
C121	C	0.675654	0.150071	-0.065927
C122	C	1.175654	0.650071	0.434073
C123	C	0.674787	0.222516	-0.065925
C124	C	1.174787	0.722516	0.434075
C125	C	0.674353	0.258743	0.000093
C126	C	1.174353	0.758743	0.500093
C127	C	0.668051	0.782716	0.000079
C128	C	1.168051	1.282716	0.500079
C129	C	0.668985	0.705617	0.000082
C130	C	1.168985	1.205617	0.500082
N131	N	0.672554	-0.090266	-0.188583
N132	N	1.172554	0.409734	0.311417
C133	C	0.711362	-0.042781	0.226862
C134	C	1.211362	0.457219	0.726862
C135	C	0.711366	-0.042778	0.303090
C136	C	1.211366	0.457222	0.803090
C137	C	0.672524	-0.090261	0.341206
C138	C	1.172524	0.409739	0.841206
C139	C	0.633665	-0.137738	0.303088
C140	C	1.133665	0.362262	0.803088
C141	C	0.633659	-0.137735	0.226862
C142	C	1.133659	0.362265	0.726862
C143	C	0.664901	-0.153574	0.461961
C144	C	1.164901	0.346426	0.961961
C145	C	0.664911	-0.153577	0.538186
C146	C	1.164911	0.346423	1.038186
C147	C	0.672540	-0.090269	0.576314
C148	C	1.172540	0.409731	1.076314
C149	C	0.680170	-0.026955	0.538207
C150	C	1.180170	0.473045	1.038207
C151	C	0.680164	-0.026952	0.461981
C152	C	1.180164	0.473048	0.961981
C153	C	0.672526	-0.090269	0.423861
C154	C	1.172526	0.409731	0.923861
C155	C	0.711397	-0.042788	0.697078
C156	C	1.211397	0.457212	1.197078
C157	C	0.711397	-0.042784	0.773307
C158	C	1.211397	0.457216	1.273307
C159	C	0.633699	-0.137750	0.773303
C160	C	1.133699	0.362250	1.273303
C161	C	0.633697	-0.137748	0.697075
C162	C	1.133697	0.362252	1.197075
C163	C	0.672549	-0.090268	0.658967
C164	C	1.172549	0.409732	1.158967
H165	H	0.391898	-0.093484	0.119848
H166	H	0.891898	0.406516	0.619848
C167	C	0.590971	-0.189981	0.655150
C168	C	1.090971	0.310019	1.155150
H169	H	0.596529	-0.183178	0.604294
H170	H	1.096529	0.316822	1.104294
H171	H	0.597042	-0.236297	0.667636
H172	H	1.097042	0.263703	1.167636
H173	H	0.552980	-0.182684	0.667647
H174	H	1.052980	0.317316	1.167647
H175	H	0.686375	0.024601	0.430957
H176	H	1.186375	0.524601	0.930957
H177	H	0.226407	-0.091041	0.185868
H178	H	0.726407	0.408959	0.685868
H179	H	-0.046829	-0.087033	0.119872
H180	H	0.453171	0.412967	0.619872
H181	H	0.686382	0.024597	0.569249
H182	H	1.186382	0.524597	1.069249
H183	H	-0.154597	-0.085447	0.119870
H184	H	0.345403	0.414553	0.619870
H185	H	-0.154583	-0.085467	-0.119668
H186	H	0.345417	0.414533	0.380332
H187	H	0.602038	-0.176398	0.334126
H188	H	1.102038	0.323602	0.834126
C189	C	-0.038344	-0.087169	-0.138537
C190	C	0.461656	0.412831	0.361463
H191	H	-0.064546	-0.086794	-0.177845
H192	H	0.435454	0.413206	0.322155
H193	H	-0.010722	-0.047000	-0.141288
H194	H	0.489278	0.453000	0.358712
H195	H	-0.019625	-0.128026	-0.141285
H196	H	0.480375	0.371974	0.358715
C197	C	0.674297	0.262387	0.138717
C198	C	1.174297	0.762387	0.638717
H199	H	0.673725	0.310719	0.129263
H200	H	1.173725	0.810719	0.629263
H201	H	0.641233	0.244989	0.165840
H202	H	1.141233	0.744989	0.665840
H203	H	0.707646	0.256048	0.165842
H204	H	1.207646	0.756048	0.665842
C205	C	0.754123	0.009444	0.655152
C206	C	1.254123	0.509444	1.155152
H207	H	0.748560	0.002641	0.604296
H208	H	1.248560	0.502641	1.104296
H209	H	0.748056	0.055761	0.667654
H210	H	1.248056	0.555761	1.167654
H211	H	0.792115	0.002144	0.667636
H212	H	1.292115	0.502144	1.167636
H213	H	0.733868	0.354105	-0.091655
H214	H	1.233868	0.854105	0.408345
C215	C	0.110190	-0.089311	-0.204560
C216	C	0.610190	0.410689	0.295440
H217	H	0.136395	-0.089685	-0.243868
H218	H	0.636395	0.410315	0.256132
H219	H	0.082564	-0.129475	-0.207327
H220	H	0.582564	0.370525	0.292673
H221	H	0.091475	-0.048450	-0.207292
H222	H	0.591475	0.451550	0.292708
C223	C	0.741689	0.497461	-0.106118
C224	C	1.241689	0.997461	0.393882
H225	H	0.761946	0.468820	-0.136231
H226	H	1.261946	0.968820	0.363769
H227	H	0.717295	0.521703	-0.135363
H228	H	1.217295	1.021703	0.364637
H229	H	0.768175	0.530198	-0.081079
H230	H	1.268175	1.030198	0.418921
H231	H	0.226425	-0.091031	-0.185699
H232	H	0.726425	0.408969	0.314301
H233	H	0.675993	0.120606	0.119861
H234	H	1.175993	0.620606	0.619861
C235	C	0.590925	-0.189963	0.184940
C236	C	1.090925	0.310037	0.684940
H237	H	0.567793	-0.218245	0.218555
H238	H	1.067793	0.281755	0.718555
H239	H	0.567282	-0.165130	0.155209
H240	H	1.067282	0.334870	0.655209
H241	H	0.611340	-0.218748	0.155199
H242	H	1.111340	0.281252	0.655199
C243	C	0.110174	-0.089336	0.204735
C244	C	0.610174	0.410664	0.704735
H245	H	0.136375	-0.089726	0.244041
H246	H	0.636375	0.410274	0.744041
H247	H	0.091447	-0.048489	0.207497
H248	H	0.591447	0.451511	0.707497
H249	H	0.082556	-0.129515	0.207477
H250	H	0.582556	0.370485	0.707477
H251	H	0.743032	-0.004122	0.804336
H252	H	1.243032	0.495878	1.304336
C253	C	0.383397	-0.093387	-0.138560
C254	C	0.883397	0.406613	0.361440
H255	H	0.409595	-0.093776	-0.177874
H256	H	0.909595	0.406224	0.322126
H257	H	0.355775	-0.133557	-0.141297
H258	H	0.855775	0.366443	0.358703
H259	H	0.364676	-0.052531	-0.141310
H260	H	0.864676	0.447469	0.358690
H261	H	0.676008	0.120570	-0.119674
H262	H	1.176008	0.620570	0.380326
H263	H	0.674438	0.251997	-0.119678
H264	H	1.174438	0.751997	0.380322
C265	C	0.754110	0.009426	0.184944
C266	C	1.254110	0.509426	0.684944
H267	H	0.748552	0.002620	0.134087
H268	H	1.248552	0.502620	0.634087
H269	H	0.748068	0.055753	0.197435
H270	H	1.248068	0.555753	0.697435
H271	H	0.792094	0.002096	0.197439
H272	H	1.292094	0.502096	0.697439
H273	H	0.499649	-0.095077	0.119835
H274	H	0.999649	0.404923	0.619835
H275	H	0.602071	-0.176409	0.804337
H276	H	1.102071	0.323591	1.304337
C277	C	0.670781	0.557095	-0.138544
C278	C	1.170781	1.057095	0.361456
H279	H	0.671368	0.508766	-0.129089
H280	H	1.171368	1.008766	0.370911
H281	H	0.637437	0.563429	-0.165673
H282	H	1.137437	1.063429	0.334327
H283	H	0.703850	0.574500	-0.165662
H284	H	1.203850	1.074500	0.334338
C285	C	0.668953	0.709222	-0.138550
C286	C	1.168953	1.209222	0.361450
H287	H	0.669344	0.677271	-0.177865
H288	H	1.169344	1.177271	0.322135
H289	H	0.635412	0.731955	-0.141302
H290	H	1.135412	1.231955	0.358698
H291	H	0.701825	0.743009	-0.141286
H292	H	1.201825	1.243009	0.358714
H293	H	0.499657	-0.095082	-0.119700
H294	H	0.999657	0.404918	0.380300
H295	H	0.743004	-0.004118	0.334124
H296	H	1.243004	0.495882	0.834124
C297	C	0.668933	0.709253	0.138709
C298	C	1.168933	1.209253	0.638709
H299	H	0.669309	0.677308	0.178023
H300	H	1.169309	1.177308	0.678023
H301	H	0.701795	0.743049	0.141458
H302	H	1.201795	1.243049	0.641458
H303	H	0.635383	0.731976	0.141449
H304	H	1.135383	1.231976	0.641449
C305	C	0.656505	-0.223215	0.420025
C306	C	1.156505	0.276785	0.920025
H307	H	0.657588	-0.214146	0.369170
H308	H	1.157588	0.285854	0.869170
H309	H	0.686218	-0.250245	0.432503
H310	H	1.186218	0.249755	0.932503
H311	H	0.620520	-0.248211	0.432522
H312	H	1.120520	0.251789	0.932522
C313	C	0.670763	0.557127	0.138710
C314	C	1.170763	1.057127	0.638710
H315	H	0.670383	0.589079	0.178026
H316	H	1.170383	1.089079	0.678026
H317	H	0.637900	0.523333	0.141455
H318	H	1.137900	1.023333	0.641455
H319	H	0.704313	0.534405	0.141449
H320	H	1.204313	1.034405	0.641449
C321	C	0.656522	-0.223219	0.580097
C322	C	1.156522	0.276781	1.080097
H323	H	0.651968	-0.260922	0.546474
H324	H	1.151968	0.239078	1.046474
H325	H	0.689056	-0.226868	0.609822
H326	H	1.189056	0.273132	1.109822
H327	H	0.623358	-0.224836	0.609841
H328	H	1.123358	0.275164	1.109841
H329	H	0.611218	0.465380	0.091836
H330	H	1.111218	0.965380	0.591836
C331	C	0.603374	0.322019	0.106277
C332	C	1.103374	0.822019	0.606277
H333	H	0.608726	0.274481	0.099030
H334	H	1.108726	0.774481	0.599030
H335	H	0.614951	0.335846	0.154204
H336	H	1.114951	0.835846	0.654204
H337	H	0.564087	0.327375	0.099897
H338	H	1.064087	0.827375	0.599897
