data_functionalizedCrystal
_audit_creation_method	'MofGen! by Chris Wilmer'
_symmetry_space_group_name_H-M	'P1'
_symmetry_Int_Tables_number	1
_symmetry_cell_setting	triclinic
loop_
_symmetry_equiv_pos_as_xyz
  x,y,z
_cell_length_a	14.446369
_cell_length_b	18.426585
_cell_length_c	18.426585
_cell_angle_alpha	90.001096
_cell_angle_beta	60.002464
_cell_angle_gamma	59.999749
loop_
_atom_site_label
_atom_site_type_symbol
_atom_site_fract_x
_atom_site_fract_y
_atom_site_fract_z
Zr1	Zr	1.013274	-0.095289	0.699118
O2	O	1.206381	-0.211170	0.583242
O3	O	0.820159	-0.059761	0.734639
O4	O	1.013270	-0.211167	0.734640
O5	O	1.013276	0.059662	0.583242
O6	O	1.013276	-0.211170	0.854066
O7	O	1.013270	-0.059764	0.583241
O8	O	0.667836	0.059667	0.854064
O9	O	1.358717	-0.211175	0.583243
O10	O	0.899598	-0.044617	0.838915
O11	O	0.899598	0.044512	0.749789
O12	O	1.126961	-0.133749	0.749790
O13	O	1.126961	-0.044620	0.660664
Zr14	Zr	1.013295	0.095176	0.889589
Zr15	Zr	1.013285	-0.095294	0.889588
Zr16	Zr	1.013285	0.095181	0.699118
Zr17	Zr	1.256232	-0.095298	0.699119
Zr18	Zr	0.770337	0.095185	0.889587
O19	O	1.206410	0.059648	0.854068
O20	O	1.206396	-0.211177	0.854067
O21	O	1.206396	0.059655	0.583243
O22	O	0.820188	0.211057	1.005464
O23	O	0.820174	-0.059768	1.005463
O24	O	0.820174	0.211063	0.734639
O25	O	1.013293	-0.059775	1.005465
O26	O	1.013299	0.211053	0.854066
O27	O	1.013293	0.211056	0.734641
O28	O	1.013299	0.059651	1.005465
O29	O	1.358725	-0.211179	0.734642
O30	O	0.667844	0.211066	0.854064
O31	O	0.667853	0.211062	1.005463
O32	O	0.667844	0.059663	1.005462
O33	O	1.358725	-0.059777	0.583244
O34	O	1.358733	-0.059781	0.734642
O35	O	0.899608	0.133636	0.838916
O36	O	0.899608	0.044507	0.928042
O37	O	1.126971	-0.044625	0.838917
O38	O	1.126971	0.044503	0.749791
C39	C	0.709381	-0.000046	0.794351
C40	C	0.606239	-0.000042	0.794350
C41	C	1.013272	-0.000051	0.556104
C42	C	1.013267	-0.000049	0.475244
C43	C	1.013297	0.238193	0.794354
C44	C	1.013302	0.319053	0.794354
C45	C	0.459230	0.056429	0.738408
C46	C	0.566849	0.056200	0.738104
C47	C	0.655228	-0.096892	0.753344
C48	C	0.547995	-0.096599	0.752924
C49	C	0.372789	0.039504	0.891338
C50	C	0.478940	0.041480	0.891196
C51	C	1.317188	-0.000068	0.794355
C52	C	1.420330	-0.000071	0.794356
C53	C	1.013272	-0.238306	0.794353
C54	C	1.013267	-0.319166	0.794352
C55	C	1.013263	0.615167	0.794355
C56	C	1.013268	0.532781	0.794357
C57	C	1.013282	0.467113	0.794355
C58	C	1.013288	0.384721	0.794356
C59	C	1.013307	-0.000064	0.179129
C60	C	1.013301	-0.000062	0.261515
C61	C	1.013287	-0.000057	0.327184
C62	C	1.013281	-0.000054	0.409575
C63	C	1.013297	-0.000063	1.032603
C64	C	1.013302	-0.000065	1.113462
C65	C	0.709394	-0.000052	1.032600
C66	C	0.606257	-0.000050	1.113459
C67	C	0.709394	0.238204	0.794351
C68	C	0.606257	0.319067	0.794351
C69	C	0.709407	0.238198	1.032601
C70	C	0.606274	0.319059	1.113460
C71	C	1.317162	-0.238311	0.556105
C72	C	1.420295	-0.319172	0.475246
C73	C	1.317175	-0.000062	0.556106
C74	C	1.420313	-0.000063	0.475247
C75	C	1.317175	-0.238317	0.794355
C76	C	1.420313	-0.319181	0.794355
C77	C	0.557817	-0.046579	1.104909
C78	C	0.460922	-0.046595	1.180877
C79	C	0.412461	-0.000077	1.265395
C80	C	0.460910	0.046453	1.273944
C81	C	0.557810	0.046464	1.197977
C82	C	0.557827	0.403571	0.840874
C83	C	0.460932	0.479558	0.840870
C84	C	0.412461	0.471039	0.794348
C85	C	0.460900	0.386526	0.747819
C86	C	0.557800	0.310541	0.747819
C87	C	0.557841	0.310508	1.197963
C88	C	0.460950	0.386479	1.273946
C89	C	0.412487	0.470999	1.265424
C90	C	0.460929	0.479548	1.180912
C91	C	0.557825	0.403579	1.104931
C92	C	1.468740	-0.310622	0.390743
C93	C	1.565661	-0.386592	0.314760
C94	C	1.614130	-0.471113	0.323282
C95	C	1.565681	-0.479662	0.407794
C96	C	1.468769	-0.403692	0.483775
C97	C	1.468762	0.046458	0.483797
C98	C	1.565685	0.046453	0.407829
C99	C	1.614149	-0.000068	0.323311
C100	C	1.565695	-0.046595	0.314762
C101	C	1.468781	-0.046595	0.390729
C102	C	1.468753	-0.310633	0.840886
C103	C	1.565648	-0.386606	0.840904
C104	C	1.614109	-0.471125	0.794385
C105	C	1.565660	-0.479670	0.747853
C106	C	1.468759	-0.403699	0.747841
H107	H	0.530145	0.127518	0.765610
O108	O	1.718656	-0.553045	0.241322
H109	H	1.744235	-0.613259	0.261437
O110	O	0.248660	0.132537	0.936702
H111	H	0.169562	0.134739	0.997299
H112	H	0.421486	-0.084486	1.173899
H113	H	1.605132	-0.548496	0.709978
H114	H	0.597237	0.084359	1.204952
O115	O	1.617891	-0.377354	0.223617
H116	H	1.693437	-0.444375	0.172207
O117	O	1.617958	-0.570825	0.416982
H118	H	1.599350	-0.607653	0.384587
O119	O	0.426493	0.135997	0.931755
H120	H	0.424292	0.142364	0.992590
H121	H	0.333557	-0.000092	1.327246
H122	H	1.429336	-0.084475	0.383755
H123	H	0.684013	-0.140809	0.792137
O124	O	0.601880	-0.138563	0.658395
H125	H	0.629970	-0.099807	0.617234
H126	H	0.421421	0.379603	0.709942
H127	H	1.429326	-0.410665	0.552579
O128	O	0.777369	-0.138920	0.659686
H129	H	0.859164	-0.199608	0.655062
H130	H	0.597246	0.410553	1.036128
O131	O	0.408621	0.096628	1.365110
H132	H	0.489953	0.069744	1.372858
O133	O	1.416490	-0.219482	0.891076
H134	H	1.435099	-0.182636	0.844114
H135	H	1.693013	-0.532979	0.794402
H136	H	0.333587	0.532852	1.327300
O137	O	0.507402	-0.007359	0.951073
H138	H	0.613195	-0.062239	0.912568
O139	O	1.617969	-0.096764	0.223599
H140	H	1.662132	-0.168274	0.215855
H141	H	1.429330	-0.410671	0.709946
H142	H	0.421455	0.548375	1.173987
O143	O	1.416480	-0.219465	0.381540
H144	H	1.466474	-0.226297	0.310009
H145	H	0.370367	0.127923	0.765768
H146	H	0.597281	0.410525	0.878758
H147	H	1.429310	0.084347	0.552610
O148	O	1.617889	-0.377373	0.891096
H149	H	1.724793	-0.409771	0.844137
O150	O	0.506579	0.020408	0.644208
H151	H	0.502530	-0.037563	0.637063
O152	O	1.718645	-0.000031	0.241385
H153	H	1.806942	-0.029126	0.241443
O154	O	0.518917	-0.155407	0.803396
H155	H	0.539726	-0.209974	0.758613
O156	O	1.617919	0.096650	0.417059
H157	H	1.567911	0.129012	0.488594
H158	H	0.655645	0.028764	0.666567
O159	O	0.338367	-0.014736	0.946825
H160	H	0.354999	-0.069608	0.905586
H161	H	0.597273	-0.084471	1.036096
O162	O	0.609850	0.219397	0.697781
H163	H	0.559787	0.226249	0.665492
O164	O	0.610118	0.219351	1.207166
H165	H	0.560164	0.226183	1.278697
H166	H	0.421504	0.548365	0.878762
H167	H	0.333559	0.532919	0.794356
H168	H	0.421518	0.379502	1.342753
