data_functionalizedCrystal
_audit_creation_method	'MofGen! by Chris Wilmer'
_symmetry_space_group_name_H-M	'P1'
_symmetry_Int_Tables_number	1
_symmetry_cell_setting	triclinic
loop_
_symmetry_equiv_pos_as_xyz
  x,y,z
_cell_length_a	27.731993
_cell_length_b	27.731996
_cell_length_c	13.330367
_cell_angle_alpha	89.989375
_cell_angle_beta	90.003990
_cell_angle_gamma	82.620891
loop_
_atom_site_label
_atom_site_type_symbol
_atom_site_fract_x
_atom_site_fract_y
_atom_site_fract_z
O1	O	0.640936	0.057393	-0.083166
O2	O	0.500137	0.066166	-0.083230
O3	O	0.574922	-0.008620	-0.083174
O4	O	0.566150	0.132179	-0.083222
O5	O	0.574912	-0.008622	0.083673
O6	O	0.500126	0.066164	0.083618
O7	O	0.640925	0.057391	0.083681
Cu8	Cu	0.570525	0.061778	0.098884
Cu9	Cu	0.570537	0.061779	-0.098432
O10	O	0.566140	0.132177	0.083626
C11	C	0.482124	0.065985	0.000186
C12	C	0.428468	0.065443	0.000163
C13	C	0.045314	0.061513	-0.090735
C14	C	0.246971	0.063580	-0.090763
O15	O	0.273050	0.063828	-0.168113
N16	N	0.272186	0.063838	0.000183
C17	C	0.246983	0.063575	0.091143
O18	O	0.273058	0.063837	0.168498
C19	C	0.045328	0.061505	0.091170
C20	C	0.020115	0.061252	0.000218
C21	C	0.020102	0.061259	-0.181680
C22	C	-0.030310	0.060745	-0.181672
C23	C	-0.055509	0.060485	-0.090719
C24	C	-0.030296	0.060738	0.000225
C25	C	0.020127	0.061239	0.182128
C26	C	-0.030290	0.060720	0.182127
C27	C	-0.055503	0.060468	0.091175
C28	C	-0.105907	0.059963	0.091186
N29	N	-0.131121	0.059705	0.000240
C30	C	-0.105922	0.059966	-0.090713
C31	C	0.352855	0.064664	0.091122
C32	C	0.403269	0.065182	0.091116
C33	C	0.403254	0.065186	-0.090790
C34	C	0.352839	0.064670	-0.090783
C35	C	0.327641	0.064406	0.000176
C36	C	-0.211790	0.058887	-0.090689
C37	C	-0.262207	0.058375	-0.090674
C38	C	-0.262187	0.058369	0.091232
C39	C	-0.211775	0.058883	0.091217
C40	C	-0.186578	0.059141	0.000248
O41	O	-0.132015	0.059709	0.168495
O42	O	-0.132004	0.059694	-0.168056
C43	C	0.095726	0.062027	-0.090743
C44	C	0.120938	0.062280	0.000202
C45	C	0.095739	0.062020	0.091154
C46	C	0.171352	0.062799	0.000195
C47	C	0.196551	0.063060	-0.090757
C48	C	0.171337	0.062802	-0.181704
C49	C	0.120925	0.062288	-0.181696
C50	C	0.120954	0.062277	0.182101
C51	C	0.171365	0.062792	0.182085
C52	C	0.196564	0.063053	0.091133
C53	C	0.574737	-0.026628	0.000253
C54	C	0.574194	-0.080284	0.000263
C55	C	0.570785	-0.412999	-0.090736
C56	C	0.568724	-0.614657	-0.090755
O57	O	0.568442	-0.640727	-0.168104
N58	N	0.568462	-0.639875	0.000193
C59	C	0.568713	-0.614675	0.091151
O60	O	0.568438	-0.640751	0.168507
C61	C	0.570770	-0.413018	0.091169
C62	C	0.571037	-0.387803	0.000215
C63	C	0.571051	-0.387784	-0.181682
C64	C	0.571569	-0.337373	-0.181677
C65	C	0.571821	-0.312177	-0.090725
C66	C	0.571555	-0.337392	0.000221
C67	C	0.571017	-0.387818	0.182126
C68	C	0.571530	-0.337400	0.182122
C69	C	0.571797	-0.312186	0.091169
C70	C	0.572324	-0.261784	0.091178
N71	N	0.572586	-0.236567	0.000230
C72	C	0.572334	-0.261763	-0.090721
C73	C	0.567633	-0.720548	0.091135
C74	C	0.567120	-0.770962	0.091131
C75	C	0.567130	-0.770941	-0.090775
C76	C	0.567647	-0.720526	-0.090770
C77	C	0.567895	-0.695330	0.000188
C78	C	0.573423	-0.155896	-0.090703
C79	C	0.573942	-0.105481	-0.090689
C80	C	0.573929	-0.105506	0.091217
C81	C	0.573412	-0.155918	0.091204
C82	C	0.573157	-0.181111	0.000236
O83	O	0.572601	-0.235683	0.168486
O84	O	0.572599	-0.235677	-0.168065
C85	C	0.570267	-0.463410	-0.090742
C86	C	0.570001	-0.488625	0.000204
C87	C	0.570253	-0.463429	0.091156
C88	C	0.569488	-0.539039	0.000200
C89	C	0.569236	-0.564236	-0.090752
C90	C	0.569498	-0.539018	-0.181699
C91	C	0.570016	-0.488607	-0.181693
C92	C	0.569991	-0.488647	0.182103
C93	C	0.569474	-0.539058	0.182090
C94	C	0.569222	-0.564254	0.091138
C95	C	0.658938	0.057572	0.000263
C96	C	0.712594	0.058114	0.000279
C97	C	0.566325	0.150185	0.000196
C98	C	0.566868	0.203841	0.000180
N99	N	0.570519	0.061776	0.237665
N100	N	0.570547	0.061777	-0.237214
C101	C	0.537421	0.094882	0.710264
C102	C	0.603667	0.028673	0.710280
C103	C	0.603661	0.028672	0.605262
C104	C	0.570536	0.061776	0.552740
C105	C	0.537416	0.094882	0.605235
C106	C	0.636784	-0.004431	0.552758
C107	C	0.636780	-0.004433	0.447734
C108	C	0.603652	0.028670	0.395209
C109	C	0.570530	0.061777	0.447712
C110	C	0.537405	0.094881	0.395189
C111	C	0.504280	0.127986	0.447689
C112	C	0.504287	0.127985	0.552711
C113	C	0.603645	0.028671	0.290188
C114	C	0.537399	0.094882	0.290161
H115	H	-0.050833	0.060537	-0.255735
F116	F	0.570731	-0.414642	0.278933
H117	H	0.423791	0.065396	0.165178
F118	F	0.430081	0.065464	-0.187590
F119	F	0.566861	-0.797765	-0.187573
H120	H	0.566910	-0.791489	0.165195
H121	H	0.571725	-0.316887	0.256193
H122	H	0.332314	0.064465	-0.164844
H123	H	0.332344	0.064446	0.165196
H124	H	0.100442	0.062063	0.256167
F125	F	0.469029	0.163221	0.391780
F126	F	0.046949	0.061508	0.278934
F127	F	0.469037	0.163216	0.608589
H128	H	0.567837	-0.700038	0.165208
F129	F	0.638899	-0.006557	0.234319
F130	F	-0.057104	0.060436	0.278941
H131	H	0.574161	-0.084953	-0.164757
F132	F	0.198192	0.063065	0.278896
F133	F	0.573151	-0.182702	-0.187521
H134	H	0.510422	0.121838	0.247403
F135	F	0.672040	-0.039658	0.608656
F136	F	0.672033	-0.039666	0.391866
H137	H	-0.191281	0.059097	-0.164765
F138	F	-0.289037	0.058107	-0.187481
F139	F	0.573137	-0.182755	0.188006
F140	F	-0.184942	0.059159	0.188017
F141	F	0.574198	-0.078682	0.188009
F142	F	0.094099	0.062018	-0.278500
F143	F	0.046914	0.061536	-0.278493
F144	F	0.567930	-0.693695	-0.187574
H145	H	-0.282713	0.058158	0.165283
H146	H	0.571785	-0.316848	-0.255740
F147	F	0.570783	-0.414593	-0.278494
F148	F	0.570299	-0.461777	-0.278499
H149	H	0.191862	0.063017	-0.255761
H150	H	0.569295	-0.559542	-0.255755
F151	F	0.569193	-0.565888	0.278902
H152	H	0.570197	-0.468137	0.256168
F153	F	0.502167	0.130111	0.766136
H154	H	0.630639	0.001723	0.753048
