data_functionalizedCrystal
_audit_creation_method	'MofGen! by Chris Wilmer'
_symmetry_space_group_name_H-M	'P1'
_symmetry_Int_Tables_number	1
_symmetry_cell_setting	triclinic
loop_
_symmetry_equiv_pos_as_xyz
  x,y,z
_cell_length_a	25.427154
_cell_length_b	25.426324
_cell_length_c	25.422586
_cell_angle_alpha	60.006367
_cell_angle_beta	60.012446
_cell_angle_gamma	59.992398
loop_
_atom_site_label
_atom_site_type_symbol
_atom_site_fract_x
_atom_site_fract_y
_atom_site_fract_z
O1	O	0.072968	-0.768436	0.642532
O2	O	0.027520	-0.598284	0.517710
O3	O	0.135268	-0.705940	0.517611
O4	O	-0.034780	-0.660780	0.642632
O5	O	0.171018	-0.670200	0.553260
O6	O	0.063270	-0.562544	0.553360
O7	O	0.108718	-0.732696	0.678182
Zn8	Zn	0.091670	-0.641945	0.621431
Zn9	Zn	0.044568	-0.689034	0.574461
O10	O	0.000970	-0.625039	0.678281
N11	N	0.123818	-0.609812	0.653490
N12	N	0.012426	-0.721173	0.542402
C13	C	0.168482	-0.466269	0.698103
C14	C	0.168494	-0.565177	0.698095
C15	C	0.193243	-0.540453	0.722807
C16	C	0.301113	-0.521853	0.665993
C17	C	0.368545	-0.544324	0.643486
C18	C	0.368579	-0.653434	0.685090
C19	C	0.301149	-0.630961	0.707599
C20	C	0.184722	-0.432539	0.631812
C21	C	0.162210	-0.365100	0.609357
C22	C	0.107225	-0.365129	0.719489
C23	C	0.129737	-0.432567	0.741943
C24	C	0.102194	-0.548896	0.714421
C25	C	0.079702	-0.571372	0.691949
C26	C	0.189805	-0.626409	0.636839
C27	C	0.212300	-0.603934	0.659303
C28	C	0.102289	-0.548918	0.830735
C29	C	0.079866	-0.571415	0.898171
C30	C	0.190015	-0.626466	0.898104
C31	C	0.212437	-0.603971	0.830666
C32	C	0.168573	-0.565195	0.796984
C33	C	0.267418	-0.565170	0.698047
C34	C	-0.130981	-0.765617	0.497386
C35	C	-0.032127	-0.765741	0.497606
C36	C	-0.056804	-0.790430	0.472789
C37	C	-0.075480	-0.898263	0.529507
C38	C	-0.053057	-0.965702	0.552014
C39	C	0.056052	-0.965829	0.510599
C40	C	0.033627	-0.898392	0.488091
C41	C	-0.164787	-0.781859	0.563659
C42	C	-0.232219	-0.759299	0.586018
C43	C	-0.232034	-0.704261	0.475827
C44	C	-0.164602	-0.726821	0.453469
C45	C	-0.048372	-0.699446	0.481299
C46	C	-0.025938	-0.677008	0.503867
C47	C	0.028987	-0.787155	0.559036
C48	C	0.006552	-0.809596	0.536475
C49	C	-0.048188	-0.699454	0.364860
C50	C	-0.025608	-0.677017	0.297425
C51	C	0.029406	-0.787170	0.297492
C52	C	0.006827	-0.809605	0.364929
C53	C	-0.031972	-0.765745	0.398611
C54	C	-0.032140	-0.864611	0.497548
N55	N	0.401319	-0.609788	0.653344
O56	O	0.621664	-0.620517	0.494685
O57	O	0.621901	-0.745740	0.664659
O58	O	0.621803	-0.745452	0.556857
O59	O	0.621762	-0.620805	0.602487
O60	O	0.514676	-0.709815	0.592658
O61	O	0.514774	-0.710104	0.700460
O62	O	0.514537	-0.584881	0.530485
Zn63	Zn	0.497647	-0.641834	0.621157
Zn64	Zn	0.638791	-0.688787	0.573988
O65	O	0.514635	-0.585169	0.638287
N66	N	0.735119	-0.720834	0.541794
N67	N	0.123794	-0.332357	0.653504
O68	O	-0.034774	-0.111885	0.642639
O69	O	0.135202	-0.111860	0.517412
O70	O	0.027364	-0.111888	0.517742
O71	O	0.073064	-0.111857	0.642310
O72	O	0.063120	-0.219026	0.553444
O73	O	0.170958	-0.218998	0.553115
O74	O	0.000983	-0.219022	0.678342
Zn75	Zn	0.091647	-0.236020	0.621397
Zn76	Zn	0.044537	-0.094862	0.574357
O77	O	0.108821	-0.218994	0.678013
N78	N	0.012383	0.001474	0.542251
N79	N	0.124036	-0.609854	0.930891
O80	O	0.113202	-0.768401	1.151342
O81	O	-0.011992	-0.598359	1.151385
O82	O	-0.011700	-0.706176	1.151343
O83	O	0.112910	-0.660584	1.151384
O84	O	0.023980	-0.670446	1.044212
O85	O	0.023689	-0.562630	1.044253
O86	O	0.148882	-0.732671	1.044211
Zn87	Zn	0.091951	-0.641977	1.027223
Zn88	Zn	0.044940	-0.689053	1.168373
O89	O	0.148590	-0.624854	1.044252
N90	N	0.012853	-0.721183	1.264704
C91	C	0.041135	-0.558973	0.518338
C92	C	0.174567	-0.692292	0.518215
C93	C	0.095103	-0.772007	0.677553
C94	C	-0.038330	-0.638687	0.677677
C95	C	0.568366	-0.745166	0.703974
C96	C	0.568246	-0.744810	0.570474
C97	C	0.568069	-0.585454	0.491172
C98	C	0.568192	-0.585812	0.624671
C99	C	0.174449	-0.165294	0.517975
C100	C	0.040949	-0.165460	0.518427
C101	C	-0.038309	-0.165456	0.677735
C102	C	0.095236	-0.165423	0.677328
C103	C	-0.011393	-0.559072	1.097824
C104	C	-0.011024	-0.692583	1.097752
C105	C	0.148283	-0.771958	1.097772
C106	C	0.147922	-0.638440	1.097820
H107	H	0.025889	-0.558152	0.925643
O108	O	0.194612	-0.626876	1.097937
C109	C	0.264934	-0.657896	1.153415
C110	C	0.212049	-0.671052	1.153370
H111	H	0.279057	-0.693613	1.198220
H112	H	0.246066	-0.606728	1.153470
H113	H	0.308866	-0.663634	1.108554
H114	H	0.168099	-0.665350	1.198223
H115	H	0.230968	-0.722216	1.153281
O116	O	-0.057768	-0.704202	1.097798
C117	C	-0.165040	-0.710166	1.153186
C118	C	-0.112153	-0.697005	1.153222
H119	H	-0.209028	-0.704339	1.197985
H120	H	-0.146193	-0.761357	1.153197
H121	H	-0.179065	-0.674497	1.108318
H122	H	-0.098104	-0.732633	1.198082
H123	H	-0.131029	-0.645797	1.153177
H124	H	0.567992	-0.546139	0.442358
H125	H	0.105023	-0.165413	0.716462
O126	O	0.232785	-0.703673	0.471295
C127	C	0.298870	-0.661249	0.362709
C128	C	0.232905	-0.648280	0.415784
H129	H	0.298994	-0.616468	0.317820
H130	H	0.308283	-0.703363	0.350561
H131	H	0.338189	-0.673508	0.380477
H132	H	0.193545	-0.635993	0.398060
H133	H	0.223548	-0.606183	0.427923
O134	O	0.568147	-0.539157	0.636430
C135	C	0.568244	-0.509706	0.712936
C136	C	0.568279	-0.562593	0.699710
H137	H	0.568364	-0.528639	0.764092
H138	H	0.523364	-0.465756	0.707263
H139	H	0.613029	-0.495580	0.677221
H140	H	0.523525	-0.576774	0.735413
H141	H	0.613189	-0.606508	0.705361
H142	H	0.187590	-0.820792	1.097751
O143	O	-0.058267	-0.500785	1.097723
C144	C	-0.128746	-0.406251	1.042252
C145	C	-0.075653	-0.472242	1.042280
H146	H	-0.142828	-0.383160	0.997438
H147	H	-0.110103	-0.373729	1.042225
H148	H	-0.172649	-0.413031	1.087105
H149	H	-0.031732	-0.465522	0.997435
H150	H	-0.094349	-0.504740	1.042340
H151	H	0.066565	-0.517338	0.803314
O152	O	0.106576	-0.830320	0.724348
C153	C	0.075514	-0.925038	0.794682
C154	C	0.062442	-0.859005	0.741701
H155	H	0.039848	-0.948256	0.808718
H156	H	0.069712	-0.918373	0.838654
H157	H	0.126697	-0.957392	0.775861
H158	H	0.011261	-0.826617	0.760461
H159	H	0.068286	-0.865719	0.697739
O160	O	-0.264630	-0.666655	0.433109
C161	C	-0.285161	-0.658038	0.345787
C162	C	-0.248195	-0.700691	0.394118
H163	H	-0.271897	-0.685545	0.314259
H164	H	-0.271836	-0.612319	0.314187
H165	H	-0.339159	-0.644686	0.373171
H166	H	-0.194189	-0.714093	0.366786
H167	H	-0.261573	-0.746381	0.425717
O168	O	0.232324	-0.664138	0.599237
C169	C	0.270836	-0.766744	0.587123
C170	C	0.222662	-0.724101	0.629791
H171	H	0.263032	-0.815228	0.611803
H172	H	0.322105	-0.774575	0.579317
H173	H	0.263007	-0.741974	0.538633
H174	H	0.230433	-0.748834	0.678305
H175	H	0.171411	-0.716268	0.637544
H176	H	0.223163	-0.164989	0.478564
H177	H	-0.087172	-0.629063	0.716934
O178	O	0.029188	-0.165517	0.471823
C179	C	-0.047372	-0.165544	0.442401
C180	C	-0.034138	-0.165482	0.495236
H181	H	-0.098574	-0.165502	0.461306
H182	H	-0.011745	-0.210399	0.428339
H183	H	-0.041603	-0.120726	0.398419
H184	H	-0.039915	-0.210270	0.539252
H185	H	-0.069763	-0.120598	0.509244
H186	H	0.568427	-0.784476	0.752793
H187	H	0.225736	-0.658027	0.925521
H188	H	0.266414	-0.617231	0.803190
H189	H	0.568264	-0.783967	0.560707
O190	O	-0.096592	-0.165340	0.724580
C191	C	-0.211188	-0.109853	0.755698
C192	C	-0.145222	-0.109901	0.702597
H193	H	-0.250525	-0.065042	0.737940
H194	H	-0.211283	-0.109800	0.800563
H195	H	-0.220595	-0.154713	0.767891
H196	H	-0.135774	-0.065048	0.690349
H197	H	-0.145160	-0.109987	0.657766
O198	O	0.059615	-0.511155	0.752002
C199	C	-0.027675	-0.411926	0.760684
C200	C	0.020522	-0.454597	0.718047
H201	H	-0.059303	-0.366196	0.733253
H202	H	-0.000246	-0.398604	0.773930
H203	H	-0.059187	-0.439416	0.806457
H204	H	0.052047	-0.427147	0.672247
H205	H	-0.006946	-0.467923	0.704853
O206	O	0.015314	-0.555676	0.707830
C207	C	-0.073939	-0.594448	0.759779
C208	C	-0.001012	-0.612313	0.741823
H209	H	-0.087164	-0.640228	0.787277
H210	H	-0.087278	-0.567015	0.714053
H211	H	-0.101376	-0.562865	0.791339
H212	H	0.026475	-0.643917	0.710280
H213	H	0.012277	-0.639713	0.787576
O214	O	0.276716	-0.619700	0.643329
C215	C	0.377643	-0.614452	0.557786
C216	C	0.304705	-0.596580	0.575789
H217	H	0.400291	-0.595755	0.503180
H218	H	0.400462	-0.669055	0.576318
H219	H	0.386162	-0.591737	0.580541
H220	H	0.296127	-0.619251	0.553040
H221	H	0.281922	-0.541972	0.557269
O222	O	0.268516	-0.673125	0.738697
C223	C	0.275669	-0.783724	0.777616
C224	C	0.312706	-0.736043	0.742373
H225	H	0.311381	-0.834605	0.780612
H226	H	0.244087	-0.770235	0.750065
H227	H	0.244114	-0.781633	0.828309
H228	H	0.344296	-0.738109	0.691680
H229	H	0.344247	-0.749548	0.769973
H230	H	0.395978	-0.509050	0.617384
O231	O	0.268449	-0.457927	0.656686
C232	C	0.275535	-0.352073	0.613005
C233	C	0.312609	-0.424455	0.623516
H234	H	0.311223	-0.324988	0.586175
H235	H	0.244012	-0.344527	0.661619
H236	H	0.243917	-0.333113	0.583400
H237	H	0.344262	-0.443463	0.653099
H238	H	0.344091	-0.431958	0.574881
H239	H	0.216267	-0.459978	0.596113
O240	O	0.178063	-0.332430	0.544937
C241	C	0.234940	-0.339515	0.438067
C242	C	0.217046	-0.376593	0.511004
H243	H	0.266448	-0.375205	0.410611
H244	H	0.262425	-0.307954	0.424746
H245	H	0.189147	-0.307928	0.424849
H246	H	0.262805	-0.408215	0.524274
H247	H	0.189536	-0.408113	0.524286
H248	H	0.075686	-0.337687	0.755188
O249	O	0.114040	-0.465309	0.806349
C250	C	0.119219	-0.485938	0.907338
C251	C	0.137052	-0.448830	0.834408
H252	H	0.137805	-0.472617	0.930047
H253	H	0.141982	-0.539934	0.915894
H254	H	0.064622	-0.472699	0.930072
H255	H	0.191640	-0.462015	0.811626
H256	H	0.114243	-0.394842	0.825897
O257	O	-0.041485	-0.612610	0.264676
C258	C	-0.126907	-0.511547	0.243927
C259	C	-0.109015	-0.584479	0.281045
H260	H	-0.181505	-0.488779	0.257158
H261	H	-0.104158	-0.503000	0.189936
H262	H	-0.108296	-0.488861	0.257244
H263	H	-0.127622	-0.607213	0.267782
H264	H	-0.131754	-0.592980	0.335027
O265	O	-0.085776	-0.656826	0.397556
C266	C	-0.094408	-0.569587	0.418212
C267	C	-0.051775	-0.617829	0.381151
H268	H	-0.066940	-0.538037	0.404951
H269	H	-0.107737	-0.596983	0.472212
H270	H	-0.140133	-0.537994	0.404874
H271	H	-0.006022	-0.649434	0.394435
H272	H	-0.038497	-0.590393	0.327160
H273	H	0.396045	-0.707006	0.692856
H274	H	0.060986	-0.822887	0.270075
O275	O	0.029486	-0.500693	0.471547
C276	C	-0.035837	-0.423100	0.403745
C277	C	-0.022705	-0.489120	0.456727
H278	H	-0.078043	-0.413717	0.391757
H279	H	0.008830	-0.422862	0.358752
H280	H	-0.048047	-0.383821	0.421539
H281	H	-0.010512	-0.528436	0.438994
H282	H	-0.067383	-0.489303	0.501710
O283	O	0.022504	-0.874010	0.397685
C284	C	0.017351	-0.974970	0.418245
C285	C	-0.000456	-0.902040	0.381121
H286	H	-0.001193	-0.997656	0.404857
H287	H	-0.005468	-0.983512	0.472236
H288	H	0.071943	-0.997743	0.405093
H289	H	-0.055040	-0.879219	0.394220
H290	H	0.022408	-0.893544	0.327140
O291	O	0.066532	-0.829845	0.596804
C292	C	0.118676	-0.941470	0.649106
C293	C	0.076139	-0.893192	0.606338
H294	H	0.126468	-0.992696	0.656817
H295	H	0.093914	-0.933722	0.697634
H296	H	0.167180	-0.933724	0.624488
H297	H	0.027629	-0.900908	0.630899
H298	H	0.100952	-0.900952	0.557813
O299	O	-0.086027	-0.656904	0.443619
C300	C	-0.188622	-0.618229	0.431419
C301	C	-0.146038	-0.666455	0.474145
H302	H	-0.237155	-0.625924	0.456089
H303	H	-0.163905	-0.626022	0.382917
H304	H	-0.196347	-0.567000	0.423636
H305	H	-0.138299	-0.717702	0.481980
H306	H	-0.170775	-0.658605	0.522620
H307	H	0.019779	-0.863579	0.549754
O308	O	0.075814	-0.865801	0.457083
C309	C	0.186408	-0.873047	0.418348
C310	C	0.138700	-0.910036	0.453490
H311	H	0.237263	-0.908795	0.415419
H312	H	0.172890	-0.841486	0.445932
H313	H	0.184389	-0.841469	0.367631
H314	H	0.140694	-0.941649	0.504207
H315	H	0.152233	-0.941556	0.425857
H316	H	0.109606	-0.993335	0.502902
O317	O	-0.095258	-0.998293	0.583148
C318	C	-0.205867	-0.991052	0.621995
C319	C	-0.158138	-0.954061	0.586690
H320	H	-0.256714	-0.955306	0.624858
H321	H	-0.203878	-1.022552	0.672734
H322	H	-0.192331	-1.022691	0.594486
H323	H	-0.171641	-0.922386	0.614145
H324	H	-0.160135	-0.922601	0.535948
H325	H	-0.039168	-0.623025	0.490592
H326	H	-0.129033	-0.870764	0.537213
H327	H	-0.259745	-0.772522	0.639985
O328	O	-0.132226	-0.819514	0.606405
C329	C	-0.139527	-0.871749	0.718061
C330	C	-0.176481	-0.829086	0.669720
H331	H	-0.175291	-0.879512	0.769261
H332	H	-0.107970	-0.847099	0.710413
H333	H	-0.107953	-0.920261	0.710291
H334	H	-0.208090	-0.780566	0.677461
H335	H	-0.207997	-0.853787	0.677380
H336	H	-0.137077	-0.713589	0.399501
