data_functionalizedCrystal
_audit_creation_method	'MofGen! by Chris Wilmer'
_symmetry_space_group_name_H-M	'P1'
_symmetry_Int_Tables_number	1
_symmetry_cell_setting	triclinic
loop_
_symmetry_equiv_pos_as_xyz
  x,y,z
_cell_length_a	10.723023
_cell_length_b	10.723022
_cell_length_c	16.053802
_cell_angle_alpha	92.591234
_cell_angle_beta	87.394764
_cell_angle_gamma	84.467387
loop_
_atom_site_label
_atom_site_type_symbol
_atom_site_fract_x
_atom_site_fract_y
_atom_site_fract_z
O1	O	1.662407	0.169814	-0.069418
O2	O	2.162407	0.669814	0.430582
O3	O	1.299255	0.186569	-0.069422
O4	O	1.799255	0.686569	0.430578
O5	O	1.489208	-0.003385	-0.069417
O6	O	1.989208	0.496615	0.430583
O7	O	1.472453	0.359768	-0.069423
O8	O	1.972453	0.859768	0.430577
O9	O	1.478752	0.007027	0.069442
O10	O	1.978752	0.507027	0.569442
O11	O	1.288799	0.196981	0.069437
O12	O	1.788799	0.696981	0.569437
O13	O	1.651951	0.180227	0.069440
O14	O	2.151951	0.680227	0.569440
Zn15	Zn	1.468715	0.190257	0.091485
Zn16	Zn	1.968715	0.690257	0.591485
Zn17	Zn	1.482491	0.176538	-0.091467
Zn18	Zn	1.982491	0.676538	0.408533
O19	O	1.461997	0.370180	0.069435
O20	O	1.961997	0.870180	0.569435
C21	C	1.247527	0.190556	0.000007
C22	C	1.747527	0.690556	0.500007
C23	C	1.108973	0.186908	0.000006
C24	C	1.608973	0.686908	0.500006
C25	C	1.041784	0.190676	0.071938
C26	C	1.541784	0.690676	0.571938
C27	C	0.898581	0.186906	0.071938
C28	C	1.398581	0.686906	0.571938
C29	C	1.482761	-0.044678	0.000011
C30	C	1.982761	0.455322	0.500011
C31	C	1.479115	-0.183233	0.000008
C32	C	1.979115	0.316767	0.500008
C33	C	1.369575	-0.231794	0.000006
C34	C	1.869575	0.268206	0.500006
C35	C	1.365803	-0.374997	0.000003
C36	C	1.865803	0.125003	0.500003
C37	C	1.703679	0.176239	0.000009
C38	C	2.203679	0.676239	0.500009
C39	C	1.842233	0.179886	0.000005
C40	C	2.342233	0.679886	0.500005
C41	C	1.468444	0.411473	0.000005
C42	C	1.968444	0.911473	0.500005
C43	C	1.472091	0.550027	0.000003
C44	C	1.972091	1.050027	0.500003
N45	N	1.459322	0.199618	0.216345
N46	N	1.959322	0.699618	0.716345
N47	N	1.491893	0.167167	-0.216327
N48	N	1.991893	0.667167	0.283673
C49	C	1.540178	0.118822	0.260041
C50	C	2.040178	0.618822	0.760041
C51	C	1.533619	0.125383	0.347448
C52	C	2.033619	0.625383	0.847448
C53	C	1.446210	0.212747	0.391157
C54	C	1.946210	0.712747	0.891157
C55	C	1.365346	0.293546	0.347455
C56	C	1.865346	0.793546	0.847455
C57	C	1.371899	0.286979	0.260050
C58	C	1.871899	0.786979	0.760050
C59	C	1.417583	0.241399	0.652566
C60	C	1.917583	0.741399	1.152566
C61	C	1.411038	0.247963	0.739977
C62	C	1.911038	0.747963	1.239977
C63	C	1.579310	0.079797	0.739964
C64	C	2.079310	0.579797	1.239964
C65	C	1.585861	0.073243	0.652557
C66	C	2.085861	0.573243	1.152557
C67	C	1.504993	0.154038	0.608863
C68	C	2.004993	0.654038	1.108863
N69	N	1.439506	0.219457	0.480501
N70	N	1.939506	0.719457	0.980501
N71	N	1.511691	0.147320	0.519521
N72	N	2.011691	0.647320	1.019521
H73	H	0.899984	0.176674	-0.061582
H74	H	1.399984	0.676674	0.438418
O75	O	1.634450	0.024589	0.212899
O76	O	2.134450	0.524589	0.712899
H77	H	1.689561	-0.030500	0.257971
H78	H	2.189561	0.469500	0.757971
O79	O	1.596334	-0.394604	-0.000003
O80	O	2.096334	0.105396	0.499997
H81	H	1.673618	-0.471318	-0.000012
H82	H	2.173618	0.028682	0.499988
H83	H	1.599457	0.059592	0.383025
H84	H	2.099457	0.559592	0.883025
O85	O	1.680127	-0.020995	0.605413
O86	O	2.180127	0.479005	1.105413
H87	H	1.735242	-0.076087	0.650483
H88	H	2.235242	0.423913	1.150483
O89	O	0.822245	0.191307	0.153590
O90	O	1.322245	0.691307	0.653590
H91	H	0.834211	0.279641	0.189799
H92	H	1.334211	0.779641	0.689799
O93	O	1.106004	0.198658	0.153519
O94	O	1.606004	0.698658	0.653519
H95	H	1.175457	0.115588	0.157093
H96	H	1.675457	0.615588	0.657093
H97	H	1.060478	0.180888	-0.061578
H98	H	1.560478	0.680888	0.438422
H99	H	1.645148	0.014016	0.775548
H100	H	2.145148	0.514016	1.275548
H101	H	1.278586	-0.167351	0.000010
H102	H	1.778586	0.332649	0.500010
H103	H	1.570103	-0.247675	0.000012
H104	H	2.070103	0.252325	0.500012
H105	H	1.339855	0.319110	0.775561
H106	H	1.839855	0.819110	1.275561
O107	O	1.330377	0.328549	0.605442
O108	O	1.830377	0.828549	1.105442
H109	H	1.268509	0.390410	0.650523
H110	H	1.768509	0.890410	1.150523
O111	O	1.241560	-0.430363	0.000007
O112	O	1.741560	0.069637	0.500007
H113	H	1.258094	-0.534150	0.000013
H114	H	1.758094	-0.034150	0.500013
H115	H	1.294169	0.364675	0.383048
H116	H	1.794169	0.864675	0.883048
H117	H	1.306057	0.352770	0.224473
H118	H	1.806057	0.852770	0.724473
