data_functionalizedCrystal
_audit_creation_method	'MofGen! by Chris Wilmer'
_symmetry_space_group_name_H-M	'P1'
_symmetry_Int_Tables_number	1
_symmetry_cell_setting	triclinic
loop_
_symmetry_equiv_pos_as_xyz
  x,y,z
_cell_length_a	16.974813
_cell_length_b	13.339071
_cell_length_c	16.053802
_cell_angle_alpha	93.278716
_cell_angle_beta	88.912550
_cell_angle_gamma	80.520840
loop_
_atom_site_label
_atom_site_type_symbol
_atom_site_fract_x
_atom_site_fract_y
_atom_site_fract_z
O1	O	0.392971	-1.347638	-0.096002
O2	O	0.341078	-1.052967	-0.092492
O3	O	0.253985	-1.208041	-0.086606
O4	O	0.480064	-1.192564	-0.101889
O5	O	0.258751	-1.199505	0.051931
O6	O	0.345844	-1.044431	0.046044
O7	O	0.397737	-1.339102	0.042535
Zn8	Zn	0.372547	-1.190411	0.066285
Zn9	Zn	0.366268	-1.201658	-0.116243
O10	O	0.484830	-1.184028	0.036648
C11	C	0.334695	-1.010986	-0.022631
C12	C	0.308567	-0.898612	-0.020865
C13	C	0.227086	-0.857688	-0.015353
C14	C	0.202534	-0.752108	-0.013697
C15	C	0.259461	-0.687440	-0.017545
C16	C	0.340943	-0.728363	-0.023051
C17	C	0.365497	-0.833954	-0.024714
C18	C	0.397872	-0.663706	-0.026906
C19	C	0.479354	-0.704629	-0.032412
C20	C	0.503904	-0.810210	-0.034074
C21	C	0.446978	-0.874878	-0.030225
C22	C	0.373318	-0.558115	-0.025243
C23	C	0.511729	-0.534381	-0.034604
C24	C	0.536281	-0.639961	-0.036260
C25	C	0.226841	-1.203026	-0.015343
C26	C	0.138858	-1.200787	-0.009401
C27	C	0.094930	-1.204390	-0.082125
C28	C	0.012260	-1.202280	-0.076539
C29	C	-0.026480	-1.196574	0.001772
C30	C	0.017454	-1.192967	0.074501
C31	C	0.100122	-1.195070	0.068915
C32	C	-0.273442	-1.189779	0.026579
C33	C	-0.356116	-1.187679	0.032160
C34	C	-0.361304	-1.196990	-0.118881
C35	C	-0.278633	-1.199099	-0.124461
C36	C	-0.234708	-1.195487	-0.051732
N37	N	-0.110981	-1.194420	0.007484
N38	N	-0.150209	-1.197633	-0.057444
C39	C	0.511974	-1.189043	-0.034616
C40	C	0.599956	-1.191282	-0.040564
N41	N	0.376834	-1.182744	0.190856
C42	C	0.404120	-0.381083	-0.027326
C43	C	0.430248	-0.493457	-0.029093
N44	N	0.361976	-1.209334	-0.240813
C45	C	0.339800	-1.248752	0.237053
C46	C	0.342808	-1.243398	0.324256
C47	C	0.382856	-1.172039	0.365261
C48	C	0.419892	-1.106024	0.319057
C49	C	0.416878	-1.111374	0.231856
C50	C	0.395998	-1.148668	0.625782
C51	C	0.399011	-1.143325	0.712990
C52	C	0.321925	-1.280698	0.718183
C53	C	0.318920	-1.286046	0.630979
C54	C	0.355951	-1.220028	0.584783
N55	N	0.385934	-1.166566	0.454396
N56	N	0.352868	-1.225496	0.495650
H57	H	0.239466	-0.601472	-0.016196
O58	O	0.301000	-1.318134	0.197161
C59	C	0.355139	-1.383781	0.142883
H60	H	0.418623	-1.384114	0.164921
H61	H	0.340516	-1.464189	0.142834
H62	H	0.350056	-1.356128	0.077002
H63	H	-0.237686	-1.186858	0.085800
H64	H	-0.247097	-1.203747	-0.188230
O65	O	0.142680	-1.191596	0.139641
C66	C	0.090759	-1.186077	0.209960
H67	H	0.034813	-1.217975	0.191556
H68	H	0.122198	-1.232510	0.260784
H69	H	0.073281	-1.103285	0.234401
O70	O	0.615416	-0.679777	-0.041761
C71	C	0.631280	-0.744583	-0.114741
H72	H	0.582884	-0.722584	-0.161732
H73	H	0.691938	-0.736774	-0.142984
H74	H	0.631849	-0.826792	-0.098520
O75	O	0.294203	-0.518203	-0.019930
C76	C	0.284733	-0.411144	-0.019266
H77	H	0.339949	-0.388132	-0.049289
H78	H	0.229819	-0.381076	-0.055865
H79	H	0.276773	-0.377651	0.047891
O80	O	0.458681	-1.036566	0.358859
C81	C	0.423177	-0.937642	0.339908
H82	H	0.359102	-0.938451	0.320219
H83	H	0.423095	-0.883351	0.397405
H84	H	0.458624	-0.911131	0.286779
O85	O	-0.030490	-1.205924	-0.147118
C86	C	-0.068217	-1.292588	-0.149081
H87	H	-0.074922	-1.317418	-0.082899
H88	H	-0.129755	-1.273390	-0.176947
H89	H	-0.030482	-1.357034	-0.188984
H90	H	0.447034	-1.057622	0.194243
H91	H	0.312651	-1.297146	0.361870
H92	H	0.558083	-0.481728	-0.037738
O93	O	0.123359	-0.712523	-0.008305
C94	C	0.078378	-0.792238	-0.005282
H95	H	0.117071	-0.862408	0.018388
H96	H	0.024270	-0.767554	0.038694
H97	H	0.057420	-0.811210	-0.070482
H98	H	0.180746	-0.910349	-0.012226
O99	O	0.132429	-1.209891	-0.158264
C100	C	0.075928	-1.212642	-0.221253
H101	H	0.014023	-1.177762	-0.194876
H102	H	0.092262	-1.167405	-0.275297
H103	H	0.075811	-1.294982	-0.244521
H104	H	0.466964	-0.960851	-0.031570
O105	O	0.279950	-1.355391	0.591284
C106	C	0.247923	-1.412523	0.650758
H107	H	0.240085	-1.367209	0.713602
H108	H	0.187457	-1.429341	0.629595
H109	H	0.290327	-1.487215	0.657169
H110	H	0.431625	-1.085213	0.746371
H111	H	0.570252	-0.843526	-0.038569
H112	H	-0.387656	-1.183027	0.095933
O113	O	-0.404039	-1.200300	-0.189495
C114	C	-0.462250	-1.111783	-0.190065
H115	H	-0.443003	-1.048566	-0.148409
H116	H	-0.468927	-1.086464	-0.256559
H117	H	-0.521890	-1.128738	-0.165692
O118	O	-0.020295	-1.187475	0.150507
C119	C	-0.102682	-1.186371	0.139846
H120	H	-0.112465	-1.222097	0.075452
H121	H	-0.126704	-1.231705	0.189809
H122	H	-0.135497	-1.104423	0.145656
O123	O	0.285962	-1.344713	0.763186
C124	C	0.297224	-1.324711	0.848944
H125	H	0.309478	-1.243588	0.860067
H126	H	0.241113	-1.333776	0.885959
H127	H	0.350185	-1.380594	0.870152
O128	O	0.432046	-1.084500	0.581039
C129	C	0.468024	-1.020359	0.635935
H130	H	0.480156	-1.058053	0.697409
H131	H	0.526750	-1.006630	0.606708
H132	H	0.426262	-0.944529	0.648076
