data_functionalizedCrystal
_audit_creation_method	'MofGen! by Chris Wilmer'
_symmetry_space_group_name_H-M	'P1'
_symmetry_Int_Tables_number	1
_symmetry_cell_setting	triclinic
loop_
_symmetry_equiv_pos_as_xyz
  x,y,z
_cell_length_a	10.654550
_cell_length_b	11.792241
_cell_length_c	9.130313
_cell_angle_alpha	89.998583
_cell_angle_beta	89.996220
_cell_angle_gamma	84.339159
loop_
_atom_site_label
_atom_site_type_symbol
_atom_site_fract_x
_atom_site_fract_y
_atom_site_fract_z
O1	O	1.667383	0.159415	-0.121920
O2	O	1.301862	0.174603	-0.121897
O3	O	1.493493	0.001859	-0.121899
O4	O	1.475752	0.332159	-0.121918
O5	O	1.493490	0.001864	0.121700
O6	O	1.301859	0.174608	0.121702
O7	O	1.667381	0.159419	0.121678
Cu8	Cu	1.484620	0.167014	0.143933
Cu9	Cu	1.484623	0.167008	-0.144151
O10	O	1.475750	0.332164	0.121680
C11	C	1.255066	0.173490	-0.000095
C12	C	1.115632	0.170154	-0.000085
C13	C	1.035858	0.271863	-0.000113
C14	C	0.904847	0.268721	-0.000138
C15	C	0.933394	0.062152	-0.000114
C16	C	1.064404	0.065295	-0.000079
C17	C	1.087087	0.376722	-0.000119
C18	C	1.007312	0.478439	-0.000148
C19	C	0.876300	0.475297	-0.000173
C20	C	0.825063	0.370438	-0.000170
C21	C	1.492377	-0.040432	-0.000100
C22	C	1.489042	-0.166454	-0.000101
C23	C	1.482908	-0.397180	-0.000125
C24	C	1.486316	-0.268787	-0.000112
C25	C	1.714177	0.160532	-0.000127
C26	C	1.853611	0.163869	-0.000146
C27	C	1.476865	0.374455	-0.000122
C28	C	1.480201	0.500476	-0.000130
N29	N	1.484627	0.167017	0.346555
N30	N	1.484625	0.166996	-0.346774
C31	C	1.569503	0.090552	0.423206
C32	C	1.569500	0.090539	0.576543
C33	C	1.399740	0.243465	0.576564
C34	C	1.399739	0.243472	0.423230
C35	C	1.654392	0.014097	0.346531
C36	C	1.739275	-0.062373	0.423182
C37	C	1.739272	-0.062387	0.576519
C38	C	1.654385	0.014070	0.653205
H39	H	1.129358	-0.017526	-0.000060
H40	H	1.808379	-0.124659	0.638927
N41	N	1.308189	0.325924	0.659267
H42	H	1.321071	0.314317	0.768035
H43	H	1.323236	0.406570	0.632468
N44	N	1.654364	0.014061	0.818590
H45	H	1.635574	-0.063213	0.855519
H46	H	1.739812	0.031338	0.855411
N47	N	1.654386	0.014098	0.181149
H48	H	1.587733	0.074138	0.144224
H49	H	1.739863	0.031300	0.144323
N50	N	0.790288	0.585018	-0.000184
H51	H	0.735308	0.588337	-0.090492
H52	H	0.735364	0.588269	0.090172
H53	H	1.808381	-0.124628	0.360737
N54	N	0.683756	0.367056	-0.000192
H55	H	0.657819	0.325747	-0.090497
H56	H	0.657880	0.325777	0.090167
H57	H	1.330624	0.305736	0.360820
H58	H	1.193762	0.379291	-0.000106
N59	N	1.062566	0.591532	-0.000136
H60	H	1.157665	0.578092	-0.000118
H61	H	1.033451	0.636082	-0.090449
H62	H	0.891666	-0.023220	-0.000136
