data_functionalizedCrystal
_audit_creation_method	'MofGen! by Chris Wilmer'
_symmetry_space_group_name_H-M	'P1'
_symmetry_Int_Tables_number	1
_symmetry_cell_setting	triclinic
loop_
_symmetry_equiv_pos_as_xyz
  x,y,z
_cell_length_a	13.033293
_cell_length_b	16.120484
_cell_length_c	13.032268
_cell_angle_alpha	80.357249
_cell_angle_beta	90.920818
_cell_angle_gamma	100.430752
loop_
_atom_site_label
_atom_site_type_symbol
_atom_site_fract_x
_atom_site_fract_y
_atom_site_fract_z
Zn1	Zn	1.479900	-0.262705	0.795792
Zn2	Zn	1.813233	0.070628	1.129126
Zn3	Zn	2.146567	0.403962	1.462459
Zn4	Zn	1.493069	-0.384050	0.630429
Zn5	Zn	1.826402	-0.050717	0.963763
Zn6	Zn	2.159736	0.282616	1.297096
Zn7	Zn	1.330075	-0.258246	0.601725
Zn8	Zn	1.663409	0.075087	0.935059
Zn9	Zn	1.996742	0.408421	1.268392
Zn10	Zn	1.296833	-0.419251	0.782387
Zn11	Zn	1.630166	-0.085917	1.115720
Zn12	Zn	1.963499	0.247416	1.449053
O13	O	1.399969	-0.331063	0.702583
O14	O	1.733303	0.002270	1.035917
O15	O	2.066636	0.335604	1.369250
O16	O	1.626475	-0.265936	0.791480
O17	O	1.959808	0.067397	1.124813
O18	O	2.293141	0.400730	1.458146
O19	O	1.490871	-0.350765	0.481809
O20	O	1.824204	-0.017431	0.815142
O21	O	2.157538	0.315902	1.148476
O22	O	1.358351	-0.140673	0.621066
O23	O	1.691684	0.192660	0.954400
O24	O	2.025018	0.525994	1.287733
O25	O	1.636150	-0.355088	0.669988
O26	O	1.969483	-0.021755	1.003322
O27	O	2.302817	0.311578	1.336655
O28	O	1.468427	-0.143949	0.763647
O29	O	1.801760	0.189384	1.096980
O30	O	2.135093	0.522718	1.430313
O31	O	1.371120	-0.258337	0.460720
O32	O	1.704454	0.074997	0.794054
O33	O	2.037787	0.408330	1.127387
O34	O	1.180838	-0.292469	0.608067
O35	O	1.514171	0.040864	0.941401
O36	O	1.847505	0.374198	1.274734
O37	O	1.301693	-0.415082	0.928978
O38	O	1.635027	-0.081749	1.262311
O39	O	1.968360	0.251585	1.595644
O40	O	1.156415	-0.410758	0.740799
O41	O	1.489748	-0.077425	1.074132
O42	O	1.823081	0.255908	1.407465
O43	O	1.436192	-0.300069	0.938827
O44	O	1.769526	0.033265	1.272160
O45	O	2.102859	0.366598	1.605493
O46	O	1.458637	-0.506884	0.656989
O47	O	1.791970	-0.173551	0.990323
O48	O	2.125303	0.159782	1.323656
O49	O	1.314463	-0.532746	0.768632
O50	O	1.647796	-0.199412	1.101965
O51	O	1.981129	0.133921	1.435298
C52	C	1.131074	-0.354950	0.669864
C53	C	1.464407	-0.021617	1.003197
C54	C	1.797741	0.311717	1.336531
C55	C	1.016035	-0.365192	0.655892
C56	C	1.349368	-0.031859	0.989226
C57	C	1.682701	0.301474	1.322559
C58	C	0.959940	-0.325739	0.709877
C59	C	1.293274	0.007595	1.043210
C60	C	1.626607	0.340928	1.376543
C61	C	0.841041	-0.336324	0.695437
C62	C	1.174374	-0.002990	1.028771
C63	C	1.507708	0.330343	1.362104
C64	C	1.384397	-0.550454	0.714497
C65	C	1.717730	-0.217120	1.047830
C66	C	2.051063	0.116213	1.381163
C67	C	1.377825	-0.644306	0.719639
C68	C	1.711158	-0.310972	1.052973
C69	C	2.044491	0.022361	1.386306
C70	C	1.365829	-0.816134	0.729050
C71	C	1.699162	-0.482801	1.062384
C72	C	2.032496	-0.149468	1.395717
C73	C	1.434293	-0.845136	0.676156
C74	C	1.767626	-0.511803	1.009490
C75	C	2.100960	-0.178470	1.342823
C76	C	1.427618	-0.940748	0.681393
C77	C	1.760952	-0.607414	1.014726
C78	C	2.094285	-0.274081	1.348059
C79	C	1.372502	-0.720515	0.723815
C80	C	1.705835	-0.387181	1.057148
C81	C	2.039168	-0.053848	1.390482
C82	C	1.669915	-0.307083	0.735431
C83	C	2.003248	0.026250	1.068765
C84	C	2.336581	0.359583	1.402098
C85	C	1.784949	-0.296865	0.749429
C86	C	2.118282	0.036469	1.082762
C87	C	2.451616	0.369802	1.416096
C88	C	1.363766	-0.361999	0.972500
C89	C	1.697099	-0.028666	1.305834
C90	C	2.030432	0.304667	1.639167
C91	C	1.348338	-0.375183	1.087523
C92	C	1.681671	-0.041849	1.420856
C93	C	2.015005	0.291484	1.754190
C94	C	1.415628	-0.110816	0.690650
C95	C	1.748961	0.222518	1.023983
C96	C	2.082295	0.555851	1.357317
C97	C	1.422301	-0.016959	0.685564
C98	C	1.755634	0.316374	1.018898
C99	C	2.088967	0.649707	1.352231
C100	C	1.436096	-0.300181	0.433721
C101	C	1.769429	0.033153	0.767054
C102	C	2.102762	0.366486	1.100387
C103	C	1.451741	-0.286742	0.318710
C104	C	1.785074	0.046591	0.652043
C105	C	2.118408	0.379925	0.985377
C106	C	1.408007	-0.324154	1.143677
C107	C	1.741341	0.009180	1.477010
C108	C	2.074674	0.342513	1.810343
C109	C	1.392063	-0.337778	1.262558
C110	C	1.725397	-0.004445	1.595892
C111	C	2.058730	0.328889	1.929225
H112	H	1.497919	-0.798159	0.626939
H113	H	1.831252	-0.464826	0.960272
H114	H	2.164586	-0.131492	1.293605
H115	H	1.329164	-0.391551	1.302489
H116	H	1.662497	-0.058217	1.635823
H117	H	1.995831	0.275116	1.969156
H118	H	1.470892	-0.270377	1.103740
H119	H	1.804226	0.062956	1.437073
H120	H	2.137559	0.396290	1.770406
N121	N	1.012914	-0.270621	0.785266
N122	N	1.346247	0.062712	1.118600
N123	N	1.679581	0.396045	1.451933
H124	H	0.959144	-0.245747	0.819310
H125	H	1.292478	0.087586	1.152643
H126	H	1.625811	0.420920	1.485977
H127	H	1.066172	-0.222707	0.746504
H128	H	1.399505	0.110626	1.079837
H129	H	1.732839	0.443959	1.413171
N130	N	0.788076	-0.391443	0.620040
N131	N	1.121410	-0.058110	0.953374
N132	N	1.454743	0.275224	1.286707
H133	H	0.710647	-0.391189	0.620409
H134	H	1.043980	-0.057856	0.953743
H135	H	1.377314	0.275478	1.287076
H136	H	0.800501	-0.451937	0.641572
H137	H	1.133834	-0.118604	0.974905
H138	H	1.467167	0.214729	1.308238
N139	N	0.963068	-0.420321	0.580510
N140	N	1.296401	-0.086987	0.913844
N141	N	1.629734	0.246346	1.247177
H142	H	0.992662	-0.396984	0.508141
H143	H	1.325995	-0.063651	0.841474
H144	H	1.659329	0.269683	1.174808
H145	H	0.885647	-0.420052	0.580967
H146	H	1.218980	-0.086718	0.914300
H147	H	1.552314	0.246615	1.247634
N148	N	1.281548	-0.878351	0.794237
N149	N	1.614882	-0.545018	1.127570
N150	N	1.948215	-0.211684	1.460904
H151	H	1.288669	-0.938820	0.788777
H152	H	1.622003	-0.605486	1.122111
H153	H	1.955336	-0.272153	1.455444
H154	H	1.210864	-0.867770	0.768248
H155	H	1.544198	-0.534437	1.101581
H156	H	1.877531	-0.201103	1.434915
H157	H	0.824945	-0.255243	0.806336
H158	H	1.158278	0.078091	1.139669
H159	H	1.491611	0.411424	1.473002
H160	H	1.514629	-0.232960	1.278779
H161	H	1.847962	0.100374	1.612112
H162	H	2.181296	0.433707	1.945445
N163	N	1.265017	-0.446404	1.140407
N164	N	1.598350	-0.113071	1.473740
N165	N	1.931684	0.220262	1.807073
H166	H	1.265432	-0.446037	1.217835
H167	H	1.598766	-0.112704	1.551168
H168	H	1.932099	0.220630	1.884501
H169	H	1.279335	-0.503142	1.126801
H170	H	1.612668	-0.169808	1.460135
H171	H	1.946002	0.163525	1.793468
