data_functionalizedCrystal
_audit_creation_method	'MofGen! by Chris Wilmer'
_symmetry_space_group_name_H-M	'P1'
_symmetry_Int_Tables_number	1
_symmetry_cell_setting	triclinic
loop_
_symmetry_equiv_pos_as_xyz
  x,y,z
_cell_length_a	16.625548
_cell_length_b	16.625545
_cell_length_c	12.759393
_cell_angle_alpha	89.966096
_cell_angle_beta	89.978332
_cell_angle_gamma	90.026626
loop_
_atom_site_label
_atom_site_type_symbol
_atom_site_fract_x
_atom_site_fract_y
_atom_site_fract_z
Zn1	Zn	1.232672	-0.320931	-0.594053
Zn2	Zn	1.232565	-0.455788	-0.418366
Zn3	Zn	1.097831	-0.320975	-0.418383
Zn4	Zn	1.097797	-0.455728	-0.593998
O5	O	1.165216	-0.388356	-0.506200
O6	O	1.345490	-0.338827	-0.570764
O7	O	1.214662	-0.437948	-0.271347
O8	O	1.115777	-0.208137	-0.441716
O9	O	1.345412	-0.437905	-0.441688
O10	O	1.214844	-0.208105	-0.570780
O11	O	1.115674	-0.338902	-0.271359
O12	O	0.984994	-0.338844	-0.441662
O13	O	1.115719	-0.437803	-0.741026
O14	O	0.984969	-0.437846	-0.570686
O15	O	1.214811	-0.338769	-0.741067
O16	O	1.214629	-0.568612	-0.441634
O17	O	1.115615	-0.568568	-0.570670
C18	C	0.955725	-0.388344	-0.506171
C19	C	0.866104	-0.388359	-0.506183
C20	C	1.165129	-0.597846	-0.506167
C21	C	1.165165	-0.687468	-0.506188
C22	C	1.165196	-0.760250	-0.506209
C23	C	1.165243	-0.851558	-0.506232
C24	C	1.165285	-0.924335	-0.506245
C25	C	1.165331	-1.015649	-0.506267
C26	C	0.537929	-0.388364	-0.506228
C27	C	0.629237	-0.388360	-0.506212
C28	C	0.702014	-0.388362	-0.506205
C29	C	0.793328	-0.388357	-0.506190
C30	C	1.375525	-0.388368	-0.506230
C31	C	1.465146	-0.388373	-0.506243
C32	C	1.165273	-0.388274	-0.780233
C33	C	1.165297	-0.388240	-0.897010
C34	C	1.165326	-0.178047	-0.506256
C35	C	1.165373	-0.088425	-0.506280
C36	C	1.216901	-0.336667	-0.951895
C37	C	1.216920	-0.336638	-1.061619
C38	C	1.113729	-0.439760	-1.061564
C39	C	1.113706	-0.439785	-0.951842
C40	C	1.276481	-0.277133	-0.951928
C41	C	1.276500	-0.277104	-1.061652
C42	C	1.165206	-0.388378	-0.233233
C43	C	1.165339	-0.388186	-0.116456
H44	H	1.071682	-0.481777	-0.907159
H45	H	1.259786	-0.214689	-0.922174
C46	C	1.246576	-0.198069	-1.107116
C47	C	1.178418	-0.212396	-1.168773
C48	C	1.150818	-0.139612	-1.210658
H49	H	1.287568	-0.174658	-1.149111
H50	H	1.233082	-0.162392	-1.051701
H51	H	1.191916	-0.248061	-1.224180
H52	H	1.137410	-0.235796	-1.126802
H53	H	1.137323	-0.103934	-1.155243
H54	H	1.191815	-0.116206	-1.252648
H55	H	1.104566	-0.149322	-1.252489
H56	H	1.338945	-0.293827	-1.091434
H57	H	1.335779	-0.299517	-0.917895
C58	C	1.057811	-0.495696	-1.121287
C59	C	1.068887	-0.484651	-1.229126
C60	C	1.017398	-0.536175	-1.284172
H61	H	1.003606	-0.483949	-1.103427
H62	H	1.069588	-0.549894	-1.103348
H63	H	1.057104	-0.430465	-1.247058
H64	H	1.123082	-0.496404	-1.247017
H65	H	1.029175	-0.590373	-1.266233
H66	H	0.963196	-0.524423	-1.266304
H67	H	1.024911	-0.528693	-1.357346
