data_functionalizedCrystal
_audit_creation_method	'MofGen! by Chris Wilmer'
_symmetry_space_group_name_H-M	'P1'
_symmetry_Int_Tables_number	1
_symmetry_cell_setting	triclinic
loop_
_symmetry_equiv_pos_as_xyz
  x,y,z
_cell_length_a	21.395362
_cell_length_b	12.759400
_cell_length_c	21.395355
_cell_angle_alpha	89.986153
_cell_angle_beta	89.956060
_cell_angle_gamma	90.030564
loop_
_atom_site_label
_atom_site_type_symbol
_atom_site_fract_x
_atom_site_fract_y
_atom_site_fract_z
Zn1	Zn	0.957929	-0.417943	-0.354606
Zn2	Zn	1.457929	0.082057	0.145394
Zn3	Zn	0.957861	-0.593607	-0.249837
Zn4	Zn	1.457861	-0.093607	0.250163
Zn5	Zn	0.853144	-0.417992	-0.249807
Zn6	Zn	1.353144	0.082008	0.250193
Zn7	Zn	0.853143	-0.593629	-0.354542
Zn8	Zn	1.353143	-0.093629	0.145458
O9	O	0.905519	-0.505793	-0.302198
O10	O	1.405519	-0.005793	0.197802
O11	O	1.045598	-0.441215	-0.340747
O12	O	1.545598	0.058785	0.159253
O13	O	0.943942	-0.570323	-0.162155
O14	O	1.443942	-0.070323	0.337845
O15	O	0.867073	-0.270964	-0.263723
O16	O	1.367073	0.229036	0.236277
O17	O	1.045548	-0.570275	-0.263774
O18	O	1.545548	-0.070275	0.236226
O19	O	0.944058	-0.270928	-0.340719
O20	O	1.444058	0.229072	0.159281
O21	O	0.867007	-0.441299	-0.162133
O22	O	1.367007	0.058701	0.337867
O23	O	0.765466	-0.441320	-0.263661
O24	O	1.265466	0.058680	0.236339
O25	O	0.867071	-0.570312	-0.442228
O26	O	1.367071	-0.070312	0.057772
O27	O	0.765465	-0.570360	-0.340609
O28	O	1.265465	-0.070360	0.159391
O29	O	0.944057	-0.441236	-0.442275
O30	O	1.444057	0.058764	0.057725
O31	O	0.943941	-0.740631	-0.263712
O32	O	1.443941	-0.240631	0.236288
O33	O	0.867005	-0.740647	-0.340638
O34	O	1.367005	-0.240647	0.159362
C35	C	0.742732	-0.505848	-0.302125
C36	C	1.242732	-0.005848	0.197875
C37	C	0.673090	-0.505897	-0.302109
C38	C	1.173090	-0.005897	0.197891
C39	C	0.640393	-0.573177	-0.342116
C40	C	1.140393	-0.073177	0.157884
C41	C	0.574958	-0.573152	-0.342144
C42	C	1.074958	-0.073152	0.157856
C43	C	0.542222	-0.505857	-0.302154
C44	C	1.042222	-0.005857	0.197846
C45	C	0.574927	-0.438564	-0.262144
C46	C	1.074927	0.061436	0.237856
C47	C	0.640361	-0.438584	-0.262122
C48	C	1.140361	0.061416	0.237878
C49	C	0.438496	-0.497393	-0.245748
C50	C	0.938496	0.002607	0.254252
C51	C	0.373063	-0.497380	-0.245769
C52	C	0.873063	0.002620	0.254231
C53	C	0.340401	-0.505788	-0.302223
C54	C	0.840401	-0.005788	0.197777
C55	C	0.373181	-0.514231	-0.358657
C56	C	0.873181	-0.014231	0.141343
C57	C	0.438615	-0.514251	-0.358635
C58	C	0.938615	-0.014251	0.141365
C59	C	0.471270	-0.505827	-0.302174
C60	C	0.971270	-0.005827	0.197826
C61	C	0.236752	-0.573044	-0.342263
C62	C	0.736752	-0.073044	0.157737
C63	C	0.171315	-0.573011	-0.342292
C64	C	0.671315	-0.073011	0.157708
C65	C	0.171286	-0.438428	-0.262287
C66	C	0.671286	0.061572	0.237713
C67	C	0.236721	-0.438456	-0.262264
C68	C	0.736721	0.061544	0.237736
C69	C	0.269450	-0.505769	-0.302251
C70	C	0.769450	-0.005769	0.197749
C71	C	0.905482	-0.778760	-0.302185
C72	C	1.405482	-0.278760	0.197815
C73	C	0.905523	-0.895537	-0.302200
C74	C	1.405523	-0.395537	0.197800
C75	C	0.945629	-0.950355	-0.262189
C76	C	1.445629	-0.450355	0.237811
C77	C	0.945667	-1.060079	-0.262209
C78	C	1.445667	-0.560079	0.237791
C79	C	0.865490	-1.060156	-0.342252
C80	C	1.365490	-0.560156	0.157748
C81	C	0.865455	-0.950434	-0.342235
C82	C	1.365455	-0.450434	0.157765
C83	C	0.991916	-0.950312	-0.215975
C84	C	1.491916	-0.450312	0.284025
C85	C	0.991955	-1.060036	-0.215994
C86	C	1.491955	-0.560036	0.284006
C87	C	1.068943	-0.505738	-0.302271
C88	C	1.568943	-0.005738	0.197729
C89	C	1.138584	-0.505714	-0.302303
C90	C	1.638584	-0.005714	0.197697
C91	C	0.905571	-0.505771	-0.465621
C92	C	1.405571	-0.005771	0.034379
C93	C	0.905593	-0.505762	-0.535263
C94	C	1.405593	-0.005762	-0.035263
C95	C	0.905574	-0.231759	-0.302225
C96	C	1.405574	0.268241	0.197775
C97	C	0.905597	-0.114983	-0.302236
C98	C	1.405597	0.385017	0.197764
C99	C	0.945678	-0.438550	-0.568001
C100	C	1.445678	0.061450	-0.068001
C101	C	0.945678	-0.438504	-0.633437
C102	C	1.445678	0.061496	-0.133437
C103	C	0.905598	-0.505691	-0.666131
C104	C	1.405598	-0.005691	-0.166131
C105	C	0.865505	-0.572908	-0.633384
C106	C	1.365505	-0.072908	-0.133384
C107	C	0.865503	-0.572944	-0.567950
C108	C	1.365503	-0.072944	-0.067950
C109	C	0.900638	-0.600292	-0.769799
C110	C	1.400638	-0.100292	-0.269799
C111	C	0.900645	-0.600258	-0.835232
C112	C	1.400645	-0.100258	-0.335232
C113	C	0.905602	-0.505580	-0.867952
C114	C	1.405602	-0.005580	-0.367952
C115	C	0.910566	-0.410932	-0.835230
C116	C	1.410566	0.089068	-0.335230
C117	C	0.910563	-0.410968	-0.769796
C118	C	1.410563	0.089032	-0.269796
C119	C	0.905596	-0.505659	-0.737083
C120	C	1.405596	-0.005659	-0.237083
C121	C	0.945688	-0.438312	-0.971643
C122	C	1.445688	0.061688	-0.471643
C123	C	0.945683	-0.438265	-1.037080
C124	C	1.445683	0.061735	-0.537080
C125	C	0.865514	-0.572678	-1.037026
C126	C	1.365514	-0.072678	-0.537026
C127	C	0.865516	-0.572716	-0.971591
C128	C	1.365516	-0.072716	-0.471591
C129	C	0.905607	-0.505534	-0.938903
C130	C	1.405607	-0.005534	-0.438903
C131	C	0.905503	-0.505738	-0.139410
C132	C	1.405503	-0.005738	0.360590
C133	C	0.905603	-0.505451	-0.069770
C134	C	1.405603	-0.005451	0.430230
H135	H	0.548330	-0.627939	-0.374725
H136	H	1.048330	-0.127939	0.125275
H137	H	0.263401	-0.627849	-0.374827
H138	H	0.763401	-0.127849	0.125173
H139	H	0.896607	-0.677325	-0.861869
H140	H	1.396607	-0.177325	-0.361869
O141	O	0.337968	-0.523283	-0.419556
O142	O	0.837968	-0.023283	0.080444
H143	H	0.308115	-0.594434	-0.418508
H144	H	0.808115	-0.094434	0.081492
H145	H	0.896434	-0.677371	-0.743165
H146	H	1.396434	-0.177371	-0.243165
O147	O	0.822191	-0.891317	-0.385387
O148	O	1.322191	-0.391317	0.114613
H149	H	0.832915	-0.912323	-0.434578
H150	H	1.332915	-0.412323	0.065422
H151	H	1.040427	-0.920439	-0.229025
H152	H	1.540427	-0.420439	0.270975
O153	O	0.822281	-0.645136	-1.072284
O154	O	1.322281	-0.145136	-0.572284
H155	H	0.794404	-0.691877	-1.038522
H156	H	1.294404	-0.191877	-0.538522
H157	H	0.832868	-1.104867	-0.374847
H158	H	1.332868	-0.604867	0.125153
H159	H	0.465084	-0.490542	-0.199774
H160	H	0.965084	0.009458	0.300226
H161	H	0.832871	-0.627608	-0.660008
H162	H	1.332871	-0.127608	-0.160008
H163	H	0.144633	-0.383631	-0.229729
H164	H	0.644633	0.116369	0.270271
O165	O	0.822265	-0.645181	-0.936273
O166	O	1.322265	-0.145181	-0.436273
H167	H	0.794389	-0.691886	-0.969998
H168	H	1.294389	-0.191886	-0.469998
O169	O	0.974782	-1.099566	-0.151701
O170	O	1.474782	-0.599566	0.348299
H171	H	1.013640	-1.147812	-0.132955
H172	H	1.513640	-0.647812	0.367045
O173	O	0.968918	-0.905308	-0.154882
O174	O	1.468918	-0.405308	0.345118
H175	H	0.956755	-0.970182	-0.122504
H176	H	1.456755	-0.470182	0.377496
H177	H	0.832858	-0.627675	-0.541295
H178	H	1.332858	-0.127675	-0.041295
O179	O	0.915910	-0.308891	-0.734504
O180	O	1.415910	0.191109	-0.234504
H181	H	0.958356	-0.310559	-0.704727
H182	H	1.458356	0.189441	-0.204727
H183	H	0.667037	-0.627988	-0.374678
H184	H	1.167037	-0.127988	0.125322
H185	H	0.465301	-0.521123	-0.404585
H186	H	0.965301	-0.021123	0.095415
O187	O	1.053017	-1.105000	-0.239095
O188	O	1.553017	-0.605000	0.260905
H189	H	1.085362	-1.040105	-0.251323
H190	H	1.585362	-0.540105	0.248677
H191	H	0.144694	-0.627796	-0.374875
H192	H	0.644694	-0.127796	0.125125
H193	H	0.978322	-0.383844	-0.541391
H194	H	1.478322	0.116156	-0.041391
H195	H	0.978318	-0.383766	-0.660098
H196	H	1.478318	0.116234	-0.160098
H197	H	0.263344	-0.383674	-0.229683
H198	H	0.763344	0.116326	0.270317
O199	O	0.915896	-0.308800	-0.870508
O200	O	1.415896	0.191200	-0.370508
H201	H	0.915050	-0.324669	-0.921506
H202	H	1.415050	0.175331	-0.421506
O203	O	0.988921	-0.365852	-0.936378
O204	O	1.488921	0.134148	-0.436378
H205	H	0.978187	-0.283390	-0.948916
H206	H	1.478187	0.216610	-0.448916
O207	O	0.337709	-0.488269	-0.184906
O208	O	0.837709	0.011731	0.315094
H209	H	0.371412	-0.482402	-0.145648
H210	H	0.871412	0.017598	0.354352
H211	H	0.548270	-0.383770	-0.229585
H212	H	1.048270	0.116230	0.270415
H213	H	0.666983	-0.383793	-0.229543
H214	H	1.166983	0.116207	0.270457
O215	O	0.988921	-0.365770	-1.072396
O216	O	1.488921	0.134230	-0.572396
H217	H	1.016800	-0.319072	-1.038670
H218	H	1.516800	0.180928	-0.538670
