data_functionalizedCrystal
_audit_creation_method	'MofGen! by Chris Wilmer'
_symmetry_space_group_name_H-M	'P1'
_symmetry_Int_Tables_number	1
_symmetry_cell_setting	triclinic
loop_
_symmetry_equiv_pos_as_xyz
  x,y,z
_cell_length_a	12.759401
_cell_length_b	11.169416
_cell_length_c	12.759393
_cell_angle_alpha	90.026935
_cell_angle_beta	90.020459
_cell_angle_gamma	90.011865
loop_
_atom_site_label
_atom_site_type_symbol
_atom_site_fract_x
_atom_site_fract_y
_atom_site_fract_z
Zn1	Zn	1.606293	-0.477708	0.594041
Zn2	Zn	1.606199	-0.678434	0.418371
Zn3	Zn	1.430593	-0.477769	0.418377
Zn4	Zn	1.430597	-0.678353	0.594008
O5	O	1.518421	-0.578066	0.506199
O6	O	1.753302	-0.504343	0.570750
O7	O	1.582864	-0.651876	0.271350
O8	O	1.453938	-0.309811	0.441696
O9	O	1.753233	-0.651816	0.441685
O10	O	1.583024	-0.309766	0.570756
O11	O	1.453847	-0.504448	0.271355
O12	O	1.283573	-0.504369	0.441663
O13	O	1.453945	-0.651677	0.741033
O14	O	1.283576	-0.651737	0.570698
O15	O	1.583028	-0.504264	0.741058
O16	O	1.582867	-0.846373	0.441653
O17	O	1.453853	-0.846313	0.570692
C18	C	1.245453	-0.578051	0.506178
C19	C	1.128677	-0.578074	0.506194
C20	C	1.073844	-0.654925	0.573277
C21	C	0.964120	-0.654930	0.573298
C22	C	0.964071	-0.501229	0.439144
C23	C	1.073793	-0.501219	0.439129
C24	C	1.518379	-0.889891	0.506191
C25	C	1.518457	-1.023291	0.506223
C26	C	1.792454	-0.578082	0.506221
C27	C	1.909231	-0.578088	0.506230
C28	C	1.518497	-0.577954	0.780233
C29	C	1.518530	-0.577907	0.897009
C30	C	1.518491	-0.265024	0.506230
C31	C	1.518521	-0.131624	0.506243
C32	C	1.518405	-0.578091	0.233232
C33	C	1.518576	-0.577800	0.116456
C34	C	1.585736	-0.654583	1.061605
C35	C	1.585711	-0.654640	0.951880
C36	C	1.451362	-0.501120	0.951868
C37	C	1.451383	-0.501071	1.061590
H38	H	1.118527	-0.717503	0.627889
H39	H	1.396657	-0.438648	0.907183
H40	H	0.919372	-0.438658	0.384540
H41	H	0.919480	-0.717508	0.627925
C42	C	1.133145	-0.417731	0.366175
C43	C	1.061599	-0.350456	0.307419
C44	C	1.116236	-0.273547	0.240201
H45	H	1.175977	-0.365385	0.406322
H46	H	1.175898	-0.463549	0.320270
H47	H	1.018864	-0.304641	0.353319
H48	H	1.018765	-0.402770	0.267251
H49	H	1.158989	-0.319366	0.194296
H50	H	1.159066	-0.221210	0.280356
H51	H	1.067700	-0.227900	0.200320
H52	H	1.640448	-0.717063	1.106273
C53	C	1.658746	-0.738048	0.892517
C54	C	1.717609	-0.805209	0.964055
C55	C	1.784911	-0.882050	0.909409
H56	H	1.618655	-0.790469	0.849703
H57	H	1.704580	-0.692186	0.849745
H58	H	1.671781	-0.851067	1.006809
H59	H	1.757721	-0.752820	1.006871
H60	H	1.830745	-0.836188	0.866637
H61	H	1.744812	-0.934462	0.866597
H62	H	1.824864	-0.927619	0.957939
H63	H	1.396688	-0.438543	1.106251
