data_functionalizedCrystal
_audit_creation_method	'MofGen! by Chris Wilmer'
_symmetry_space_group_name_H-M	'P1'
_symmetry_Int_Tables_number	1
_symmetry_cell_setting	triclinic
loop_
_symmetry_equiv_pos_as_xyz
  x,y,z
_cell_length_a	20.919309
_cell_length_b	14.395555
_cell_length_c	14.395555
_cell_angle_alpha	60.000749
_cell_angle_beta	89.999957
_cell_angle_gamma	57.442980
loop_
_atom_site_label
_atom_site_type_symbol
_atom_site_fract_x
_atom_site_fract_y
_atom_site_fract_z
Zr1	Zr	0.641785	0.944205	-0.085642
O2	O	0.535419	1.150023	-0.239981
O3	O	0.674389	0.746724	-0.038327
O4	O	0.674394	0.940510	-0.232123
O5	O	0.535413	0.956244	0.106681
O6	O	0.784024	0.928112	-0.225926
O7	O	0.535414	0.956237	-0.046186
O8	O	0.784014	0.581463	0.120738
O9	O	0.535422	1.302892	-0.239983
O10	O	0.770113	0.815610	-0.013526
O11	O	0.688297	0.824868	0.095933
O12	O	0.688303	1.053027	-0.132237
O13	O	0.606488	1.062285	-0.022778
Zr14	Zr	0.816630	0.924442	0.168046
Zr15	Zr	0.816631	0.924431	-0.075760
Zr16	Zr	0.641784	0.944216	0.158163
Zr17	Zr	0.641790	1.188014	-0.085646
Zr18	Zr	0.816625	0.680634	0.168049
O19	O	0.784026	1.121923	0.120731
O20	O	0.784028	1.121907	-0.225929
O21	O	0.535417	1.150039	0.106679
O22	O	0.922996	0.718624	0.322385
O23	O	0.922998	0.718608	-0.024275
O24	O	0.674387	0.746740	0.308332
O25	O	0.923002	0.912403	-0.024278
O26	O	0.784021	0.928137	0.314526
O27	O	0.674391	0.940535	0.308330
O28	O	0.923001	0.912410	0.128589
O29	O	0.674402	1.287175	-0.232128
O30	O	0.784013	0.581472	0.314531
O31	O	0.922993	0.565755	0.322387
O32	O	0.922994	0.565746	0.128594
O33	O	0.535421	1.302901	-0.046191
O34	O	0.674401	1.287184	-0.038335
O35	O	0.770112	0.815620	0.214640
O36	O	0.851927	0.806362	0.105181
O37	O	0.770118	1.043779	-0.013529
O38	O	0.688302	1.053037	0.095929
C39	C	0.729201	0.629356	0.041206
C40	C	0.729199	0.525853	0.041207
C41	C	0.510502	0.959058	0.028840
C42	C	0.436275	0.967452	0.024644
C43	C	0.684592	0.470308	0.100893
C44	C	0.652263	0.488216	-0.008209
C45	C	0.761508	0.323552	0.150276
C46	C	0.696825	0.545192	-0.067961
C47	C	0.806113	0.380460	0.090605
C48	C	0.773803	0.398412	-0.018561
C49	C	0.444105	0.847470	0.084633
C50	C	0.374358	0.855366	0.080688
C51	C	0.296782	0.983245	0.016747
C52	C	0.288954	1.103236	-0.043243
C53	C	0.358700	1.095339	-0.039291
C54	C	0.084058	1.013289	0.001721
C55	C	0.014310	1.021177	-0.002230
C56	C	0.099719	0.773306	0.121704
C57	C	0.169463	0.765420	0.125645
C58	C	0.161629	0.885411	0.065659
C59	C	0.225489	0.991319	0.012711
C60	C	0.232921	0.877336	0.069703
C61	C	0.947913	0.909589	0.053564
C62	C	1.022140	0.901195	0.057759
C63	C	0.729209	0.934310	-0.263762
C64	C	0.729210	0.934305	-0.367264
C65	C	0.729214	1.239291	0.041197
C66	C	0.729216	1.342794	0.041196
C67	C	0.773820	0.804854	-0.363126
C68	C	0.696891	0.875745	-0.460497
C69	C	0.806120	0.863421	-0.454322
C70	C	0.652236	1.005201	-0.463274
C71	C	0.761519	0.992853	-0.457082
C72	C	0.684545	1.063840	-0.554473
C73	C	0.729206	0.934337	0.346165
C74	C	0.729205	0.934342	0.449667
C75	C	0.947907	0.604622	0.053568
C76	C	1.022131	0.492724	0.057765
C77	C	0.729199	0.629370	0.346169
C78	C	0.729197	0.525872	0.449673
C79	C	0.947905	0.604636	0.358531
C80	C	1.022129	0.492743	0.466230
C81	C	0.510510	1.264011	-0.276128
C82	C	0.436286	1.375904	-0.383827
C83	C	0.510508	1.264025	0.028836
C84	C	0.436284	1.375923	0.024639
C85	C	0.729216	1.239277	-0.263766
C86	C	0.729218	1.342775	-0.367269
C87	C	1.014282	0.445003	-0.002239
C88	C	1.084017	0.339877	0.001682
C89	C	1.161601	0.282468	0.065613
C90	C	1.169449	0.330199	0.125618
C91	C	1.099715	0.435330	0.121690
C92	C	1.099700	0.435363	0.459671
C93	C	1.169448	0.330241	0.560856
C94	C	1.161623	0.282493	0.668600
C95	C	1.084045	0.339883	0.675157
C96	C	1.014298	0.445010	0.573972
C97	C	0.358715	1.433295	-0.377267
C98	C	0.288967	1.538448	-0.478453
C99	C	0.296792	1.586201	-0.586197
C100	C	0.374370	1.528805	-0.592753
C101	C	0.444117	1.423661	-0.491569
C102	C	0.444133	1.423654	0.084632
C103	C	0.374398	1.528807	0.080685
C104	C	0.296814	1.586219	0.016750
C105	C	0.288966	1.538483	-0.043250
C106	C	0.358700	1.433340	-0.039309
C107	C	0.684584	0.470332	0.445538
C108	C	0.761514	0.323535	0.542906
C109	C	0.652289	0.488220	0.536737
C110	C	0.806171	0.380370	0.545680
C111	C	0.696891	0.545135	0.539494
C112	C	0.773866	0.398342	0.636882
H113	H	0.646818	0.501808	0.151285
H114	H	0.240038	1.671833	0.013551
C115	C	0.659811	0.673068	-0.192635
H116	H	0.660003	0.738526	-0.191868
H117	H	0.691256	0.648061	-0.235152
H118	H	0.605324	0.711525	-0.227795
C119	C	0.254793	0.624757	0.195987
H120	H	0.295210	0.637238	0.189742
H121	H	0.260905	0.575133	0.274678
H122	H	0.260912	0.575125	0.166919
H123	H	1.218422	0.196891	0.750982
C124	C	-0.071024	1.161850	-0.072554
H125	H	-0.065701	1.232182	-0.107703
H126	H	-0.100010	1.170091	-0.130553
H127	H	-0.100001	1.170064	-0.022777
C128	C	0.893985	0.782438	-0.450586
H129	H	0.898499	0.841092	-0.516216
H130	H	0.930795	0.747829	-0.382418
H131	H	0.906861	0.708434	-0.450837
H132	H	0.951139	0.491716	0.579329
H133	H	0.788847	0.228823	0.545379
H134	H	0.380804	1.567655	0.129549
H135	H	0.871137	0.335941	0.132421
C136	C	0.108331	0.641329	0.187695
H137	H	0.055684	0.664341	0.176195
H138	H	0.137311	0.589103	0.159933
H139	H	0.137303	0.589125	0.267685
H140	H	0.788825	0.228858	0.242518
H141	H	0.587248	0.532749	0.533976
C142	C	0.529433	0.706802	0.154974
H143	H	0.524103	0.636477	0.190146
H144	H	0.558424	0.698556	0.105223
H145	H	0.558408	0.698579	0.212975
C146	C	0.203621	1.601637	-0.113563
H147	H	0.163221	1.671079	-0.107299
H148	H	0.197489	1.640273	-0.192261
H149	H	0.197498	1.532512	-0.084484
C150	C	0.798469	1.059637	-0.453663
H151	H	0.853147	1.009115	-0.449571
H152	H	0.767337	1.151084	-0.521484
H153	H	0.797739	1.059879	-0.387798
H154	H	0.587224	0.532755	-0.050000
H155	H	0.352329	1.394422	-0.289547
C156	C	0.824698	0.657001	-0.252497
H157	H	0.801608	0.615613	-0.253022
H158	H	0.879115	0.606216	-0.249220
H159	H	0.824741	0.657966	-0.186992
C160	C	0.529468	1.360519	0.154958
H161	H	0.569884	1.291053	0.148729
H162	H	0.535586	1.429645	0.125887
H163	H	0.535584	1.321893	0.233655
H164	H	0.669557	0.826258	-0.462973
H165	H	0.225806	1.585163	-0.473092
C166	C	0.928948	0.508142	-0.072574
H167	H	0.934273	0.464663	-0.107754
H168	H	0.899960	0.495482	-0.022820
H169	H	0.899973	0.603238	-0.130568
H170	H	1.232610	0.283524	0.555497
C171	C	0.220066	1.701840	-0.697489
H172	H	0.172750	1.729161	-0.678141
H173	H	0.220049	1.777731	-0.741501
H174	H	0.220058	1.669948	-0.741475
C175	C	0.894079	0.319924	0.549538
H176	H	0.893538	0.386487	0.483270
H177	H	0.925844	0.294441	0.617075
H178	H	0.917084	0.241561	0.550622
C179	C	1.108323	0.487871	0.341166
H180	H	1.164515	0.438640	0.351768
H181	H	1.082897	0.474802	0.299312
H182	H	1.082891	0.582567	0.299318
H183	H	0.811524	0.367200	-0.069113
H184	H	0.352298	1.394481	-0.088160
C185	C	0.075434	1.145273	-0.064274
H186	H	0.019243	1.222560	-0.102930
H187	H	0.100861	1.147359	-0.011438
H188	H	0.100868	1.147340	-0.119191
C189	C	0.633701	0.512681	0.334912
H190	H	0.656789	0.434657	0.335437
H191	H	0.579286	0.550281	0.331641
H192	H	0.633655	0.579218	0.269405
H193	H	0.380740	0.757664	0.129539
H194	H	0.225786	1.207358	-0.095299
H195	H	0.669537	0.639882	0.536961
C196	C	0.350087	1.227319	-0.105283
H197	H	0.293898	1.304611	-0.143939
H198	H	0.375518	1.229394	-0.052442
H199	H	0.375522	1.229386	-0.160201
C200	C	0.564326	1.086124	-0.467143
H201	H	0.564866	1.085580	-0.400879
H202	H	0.532570	1.177854	-0.534684
H203	H	0.541311	1.044839	-0.468231
C204	C	1.075448	0.287339	0.793678
H205	H	1.128100	0.216500	0.852991
H206	H	1.046473	0.360412	0.800595
H207	H	1.046480	0.252653	0.800576
H208	H	1.077611	0.301029	-0.047182
C209	C	0.382967	1.581332	-0.711275
H210	H	0.330315	1.652159	-0.770588
H211	H	0.411946	1.615998	-0.718190
H212	H	0.411932	1.508238	-0.718174
C213	C	0.633512	1.211830	-0.664936
H214	H	0.578901	1.261986	-0.668691
H215	H	0.655992	1.253794	-0.663762
H216	H	0.634145	1.211004	-0.730512
C217	C	1.254794	0.267029	0.195947
H218	H	1.295194	0.197573	0.189697
H219	H	1.260930	0.336131	0.166903
H220	H	1.260913	0.228379	0.274648
C221	C	1.238301	0.166817	0.069935
H222	H	1.222507	0.146615	0.025050
H223	H	1.269861	0.195106	0.039837
H224	H	1.269847	0.087362	0.147595
H225	H	0.507276	1.376933	-0.496923
H226	H	0.296086	0.773218	0.121769
C227	C	0.824903	0.356050	0.747345
H228	H	0.879513	0.317038	0.751097
H229	H	0.802424	0.434347	0.746172
H230	H	0.824270	0.290640	0.812921
H231	H	1.106117	0.474171	0.170559
H232	H	0.162319	1.095438	-0.039350
