data_functionalizedCrystal
_audit_creation_method	'MofGen! by Chris Wilmer'
_symmetry_space_group_name_H-M	'P1'
_symmetry_Int_Tables_number	1
_symmetry_cell_setting	triclinic
loop_
_symmetry_equiv_pos_as_xyz
  x,y,z
_cell_length_a	16.109318
_cell_length_b	16.109304
_cell_length_c	9.730223
_cell_angle_alpha	89.997214
_cell_angle_beta	89.999238
_cell_angle_gamma	83.465600
loop_
_atom_site_label
_atom_site_type_symbol
_atom_site_fract_x
_atom_site_fract_y
_atom_site_fract_z
O1	O	1.103123	0.106930	0.114167
O2	O	0.861063	0.120214	0.114194
O3	O	0.988741	-0.007458	0.114180
O4	O	0.975444	0.234603	0.114180
O5	O	0.988733	-0.007451	-0.114400
O6	O	0.861054	0.120221	-0.114386
O7	O	1.103114	0.106937	-0.114413
Zn8	Zn	0.982083	0.113580	-0.150692
Zn9	Zn	0.982094	0.113571	0.150472
O10	O	0.975436	0.234610	-0.114400
C11	C	0.830084	0.119677	-0.000093
C12	C	0.737789	0.118056	-0.000082
C13	C	0.438720	0.112818	0.124492
C14	C	0.525441	0.114335	0.124501
C15	C	0.525451	0.114331	-0.124710
C16	C	0.438732	0.112808	-0.124716
C17	C	0.395368	0.112055	-0.000111
C18	C	0.568809	0.115096	-0.000096
C19	C	0.662836	0.116741	-0.000088
C20	C	0.301336	0.110408	-0.000119
C21	C	0.988198	-0.038430	-0.000107
C22	C	0.986582	-0.130725	-0.000097
C23	C	0.982853	-0.343066	0.124497
C24	C	0.981327	-0.429787	0.124496
C25	C	0.981322	-0.429776	-0.124714
C26	C	0.982842	-0.343056	-0.124712
C27	C	0.983612	-0.299704	-0.000102
C28	C	0.980565	-0.473144	-0.000106
C29	C	0.978911	-0.567170	-0.000108
C30	C	0.985265	-0.205672	-0.000099
C31	C	1.134093	0.107474	-0.000124
C32	C	1.226388	0.109095	-0.000125
C33	C	0.975979	0.265581	-0.000110
C34	C	0.977595	0.357876	-0.000110
N35	N	0.982082	0.113586	-0.356228
C36	C	1.032489	0.164027	-0.428173
C37	C	1.032502	0.164011	-0.572056
C38	C	0.931692	0.063112	-0.572036
C39	C	0.931685	0.063124	-0.428156
C40	C	1.090688	0.222283	-0.428186
C41	C	1.090701	0.222267	-0.572069
N42	N	0.982102	0.113559	0.356009
H43	H	0.403416	0.112204	0.225954
H44	H	0.560735	0.114954	0.225966
C45	C	0.572677	0.115203	-0.259846
C46	C	0.657898	0.116725	-0.233174
C47	C	0.701424	0.117543	-0.357631
H48	H	0.564920	0.066515	-0.311145
H49	H	0.552158	0.163428	-0.311058
H50	H	0.678411	0.068505	-0.181985
H51	H	0.665680	0.165411	-0.181896
H52	H	0.680904	0.165768	-0.408842
H53	H	0.693660	0.068854	-0.408920
H54	H	0.759249	0.118584	-0.339551
H55	H	0.403434	0.112187	-0.226190
H56	H	0.980697	-0.465084	-0.226167
H57	H	0.983477	-0.307771	0.225963
C58	C	1.174436	0.186672	-0.631831
C59	C	1.169955	0.188540	-0.775519
C60	C	1.247069	0.155745	-0.830621
H61	H	1.216605	0.219204	-0.601845
H62	H	1.187610	0.130614	-0.601742
H63	H	1.156792	0.244588	-0.805596
H64	H	1.127802	0.156005	-0.805544
H65	H	1.260242	0.099687	-0.800532
H66	H	1.289231	0.188280	-0.800625
H67	H	1.244036	0.157001	-0.928118
H68	H	0.980707	-0.465088	0.225957
C69	C	1.062496	0.309860	-0.624377
C70	C	0.990389	0.308522	-0.704305
C71	C	0.964390	0.389190	-0.752530
H72	H	1.050711	0.346473	-0.548588
H73	H	1.105559	0.328870	-0.678687
H74	H	0.947336	0.289522	-0.649997
H75	H	1.002154	0.271925	-0.780113
H76	H	1.007453	0.408200	-0.806840
H77	H	0.952609	0.425796	-0.676733
H78	H	0.915467	0.388291	-0.806776
C79	C	0.983705	-0.296126	-0.260143
C80	C	0.982734	-0.352655	-0.369272
C81	C	0.983535	-0.309454	-0.494044
H82	H	0.935856	-0.255946	-0.265509
H83	H	1.032770	-0.268666	-0.265398
H84	H	0.933674	-0.380101	-0.364020
H85	H	1.030579	-0.392836	-0.363951
H86	H	1.032600	-0.281994	-0.499299
H87	H	0.935686	-0.269275	-0.499396
H88	H	0.982885	-0.347802	-0.568102
C89	C	0.876874	0.008326	-0.350291
C90	C	0.832726	-0.035849	-0.444082
C91	C	0.782216	-0.086332	-0.372404
H92	H	0.910867	-0.029985	-0.294144
H93	H	0.838550	0.042366	-0.294206
H94	H	0.871044	-0.069886	-0.500144
H95	H	0.798717	0.002441	-0.500232
H96	H	0.743893	-0.052292	-0.316318
H97	H	0.816216	-0.124638	-0.316260
H98	H	0.752250	-0.116305	-0.436030
H99	H	0.890661	0.022028	-0.630617
C100	C	1.178297	0.194099	-0.375943
C101	C	1.176990	0.121971	-0.296048
C102	C	1.257675	0.095968	-0.247904
H103	H	1.214888	0.182335	-0.451769
H104	H	1.197320	0.237151	-0.321629
H105	H	1.157979	0.078928	-0.350359
H106	H	1.140417	0.133714	-0.220202
H107	H	1.276697	0.139020	-0.193590
H108	H	1.294259	0.084209	-0.323737
H109	H	1.256797	0.047032	-0.193679
C110	C	1.055194	0.306143	-0.368775
C111	C	1.103304	0.368071	-0.413401
C112	C	1.070637	0.445330	-0.358686
H113	H	0.999163	0.319382	-0.398894
H114	H	1.056446	0.303308	-0.271259
H115	H	1.102044	0.370907	-0.510897
H116	H	1.159336	0.354860	-0.383285
H117	H	1.071889	0.442495	-0.261170
H118	H	1.014606	0.458561	-0.388808
H119	H	1.103279	0.487356	-0.388946
