data_functionalizedCrystal
_audit_creation_method	'MofGen! by Chris Wilmer'
_symmetry_space_group_name_H-M	'P1'
_symmetry_Int_Tables_number	1
_symmetry_cell_setting	triclinic
loop_
_symmetry_equiv_pos_as_xyz
  x,y,z
_cell_length_a	14.044220
_cell_length_b	10.489741
_cell_length_c	12.503572
_cell_angle_alpha	93.559494
_cell_angle_beta	86.164750
_cell_angle_gamma	88.864026
loop_
_atom_site_label
_atom_site_type_symbol
_atom_site_fract_x
_atom_site_fract_y
_atom_site_fract_z
O1	O	1.265220	0.300990	-0.089205
O2	O	1.765220	0.800990	0.410795
O3	O	0.989177	0.289883	-0.089232
O4	O	1.489177	0.789883	0.410768
O5	O	1.133479	0.110477	-0.089211
O6	O	1.633479	0.610477	0.410789
O7	O	1.120918	0.480397	-0.089225
O8	O	1.620918	0.980397	0.410775
O9	O	1.122627	0.123993	0.089429
O10	O	1.622627	0.623993	0.589429
O11	O	0.978325	0.303400	0.089408
O12	O	1.478325	0.803400	0.589408
O13	O	1.254368	0.314507	0.089436
O14	O	1.754368	0.814507	0.589436
Cu15	Cu	1.115355	0.310188	0.105733
Cu16	Cu	1.615355	0.810188	0.605733
Cu17	Cu	1.128189	0.294203	-0.105530
Cu18	Cu	1.628189	0.794203	0.394470
O19	O	1.110065	0.493914	0.089415
O20	O	1.610065	0.993914	0.589415
C21	C	0.948403	0.291780	0.000085
C22	C	1.448403	0.791780	0.500085
C23	C	0.843079	0.277280	0.000074
C24	C	1.343079	0.777280	0.500074
C25	C	0.650235	0.250773	0.000097
C26	C	1.150235	0.750773	0.500097
C27	C	0.593304	0.353611	0.000097
C28	C	1.093304	0.853611	0.500097
C29	C	0.485999	0.338862	0.000110
C30	C	0.985999	0.838862	0.500110
C31	C	0.757550	0.265520	0.000084
C32	C	1.257550	0.765520	0.500084
C33	C	1.127104	0.069607	0.000108
C34	C	1.627104	0.569607	0.500108
C35	C	1.124266	-0.072311	0.000106
C36	C	1.624266	0.427689	0.500106
C37	C	1.032451	-0.149764	0.000089
C38	C	1.532451	0.350236	0.500089
C39	C	1.070473	-0.230823	0.088172
C40	C	1.570473	0.269177	0.588172
C41	C	1.081194	-0.244122	-0.087953
C42	C	1.581194	0.255878	0.412047
C43	C	1.162321	-0.151494	0.088262
C44	C	1.662321	0.348506	0.588262
C45	C	1.173035	-0.164791	-0.087943
C46	C	1.673035	0.335209	0.412057
C47	C	1.211122	-0.245814	0.000162
C48	C	1.711122	0.254186	0.500162
C49	C	1.295142	0.312610	0.000116
C50	C	1.795142	0.812610	0.500116
C51	C	1.400466	0.327110	0.000120
C52	C	1.900466	0.827110	0.500120
C53	C	1.116440	0.534783	0.000093
C54	C	1.616440	1.034783	0.500093
C55	C	1.119279	0.676700	0.000088
C56	C	1.619279	1.176700	0.500088
N57	N	1.106335	0.321431	0.254324
N58	N	1.606335	0.821431	0.754324
N59	N	1.137217	0.282950	-0.254121
N60	N	1.637217	0.782950	0.245879
C61	C	1.093067	0.337981	0.473438
C62	C	1.593067	0.837981	0.973438
C63	C	1.150482	0.266404	0.526773
C64	C	1.650482	0.766404	1.026773
C65	C	1.143099	0.275613	0.648695
C66	C	1.643099	0.775613	1.148695
C67	C	1.100449	0.328774	0.351504
C68	C	1.600449	0.828774	0.851504
H69	H	0.618389	0.151662	0.000106
H70	H	1.118389	0.651662	0.500106
H71	H	0.956955	-0.107764	0.000170
H72	H	1.456955	0.392236	0.500170
O73	O	0.631452	0.471763	0.000012
O74	O	1.131452	0.971763	0.500012
C75	C	0.731652	0.460383	0.000016
C76	C	1.231652	0.960383	0.500016
H77	H	0.756134	0.360794	-0.033774
H78	H	1.256134	0.860794	0.466226
H79	H	0.765780	0.534986	-0.051885
H80	H	1.265780	1.034986	0.448115
H81	H	0.754068	0.476165	0.085708
H82	H	1.254068	0.976165	0.585708
H83	H	1.046857	-0.284662	-0.162428
H84	H	1.546857	0.215338	0.337572
H85	H	1.038372	0.406172	0.519337
H86	H	1.538372	0.906172	1.019337
O87	O	1.018587	-0.265745	0.176923
O88	O	1.518587	0.234255	0.676923
C89	C	0.924436	-0.216615	0.176619
C90	C	1.424436	0.283385	0.676619
H91	H	0.907815	-0.197875	0.090904
H92	H	1.407815	0.302125	0.590904
H93	H	0.872455	-0.288794	0.209885
H94	H	1.372455	0.211206	0.709885
H95	H	0.916904	-0.123453	0.228820
H96	H	1.416904	0.376547	0.728820
H97	H	1.205182	0.198210	0.480868
H98	H	1.705182	0.698210	0.980868
H99	H	1.286677	-0.287570	0.000218
H100	H	1.786677	0.212430	0.500218
O101	O	1.203322	-0.103159	0.177093
O102	O	1.703322	0.396841	0.677093
C103	C	1.285300	-0.035636	0.145673
C104	C	1.785300	0.464364	0.645673
H105	H	1.279319	-0.004224	0.060671
H106	H	1.779319	0.495776	0.560671
H107	H	1.291516	0.052055	0.203143
H108	H	1.791516	0.552055	0.703143
H109	H	1.351354	-0.100136	0.147799
H110	H	1.851354	0.399864	0.647799
H111	H	1.216375	-0.135444	-0.162407
H112	H	1.716375	0.364556	0.337593
