data_functionalizedCrystal
_audit_creation_method	'MofGen! by Chris Wilmer'
_symmetry_space_group_name_H-M	'P1'
_symmetry_Int_Tables_number	1
_symmetry_cell_setting	triclinic
loop_
_symmetry_equiv_pos_as_xyz
  x,y,z
_cell_length_a	16.109301
_cell_length_b	10.268362
_cell_length_c	16.109304
_cell_angle_alpha	90.002474
_cell_angle_beta	83.462059
_cell_angle_gamma	90.001865
loop_
_atom_site_label
_atom_site_type_symbol
_atom_site_fract_x
_atom_site_fract_y
_atom_site_fract_z
O1	O	1.103133	0.108210	0.106868
O2	O	0.861071	0.108229	0.120167
O3	O	0.988751	0.108220	-0.007514
O4	O	0.975454	0.108219	0.234548
O5	O	0.988739	-0.108381	-0.007519
O6	O	0.861060	-0.108371	0.120162
O7	O	1.103122	-0.108391	0.106862
Cu8	Cu	0.982090	-0.128158	0.113512
Cu9	Cu	0.982103	0.127997	0.113518
O10	O	0.975443	-0.108381	0.234543
C11	C	0.830091	-0.000068	0.119626
C12	C	0.737795	-0.000061	0.118010
C13	C	0.515524	-0.000076	0.190018
C14	C	0.428803	-0.000084	0.188494
C15	C	0.448676	-0.000078	0.037005
C16	C	0.535395	-0.000079	0.038530
C17	C	0.568816	-0.000071	0.115039
C18	C	0.395377	-0.000079	0.111990
C19	C	0.301351	-0.000088	0.110337
C20	C	0.662848	-0.000065	0.116693
N21	N	0.982087	-0.308324	0.113507
C22	C	0.982099	-0.573995	0.113516
C23	C	0.982089	-0.426157	0.113513
C24	C	1.134102	-0.000090	0.107404
C25	C	1.226398	-0.000090	0.109019
C26	C	0.988206	-0.000078	-0.038491
C27	C	0.986590	-0.000069	-0.130786
N28	N	0.982113	0.308163	0.113516
C29	C	0.982862	0.117996	-0.343121
C30	C	0.981336	0.117995	-0.429841
C31	C	0.981328	-0.118155	-0.429844
C32	C	0.982848	-0.118153	-0.343124
C33	C	0.983620	-0.000073	-0.299766
C34	C	0.980573	-0.000077	-0.473205
C35	C	0.978919	-0.000079	-0.567231
C36	C	0.985273	-0.000071	-0.205734
C37	C	0.975987	-0.000081	0.265520
C38	C	0.977603	-0.000082	0.357816
H39	H	0.578788	-0.000080	-0.022530
H40	H	0.983460	-0.214305	-0.307823
H41	H	0.980702	-0.214291	-0.465157
O42	O	0.377071	0.000148	0.261351
C43	C	0.333593	0.112325	0.390387
C44	C	0.392213	0.112241	0.307895
H45	H	0.345827	0.202928	0.428048
H46	H	0.265854	0.112404	0.376210
H47	H	0.345741	0.021638	0.428001
H48	H	0.380141	0.202912	0.270240
H49	H	0.459933	0.112095	0.322131
O50	O	0.548128	-0.000018	0.264263
C51	C	0.672913	-0.000096	0.333754
C52	C	0.636104	-0.000128	0.249612
H53	H	0.744046	-0.000212	0.321938
H54	H	0.651023	0.090569	0.370822
H55	H	0.650912	-0.090725	0.370800
H56	H	0.658088	0.090439	0.212499
H57	H	0.657990	-0.090854	0.212608
O58	O	0.416070	-0.000018	-0.037239
C59	C	0.291284	-0.000085	-0.106727
C60	C	0.328095	-0.000128	-0.022586
H61	H	0.220151	-0.000202	-0.094910
H62	H	0.313177	0.090585	-0.143787
H63	H	0.313281	-0.090709	-0.143782
H64	H	0.306115	0.090435	0.014536
H65	H	0.306206	-0.090858	0.014410
O66	O	0.980713	0.232605	-0.472061
C67	C	1.051010	0.369689	-0.579372
C68	C	1.051810	0.239828	-0.531638
H69	H	1.108494	0.375583	-0.627538
H70	H	0.992185	0.375618	-0.612405
H71	H	1.051781	0.454055	-0.533462
H72	H	1.051070	0.155388	-0.577492
H73	H	1.110630	0.234013	-0.498592
H74	H	0.983488	0.214144	-0.307820
