data_functionalizedCrystal
_audit_creation_method	'MofGen! by Chris Wilmer'
_symmetry_space_group_name_H-M	'P1'
_symmetry_Int_Tables_number	1
_symmetry_cell_setting	triclinic
loop_
_symmetry_equiv_pos_as_xyz
  x,y,z
_cell_length_a	16.959455
_cell_length_b	19.121063
_cell_length_c	16.959447
_cell_angle_alpha	92.410321
_cell_angle_beta	89.982507
_cell_angle_gamma	92.465894
loop_
_atom_site_label
_atom_site_type_symbol
_atom_site_fract_x
_atom_site_fract_y
_atom_site_fract_z
Zn1	Zn	1.194939	-0.279682	-0.460313
Zn2	Zn	1.189198	-0.397135	-0.333764
Zn3	Zn	1.062760	-0.279696	-0.328151
Zn4	Zn	1.057078	-0.397090	-0.465900
O5	O	1.125994	-0.338401	-0.397032
O6	O	1.304788	-0.295275	-0.443537
O7	O	1.172401	-0.381582	-0.222409
O8	O	1.085074	-0.181410	-0.340996
O9	O	1.300570	-0.381568	-0.350561
O10	O	1.182186	-0.181399	-0.438094
O11	O	1.079507	-0.295300	-0.218286
O12	O	0.951396	-0.295256	-0.346413
O13	O	1.075390	-0.381491	-0.575769
O14	O	0.947221	-0.381505	-0.447617
O15	O	1.176677	-0.295231	-0.571664
O16	O	1.166891	-0.495414	-0.355979
O17	O	1.069823	-0.495381	-0.453059
C18	C	0.920628	-0.338378	-0.397013
C19	C	0.832772	-0.338385	-0.397024
C20	C	0.463446	-0.293454	-0.344439
C21	C	0.459141	-0.383405	-0.449673
C22	C	0.541688	-0.383395	-0.449667
C23	C	0.585117	-0.338415	-0.397046
C24	C	0.546000	-0.293444	-0.344430
C25	C	0.580811	-0.428370	-0.502277
C26	C	0.663362	-0.428362	-0.502273
C27	C	0.706793	-0.383377	-0.449655
C28	C	0.667671	-0.338405	-0.397038
C29	C	0.711100	-0.293424	-0.344417
C30	C	0.671980	-0.248448	-0.291803
C31	C	0.589431	-0.248460	-0.291813
C32	C	0.789342	-0.383365	-0.449645
C33	C	0.793654	-0.293414	-0.344408
C34	C	1.117139	-0.520881	-0.405751
C35	C	1.113424	-0.598947	-0.409508
C36	C	1.162255	-0.635617	-0.360770
C37	C	1.158765	-0.708968	-0.364308
C38	C	1.106439	-0.745648	-0.416580
C39	C	1.057606	-0.708973	-0.465323
C40	C	1.061100	-0.635624	-0.461789
C41	C	1.093362	-0.967118	-0.429782
C42	C	1.089869	-1.040473	-0.433311
C43	C	1.191031	-1.040462	-0.332296
C44	C	1.194517	-0.967110	-0.328763
C45	C	1.145686	-0.930442	-0.377509
C46	C	1.102869	-0.820625	-0.420196
C47	C	1.149261	-0.855467	-0.373897
C48	C	1.332161	-0.338425	-0.397052
C49	C	1.420017	-0.338435	-0.397060
C50	C	1.126040	-0.338354	-0.603198
C51	C	1.126060	-0.338334	-0.691054
C52	C	1.134904	-0.155208	-0.388296
C53	C	1.138701	-0.077142	-0.384573
C54	C	1.073335	-0.383237	-0.734466
C55	C	1.178799	-0.293408	-0.730194
C56	C	1.178817	-0.293385	-0.812739
C57	C	1.126092	-0.338288	-0.856151
C58	C	1.073350	-0.383214	-0.817018
C59	C	1.231552	-0.248455	-0.851877
C60	C	1.231571	-0.248430	-0.934427
C61	C	1.178850	-0.293337	-0.977841
C62	C	1.126106	-0.338265	-0.938703
C63	C	1.073381	-0.383168	-0.982116
C64	C	1.020641	-0.428100	-0.942980
C65	C	1.020628	-0.428121	-0.860432
C66	C	1.178863	-0.293316	-1.060388
C67	C	1.073396	-0.383145	-1.064668
C68	C	1.125995	-0.338397	-0.191665
C69	C	1.126138	-0.338219	-0.103801
H70	H	0.557572	-0.211843	-0.248976
C71	C	1.244743	-1.080803	-0.278682
N72	N	1.285204	-1.111188	-0.238299
H73	H	1.030463	-0.419713	-1.100009
C74	C	0.719763	-0.198968	-0.233924
N75	N	0.755757	-0.161699	-0.190333
C76	C	1.039686	-0.926792	-0.483444
N77	N	0.999270	-0.896416	-0.523881
H78	H	1.237125	-0.937247	-0.286199
C79	C	1.289591	-0.199009	-0.977469
N80	N	1.333295	-0.161786	-1.009889
H81	H	1.221797	-0.256728	-1.092249
C82	C	0.962640	-0.477486	-0.990744
N83	N	0.918953	-0.514681	-1.026723
H84	H	0.545445	-0.464995	-0.545113
H85	H	0.431591	-0.256833	-0.301604
C86	C	0.962612	-0.477535	-0.817376
N87	N	0.918911	-0.514750	-0.784943
C88	C	1.015321	-0.432658	-0.691416
N89	N	0.971623	-0.469881	-0.658990
C90	C	1.007381	-0.595288	-0.515404
N91	N	0.966921	-0.564907	-0.555792
H92	H	0.423776	-0.420030	-0.492510
C93	C	1.236789	-0.244015	-0.682438
N94	N	1.280470	-0.206810	-0.646464
H95	H	1.274475	-0.211896	-0.816525
C96	C	1.032309	-1.080819	-0.490821
N97	N	0.988958	-1.111209	-0.534137
H98	H	0.829009	-0.256781	-0.301562
H99	H	0.821190	-0.419987	-0.492480
C100	C	0.706387	-0.477834	-0.560152
N101	N	0.738794	-0.515096	-0.603748
H102	H	1.198529	-0.738821	-0.324620
C103	C	1.219817	-0.595275	-0.303265
N104	N	1.263176	-0.564892	-0.259952
H105	H	1.015004	-0.738844	-0.507887
H106	H	1.191868	-0.825600	-0.331340
H107	H	1.060264	-0.850498	-0.462754
