data_functionalizedCrystal
_audit_creation_method	'MofGen! by Chris Wilmer'
_symmetry_space_group_name_H-M	'P1'
_symmetry_Int_Tables_number	1
_symmetry_cell_setting	triclinic
loop_
_symmetry_equiv_pos_as_xyz
  x,y,z
_cell_length_a	11.792241
_cell_length_b	8.597340
_cell_length_c	7.681481
_cell_angle_alpha	103.474906
_cell_angle_beta	84.218353
_cell_angle_gamma	84.766049
loop_
_atom_site_label
_atom_site_type_symbol
_atom_site_fract_x
_atom_site_fract_y
_atom_site_fract_z
O1	O	0.156959	2.101203	0.172360
O2	O	0.175043	1.637298	0.101974
O3	O	0.000779	1.880509	0.138888
O4	O	0.331222	1.857991	0.135447
O5	O	-0.020718	1.910444	0.436289
O6	O	0.153545	1.667233	0.399375
O7	O	0.135461	2.131137	0.469762
Zn8	Zn	0.141090	1.903938	0.481787
Zn9	Zn	0.169414	1.864497	0.089948
O10	O	0.309724	1.887926	0.432848
C11	C	0.163549	1.592875	0.241664
C12	C	0.161317	1.415912	0.214814
C13	C	-0.052254	1.894062	0.287373
C14	C	-0.178249	1.889829	0.286729
C15	C	-0.408924	1.882042	0.285518
C16	C	-0.280560	1.886368	0.286191
C17	C	0.362758	1.874373	0.284358
C18	C	0.488754	1.878605	0.284991
C19	C	0.146955	2.175560	0.330068
C20	C	0.149187	2.352522	0.356906
N21	N	0.121759	1.930867	0.749209
N22	N	0.188736	1.837581	-0.177471
H23	H	0.169995	1.334791	0.072606
N24	N	0.137695	1.459963	0.545265
H25	H	0.202520	1.425931	0.609926
H26	H	0.061856	1.450514	0.613536
N27	N	0.031210	2.057031	0.867963
H28	H	-0.046995	2.034589	0.832581
H29	H	0.046652	2.166993	0.852578
H30	H	0.257099	1.742356	0.732879
