data_functionalizedCrystal
_audit_creation_method	'MofGen! by Chris Wilmer'
_symmetry_space_group_name_H-M	'P1'
_symmetry_Int_Tables_number	1
_symmetry_cell_setting	triclinic
loop_
_symmetry_equiv_pos_as_xyz
  x,y,z
_cell_length_a	8.559649
_cell_length_b	8.634740
_cell_length_c	7.088668
_cell_angle_alpha	95.969264
_cell_angle_beta	97.664772
_cell_angle_gamma	85.174486
loop_
_atom_site_label
_atom_site_type_symbol
_atom_site_fract_x
_atom_site_fract_y
_atom_site_fract_z
O1	O	-2.128734	0.039207	-0.158957
O2	O	-1.675573	-0.039006	-0.158979
O3	O	-1.880698	0.222039	-0.158924
O4	O	-1.923609	-0.221839	-0.159013
O5	O	-1.847637	0.246389	0.159070
O6	O	-1.642512	-0.014656	0.159015
O7	O	-2.095673	0.063556	0.159037
Cu8	Cu	-1.866074	0.026673	0.188061
Cu9	Cu	-1.905172	-0.002123	-0.188004
O10	O	-1.890548	-0.197489	0.158981
C11	C	-1.600426	-0.032758	0.000016
C12	C	-1.425762	-0.050401	0.000009
N13	N	-1.838585	0.046929	0.452565
C14	C	-1.854448	0.290514	0.000080
C15	C	-1.825467	0.458267	0.000102
C16	C	-2.170821	0.057308	0.000038
C17	C	-2.345486	0.074950	0.000032
C18	C	-1.916794	0.734040	0.000020
C19	C	-1.945761	0.566296	0.000127
N20	N	-1.932671	-0.022365	-0.452507
H21	H	-1.360861	-0.171227	-0.000025
H22	H	-1.700307	0.494115	0.000099
H23	H	-2.030148	-0.094173	0.465779
O24	O	-2.094985	0.523276	0.000201
C25	C	-2.091686	0.359740	0.000111
H26	H	-1.968625	0.312894	0.060301
H27	H	-2.121863	0.304970	-0.152458
C28	C	-2.364702	0.375905	0.050876
C29	C	-2.213559	0.318369	0.124818
H30	H	-2.439883	0.350383	0.127793
H31	H	-2.366927	0.486082	0.050929
H32	H	-2.389827	0.330257	-0.076264
H33	H	-2.188429	0.364031	0.251945
H34	H	-2.211332	0.208198	0.124789
H35	H	-1.410381	0.195766	0.000046
H36	H	-1.741123	0.118741	0.534269
