data_functionalizedCrystal
_audit_creation_method	'MofGen! by Chris Wilmer'
_symmetry_space_group_name_H-M	'P1'
_symmetry_Int_Tables_number	1
_symmetry_cell_setting	triclinic
loop_
_symmetry_equiv_pos_as_xyz
  x,y,z
_cell_length_a	12.827893
_cell_length_b	12.827892
_cell_length_c	12.759393
_cell_angle_alpha	90.030856
_cell_angle_beta	90.019703
_cell_angle_gamma	90.015553
loop_
_atom_site_label
_atom_site_type_symbol
_atom_site_fract_x
_atom_site_fract_y
_atom_site_fract_z
Zn1	Zn	1.597674	-0.415967	0.594020
Zn2	Zn	1.597567	-0.590748	0.418343
Zn3	Zn	1.422914	-0.416022	0.418356
Zn4	Zn	1.422901	-0.590667	0.593980
O5	O	1.510264	-0.503351	0.506175
O6	O	1.743896	-0.439163	0.570727
O7	O	1.574360	-0.567626	0.271323
O8	O	1.446147	-0.269778	0.441681
O9	O	1.743817	-0.567573	0.441658
O10	O	1.574542	-0.269738	0.570740
O11	O	1.446043	-0.439256	0.271333
O12	O	1.276676	-0.439178	0.441642
O13	O	1.446124	-0.567436	0.741007
O14	O	1.276666	-0.567489	0.570672
O15	O	1.574529	-0.439085	0.741036
O16	O	1.574347	-0.736973	0.441619
O17	O	1.446020	-0.736914	0.570659
C18	C	1.238754	-0.503332	0.506155
C19	C	1.122601	-0.503348	0.506171
C20	C	0.950733	-0.566808	0.442237
C21	C	1.070783	-0.566792	0.442219
C22	C	1.510199	-0.774861	0.506156
C23	C	1.510266	-0.891014	0.506184
C24	C	1.573842	-0.942793	0.442401
C25	C	1.573913	-1.062843	0.442428
C26	C	1.782834	-0.503371	0.506196
C27	C	1.898987	-0.503379	0.506204
C28	C	1.510337	-0.503245	0.780208
C29	C	1.510368	-0.503200	0.896985
C30	C	1.510358	-0.230781	0.506216
C31	C	1.510398	-0.114627	0.506234
C32	C	1.510251	-0.503380	0.233207
C33	C	1.510422	-0.503131	0.116431
C34	C	1.577238	-0.436361	0.951864
C35	C	1.577263	-0.436324	1.061588
C36	C	1.443545	-0.569973	1.061545
C37	C	1.443516	-0.570005	0.951823
C38	C	1.654442	-0.359203	0.951890
C39	C	1.654467	-0.359165	1.061614
H40	H	0.943562	-0.449059	0.560951
H41	H	1.389114	-0.624360	1.106207
C42	C	1.647445	-1.122997	0.368652
N43	N	1.702832	-1.168308	0.313081
H44	H	1.735403	-0.380841	1.091395
C45	C	1.436861	-1.054481	0.580011
N46	N	1.381474	-1.009170	0.635582
C47	C	0.890519	-0.640188	0.368266
N48	N	0.845167	-0.695460	0.312550
H49	H	1.078107	-0.449045	0.560942
C50	C	1.758285	-0.398369	0.905907
N51	N	1.836502	-0.427862	0.871271
H52	H	1.625510	-0.282269	1.095661
C53	C	1.625184	-0.249875	0.911684
N54	N	1.603144	-0.167532	0.881401
C55	C	1.130898	-0.640156	0.368229
N56	N	1.176180	-0.695413	0.312496
C57	C	1.647304	-0.882618	0.368600
N58	N	1.702636	-0.837295	0.313009
H59	H	1.455894	-0.935560	0.560814
C60	C	1.369938	-0.643517	0.891459
N61	N	1.314514	-0.698887	0.845994
