data_functionalizedCrystal
_audit_creation_method	'MofGen! by Chris Wilmer'
_symmetry_space_group_name_H-M	'P1'
_symmetry_Int_Tables_number	1
_symmetry_cell_setting	triclinic
loop_
_symmetry_equiv_pos_as_xyz
  x,y,z
_cell_length_a	10.723024
_cell_length_b	14.044220
_cell_length_c	9.798715
_cell_angle_alpha	89.995876
_cell_angle_beta	89.996609
_cell_angle_gamma	88.828373
loop_
_atom_site_label
_atom_site_type_symbol
_atom_site_fract_x
_atom_site_fract_y
_atom_site_fract_z
O1	O	1.670498	0.133040	-0.113486
O2	O	2.170498	0.633040	0.386514
O3	O	1.308619	0.145774	-0.113491
O4	O	1.808619	0.645774	0.386509
O5	O	1.484127	0.001387	-0.113476
O6	O	1.984127	0.501387	0.386524
O7	O	1.494990	0.277427	-0.113502
O8	O	1.994990	0.777427	0.386498
O9	O	1.484112	0.001387	0.113507
O10	O	1.984112	0.501387	0.613507
O11	O	1.308605	0.145774	0.113491
O12	O	1.808605	0.645774	0.613491
O13	O	1.670483	0.133039	0.113496
O14	O	2.170483	0.633039	0.613496
Zn15	Zn	1.489542	0.139407	0.149532
Zn16	Zn	1.989542	0.639407	0.649532
Zn17	Zn	1.489561	0.139407	-0.149527
Zn18	Zn	1.989561	0.639407	0.350473
O19	O	1.494976	0.277427	0.113480
O20	O	1.994976	0.777427	0.613480
C21	C	1.262020	0.144847	-0.000001
C22	C	1.762020	0.644847	0.499999
C23	C	1.123188	0.142075	-0.000002
C24	C	1.623188	0.642075	0.499998
C25	C	1.056288	0.222866	-0.000011
C26	C	1.556288	0.722866	0.499989
C27	C	0.912798	0.220002	-0.000013
C28	C	1.412798	0.720002	0.499987
C29	C	1.479364	-0.033958	0.000016
C30	C	1.979364	0.466042	0.500016
C31	C	1.465180	-0.139276	0.000018
C32	C	1.965180	0.360724	0.500018
C33	C	1.439248	-0.332106	-0.000002
C34	C	1.939248	0.167894	0.499998
C35	C	1.539849	-0.389085	-0.000005
C36	C	2.039849	0.110915	0.499995
C37	C	1.525420	-0.496383	-0.000016
C38	C	2.025420	0.003617	0.499984
C39	C	1.453675	-0.224799	0.000009
C40	C	1.953675	0.275201	0.500009
C41	C	1.717083	0.133966	0.000002
C42	C	2.217083	0.633966	0.500002
C43	C	1.855914	0.136739	-0.000005
C44	C	2.355914	0.636739	0.499995
C45	C	1.499738	0.312772	-0.000015
C46	C	1.999738	0.812772	0.499985
C47	C	1.513923	0.418090	-0.000025
C48	C	2.013923	0.918090	0.499975
N49	N	1.489538	0.139406	0.353631
N50	N	1.989538	0.639406	0.853631
N51	N	1.489573	0.139401	-0.353627
N52	N	1.989573	0.639401	0.146373
C53	C	1.563202	0.078514	0.421415
C54	C	2.063202	0.578514	0.921415
C55	C	1.563222	0.078511	0.578578
C56	C	2.063222	0.578511	1.078578
H57	H	1.636814	-0.357284	-0.000095
H58	H	2.136814	0.142716	0.499905
H59	H	1.626250	0.026381	0.363098
H60	H	2.126250	0.526381	0.863098
O61	O	1.114876	0.307836	-0.000073
O62	O	1.614876	0.807836	0.499927
C63	C	1.245101	0.291779	-0.000029
C64	C	1.745101	0.791779	0.499971
H65	H	1.267322	0.217934	-0.042998
H66	H	1.767322	0.717934	0.457002
H67	H	1.281866	0.296570	0.108868
H68	H	1.781866	0.796570	0.608868
C69	C	1.280378	0.458219	-0.036266
C70	C	1.780378	0.958219	0.463734
C71	C	1.307671	0.367524	-0.089052
C72	C	1.807671	0.867524	0.410948
H73	H	1.318977	0.504944	-0.091174
H74	H	1.818977	1.004944	0.408826
H75	H	1.192643	0.469038	-0.036291
H76	H	1.692643	0.969038	0.463709
H77	H	1.311017	0.462197	0.054481
H78	H	1.811017	0.962197	0.554481
H79	H	1.277019	0.363543	-0.179790
H80	H	1.777019	0.863543	0.320210
H81	H	1.395403	0.356706	-0.089045
H82	H	1.895403	0.856706	0.410955
H83	H	1.342291	-0.363906	-0.000007
H84	H	1.842291	0.136094	0.499993
H85	H	1.626294	0.026383	0.636869
H86	H	2.126294	0.526383	1.136869
H87	H	1.426508	0.191538	0.588091
H88	H	1.926508	0.691538	1.088091
H89	H	1.426481	0.191531	0.411950
H90	H	1.926481	0.691531	0.911950
H91	H	0.855286	0.289166	-0.000026
H92	H	1.355286	0.789166	0.499974
H93	H	1.074234	0.070786	-0.000030
H94	H	1.574234	0.570786	0.499970
O95	O	0.924642	0.054282	-0.000180
O96	O	1.424642	0.554282	0.499820
C97	C	1.000398	0.050685	-0.117754
C98	C	1.500398	0.550685	0.382246
H99	H	1.015244	0.126035	-0.156954
H100	H	1.515244	0.626035	0.343046
H101	H	0.952801	0.007038	-0.200066
H102	H	1.452801	0.507038	0.299934
C103	C	1.109156	-0.088614	-0.033895
C104	C	1.609156	0.411386	0.466105
C105	C	1.127399	0.003933	-0.082035
C106	C	1.627399	0.503933	0.417965
H107	H	1.187495	-0.117457	-0.011866
H108	H	1.687495	0.382543	0.488134
H109	H	1.058116	-0.086194	0.045314
H110	H	1.558116	0.413806	0.545314
H111	H	1.069488	-0.124975	-0.102497
H112	H	1.569488	0.375025	0.397503
H113	H	1.167052	0.040295	-0.013428
H114	H	1.667052	0.540295	0.486572
H115	H	1.178450	0.001518	-0.161233
H116	H	1.678450	0.501518	0.338767
