data_functionalizedCrystal
_audit_creation_method	'MofGen! by Chris Wilmer'
_symmetry_space_group_name_H-M	'P1'
_symmetry_Int_Tables_number	1
_symmetry_cell_setting	triclinic
loop_
_symmetry_equiv_pos_as_xyz
  x,y,z
_cell_length_a	17.699083
_cell_length_b	12.376897
_cell_length_c	17.699083
_cell_angle_alpha	77.312465
_cell_angle_beta	83.283015
_cell_angle_gamma	77.316470
loop_
_atom_site_label
_atom_site_type_symbol
_atom_site_fract_x
_atom_site_fract_y
_atom_site_fract_z
O1	O	0.991179	0.093844	0.082800
O2	O	1.491179	0.593844	0.582800
O3	O	0.770795	0.093881	0.095247
O4	O	1.270795	0.593881	0.595247
O5	O	0.887215	0.093852	-0.021164
O6	O	1.387215	0.593852	0.478836
O7	O	0.874759	0.093874	0.199211
O8	O	1.374759	0.593874	0.699211
O9	O	0.913042	-0.094149	0.004698
O10	O	1.413042	0.405851	0.504698
O11	O	0.796622	-0.094119	0.121109
O12	O	1.296622	0.405881	0.621109
O13	O	1.017006	-0.094157	0.108662
O14	O	1.517006	0.405843	0.608662
Zn15	Zn	0.910915	-0.123987	0.118991
Zn16	Zn	1.410915	0.376013	0.618991
Zn17	Zn	0.876886	0.123712	0.084918
Zn18	Zn	1.376886	0.623712	0.584918
O19	O	0.900586	-0.094127	0.225073
O20	O	1.400586	0.405873	0.725073
C21	C	0.755511	-0.000114	0.107731
C22	C	1.255511	0.499886	0.607731
C23	C	0.671491	-0.000100	0.106391
C24	C	1.171491	0.499900	0.606391
N25	N	0.934144	-0.293035	0.142245
N26	N	1.434144	0.206965	0.642245
C27	C	0.622869	-0.000094	0.174723
C28	C	1.122869	0.499906	0.674723
C29	C	0.543928	-0.000109	0.173463
C30	C	1.043928	0.499891	0.673463
C31	C	0.513609	-0.000122	0.103869
C32	C	1.013609	0.499878	0.603869
C33	C	0.562238	-0.000132	0.035531
C34	C	1.062238	0.499868	0.535531
C35	C	0.641178	-0.000125	0.036793
C36	C	1.141178	0.499875	0.536793
C37	C	0.243878	-0.000160	0.030440
C38	C	0.743878	0.499840	0.530440
C39	C	0.164931	-0.000163	0.029182
C40	C	0.664931	0.499837	0.529182
C41	C	0.146628	-0.000144	0.167110
C42	C	0.646628	0.499856	0.667110
C43	C	0.225569	-0.000137	0.168372
C44	C	0.725569	0.499863	0.668372
C45	C	0.274191	-0.000153	0.100036
C46	C	0.774191	0.499847	0.600036
C47	C	0.359789	-0.000139	0.101403
C48	C	0.859789	0.499861	0.601403
C49	C	0.428012	-0.000128	0.102499
C50	C	0.928012	0.499872	0.602499
C51	C	0.799714	-0.648081	0.007672
C52	C	1.299714	-0.148081	0.507672
C53	C	0.783443	-0.529748	-0.008606
C54	C	1.283443	-0.029748	0.491394
C55	C	0.821117	-0.470564	0.029106
C56	C	1.321117	0.029436	0.529106
C57	C	0.875064	-0.529724	0.083097
C58	C	1.375064	-0.029724	0.583097
C59	C	0.891340	-0.648068	0.099372
C60	C	1.391340	-0.148068	0.599372
C61	C	0.912743	-0.470551	0.120806
C62	C	1.412743	0.029449	0.620806
C63	C	0.966690	-0.529711	0.174797
C64	C	1.466690	-0.029711	0.674797
C65	C	0.982963	-0.648044	0.191069
C66	C	1.482963	-0.148044	0.691069
C67	C	0.945290	-0.707228	0.153358
C68	C	1.445290	-0.207228	0.653358
C69	C	0.896467	-0.352207	0.104531
C70	C	1.396467	0.147793	0.604531
C71	C	0.988093	-0.352195	0.196231
C72	C	1.488093	0.147805	0.696231
C73	C	1.004364	-0.470527	0.212509
C74	C	1.504364	0.029473	0.712509
C75	C	1.032290	-0.000158	0.096177
C76	C	1.532290	0.499842	0.596177
C77	C	1.116309	-0.000165	0.097517
C78	C	1.616309	0.499835	0.597517
C79	C	0.899682	-0.000149	-0.036430
C80	C	1.399682	0.499851	0.463570
C81	C	0.898344	-0.000149	-0.120448
C82	C	1.398344	0.499851	0.379552
N83	N	0.853663	0.292759	0.061658
N84	N	1.353663	0.792759	0.561658
C85	C	0.966679	-0.000162	-0.169067
C86	C	1.466679	0.499838	0.330933
C87	C	0.965415	-0.000152	-0.248012
C88	C	1.465415	0.499848	0.251988
C89	C	0.895816	-0.000137	-0.278335
C90	C	1.395816	0.499863	0.221665
C91	C	0.827476	-0.000120	-0.229710
C92	C	1.327476	0.499880	0.270290
C93	C	0.828739	-0.000122	-0.150768
C94	C	1.328739	0.499878	0.349232
C95	C	0.822379	-0.000110	-0.548074
C96	C	1.322379	0.499890	-0.048074
C97	C	0.821121	-0.000111	-0.627022
C98	C	1.321121	0.499889	-0.127022
C99	C	0.959055	-0.000140	-0.645318
C100	C	1.459055	0.499860	-0.145318
C101	C	0.960318	-0.000142	-0.566376
C102	C	1.460318	0.499858	-0.066376
C103	C	0.891977	-0.000119	-0.517759
C104	C	1.391977	0.499881	-0.017759
C105	C	0.893348	-0.000128	-0.432159
C106	C	1.393348	0.499872	0.067841
C107	C	0.894446	-0.000136	-0.363933
C108	C	1.394446	0.499864	0.136067
C109	C	0.888119	-0.000124	0.240339
C110	C	1.388119	0.499876	0.740339
C111	C	0.889456	-0.000116	0.324356
C112	C	1.389456	0.499884	0.824356
H113	H	0.647548	-0.000082	0.231395
H114	H	1.147548	0.499918	0.731395
H115	H	0.773093	-0.000111	-0.111182
H116	H	1.273093	0.499889	0.388818
H117	H	0.504342	-0.000102	0.229106
H118	H	1.004342	0.499898	0.729106
H119	H	0.107031	-0.000137	0.222753
H120	H	0.607031	0.499863	0.722753
H121	H	1.023355	-0.000182	-0.144384
H122	H	1.523355	0.499818	0.355616
H123	H	0.769051	-0.696279	-0.023032
H124	H	1.269051	-0.196279	0.476968
H125	H	0.250249	-0.000121	0.225042
H126	H	0.750249	0.499879	0.725042
H127	H	0.807866	-0.374212	0.015850
H128	H	1.307866	0.125788	0.515850
H129	H	0.140249	-0.000176	-0.027493
H130	H	0.640249	0.499824	0.472507
H131	H	0.283458	-0.000174	-0.025204
H132	H	0.783458	0.499826	0.474796
H133	H	0.764443	-0.000101	-0.651707
H134	H	1.264443	0.499899	-0.151707
H135	H	0.537548	-0.000159	-0.021132
H136	H	1.037548	0.499841	0.478868
H137	H	0.680766	-0.000130	-0.018850
H138	H	1.180766	0.499870	0.481150
H139	H	0.852543	-0.304051	0.060572
H140	H	1.352543	0.195949	0.560572
H141	H	0.739522	-0.481589	-0.052567
H142	H	1.239522	0.018411	0.447433
H143	H	0.766731	-0.000092	-0.508499
H144	H	1.266731	0.499908	-0.008499
H145	H	1.016993	-0.000160	-0.541692
H146	H	1.516993	0.499840	-0.041692
H147	H	0.958531	-0.803584	0.166612
H148	H	1.458531	-0.303584	0.666612
H149	H	1.026897	-0.696208	0.235025
H150	H	1.526897	-0.196208	0.735025
H151	H	1.048288	-0.518712	0.256469
H152	H	1.548288	-0.018712	0.756469
H153	H	0.770806	-0.000100	-0.254406
H154	H	1.270806	0.499900	0.245594
H155	H	1.018771	-0.304007	0.226939
H156	H	1.518771	0.195993	0.726939
H157	H	1.021061	-0.000165	-0.287595
H158	H	1.521061	0.499835	0.212405
H159	H	1.014701	-0.000152	-0.684913
H160	H	1.514701	0.499848	-0.184913
