data_functionalizedCrystal
_audit_creation_method	'MofGen! by Chris Wilmer'
_symmetry_space_group_name_H-M	'P1'
_symmetry_Int_Tables_number	1
_symmetry_cell_setting	triclinic
loop_
_symmetry_equiv_pos_as_xyz
  x,y,z
_cell_length_a	25.639242
_cell_length_b	19.805405
_cell_length_c	19.805399
_cell_angle_alpha	90.030709
_cell_angle_beta	90.018568
_cell_angle_gamma	90.017340
loop_
_atom_site_label
_atom_site_type_symbol
_atom_site_fract_x
_atom_site_fract_y
_atom_site_fract_z
Zn1	Zn	-0.799283	0.269633	-0.382742
Zn2	Zn	-0.799221	0.382824	-0.269550
Zn3	Zn	-0.711855	0.269637	-0.269563
Zn4	Zn	-0.711823	0.382768	-0.382694
O5	O	-0.755545	0.326216	-0.326137
O6	O	-0.872440	0.284671	-0.367741
O7	O	-0.787619	0.367835	-0.174835
O8	O	-0.723492	0.174920	-0.284602
O9	O	-0.872394	0.367832	-0.284580
O10	O	-0.787725	0.174917	-0.367754
O11	O	-0.723432	0.284677	-0.174845
O12	O	-0.638686	0.284622	-0.284555
O13	O	-0.723437	0.367735	-0.477417
O14	O	-0.638662	0.367738	-0.367672
O15	O	-0.787693	0.284616	-0.477452
O16	O	-0.787588	0.477533	-0.284533
O17	O	-0.723377	0.477492	-0.367659
C18	C	-0.619703	0.326175	-0.326110
C19	C	-0.561589	0.326174	-0.326115
C20	C	-0.310427	0.282977	-0.369501
C21	C	-0.365031	0.282972	-0.369500
O22	O	-0.393295	0.246222	-0.406393
N23	N	-0.392315	0.326196	-0.326131
C24	C	-0.364991	0.369434	-0.282766
O25	O	-0.393212	0.406200	-0.245878
C26	C	-0.310388	0.369442	-0.282772
C27	C	-0.283107	0.326209	-0.326139
C28	C	-0.283146	0.239748	-0.412865
C29	C	-0.228546	0.239753	-0.412866
C30	C	-0.201226	0.282985	-0.369503
C31	C	-0.228507	0.326214	-0.326139
C32	C	-0.283066	0.412682	-0.239411
C33	C	-0.228459	0.412687	-0.239421
C34	C	-0.201178	0.369454	-0.282788
C35	C	-0.146587	0.369450	-0.282777
N36	N	-0.119303	0.326226	-0.326146
C37	C	-0.146623	0.282993	-0.369509
C38	C	-0.479662	0.369415	-0.282759
C39	C	-0.534264	0.369404	-0.282749
C40	C	-0.534301	0.282943	-0.369483
C41	C	-0.479697	0.282950	-0.369489
C42	C	-0.452378	0.326190	-0.326127
C43	C	-0.031958	0.283005	-0.369506
C44	C	0.022648	0.283011	-0.369501
C45	C	0.022679	0.369475	-0.282770
C46	C	-0.031921	0.369466	-0.282772
C47	C	-0.059238	0.326229	-0.326146
O48	O	-0.118288	0.406183	-0.245905
O49	O	-0.118395	0.246240	-0.406397
C50	C	0.108082	0.326249	-0.326155
C51	C	0.049968	0.326244	-0.326139
C52	C	-0.755487	0.502072	-0.326104
C53	C	-0.755509	0.577304	-0.326113
C54	C	-0.755568	0.326169	-0.502680
C55	C	-0.755578	0.326149	-0.577912
C56	C	-0.755619	0.149673	-0.326185
C57	C	-0.755650	0.074441	-0.326205
C58	C	-0.788976	0.612647	-0.282875
C59	C	-0.788999	0.683335	-0.282890
C60	C	-0.755551	0.718679	-0.326140
C61	C	-0.722082	0.683331	-0.369383
C62	C	-0.722063	0.612644	-0.369371
C63	C	-0.722159	0.968404	-0.369433
C64	C	-0.722180	1.039096	-0.369441
C65	C	-0.789095	1.039096	-0.282952
C66	C	-0.789076	0.968409	-0.282940
C67	C	-0.755609	0.933066	-0.326185
C68	C	-0.755586	0.856418	-0.326169
C69	C	-0.755571	0.795326	-0.326153
C70	C	-0.722165	0.282844	-0.613261
C71	C	-0.722173	0.282831	-0.683949
C72	C	-0.755596	0.326119	-0.719288
C73	C	-0.789010	0.369429	-0.683934
C74	C	-0.789000	0.369445	-0.613247
C75	C	-0.789051	0.369365	-0.969008
C76	C	-0.789060	0.369345	-1.039700
C77	C	-0.722224	0.282751	-1.039710
C78	C	-0.722214	0.282767	-0.969023
C79	C	-0.755626	0.326079	-0.933675
C80	C	-0.755617	0.326094	-0.857027
C81	C	-0.755608	0.326102	-0.795935
C82	C	-0.755553	0.326213	-0.150281
C83	C	-0.755644	0.326043	-0.075050
H84	H	-0.054135	0.404664	-0.247454
C85	C	-0.685372	0.929537	-0.417039
N86	N	-0.657671	0.900260	-0.452911
H87	H	-0.694951	0.247589	-0.584493
C88	C	-0.449616	0.416975	-0.235044
N89	N	-0.426989	0.452796	-0.199104
C90	C	-0.564363	0.235391	-0.417189
N91	N	-0.587007	0.199578	-0.453119
H92	H	-0.694943	1.067871	-0.404665
C93	C	-0.685421	0.235185	-0.722829
N94	N	-0.657740	0.199294	-0.752113
H95	H	-0.816221	0.404679	-0.712712
H96	H	-0.695017	0.247487	-1.068498
H97	H	-0.694850	0.712113	-0.404601
C98	C	-0.061998	0.235438	-0.417216
N99	N	-0.084625	0.199606	-0.453146
C100	C	0.052741	0.417029	-0.235074
N101	N	0.075386	0.452851	-0.199153
C102	C	-0.825826	0.416972	-1.078571
N103	N	-0.853517	0.452844	-1.107848
H104	H	-0.206339	0.204551	-0.448182
H105	H	-0.816310	0.939634	-0.247719
C106	C	-0.825835	0.416972	-0.930135
N107	N	-0.853552	0.452818	-0.900853
C108	C	-0.825759	0.417080	-0.574364
N109	N	-0.853447	0.452962	-0.545078
C110	C	-0.685446	0.235147	-0.930154
N111	N	-0.657749	0.199281	-0.900879
C112	C	0.052653	0.235452	-0.417212
N113	N	0.075252	0.199633	-0.453148
H114	H	-0.694811	0.583868	-0.404581
H115	H	-0.305384	0.204543	-0.448180
H116	H	-0.556472	0.404601	-0.247428
C117	C	-0.313062	0.460245	-0.191706
N118	N	-0.335655	0.496073	-0.155774
C119	C	-0.198411	0.460252	-0.191716
N120	N	-0.175781	0.496077	-0.155782
C121	C	-0.449694	0.235396	-0.417200
N122	N	-0.427097	0.199579	-0.453139
H123	H	-0.816211	0.583875	-0.247652
H124	H	-0.816251	0.712109	-0.247680
H125	H	-0.816347	1.067880	-0.247742
