data_functionalizedCrystal
_audit_creation_method	'MofGen! by Chris Wilmer'
_symmetry_space_group_name_H-M	'P1'
_symmetry_Int_Tables_number	1
_symmetry_cell_setting	triclinic
loop_
_symmetry_equiv_pos_as_xyz
  x,y,z
_cell_length_a	10.540539
_cell_length_b	14.971486
_cell_length_c	14.048226
_cell_angle_alpha	89.993360
_cell_angle_beta	89.995616
_cell_angle_gamma	84.069810
loop_
_atom_site_label
_atom_site_type_symbol
_atom_site_fract_x
_atom_site_fract_y
_atom_site_fract_z
O1	O	1.684460	0.126055	-0.079116
O2	O	1.314912	0.137932	-0.079128
O3	O	1.509591	0.001849	-0.079115
O4	O	1.489781	0.262138	-0.079129
O5	O	1.509568	0.001841	0.079206
O6	O	1.314889	0.137924	0.079193
O7	O	1.684437	0.126047	0.079205
Zn8	Zn	1.499659	0.131984	0.104336
Zn9	Zn	1.499690	0.131995	-0.104259
O10	O	1.489758	0.262130	0.079192
C11	C	1.508693	-0.031484	0.000045
C12	C	1.506039	-0.130797	0.000044
C13	C	1.267608	0.137037	0.000031
C14	C	1.126690	0.134372	0.000027
C15	C	1.620407	-0.187377	0.000049
C16	C	1.617905	-0.280691	0.000039
C17	C	1.501033	-0.317422	0.000032
C18	C	1.386656	-0.260834	0.000025
C19	C	1.389159	-0.167522	0.000027
C20	C	1.381446	-0.455325	0.000021
C21	C	1.378942	-0.548644	0.000020
C22	C	1.610192	-0.568495	0.000033
C23	C	1.612695	-0.475183	0.000035
C24	C	1.498317	-0.418601	0.000030
C25	C	0.944422	0.032264	0.000402
C26	C	1.091009	0.034965	0.000035
C27	C	1.064488	0.182216	-0.090382
C28	C	0.917982	0.178823	-0.090447
C29	C	0.917444	0.180836	0.089594
C30	C	1.064415	0.181752	0.090779
C31	C	1.731741	0.126942	0.000044
C32	C	1.872659	0.129607	0.000042
C33	C	1.490656	0.295463	0.000030
C34	C	1.493310	0.394775	0.000024
N35	N	1.499647	0.131976	0.246697
N36	N	1.499712	0.131996	-0.246620
C37	C	1.585878	0.071744	0.296521
C38	C	1.585887	0.071744	0.396178
C39	C	1.499669	0.131980	0.446010
C40	C	1.413429	0.192215	0.396179
C41	C	1.413416	0.192211	0.296524
C42	C	1.413466	0.192222	0.603894
C43	C	1.413481	0.192228	0.703556
C44	C	1.585937	0.071755	0.703548
C45	C	1.585923	0.071750	0.603892
C46	C	1.499684	0.131987	0.554069
H47	H	1.715578	-0.157479	0.000060
H48	H	1.656101	0.022698	0.436744
H49	H	1.656091	0.022696	0.255954
O50	O	1.329549	0.250759	0.444436
C51	C	1.253454	0.303933	0.379086
H52	H	1.251963	0.267247	0.308055
H53	H	1.294754	0.370664	0.368470
C54	C	1.118386	0.366490	0.505236
C55	C	1.116546	0.321429	0.417996
H56	H	1.033936	0.377287	0.529239
H57	H	1.169655	0.330669	0.549265
H58	H	1.152809	0.422094	0.496378
H59	H	1.082139	0.265821	0.426858
H60	H	1.065268	0.357242	0.373970
O61	O	1.329702	0.250637	0.247974
C62	C	1.348196	0.237731	0.149330
H63	H	1.395534	0.166939	0.135727
H64	H	1.411926	0.288792	0.121031
C65	C	1.160222	0.337235	0.114890
C66	C	1.218354	0.250284	0.098182
H67	H	1.080131	0.344982	0.083338
H68	H	1.147764	0.345933	0.181348
H69	H	1.213343	0.379776	0.091307
H70	H	1.165241	0.207745	0.121776
H71	H	1.230800	0.241579	0.031726
H72	H	1.711035	-0.326756	0.000045
O73	O	1.270222	-0.400489	0.000056
C74	C	1.166530	-0.452915	0.000027
H75	H	1.198636	-0.522345	0.030001
H76	H	1.130724	-0.459777	-0.075929
C77	C	1.018826	-0.321849	0.025297
C78	C	1.058257	-0.407122	0.062119
H79	H	0.952035	-0.293600	0.063594
H80	H	1.088684	-0.286527	0.025313
H81	H	0.988997	-0.327579	-0.037999
H82	H	1.088100	-0.401389	0.125409
H83	H	0.988401	-0.442441	0.062115
O84	O	1.721387	-0.623360	-0.000095
C85	C	1.792340	-0.606596	-0.082095
H86	H	1.761281	-0.536020	-0.109429
H87	H	1.774922	-0.657729	-0.139518
C88	C	1.973481	-0.701234	-0.023604
C89	C	1.935340	-0.614547	-0.057171
H90	H	2.061690	-0.706142	-0.008232
H91	H	1.925677	-0.712531	0.031640
H92	H	1.958955	-0.743835	-0.071462
H93	H	1.949851	-0.571949	-0.009310
H94	H	1.983150	-0.603243	-0.112407
H95	H	1.134041	-0.002680	0.064844
H96	H	1.291496	-0.290747	0.000013
O97	O	1.090389	0.269257	-0.094457
C98	C	1.223498	0.272472	-0.098457
H99	H	1.270982	0.206121	-0.127367
H100	H	1.261267	0.284279	-0.023959
C101	C	1.195414	0.431156	-0.128903
C102	C	1.253734	0.349666	-0.164418
H103	H	1.214067	0.478775	-0.169586
H104	H	1.105737	0.428992	-0.126204
H105	H	1.226895	0.440983	-0.066821
H106	H	1.222242	0.339834	-0.226493
H107	H	1.343408	0.351830	-0.167129
O108	O	0.910621	-0.014608	0.077676
C109	C	0.778101	-0.020896	0.075757
H110	H	0.741808	-0.012110	-0.000455
H111	H	0.727559	0.033870	0.122640
C112	C	0.795216	-0.124408	0.206885
C113	C	0.750643	-0.113623	0.113278
H114	H	0.778277	-0.181604	0.230034
H115	H	0.884497	-0.120169	0.208181
H116	H	0.753094	-0.078763	0.245943
H117	H	0.792777	-0.159260	0.074220
H118	H	0.661368	-0.117872	0.111977
O119	O	0.860009	0.266462	0.090189
C120	C	0.779777	0.280082	0.010073
H121	H	0.751981	0.212663	-0.015956
H122	H	0.832283	0.313300	-0.049029
C123	C	0.692897	0.423963	0.069528
C124	C	0.658749	0.341159	0.037564
H125	H	0.618244	0.461642	0.086483
H126	H	0.746954	0.414790	0.123502
H127	H	0.736654	0.451634	0.020271
H128	H	0.615008	0.313485	0.086825
H129	H	0.604682	0.350330	-0.016401
H130	H	0.886252	0.148662	0.158122
H131	H	1.707862	-0.445280	0.000048
O132	O	0.908824	-0.014254	-0.076575
C133	C	0.819275	0.040776	-0.130736
H134	H	0.830317	0.114337	-0.115373
H135	H	0.718728	0.025819	-0.110939
C136	C	0.828802	-0.068624	-0.256265
C137	C	0.842371	0.021725	-0.237402
H138	H	0.843043	-0.080377	-0.322061
H139	H	0.889129	-0.105701	-0.219775
H140	H	0.745012	-0.081077	-0.239760
H141	H	0.926164	0.034174	-0.253895
H142	H	0.782058	0.058804	-0.273897
H143	H	1.283775	-0.578546	0.000029
O144	O	1.669722	0.013153	0.555631
C145	C	1.745862	-0.039998	0.620974
H146	H	1.693837	-0.041364	0.692022
H147	H	1.840198	-0.010312	0.631551
C148	C	1.835777	-0.134636	0.494825
C149	C	1.771874	-0.136320	0.582086
H150	H	1.851829	-0.194051	0.470837
H151	H	1.784485	-0.098826	0.450802
H152	H	1.914383	-0.109894	0.503652
H153	H	1.693263	-0.161052	0.573256
H154	H	1.823154	-0.172137	0.626107
H155	H	1.656155	0.022708	0.744121
H156	H	1.343237	0.241270	0.563330
O157	O	1.141257	-0.010121	-0.077517
C158	C	1.088319	0.030818	-0.160885
H159	H	1.051810	0.103646	-0.145083
H160	H	1.005863	-0.006724	-0.186288
C161	C	1.236037	-0.061579	-0.258389
C162	C	1.191205	0.027873	-0.238982
H163	H	1.299499	-0.063398	-0.306565
H164	H	1.271700	-0.089162	-0.202223
H165	H	1.167313	-0.092853	-0.279553
H166	H	1.259926	0.059143	-0.217807
H167	H	1.155556	0.055462	-0.295147
O168	O	0.884718	0.136788	-0.171128
C169	C	0.799355	0.195670	-0.224641
H170	H	0.811850	0.268018	-0.204579
H171	H	0.697262	0.181451	-0.208875
C172	C	0.811797	0.092608	-0.356134
C173	C	0.827150	0.181467	-0.331499
H174	H	0.828936	0.083845	-0.422049
H175	H	0.869304	0.052936	-0.320080
H176	H	0.726718	0.080769	-0.342989
H177	H	0.912231	0.193301	-0.344634
H178	H	0.769658	0.221141	-0.367558
H179	H	0.869202	0.250316	-0.094555
H180	H	1.105764	0.146800	0.157662
H181	H	1.296028	-0.121454	0.000024
O182	O	1.115661	0.142712	-0.170746
C183	C	1.058734	0.186469	-0.251281
H184	H	1.018200	0.257464	-0.231016
H185	H	0.978566	0.147597	-0.278408
C186	C	1.209385	0.103677	-0.354873
C187	C	1.159610	0.190877	-0.329985
H188	H	1.271606	0.106393	-0.403424
H189	H	1.247735	0.074194	-0.300616
H190	H	1.142567	0.071293	-0.377473
H191	H	1.226424	0.223256	-0.307375
H192	H	1.121272	0.220365	-0.384241
H193	H	1.087818	0.254226	0.096233
H194	H	1.343273	0.241278	0.744125
