data_functionalizedCrystal
_audit_creation_method	'MofGen! by Chris Wilmer'
_symmetry_space_group_name_H-M	'P1'
_symmetry_Int_Tables_number	1
_symmetry_cell_setting	triclinic
loop_
_symmetry_equiv_pos_as_xyz
  x,y,z
_cell_length_a	15.995292
_cell_length_b	15.995292
_cell_length_c	14.472310
_cell_angle_alpha	90.002121
_cell_angle_beta	89.985801
_cell_angle_gamma	83.468616
loop_
_atom_site_label
_atom_site_type_symbol
_atom_site_fract_x
_atom_site_fract_y
_atom_site_fract_z
O1	O	1.111004	0.107692	-0.076859
O2	O	1.611004	0.607692	0.423141
O3	O	0.867220	0.121071	-0.076855
O4	O	1.367220	0.621071	0.423145
O5	O	0.995801	-0.007511	-0.076859
O6	O	1.495801	0.492489	0.423141
O7	O	0.982423	0.236274	-0.076856
O8	O	1.482423	0.736274	0.423144
O9	O	0.995768	-0.007504	0.076823
O10	O	1.495768	0.492496	0.576823
O11	O	0.867187	0.121078	0.076827
O12	O	1.367187	0.621078	0.576827
O13	O	1.110971	0.107699	0.076823
O14	O	1.610971	0.607699	0.576823
Cu15	Cu	0.989076	0.114389	0.090857
Cu16	Cu	1.489076	0.614389	0.590857
Cu17	Cu	0.989115	0.114381	-0.090889
Cu18	Cu	1.489115	0.614381	0.409111
O19	O	0.982390	0.236281	0.076826
O20	O	1.482390	0.736281	0.576826
C21	C	0.836008	0.120530	-0.000013
C22	C	1.336008	0.620530	0.499987
C23	C	0.743055	0.118898	-0.000012
C24	C	1.243055	0.618898	0.499988
C25	C	0.405318	0.112896	-0.000022
C26	C	0.905318	0.612896	0.499978
C27	C	0.428611	0.205703	-0.000364
C28	C	0.928611	0.705703	0.499636
C29	C	0.525286	0.207467	-0.000014
C30	C	1.025286	0.707467	0.499986
C31	C	0.572873	0.115874	-0.000018
C32	C	1.072873	0.615874	0.499982
C33	C	0.543762	0.069479	0.087738
C34	C	1.043762	0.569479	0.587738
C35	C	0.446972	0.068362	0.087808
C36	C	0.946972	0.568362	0.587808
C37	C	0.447154	0.066458	-0.086957
C38	C	0.947154	0.566458	0.413043
C39	C	0.543646	0.069898	-0.088113
C40	C	1.043646	0.569898	0.411887
C41	C	0.667569	0.117552	-0.000012
C42	C	1.167569	0.617552	0.499988
C43	C	0.310622	0.111215	-0.000022
C44	C	0.810622	0.611215	0.499978
C45	C	0.995240	-0.038703	-0.000020
C46	C	1.495240	0.461297	0.499980
C47	C	0.993608	-0.131655	-0.000027
C48	C	1.493608	0.368345	0.499973
C49	C	0.987607	-0.469393	-0.000018
C50	C	1.487607	0.030607	0.499982
C51	C	1.080413	-0.446100	0.000323
C52	C	1.580413	0.053900	0.500323
C53	C	1.082177	-0.349424	-0.000026
C54	C	1.582177	0.150576	0.499974
C55	C	0.990584	-0.301837	-0.000022
C56	C	1.490584	0.198163	0.499978
C57	C	0.944204	-0.330933	-0.087778
C58	C	1.444204	0.169067	0.412222
C59	C	0.943087	-0.427723	-0.087848
C60	C	1.443087	0.072277	0.412152
C61	C	0.941154	-0.427571	0.086917
C62	C	1.441154	0.072429	0.586917
C63	C	0.944593	-0.331080	0.088073
C64	C	1.444593	0.168920	0.588073
C65	C	0.992263	-0.207141	-0.000027
C66	C	1.492263	0.292859	0.499973
C67	C	0.985926	-0.564088	-0.000019
C68	C	1.485926	-0.064088	0.499981
C69	C	1.142183	0.108240	-0.000021
C70	C	1.642183	0.608240	0.499979
C71	C	1.235136	0.109873	-0.000028
C72	C	1.735136	0.609873	0.499972
C73	C	0.982951	0.267473	-0.000014
C74	C	1.482951	0.767473	0.499986
C75	C	0.984583	0.360426	-0.000013
C76	C	1.484583	0.860426	0.499987
N77	N	0.989055	0.114395	0.218688
N78	N	1.489055	0.614395	0.718688
N79	N	0.989143	0.114368	-0.218720
N80	N	1.489143	0.614368	0.281280
C81	C	0.989114	0.114377	0.592779
C82	C	1.489114	0.614377	1.092779
C83	C	0.920082	0.182948	0.553616
C84	C	1.420082	0.682948	1.053616
C85	C	0.920241	0.183198	0.446527
C86	C	1.420241	0.683198	0.946527
C87	C	0.989084	0.114386	0.407188
C88	C	1.489084	0.614386	0.907188
C89	C	1.076447	0.133450	0.446024
C90	C	1.576447	0.633450	0.946024
C91	C	1.076059	0.133938	0.553146
C92	C	1.576059	0.633938	1.053146
C93	C	0.971563	0.026539	0.553308
C94	C	1.471563	0.526539	1.053308
C95	C	0.969559	0.027125	0.446181
C96	C	1.469559	0.527125	0.946181
C97	C	0.989072	0.114390	0.302300
C98	C	1.489072	0.614390	0.802300
C99	C	0.989131	0.114376	0.697668
C100	C	1.489131	0.614376	1.197668
H101	H	0.543668	0.244027	0.063001
H102	H	1.043668	0.744027	0.563001
H103	H	0.562223	0.103678	-0.153035
H104	H	1.062223	0.603678	0.346965
H105	H	0.420134	0.100499	0.153410
H106	H	0.920134	0.600499	0.653410
H107	H	0.875041	-0.442259	-0.091821
H108	H	1.375041	0.057741	0.408179
H109	H	0.576632	0.003044	-0.093416
H110	H	1.076632	0.503044	0.406584
Br111	Br	0.867672	-0.004007	0.598390
Br112	Br	1.367672	0.495993	1.098390
Br113	Br	1.164114	0.052420	0.403557
Br114	Br	1.664114	0.552420	0.903557
H115	H	0.905294	0.012657	0.420799
H116	H	1.405294	0.512657	0.920799
Br117	Br	1.101842	0.240706	0.594780
Br118	Br	1.601842	0.740706	1.094780
Br119	Br	1.047929	-0.061910	0.401568
Br120	Br	1.547929	0.438090	0.901568
H121	H	0.872841	-0.441548	0.087511
H122	H	1.372841	0.058452	0.587511
Br123	Br	0.811988	0.164330	0.402762
Br124	Br	1.311988	0.664330	0.902762
H125	H	1.092286	0.196779	0.419187
H126	H	1.592286	0.696779	0.919187
H127	H	1.116172	-0.474101	0.063257
H128	H	1.616172	0.025899	0.563257
H129	H	1.116000	-0.475128	-0.062259
H130	H	1.616000	0.024872	0.437741
Br131	Br	1.055468	-0.058512	0.595515
Br132	Br	1.555468	0.441488	1.095515
Br133	Br	0.423864	-0.047401	-0.087948
Br134	Br	0.923864	0.452599	0.412052
Br135	Br	0.399964	0.114808	-0.197821
Br136	Br	0.899964	0.614808	0.302179
H137	H	0.931447	0.248382	0.420894
H138	H	1.431447	0.748382	0.920894
Br139	Br	0.557012	0.268023	-0.104865
Br140	Br	1.057012	0.768023	0.395135
H141	H	0.970367	-0.455663	0.153436
H142	H	1.470367	0.044337	0.653436
Br143	Br	0.381961	0.265327	-0.105261
Br144	Br	0.881961	0.765327	0.394739
H145	H	1.129031	0.085962	0.579050
H146	H	1.629031	0.585962	1.079050
H147	H	0.854932	0.171780	0.579404
H148	H	1.354932	0.671780	1.079404
H149	H	0.399571	0.241280	0.062217
H150	H	0.899571	0.741280	0.562217
H151	H	0.432435	0.000316	0.091792
H152	H	0.932435	0.500316	0.591792
Br153	Br	1.143122	-0.318759	-0.105063
Br154	Br	1.643122	0.181241	0.394937
Br155	Br	1.142696	-0.317714	0.104838
Br156	Br	1.642696	0.182286	0.604838
Br157	Br	0.596886	-0.042864	0.093171
Br158	Br	1.096886	0.457136	0.593171
Br159	Br	1.000873	-0.300136	0.196285
Br160	Br	1.500873	0.199864	0.696285
H161	H	0.563800	0.101704	0.153049
H162	H	1.063800	0.601704	0.653049
Br163	Br	0.831867	-0.277794	-0.093221
Br164	Br	1.331867	0.222206	0.406779
Br165	Br	0.996674	-0.472441	-0.197186
Br166	Br	1.496674	0.027559	0.302814
H167	H	0.976439	-0.310882	-0.153089
H168	H	1.476439	0.189118	0.346911
H169	H	0.931133	0.247765	0.580526
H170	H	1.431133	0.747765	1.080526
Br171	Br	0.833160	-0.276108	0.096916
Br172	Br	1.333160	0.223892	0.596916
