data_functionalizedCrystal
_audit_creation_method	'MofGen! by Chris Wilmer'
_symmetry_space_group_name_H-M	'P1'
_symmetry_Int_Tables_number	1
_symmetry_cell_setting	triclinic
loop_
_symmetry_equiv_pos_as_xyz
  x,y,z
_cell_length_a	16.974800
_cell_length_b	12.811415
_cell_length_c	16.053802
_cell_angle_alpha	87.154093
_cell_angle_beta	91.074188
_cell_angle_gamma	84.065383
loop_
_atom_site_label
_atom_site_type_symbol
_atom_site_fract_x
_atom_site_fract_y
_atom_site_fract_z
O1	O	1.049997	0.133156	-0.008537
O2	O	1.549997	0.633156	0.491463
O3	O	0.820646	0.149147	-0.025251
O4	O	1.320646	0.649147	0.474749
O5	O	0.940543	-0.010893	-0.005026
O6	O	1.440543	0.489107	0.494974
O7	O	0.930099	0.293197	-0.028763
O8	O	1.430099	0.793197	0.471237
O9	O	0.933944	-0.002121	0.132723
O10	O	1.433944	0.497879	0.632723
O11	O	0.814046	0.157920	0.112497
O12	O	1.314046	0.657920	0.612497
O13	O	1.043397	0.141929	0.129212
O14	O	1.543397	0.641929	0.629212
Zn15	Zn	0.927674	0.151317	0.142725
Zn16	Zn	1.427674	0.651317	0.642725
Zn17	Zn	0.936369	0.139759	-0.038765
Zn18	Zn	1.436369	0.639759	0.461235
O19	O	0.923500	0.301970	0.108986
O20	O	1.423500	0.801970	0.608986
C21	C	0.787978	0.152765	0.041696
C22	C	1.287978	0.652765	0.541696
C23	C	0.700469	0.150461	0.035954
C24	C	1.200469	0.650461	0.535954
C25	C	0.655765	0.154159	0.108346
C26	C	1.155765	0.654159	0.608346
C27	C	0.573542	0.151978	0.102955
C28	C	1.073542	0.651978	0.602955
C29	C	0.536026	0.146107	0.025172
C30	C	1.036026	0.646107	0.525172
C31	C	0.580736	0.142406	-0.047225
C32	C	1.080736	0.642406	0.452775
C33	C	0.662958	0.144580	-0.041833
C34	C	1.162958	0.644580	0.458167
C35	C	0.290507	0.139087	0.000994
C36	C	0.790507	0.639087	0.500994
C37	C	0.208279	0.136917	-0.004393
C38	C	0.708279	0.636917	0.495607
C39	C	0.201091	0.146487	0.145788
C40	C	0.701091	0.646487	0.645788
C41	C	0.283313	0.148666	0.151173
C42	C	0.783313	0.648666	0.651173
C43	C	0.328018	0.144960	0.078777
C44	C	0.828018	0.644960	0.578777
N45	N	0.451981	0.143881	0.019659
N46	N	0.951981	0.643881	0.519659
N47	N	0.412061	0.147178	0.084290
N48	N	0.912061	0.647178	0.584290
C49	C	0.936456	-0.045426	0.066741
C50	C	1.436456	0.454574	0.566741
C51	C	0.934100	-0.161392	0.075360
C52	C	1.434100	0.338608	0.575360
C53	C	0.936855	-0.388859	-0.058637
C54	C	1.436855	0.111141	0.441363
C55	C	0.934642	-0.497819	-0.050543
C56	C	1.434642	0.002181	0.449457
C57	C	0.927455	-0.488276	0.099640
C58	C	1.427455	0.011724	0.599640
C59	C	0.929668	-0.379315	0.091546
C60	C	1.429668	0.120685	0.591546
C61	C	0.934370	-0.329611	0.012405
C62	C	1.434370	0.170389	0.512405
C63	C	0.936589	-0.220649	0.004313
C64	C	1.436589	0.279351	0.504313
C65	C	0.929396	-0.211106	0.154494
C66	C	1.429396	0.288894	0.654494
C67	C	0.927183	-0.320067	0.162588
C68	C	1.427183	0.179933	0.662588
C69	C	1.076066	0.138311	0.062263
C70	C	1.576066	0.638311	0.562263
C71	C	1.163574	0.140615	0.067998
C72	C	1.663574	0.640615	0.567998
C73	C	0.927587	0.336502	0.037217
C74	C	1.427587	0.836502	0.537217
C75	C	0.929943	0.452468	0.028593
C76	C	1.429943	0.952468	0.528593
N77	N	0.921745	0.159205	0.266587
N78	N	1.421745	0.659205	0.766587
N79	N	0.942304	0.131863	-0.162626
N80	N	1.442304	0.631863	0.337374
C81	C	0.972781	0.091132	0.318886
C82	C	1.472781	0.591132	0.818886
C83	C	0.968641	0.096659	0.405595
C84	C	1.468641	0.596659	0.905595
C85	C	0.913469	0.170266	0.440002
C86	C	1.413469	0.670266	0.940002
C87	C	0.862428	0.238342	0.387695
C88	C	1.362428	0.738342	0.887695
C89	C	0.866564	0.232809	0.300989
C90	C	1.366564	0.732809	0.800989
C91	C	0.895400	0.194406	0.698362
C92	C	1.395400	0.694406	1.198362
C93	C	0.891269	0.199936	0.785075
C94	C	1.391269	0.699936	1.285075
C95	C	0.997481	0.058252	0.802968
C96	C	1.497481	0.558252	1.302968
C97	C	1.001616	0.052729	0.716259
C98	C	1.501616	0.552729	1.216259
C99	C	0.950572	0.120801	0.663961
C100	C	1.450572	0.620801	1.163961
N101	N	0.909238	0.175920	0.528631
N102	N	1.409238	0.675920	1.028631
N103	N	0.954800	0.115142	0.575333
N104	N	1.454800	0.615142	1.075333
H105	H	0.326895	0.136066	-0.057956
H106	H	0.826895	0.636066	0.442044
C107	C	0.712136	0.140515	-0.121461
C108	C	1.212136	0.640515	0.378539
H109	H	0.766478	0.142639	-0.107109
H110	H	1.266478	0.642639	0.392891
H111	H	0.694548	0.199051	-0.158188
H112	H	1.194548	0.699051	0.341812
H113	H	0.705731	0.077325	-0.148206
H114	H	1.205731	0.577325	0.351794
H115	H	0.537149	0.154971	0.161906
H116	H	1.037149	0.654971	0.661906
H117	H	0.164684	0.149503	0.204729
H118	H	0.664684	0.649503	0.704729
C119	C	0.167010	0.130483	-0.089961
C120	C	0.667010	0.630483	0.410039
H121	H	0.205409	0.128587	-0.132306
H122	H	0.705409	0.628587	0.367694
H123	H	0.129500	0.190308	-0.100160
H124	H	0.629500	0.690308	0.399840
H125	H	0.140668	0.068579	-0.090207
H126	H	0.640668	0.568579	0.409793
H127	H	0.927375	-0.162855	0.212342
H128	H	1.427375	0.337145	0.712342
H129	H	0.940419	-0.180182	-0.060128
H130	H	1.440419	0.319818	0.439872
C131	C	0.839260	0.269291	0.640844
C132	C	1.339260	0.769291	1.140844
H133	H	0.805818	0.313927	0.673756
H134	H	1.305818	0.813927	1.173756
H135	H	0.807805	0.229446	0.607650
H136	H	1.307805	0.729446	1.107650
H137	H	0.869528	0.310722	0.605646
H138	H	1.369528	0.810722	1.105646
H139	H	0.923621	-0.528763	0.164072
H140	H	1.423621	-0.028763	0.664072
H141	H	0.825005	0.288240	0.258407
H142	H	1.325005	0.788240	0.758407
C143	C	1.024778	0.021780	0.463124
C144	C	1.524778	0.521780	0.963124
H145	H	1.014407	0.035605	0.519692
H146	H	1.514407	0.535605	1.019692
H147	H	1.078133	0.032404	0.451592
H148	H	1.578133	0.532404	0.951592
H149	H	1.016413	-0.048876	0.453590
H150	H	1.516413	0.451124	0.953590
C151	C	0.937391	-0.562991	-0.128688
C152	C	1.437391	-0.062991	0.371312
H153	H	0.940516	-0.517781	-0.176976
H154	H	1.440516	-0.017781	0.323024
H155	H	0.890804	-0.597866	-0.132352
H156	H	1.390804	-0.097866	0.367648
H157	H	0.982564	-0.613526	-0.124952
H158	H	1.482564	-0.113526	0.375048
C159	C	0.922017	-0.374748	0.249636
C160	C	1.422017	0.125252	0.749636
H161	H	0.921060	-0.448128	0.244284
H162	H	1.421060	0.051872	0.744284
H163	H	0.875029	-0.347093	0.275478
H164	H	1.375029	0.152907	0.775478
H165	H	0.966790	-0.362771	0.282849
H166	H	1.466790	0.137229	0.782849
H167	H	1.017711	0.031198	0.290879
H168	H	1.517711	0.531198	0.790879
C169	C	0.539470	0.135951	-0.132786
C170	C	1.039470	0.635951	0.367214
H171	H	0.484098	0.135198	-0.125631
H172	H	0.984098	0.635198	0.374369
H173	H	0.560013	0.073483	-0.157770
H174	H	1.060013	0.573483	0.342230
H175	H	0.548831	0.195211	-0.167739
H176	H	1.048831	0.695211	0.332261
C177	C	0.697029	0.160618	0.193907
C178	C	1.197029	0.660618	0.693907
H179	H	0.752400	0.161393	0.186752
H180	H	1.252400	0.661393	0.686752
H181	H	0.687670	0.101368	0.228864
H182	H	1.187670	0.601368	0.728864
H183	H	0.676482	0.223095	0.218885
H184	H	1.176482	0.723095	0.718885
H185	H	0.940690	-0.348390	-0.123076
H186	H	1.440690	0.151610	0.376924
H187	H	0.313854	0.153442	0.214513
H188	H	0.813854	0.653442	0.714513
C189	C	1.062301	-0.028244	0.678418
C190	C	1.562301	0.471756	1.178418
H191	H	1.092099	-0.068002	0.721985
H192	H	1.592099	0.431998	1.221985
H193	H	1.096979	0.007288	0.643960
H194	H	1.596979	0.507288	1.143960
H195	H	1.035257	-0.073989	0.645971
H196	H	1.535257	0.426011	1.145971
H197	H	1.039038	0.002829	0.845557
H198	H	1.539038	0.502829	1.345557
H199	H	0.846339	0.259880	0.813083
H200	H	1.346339	0.759880	1.313083
C201	C	0.801741	0.319309	0.425541
C202	C	1.301741	0.819309	0.925541
H203	H	0.806592	0.312864	0.484670
H204	H	1.306592	0.812864	0.984670
H205	H	0.749741	0.306875	0.408659
H206	H	1.249741	0.806875	0.908659
H207	H	0.811464	0.388151	0.406648
H208	H	1.311464	0.888151	0.906648
