data_functionalizedCrystal
_audit_creation_method	'MofGen! by Chris Wilmer'
_symmetry_space_group_name_H-M	'P1'
_symmetry_Int_Tables_number	1
_symmetry_cell_setting	triclinic
loop_
_symmetry_equiv_pos_as_xyz
  x,y,z
_cell_length_a	6.817900
_cell_length_b	17.078472
_cell_length_c	16.015572
_cell_angle_alpha	78.650868
_cell_angle_beta	104.485554
_cell_angle_gamma	99.306020
loop_
_atom_site_label
_atom_site_type_symbol
_atom_site_fract_x
_atom_site_fract_y
_atom_site_fract_z
V1	V	-3.985538	-0.032007	-0.269368
O2	O	-3.995265	0.081581	-0.264329
O3	O	-3.916727	-0.140446	-0.267439
O4	O	-3.928561	0.003607	-0.386887
O5	O	-3.983349	-0.063470	-0.144055
V6	V	-4.472922	-0.022570	-0.254390
O7	O	-4.238327	-0.052707	-0.302223
O8	O	-4.670331	-0.001871	-0.221534
O9	O	-4.318526	0.085869	-0.256318
O10	O	-4.580592	-0.136158	-0.259428
O11	O	-4.592508	0.008892	-0.379703
O12	O	-4.306692	-0.058184	-0.136870
C13	C	-3.757040	-0.167979	-0.263168
C14	C	-3.782009	-0.256404	-0.262375
C15	C	-3.974754	-0.300743	-0.266310
C16	C	-3.998205	-0.383826	-0.265570
C17	C	-3.828906	-0.422569	-0.260888
C18	C	-3.636146	-0.378224	-0.256956
C19	C	-3.612700	-0.295141	-0.257702
C20	C	-3.879619	-0.670750	-0.258200
C21	C	-3.903079	-0.753839	-0.257451
C22	C	-4.265137	-0.759435	-0.266066
C23	C	-4.241672	-0.676351	-0.266807
C24	C	-4.048918	-0.632012	-0.262879
N25	N	-3.852871	-0.507494	-0.260129
N26	N	-4.024957	-0.547088	-0.263645
C27	C	-3.772135	0.015776	-0.415534
C28	C	-3.806698	0.044176	-0.511607
C29	C	-4.047885	-0.207907	-0.889041
C30	C	-4.080372	-0.181194	-0.979311
C31	C	-4.029396	-0.042993	-0.954713
C32	C	-3.996894	-0.069694	-0.864439
C33	C	-4.006144	-0.152152	-0.831610
C34	C	-3.955154	-0.013939	-0.807008
C35	C	-3.922666	-0.040638	-0.716742
C36	C	-3.931917	-0.123092	-0.683906
C37	C	-3.973656	-0.178851	-0.741344
C38	C	-3.945919	0.068518	-0.839839
C39	C	-3.904179	0.124273	-0.782408
C40	C	-3.871675	0.097575	-0.692140
C41	C	-3.880927	0.015120	-0.659304
C42	C	-3.829937	0.153333	-0.634702
C43	C	-3.797448	0.126634	-0.544436
C44	C	-3.848439	-0.011579	-0.569038
C45	C	-4.141555	0.113397	-0.260587
C46	C	-4.095824	0.201822	-0.261386
C47	C	-4.126461	-0.070357	-0.108218
C48	C	-4.071137	-0.098754	-0.012145
H49	H	-3.855944	-0.078724	-0.542306
H50	H	-3.455751	-0.259040	-0.254501
C51	C	-3.894092	0.214970	-0.818523
H52	H	-3.864616	0.244351	-0.771390
H53	H	-3.789927	0.230005	-0.850430
H54	H	-4.021562	0.226511	-0.856021
C55	C	-3.983806	-0.269552	-0.705221
H56	H	-3.958464	-0.277464	-0.643236
H57	H	-4.115405	-0.295300	-0.727875
H58	H	-3.883768	-0.291844	-0.722256
H59	H	-3.763461	0.172036	-0.497674
C60	C	-4.210220	-0.432597	-0.269890
H61	H	-4.307683	-0.397626	-0.272772
H62	H	-4.247450	-0.457759	-0.320402
H63	H	-4.206334	-0.472490	-0.219145
H64	H	-4.021878	0.024144	-0.981456
H65	H	-3.498304	-0.409774	-0.253149
C66	C	-3.896187	-0.152468	-0.584616
H67	H	-3.907690	-0.209561	-0.573292
H68	H	-3.763615	-0.131266	-0.556840
H69	H	-3.995251	-0.134710	-0.562463
H70	H	-4.055390	-0.275051	-0.862309
H71	H	-3.972343	0.090254	-0.913340
H72	H	-4.114352	-0.226603	-1.026070
H73	H	-3.822431	0.220470	-0.661446
H74	H	-4.379540	-0.644812	-0.270625
C75	C	-4.160980	-0.258129	-0.271457
H76	H	-4.119414	-0.202298	-0.271330
H77	H	-4.259745	-0.265530	-0.323729
H78	H	-4.218655	-0.280264	-0.222473
C79	C	-4.477154	-0.808207	-0.270400
H80	H	-4.466882	-0.863236	-0.269293
H81	H	-4.527166	-0.803109	-0.221671
H82	H	-4.568218	-0.788372	-0.322927
C83	C	-3.667598	-0.621988	-0.253872
H84	H	-3.570131	-0.656965	-0.250967
H85	H	-3.671457	-0.582096	-0.304609
H86	H	-3.630381	-0.596828	-0.203353
H87	H	-3.765213	-0.785378	-0.253659
