data_functionalizedCrystal
_audit_creation_method	'MofGen! by Chris Wilmer'
_symmetry_space_group_name_H-M	'P1'
_symmetry_Int_Tables_number	1
_symmetry_cell_setting	triclinic
loop_
_symmetry_equiv_pos_as_xyz
  x,y,z
_cell_length_a	11.169417
_cell_length_b	12.827892
_cell_length_c	12.827885
_cell_angle_alpha	90.029786
_cell_angle_beta	90.018098
_cell_angle_gamma	90.016270
loop_
_atom_site_label
_atom_site_type_symbol
_atom_site_fract_x
_atom_site_fract_y
_atom_site_fract_z
Zn1	Zn	1.834900	-0.415958	0.590811
Zn2	Zn	2.334900	0.084042	1.090811
Zn3	Zn	1.834777	-0.590735	0.416071
Zn4	Zn	2.334777	-0.090735	0.916071
Zn5	Zn	1.634192	-0.416012	0.416088
Zn6	Zn	2.134192	0.083988	0.916088
Zn7	Zn	1.634175	-0.590660	0.590775
Zn8	Zn	2.134175	-0.090660	1.090775
O9	O	1.734511	-0.503341	0.503436
O10	O	2.234511	-0.003341	1.003436
O11	O	2.002833	-0.439151	0.567639
O12	O	2.502833	0.060849	1.067639
O13	O	1.808125	-0.567612	0.269837
O14	O	2.308125	-0.067612	0.769837
O15	O	1.660874	-0.269768	0.439288
O16	O	2.160874	0.230232	0.939288
O17	O	2.002743	-0.567560	0.439258
O18	O	2.502743	-0.067560	0.939258
O19	O	1.808333	-0.269729	0.567656
O20	O	2.308333	0.230271	1.067656
O21	O	1.660755	-0.439243	0.269850
O22	O	2.160755	0.060757	0.769850
O23	O	1.466240	-0.439170	0.439253
O24	O	1.966240	0.060830	0.939253
O25	O	1.660846	-0.567432	0.737016
O26	O	2.160846	-0.067432	1.237016
O27	O	1.466228	-0.567484	0.567595
O28	O	1.966228	-0.067484	1.067595
O29	O	1.808318	-0.439079	0.737042
O30	O	2.308318	0.060921	1.237042
O31	O	1.808109	-0.736961	0.439224
O32	O	2.308109	-0.236961	0.939224
O33	O	1.660728	-0.736906	0.567578
O34	O	2.160728	-0.236906	1.067578
C35	C	1.422686	-0.503325	0.503423
C36	C	1.922686	-0.003325	1.003423
C37	C	1.289286	-0.503344	0.503442
C38	C	1.789286	-0.003344	1.003442
C39	C	1.734436	-0.774851	0.503418
C40	C	2.234436	-0.274851	1.003418
C41	C	1.734514	-0.891004	0.503445
C42	C	2.234514	-0.391004	1.003445
C43	C	1.807529	-0.942782	0.440002
C44	C	2.307529	-0.442782	0.940002
C45	C	1.807611	-1.062832	0.440028
C46	C	2.307611	-0.562832	0.940028
C47	C	2.047553	-0.503358	0.503450
C48	C	2.547553	-0.003358	1.003450
C49	C	2.180953	-0.503365	0.503456
C50	C	2.680953	-0.003365	1.003456
C51	C	1.734594	-0.503241	0.776007
C52	C	2.234594	-0.003241	1.276007
C53	C	1.734629	-0.503198	0.892160
C54	C	2.234629	-0.003198	1.392160
C55	C	1.734619	-0.230771	0.503478
C56	C	2.234619	0.269229	1.003478
C57	C	1.734665	-0.114618	0.503495
C58	C	2.234665	0.385382	1.003495
C59	C	1.734498	-0.503366	0.231926
C60	C	2.234498	-0.003366	0.731926
C61	C	1.734695	-0.503114	0.115774
C62	C	2.234695	-0.003114	0.615774
C63	C	1.661729	-0.439665	0.943951
C64	C	2.161729	0.060335	1.443951
C65	C	1.661764	-0.439619	1.064001
C66	C	2.161764	0.060381	1.564001
H67	H	1.869986	-0.898236	0.385669
H68	H	2.369986	-0.398236	0.885669
C69	C	1.892062	-1.122983	0.366644
C70	C	2.392062	-0.622983	0.866644
N71	N	1.955673	-1.168292	0.311369
N72	N	2.455673	-0.668292	0.811369
H73	H	1.599357	-0.385221	1.108540
H74	H	2.099357	0.114779	1.608540
H75	H	1.672145	-1.070098	0.557811
H76	H	2.172145	-0.570098	1.057811
C77	C	1.650141	-0.951182	0.576851
C78	C	2.150141	-0.451182	1.076851
N79	N	1.586586	-0.996506	0.632142
N80	N	2.086586	-0.496506	1.132142
C81	C	1.577385	-0.366216	0.883789
C82	C	2.077385	0.133784	1.383789
N83	N	1.513860	-0.310887	0.838477
N84	N	2.013860	0.189113	1.338477
H85	H	1.797066	-0.557559	0.936696
H86	H	2.297066	-0.057559	1.436696
H87	H	1.797115	-0.557506	1.071241
H88	H	2.297115	-0.057506	1.571241
