data_functionalizedCrystal
_audit_creation_method	'MofGen! by Chris Wilmer'
_symmetry_space_group_name_H-M	'P1'
_symmetry_Int_Tables_number	1
_symmetry_cell_setting	triclinic
loop_
_symmetry_equiv_pos_as_xyz
  x,y,z
_cell_length_a	15.625020
_cell_length_b	15.538191
_cell_length_c	9.130313
_cell_angle_alpha	90.002806
_cell_angle_beta	71.916301
_cell_angle_gamma	66.738808
loop_
_atom_site_label
_atom_site_type_symbol
_atom_site_fract_x
_atom_site_fract_y
_atom_site_fract_z
O1	O	1.156030	0.122892	-0.735870
O2	O	0.888750	0.137545	-0.593892
O3	O	1.074418	-0.006845	-0.692525
O4	O	0.970362	0.267281	-0.637237
O5	O	1.074415	-0.006841	-0.448924
O6	O	0.888747	0.137549	-0.350291
O7	O	1.156027	0.122895	-0.492269
Cu8	Cu	1.022387	0.130223	-0.399038
Cu9	Cu	1.022391	0.130218	-0.687123
O10	O	0.970359	0.267285	-0.393636
C11	C	0.855377	0.136885	-0.454364
C12	C	0.755942	0.134900	-0.401546
C13	C	0.615791	0.132103	-0.194323
C14	C	0.709225	0.133968	-0.243970
C15	C	0.709239	0.133960	-0.509539
C16	C	0.615806	0.132090	-0.459916
C17	C	0.569089	0.131162	-0.302306
C18	C	0.569103	0.131150	-0.567899
C19	C	0.475676	0.129284	-0.518277
C20	C	0.428951	0.128359	-0.360674
C21	C	0.475661	0.129297	-0.252685
C22	C	0.615819	0.132084	-0.725506
C23	C	0.569116	0.131144	-0.833489
C24	C	0.475690	0.129272	-0.783870
C25	C	0.428965	0.128347	-0.626266
C26	C	0.428980	0.128334	-0.891859
C27	C	0.335552	0.126469	-0.842238
C28	C	0.335538	0.126481	-0.576645
C29	C	1.085304	-0.041925	-0.576513
C30	C	1.117733	-0.146457	-0.593753
C31	C	0.795560	-0.434658	-0.422585
C32	C	0.826055	-0.532885	-0.438780
C33	C	0.997580	-0.555109	-0.529894
C34	C	0.967100	-0.456882	-0.513714
C35	C	0.866089	-0.396664	-0.460057
C36	C	1.037628	-0.418888	-0.551186
C37	C	1.007150	-0.320670	-0.534999
C38	C	0.906143	-0.260445	-0.481339
C39	C	0.835610	-0.298445	-0.443870
C40	C	1.138639	-0.479108	-0.604832
C41	C	1.209167	-0.441114	-0.642304
C42	C	1.178689	-0.342894	-0.626128
C43	C	1.077683	-0.282669	-0.572469
C44	C	1.249222	-0.304894	-0.663598
C45	C	1.218744	-0.206675	-0.647410
C46	C	1.047205	-0.184451	-0.556281
C47	C	1.189401	0.123556	-0.631800
C48	C	1.288835	0.125541	-0.684628
C49	C	0.959474	0.302365	-0.509652
C50	C	0.927045	0.406897	-0.492420
N51	N	1.022391	0.130225	-0.196417
N52	N	1.022396	0.130208	-0.889749
C53	C	1.104614	0.066311	-0.163445
C54	C	1.104615	0.066300	-0.010108
C55	C	0.940166	0.194125	0.077272
C56	C	0.940163	0.194131	-0.076060
C57	C	1.186842	0.002405	-0.283801
C58	C	1.269071	-0.061514	-0.250832
C59	C	1.269073	-0.061525	-0.097496
C60	C	1.186845	0.002382	0.022871
H61	H	0.747244	0.134740	-0.156023
H62	H	1.186850	0.002410	-0.408660
Br63	Br	0.828579	0.280852	0.240621
Br64	Br	1.380654	-0.148252	-0.414174
H65	H	0.768614	-0.563814	-0.408241
Br66	Br	0.828568	0.280869	-0.120810
H67	H	1.186849	0.002362	0.147726
Br68	Br	0.302150	0.125837	-0.293322
Br69	Br	0.412265	0.128005	-0.038790
Br70	Br	0.742613	0.134620	-0.792849
H71	H	1.336023	-0.113576	-0.070654
Br72	Br	0.492386	0.129606	-1.105747
Br73	Br	0.552395	0.130811	0.019571
Br74	Br	0.632526	0.132403	-1.047381
H75	H	0.297493	0.125738	-0.448301
H76	H	0.747287	0.134719	-0.637865
H77	H	0.297525	0.125706	-0.930168
H78	H	0.964951	-0.135417	-0.512599
H79	H	0.881330	-0.180470	-0.468153
H80	H	1.291411	-0.490157	-0.685986
Br81	Br	0.658472	-0.352924	-0.349785
Br82	Br	0.698522	-0.216711	-0.371069
Br83	Br	1.134662	-0.636841	-0.602695
H84	H	1.163451	-0.559083	-0.618023
H85	H	1.331465	-0.353938	-0.707271
Br86	Br	1.314461	-0.155106	-0.698229
