data_functionalizedCrystal
_audit_creation_method	'MofGen! by Chris Wilmer'
_symmetry_space_group_name_H-M	'P1'
_symmetry_Int_Tables_number	1
_symmetry_cell_setting	triclinic
loop_
_symmetry_equiv_pos_as_xyz
  x,y,z
_cell_length_a	8.559649
_cell_length_b	8.597340
_cell_length_c	17.766277
_cell_angle_alpha	97.692772
_cell_angle_beta	90.005497
_cell_angle_gamma	102.374922
loop_
_atom_site_label
_atom_site_type_symbol
_atom_site_fract_x
_atom_site_fract_y
_atom_site_fract_z
O1	O	-0.238033	2.053698	0.070602
O2	O	-0.256297	1.594576	0.040824
O3	O	-0.015195	1.864586	0.058338
O4	O	-0.479135	1.783688	0.053088
O5	O	-0.015182	1.864545	0.183524
O6	O	-0.256284	1.594536	0.166010
O7	O	-0.238020	2.053657	0.195788
Cu8	Cu	-0.247151	1.824093	0.192330
Cu9	Cu	-0.247166	1.824141	0.044283
O10	O	-0.479122	1.783648	0.178274
C11	C	-0.254329	1.536323	0.099640
C12	C	-0.248467	1.362807	0.088387
C13	C	-0.538563	1.777537	0.115283
C14	C	-0.715658	1.759288	0.114099
C15	C	0.044246	1.870697	0.121327
C16	C	0.221341	1.888945	0.122507
C17	C	-0.239988	2.111911	0.136970
C18	C	-0.245849	2.285426	0.148219
N19	N	-0.247139	1.824070	0.296458
N20	N	-0.247166	1.824177	-0.059845
C21	C	-0.140433	1.943659	0.343602
C22	C	-0.140425	1.943669	0.422405
C23	C	-0.247152	1.824102	0.454061
C24	C	-0.353866	1.704492	0.406906
C25	C	-0.353860	1.704477	0.328105
C26	C	-0.392081	1.786071	0.576432
C27	C	-0.392090	1.786098	0.655232
C28	C	-0.247172	1.824141	0.697110
C29	C	-0.102240	1.862193	0.660180
C30	C	-0.102233	1.862177	0.581378
C31	C	-0.247171	1.824105	0.539507
C32	C	-0.140449	1.943748	0.829701
C33	C	-0.140440	1.943747	0.908504
C34	C	-0.353894	1.704576	0.893005
C35	C	-0.353890	1.704571	0.814203
C36	C	-0.247169	1.824165	0.782556
H37	H	-0.797212	1.634315	0.105997
H38	H	-0.248081	1.351924	0.208057
H39	H	-0.697114	2.013911	0.130616
C40	C	-0.023031	2.075194	0.308788
C41	C	0.099938	2.028687	0.251614
C42	C	0.217342	2.160217	0.216796
C43	C	0.211776	2.338254	0.239151
C44	C	0.088802	2.384770	0.296327
C45	C	-0.028601	2.253239	0.331145
H46	H	0.104062	1.896886	0.235063
H47	H	0.308375	2.125783	0.174471
H48	H	0.298685	2.435621	0.213376
H49	H	0.084678	2.516571	0.312878
H50	H	-0.119635	2.287674	0.373471
H51	H	-0.246224	1.296304	0.028545
C52	C	-0.471271	1.572968	0.441724
C53	C	-0.471364	1.573044	0.528406
C54	C	-0.588767	1.441509	0.563222
C55	C	-0.706077	1.309898	0.511355
C56	C	-0.705988	1.309818	0.424668
C57	C	-0.588585	1.441352	0.389852
H58	H	-0.384520	1.670474	0.566805
H59	H	-0.588832	1.441569	0.627394
H60	H	-0.792986	1.212528	0.537128
H61	H	-0.792832	1.212387	0.386269
H62	H	-0.588520	1.441292	0.325680
H63	H	-0.053529	2.041055	0.460796
H64	H	-0.440754	1.607091	0.289719
H65	H	0.015775	1.893156	0.551313
C66	C	-0.551508	1.744240	0.695851
C67	C	-0.710913	1.702358	0.649790
C68	C	-0.870336	1.660497	0.690407
C69	C	-0.870353	1.660519	0.777086
C70	C	-0.710941	1.702404	0.823152
C71	C	-0.551519	1.744264	0.782535
H72	H	-0.710906	1.702340	0.585621
H73	H	-0.988342	1.629491	0.656305
H74	H	-0.988366	1.629532	0.807153
H75	H	-0.710948	1.702422	0.887321
H76	H	-0.433512	1.775270	0.816637
H77	H	-0.053546	2.041124	0.803933
C78	C	0.057180	1.904163	0.706242
C79	C	0.057182	1.904256	0.792925
C80	C	0.216592	1.946288	0.838994
C81	C	0.375999	1.988227	0.798381
C82	C	0.376002	1.988134	0.711693
C83	C	0.216593	1.946102	0.665623
H84	H	-0.060826	1.873210	0.822994
H85	H	0.216589	1.946356	0.903167
H86	H	0.494004	2.019341	0.832484
H87	H	0.494010	2.019181	0.681624
H88	H	0.216596	1.946034	0.601451
H89	H	-0.510097	1.755063	0.542339
H90	H	-0.053538	2.041127	0.946890
H91	H	-0.440787	1.607218	0.918778
H92	H	-0.440787	1.607197	0.775816
