data_functionalizedCrystal
_audit_creation_method	'MofGen! by Chris Wilmer'
_symmetry_space_group_name_H-M	'P1'
_symmetry_Int_Tables_number	1
_symmetry_cell_setting	triclinic
loop_
_symmetry_equiv_pos_as_xyz
  x,y,z
_cell_length_a	12.594517
_cell_length_b	12.594516
_cell_length_c	18.215399
_cell_angle_alpha	90.022975
_cell_angle_beta	90.020887
_cell_angle_gamma	90.017605
loop_
_atom_site_label
_atom_site_type_symbol
_atom_site_fract_x
_atom_site_fract_y
_atom_site_fract_z
Zn1	Zn	1.627237	-0.423769	0.416162
Zn2	Zn	1.627126	-0.601767	0.293106
Zn3	Zn	1.449245	-0.423801	0.293107
Zn4	Zn	1.449217	-0.601704	0.416129
O5	O	1.538206	-0.512760	0.354626
O6	O	1.776168	-0.447394	0.399852
O7	O	1.603495	-0.578198	0.190122
O8	O	1.472915	-0.274851	0.309445
O9	O	1.776086	-0.578168	0.309444
O10	O	1.603685	-0.274828	0.399853
O11	O	1.472807	-0.447448	0.190123
O12	O	1.300296	-0.447387	0.309413
O13	O	1.472866	-0.578061	0.519118
O14	O	1.300275	-0.578092	0.399796
O15	O	1.603657	-0.447333	0.519142
O16	O	1.603467	-0.750704	0.309412
O17	O	1.472758	-0.750658	0.399796
C18	C	1.261665	-0.512737	0.354602
C19	C	1.143360	-0.512753	0.354608
C20	C	1.003324	-0.441584	0.305561
C21	C	1.074181	-0.415658	0.372716
C22	C	1.074074	-0.538631	0.287461
C23	C	1.003432	-0.486818	0.421853
C24	C	1.003319	-0.609837	0.336553
C25	C	1.074144	-0.583947	0.403753
C26	C	1.538126	-0.789301	0.354616
C27	C	1.538189	-0.907607	0.354636
C28	C	1.467155	-1.047637	0.403771
C29	C	1.564189	-0.976729	0.421828
C30	C	1.441165	-0.976943	0.336612
C31	C	1.635449	-1.047484	0.372756
C32	C	1.512359	-1.047705	0.287508
C33	C	1.609461	-0.976828	0.305539
C34	C	1.815827	-0.512784	0.354651
C35	C	1.934133	-0.512794	0.354662
C36	C	1.538271	-0.512687	0.546579
C37	C	1.538299	-0.512656	0.628378
C38	C	1.538316	-0.235139	0.354652
C39	C	1.538362	-0.116834	0.354664
C40	C	1.538203	-0.512757	0.163420
C41	C	1.538382	-0.512488	0.081621
C42	C	1.606426	-0.444522	0.816586
C43	C	1.606439	-0.444491	0.893445
C44	C	1.470247	-0.580625	0.893408
C45	C	1.470229	-0.580650	0.816551
C46	C	1.538325	-0.512600	0.778142
C47	C	1.538355	-0.512544	0.931858
C48	C	1.538368	-0.512511	1.015192
C49	C	1.538311	-0.512631	0.694803
H50	H	1.105288	-0.333570	0.388024
H51	H	1.105042	-0.644150	0.445301
O52	O	0.966342	-0.369783	0.256023
C53	C	1.003854	-0.396213	0.185425
H54	H	1.078894	-0.446253	0.190587
H55	H	0.940431	-0.443327	0.154839
C56	C	0.936975	-0.232384	0.136314
C57	C	1.029145	-0.293837	0.142654
H58	H	0.952571	-0.169235	0.109929
H59	H	0.911699	-0.214578	0.183876
H60	H	0.884131	-0.271658	0.110827
H61	H	1.081982	-0.254568	0.168148
H62	H	1.054431	-0.311634	0.095095
H63	H	1.490404	-1.078902	0.230744
H64	H	1.661892	-0.389053	0.924743
O65	O	1.404010	-0.646767	0.930607
C66	C	1.343917	-0.706879	0.880191
H67	H	1.340230	-0.663298	0.825410
H68	H	1.382867	-0.787719	0.872010
C69	C	1.235167	-0.775739	0.977453
C70	C	1.230631	-0.722207	0.910172
H71	H	1.165288	-0.785199	0.995947
H72	H	1.275654	-0.735244	1.011420
H73	H	1.267630	-0.843099	0.970626
H74	H	1.198181	-0.654843	0.917001
H75	H	1.190135	-0.762691	0.876206
O76	O	1.404108	-0.646686	0.779087
C77	C	1.418713	-0.632130	0.703016
H78	H	1.453600	-0.549993	0.692537
H79	H	1.475367	-0.695272	0.681204
C80	C	1.268160	-0.742769	0.676406
C81	C	1.311001	-0.641884	0.663536
H82	H	1.201719	-0.748790	0.652052
H83	H	1.258322	-0.752580	0.727657
H84	H	1.315382	-0.795376	0.658230
H85	H	1.263785	-0.589279	0.681720
H86	H	1.320828	-0.632064	0.612287
O87	O	0.966449	-0.460756	0.489639
C88	C	0.904134	-0.544764	0.517215
H89	H	0.873155	-0.594730	0.469603
H90	H	0.954580	-0.596481	0.554911
C91	C	0.847813	-0.437805	0.619211
C92	C	0.809757	-0.499168	0.560733
H93	H	0.789600	-0.409681	0.646058
H94	H	0.889799	-0.381208	0.600635
H95	H	0.889852	-0.480912	0.650616
H96	H	0.767731	-0.456058	0.529324
H97	H	0.767762	-0.555757	0.579305
O98	O	1.110916	-0.564793	0.219655
C99	C	1.024442	-0.582156	0.171955
H100	H	0.950988	-0.603354	0.205441
H101	H	1.008411	-0.506983	0.138921
C102	C	1.141079	-0.647999	0.078110
C103	C	1.050864	-0.674043	0.119238
H104	H	1.157378	-0.704676	0.045589
H105	H	1.199339	-0.636298	0.110245
H106	H	1.127708	-0.585353	0.050588
H107	H	1.064240	-0.736680	0.146766
H108	H	0.992606	-0.685757	0.087106
O109	O	1.343107	-0.940119	0.318482
C110	C	1.268386	-0.976188	0.370424
H111	H	1.299974	-1.050643	0.398498
H112	H	1.254347	-0.911686	0.413259
C113	C	1.124260	-0.910698	0.296895
C114	C	1.163053	-1.002150	0.331372
H115	H	1.059284	-0.926709	0.272807
H116	H	1.174600	-0.886394	0.261901
H117	H	1.112569	-0.856955	0.332597
H118	H	1.174755	-1.055886	0.295669
H119	H	1.112712	-1.026464	0.366358
H120	H	0.972170	-0.691897	0.321234
O121	O	1.395616	-1.084690	0.453463
C122	C	1.423334	-1.048499	0.524178
H123	H	1.511602	-1.028538	0.525621
H124	H	1.375211	-0.974471	0.537938
C125	C	1.290969	-1.160444	0.579113
C126	C	1.399384	-1.135937	0.580887
H127	H	1.276192	-1.214377	0.614095
H128	H	1.272291	-1.184824	0.531471
H129	H	1.250879	-1.098747	0.590578
H130	H	1.439471	-1.197629	0.569413
H131	H	1.418068	-1.111569	0.628528
H132	H	1.586116	-0.945555	0.478609
H133	H	1.717599	-1.078343	0.388078
O134	O	1.681433	-0.940011	0.256065
C135	C	1.783642	-0.976168	0.275346
H136	H	1.785629	-0.995877	0.336407
H137	H	1.803500	-1.050342	0.242195
C138	C	1.863338	-0.864637	0.183707
C139	C	1.865781	-0.888835	0.258705
H140	H	1.914007	-0.810769	0.173440
H141	H	1.794478	-0.840280	0.170715
H142	H	1.879884	-0.926456	0.156090
H143	H	1.849223	-0.827020	0.286320
H144	H	1.934641	-0.913180	0.271702
H145	H	1.661871	-0.389108	0.785315
