data_functionalizedCrystal
_audit_creation_method	'MofGen! by Chris Wilmer'
_symmetry_space_group_name_H-M	'P1'
_symmetry_Int_Tables_number	1
_symmetry_cell_setting	triclinic
loop_
_symmetry_equiv_pos_as_xyz
  x,y,z
_cell_length_a	9.565339
_cell_length_b	10.489741
_cell_length_c	10.489741
_cell_angle_alpha	84.539174
_cell_angle_beta	89.999484
_cell_angle_gamma	90.000900
loop_
_atom_site_label
_atom_site_type_symbol
_atom_site_fract_x
_atom_site_fract_y
_atom_site_fract_z
O1	O	-0.116173	-1.694053	-0.179959
O2	O	-0.116194	-1.322857	-0.196852
O3	O	-0.116175	-1.516901	-0.002807
O4	O	-0.116192	-1.500009	-0.374003
O5	O	0.116345	-1.516886	-0.002819
O6	O	0.116326	-1.322842	-0.196864
O7	O	0.116347	-1.694038	-0.179971
Zn8	Zn	0.153254	-1.508437	-0.188419
Zn9	Zn	-0.153101	-1.508458	-0.188403
O10	O	0.116328	-1.499993	-0.374015
C11	C	0.000063	-1.275318	-0.195582
C12	C	0.000055	-1.133688	-0.191765
N13	N	0.362334	-1.508433	-0.188429
N14	N	-0.362180	-1.508472	-0.188383
C15	C	0.453528	-1.418666	-0.278138
C16	C	0.546712	-1.534163	-0.303949
C17	C	0.546704	-1.392986	-0.162629
C18	C	0.453466	-1.623988	-0.214298
C19	C	0.453451	-1.482735	-0.072928
C20	C	0.546593	-1.598314	-0.098690
C21	C	0.000084	-1.515618	0.044718
C22	C	0.000082	-1.511801	0.186348
C23	C	0.000087	-1.741577	-0.181241
C24	C	0.000086	-1.883206	-0.185058
C25	C	0.000074	-1.065548	-0.068300
C26	C	-0.114571	-0.973429	-0.126617
C27	C	0.114676	-0.973448	-0.126659
C28	C	-0.114684	-1.043435	-0.250133
C29	C	0.114665	-1.043463	-0.250157
C30	C	-0.000007	-0.951371	-0.308564
C31	C	0.000066	-1.501277	-0.421541
C32	C	0.000059	-1.505094	-0.563170
C33	C	0.000064	-1.388336	0.254488
C34	C	0.114712	-1.446652	0.346604
C35	C	-0.114534	-1.446696	0.346591
C36	C	0.114824	-1.570168	0.276599
C37	C	-0.114525	-1.570195	0.276576
C38	C	0.000150	-1.628600	0.368665
H39	H	0.412665	-1.342823	-0.354073
H40	H	0.000220	-1.730204	0.418089
C41	C	0.601585	-1.262855	-0.133625
C42	C	0.747941	-1.264936	-0.132877
C43	C	0.798539	-1.145075	-0.106192
H44	H	0.568431	-1.243849	-0.052198
H45	H	0.569799	-1.199139	-0.197480
H46	H	0.779713	-1.328631	-0.069026
H47	H	0.781132	-1.283919	-0.214293
H48	H	0.766753	-1.081360	-0.170047
H49	H	0.765375	-1.126080	-0.024766
H50	H	0.897846	-1.146468	-0.105692
C51	C	0.243854	-1.084666	-0.319961
C52	C	0.244739	-1.024522	-0.444976
C53	C	0.363747	-1.062438	-0.509300
H54	H	0.242567	-1.174911	-0.322702
H55	H	0.325278	-1.060915	-0.276057
H56	H	0.163336	-1.048280	-0.488869
H57	H	0.246048	-0.934278	-0.442274
H58	H	0.445171	-1.038688	-0.465396
H59	H	0.362449	-1.152683	-0.512031
H60	H	0.364370	-1.021627	-0.594125
C61	C	-0.243591	-1.640019	0.235127
C62	C	-0.202641	-1.747501	0.174833
C63	C	-0.321509	-1.811852	0.136644
H64	H	-0.296720	-1.584299	0.177135
H65	H	-0.298867	-1.666504	0.308127
H66	H	-0.147388	-1.721014	0.101843
H67	H	-0.149528	-1.803252	0.232802
H68	H	-0.376785	-1.838337	0.209644
H69	H	-0.374630	-1.756121	0.078656
H70	H	-0.293741	-1.884791	0.095741
C71	C	0.244112	-1.377138	0.387803
C72	C	0.363882	-1.440801	0.350601
C73	C	0.483104	-1.376785	0.388512
H74	H	0.243796	-1.375875	0.478228
H75	H	0.244068	-1.291788	0.348306
H76	H	0.363926	-1.526128	0.390102
H77	H	0.364244	-1.442066	0.260182
H78	H	0.483060	-1.291435	0.349015
H79	H	0.482773	-1.375525	0.478936
H80	H	0.564381	-1.419964	0.363265
C81	C	0.398848	-1.453409	0.057189
C82	C	0.445978	-1.332344	0.083678
C83	C	0.395687	-1.305264	0.203520
H84	H	0.432065	-1.516233	0.121231
H85	H	0.299534	-1.454317	0.056462
H86	H	0.545271	-1.331446	0.084415
H87	H	0.412764	-1.269494	0.019667
H88	H	0.296373	-1.306171	0.202793
H89	H	0.428908	-1.368095	0.267552
H90	H	0.427647	-1.223115	0.221503
H91	H	-0.000074	-0.901947	-0.410168
C92	C	-0.000362	-1.131707	0.067072
C93	C	-0.120682	-1.096426	0.131128
C94	C	-0.121151	-1.157365	0.255822
H95	H	0.080162	-1.106798	0.111537
H96	H	0.000388	-1.221896	0.063738
H97	H	-0.121419	-1.006257	0.134468
H98	H	-0.201226	-1.121336	0.086701
H99	H	-0.120401	-1.247555	0.252487
H100	H	-0.040622	-1.132452	0.300275
H101	H	-0.202792	-1.133446	0.299295
C102	C	-0.243975	-0.932246	-0.057101
C103	C	-0.363738	-0.969456	-0.120768
C104	C	-0.482966	-0.931568	-0.056749
H105	H	-0.243672	-0.841822	-0.055829
H106	H	-0.243926	-0.971751	0.028246
H107	H	-0.363787	-0.929947	-0.206092
H108	H	-0.364087	-1.059875	-0.122043
H109	H	-0.482918	-0.971073	0.028598
H110	H	-0.482649	-0.841145	-0.055480
H111	H	-0.564239	-0.956820	-0.099931
C112	C	0.601627	-1.563220	-0.434050
C113	C	0.747981	-1.564023	-0.431917
C114	C	0.798614	-1.590789	-0.551740
H115	H	0.569921	-1.499408	-0.497821
H116	H	0.568415	-1.644664	-0.452999
H117	H	0.781179	-1.482591	-0.412984
H118	H	0.779724	-1.627836	-0.368172
H119	H	0.765402	-1.672232	-0.570689
H120	H	0.766899	-1.526973	-0.615501
H121	H	0.897919	-1.591349	-0.550305
C122	C	0.244164	-1.639658	0.235232
C123	C	0.242714	-1.642351	0.102046
C124	C	0.361847	-1.706333	0.063888
H125	H	0.244624	-1.724798	0.275219
H126	H	0.325510	-1.596073	0.259690
H127	H	0.161389	-1.685938	0.077601
H128	H	0.242275	-1.557228	0.062027
H129	H	0.443193	-1.662748	0.088346
H130	H	0.362296	-1.791469	0.103884
H131	H	0.360885	-1.708158	-0.026482
H132	H	0.412683	-1.721659	-0.236217
H133	H	0.587199	-1.674328	-0.022802
H134	H	0.211599	-0.942463	-0.074401
C135	C	-0.243906	-1.084695	-0.319866
C136	C	-0.203156	-1.146082	-0.426722
C137	C	-0.322155	-1.184126	-0.490975
H138	H	-0.298672	-1.011575	-0.347017
H139	H	-0.297497	-1.142007	-0.263815
H140	H	-0.149588	-1.088774	-0.482763
H141	H	-0.148407	-1.219217	-0.399607
H142	H	-0.375746	-1.241438	-0.434924
H143	H	-0.376912	-1.110999	-0.518118
H144	H	-0.294523	-1.225792	-0.563477
H145	H	-0.211470	-1.394447	0.377560
H146	H	0.000174	-1.286824	0.204837
