data_functionalizedCrystal
_audit_creation_method	'MofGen! by Chris Wilmer'
_symmetry_space_group_name_H-M	'P1'
_symmetry_Int_Tables_number	1
_symmetry_cell_setting	triclinic
loop_
_symmetry_equiv_pos_as_xyz
  x,y,z
_cell_length_a	25.639242
_cell_length_b	25.639240
_cell_length_c	13.033109
_cell_angle_alpha	97.144236
_cell_angle_beta	82.789422
_cell_angle_gamma	90.027658
loop_
_atom_site_label
_atom_site_type_symbol
_atom_site_fract_x
_atom_site_fract_y
_atom_site_fract_z
Zn1	Zn	0.836826	-0.245765	-0.591023
Zn2	Zn	0.825646	-0.322101	-0.416246
Zn3	Zn	0.738291	-0.234675	-0.416269
Zn4	Zn	0.749350	-0.333157	-0.590911
O5	O	0.787528	-0.283924	-0.503612
O6	O	0.908511	-0.255906	-0.567875
O7	O	0.804751	-0.301235	-0.270016
O8	O	0.751413	-0.162984	-0.439507
O9	O	0.900296	-0.311989	-0.439468
O10	O	0.823806	-0.171132	-0.567898
O11	O	0.740572	-0.237003	-0.270033
O12	O	0.666590	-0.247724	-0.439399
O13	O	0.770261	-0.330832	-0.737159
O14	O	0.674715	-0.320078	-0.567708
O15	O	0.834530	-0.266626	-0.737241
O16	O	0.815474	-0.396729	-0.439359
O17	O	0.759420	-0.404852	-0.567685
C18	C	0.651681	-0.283898	-0.503544
C19	C	0.593567	-0.283901	-0.503540
C20	C	0.338146	-0.246201	-0.436918
C21	C	0.392750	-0.246195	-0.436904
O22	O	0.417388	-0.214107	-0.380201
N23	N	0.424296	-0.283911	-0.503593
C24	C	0.401238	-0.321631	-0.570306
O25	O	0.433085	-0.353710	-0.627029
C26	C	0.346636	-0.321634	-0.570324
C27	C	0.315091	-0.283919	-0.503624
C28	C	0.306602	-0.208489	-0.370223
C29	C	0.252002	-0.208496	-0.370236
C30	C	0.228947	-0.246214	-0.436942
C31	C	0.260491	-0.283926	-0.503636
C32	C	0.323578	-0.359351	-0.637042
C33	C	0.268972	-0.359351	-0.637055
C34	C	0.237427	-0.321636	-0.570354
C35	C	0.182836	-0.321650	-0.570354
N36	N	0.151289	-0.283935	-0.503666
C37	C	0.174344	-0.246217	-0.436960
C38	C	0.515906	-0.321621	-0.570265
C39	C	0.570507	-0.321621	-0.570243
C40	C	0.562015	-0.246185	-0.436842
C41	C	0.507413	-0.246188	-0.436860
C42	C	0.484359	-0.283906	-0.503577
C43	C	0.059681	-0.246233	-0.436990
C44	C	0.005077	-0.246244	-0.437005
C45	C	0.013574	-0.321679	-0.570409
C46	C	0.068173	-0.321670	-0.570390
C47	C	0.091225	-0.283942	-0.503677
O48	O	0.158161	-0.353721	-0.627032
O49	O	0.142492	-0.214139	-0.380256
C50	C	0.787449	-0.419762	-0.503531
C51	C	0.787465	-0.477876	-0.503530
C52	C	0.825248	-0.842456	-0.570586
C53	C	0.825265	-0.897062	-0.570607
O54	O	0.857295	-0.928879	-0.627536
N55	N	0.787607	-0.920170	-0.503713
C56	C	0.749927	-0.888670	-0.436801
O57	O	0.717898	-0.913339	-0.379905
C58	C	0.749909	-0.834065	-0.436786
C59	C	0.787572	-0.810960	-0.503677
C60	C	0.862907	-0.819350	-0.637472
C61	C	0.862891	-0.764748	-0.637449
C62	C	0.825215	-0.733252	-0.570540
C63	C	0.787555	-0.756358	-0.503654
C64	C	0.712227	-0.802567	-0.369880
C65	C	0.712211	-0.747959	-0.369871
C66	C	0.749874	-0.724854	-0.436762
C67	C	0.749863	-0.670260	-0.436722
N68	N	0.787521	-0.647152	-0.503616
C69	C	0.825196	-0.678648	-0.570525
C70	C	0.749969	-1.003343	-0.436840
C71	C	0.749989	-1.057946	-0.436849
C72	C	0.825326	-1.066334	-0.570656
C73	C	0.825307	-1.011730	-0.570641
C74	C	0.787626	-0.980234	-0.503734
C75	C	0.825160	-0.563979	-0.570471
C76	C	0.825141	-0.509372	-0.570440
C77	C	0.749803	-0.500989	-0.436636
C78	C	0.749823	-0.555591	-0.436664
C79	C	0.787503	-0.587085	-0.503590
O80	O	0.717847	-0.638410	-0.379825
O81	O	0.857216	-0.653972	-0.627421
C82	C	0.923906	-0.283951	-0.503681
C83	C	0.982021	-0.283963	-0.503711
C84	C	0.804876	-0.301200	-0.776177
C85	C	0.812268	-0.308562	-0.892328
C86	C	0.787623	-0.147558	-0.503717
C87	C	0.787664	-0.089447	-0.503762
C88	C	0.783810	-0.280063	-0.944120
C89	C	0.791450	-0.287671	-1.064168
C90	C	0.770278	-0.266678	-0.232108
C91	C	0.762987	-0.259169	-0.115958
H92	H	0.596186	-0.352337	-0.624546
N93	N	0.849931	-0.346241	-0.948165
N94	N	0.845668	-0.393721	-0.936015
H95	H	0.872269	-0.420333	-0.975445
H96	H	0.855840	-0.589616	-0.624976
N97	N	-0.027137	-0.207717	-0.368857
N98	N	-0.006541	-0.174043	-0.309305
H99	H	-0.029290	-0.146833	-0.261177
N100	N	0.901405	-0.851508	-0.705821
N101	N	0.949214	-0.844927	-0.698978
H102	H	0.976408	-0.867634	-0.747249
N103	N	0.083221	-0.207705	-0.368824
N104	N	0.109422	-0.221819	-0.302147
H105	H	0.126046	-0.194611	-0.253999
H106	H	0.821472	-0.317705	-1.108698
H107	H	0.855976	-0.992921	-0.625110
N108	N	0.746154	-0.242378	-0.888280
N109	N	0.719398	-0.215577	-0.936912
H110	H	0.692804	-0.188958	-0.897478
N111	N	0.725330	-0.221485	-1.060108
N112	N	0.729598	-0.174004	-1.072253
H113	H	0.703004	-0.147389	-1.032810
N114	N	0.219792	-0.169967	-0.302095
N115	N	0.240393	-0.136296	-0.242547
H116	H	0.217648	-0.109082	-0.194420
N117	N	0.711375	-0.579202	-0.368301
N118	N	0.708763	-0.567021	-0.271882
H119	H	0.681612	-0.583697	-0.223597
N120	N	0.330138	-0.169952	-0.302077
N121	N	0.301957	-0.136286	-0.242542
H122	H	0.318575	-0.109067	-0.194404
H123	H	0.349253	-0.390063	-0.691356
N124	N	0.475202	-0.207653	-0.368735
N125	N	0.481784	-0.159866	-0.375855
H126	H	0.459038	-0.132648	-0.327741
N127	N	0.585580	-0.207659	-0.368707
N128	N	0.634332	-0.207665	-0.368711
H129	H	0.650977	-0.180458	-0.320594
N130	N	0.492368	-0.360165	-0.638407
N131	N	0.497998	-0.407951	-0.631277
H132	H	0.481378	-0.435174	-0.679403
N133	N	0.245433	-0.397882	-0.705218
N134	N	0.273608	-0.431548	-0.764762
H135	H	0.256985	-0.458762	-0.812902
N136	N	0.711318	-0.468820	-0.368279
N137	N	0.708685	-0.468830	-0.271862
H138	H	0.681501	-0.446111	-0.223586
H139	H	0.093858	-0.352383	-0.624695
H140	H	0.856003	-1.091988	-0.625139
H141	H	0.855813	-0.490561	-0.624910
N142	N	-0.009992	-0.360203	-0.638534
N143	N	-0.058744	-0.360197	-0.638531
H144	H	-0.075389	-0.387403	-0.686649
H145	H	0.893558	-0.745939	-0.691921
H146	H	0.719325	-1.076752	-0.382368
H147	H	0.719285	-0.977701	-0.382347
N148	N	0.673752	-0.826155	-0.301550
N149	N	0.671108	-0.813966	-0.205129
H150	H	0.643930	-0.830623	-0.156870
N151	N	0.673713	-0.715797	-0.301524
N152	N	0.640091	-0.736438	-0.241813
H153	H	0.612901	-0.713725	-0.193542
