data_functionalizedCrystal
_audit_creation_method	'MofGen! by Chris Wilmer'
_symmetry_space_group_name_H-M	'P1'
_symmetry_Int_Tables_number	1
_symmetry_cell_setting	triclinic
loop_
_symmetry_equiv_pos_as_xyz
  x,y,z
_cell_length_a	12.827893
_cell_length_b	12.827892
_cell_length_c	12.827885
_cell_angle_alpha	90.029976
_cell_angle_beta	90.019272
_cell_angle_gamma	90.015362
loop_
_atom_site_label
_atom_site_type_symbol
_atom_site_fract_x
_atom_site_fract_y
_atom_site_fract_z
Zn1	Zn	1.597671	-0.415978	0.590847
Zn2	Zn	2.097671	0.084022	1.090847
Zn3	Zn	1.597566	-0.590755	0.416107
Zn4	Zn	2.097566	-0.090755	0.916107
Zn5	Zn	1.422912	-0.416029	0.416121
Zn6	Zn	1.922912	0.083971	0.916121
Zn7	Zn	1.422898	-0.590678	0.590807
Zn8	Zn	1.922898	-0.090678	1.090807
O9	O	1.510262	-0.503360	0.503471
O10	O	2.010262	-0.003360	1.003471
O11	O	1.743893	-0.439173	0.567679
O12	O	2.243893	0.060827	1.067679
O13	O	1.574359	-0.567631	0.269873
O14	O	2.074359	-0.067631	0.769873
O15	O	1.446144	-0.269787	0.439321
O16	O	1.946144	0.230213	0.939321
O17	O	1.743816	-0.567582	0.439298
O18	O	2.243816	-0.067582	0.939298
O19	O	1.574539	-0.269749	0.567692
O20	O	2.074539	0.230251	1.067692
O21	O	1.446042	-0.439261	0.269883
O22	O	1.946042	0.060739	0.769883
O23	O	1.276674	-0.439186	0.439282
O24	O	1.776674	0.060814	0.939282
O25	O	1.446120	-0.567450	0.737048
O26	O	1.946120	-0.067450	1.237048
O27	O	1.276664	-0.567500	0.567623
O28	O	1.776664	-0.067500	1.067623
O29	O	1.574525	-0.439098	0.737078
O30	O	2.074525	0.060902	1.237078
O31	O	1.574346	-0.736981	0.439259
O32	O	2.074346	-0.236981	0.939259
O33	O	1.446018	-0.736924	0.567610
O34	O	1.946018	-0.236924	1.067610
C35	C	1.238752	-0.503341	0.503451
C36	C	1.738752	-0.003341	1.003451
C37	C	1.122599	-0.503358	0.503467
C38	C	1.622599	-0.003358	1.003467
C39	C	0.950732	-0.566817	0.439874
C40	C	1.450732	-0.066817	0.939874
C41	C	1.070782	-0.566801	0.439856
C42	C	1.570782	-0.066801	0.939856
C43	C	1.510197	-0.774870	0.503451
C44	C	2.010197	-0.274870	1.003451
C45	C	1.510265	-0.891023	0.503478
C46	C	2.010265	-0.391023	1.003478
C47	C	1.446750	-0.942814	0.566944
C48	C	1.946750	-0.442814	1.066944
C49	C	1.446819	-1.062865	0.566973
C50	C	1.946819	-0.562865	1.066973
C51	C	1.782832	-0.503380	0.503491
C52	C	2.282832	-0.003380	1.003491
C53	C	1.898985	-0.503389	0.503500
C54	C	2.398985	-0.003389	1.003500
C55	C	1.510333	-0.503260	0.776041
C56	C	2.010333	-0.003260	1.276041
C57	C	1.510363	-0.503217	0.892194
C58	C	2.010363	-0.003217	1.392194
C59	C	1.510355	-0.230790	0.503513
C60	C	2.010355	0.269210	1.003513
C61	C	1.510395	-0.114637	0.503531
C62	C	2.010395	0.385363	1.003531
C63	C	1.510251	-0.503385	0.231961
C64	C	2.010251	-0.003385	0.731961
C65	C	1.510423	-0.503133	0.115808
C66	C	2.010423	-0.003133	0.615808
C67	C	1.573909	-0.439692	0.943993
C68	C	2.073909	0.060308	1.443993
C69	C	1.573942	-0.439647	1.064044
C70	C	2.073942	0.060353	1.564044
H71	H	0.906157	-0.621127	0.385411
H72	H	1.406157	-0.121127	0.885411
H73	H	0.943560	-0.449070	0.557954
H74	H	1.443560	0.050930	1.057954
C75	C	1.647373	-0.366259	0.883841
C76	C	2.147373	0.133741	1.383841
N77	N	1.702708	-0.310947	0.838536
N78	N	2.202708	0.189053	1.338536
C79	C	1.583862	-1.054476	0.430120
C80	C	2.083862	-0.554476	0.930120
N81	N	1.639196	-1.009156	0.374825
N82	N	2.139196	-0.509156	0.874825
H83	H	1.392316	-0.898281	0.621254
H84	H	1.892316	-0.398281	1.121254
H85	H	1.392445	-1.107404	0.621312
H86	H	1.892445	-0.607404	1.121312
H87	H	1.078104	-0.449056	0.557946
H88	H	1.578104	0.050944	1.057946
C89	C	1.647439	-0.366168	1.124221
C90	C	2.147439	0.133832	1.624221
N91	N	1.702797	-0.310819	1.169549
N92	N	2.202797	0.189181	1.669549
H93	H	1.115283	-0.621109	0.385389
H94	H	1.615283	-0.121109	0.885389
C95	C	1.436892	-0.576643	0.952346
C96	C	1.936892	-0.076643	1.452346
N97	N	1.381552	-0.631950	0.997652
N98	N	1.881552	-0.131950	1.497652
H99	H	1.564691	-0.935560	0.449161
H100	H	2.064691	-0.435560	0.949161
H101	H	1.456020	-0.557526	1.071269
H102	H	1.956020	-0.057526	1.571269
