data_functionalizedCrystal
_audit_creation_method	'MofGen! by Chris Wilmer'
_symmetry_space_group_name_H-M	'P1'
_symmetry_Int_Tables_number	1
_symmetry_cell_setting	triclinic
loop_
_symmetry_equiv_pos_as_xyz
  x,y,z
_cell_length_a	8.497374
_cell_length_b	19.805407
_cell_length_c	19.805399
_cell_angle_alpha	90.019573
_cell_angle_beta	89.990018
_cell_angle_gamma	89.998906
loop_
_atom_site_label
_atom_site_type_symbol
_atom_site_fract_x
_atom_site_fract_y
_atom_site_fract_z
Zn1	Zn	0.628092	1.034855	0.382802
Zn2	Zn	0.891908	1.034820	0.269649
Zn3	Zn	0.628136	0.921669	0.269627
Zn4	Zn	0.891824	0.921683	0.382796
O5	O	0.759990	0.978257	0.326219
O6	O	0.663105	1.129567	0.367804
O7	O	0.856972	1.019790	0.174929
O8	O	0.407368	0.936693	0.284634
O9	O	0.856929	1.129541	0.284671
O10	O	0.407336	1.019850	0.367783
O11	O	0.663179	0.936659	0.174913
O12	O	0.663098	0.826955	0.284627
O13	O	0.856786	0.936716	0.477513
O14	O	0.856829	0.826965	0.367772
O15	O	0.663024	1.019863	0.477518
O16	O	1.112659	1.019803	0.284665
O17	O	1.112598	0.936682	0.367793
C18	C	0.759960	0.802401	0.326197
C19	C	0.759985	0.727169	0.326203
C20	C	0.861013	0.691847	0.369427
C21	C	0.861015	0.621159	0.369436
C22	C	0.759997	0.585793	0.326219
C23	C	0.658959	0.621119	0.282993
C24	C	0.658949	0.691806	0.282988
C25	C	0.658994	0.336046	0.283016
C26	C	0.659014	0.265354	0.283023
C27	C	0.861060	0.265399	0.369464
C28	C	0.861050	0.336086	0.369459
C29	C	0.760007	0.371406	0.326236
C30	C	0.760003	0.448054	0.326227
C31	C	0.760008	0.509146	0.326224
C32	C	1.169870	0.978248	0.326228
C33	C	1.348514	0.978266	0.326217
C34	C	0.759891	0.978295	0.502761
C35	C	0.759849	0.978311	0.577993
C36	C	0.760022	1.154799	0.326241
C37	C	0.760035	1.230031	0.326250
C38	C	0.759975	0.978258	0.150363
C39	C	0.759573	0.978373	0.075131
C40	C	0.658951	1.021606	0.613341
C41	C	0.658906	1.021613	0.684030
C42	C	0.759766	0.978328	0.719369
C43	C	0.860668	0.935027	0.684016
C44	C	0.860705	0.935017	0.613329
C45	C	0.860521	0.935065	0.969090
C46	C	0.860480	0.935080	1.039782
C47	C	0.658722	1.021661	1.039790
C48	C	0.658759	1.021651	0.969103
C49	C	0.759654	0.978349	0.933756
C50	C	0.759700	0.978341	0.857108
C51	C	0.759729	0.978338	0.796016
H52	H	0.576674	0.720564	0.247794
H53	H	0.943315	0.364877	0.404649
O54	O	0.959057	0.230983	0.411436
C55	C	1.048694	0.122106	0.449733
C56	C	0.937607	0.160995	0.402182
H57	H	1.031415	0.065514	0.442257
H58	H	1.021159	0.135980	0.504341
H59	H	1.175844	0.136043	0.437769
H60	H	0.810420	0.147079	0.414085
H61	H	0.965278	0.147118	0.347587
O62	O	0.959310	0.726229	0.411313
C63	C	1.172258	0.806073	0.420284
C64	C	1.061062	0.767170	0.372768
H65	H	1.254530	0.839194	0.389140
H66	H	1.244576	0.768713	0.451168
H67	H	1.099897	0.839150	0.455732
H68	H	1.133301	0.734091	0.337279
H69	H	0.988738	0.804566	0.341931
H70	H	0.576702	0.592319	0.247808
O71	O	0.560526	1.063624	1.074157
C72	C	0.347543	1.072755	1.153986
C73	C	0.458618	1.025156	1.115099
H74	H	0.265145	1.041674	1.187107
H75	H	0.275354	1.103680	1.116614
H76	H	0.419991	1.108161	1.187060
H77	H	0.386292	0.989709	1.082023
H78	H	0.530812	0.994279	1.152507
O79	O	0.560995	1.063761	0.934740
C80	C	0.539777	1.155088	0.854900
C81	C	0.650689	1.107459	0.893787
H82	H	0.612249	1.190420	0.821770
H83	H	0.467662	1.186083	0.892271
H84	H	0.457287	1.123982	0.821834
H85	H	0.733275	1.138513	0.926854
H86	H	0.722694	1.076461	0.856380
O87	O	0.958955	0.893041	0.579016
C88	C	1.227312	0.860160	0.557410
C89	C	1.116223	0.907751	0.596300
H90	H	1.354485	0.872027	0.571380
H91	H	1.210144	0.867596	0.500811
H92	H	1.199527	0.805587	0.571283
H93	H	1.143940	0.962342	0.582484
H94	H	1.133412	0.900257	0.652890
H95	H	0.943284	0.592404	0.404632
H96	H	0.942616	0.899829	1.068553
H97	H	0.942699	0.899816	0.940319
O98	O	0.958810	0.893075	0.718374
C99	C	1.171696	0.883970	0.798215
C100	C	1.060668	0.931557	0.759337
H101	H	1.254053	0.915062	0.831354
H102	H	1.243931	0.853033	0.760838
H103	H	1.099208	0.848574	0.831271
H104	H	1.133034	0.966993	0.726280
H105	H	0.988428	0.962446	0.796751
O106	O	0.560723	0.231103	0.241021
C107	C	0.360361	0.238514	0.155258
C108	C	0.471558	0.277387	0.202799
H109	H	0.288266	0.275918	0.124333
H110	H	0.277879	0.205448	0.186360
H111	H	0.432710	0.205389	0.119850
H112	H	0.399336	0.310548	0.238216
H113	H	0.554044	0.310410	0.171654
H114	H	0.576730	0.364795	0.247816
O115	O	0.560745	1.063583	0.579047
C116	C	0.292412	1.096471	0.557458
C117	C	0.403459	1.048881	0.596322
H118	H	0.165225	1.084611	0.571421
H119	H	0.309627	1.089028	0.500855
H120	H	0.320197	1.151044	0.571361
H121	H	0.375743	0.994289	0.582475
H122	H	0.386224	1.056382	0.652915
H123	H	0.576749	1.056870	0.712807
