data_functionalizedCrystal
_audit_creation_method	'MofGen! by Chris Wilmer'
_symmetry_space_group_name_H-M	'P1'
_symmetry_Int_Tables_number	1
_symmetry_cell_setting	triclinic
loop_
_symmetry_equiv_pos_as_xyz
  x,y,z
_cell_length_a	14.971491
_cell_length_b	13.448316
_cell_length_c	14.971486
_cell_angle_alpha	89.993189
_cell_angle_beta	83.615182
_cell_angle_gamma	89.991393
loop_
_atom_site_label
_atom_site_type_symbol
_atom_site_fract_x
_atom_site_fract_y
_atom_site_fract_z
O1	O	1.186945	-0.082735	0.116587
O2	O	1.686945	0.417265	0.616587
O3	O	0.926545	-0.082728	0.130541
O4	O	1.426545	0.417272	0.630541
O5	O	1.063724	-0.082724	-0.006636
O6	O	1.563724	0.417276	0.493364
O7	O	1.049765	-0.082738	0.253764
O8	O	1.549765	0.417262	0.753764
O9	O	1.063707	0.082659	-0.006645
O10	O	1.563707	0.582659	0.493355
O11	O	0.926528	0.082656	0.130532
O12	O	1.426528	0.582656	0.630532
O13	O	1.186927	0.082649	0.116578
O14	O	1.686927	0.582649	0.616578
Cu15	Cu	1.056726	0.097753	0.123555
Cu16	Cu	1.556726	0.597753	0.623555
Cu17	Cu	1.056746	-0.097832	0.123565
Cu18	Cu	1.556746	0.402168	0.623565
O19	O	1.049748	0.082646	0.253755
O20	O	1.549748	0.582646	0.753755
C21	C	0.893212	-0.000035	0.129912
C22	C	1.393212	0.499965	0.629912
C23	C	0.793915	-0.000032	0.128039
C24	C	1.293915	0.499968	0.628039
N25	N	1.056718	0.235318	0.123547
N26	N	1.556718	0.735318	0.623547
N27	N	1.056761	-0.235396	0.123565
N28	N	1.556761	0.264604	0.623565
C29	C	0.366219	-0.090205	0.119963
C30	C	0.866219	0.409795	0.619963
C31	C	0.459519	-0.090201	0.121720
C32	C	0.959519	0.409799	0.621720
C33	C	0.506155	-0.000047	0.122600
C34	C	1.006155	0.499953	0.622600
C35	C	0.459488	0.090109	0.121713
C36	C	0.959488	0.590109	0.621713
C37	C	0.366190	0.090104	0.119950
C38	C	0.866190	0.590104	0.619950
C39	C	0.653950	0.090113	0.125391
C40	C	1.153950	0.590113	0.625391
C41	C	0.747254	0.090118	0.127156
C42	C	1.247254	0.590118	0.627156
C43	C	0.747279	-0.090193	0.127160
C44	C	1.247279	0.409807	0.627160
C45	C	0.653981	-0.090198	0.125397
C46	C	1.153981	0.409802	0.625397
C47	C	0.607319	-0.000041	0.124513
C48	C	1.107319	0.499959	0.624513
C49	C	1.220261	-0.000046	0.117207
C50	C	1.720261	0.499954	0.617207
C51	C	1.319557	-0.000056	0.119080
C52	C	1.819557	0.499944	0.619080
C53	C	1.063091	-0.000033	-0.039965
C54	C	1.563091	0.499967	0.460035
C55	C	1.061221	-0.000034	-0.139262
C56	C	1.561221	0.499966	0.360738
C57	C	1.117480	0.287359	0.062830
C58	C	1.617480	0.787359	0.562830
C59	C	1.117486	0.391463	0.062829
C60	C	1.617486	0.891463	0.562829
C61	C	1.056733	0.443522	0.123550
C62	C	1.556733	0.943522	0.623550
C63	C	0.995965	0.391473	0.184270
C64	C	1.495965	0.891473	0.684270
C65	C	0.995955	0.287372	0.184266
C66	C	1.495955	0.787372	0.684266
C67	C	0.995989	0.608453	0.184276
C68	C	1.495989	1.108453	0.684276
C69	C	0.995999	0.712562	0.184282
C70	C	1.495999	1.212562	0.684282
C71	C	1.117520	0.712544	0.062840
C72	C	1.617520	1.212544	0.562840
C73	C	1.117510	0.608443	0.062835
C74	C	1.617510	1.108443	0.562835
C75	C	1.056743	0.556401	0.123556
C76	C	1.556743	1.056401	0.623556
C77	C	1.141810	-0.000035	-0.196486
C78	C	1.641810	0.499965	0.303514
C79	C	1.140046	-0.000045	-0.289786
C80	C	1.640046	0.499955	0.210214
C81	C	1.057693	-0.000046	-0.325859
C82	C	1.557693	0.499954	0.174141
C83	C	0.977098	-0.000048	-0.268628
C84	C	1.477098	0.499952	0.231372
C85	C	0.978862	-0.000045	-0.175331
C86	C	1.478862	0.499955	0.324669
C87	C	0.973427	-0.000051	-0.463091
C88	C	1.473427	0.499949	0.036909
C89	C	0.971663	-0.000052	-0.556395
C90	C	1.471663	0.499948	-0.056395
C91	C	1.134611	-0.000051	-0.577546
C92	C	1.634611	0.499949	-0.077546
C93	C	1.136375	-0.000049	-0.484248
C94	C	1.636375	0.499951	0.015752
C95	C	1.055780	-0.000048	-0.427023
C96	C	1.555780	0.499952	0.072977
C97	C	1.050381	-0.000048	0.287084
C98	C	1.550381	0.499952	0.787084
C99	C	1.052252	-0.000054	0.386381
C100	C	1.552252	0.499946	0.886381
H101	H	0.328253	-0.163619	0.119254
H102	H	0.828253	0.336381	0.619254
Br103	Br	0.302864	0.212455	0.118739
Br104	Br	0.802864	0.712455	0.618739
H105	H	0.785274	-0.163602	0.127882
H106	H	1.285274	0.336398	0.627882
Br107	Br	0.859897	-0.000050	-0.605352
Br108	Br	1.359897	0.499950	-0.105352
Br109	Br	0.522843	-0.212553	0.122911
Br110	Br	1.022843	0.287447	0.622911
H111	H	1.166955	0.244979	0.013388
H112	H	1.666955	0.744979	0.513388
Br113	Br	0.590687	-0.212551	0.124215
Br114	Br	1.090687	0.287449	0.624215
H115	H	0.946494	0.433866	0.233708
H116	H	1.446494	0.933866	0.733708
H117	H	0.913238	-0.000044	-0.128739
H118	H	1.413238	0.499956	0.371261
Br119	Br	0.522780	0.212463	0.122903
Br120	Br	1.022780	0.712463	0.622903
H121	H	0.785222	0.163529	0.127877
H122	H	1.285222	0.663529	0.627877
H123	H	0.946476	0.245000	0.233707
H124	H	1.446476	0.745000	0.733707
Br125	Br	0.865332	-0.000066	-0.317584
Br126	Br	1.365332	0.499934	0.182416
Br127	Br	1.199946	0.462094	-0.019577
Br128	Br	1.699946	0.962094	0.480423
H129	H	1.208871	-0.000028	-0.167123
H130	H	1.708871	0.499972	0.332877
H131	H	0.615959	0.163528	0.124681
H132	H	1.115959	0.663528	0.624681
Br133	Br	0.913546	0.783207	0.266693
Br134	Br	1.413546	1.283207	0.766693
Br135	Br	1.243992	-0.000054	-0.655206
Br136	Br	1.743992	0.499946	-0.155206
Br137	Br	1.249422	-0.000047	-0.367444
Br138	Br	1.749422	0.499953	0.132556
Br139	Br	1.199968	0.537787	-0.019564
Br140	Br	1.699968	1.037787	0.480436
Br141	Br	1.199992	0.783175	-0.019562
Br142	Br	1.699992	1.283175	0.480438
Br143	Br	0.913513	0.537828	0.266681
Br144	Br	1.413513	1.037828	0.766681
H145	H	1.203434	-0.000040	-0.454880
H146	H	1.703434	0.499960	0.045120
Br147	Br	0.864046	-0.000054	-0.385429
Br148	Br	1.364046	0.499946	0.114571
