data_functionalizedCrystal
_audit_creation_method	'MofGen! by Chris Wilmer'
_symmetry_space_group_name_H-M	'P1'
_symmetry_Int_Tables_number	1
_symmetry_cell_setting	triclinic
loop_
_symmetry_equiv_pos_as_xyz
  x,y,z
_cell_length_a	13.897449
_cell_length_b	29.839131
_cell_length_c	13.897441
_cell_angle_alpha	89.958174
_cell_angle_beta	89.978743
_cell_angle_gamma	90.036054
loop_
_atom_site_label
_atom_site_type_symbol
_atom_site_fract_x
_atom_site_fract_y
_atom_site_fract_z
Zn1	Zn	1.474565	-0.178833	-0.545368
Zn2	Zn	1.807898	0.154500	-0.212035
Zn3	Zn	2.141231	0.487833	0.121299
Zn4	Zn	1.474415	-0.253967	-0.384035
Zn5	Zn	1.807749	0.079366	-0.050702
Zn6	Zn	2.141082	0.412700	0.282632
Zn7	Zn	1.313260	-0.178853	-0.384079
Zn8	Zn	1.646593	0.154480	-0.050745
Zn9	Zn	1.979927	0.487814	0.282588
Zn10	Zn	1.313186	-0.253938	-0.545280
Zn11	Zn	1.646520	0.079395	-0.211947
Zn12	Zn	1.979853	0.412728	0.121387
O13	O	1.393857	-0.216398	-0.464690
O14	O	1.727190	0.116935	-0.131357
O15	O	2.060523	0.450269	0.201976
O16	O	1.609527	-0.188804	-0.523985
O17	O	1.942860	0.144529	-0.190652
O18	O	2.276193	0.477863	0.142682
O19	O	1.453006	-0.244023	-0.249059
O20	O	1.786339	0.089310	0.084274
O21	O	2.119673	0.422643	0.417608
O22	O	1.334751	-0.115983	-0.405529
O23	O	1.668084	0.217350	-0.072196
O24	O	2.001417	0.550683	0.261137
O25	O	1.609417	-0.244004	-0.405454
O26	O	1.942750	0.089329	-0.072121
O27	O	2.276083	0.422662	0.261212
O28	O	1.453261	-0.115969	-0.524028
O29	O	1.786594	0.217364	-0.190694
O30	O	2.119927	0.550698	0.142639
O31	O	1.334606	-0.188837	-0.249091
O32	O	1.667939	0.144496	0.084242
O33	O	2.001272	0.477829	0.417575
O34	O	1.178269	-0.188809	-0.405444
O35	O	1.511602	0.144524	-0.072111
O36	O	1.844935	0.477857	0.261223
O37	O	1.334625	-0.243955	-0.680273
O38	O	1.667958	0.089378	-0.346940
O39	O	2.001292	0.422712	-0.013607
O40	O	1.178214	-0.243974	-0.523878
O41	O	1.511548	0.089359	-0.190545
O42	O	1.844881	0.422693	0.142789
O43	O	1.453189	-0.188776	-0.680338
O44	O	1.786523	0.144557	-0.347005
O45	O	2.119856	0.477891	-0.013671
O46	O	1.452935	-0.316830	-0.405369
O47	O	1.786268	0.016503	-0.072036
O48	O	2.119601	0.349836	0.261297
O49	O	1.334480	-0.316809	-0.523835
O50	O	1.667814	0.016524	-0.190502
O51	O	2.001147	0.349857	0.142831
C52	C	1.143242	-0.216391	-0.464657
C53	C	1.476576	0.116942	-0.131323
C54	C	1.809909	0.450276	0.202010
C55	C	1.036028	-0.216399	-0.464665
C56	C	1.369362	0.116934	-0.131332
C57	C	1.702695	0.450268	0.202001
C58	C	0.948959	-0.216400	-0.464681
C59	C	1.282292	0.116933	-0.131348
C60	C	1.615625	0.450266	0.201985
C61	C	0.839726	-0.216404	-0.464711
C62	C	1.173059	0.116930	-0.131377
C63	C	1.506393	0.450263	0.201956
C64	C	1.393709	-0.333120	-0.464609
C65	C	1.727043	0.000213	-0.131276
C66	C	2.060376	0.333546	0.202058
C67	C	1.393735	-0.383055	-0.464607
C68	C	1.727068	-0.049722	-0.131273
C69	C	2.060401	0.283612	0.202060
C70	C	1.455551	-0.692656	-0.526480
C71	C	1.788885	-0.359323	-0.193147
C72	C	2.122218	-0.025989	0.140186
C73	C	1.455656	-0.880329	-0.526538
C74	C	1.788989	-0.546996	-0.193205
C75	C	2.122323	-0.213662	0.140128
O76	O	1.508070	-0.904558	-0.579085
O77	O	1.841404	-0.571224	-0.245752
O78	O	2.174737	-0.237891	0.087581
N79	N	1.394020	-0.903840	-0.464797
N80	N	1.727354	-0.570507	-0.131464
N81	N	2.060687	-0.237173	0.201869
C82	C	1.332350	-0.880430	-0.403042
C83	C	1.665683	-0.547096	-0.069709
C84	C	1.999016	-0.213763	0.263625
O85	O	1.279920	-0.904734	-0.350536
O86	O	1.613254	-0.571400	-0.017203
O87	O	1.946587	-0.238067	0.316131
C88	C	1.332241	-0.692758	-0.402990
C89	C	1.665574	-0.359424	-0.069656
C90	C	1.998908	-0.026091	0.263677
C91	C	1.393887	-0.669249	-0.464728
C92	C	1.727221	-0.335916	-0.131394
C93	C	2.060554	-0.002582	0.201939
C94	C	1.517192	-0.669147	-0.588214
C95	C	1.850525	-0.335814	-0.254881
C96	C	2.183859	-0.002481	0.078452
C97	C	1.517169	-0.622232	-0.588195
C98	C	1.850502	-0.288899	-0.254862
C99	C	2.183836	0.044435	0.078471
C100	C	1.455505	-0.598825	-0.526443
C101	C	1.788838	-0.265492	-0.193109
C102	C	2.122172	0.067842	0.140224
C103	C	1.393864	-0.622334	-0.464709
C104	C	1.727198	-0.289000	-0.131376
C105	C	2.060531	0.044333	0.201958
C106	C	1.270566	-0.669348	-0.341240
C107	C	1.603899	-0.336015	-0.007907
C108	C	1.937233	-0.002682	0.325427
C109	C	1.270543	-0.622427	-0.341234
C110	C	1.603876	-0.289094	-0.007901
C111	C	1.937209	0.044239	0.325433
C112	C	1.332189	-0.598919	-0.402972
C113	C	1.665523	-0.265585	-0.069639
C114	C	1.998856	0.067748	0.263695
C115	C	1.332177	-0.552011	-0.402937
C116	C	1.665511	-0.218678	-0.069604
C117	C	1.998844	0.114655	0.263729
N118	N	1.393813	-0.528500	-0.464678
N119	N	1.727146	-0.195167	-0.131345
N120	N	2.060480	0.138166	0.201988
C121	C	1.455477	-0.551907	-0.526431
C122	C	1.788810	-0.218574	-0.193098
C123	C	2.122144	0.114759	0.140236
C124	C	1.332413	-0.978960	-0.403073
C125	C	1.665746	-0.645627	-0.069739
C126	C	1.999079	-0.312294	0.263594
C127	C	1.332441	-1.025878	-0.403084
C128	C	1.665774	-0.692545	-0.069751
C129	C	1.999108	-0.359212	0.263582
C130	C	1.455746	-1.025774	-0.526582
C131	C	1.789079	-0.692441	-0.193249
C132	C	2.122413	-0.359107	0.140085
C133	C	1.455722	-0.978855	-0.526565
C134	C	1.789055	-0.645522	-0.193232
C135	C	2.122389	-0.312189	0.140102
C136	C	1.394048	-0.955449	-0.464814
C137	C	1.727382	-0.622116	-0.131480
C138	C	2.060715	-0.288783	0.201853
C139	C	1.455424	-0.453381	-0.526386
C140	C	1.788758	-0.120048	-0.193053
C141	C	2.122091	0.213285	0.140280
C142	C	1.455399	-0.406462	-0.526359
C143	C	1.788732	-0.073128	-0.193026
C144	C	2.122065	0.260205	0.140307
C145	C	1.332090	-0.406570	-0.402865
C146	C	1.665424	-0.073237	-0.069532
C147	C	1.998757	0.260097	0.263801
C148	C	1.332119	-0.453485	-0.402888
C149	C	1.665452	-0.120152	-0.069555
C150	C	1.998786	0.213181	0.263778
C151	C	1.393789	-0.476890	-0.464657
C152	C	1.727123	-0.143557	-0.131323
C153	C	2.060456	0.189777	0.202010
O154	O	1.279783	-0.527754	-0.350426
O155	O	1.613116	-0.194420	-0.017092
O156	O	1.946450	0.138913	0.316241
O157	O	1.507883	-0.527595	-0.578944
O158	O	1.841217	-0.194262	-0.245611
O159	O	2.174550	0.139071	0.087722
C160	C	1.455574	-0.739571	-0.526499
C161	C	1.788908	-0.406238	-0.193166
C162	C	2.122241	-0.072905	0.140167
C163	C	1.393934	-0.763080	-0.464765
C164	C	1.727267	-0.429747	-0.131432
C165	C	2.060600	-0.096413	0.201901
C166	C	1.332270	-0.739673	-0.403013
C167	C	1.665603	-0.406340	-0.069679
C168	C	1.998936	-0.073006	0.263654
C169	C	1.393962	-0.809998	-0.464777
C170	C	1.727295	-0.476664	-0.131444
C171	C	2.060629	-0.143331	0.201890
C172	C	1.455626	-0.833405	-0.526530
C173	C	1.788959	-0.500071	-0.193196
C174	C	2.122292	-0.166738	0.140137
C175	C	1.517261	-0.809894	-0.588271
C176	C	1.850595	-0.476560	-0.254937
C177	C	2.183928	-0.143227	0.078396
C178	C	1.517238	-0.762978	-0.588252
C179	C	1.850571	-0.429645	-0.254919
C180	C	2.183905	-0.096312	0.078415
C181	C	1.270634	-0.763184	-0.341272
C182	C	1.603968	-0.429851	-0.007938
C183	C	1.937301	-0.096517	0.325395
C184	C	1.270663	-0.810100	-0.341295
C185	C	1.603996	-0.476766	-0.007962
C186	C	1.937330	-0.143433	0.325372
C187	C	1.332327	-0.833506	-0.403048
C188	C	1.665660	-0.500173	-0.069714
C189	C	1.998994	-0.166840	0.263619
C190	C	1.645449	-0.216405	-0.464725
C191	C	1.978783	0.116928	-0.131391
C192	C	2.312116	0.450262	0.201942
C193	C	1.752663	-0.216408	-0.464739
C194	C	2.085997	0.116925	-0.131406
C195	C	2.419330	0.450258	0.201927
C196	C	1.393916	-0.216360	-0.716284
C197	C	1.727249	0.116973	-0.382950
C198	C	2.060582	0.450306	-0.049617
C199	C	1.393941	-0.216344	-0.823498
C200	C	1.727274	0.116989	-0.490164
C201	C	2.060607	0.450323	-0.156831
C202	C	1.394031	-0.099220	-0.464793
C203	C	1.727364	0.234114	-0.131460
C204	C	2.060697	0.567447	0.201874
C205	C	1.394105	-0.049285	-0.464837
C206	C	1.727438	0.284048	-0.131504
C207	C	2.060771	0.617382	0.201830
C208	C	1.393961	-0.216331	-0.910567
C209	C	1.727294	0.117002	-0.577234
C210	C	2.060627	0.450335	-0.243901
C211	C	1.393988	-0.216311	-1.019800
C212	C	1.727322	0.117022	-0.686467
C213	C	2.060655	0.450356	-0.353133
C214	C	1.393853	-0.216403	-0.214076
C215	C	1.727187	0.116930	0.119257
C216	C	2.060520	0.450264	0.452591
C217	C	1.394015	-0.216293	-0.106863
C218	C	1.727348	0.117041	0.226471
C219	C	2.060682	0.450374	0.559804
H220	H	1.505602	-0.387323	-0.576634
H221	H	1.838935	-0.053989	-0.243300
H222	H	2.172269	0.279344	0.090033
C223	C	1.577303	-0.448553	-0.648459
C224	C	1.910636	-0.115220	-0.315126
C225	C	2.243970	0.218114	0.018208
C226	C	1.523211	-0.479103	-0.594284
C227	C	1.856544	-0.145770	-0.260951
C228	C	2.189878	0.187564	0.072383
H229	H	1.619155	-0.464433	-0.690370
H230	H	1.952488	-0.131100	-0.357036
H231	H	2.285822	0.202233	-0.023703
H232	H	1.535241	-0.430255	-0.685299
H233	H	1.868574	-0.096922	-0.351966
H234	H	2.201907	0.236412	-0.018633
H235	H	1.614210	-0.430256	-0.606445
H236	H	1.947544	-0.096923	-0.273112
H237	H	2.280877	0.236410	0.060221
H238	H	1.486298	-0.497397	-0.636297
H239	H	1.819631	-0.164064	-0.302964
H240	H	2.152964	0.169269	0.030369
H241	H	1.565278	-0.497408	-0.557441
H242	H	1.898612	-0.164075	-0.224108
H243	H	2.231945	0.169258	0.109226
H244	H	1.567406	-0.688200	-0.638506
H245	H	1.900739	-0.354867	-0.305173
H246	H	2.234073	-0.021534	0.028160
H247	H	1.281887	-0.387505	-0.352584
H248	H	1.615220	-0.054171	-0.019251
H249	H	1.948554	0.279162	0.314083
H250	H	1.567474	-0.828960	-0.638549
H251	H	1.900807	-0.495626	-0.305215
H252	H	2.234140	-0.162293	0.028118
H253	H	1.505919	-0.959717	-0.576838
H254	H	1.839253	-0.626384	-0.243504
H255	H	2.172586	-0.293051	0.089829
H256	H	1.220367	-0.688481	-0.290966
H257	H	1.553701	-0.355148	0.042368
H258	H	1.887034	-0.021814	0.375701
C259	C	1.510517	-1.097654	-0.581438
C260	C	1.843850	-0.764320	-0.248104
C261	C	2.177183	-0.430987	0.085229
C262	C	1.523521	-1.051509	-0.594470
C263	C	1.856855	-0.718176	-0.261137
C264	C	2.190188	-0.384842	0.072197
H265	H	1.552348	-1.113542	-0.623355
H266	H	1.885682	-0.780208	-0.290022
H267	H	2.219015	-0.446875	0.043311
H268	H	1.524687	-1.105359	-0.516652
H269	H	1.858021	-0.772025	-0.183319
H270	H	2.191354	-0.438692	0.150014
H271	H	1.445695	-1.105356	-0.595483
H272	H	1.779028	-0.772022	-0.262150
H273	H	2.112362	-0.438689	0.071183
H274	H	1.588342	-1.043806	-0.580417
H275	H	1.921675	-0.710473	-0.247084
H276	H	2.255008	-0.377140	0.086249
H277	H	1.509357	-1.043801	-0.659270
H278	H	1.842691	-0.710467	-0.325937
H279	H	2.176024	-0.377134	0.007397
C280	C	1.210553	-1.021257	-0.281018
C281	C	1.543886	-0.687923	0.052315
C282	C	1.877220	-0.354590	0.385648
C283	C	1.264683	-1.051716	-0.335214
C284	C	1.598016	-0.718382	-0.001881
C285	C	1.931349	-0.385049	0.331453
H286	H	1.168714	-1.037207	-0.239125
H287	H	1.502048	-0.703874	0.094209
H288	H	1.835381	-0.370541	0.427542
H289	H	1.252592	-1.002956	-0.244159
H290	H	1.585926	-0.669623	0.089174
H291	H	1.919259	-0.336289	0.422508
H292	H	1.173630	-1.002954	-0.323020
H293	H	1.506963	-0.669621	0.010314
H294	H	1.840296	-0.336288	0.343647
H295	H	1.301612	-1.070016	-0.293213
H296	H	1.634945	-0.736683	0.040121
H297	H	1.968279	-0.403349	0.373454
H298	H	1.222638	-1.070024	-0.372076
H299	H	1.555972	-0.736691	-0.038743
H300	H	1.889305	-0.403357	0.294591
H301	H	1.220317	-0.603372	-0.290950
H302	H	1.553651	-0.270039	0.042384
H303	H	1.886984	0.063294	0.375717
C304	C	1.639043	-0.626856	-0.710271
C305	C	1.972377	-0.293523	-0.376938
C306	C	2.305710	0.039810	-0.043604
C307	C	1.584925	-0.596395	-0.656069
C308	C	1.918259	-0.263062	-0.322736
C309	C	2.251592	0.070271	0.010598
H310	H	1.680869	-0.610907	-0.752180
H311	H	2.014202	-0.277574	-0.418847
H312	H	2.347536	0.055760	-0.085514
H313	H	1.675971	-0.645155	-0.668282
H314	H	2.009304	-0.311822	-0.334949
H315	H	2.342638	0.021511	-0.001615
H316	H	1.596989	-0.645160	-0.747123
H317	H	1.930322	-0.311826	-0.413790
H318	H	2.263655	0.021507	-0.080456
H319	H	1.626980	-0.578094	-0.619211
H320	H	1.960313	-0.244761	-0.285878
H321	H	2.293647	0.088573	0.047455
H322	H	1.547995	-0.578088	-0.698063
H323	H	1.881328	-0.244755	-0.364730
H324	H	2.214661	0.088578	-0.031397
C325	C	1.148763	-0.805478	-0.219231
C326	C	1.482097	-0.472145	0.114102
C327	C	1.815430	-0.138811	0.447436
C328	C	1.202892	-0.835937	-0.273427
C329	C	1.536225	-0.502604	0.059906
C330	C	1.869559	-0.169270	0.393239
H331	H	1.106918	-0.821429	-0.177344
H332	H	1.440251	-0.488095	0.155990
H333	H	1.773585	-0.154762	0.489323
H334	H	1.190803	-0.787181	-0.182364
H335	H	1.524136	-0.453847	0.150969
H336	H	1.857470	-0.120514	0.484302
H337	H	1.111847	-0.787172	-0.261232
H338	H	1.445180	-0.453839	0.072101
H339	H	1.778514	-0.120506	0.405435
H340	H	1.239814	-0.854240	-0.231426
H341	H	1.573148	-0.520907	0.101907
H342	H	1.906481	-0.187574	0.435240
H343	H	1.160847	-0.854242	-0.310297
H344	H	1.494181	-0.520909	0.023037
H345	H	1.827514	-0.187575	0.356370
C346	C	1.210232	-0.448873	-0.280817
C347	C	1.543566	-0.115540	0.052516
C348	C	1.876899	0.217794	0.385849
C349	C	1.264360	-0.479329	-0.335024
C350	C	1.597693	-0.145996	-0.001691
C351	C	1.931026	0.187338	0.331643
H352	H	1.168391	-0.464826	-0.238930
H353	H	1.501725	-0.131493	0.094403
H354	H	1.835058	0.201840	0.427736
H355	H	1.252273	-0.430577	-0.243950
H356	H	1.585607	-0.097243	0.089383
H357	H	1.918940	0.236090	0.422716
H358	H	1.173312	-0.430566	-0.322812
H359	H	1.506645	-0.097233	0.010521
H360	H	1.839978	0.236100	0.343854
H361	H	1.301286	-0.497633	-0.293029
H362	H	1.634620	-0.164300	0.040304
H363	H	1.967953	0.169033	0.373637
H364	H	1.222314	-0.497633	-0.371894
H365	H	1.555647	-0.164300	-0.038560
H366	H	1.888980	0.169034	0.294773
C367	C	1.639113	-0.767603	-0.710327
C368	C	1.972446	-0.434269	-0.376994
C369	C	2.305779	-0.100936	-0.043660
C370	C	1.584995	-0.737142	-0.656125
C371	C	1.918328	-0.403808	-0.322792
C372	C	2.251661	-0.070475	0.010541
H373	H	1.680939	-0.751653	-0.752236
H374	H	2.014272	-0.418320	-0.418903
H375	H	2.347606	-0.084987	-0.085570
H376	H	1.676040	-0.785902	-0.668338
H377	H	2.009374	-0.452569	-0.335005
H378	H	2.342707	-0.119235	-0.001671
H379	H	1.597058	-0.785906	-0.747179
H380	H	1.930392	-0.452573	-0.413846
H381	H	2.263725	-0.119239	-0.080513
H382	H	1.627049	-0.718840	-0.619267
H383	H	1.960383	-0.385507	-0.285934
H384	H	2.293716	-0.052174	0.047399
H385	H	1.548064	-0.718835	-0.698120
H386	H	1.881398	-0.385501	-0.364786
H387	H	2.214731	-0.052168	-0.031453
C388	C	1.202615	-0.926267	-0.389510
C389	C	1.535949	-0.592934	-0.056176
C390	C	1.869282	-0.259600	0.277157
C391	C	1.264618	-0.953238	-0.335183
C392	C	1.597951	-0.619904	-0.001849
C393	C	1.931285	-0.286571	0.331484
H394	H	1.160761	-0.910391	-0.347593
H395	H	1.494094	-0.577058	-0.014260
H396	H	1.827428	-0.243725	0.319074
H397	H	1.239312	-0.905547	-0.426263
H398	H	1.572645	-0.572214	-0.092929
H399	H	1.905978	-0.238881	0.240404
H400	H	1.165712	-0.944573	-0.431506
H401	H	1.499045	-0.611240	-0.098173
H402	H	1.832379	-0.277907	0.235160
H403	H	1.301527	-0.934931	-0.293191
H404	H	1.634860	-0.601597	0.040143
H405	H	1.968194	-0.268264	0.373476
H406	H	1.227918	-0.973959	-0.298413
H407	H	1.561251	-0.640626	0.034920
H408	H	1.894585	-0.307293	0.368253
C409	C	1.140851	-0.710486	-0.327706
C410	C	1.474184	-0.377153	0.005628
C411	C	1.807517	-0.043820	0.338961
C412	C	1.202849	-0.737461	-0.273383
C413	C	1.536183	-0.404128	0.059950
C414	C	1.869516	-0.070794	0.393283
H415	H	1.099000	-0.694610	-0.285786
H416	H	1.432333	-0.361277	0.047547
H417	H	1.765666	-0.027944	0.380880
H418	H	1.177550	-0.689767	-0.364457
H419	H	1.510883	-0.356434	-0.031123
H420	H	1.844217	-0.023101	0.302210
H421	H	1.103943	-0.728790	-0.369704
H422	H	1.437277	-0.395457	-0.036371
H423	H	1.770610	-0.062124	0.296962
H424	H	1.239762	-0.719157	-0.231389
H425	H	1.573095	-0.385823	0.101944
H426	H	1.906429	-0.052490	0.435277
H427	H	1.166146	-0.758182	-0.236616
H428	H	1.499479	-0.424849	0.096717
H429	H	1.832813	-0.091516	0.430051
