data_functionalizedCrystal
_audit_creation_method	'MofGen! by Chris Wilmer'
_symmetry_space_group_name_H-M	'P1'
_symmetry_Int_Tables_number	1
_symmetry_cell_setting	triclinic
loop_
_symmetry_equiv_pos_as_xyz
  x,y,z
_cell_length_a	14.971486
_cell_length_b	14.853559
_cell_length_c	13.448316
_cell_angle_alpha	89.995590
_cell_angle_beta	89.998199
_cell_angle_gamma	83.622791
loop_
_atom_site_label
_atom_site_type_symbol
_atom_site_fract_x
_atom_site_fract_y
_atom_site_fract_z
O1	O	1.186965	0.117488	-0.082573
O2	O	0.926567	0.131558	-0.082599
O3	O	1.063726	-0.006709	-0.082584
O4	O	1.049807	0.255754	-0.082588
O5	O	1.063708	-0.006717	0.082800
O6	O	0.926550	0.131549	0.082785
O7	O	1.186948	0.117480	0.082811
Cu8	Cu	1.056747	0.124514	0.097899
Cu9	Cu	1.056768	0.124524	-0.097687
O10	O	1.049789	0.255746	0.082796
C11	C	0.893234	0.130924	0.000089
C12	C	0.793936	0.129039	0.000079
C13	C	1.063088	-0.040302	0.000106
C14	C	1.061202	-0.140385	0.000100
C15	C	0.736723	0.210266	0.000079
C16	C	0.643424	0.208489	0.000094
C17	C	0.607339	0.125484	0.000102
C18	C	0.664559	0.044250	0.000104
C19	C	0.757857	0.046028	0.000097
C20	C	0.470096	0.040550	0.000118
C21	C	0.376792	0.038771	0.000124
C22	C	0.355663	0.203011	0.000116
C23	C	0.448960	0.204789	0.000108
C24	C	0.506174	0.123555	0.000109
C25	C	1.053211	-0.563554	-0.090051
C26	C	1.053192	-0.563558	0.090256
C27	C	1.054971	-0.469525	0.090257
C28	C	1.055869	-0.422502	0.000103
C29	C	1.054988	-0.469512	-0.090053
C30	C	1.055844	-0.422507	0.180412
C31	C	1.057622	-0.328468	0.180416
C32	C	1.058526	-0.281444	0.090260
C33	C	1.057646	-0.328460	0.000101
C34	C	1.058544	-0.281437	-0.090054
C35	C	1.057670	-0.328452	-0.180214
C36	C	1.055892	-0.422488	-0.180209
C37	C	1.060304	-0.187408	0.090255
C38	C	1.060320	-0.187395	-0.090056
C39	C	1.220281	0.118113	0.000121
C40	C	1.319579	0.119999	0.000124
C41	C	1.050427	0.289339	0.000104
C42	C	1.052313	0.389423	0.000103
N43	N	1.056739	0.124506	0.235463
N44	N	1.056783	0.124524	-0.235251
C45	C	1.117492	0.063307	0.287510
C46	C	1.117498	0.063306	0.391613
C47	C	1.056754	0.124510	0.443668
C48	C	0.995995	0.185712	0.391613
C49	C	0.995986	0.185707	0.287512
C50	C	0.996020	0.185718	0.608594
C51	C	0.996030	0.185723	0.712702
C52	C	1.117532	0.063317	0.712695
C53	C	1.117523	0.063312	0.608593
C54	C	1.056764	0.124516	0.556546
H55	H	0.766096	0.277859	0.000073
H56	H	0.946565	0.235561	0.755079
H57	H	0.596844	0.274633	0.000093
H58	H	0.635172	-0.023335	0.000125
H59	H	0.804440	-0.020116	0.000096
H60	H	1.166989	0.013480	0.566211
H61	H	0.309074	0.269155	0.000120
H62	H	1.055108	-0.460800	0.253811
H63	H	1.060996	-0.149130	0.163662
H64	H	1.166960	0.013472	0.245134
H65	H	1.055179	-0.460776	-0.253613
H66	H	0.478337	0.272380	0.000093
H67	H	0.347415	-0.028819	0.000131
H68	H	0.946514	0.235541	0.245136
H69	H	1.061056	-0.149116	-0.163472
H70	H	1.052503	-0.601839	-0.163458
H71	H	0.946532	0.235542	0.434002
H72	H	1.167003	0.013483	0.755078
H73	H	0.946541	0.235553	0.566220
H74	H	1.058337	-0.290197	0.253830
H75	H	0.516678	-0.025600	0.000120
H76	H	1.166967	0.013473	0.433990
H77	H	1.058394	-0.290153	-0.253618
H78	H	1.052455	-0.601849	0.163656
