data_functionalizedCrystal
_audit_creation_method	'MofGen! by Chris Wilmer'
_symmetry_space_group_name_H-M	'P1'
_symmetry_Int_Tables_number	1
_symmetry_cell_setting	triclinic
loop_
_symmetry_equiv_pos_as_xyz
  x,y,z
_cell_length_a	10.654550
_cell_length_b	12.376457
_cell_length_c	13.339070
_cell_angle_alpha	75.601917
_cell_angle_beta	100.057112
_cell_angle_gamma	101.400588
loop_
_atom_site_label
_atom_site_type_symbol
_atom_site_fract_x
_atom_site_fract_y
_atom_site_fract_z
O1	O	1.733288	0.093914	0.123185
O2	O	1.372395	0.093934	0.136751
O3	O	1.511422	0.093923	-0.017586
O4	O	1.594261	0.093925	0.277522
O5	O	1.476664	-0.094087	0.020946
O6	O	1.337637	-0.094076	0.175283
O7	O	1.698530	-0.094096	0.161717
Zn8	Zn	1.512565	-0.123936	0.174617
Zn9	Zn	1.558360	0.123774	0.123851
O10	O	1.559503	-0.094085	0.316054
C11	C	1.307882	-0.000068	0.155020
C12	C	1.167434	-0.000060	0.152037
C13	C	1.118631	-0.000063	0.242910
C14	C	0.986659	-0.000083	0.240107
C15	C	0.952303	-0.000092	0.055549
C16	C	1.084271	-0.000081	0.058355
N17	N	1.481320	-0.292992	0.209264
C18	C	1.662135	-0.647991	0.008751
C19	C	1.683996	-0.529653	-0.015498
C20	C	1.633329	-0.470482	0.040690
C21	C	1.560797	-0.529661	0.121132
C22	C	1.538942	-0.648010	0.145389
C23	C	1.510135	-0.470501	0.177328
C24	C	1.437604	-0.529680	0.257770
C25	C	1.415751	-0.648018	0.282022
C26	C	1.466419	-0.707189	0.225834
C27	C	1.531990	-0.352152	0.153071
C28	C	1.408797	-0.352171	0.289709
C29	C	1.386936	-0.470509	0.313958
C30	C	1.763043	-0.000091	0.143447
C31	C	1.903493	-0.000092	0.146429
C32	C	1.480050	-0.000080	-0.036108
C33	C	1.438342	-0.000073	-0.148704
N34	N	1.589612	0.292830	0.089196
C35	C	1.762653	-0.000092	-0.511217
C36	C	1.801843	-0.000104	-0.405427
C37	C	1.710971	-0.000096	-0.341241
C38	C	1.580902	-0.000076	-0.382856
C39	C	1.541706	-0.000072	-0.488655
C40	C	1.490025	-0.000076	-0.318678
C41	C	1.359956	-0.000056	-0.360293
C42	C	1.320767	-0.000051	-0.466082
C43	C	1.411639	-0.000060	-0.530268
C44	C	1.529220	-0.000080	-0.212880
C45	C	1.308274	-0.000061	-0.190317
C46	C	1.269084	-0.000048	-0.296107
C47	C	1.590875	-0.000080	0.334575
C48	C	1.632585	-0.000079	0.447170
H49	H	1.591046	-0.303979	0.087575
H50	H	1.356704	-0.696201	0.347531
H51	H	1.651131	-0.374126	0.020942
C52	C	1.037068	-0.000079	-0.124365
C53	C	1.137925	-0.000073	-0.041542
H54	H	1.070196	-0.000070	-0.186033
H55	H	0.974203	-0.065642	-0.108187
H56	H	0.998418	0.065485	-0.135055
H57	H	1.176568	-0.065641	-0.030847
H58	H	1.200812	0.065497	-0.057723
C59	C	1.218300	-0.315762	0.340174
C60	C	1.353096	-0.287143	0.351479
H61	H	1.183922	-0.275615	0.378312
H62	H	1.184641	-0.296368	0.268423
H63	H	1.194921	-0.394713	0.366137
H64	H	1.376475	-0.208192	0.325509
H65	H	1.386767	-0.306529	0.423245
H66	H	1.327879	-0.518707	0.379456
H67	H	1.635123	-0.000097	-0.179008
C68	C	1.086569	0.096627	-0.329267
C69	C	1.126114	-0.000029	-0.341860
H70	H	0.998309	0.096640	-0.357520
H71	H	1.096892	0.096614	-0.257083
H72	H	1.137677	0.162178	-0.364675
H73	H	1.075012	-0.065580	-0.306445
H74	H	1.115780	-0.000027	-0.414057
H75	H	1.214855	-0.000043	-0.499959
C76	C	1.800652	-0.000099	-0.683412
C77	C	1.862527	-0.000104	-0.581769
H78	H	1.862320	-0.000102	-0.726968
H79	H	1.736725	-0.065653	-0.682668
H80	H	1.760968	0.065474	-0.709539
H81	H	1.902203	-0.065682	-0.555639
H82	H	1.926478	0.065456	-0.582509
C83	C	1.033886	-0.000054	0.422810
C84	C	0.933017	-0.000077	0.339997
H85	H	1.000769	-0.000045	0.484478
H86	H	1.072535	-0.065608	0.433507
H87	H	1.096752	0.065519	0.406614
H88	H	0.870156	-0.065655	0.356190
H89	H	0.894348	0.065483	0.329300
C90	C	1.803560	-0.541531	-0.148122
C91	C	1.763709	-0.464608	-0.103921
H92	H	1.852766	-0.501371	-0.202718
H93	H	1.855030	-0.587680	-0.096111
H94	H	1.729905	-0.587698	-0.175529
H95	H	1.837365	-0.418446	-0.076507
H96	H	1.712238	-0.418440	-0.155941
H97	H	1.742888	-0.000107	-0.255103
C98	C	1.277467	-0.096677	-0.655880
C99	C	1.368551	-0.000040	-0.646559
H100	H	1.250864	-0.096657	-0.727675
H101	H	1.315016	-0.162234	-0.622697
H102	H	1.204739	-0.096666	-0.623604
H103	H	1.441284	-0.000055	-0.678828
H104	H	1.331003	0.065533	-0.679756
H105	H	1.703390	-0.696176	-0.036985
C106	C	0.734750	-0.000103	-0.030703
C107	C	0.860889	-0.000100	-0.047426
H108	H	0.678321	-0.000098	-0.094280
H109	H	0.708075	-0.065663	0.020181
H110	H	0.732307	0.065464	-0.006684
H111	H	0.863334	-0.065671	-0.071438
H112	H	0.887572	0.065467	-0.098327
C113	C	1.502186	-0.876704	0.186186
C114	C	1.442398	-0.837273	0.252496
H115	H	1.487364	-0.957013	0.202652
H116	H	1.467312	-0.849941	0.115766
H117	H	1.592435	-0.849913	0.195185
H118	H	1.352147	-0.864057	0.243491
H119	H	1.477267	-0.864048	0.322933
H120	H	1.234277	-0.000059	-0.138055
H121	H	1.186338	-0.000055	0.319194
H122	H	1.907744	-0.000123	-0.371552
