data_functionalizedCrystal
_audit_creation_method	'MofGen! by Chris Wilmer'
_symmetry_space_group_name_H-M	'P1'
_symmetry_Int_Tables_number	1
_symmetry_cell_setting	triclinic
loop_
_symmetry_equiv_pos_as_xyz
  x,y,z
_cell_length_a	19.377372
_cell_length_b	14.560438
_cell_length_c	14.560438
_cell_angle_alpha	60.001579
_cell_angle_beta	90.000569
_cell_angle_gamma	72.112912
loop_
_atom_site_label
_atom_site_type_symbol
_atom_site_fract_x
_atom_site_fract_y
_atom_site_fract_z
Zr1	Zr	0.580561	1.278707	-0.257223
O2	O	0.484333	1.424986	-0.381206
O3	O	0.610060	1.101000	-0.219219
O4	O	0.610058	1.292599	-0.410817
O5	O	0.484336	1.233388	-0.038469
O6	O	0.709233	1.339309	-0.434172
O7	O	0.484335	1.233387	-0.189608
O8	O	0.709236	0.996573	-0.091437
O9	O	0.484333	1.576124	-0.381203
O10	O	0.696654	1.220592	-0.220436
O11	O	0.622642	1.185735	-0.090214
O12	O	0.622640	1.411318	-0.315796
O13	O	0.548629	1.376460	-0.185573
Zr14	Zr	0.738736	1.353205	-0.053423
Zr15	Zr	0.738733	1.353203	-0.294472
Zr16	Zr	0.580564	1.278709	-0.016174
Zr17	Zr	0.580561	1.519755	-0.257219
Zr18	Zr	0.738735	1.112157	-0.053427
O19	O	0.709237	1.530912	-0.091427
O20	O	0.709233	1.530910	-0.434168
O21	O	0.484336	1.424989	-0.038465
O22	O	0.834964	1.206927	0.070560
O23	O	0.834960	1.206924	-0.272181
O24	O	0.610064	1.101003	0.123522
O25	O	0.834961	1.398525	-0.272177
O26	O	0.709238	1.339313	0.100171
O27	O	0.610064	1.292604	0.123526
O28	O	0.834962	1.398526	-0.121038
O29	O	0.610059	1.635338	-0.410811
O30	O	0.709238	0.996574	0.100165
O31	O	0.834964	1.055789	0.070557
O32	O	0.834962	1.055787	-0.121045
O33	O	0.484335	1.576126	-0.189601
O34	O	0.610061	1.635340	-0.219209
O35	O	0.696656	1.220594	0.005150
O36	O	0.770668	1.255452	-0.125073
O37	O	0.696654	1.446178	-0.220432
O38	O	0.622643	1.411320	-0.090210
C39	C	0.659648	1.014442	-0.155329
C40	C	0.659648	0.912111	-0.155330
C41	C	0.698280	0.882230	-0.223305
C42	C	0.698283	0.786072	-0.223295
C43	C	0.621016	0.749686	-0.087333
C44	C	0.621018	0.845838	-0.087338
C45	C	0.461799	1.222773	-0.108731
C46	C	0.394651	1.191148	-0.092918
C47	C	-0.019358	1.584908	-0.289797
C48	C	-0.082444	1.555165	-0.274924
C49	C	-0.005170	1.356062	-0.175376
C50	C	0.057924	1.385788	-0.190236
C51	C	0.050823	1.500213	-0.247449
C52	C	0.128105	1.301094	-0.147888
C53	C	0.191193	1.330818	-0.162751
C54	C	0.184100	1.445238	-0.219964
C55	C	0.113911	1.529938	-0.262313
C56	C	0.135204	1.186669	-0.090682
C57	C	0.205386	1.101975	-0.048333
C58	C	0.268475	1.131699	-0.063190
C59	C	0.261382	1.246118	-0.120403
C60	C	0.338664	1.046998	-0.020842
C61	C	0.401752	1.076723	-0.035706
C62	C	0.324470	1.275842	-0.135267
C63	C	0.857497	1.409139	-0.201915
C64	C	0.924646	1.440765	-0.217728
C65	C	0.659645	1.315954	-0.456839
C66	C	0.659644	1.315953	-0.559170
C67	C	0.659649	1.617470	-0.155317
C68	C	0.659649	1.719801	-0.155316
C69	C	0.605013	1.290225	-0.690544
C70	C	0.605010	1.290218	-0.594388
C71	C	0.714289	1.341686	-0.620108
C72	C	0.714295	1.341685	-0.716258
C73	C	0.659651	1.315959	0.146193
C74	C	0.659652	1.315960	0.248524
C75	C	0.857497	1.107625	-0.201920
C76	C	0.924645	1.036920	-0.217735
C77	C	0.659651	1.014445	0.146187
C78	C	0.659652	0.912114	0.248517
C79	C	0.857500	1.107628	0.099595
C80	C	0.924649	1.036923	0.186112
C81	C	0.461797	1.524285	-0.410241
C82	C	0.394648	1.594990	-0.496758
C83	C	0.461800	1.524287	-0.108726
C84	C	0.394652	1.594993	-0.092911
C85	C	0.659646	1.617468	-0.456833
C86	C	0.659645	1.719798	-0.559163
C87	C	0.917544	0.985519	-0.274951
C88	C	0.980631	0.919094	-0.289832
C89	C	1.050818	0.904065	-0.247489
C90	C	1.057917	0.955474	-0.190271
C91	C	0.994831	1.021904	-0.175398
C92	C	0.994823	1.021918	0.158765
C93	C	1.057923	0.955499	0.240046
C94	C	1.050847	0.904081	0.348674
C95	C	0.980666	0.919092	0.376021
C96	C	0.917568	0.985516	0.294740
C97	C	0.324474	1.610006	-0.469411
C98	C	0.261374	1.676455	-0.550692
C99	C	0.268450	1.727878	-0.659320
C100	C	0.338631	1.712861	-0.686667
C101	C	0.401729	1.646420	-0.605386
C102	C	0.401753	1.646403	-0.035705
C103	C	0.338666	1.712855	-0.020851
C104	C	0.268479	1.727888	-0.063197
C105	C	0.261379	1.676474	-0.120410
C106	C	0.324465	1.610031	-0.135270
C107	C	0.698286	0.882234	0.346371
C108	C	0.698279	0.786088	0.442519
C109	C	0.621001	0.749709	0.342945
C110	C	0.621005	0.845858	0.246801
H111	H	0.589564	0.695716	-0.031978
C112	C	0.740783	0.955125	0.348261
H113	H	0.763784	0.923563	0.420315
H114	H	0.777346	0.956590	0.304596
H115	H	0.707428	1.030196	0.321059
H116	H	1.115062	0.943286	0.217761
H117	H	0.589559	0.870164	-0.031980
H118	H	1.000598	1.063776	0.070320
H119	H	0.344383	1.754739	-0.775121
H120	H	0.235472	1.469437	-0.232067
C121	C	0.316668	1.401707	-0.198318
H122	H	0.364294	1.407274	-0.201135
H123	H	0.290457	1.437638	-0.269585
H124	H	0.290451	1.437850	-0.163149
H125	H	0.729736	0.936187	-0.278667
C126	C	0.002634	1.230204	-0.112442
H127	H	-0.044990	1.224629	-0.109648
H128	H	0.028852	1.194159	-0.147684
H129	H	0.028847	1.194179	-0.041151
C130	C	0.478954	0.983567	0.010874
H131	H	0.515509	1.017660	-0.006183
H132	H	0.484497	0.937788	0.087031
H133	H	0.484490	0.937789	-0.019513
C134	C	0.840379	1.002008	0.324829
H135	H	0.803807	1.048935	0.260872
H136	H	0.834858	0.930367	0.366089
H137	H	0.834848	1.036916	0.366084
C138	C	0.840345	1.002046	-0.321536
H139	H	0.803783	1.048963	-0.304484
H140	H	0.834811	1.036954	-0.397693
H141	H	0.834812	0.930408	-0.291158
H142	H	1.000624	1.063747	-0.128802
H143	H	0.108127	1.623114	-0.308868
H144	H	1.102232	0.849997	0.414847
H145	H	-0.025142	1.678084	-0.336352
H146	H	0.318698	1.568136	-0.380966
C147	C	0.740780	0.753219	0.550153
H148	H	0.763800	0.806448	0.537399
H149	H	0.707435	0.753277	0.597963
H150	H	0.777340	0.679657	0.581494
C151	C	0.478916	1.629894	-0.635481
H152	H	0.474087	1.670029	-0.711817
H153	H	0.505151	1.657991	-0.606602
H154	H	0.505127	1.551462	-0.606609
H155	H	0.589541	0.870186	0.167119
H156	H	0.974836	0.877242	-0.336422
H157	H	-0.139590	1.624142	-0.309417
H158	H	0.458897	1.634170	-0.001212
C159	C	0.972892	0.862515	0.495512
H160	H	1.020525	0.820798	0.539993
H161	H	0.946678	0.919175	0.510145
H162	H	0.946687	0.812641	0.510120
H163	H	0.344461	1.754707	0.025740
C164	C	0.199091	1.800973	-0.046840
H165	H	0.213379	1.829426	-0.006695
H166	H	0.170544	1.862554	-0.115125
H167	H	0.170549	1.756013	-0.008582
C168	C	0.774386	1.369992	-0.581370
H169	H	0.766554	1.366318	-0.515386
H170	H	0.821554	1.316877	-0.570566
H171	H	0.772115	1.444264	-0.634263
C172	C	0.184184	1.692950	-0.520593
H173	H	0.189013	1.652789	-0.444257
H174	H	0.157961	1.771371	-0.549457
H175	H	0.157964	1.664840	-0.549482
H176	H	1.102180	0.849969	-0.259607
H177	H	0.083832	1.162472	-0.078590
H178	H	0.729741	0.761745	-0.278645
C179	C	0.213189	0.976116	0.014601
H180	H	0.165565	0.970541	0.017395
H181	H	0.239408	0.940072	-0.020641
H182	H	0.239402	0.940092	0.085891
H183	H	0.204225	1.688725	-0.154884
C184	C	0.544902	1.261927	-0.527371
H185	H	0.552726	1.265602	-0.465058
H186	H	0.497740	1.315050	-0.569695
H187	H	0.547167	1.187657	-0.505996
C188	C	0.346466	0.921141	0.042083
H189	H	0.298841	0.915569	0.044872
H190	H	0.372684	0.885102	0.006836
H191	H	0.372678	0.885108	0.113376
H192	H	0.217065	1.781975	-0.725493
H193	H	0.560521	1.269276	-0.719214
C194	C	0.316645	1.553469	-0.198182
H195	H	0.265807	1.571933	-0.221258
H196	H	0.339647	1.580046	-0.259321
H197	H	0.339643	1.473523	-0.152766
H198	H	0.758792	1.362638	-0.765872
C199	C	0.578503	0.676816	0.341063
H200	H	0.584040	0.615266	0.412336
H201	H	0.527675	0.721900	0.313082
H202	H	0.597589	0.648291	0.296617
H203	H	1.115072	0.943227	-0.155800
