data_functionalizedCrystal
_audit_creation_method	'MofGen! by Chris Wilmer'
_symmetry_space_group_name_H-M	'P1'
_symmetry_Int_Tables_number	1
_symmetry_cell_setting	triclinic
loop_
_symmetry_equiv_pos_as_xyz
  x,y,z
_cell_length_a	21.295420
_cell_length_b	21.295417
_cell_length_c	17.077396
_cell_angle_alpha	89.967856
_cell_angle_beta	89.980351
_cell_angle_gamma	90.025484
loop_
_atom_site_label
_atom_site_type_symbol
_atom_site_fract_x
_atom_site_fract_y
_atom_site_fract_z
Zn1	Zn	0.962328	-0.250680	-0.443826
Zn2	Zn	0.962241	-0.355953	-0.312551
Zn3	Zn	0.857060	-0.250694	-0.312573
Zn4	Zn	0.857022	-0.355908	-0.443775
O5	O	0.909663	-0.303309	-0.378181
O6	O	1.050406	-0.264658	-0.426424
O7	O	0.948268	-0.342015	-0.202707
O8	O	0.871077	-0.162603	-0.330015
O9	O	1.050342	-0.342002	-0.329977
O10	O	0.948417	-0.162593	-0.426445
O11	O	0.870992	-0.264682	-0.202723
O12	O	0.768966	-0.264638	-0.329965
O13	O	0.871012	-0.341924	-0.553628
O14	O	0.768938	-0.341938	-0.426358
O15	O	0.948380	-0.264614	-0.553666
O16	O	0.948231	-0.444036	-0.329928
O17	O	0.870927	-0.444003	-0.426337
C18	C	0.746111	-0.303285	-0.378159
C19	C	0.676143	-0.303289	-0.378168
C20	C	0.176718	-0.263131	-0.428494
C21	C	0.242460	-0.263126	-0.428494
C22	C	0.275304	-0.303328	-0.378200
C23	C	0.242399	-0.343549	-0.327915
C24	C	0.176658	-0.343557	-0.327922
N25	N	0.378499	-0.308075	-0.309466
N26	N	0.440950	-0.308063	-0.309461
C27	C	0.473379	-0.303307	-0.378176
N28	N	0.440996	-0.298550	-0.446898
N29	N	0.378539	-0.298558	-0.446901
C30	C	0.346589	-0.303324	-0.378187
C31	C	0.577561	-0.263087	-0.428461
C32	C	0.643304	-0.263087	-0.428463
C33	C	0.643242	-0.343506	-0.327877
C34	C	0.577500	-0.343509	-0.327882
C35	C	0.544663	-0.303297	-0.378174
C36	C	0.909583	-0.466860	-0.378142
C37	C	0.909606	-0.536828	-0.378151
C38	C	0.949854	-0.569633	-0.428398
C39	C	0.949876	-0.635375	-0.428417
C40	C	0.909657	-0.668311	-0.378176
C41	C	0.869402	-0.635499	-0.327925
C42	C	0.869376	-0.569758	-0.327912
N43	N	0.904902	-0.771574	-0.309477
N44	N	0.904930	-0.834025	-0.309491
C45	C	0.909731	-0.866386	-0.378211
N46	N	0.914514	-0.833935	-0.446918
N47	N	0.914490	-0.771478	-0.446903
C48	C	0.909680	-0.739596	-0.378184
C49	C	0.950005	-0.970475	-0.428483
C50	C	0.950022	-1.036219	-0.428504
C51	C	0.869551	-1.036341	-0.328004
C52	C	0.869530	-0.970599	-0.327991
C53	C	0.909760	-0.937670	-0.378229
C54	C	1.073853	-0.303333	-0.378204
C55	C	1.143821	-0.303344	-0.378214
C56	C	0.909701	-0.303262	-0.582926
C57	C	0.909717	-0.303243	-0.670176
C58	C	0.909761	-0.139118	-0.378238
C59	C	0.909802	-0.069150	-0.378263
C60	C	0.950004	-0.262984	-0.711187
C61	C	0.950012	-0.262963	-0.793167
C62	C	0.909735	-0.303204	-0.834135
C63	C	0.869444	-0.343465	-0.793118
C64	C	0.869434	-0.343482	-0.711139
C65	C	0.869469	-0.343427	-0.963988
C66	C	0.869480	-0.343411	-1.045973
C67	C	0.950047	-0.262908	-1.046016
C68	C	0.950037	-0.262925	-0.964037
C69	C	0.909746	-0.303187	-0.923026
C70	C	0.909661	-0.303309	-0.174233
C71	C	0.909767	-0.303152	-0.086984
H72	H	0.550824	-0.230343	-0.469412
O73	O	0.825974	-0.386902	-0.666909
H74	H	0.854116	-0.418942	-0.629545
H75	H	0.836682	-0.376177	-1.079327
O76	O	0.825966	-0.534370	-0.273712
H77	H	0.854151	-0.504417	-0.233807
O78	O	0.277823	-0.386907	-0.273667
H79	H	0.243900	-0.414875	-0.238706
O80	O	0.542012	-0.386878	-0.273644
H81	H	0.512053	-0.358665	-0.233780
O82	O	0.141176	-0.386927	-0.273678
H83	H	0.111227	-0.418995	-0.308740
O84	O	0.826122	-0.935216	-0.273787
H85	H	0.832858	-0.883969	-0.282223
O86	O	0.993467	-0.219545	-0.837404
H87	H	1.021479	-0.191573	-0.795143
H88	H	0.982645	-0.662089	-0.469344
H89	H	0.836650	-0.376202	-0.930600
H90	H	0.982760	-0.943663	-0.469393
H91	H	0.670088	-0.230342	-0.469413
O92	O	0.993449	-0.219579	-0.667007
H93	H	1.025459	-0.247767	-0.629662
O94	O	0.141300	-0.219764	-0.482739
H95	H	0.175224	-0.191803	-0.517706
H96	H	0.836648	-0.376228	-0.826481
H97	H	0.669982	-0.376244	-0.286932
O98	O	0.993433	-1.071606	-0.482703
H99	H	1.021405	-1.037661	-0.517627
O100	O	0.993480	-0.219523	-0.919850
H101	H	1.025486	-0.247715	-0.882504
O102	O	0.826173	-1.071854	-0.273808
H103	H	0.832955	-1.123080	-0.282253
O104	O	0.993253	-0.534114	-0.482567
H105	H	1.021246	-0.567975	-0.517509
O106	O	0.993500	-0.219475	-1.090242
H107	H	0.986736	-0.226215	-1.154130
O108	O	0.826031	-0.671022	-0.273727
H109	H	0.794004	-0.700990	-0.308824
O110	O	0.277955	-0.219746	-0.482719
H111	H	0.244076	-0.191782	-0.517686
