data_functionalizedCrystal
_audit_creation_method	'MofGen! by Chris Wilmer'
_symmetry_space_group_name_H-M	'P1'
_symmetry_Int_Tables_number	1
_symmetry_cell_setting	triclinic
loop_
_symmetry_equiv_pos_as_xyz
  x,y,z
_cell_length_a	10.654550
_cell_length_b	15.995350
_cell_length_c	9.730223
_cell_angle_alpha	90.000899
_cell_angle_beta	89.996251
_cell_angle_gamma	83.988639
loop_
_atom_site_label
_atom_site_type_symbol
_atom_site_fract_x
_atom_site_fract_y
_atom_site_fract_z
O1	O	1.666298	0.117599	-0.114395
O2	O	1.300673	0.128803	-0.114373
O3	O	1.493480	0.001371	-0.114383
O4	O	1.473491	0.245031	-0.114385
O5	O	1.493478	0.001375	0.114197
O6	O	1.300671	0.128806	0.114207
O7	O	1.666295	0.117602	0.114185
Zn8	Zn	1.483483	0.123205	0.150488
Zn9	Zn	1.483486	0.123200	-0.150676
O10	O	1.473488	0.245034	0.114195
C11	C	1.253885	0.127982	-0.000080
C12	C	1.114473	0.125521	-0.000071
C13	C	1.492652	-0.029827	-0.000096
C14	C	1.490175	-0.122791	-0.000104
C15	C	1.034008	0.200551	-0.000092
C16	C	0.903017	0.198233	-0.000116
C17	C	0.932971	0.045849	-0.000104
C18	C	1.063959	0.048168	-0.000071
C19	C	1.084522	0.277904	-0.000093
C20	C	1.004055	0.352940	-0.000115
C21	C	0.873064	0.350622	-0.000138
C22	C	0.822541	0.273268	-0.000140
C23	C	1.481278	-0.460591	-0.000098
C24	C	1.343964	-0.413954	-0.000603
C25	C	1.346442	-0.317249	-0.000087
C26	C	1.485691	-0.293004	-0.000102
C27	C	1.553417	-0.333687	0.130422
C28	C	1.549968	-0.430342	0.130531
C29	C	1.552807	-0.430688	-0.129407
C30	C	1.552775	-0.333743	-0.131132
C31	C	1.488192	-0.198292	-0.000099
C32	C	1.478780	-0.555303	-0.000092
C33	C	1.713084	0.118423	-0.000111
C34	C	1.852495	0.120884	-0.000129
C35	C	1.474316	0.276232	-0.000095
C36	C	1.476793	0.369197	-0.000097
N37	N	1.483490	0.123207	0.356024
N38	N	1.483488	0.123191	-0.356212
C39	C	1.568886	0.066800	0.427946
C40	C	1.568883	0.066789	0.571829
C41	C	1.398083	0.179602	0.571856
C42	C	1.398081	0.179607	0.427976
C43	C	1.654295	0.010400	0.355994
C44	C	1.739700	-0.046012	0.427915
C45	C	1.739697	-0.046022	0.571798
C46	C	1.654289	0.010379	0.643760
H47	H	1.191179	0.279800	-0.000080
H48	H	1.289082	-0.432806	-0.094203
H49	H	1.045200	0.415918	-0.000102
C50	C	1.654291	0.010365	0.802036
N51	N	1.654299	0.010357	0.921249
H52	H	1.654048	-0.461861	-0.130294
H53	H	1.292844	-0.289694	0.093643
H54	H	1.328548	0.225522	0.630457
H55	H	1.129477	-0.012928	-0.000058
H56	H	1.500580	-0.448929	0.228110
H57	H	0.807551	0.411720	-0.000142
H58	H	0.715878	0.271387	-0.000138
H59	H	0.891824	-0.017129	-0.000128
C60	C	1.654304	0.010404	0.197720
N61	N	1.654309	0.010408	0.078508
C62	C	1.274510	-0.279269	-0.126482
N63	N	1.220321	-0.250665	-0.221683
C64	C	1.833627	-0.108060	0.348755
N65	N	1.904371	-0.154800	0.289133
C66	C	1.304112	0.241640	0.348858
N67	N	1.233320	0.288356	0.289266
H68	H	1.809228	-0.091960	0.630355
C69	C	1.270160	-0.440824	0.125181
N70	N	1.214579	-0.461057	0.219934
C71	C	1.489861	-0.295719	0.261658
N72	N	1.441981	-0.267124	0.360502
C73	C	1.686159	-0.473119	0.138540
N74	N	1.788737	-0.505335	0.144581
C75	C	1.691616	-0.313785	0.136988
N76	N	1.795704	-0.298787	0.141937
H77	H	1.507914	-0.451490	-0.228337
H78	H	1.503258	-0.306783	-0.227690
C79	C	1.689965	-0.312200	-0.141789
N80	N	1.793304	-0.295977	-0.149804
