data_functionalizedCrystal
_audit_creation_method	'MofGen! by Chris Wilmer'
_symmetry_space_group_name_H-M	'P1'
_symmetry_Int_Tables_number	1
_symmetry_cell_setting	triclinic
loop_
_symmetry_equiv_pos_as_xyz
  x,y,z
_cell_length_a	11.792241
_cell_length_b	10.654550
_cell_length_c	9.130313
_cell_angle_alpha	90.000276
_cell_angle_beta	89.995332
_cell_angle_gamma	95.660827
loop_
_atom_site_label
_atom_site_type_symbol
_atom_site_fract_x
_atom_site_fract_y
_atom_site_fract_z
O1	O	0.159420	-1.667388	-0.121691
O2	O	0.659420	-1.167388	0.378309
O3	O	0.174608	-1.301867	-0.121718
O4	O	0.674608	-0.801867	0.378282
O5	O	0.001864	-1.493498	-0.121693
O6	O	0.501864	-0.993498	0.378307
O7	O	0.332164	-1.475758	-0.121715
O8	O	0.832164	-0.975758	0.378285
O9	O	0.001859	-1.493485	0.121906
O10	O	0.501859	-0.993485	0.621906
O11	O	0.174603	-1.301854	0.121881
O12	O	0.674603	-0.801854	0.621881
O13	O	0.159415	-1.667375	0.121908
O14	O	0.659415	-1.167375	0.621908
Cu15	Cu	0.167009	-1.484613	0.144137
Cu16	Cu	0.667009	-0.984613	0.644137
Cu17	Cu	0.167015	-1.484629	-0.143947
Cu18	Cu	0.667015	-0.984629	0.356053
O19	O	0.332159	-1.475744	0.121884
O20	O	0.832159	-0.975744	0.621884
C21	C	-0.040432	-1.492377	0.000106
C22	C	0.459568	-0.992377	0.500106
C23	C	-0.166453	-1.489042	0.000104
C24	C	0.333547	-0.989042	0.500104
C25	C	0.173491	-1.255066	0.000078
C26	C	0.673491	-0.755066	0.500078
C27	C	0.170154	-1.115632	0.000068
C28	C	0.670154	-0.615632	0.500068
N29	N	0.167004	-1.484612	0.346760
N30	N	0.667004	-0.984612	0.846760
C31	C	-0.397180	-1.482908	0.000079
C32	C	0.102820	-0.982908	0.500079
C33	C	-0.268787	-1.486316	0.000093
C34	C	0.231213	-0.986316	0.500093
C35	C	0.374455	-1.476865	0.000082
C36	C	0.874455	-0.976865	0.500082
C37	C	0.500477	-1.480201	0.000074
C38	C	1.000477	-0.980201	0.500074
C39	C	0.160533	-1.714177	0.000109
C40	C	0.660533	-1.214177	0.500109
C41	C	0.163869	-1.853611	0.000109
C42	C	0.663869	-1.353611	0.500109
C43	C	0.271863	-1.035859	0.000066
C44	C	0.771863	-0.535859	0.500066
C45	C	0.268721	-0.904847	0.000092
C46	C	0.768721	-0.404847	0.500092
C47	C	0.062152	-0.933394	0.000116
C48	C	0.562152	-0.433394	0.500116
C49	C	0.065295	-1.064403	0.000101
C50	C	0.565295	-0.564403	0.500101
N51	N	0.167011	-1.484641	-0.346569
N52	N	0.667011	-0.984641	0.153431
C53	C	0.090545	-1.569495	0.423422
C54	C	0.590545	-1.069495	0.923422
C55	C	0.090545	-1.569507	0.576759
C56	C	0.590545	-1.069507	1.076759
C57	C	0.243473	-1.399749	0.576757
C58	C	0.743473	-0.899749	1.076757
C59	C	0.243466	-1.399732	0.423423
C60	C	0.743466	-0.899732	0.923423
H61	H	0.357246	-1.077564	0.000050
H62	H	0.857246	-0.577564	0.500050
H63	H	-0.023220	-0.891668	0.000152
H64	H	0.476780	-0.391668	0.500152
H65	H	-0.017534	-1.129359	0.000107
H66	H	0.482466	-0.629359	0.500107
H67	H	0.028283	-1.638607	0.361007
H68	H	0.528283	-1.138607	0.861007
H69	H	0.028284	-1.638624	0.639174
H70	H	0.528284	-1.138624	1.139174
F71	F	0.376974	-0.819951	0.000091
F72	F	0.876974	-0.319951	0.500091
H73	H	0.305729	-1.330643	0.639192
H74	H	0.805729	-0.830643	1.139192
F75	F	0.324843	-1.309378	0.341827
F76	F	0.824843	-0.809378	0.841827
