data_functionalizedCrystal
_audit_creation_method	'MofGen! by Chris Wilmer'
_symmetry_space_group_name_H-M	'P1'
_symmetry_Int_Tables_number	1
_symmetry_cell_setting	triclinic
loop_
_symmetry_equiv_pos_as_xyz
  x,y,z
_cell_length_a	13.339070
_cell_length_b	10.540539
_cell_length_c	11.804365
_cell_angle_alpha	101.953828
_cell_angle_beta	74.875130
_cell_angle_gamma	100.077393
loop_
_atom_site_label
_atom_site_type_symbol
_atom_site_fract_x
_atom_site_fract_y
_atom_site_fract_z
O1	O	1.367200	0.619505	-0.099049
O2	O	1.072067	0.535766	-0.099045
O3	O	1.226367	0.395225	-0.099046
O4	O	1.212901	0.760047	-0.099049
O5	O	1.185745	0.432172	0.099010
O6	O	1.031446	0.572714	0.099011
O7	O	1.326579	0.656453	0.099007
Cu8	Cu	1.175303	0.617957	0.117093
Cu9	Cu	1.223343	0.574262	-0.117131
O10	O	1.172279	0.796994	0.099007
C11	C	1.013965	0.540095	-0.000017
C12	C	0.901358	0.497931	-0.000015
C13	C	0.538938	0.825770	-0.000037
C14	C	0.644738	0.865388	-0.000042
C15	C	0.708898	0.773527	-0.000035
C16	C	0.667248	0.642042	-0.000023
C17	C	0.561440	0.602418	-0.000028
C18	C	0.731400	0.550175	-0.000026
C19	C	0.689750	0.418690	-0.000014
C20	C	0.583951	0.379073	-0.000018
C21	C	0.519791	0.470934	-0.000025
C22	C	0.837208	0.589799	-0.000021
C23	C	0.859710	0.366447	-0.000012
C24	C	0.753910	0.326829	-0.000007
C25	C	1.205047	0.366051	-0.000020
C26	C	1.202026	0.224072	-0.000026
C27	C	1.086340	0.001099	-0.000469
C28	C	1.089311	0.148845	-0.000023
C29	C	1.233073	0.202001	0.113073
C30	C	1.229207	0.054163	0.113168
C31	C	1.277693	0.012410	-0.112059
C32	C	1.279038	0.159467	-0.113554
C33	C	1.384682	0.652124	-0.000024
C34	C	1.497290	0.694286	-0.000034
C35	C	1.193600	0.826168	-0.000021
C36	C	1.196622	0.968145	-0.000023
N37	N	1.141522	0.648691	0.281834
N38	N	1.257132	0.543521	-0.281872
C39	C	1.338253	0.469692	0.655781
C40	C	1.363807	0.446436	0.531120
C41	C	1.308237	0.496997	0.468792
C42	C	1.227110	0.570820	0.531138
C43	C	1.201559	0.594087	0.655812
C44	C	1.171544	0.621392	0.468823
C45	C	1.090417	0.695214	0.531169
C46	C	1.064869	0.718477	0.655831
C47	C	1.120438	0.667916	0.718159
C48	C	1.197095	0.598125	0.344149
C49	C	1.060402	0.722520	0.344180
C50	C	1.034847	0.745776	0.468842
H51	H	0.433639	0.438683	-0.000020
H52	H	0.550047	0.272006	-0.000022
C53	C	1.054120	0.166328	-0.109543
H54	H	1.055899	0.256854	-0.109421
H55	H	0.984818	0.123707	-0.106750
H56	H	1.099949	0.129221	-0.180035
C57	C	0.708090	0.182200	-0.000008
H58	H	0.635892	0.171764	-0.000020
H59	H	0.715882	0.155686	0.069058
H60	H	0.744220	0.129924	-0.069084
C61	C	1.337278	0.027971	0.120130
H62	H	1.335650	-0.062475	0.120232
H63	H	1.354126	0.077460	0.191192
H64	H	1.388729	0.052756	0.053248
C65	C	0.975648	0.799704	0.724410
H66	H	0.946209	0.826481	0.669439
H67	H	1.002554	0.874625	0.773026
H68	H	0.923127	0.748104	0.773058
H69	H	0.911950	0.291645	-0.000012
H70	H	1.058450	-0.057807	-0.081574
H71	H	1.383495	0.428540	0.706537
C72	C	1.336339	0.471405	0.331667
H73	H	1.392606	0.420187	0.303462
H74	H	1.356576	0.552371	0.303451
H75	H	1.277167	0.425833	0.303489
C76	C	1.387883	-0.014104	-0.113101
H77	H	1.384549	-0.051968	-0.045630
H78	H	1.433652	0.065817	-0.110621
H79	H	1.413417	-0.072552	-0.183687
C80	C	1.343723	0.271379	0.118765
H81	H	1.372034	0.314529	0.052061
H82	H	1.387351	0.208722	0.117718
H83	H	1.340041	0.333712	0.190028
H84	H	1.099630	0.686846	0.819669
H85	H	1.362617	0.210424	-0.120385
H86	H	0.486693	0.900547	-0.000052
H87	H	1.263149	0.538019	0.293398
H88	H	0.968792	0.805885	0.519620
H89	H	0.871108	0.696856	-0.000026
H90	H	1.178130	0.247459	0.197238
H91	H	1.258795	-0.047568	-0.197781
H92	H	1.429860	0.386332	0.480362
C93	C	1.248686	0.175436	-0.226588
H94	H	1.189334	0.221289	-0.204698
H95	H	1.232402	0.091655	-0.270997
H96	H	1.305597	0.223250	-0.273795
H97	H	1.025454	-0.029177	0.080183
H98	H	1.015154	0.763695	0.293434
H99	H	1.171778	0.028072	0.197713
C100	C	0.690544	1.010011	-0.000040
H101	H	0.637180	1.059048	-0.000031
H102	H	0.745520	1.017232	-0.069103
H103	H	0.717177	1.042990	0.069039
C104	C	0.825273	0.817108	-0.000027
H105	H	0.840887	0.908573	-0.000022
H106	H	0.867539	0.771940	-0.069084
H107	H	0.839184	0.797720	0.069058
C108	C	1.008762	0.205943	0.109692
H109	H	0.974100	0.138830	0.154170
H110	H	0.958858	0.240923	0.084479
H111	H	1.043642	0.273292	0.158134
