data_functionalizedCrystal
_audit_creation_method	'MofGen! by Chris Wilmer'
_symmetry_space_group_name_H-M	'P1'
_symmetry_Int_Tables_number	1
_symmetry_cell_setting	triclinic
loop_
_symmetry_equiv_pos_as_xyz
  x,y,z
_cell_length_a	10.540539
_cell_length_b	7.088929
_cell_length_c	8.559649
_cell_angle_alpha	84.655815
_cell_angle_beta	77.152078
_cell_angle_gamma	96.268640
loop_
_atom_site_label
_atom_site_type_symbol
_atom_site_fract_x
_atom_site_fract_y
_atom_site_fract_z
O1	O	1.647732	-0.158890	0.241177
O2	O	1.276098	-0.158912	0.262372
O3	O	1.494656	-0.158897	0.019546
O4	O	1.429173	-0.158905	0.484003
O5	O	1.523872	0.159080	-0.012979
O6	O	1.305313	0.159065	0.229847
O7	O	1.676947	0.159088	0.208652
Cu8	Cu	1.493798	0.188110	0.216279
Cu9	Cu	1.459247	-0.187935	0.254744
O10	O	1.458389	0.159072	0.451478
C11	C	1.243569	0.000073	0.244520
C12	C	1.103118	0.000064	0.239766
C13	C	1.514226	0.000088	-0.056190
C14	C	1.528996	0.000079	-0.233400
N15	N	1.518108	0.452600	0.189224
C16	C	0.938835	0.000810	0.057488
C17	C	1.084881	0.000073	0.062384
C18	C	1.015825	-0.181510	0.343703
C19	C	0.869902	-0.181643	0.337663
C20	C	0.902259	0.179957	0.304284
C21	C	1.049289	0.182337	0.305674
C22	C	1.709476	0.000098	0.226504
C23	C	1.849926	0.000094	0.231259
N24	N	1.434948	-0.452424	0.281787
C25	C	1.438819	0.000083	0.527214
C26	C	1.424047	0.000080	0.704426
H27	H	1.146486	0.130235	-0.018098
N28	N	1.655913	0.000075	-0.336672
N29	N	1.754582	0.000066	-0.278296
H30	H	1.844216	0.000062	-0.351230
N31	N	0.792030	-0.191982	0.498758
N32	N	0.845531	-0.199091	0.615286
H33	H	0.790540	-0.206400	0.729060
N34	N	0.927263	0.164264	-0.047076
N35	N	0.853345	0.282132	0.005240
H36	H	0.845197	0.397611	-0.068595
N37	N	0.895159	-0.161621	-0.013432
N38	N	0.798838	-0.277907	0.063448
H39	H	0.767987	-0.392629	0.013365
H40	H	1.023919	-0.188269	0.474659
N41	N	1.326838	0.445127	0.402122
N42	N	1.310541	0.266422	0.420253
H43	H	1.234188	0.194053	0.505244
H44	H	1.109122	0.316666	0.229573
N45	N	1.626239	0.554998	0.068868
N46	N	1.704422	0.465802	-0.018165
H47	H	1.780789	0.538118	-0.103168
N48	N	1.297157	0.000084	-0.192265
N49	N	1.284932	0.000078	-0.043625
H50	H	1.195314	0.000083	0.029348
H51	H	1.121728	-0.130311	0.008080
N52	N	0.826334	0.181551	0.464845
N53	N	0.852255	0.313564	0.544589
H54	H	0.798627	0.314682	0.657983
H55	H	0.835827	-0.317370	0.288454
H56	H	1.052206	-0.316641	0.298226
H57	H	0.889369	0.317589	0.232800
N58	N	1.063966	0.196075	0.466501
N59	N	1.114555	0.071188	0.535475
H60	H	1.124919	0.080876	0.649067
