data_functionalizedCrystal
_audit_creation_method	'MofGen! by Chris Wilmer'
_symmetry_space_group_name_H-M	'P1'
_symmetry_Int_Tables_number	1
_symmetry_cell_setting	triclinic
loop_
_symmetry_equiv_pos_as_xyz
  x,y,z
_cell_length_a	19.805407
_cell_length_b	15.297327
_cell_length_c	19.805398
_cell_angle_alpha	99.650424
_cell_angle_beta	89.984135
_cell_angle_gamma	99.707092
loop_
_atom_site_label
_atom_site_type_symbol
_atom_site_fract_x
_atom_site_fract_y
_atom_site_fract_z
Zn1	Zn	0.988068	-0.359206	-0.429338
Zn2	Zn	1.321401	-0.025873	-0.096005
Zn3	Zn	1.654734	0.307461	0.237328
Zn4	Zn	0.968400	-0.510071	-0.335730
Zn5	Zn	1.301733	-0.176738	-0.002397
Zn6	Zn	1.635067	0.156595	0.330937
Zn7	Zn	0.874887	-0.359226	-0.316166
Zn8	Zn	1.208220	-0.025893	0.017168
Zn9	Zn	1.541554	0.307440	0.350501
Zn10	Zn	0.855262	-0.510028	-0.448871
Zn11	Zn	1.188595	-0.176695	-0.115538
Zn12	Zn	1.521928	0.156639	0.217796
O13	O	0.921654	-0.434633	-0.382526
O14	O	1.254987	-0.101300	-0.049193
O15	O	1.588321	0.232034	0.284140
O16	O	1.080174	-0.379228	-0.416934
O17	O	1.413507	-0.045895	-0.083601
O18	O	1.746841	0.287438	0.249732
O19	O	0.955978	-0.490088	-0.238421
O20	O	1.289311	-0.156755	0.094912
O21	O	1.622644	0.176578	0.428245
O22	O	0.906345	-0.232975	-0.314816
O23	O	1.239678	0.100358	0.018517
O24	O	1.573012	0.433692	0.351851
O25	O	1.065724	-0.490068	-0.348160
O26	O	1.399058	-0.156735	-0.014827
O27	O	1.732391	0.176598	0.318506
O28	O	0.989499	-0.232960	-0.397964
O29	O	1.322832	0.100373	-0.064630
O30	O	1.656165	0.433707	0.268703
O31	O	0.887274	-0.379263	-0.224048
O32	O	1.220607	-0.045930	0.109286
O33	O	1.553941	0.287404	0.442619
O34	O	0.777568	-0.379221	-0.333756
O35	O	1.110902	-0.045888	-0.000423
O36	O	1.444235	0.287446	0.332911
O37	O	0.872896	-0.489994	-0.540993
O38	O	1.206230	-0.156661	-0.207660
O39	O	1.539563	0.176672	0.125674
O40	O	0.763150	-0.490014	-0.431254
O41	O	1.096483	-0.156681	-0.097921
O42	O	1.429816	0.176653	0.235413
O43	O	0.970469	-0.379186	-0.526643
O44	O	1.303802	-0.045853	-0.193309
O45	O	1.637135	0.287481	0.140024
O46	O	0.936948	-0.636314	-0.367100
O47	O	1.270281	-0.302981	-0.033767
O48	O	1.603614	0.030352	0.299566
O49	O	0.853825	-0.636282	-0.450225
O50	O	1.187159	-0.302949	-0.116891
O51	O	1.520492	0.030384	0.216442
C52	C	0.745800	-0.434616	-0.382502
C53	C	1.079134	-0.101282	-0.049169
C54	C	1.412467	0.232051	0.284165
C55	C	0.670567	-0.434630	-0.382511
C56	C	1.003900	-0.101297	-0.049177
C57	C	1.337233	0.232037	0.284156
C58	C	0.627721	-0.492407	-0.433219
C59	C	0.961054	-0.159073	-0.099886
C60	C	1.294388	0.174260	0.233448
C61	C	0.557032	-0.492408	-0.433229
C62	C	0.890366	-0.159075	-0.099895
C63	C	1.223699	0.174258	0.233438
C64	C	0.529190	-0.434637	-0.382527
C65	C	0.862523	-0.101304	-0.049193
C66	C	1.195857	0.232030	0.284140
C67	C	0.572041	-0.376854	-0.331816
C68	C	0.905375	-0.043520	0.001518
C69	C	1.238708	0.289813	0.334851
C70	C	0.642729	-0.376848	-0.331809
C71	C	0.976063	-0.043515	0.001524
C72	C	1.309396	0.289818	0.334857
C73	C	0.286965	-0.376874	-0.331840
C74	C	0.620299	-0.043540	0.001493
C75	C	0.953632	0.289793	0.334826
C76	C	0.216272	-0.376886	-0.331850
C77	C	0.549605	-0.043552	0.001484
C78	C	0.882939	0.289781	0.334817
C79	C	0.201269	-0.492434	-0.433260
C80	C	0.534602	-0.159100	-0.099927
C81	C	0.867935	0.174233	0.233407
C82	C	0.271956	-0.492428	-0.433254
C83	C	0.605290	-0.159095	-0.099920
C84	C	0.938623	0.174238	0.233413
C85	C	0.314802	-0.434642	-0.382545
C86	C	0.648135	-0.101309	-0.049212
C87	C	0.981469	0.232024	0.284122
C88	C	0.391451	-0.434640	-0.382536
C89	C	0.724784	-0.101307	-0.049203
C90	C	1.058117	0.232027	0.284131
C91	C	0.452542	-0.434643	-0.382532
C92	C	0.785875	-0.101310	-0.049199
C93	C	1.119209	0.232024	0.284134
C94	C	0.891141	-0.669033	-0.412920
C95	C	1.224474	-0.335700	-0.079586
C96	C	1.557808	-0.002367	0.253747
C97	C	0.878149	-0.769311	-0.425945
C98	C	1.211483	-0.435977	-0.092612
C99	C	1.544816	-0.102644	0.240722
C100	C	1.014787	-1.051917	-0.289664
C101	C	1.348120	-0.718584	0.043669
C102	C	1.681454	-0.385251	0.377002
C103	C	1.026993	-0.957702	-0.277423
C104	C	1.360326	-0.624368	0.055910
C105	C	1.693660	-0.291035	0.389244
C106	C	0.989783	-0.910599	-0.314553
C107	C	1.323117	-0.577266	0.018781
C108	C	1.656450	-0.243933	0.352114
C109	C	0.940365	-0.957722	-0.363925
C110	C	1.273698	-0.624388	-0.030592
C111	C	1.607032	-0.291055	0.302741
C112	C	0.928154	-1.051947	-0.376164
C113	C	1.261487	-0.718613	-0.042831
C114	C	1.594821	-0.385280	0.290503
C115	C	0.903151	-0.910629	-0.401052
C116	C	1.236484	-0.577295	-0.067719
C117	C	1.569817	-0.243962	0.265614
C118	C	0.853732	-0.957751	-0.450425
C119	C	1.187066	-0.624418	-0.117092
C120	C	1.520399	-0.291084	0.216242
C121	C	0.841524	-1.051967	-0.462662
C122	C	1.174857	-0.718633	-0.129328
C123	C	1.508191	-0.385300	0.204005
C124	C	0.878733	-1.099069	-0.425532
C125	C	1.212067	-0.765736	-0.092199
C126	C	1.545400	-0.432402	0.241135
C127	C	0.915362	-0.816404	-0.388814
C128	C	1.248695	-0.483070	-0.055480
C129	C	1.582028	-0.149737	0.277853
C130	C	0.828729	-0.816433	-0.475313
C131	C	1.162062	-0.483100	-0.141980
C132	C	1.495395	-0.149766	0.191353
C133	C	0.816523	-0.910649	-0.487554
C134	C	1.149856	-0.577315	-0.154221
C135	C	1.483189	-0.243982	0.179112
C136	C	1.098195	-0.434651	-0.382551
C137	C	1.431528	-0.101318	-0.049218
C138	C	1.764861	0.232016	0.284116
C139	C	1.173426	-0.434659	-0.382561
C140	C	1.506759	-0.101325	-0.049228
C141	C	1.840092	0.232008	0.284105
C142	C	0.921687	-0.434583	-0.559062
C143	C	1.255021	-0.101250	-0.225729
C144	C	1.588354	0.232084	0.107604
C145	C	0.921701	-0.434562	-0.634292
C146	C	1.255035	-0.101228	-0.300958
C147	C	1.588368	0.232105	0.032375
C148	C	0.952305	-0.199317	-0.352029
C149	C	1.285638	0.134016	-0.018695
C150	C	1.618972	0.467349	0.314638
C151	C	0.965366	-0.099040	-0.339032
C152	C	1.298700	0.234294	-0.005699
C153	C	1.632033	0.567627	0.327634
C154	C	0.972609	-0.376704	-1.088591
C155	C	1.305943	-0.043371	-0.755258
C156	C	1.639276	0.289963	-0.421924
C157	C	0.972595	-0.376732	-1.017906
C158	C	1.305929	-0.043398	-0.684573
C159	C	1.639262	0.289935	-0.351239
C160	C	0.921787	-0.434436	-0.990037
C161	C	1.255120	-0.101103	-0.656704
C162	C	1.588454	0.232231	-0.323371
C163	C	0.870994	-0.492123	-1.032859
C164	C	1.204327	-0.158790	-0.699525
C165	C	1.537660	0.174543	-0.366192
C166	C	0.871011	-0.492099	-1.103543
C167	C	1.204345	-0.158766	-0.770209
C168	C	1.537678	0.174567	-0.436876
C169	C	0.870922	-0.492221	-0.747798
C170	C	1.204255	-0.158888	-0.414464
C171	C	1.537589	0.174446	-0.081131
C172	C	0.870907	-0.492238	-0.677108
C173	C	1.204241	-0.158905	-0.343775
C174	C	1.537574	0.174428	-0.010441
C175	C	0.972506	-0.376853	-0.662161
C176	C	1.305839	-0.043520	-0.328828
C177	C	1.639173	0.289813	0.004505
C178	C	0.972524	-0.376830	-0.732845
C179	C	1.305857	-0.043496	-0.399512
C180	C	1.639190	0.289837	-0.066179
C181	C	0.921733	-0.434520	-0.775661
C182	C	1.255066	-0.101186	-0.442327
C183	C	1.588399	0.232147	-0.108994
C184	C	0.921749	-0.434490	-0.852305
C185	C	1.255083	-0.101157	-0.518972
C186	C	1.588416	0.232177	-0.185639
C187	C	0.921767	-0.434462	-0.913394
C188	C	1.255100	-0.101128	-0.580060
C189	C	1.588433	0.232205	-0.246727
C190	C	0.921669	-0.434618	-0.206668
C191	C	1.255002	-0.101284	0.126665
C192	C	1.588335	0.232049	0.459998
C193	C	0.921819	-0.434385	-0.131406
C194	C	1.255152	-0.101051	0.201927
C195	C	1.588485	0.232282	0.535260
H196	H	0.321841	-0.329828	-0.290546
H197	H	0.655175	0.003506	0.042787
H198	H	0.988508	0.336839	0.376121
H199	H	1.013864	-0.329882	-0.627293
H200	H	1.347197	0.003452	-0.293959
H201	H	1.680531	0.336785	0.039374
H202	H	0.829529	-0.539228	-0.654420
H203	H	1.162862	-0.205895	-0.321087
H204	H	1.496195	0.127439	0.012247
H205	H	1.013955	-0.329765	-0.983049
H206	H	1.347289	0.003569	-0.649715
H207	H	1.680622	0.336902	-0.316382
H208	H	1.013980	-0.329708	-1.111275
H209	H	1.347313	0.003625	-0.777942
H210	H	1.680646	0.336958	-0.444608
H211	H	0.829653	-0.539070	-1.138403
H212	H	1.162986	-0.205736	-0.805070
H213	H	1.496319	0.127597	-0.471736
O214	O	0.816135	-0.554427	-0.793972
O215	O	1.149468	-0.221093	-0.460638
O216	O	1.482802	0.112240	-0.127305
H217	H	0.780798	-0.594543	-0.762714
H218	H	1.114131	-0.261210	-0.429381
H219	H	1.447464	0.072123	-0.096047
H220	H	0.868800	-1.175787	-0.435498
H221	H	1.202133	-0.842454	-0.102165
H222	H	1.535466	-0.509121	0.231169
H223	H	0.166375	-0.539483	-0.474552
H224	H	0.499709	-0.206149	-0.141218
H225	H	0.833042	0.127184	0.192115
O226	O	0.763220	-0.961475	-0.540803
O227	O	1.096553	-0.628142	-0.207470
O228	O	1.429887	-0.294808	0.125863
H229	H	0.712441	-0.943453	-0.526808
H230	H	1.045775	-0.610119	-0.193475
H231	H	1.379108	-0.276786	0.139858
O232	O	1.002941	-0.808981	-0.301359
O233	O	1.336274	-0.475647	0.031974
O234	O	1.669608	-0.142314	0.365308
H235	H	1.057210	-0.784067	-0.311853
H236	H	1.390543	-0.450733	0.021481
H237	H	1.723877	-0.117400	0.354814
H238	H	0.801276	-1.090331	-0.502856
H239	H	1.134610	-0.756998	-0.169523
H240	H	1.467943	-0.423665	0.163810
O241	O	0.788592	-0.765644	-0.515369
O242	O	1.121926	-0.432311	-0.182036
O243	O	1.455259	-0.098977	0.151298
H244	H	0.805391	-0.692211	-0.498570
H245	H	1.138724	-0.358878	-0.165237
H246	H	1.472058	-0.025544	0.168096
O247	O	0.542014	-0.314563	-0.277113
O248	O	0.875347	0.018770	0.056220
O249	O	1.208681	0.352104	0.389554
H250	H	0.485660	-0.324287	-0.285626
H251	H	0.818993	0.009046	0.047708
H252	H	1.152327	0.342379	0.381041
H253	H	1.045074	-1.090277	-0.259435
H254	H	1.378407	-0.756943	0.073899
H255	H	1.711740	-0.423610	0.407232
O256	O	0.816188	-0.554361	-1.002805
O257	O	1.149522	-0.221027	-0.669472
O258	O	1.482855	0.112306	-0.336138
H259	H	0.824703	-0.544680	-0.946460
H260	H	1.158036	-0.211347	-0.613126
H261	H	1.491369	0.121987	-0.279793
O262	O	1.080296	-0.906876	-0.224182
O263	O	1.413629	-0.573543	0.109152
O264	O	1.746962	-0.240209	0.442485
H265	H	1.104125	-0.955455	-0.200425
H266	H	1.437458	-0.622122	0.132908
H267	H	1.770791	-0.288788	0.466242
H268	H	0.193606	-0.329836	-0.290561
H269	H	0.526940	0.003498	0.042772
H270	H	0.860273	0.336831	0.376106
H271	H	0.955598	-0.778045	-0.348614
H272	H	1.288931	-0.444712	-0.015280
H273	H	1.622265	-0.111378	0.318053
O274	O	0.657751	-0.554714	-0.487908
O275	O	0.991084	-0.221381	-0.154574
O276	O	1.324418	0.111953	0.178759
H277	H	0.616080	-0.594882	-0.523174
H278	H	0.949413	-0.261549	-0.189841
H279	H	1.282746	0.071784	0.143493
O280	O	0.510795	-0.554897	-0.487813
O281	O	0.844129	-0.221563	-0.154480
O282	O	1.177462	0.111770	0.178854
H283	H	0.542022	-0.595138	-0.523024
H284	H	0.875356	-0.261805	-0.189691
H285	H	1.208689	0.071529	0.143643
H286	H	1.013895	-0.329837	-0.755531
H287	H	1.347228	0.003496	-0.422198
H288	H	1.680562	0.336829	-0.088865
H289	H	0.677615	-0.329796	-0.290520
H290	H	1.010948	0.003538	0.042813
H291	H	1.344281	0.336871	0.376147
O292	O	0.301989	-0.554733	-0.487942
O293	O	0.635323	-0.221399	-0.154609
O294	O	0.968656	0.111934	0.178725
H295	H	0.260320	-0.594903	-0.523210
H296	H	0.593654	-0.261569	-0.189877
H297	H	0.926987	0.071764	0.143456
