data_functionalizedCrystal
_audit_creation_method	'MofGen! by Chris Wilmer'
_symmetry_space_group_name_H-M	'P1'
_symmetry_Int_Tables_number	1
_symmetry_cell_setting	triclinic
loop_
_symmetry_equiv_pos_as_xyz
  x,y,z
_cell_length_a	17.038272
_cell_length_b	17.038272
_cell_length_c	16.098538
_cell_angle_alpha	92.930266
_cell_angle_beta	92.920305
_cell_angle_gamma	88.888444
loop_
_atom_site_label
_atom_site_type_symbol
_atom_site_fract_x
_atom_site_fract_y
_atom_site_fract_z
O1	O	0.167266	-1.052033	-0.069152
O2	O	0.667266	-0.552033	0.430848
O3	O	0.164557	-0.824222	-0.069177
O4	O	0.664557	-0.324222	0.430823
O5	O	0.052006	-0.936773	-0.069158
O6	O	0.552006	-0.436773	0.430842
O7	O	0.279817	-0.939482	-0.069171
O8	O	0.779817	-0.439482	0.430829
O9	O	0.058553	-0.930197	0.069354
O10	O	0.558553	-0.430197	0.569354
O11	O	0.171104	-0.817646	0.069335
O12	O	0.671104	-0.317646	0.569335
O13	O	0.173813	-1.045456	0.069359
O14	O	0.673813	-0.545456	0.569359
Zn15	Zn	0.173498	-0.930507	0.091339
Zn16	Zn	0.673498	-0.430507	0.591339
Zn17	Zn	0.164872	-0.939172	-0.091156
Zn18	Zn	0.664872	-0.439172	0.408844
O19	O	0.286364	-0.932905	0.069341
O20	O	0.786364	-0.432905	0.569341
C21	C	0.165367	-0.791641	0.000076
C22	C	0.665367	-0.291641	0.500076
C23	C	0.158019	-0.704358	0.000067
C24	C	0.658019	-0.204358	0.500067
N25	N	0.179385	-0.924599	0.215887
N26	N	0.679385	-0.424599	0.715887
C27	C	0.025987	-0.931022	0.000097
C28	C	0.525987	-0.431022	0.500097
C29	C	-0.061297	-0.923674	0.000096
C30	C	0.438703	-0.423674	0.500096
C31	C	-0.106906	-0.991137	0.000104
C32	C	0.393094	-0.491137	0.500104
C33	C	-0.188918	-0.984229	0.000096
C34	C	0.311082	-0.484229	0.500096
C35	C	-0.225320	-0.909856	0.000085
C36	C	0.274680	-0.409856	0.500085
C37	C	-0.179705	-0.842388	0.000074
C38	C	0.320295	-0.342388	0.500074
C39	C	-0.097694	-0.849297	0.000077
C40	C	0.402306	-0.349297	0.500077
C41	C	-0.472708	-0.885446	0.000071
C42	C	0.027292	-0.385446	0.500071
C43	C	-0.554725	-0.878541	0.000071
C44	C	-0.054725	-0.378541	0.500071
C45	C	-0.563932	-1.020383	0.000091
C46	C	-0.063932	-0.520383	0.500091
C47	C	-0.481920	-1.027286	0.000098
C48	C	0.018080	-0.527286	0.500098
C49	C	-0.436312	-0.959818	0.000083
C50	C	0.063688	-0.459818	0.500083
C51	C	-0.309149	-0.902792	0.000079
C52	C	0.190851	-0.402792	0.500079
C53	C	-0.352485	-0.966882	0.000084
C54	C	0.147515	-0.466882	0.500084
C55	C	0.312383	-0.938656	0.000083
C56	C	0.812383	-0.438656	0.500083
C57	C	0.399666	-0.946005	0.000079
C58	C	0.899666	-0.446005	0.500079
C59	C	0.173002	-1.078037	0.000105
C60	C	0.673002	-0.578037	0.500105
C61	C	0.180351	-1.165320	0.000108
C62	C	0.680351	-0.665320	0.500108
C63	C	0.225482	-0.658749	0.000064
C64	C	0.725482	-0.158749	0.500064
C65	C	0.218574	-0.576737	0.000075
C66	C	0.718574	-0.076737	0.500075
C67	C	0.144201	-0.540335	0.000085
C68	C	0.644201	-0.040335	0.500085
C69	C	0.076733	-0.585950	0.000090
C70	C	0.576733	-0.085950	0.500090
C71	C	0.083642	-0.667961	0.000084
C72	C	0.583642	-0.167961	0.500084
C73	C	0.119792	-0.292946	0.000108
C74	C	0.619792	0.207054	0.500108
C75	C	0.112887	-0.210929	0.000112
C76	C	0.612887	0.289071	0.500112
C77	C	0.254729	-0.201722	0.000098
C78	C	0.754729	0.298278	0.500098
C79	C	0.261632	-0.283734	0.000088
C80	C	0.761632	0.216266	0.500088
C81	C	0.194164	-0.329342	0.000098
C82	C	0.694164	0.170658	0.500098
C83	C	0.137138	-0.456505	0.000094
C84	C	0.637138	0.043495	0.500094
C85	C	0.201228	-0.413170	0.000094
C86	C	0.701228	0.086830	0.500094
N87	N	0.158979	-0.945085	-0.215705
N88	N	0.658979	-0.445085	0.284295
C89	C	0.131633	-0.972390	0.259480
C90	C	0.631633	-0.472390	0.759480
C91	C	0.135759	-0.968265	0.346668
C92	C	0.635759	-0.468265	0.846668
C93	C	0.187642	-0.916352	0.390262
C94	C	0.687642	-0.416352	0.890262
C95	C	0.235395	-0.868556	0.346663
C96	C	0.735395	-0.368556	0.846663
C97	C	0.231265	-0.872678	0.259476
C98	C	0.731265	-0.372678	0.759476
C99	C	0.202602	-0.901410	0.653510
C100	C	0.702602	-0.401410	1.153510
C101	C	0.206731	-0.897294	0.740702
C102	C	0.706731	-0.397294	1.240702
C103	C	0.107093	-0.997003	0.740702
C104	C	0.607093	-0.497003	1.240702
C105	C	0.102971	-1.001123	0.653513
C106	C	0.602971	-0.501123	1.153513
C107	C	0.150721	-0.953324	0.609922
C108	C	0.650721	-0.453324	1.109922
C109	C	0.191862	-0.912136	0.479383
C110	C	0.691862	-0.412136	0.979383
C111	C	0.146496	-0.957536	0.520803
C112	C	0.646496	-0.457536	1.020803
H113	H	-0.077274	-1.051699	0.000118
H114	H	0.422726	-0.551699	0.500118
H115	H	-0.226050	-1.039165	0.000104
H116	H	0.273950	-0.539165	0.500104
Cl117	Cl	-0.016765	-0.540188	0.000107
Cl118	Cl	0.483235	-0.040188	0.500107
Cl119	Cl	-0.415384	-0.800628	0.000050
Cl120	Cl	0.084616	-0.300628	0.500050
H121	H	-0.601075	-1.075312	0.000101
H122	H	-0.101075	-0.575312	0.500101
H123	H	0.089389	-1.014666	0.223992
H124	H	0.589389	-0.514666	0.723992
Cl125	Cl	-0.225468	-0.748890	0.000051
Cl126	Cl	0.274532	-0.248890	0.500051
Cl127	Cl	0.043643	-0.410737	0.000102
Cl128	Cl	0.543643	0.089263	0.500102
H129	H	0.028706	-0.705095	0.000086
H130	H	0.528706	-0.205095	0.500086
H131	H	0.261782	-0.442811	0.000091
H132	H	0.761782	0.057189	0.500091
H133	H	0.096876	-1.007180	0.382161
H134	H	0.596876	-0.507180	0.882161
H135	H	0.060724	-1.043394	0.618021
H136	H	0.560724	-0.543394	1.118021
Cl137	Cl	0.291296	-0.812591	0.204674
Cl138	Cl	0.791296	-0.312591	0.704674
H139	H	0.068216	-1.035918	0.776202
H140	H	0.568216	-0.535918	1.276202
Cl141	Cl	0.300616	-0.803289	0.401465
Cl142	Cl	0.800616	-0.303289	0.901465
Cl143	Cl	0.081272	-1.022793	0.465999
Cl144	Cl	0.581272	-0.522793	0.965999
Cl145	Cl	-0.040357	-0.764483	0.000064
Cl146	Cl	0.459643	-0.264483	0.500064
Cl147	Cl	-0.306721	-1.060377	0.000093
Cl148	Cl	0.193279	-0.560377	0.500093
Cl149	Cl	0.271962	-0.832027	0.795500
Cl150	Cl	0.771962	-0.332027	1.295500
Cl151	Cl	0.262633	-0.841325	0.598715
Cl152	Cl	0.762633	-0.341325	1.098715
Cl153	Cl	0.257087	-0.846878	0.534190
Cl154	Cl	0.757087	-0.346878	1.034190
H155	H	-0.584359	-0.817975	0.000075
H156	H	-0.084359	-0.317975	0.500075
H157	H	-0.452287	-1.087848	0.000107
H158	H	0.047713	-0.587848	0.500107
H159	H	-0.338796	-0.842238	0.000072
H160	H	0.161204	-0.342238	0.500072
H161	H	0.286045	-0.688381	0.000056
H162	H	0.786045	-0.188381	0.500056
Cl163	Cl	0.303390	-0.519403	0.000066
Cl164	Cl	0.803390	-0.019403	0.500066
H165	H	0.052321	-0.181294	0.000118
H166	H	0.552321	0.318706	0.500118
H167	H	0.322194	-0.313367	0.000070
H168	H	0.822194	0.186633	0.500070
H169	H	0.309658	-0.164579	0.000092
H170	H	0.809658	0.335421	0.500092
H171	H	0.064854	-0.330070	0.000117
H172	H	0.564854	0.169930	0.500117
