data_functionalizedCrystal
_audit_creation_method	'MofGen! by Chris Wilmer'
_symmetry_space_group_name_H-M	'P1'
_symmetry_Int_Tables_number	1
_symmetry_cell_setting	triclinic
loop_
_symmetry_equiv_pos_as_xyz
  x,y,z
_cell_length_a	14.560438
_cell_length_b	19.851628
_cell_length_c	14.560438
_cell_angle_alpha	59.995672
_cell_angle_beta	90.000977
_cell_angle_gamma	60.005638
loop_
_atom_site_label
_atom_site_type_symbol
_atom_site_fract_x
_atom_site_fract_y
_atom_site_fract_z
Zr1	Zr	0.884823	0.737344	-0.120560
O2	O	0.738190	0.877876	-0.267220
O3	O	0.929764	0.596812	-0.075594
O4	O	0.929778	0.737346	-0.267207
O5	O	0.738177	0.737340	0.075535
O6	O	1.080916	0.737348	-0.267205
O7	O	0.738177	0.737342	-0.075606
O8	O	1.080892	0.485958	0.075556
O9	O	0.738201	0.988730	-0.267227
O10	O	1.061735	0.654616	-0.056423
O11	O	0.948943	0.654613	0.056370
O12	O	0.948958	0.820074	-0.169230
O13	O	0.836166	0.820072	-0.056437
Zr14	Zr	1.125871	0.737344	0.120496
Zr15	Zr	1.125871	0.737347	-0.120556
Zr16	Zr	0.884823	0.737341	0.120493
Zr17	Zr	0.884840	0.914143	-0.120571
Zr18	Zr	1.125854	0.560545	0.120508
O19	O	1.080930	0.877876	0.075531
O20	O	1.080929	0.877880	-0.267214
O21	O	0.738190	0.877872	0.075525
O22	O	1.272504	0.596812	0.267157
O23	O	1.272504	0.596816	-0.075589
O24	O	0.929765	0.596808	0.267151
O25	O	1.272517	0.737348	-0.075598
O26	O	1.080916	0.737342	0.267144
O27	O	0.929778	0.737340	0.267142
O28	O	1.272517	0.737346	0.075543
O29	O	0.929802	0.988732	-0.267224
O30	O	1.080892	0.485956	0.267161
O31	O	1.272493	0.485958	0.267164
O32	O	1.272493	0.485960	0.075559
O33	O	0.738201	0.988728	-0.075622
O34	O	0.929802	0.988730	-0.075619
O35	O	1.061736	0.654613	0.169167
O36	O	1.174528	0.654616	0.056374
O37	O	1.061751	0.820074	-0.056433
O38	O	0.948959	0.820072	0.056360
C39	C	0.703833	0.737340	-0.000036
C40	C	0.601501	0.737339	-0.000038
C41	C	1.005326	0.516195	-0.000017
C42	C	1.005319	0.441139	-0.000012
C43	C	0.612291	0.650973	0.058846
C44	C	0.516136	0.650978	0.058856
C45	C	0.398405	0.823722	-0.058911
C46	C	0.494559	0.823716	-0.058914
C47	C	0.719234	0.564596	0.117721
C48	C	0.730029	0.478223	0.176609
C49	C	0.633874	0.478228	0.176619
C50	C	0.526924	0.564605	0.117742
C51	C	0.943839	0.259778	0.061477
C52	C	0.899269	0.270117	-0.044587
C53	C	1.005337	0.303719	-0.000028
C54	C	1.049873	0.159664	0.106010
C55	C	1.005354	0.170974	-0.000034
C56	C	0.960705	0.315092	-0.106155
C57	C	1.111368	0.204593	0.044519
C58	C	1.066824	0.214966	-0.061609
C59	C	1.005325	0.380190	-0.000023
C60	C	1.005365	0.094509	-0.000050
C61	C	1.306861	0.737348	-0.000027
C62	C	1.409193	0.737349	-0.000025
C63	C	1.005347	0.737348	-0.301551
C64	C	1.005347	0.737349	-0.403884
C65	C	1.005368	0.958493	-0.000046
C66	C	1.005375	1.033549	-0.000051
C67	C	0.946474	0.823715	-0.510844
C68	C	0.946477	0.823710	-0.606993
C69	C	1.064228	0.650966	-0.489207
C70	C	1.064230	0.650972	-0.393061
C71	C	0.887590	0.910092	-0.521667
C72	C	0.828711	0.996465	-0.628633
C73	C	0.828714	0.996460	-0.724782
C74	C	0.887596	0.910083	-0.713965
C75	C	1.005347	0.737340	0.301488
C76	C	1.005347	0.737339	0.403821
C77	C	1.306840	0.516199	-0.000012
C78	C	1.409164	0.441144	-0.000006
C79	C	1.005326	0.516191	0.301502
C80	C	1.005319	0.441134	0.403840
C81	C	1.306841	0.516195	0.301507
C82	C	1.409165	0.441139	0.403847
C83	C	0.703853	0.958493	-0.301570
C84	C	0.601529	1.033549	-0.403910
C85	C	0.703854	0.958489	-0.000051
C86	C	0.601530	1.033544	-0.000057
C87	C	1.005368	0.958497	-0.301565
C88	C	1.005375	1.033554	-0.403903
C89	C	1.398340	0.405897	-0.058892
C90	C	1.494475	0.335385	-0.058908
C91	C	1.601433	0.300116	-0.000031
C92	C	1.612255	0.335370	0.058856
C93	C	1.516121	0.405885	0.058865
C94	C	1.064192	0.405886	0.510788
C95	C	1.064182	0.335372	0.606954
C96	C	1.005303	0.300102	0.596171
C97	C	0.946423	0.335356	0.489212
C98	C	0.946428	0.405874	0.393048
C99	C	1.516104	0.405893	0.393030
C100	C	1.612258	0.335380	0.489179
C101	C	1.601469	0.300109	0.596145
C102	C	1.494519	0.335361	0.606960
C103	C	1.398368	0.405878	0.510811
C104	C	0.494590	1.068803	-0.393093
C105	C	0.398436	1.139338	-0.489242
C106	C	0.409225	1.174613	-0.596208
C107	C	0.516175	1.139356	-0.607023
C108	C	0.612326	1.068827	-0.510874
C109	C	0.612354	1.068798	0.058818
C110	C	0.516219	1.139329	0.058808
C111	C	0.409261	1.174601	-0.000072
C112	C	0.398438	1.139344	-0.058954
C113	C	0.494573	1.068819	-0.058950
C114	C	1.064265	1.068802	-0.393083
C115	C	1.064293	1.139317	-0.489231
C116	C	1.005425	1.174587	-0.596198
C117	C	0.946533	1.139333	-0.607016
C118	C	0.946512	1.068814	-0.510869
H119	H	0.797535	0.564583	0.117718
H120	H	1.524951	0.434574	0.106823
H121	H	0.330991	1.232027	-0.000066
H122	H	1.112248	1.168014	-0.480402
Br123	Br	0.866634	1.187218	-0.752194
H124	H	0.887577	0.910105	-0.443385
Br125	Br	1.005307	0.204398	0.726692
Br126	Br	0.866522	0.287479	0.474596
H127	H	0.485769	0.894043	-0.106841
H128	H	1.112139	0.434595	0.519590
H129	H	1.112202	1.040096	-0.305994
H130	H	0.330923	1.232042	-0.674489
H131	H	0.898490	0.434563	0.305970
Br132	Br	1.530776	0.453751	0.247874
Br133	Br	1.479762	0.287554	-0.138829
Br134	Br	0.857066	0.292633	0.148074
Br135	Br	1.005464	1.270294	-0.726674
H136	H	1.118827	0.195429	-0.113697
H137	H	1.112133	0.306676	0.694035
H138	H	0.817111	0.407898	0.224553
H139	H	0.898552	1.040123	-0.519694
Br140	Br	1.260782	0.159674	0.107374
H141	H	0.311322	0.894046	-0.106849
H142	H	1.679771	0.242690	0.674426
Br143	Br	0.748820	1.113685	-0.643312
H144	H	0.780781	1.066789	-0.811873
H145	H	1.485752	0.306633	0.694064
H146	H	0.809606	0.297082	-0.082274
H147	H	1.699354	0.306643	0.106791
H148	H	0.525052	1.168024	0.106762
Br149	Br	0.648523	0.361010	0.256553
H150	H	1.311297	0.434566	0.519634
H151	H	1.699332	0.306685	0.480353
Br152	Br	0.530797	1.187237	-0.752199
H153	H	0.699436	1.040085	0.106773
H154	H	0.699398	1.040124	-0.519695
H155	H	0.887606	0.910086	-0.792261
Br156	Br	0.253272	1.187221	-0.138854
Br157	Br	0.479918	1.020943	-0.247937
Br158	Br	0.897768	0.425758	-0.255697
H159	H	1.087530	0.093234	0.195688
H160	H	0.311362	1.168033	-0.480415
H161	H	1.112168	0.580645	-0.305968
Br162	Br	0.396428	0.564609	0.117769
Br163	Br	1.144130	0.533748	-0.474533
H164	H	0.485743	1.040117	-0.106891
H165	H	1.311258	0.434613	-0.106850
H166	H	1.679703	0.242697	-0.000047
