data_functionalizedCrystal
_audit_creation_method	'MofGen! by Chris Wilmer'
_symmetry_space_group_name_H-M	'P1'
_symmetry_Int_Tables_number	1
_symmetry_cell_setting	triclinic
loop_
_symmetry_equiv_pos_as_xyz
  x,y,z
_cell_length_a	27.732046
_cell_length_b	27.732048
_cell_length_c	10.868271
_cell_angle_alpha	90.010073
_cell_angle_beta	90.001757
_cell_angle_gamma	97.357683
loop_
_atom_site_label
_atom_site_type_symbol
_atom_site_fract_x
_atom_site_fract_y
_atom_site_fract_z
O1	O	-0.640927	0.057513	0.102160
O2	O	-0.500134	0.066260	0.102203
O3	O	-0.574903	-0.008510	0.102157
O4	O	-0.566158	0.132283	0.102206
O5	O	-0.574897	-0.008513	-0.102488
O6	O	-0.500128	0.066257	-0.102442
O7	O	-0.640921	0.057511	-0.102484
Zn8	Zn	-0.570524	0.061883	-0.134955
Zn9	Zn	-0.570532	0.061887	0.134673
O10	O	-0.566152	0.132281	-0.102438
C11	C	-0.482124	0.066075	-0.000114
C12	C	-0.428469	0.065522	-0.000099
C13	C	-0.574717	-0.026518	-0.000169
C14	C	-0.574164	-0.080173	-0.000179
C15	C	-0.089654	0.106228	-0.000129
C16	C	0.112006	0.104178	-0.000136
O17	O	0.143262	0.141399	-0.000175
N18	N	0.131130	0.059843	-0.000149
C19	C	0.099835	0.016018	-0.000168
O20	O	0.120728	-0.021739	-0.000192
C21	C	-0.101824	0.018068	-0.000170
C22	C	-0.120944	0.062406	-0.000145
C23	C	-0.108775	0.150563	-0.000105
C24	C	-0.159187	0.151075	-0.000097
C25	C	-0.190478	0.107252	-0.000113
C26	C	-0.171356	0.062918	-0.000137
C27	C	-0.133117	-0.025757	-0.000198
C28	C	-0.183535	-0.025241	-0.000202
C29	C	-0.202655	0.019097	-0.000177
C30	C	-0.253059	0.019607	-0.000144
N31	N	-0.272183	0.063942	-0.000131
C32	C	-0.240892	0.107765	-0.000115
C33	C	0.205709	0.014944	-0.000164
C34	C	0.256124	0.014432	-0.000161
C35	C	0.268291	0.102593	-0.000132
C36	C	0.217876	0.103105	-0.000126
C37	C	0.186586	0.059279	-0.000151
C38	C	-0.346761	0.108837	-0.000097
C39	C	-0.397178	0.109345	-0.000083
C40	C	-0.409341	0.021184	-0.000120
C41	C	-0.358929	0.020676	-0.000127
C42	C	-0.327640	0.064506	-0.000119
O43	O	-0.284343	-0.017594	-0.000118
O44	O	-0.261795	0.145516	-0.000119
C45	C	-0.039242	0.105716	-0.000138
C46	C	-0.020120	0.061382	-0.000162
C47	C	-0.051411	0.017559	-0.000177
C48	C	0.030294	0.060869	-0.000159
C49	C	0.061585	0.104692	-0.000143
C50	C	0.042461	0.149027	-0.000130
C51	C	-0.007951	0.149539	-0.000122
C52	C	-0.032287	-0.026776	-0.000190
C53	C	0.018125	-0.027284	-0.000197
C54	C	0.049416	0.016538	-0.000181
C55	C	0.341069	0.057697	-0.000158
C56	C	0.287415	0.058254	-0.000146
C57	C	-0.614868	-0.418989	-0.000128
C58	C	-0.612817	-0.620648	-0.000110
O59	O	-0.650038	-0.651904	-0.000068
N60	N	-0.568482	-0.639772	-0.000098
C61	C	-0.524656	-0.608477	-0.000082
O62	O	-0.486899	-0.629370	-0.000058
C63	C	-0.526708	-0.406818	-0.000091
C64	C	-0.571046	-0.387698	-0.000116
C65	C	-0.659202	-0.399868	-0.000151
C66	C	-0.659715	-0.349456	-0.000162
C67	C	-0.615892	-0.318165	-0.000150
C68	C	-0.571558	-0.337286	-0.000127
C69	C	-0.482882	-0.375524	-0.000066
C70	C	-0.483399	-0.325107	-0.000065
C71	C	-0.527737	-0.305986	-0.000090
C72	C	-0.528248	-0.255583	-0.000126
N73	N	-0.572583	-0.236459	-0.000138
C74	C	-0.616405	-0.267750	-0.000150
C75	C	-0.523582	-0.714351	-0.000080
C76	C	-0.523069	-0.764765	-0.000080
C77	C	-0.611230	-0.776933	-0.000106
C78	C	-0.611743	-0.726518	-0.000114
C79	C	-0.567917	-0.695227	-0.000092
C80	C	-0.617478	-0.161881	-0.000175
C81	C	-0.617986	-0.111464	-0.000191
C82	C	-0.529826	-0.099301	-0.000159
C83	C	-0.529317	-0.149713	-0.000149
C84	C	-0.573147	-0.181003	-0.000153
O85	O	-0.491047	-0.224299	-0.000154
O86	O	-0.654157	-0.246848	-0.000146
C87	C	-0.614356	-0.469401	-0.000117
C88	C	-0.570021	-0.488522	-0.000093
C89	C	-0.526199	-0.457231	-0.000081
C90	C	-0.569508	-0.538936	-0.000093
C91	C	-0.613330	-0.570227	-0.000106
C92	C	-0.657666	-0.551103	-0.000118
C93	C	-0.658178	-0.500692	-0.000129
C94	C	-0.481864	-0.476354	-0.000069
C95	C	-0.481355	-0.526767	-0.000059
C96	C	-0.525177	-0.558058	-0.000071
C97	C	-0.566338	0.150289	-0.000110
C98	C	-0.566891	0.203944	-0.000092
N99	N	-0.570522	0.061880	-0.318969
C100	C	-0.570529	0.061886	-0.569975
C101	C	-0.570523	0.061884	-0.430297
N102	N	-0.570537	0.061886	0.318687
H103	H	-0.321291	0.144528	-0.000095
H104	H	-0.023514	0.185643	-0.000103
N105	N	-0.481497	-0.170340	-0.000139
H106	H	-0.453814	-0.142865	-0.000137
H107	H	-0.479366	-0.190982	0.075736
N108	N	-0.075030	0.197832	-0.000158
H109	H	-0.094801	0.225991	-0.000167
H110	H	-0.053835	0.199561	0.075688
H111	H	0.180236	-0.020746	-0.000185
N112	N	-0.704930	-0.584861	-0.000139
H113	H	-0.706680	-0.606042	0.075726
H114	H	-0.733071	-0.565070	-0.000199
H115	H	-0.434827	-0.014495	-0.000128
H116	H	-0.695819	-0.333893	-0.000178
N117	N	-0.436128	-0.291360	-0.000075
H118	H	-0.443177	-0.256520	-0.000091
H119	H	-0.416788	-0.297505	0.075792
N120	N	0.302058	0.149851	-0.000174
H121	H	0.295942	0.169197	-0.076051
H122	H	0.295951	0.169196	0.075723
N123	N	-0.482562	-0.065547	-0.000179
H124	H	-0.489618	-0.030709	-0.000193
H125	H	-0.463220	-0.071688	0.075688
N126	N	0.076215	0.196293	-0.000105
H127	H	0.111052	0.189236	-0.000113
H128	H	0.070061	0.215631	-0.075963
N129	N	-0.433527	-0.547380	-0.000032
H130	H	-0.431350	-0.568016	0.075838
H131	H	-0.431368	-0.568009	-0.075936
N132	N	-0.475244	-0.785379	-0.000066
H133	H	-0.473066	-0.806019	0.075797
H134	H	-0.473088	-0.806005	-0.075977
N135	N	-0.112502	-0.073580	-0.000231
H136	H	-0.139981	-0.101258	-0.000251
H137	H	-0.091854	-0.075712	-0.076102
H138	H	-0.647847	-0.710954	-0.000133
N139	N	0.197254	0.150926	-0.000094
H140	H	0.224731	0.178606	-0.000079
H141	H	0.176603	0.153062	-0.075959
H142	H	-0.694282	-0.485129	-0.000149
N143	N	-0.706472	-0.433613	-0.000166
H144	H	-0.734631	-0.413842	-0.000182
H145	H	-0.708178	-0.454798	-0.076035
H146	H	0.271687	-0.021673	-0.000163
H147	H	-0.412743	0.145452	-0.000062
H148	H	-0.487892	-0.688878	-0.000062
H149	H	0.033688	-0.063392	-0.000208
H150	H	-0.654093	-0.095900	-0.000214
N151	N	-0.217283	-0.072511	-0.000238
H152	H	-0.197517	-0.100673	-0.000255
H153	H	-0.238464	-0.074222	0.075627
H154	H	-0.646912	-0.802419	-0.000116
N155	N	-0.435060	-0.396139	-0.000055
H156	H	-0.407382	-0.368660	-0.000045
H157	H	-0.432925	-0.416785	0.075809
N158	N	-0.066033	-0.074044	-0.000216
H159	H	-0.046264	-0.102204	-0.000227
H160	H	-0.087213	-0.075754	0.075651
N161	N	-0.338302	-0.027144	-0.000131
H162	H	-0.365776	-0.054827	-0.000133
H163	H	-0.317655	-0.029279	-0.076002
H164	H	-0.653169	-0.187352	-0.000173
N165	N	-0.434597	-0.442606	-0.000062
H166	H	-0.415238	-0.448714	0.075804
H167	H	-0.415277	-0.448747	-0.075970
N168	N	-0.179806	0.198896	-0.000064
H169	H	-0.152328	0.226576	-0.000054
H170	H	-0.200460	0.201033	-0.075924
