data_functionalizedCrystal
_audit_creation_method	'MofGen! by Chris Wilmer'
_symmetry_space_group_name_H-M	'P1'
_symmetry_Int_Tables_number	1
_symmetry_cell_setting	triclinic
loop_
_symmetry_equiv_pos_as_xyz
  x,y,z
_cell_length_a	14.044220
_cell_length_b	14.044220
_cell_length_c	13.101039
_cell_angle_alpha	93.659868
_cell_angle_beta	86.332523
_cell_angle_gamma	93.188878
loop_
_atom_site_label
_atom_site_type_symbol
_atom_site_fract_x
_atom_site_fract_y
_atom_site_fract_z
O1	O	-0.225348	-1.281968	-0.085109
O2	O	0.024652	-1.031968	0.164891
O3	O	0.274652	-0.781968	0.414891
O4	O	0.524652	-0.531968	0.664891
O5	O	-0.217041	-1.005298	-0.085135
O6	O	0.032959	-0.755298	0.164865
O7	O	0.282959	-0.505298	0.414865
O8	O	0.532959	-0.255298	0.664865
O9	O	-0.082860	-1.139480	-0.085112
O10	O	0.167140	-0.889480	0.164888
O11	O	0.417140	-0.639480	0.414888
O12	O	0.667140	-0.389480	0.664888
O13	O	-0.359530	-1.147787	-0.085132
O14	O	-0.109530	-0.897787	0.164868
O15	O	0.140470	-0.647787	0.414868
O16	O	0.390470	-0.397787	0.664868
O17	O	-0.092504	-1.129854	0.085316
O18	O	0.157496	-0.879854	0.335316
O19	O	0.407496	-0.629854	0.585316
O20	O	0.657496	-0.379854	0.835316
O21	O	-0.226686	-0.995673	0.085293
O22	O	0.023314	-0.745673	0.335293
O23	O	0.273314	-0.495673	0.585293
O24	O	0.523314	-0.245673	0.835293
O25	O	-0.234993	-1.272343	0.085319
O26	O	0.015007	-1.022343	0.335319
O27	O	0.265007	-0.772343	0.585319
O28	O	0.515007	-0.522343	0.835319
Zn29	Zn	-0.232371	-1.132479	0.112365
Zn30	Zn	0.017629	-0.882479	0.362365
Zn31	Zn	0.267629	-0.632479	0.612365
Zn32	Zn	0.517629	-0.382479	0.862365
Zn33	Zn	-0.219663	-1.145162	-0.112181
Zn34	Zn	0.030337	-0.895162	0.137819
Zn35	Zn	0.280337	-0.645162	0.387819
Zn36	Zn	0.530337	-0.395162	0.637819
O37	O	-0.369175	-1.138161	0.085296
O38	O	-0.119175	-0.888161	0.335296
O39	O	0.130825	-0.638161	0.585296
O40	O	0.380825	-0.388161	0.835296
C41	C	-0.218228	-0.964864	0.000076
C42	C	0.031772	-0.714864	0.250076
C43	C	0.281772	-0.464864	0.500076
C44	C	0.531772	-0.214864	0.750076
C45	C	-0.207383	-0.858722	0.000066
C46	C	0.042617	-0.608722	0.250066
C47	C	0.292617	-0.358722	0.500066
C48	C	0.542617	-0.108722	0.750066
C49	C	-0.052060	-1.131031	0.000102
C50	C	0.197940	-0.881031	0.250102
C51	C	0.447940	-0.631031	0.500102
C52	C	0.697940	-0.381031	0.750102
C53	C	0.054083	-1.120187	0.000102
C54	C	0.304083	-0.870187	0.250102
C55	C	0.554083	-0.620187	0.500102
C56	C	0.804083	-0.370187	0.750102
C57	C	-0.399974	-1.146610	0.000080
C58	C	-0.149974	-0.896610	0.250080
C59	C	0.100026	-0.646610	0.500080
C60	C	0.350026	-0.396610	0.750080
C61	C	-0.506116	-1.157455	0.000073
C62	C	-0.256116	-0.907455	0.250073
C63	C	-0.006116	-0.657455	0.500073
C64	C	0.243884	-0.407455	0.750073
C65	C	0.248421	-1.100362	0.000086
C66	C	0.498421	-0.850362	0.250086
C67	C	0.748421	-0.600362	0.500086
C68	C	0.998421	-0.350362	0.750086
C69	C	0.299551	-1.177276	0.000090
C70	C	0.549551	-0.927276	0.250090
C71	C	0.799551	-0.677276	0.500090
C72	C	1.049551	-0.427276	0.750090
C73	C	0.407688	-1.166245	0.000080
C74	C	0.657688	-0.916245	0.250080
C75	C	0.907688	-0.666245	0.500080
C76	C	1.157688	-0.416245	0.750080
C77	C	0.140275	-1.111391	0.000095
C78	C	0.390275	-0.861391	0.250095
C79	C	0.640275	-0.611391	0.500095
C80	C	0.890275	-0.361391	0.750095
C81	C	-0.233806	-1.312777	0.000106
C82	C	0.016194	-1.062777	0.250106
C83	C	0.266194	-0.812777	0.500106
C84	C	0.516194	-0.562777	0.750106
C85	C	-0.244651	-1.418920	0.000109
C86	C	0.005349	-1.168920	0.250109
C87	C	0.255349	-0.918920	0.500109
C88	C	0.505349	-0.668920	0.750109
N89	N	-0.241043	-1.123831	0.265612
N90	N	0.008957	-0.873831	0.515612
N91	N	0.258957	-0.623831	0.765612
N92	N	0.508957	-0.373831	1.015612
C93	C	-0.187558	-0.664383	0.000088
C94	C	0.062442	-0.414383	0.250088
C95	C	0.312442	-0.164383	0.500088
C96	C	0.562442	0.085617	0.750088
C97	C	-0.264472	-0.613253	0.000087
C98	C	-0.014472	-0.363253	0.250087
C99	C	0.235528	-0.113253	0.500087
C100	C	0.485528	0.136747	0.750087
C101	C	-0.253441	-0.505116	0.000099
C102	C	-0.003441	-0.255116	0.250099
C103	C	0.246559	-0.005116	0.500099
C104	C	0.496559	0.244884	0.750099
C105	C	-0.198587	-0.772529	0.000076
C106	C	0.051413	-0.522529	0.250076
C107	C	0.301413	-0.272529	0.500076
C108	C	0.551413	-0.022529	0.750076
N109	N	-0.210984	-1.153817	-0.265428
N110	N	0.039016	-0.903817	-0.015428
N111	N	0.289016	-0.653817	0.234572
N112	N	0.539016	-0.403817	0.484572
C113	C	-0.252851	-1.112065	0.474653
C114	C	-0.002851	-0.862065	0.724653
C115	C	0.247149	-0.612065	0.974653
C116	C	0.497149	-0.362065	1.224653
C117	C	-0.199179	-1.165580	0.525538
C118	C	0.050821	-0.915580	0.775538
C119	C	0.300821	-0.665580	1.025538
C120	C	0.550821	-0.415580	1.275538
C121	C	-0.205749	-1.159034	0.641855
C122	C	0.044251	-0.909034	0.891855
C123	C	0.294251	-0.659034	1.141855
C124	C	0.544251	-0.409034	1.391855
C125	C	-0.246282	-1.118610	0.358325
C126	C	0.003718	-0.868610	0.608325
C127	C	0.253718	-0.618610	0.858325
C128	C	0.503718	-0.368610	1.108325
H129	H	0.262115	-1.251413	0.000028
H130	H	0.512115	-1.001413	0.250028
H131	H	0.762115	-0.751413	0.500028
H132	H	1.012115	-0.501413	0.750028
H133	H	-0.148295	-1.216314	0.481744
H134	H	0.101705	-0.966314	0.731744
H135	H	0.351705	-0.716314	0.981744
H136	H	0.601705	-0.466314	1.231744
H137	H	-0.338605	-0.650693	0.000077
H138	H	-0.088605	-0.400693	0.250077
H139	H	0.161395	-0.150693	0.500077
H140	H	0.411395	0.099307	0.750077
Cl141	Cl	-0.331413	-1.033744	0.542261
Cl142	Cl	-0.081413	-0.783744	0.792261
Cl143	Cl	0.168587	-0.533744	1.042261
Cl144	Cl	0.418587	-0.283744	1.292261
Cl145	Cl	0.306222	-0.985913	0.000070
Cl146	Cl	0.556222	-0.735913	0.250070
Cl147	Cl	0.806222	-0.485913	0.500070
Cl148	Cl	1.056222	-0.235913	0.750070
Cl149	Cl	-0.073108	-0.606582	0.000098
Cl150	Cl	0.176892	-0.356582	0.250098
Cl151	Cl	0.426892	-0.106582	0.500098
Cl152	Cl	0.676892	0.143418	0.750098
