data_functionalizedCrystal
_audit_creation_method	'MofGen! by Chris Wilmer'
_symmetry_space_group_name_H-M	'P1'
_symmetry_Int_Tables_number	1
_symmetry_cell_setting	triclinic
loop_
_symmetry_equiv_pos_as_xyz
  x,y,z
_cell_length_a	12.759401
_cell_length_b	19.077442
_cell_length_c	19.076919
_cell_angle_alpha	89.933452
_cell_angle_beta	87.717257
_cell_angle_gamma	87.725546
loop_
_atom_site_label
_atom_site_type_symbol
_atom_site_fract_x
_atom_site_fract_y
_atom_site_fract_z
Zn1	Zn	1.600709	-0.295734	0.386050
Zn2	Zn	1.614678	-0.408522	0.263830
Zn3	Zn	1.431790	-0.291033	0.268561
Zn4	Zn	1.432295	-0.413202	0.381301
O5	O	1.519868	-0.352123	0.324935
O6	O	1.749583	-0.310705	0.369845
O7	O	1.596052	-0.389010	0.166126
O8	O	1.448139	-0.193326	0.288114
O9	O	1.759846	-0.393569	0.280050
O10	O	1.572244	-0.196781	0.374433
O11	O	1.461685	-0.302691	0.169602
O12	O	1.284836	-0.307230	0.283509
O13	O	1.449001	-0.401546	0.480262
O14	O	1.285207	-0.396987	0.366338
O15	O	1.572734	-0.315243	0.483752
O16	O	1.596543	-0.507472	0.275445
O17	O	1.462547	-0.510911	0.361750
C18	C	1.246901	-0.352106	0.324922
C19	C	1.130124	-0.352117	0.324932
C20	C	0.965299	-0.305341	0.281897
C21	C	1.075022	-0.305325	0.281887
C22	C	1.075496	-0.398924	0.367995
C23	C	0.965774	-0.398937	0.368008
C24	C	1.221254	-0.221401	0.260238
C25	C	1.275879	-0.174601	0.217169
C26	C	1.243493	-0.160973	0.149066
C27	C	1.156486	-0.194153	0.124017
C28	C	1.101867	-0.240958	0.167082
C29	C	1.134250	-0.254573	0.235196
C30	C	0.819540	-0.482862	0.389650
C31	C	0.764920	-0.529670	0.432712
C32	C	0.797304	-0.543306	0.500816
C33	C	0.884316	-0.510137	0.525862
C34	C	0.938936	-0.463329	0.482800
C35	C	0.906545	-0.449692	0.414696
C36	C	1.531143	-0.534688	0.317584
C37	C	1.536061	-0.612791	0.314462
C38	C	1.571264	-1.052234	0.292053
C39	C	1.566633	-0.978848	0.294988
C40	C	1.494508	-0.943972	0.341355
C41	C	1.427002	-0.982485	0.384786
C42	C	1.431628	-1.055870	0.381848
C43	C	1.473182	-0.724690	0.354955
C44	C	1.468563	-0.651300	0.357892
C45	C	1.608193	-0.647667	0.268092
C46	C	1.612817	-0.721054	0.265160
C47	C	1.545307	-0.759561	0.308589
N48	N	1.489776	-0.868959	0.344358
N49	N	1.550036	-0.834572	0.305582
C50	C	1.793902	-0.352139	0.324949
C51	C	1.910678	-0.352147	0.324955
C52	C	1.509366	-0.359441	0.508216
C53	C	1.504890	-0.362560	0.586319
C54	C	1.508577	-0.168845	0.332331
C55	C	1.503765	-0.090743	0.335482
C56	C	1.530387	-0.344782	0.142370
C57	C	1.535054	-0.341465	0.064275
C58	C	1.567205	-0.319094	0.624830
C59	C	1.562987	-0.322021	0.698217
C60	C	1.496459	-0.368419	0.733091
C61	C	1.434137	-0.411887	0.694575
C62	C	1.438350	-0.408955	0.621190
C63	C	1.476945	-0.382002	0.952374
C64	C	1.472739	-0.384931	1.025764
C65	C	1.601588	-0.295065	1.029401
C66	C	1.605800	-0.292140	0.956014
C67	C	1.543474	-0.335605	0.917505
N68	N	1.492148	-0.371414	0.808104
N69	N	1.547780	-0.332606	0.842493
H70	H	1.120368	-0.437020	0.403045
F71	F	1.350240	-0.945366	0.434134
F72	F	0.906665	-0.255542	0.236078
F73	F	1.629349	-0.275783	0.739199
F74	F	1.031544	-0.428028	0.509458
F75	F	1.410611	-0.428261	0.911398
F76	F	1.372023	-0.455216	0.580204
F77	F	0.785067	-0.468351	0.317164
F78	F	1.363328	-0.461264	0.731692
F79	F	1.255724	-0.235898	0.332724
F80	F	1.401922	-0.434314	1.062878
F81	F	1.122034	-0.179654	0.051527
F82	F	1.359782	-1.096853	0.428068
H83	H	1.409826	-0.622907	0.395653
H84	H	0.910686	-0.521242	0.581317
H85	H	1.031028	-0.267974	0.146687
H86	H	1.287977	-0.122867	0.113999
F87	F	0.739173	-0.593130	0.546643
H88	H	1.621383	-0.281314	0.596441
H89	H	1.652329	-0.259677	1.060763
F90	F	0.672326	-0.564982	0.406048
H91	H	1.346721	-0.147586	0.237570
H92	H	1.418203	-0.756033	0.390312
H93	H	1.659978	-0.254360	0.927625
H94	H	1.630002	-1.080625	0.254299
H95	H	1.671547	-0.749445	0.227401
F96	F	1.638484	-0.937868	0.248770
F97	F	1.680035	-0.606680	0.221874
