data_functionalizedCrystal
_audit_creation_method	'MofGen! by Chris Wilmer'
_symmetry_space_group_name_H-M	'P1'
_symmetry_Int_Tables_number	1
_symmetry_cell_setting	triclinic
loop_
_symmetry_equiv_pos_as_xyz
  x,y,z
_cell_length_a	16.120530
_cell_length_b	19.805399
_cell_length_c	19.805405
_cell_angle_alpha	90.030709
_cell_angle_beta	92.878235
_cell_angle_gamma	87.087090
loop_
_atom_site_label
_atom_site_type_symbol
_atom_site_fract_x
_atom_site_fract_y
_atom_site_fract_z
Zn1	Zn	1.274491	-0.435095	0.322008
Zn2	Zn	1.774491	0.064905	0.822008
Zn3	Zn	1.274393	-0.321900	0.435195
Zn4	Zn	1.774393	0.178100	0.935195
Zn5	Zn	1.135084	-0.316190	0.316283
Zn6	Zn	1.635084	0.183810	0.816283
Zn7	Zn	1.135033	-0.429318	0.429412
Zn8	Zn	1.635033	0.070682	0.929412
O9	O	1.204750	-0.375626	0.375725
O10	O	1.704750	0.124374	0.875725
O11	O	1.391143	-0.424887	0.341839
O12	O	1.891143	0.075113	0.841839
O13	O	1.255893	-0.226425	0.419446
O14	O	1.755893	0.273575	0.919446
O15	O	1.153639	-0.331991	0.222328
O16	O	1.653639	0.168009	0.722328
O17	O	1.391071	-0.341722	0.424997
O18	O	1.891071	0.158278	0.924997
O19	O	1.256061	-0.419350	0.226535
O20	O	1.756061	0.080650	0.726535
O21	O	1.153544	-0.222230	0.332081
O22	O	1.653544	0.277770	0.832081
O23	O	1.018412	-0.326390	0.326473
O24	O	1.518412	0.173610	0.826473
O25	O	1.153552	-0.524802	0.415140
O26	O	1.653552	-0.024802	0.915140
O27	O	1.018374	-0.409505	0.409588
O28	O	1.518374	0.090495	0.909588
O29	O	1.256011	-0.529046	0.336231
O30	O	1.756011	-0.029046	0.836231
O31	O	1.255844	-0.336121	0.529142
O32	O	1.755844	0.163879	1.029142
O33	O	1.153456	-0.415041	0.524893
O34	O	1.653456	0.084959	1.024893
C35	C	0.988143	-0.366701	0.366782
C36	C	1.488143	0.133299	0.866782
C37	C	0.895478	-0.362899	0.362973
C38	C	1.395478	0.137101	0.862973
C39	C	1.204787	-0.552170	0.375679
C40	C	1.704787	-0.052170	0.875679
C41	C	1.204802	-0.627403	0.375660
C42	C	1.704802	-0.127403	0.875660
C43	C	1.151524	-0.660563	0.330166
C44	C	1.651524	-0.160563	0.830166
C45	C	1.151535	-0.731252	0.330153
C46	C	1.651535	-0.231252	0.830153
C47	C	1.204830	-0.768780	0.375632
C48	C	1.704830	-0.268780	0.875632
C49	C	1.258111	-0.735615	0.421131
C50	C	1.758111	-0.235615	0.921131
C51	C	1.258094	-0.664927	0.421146
C52	C	1.758094	-0.164927	0.921146
C53	C	1.258177	-1.020691	0.421070
C54	C	1.758177	-0.520691	0.921070
C55	C	1.258191	-1.091384	0.421050
C56	C	1.758191	-0.591384	0.921050
C57	C	1.151618	-1.087016	0.330077
C58	C	1.651618	-0.587016	0.830077
C59	C	1.151602	-1.016328	0.330092
C60	C	1.651602	-0.516328	0.830092
C61	C	1.204879	-0.983169	0.375593
C62	C	1.704879	-0.483169	0.875593
C63	C	1.204864	-0.906520	0.375607
C64	C	1.704864	-0.406520	0.875607
C65	C	1.204849	-0.845428	0.375615
C66	C	1.704849	-0.345428	0.875615
C67	C	0.725817	-0.355963	0.356003
C68	C	1.225817	0.144037	0.856003
C69	C	0.684523	-0.395338	0.395496
C70	C	1.184523	0.104662	0.895496
C71	C	0.590118	-0.391479	0.391618
C72	C	1.090118	0.108521	0.891618
C73	C	0.820231	-0.359822	0.359880
C74	C	1.320231	0.140178	0.859880
C75	C	1.422203	-0.384586	0.384702
C76	C	1.922203	0.115414	0.884702
C77	C	1.514868	-0.388404	0.388528
C78	C	2.014868	0.111596	0.888528
C79	C	1.204656	-0.375589	0.551577
C80	C	1.704656	0.124411	1.051577
C81	C	1.204692	-0.375599	0.626810
C82	C	1.704692	0.124401	1.126810
C83	C	1.204762	-0.199770	0.375723
C84	C	1.704762	0.300230	0.875723
C85	C	1.204908	-0.124545	0.375558
C86	C	1.704908	0.375455	0.875558
C87	C	1.204867	-0.375678	0.199187
C88	C	1.704867	0.124322	0.699187
C89	C	1.204917	-0.375701	0.123957
C90	C	1.704917	0.124299	0.623957
C91	C	1.258057	-0.334553	0.664347
C92	C	1.758057	0.165447	1.164347
C93	C	1.258093	-0.334570	0.735036
C94	C	1.758093	0.165430	1.235036
C95	C	1.204758	-0.375629	0.768188
C96	C	1.704758	0.124371	1.268188
C97	C	1.151391	-0.416680	0.730647
C98	C	1.651391	0.083320	1.230647
C99	C	1.151361	-0.416667	0.659959
C100	C	1.651361	0.083333	1.159959
C101	C	1.151514	-0.416735	1.015725
C102	C	1.651514	0.083265	1.515725
C103	C	1.151547	-0.416744	1.086419
C104	C	1.651547	0.083256	1.586419
C105	C	1.258246	-0.334638	1.090803
C106	C	1.758246	0.165362	1.590803
C107	C	1.258216	-0.334625	1.020115
C108	C	1.758216	0.165375	1.520115
C109	C	1.204852	-0.375678	0.982580
C110	C	1.704852	0.124322	1.482580
C111	C	1.204815	-0.375661	0.905930
C112	C	1.704815	0.124339	1.405930
C113	C	1.204790	-0.375643	0.844837
C114	C	1.704790	0.124357	1.344837
H115	H	1.108130	-0.630013	0.293128
H116	H	1.608130	-0.130013	0.793128
N117	N	1.312530	-0.631064	0.467616
N118	N	1.812530	-0.131064	0.967616
N119	N	1.389464	-0.642130	0.466302
N120	N	1.889464	-0.142130	0.966302
H121	H	1.427910	-0.618216	0.499125
H122	H	1.927910	-0.118216	0.999125
N123	N	0.729098	-0.441257	0.441581
N124	N	1.229098	0.058743	0.941581
N125	N	0.690327	-0.478273	0.478720
N126	N	1.190327	0.021727	0.978720
H127	H	0.721809	-0.510701	0.511269
H128	H	1.221809	-0.010701	1.011269
N129	N	0.681218	-0.310046	0.309937
N130	N	1.181218	0.189954	0.809937
N131	N	0.603480	-0.306940	0.306817
N132	N	1.103480	0.193060	0.806817
H133	H	0.571972	-0.274510	0.274285
H134	H	1.071972	0.225490	0.774285
N135	N	1.097103	-0.765113	0.283681
N136	N	1.597103	-0.265113	0.783681
N137	N	1.049524	-0.731598	0.243077
N138	N	1.549524	-0.231598	0.743077
H139	H	1.011076	-0.755512	0.210255
H140	H	1.511076	-0.255512	0.710255
N141	N	1.312536	-0.292601	0.630496
N142	N	1.812536	0.207399	1.130496
N143	N	1.360179	-0.255956	0.664023
N144	N	1.860179	0.244044	1.164023
H145	H	1.398658	-0.226326	0.640118
H146	H	1.898658	0.273674	1.140118
H147	H	1.301549	-0.993701	0.458127
H148	H	1.801549	-0.493701	0.958127
N149	N	1.312538	-0.773956	0.467587
N150	N	1.812538	-0.273956	0.967587
N151	N	1.312547	-0.837069	0.467568
N152	N	1.812547	-0.337069	0.967568
H153	H	1.350988	-0.864148	0.500379
H154	H	1.850988	-0.364148	1.000379
N155	N	1.096910	-0.458631	0.764497
N156	N	1.596910	0.041369	1.264497
N157	N	1.102385	-0.521314	0.756778
N158	N	1.602385	-0.021314	1.256778
H159	H	1.063904	-0.550943	0.780682
H160	H	1.563904	-0.050943	1.280682
H161	H	1.301547	-0.301145	0.765596
H162	H	1.801547	0.198855	1.265596
N163	N	1.096860	-0.458594	0.621603
N164	N	1.596860	0.041406	1.121603
N165	N	1.126146	-0.502943	0.583317
N166	N	1.626146	-0.002943	1.083317
H167	H	1.087657	-0.532557	0.556228
H168	H	1.587657	-0.032557	1.056228
N169	N	1.312695	-0.292675	0.986262
N170	N	1.812695	0.207325	1.486262
N171	N	1.360340	-0.256028	1.019786
N172	N	1.860340	0.243972	1.519786
H173	H	1.398819	-0.226401	0.995879
H174	H	1.898819	0.273599	1.495879
N175	N	1.312753	-0.292706	1.129156
N176	N	1.812753	0.207294	1.629156
N177	N	1.312777	-0.292720	1.192270
N178	N	1.812777	0.207280	1.692270
H179	H	1.351268	-0.263104	1.219356
H180	H	1.851268	0.236896	1.719356
N181	N	1.097013	-0.458678	0.977396
N182	N	1.597013	0.041322	1.477396
N183	N	1.102503	-0.521364	0.985481
N184	N	1.602503	-0.021364	1.485481
H185	H	1.064009	-0.550990	0.958410
H186	H	1.564009	-0.050990	1.458410
N187	N	1.097163	-0.978006	0.283628
N188	N	1.597163	-0.478006	0.783628
N189	N	1.049595	-1.007622	0.243011
N190	N	1.549595	-0.507622	0.743011
H191	H	1.011144	-0.980558	0.210196
H192	H	1.511144	-0.480558	0.710196
N193	N	1.097201	-1.120898	0.283601
N194	N	1.597201	-0.620898	0.783601
N195	N	1.097219	-1.184012	0.283590
N196	N	1.597219	-0.684012	0.783590
H197	H	1.058790	-1.207942	0.250765
H198	H	1.558790	-0.707942	0.750765
H199	H	1.108117	-0.450185	1.113409
H200	H	1.608117	0.049815	1.613409
H201	H	1.301591	-1.121937	0.458087
H202	H	1.801591	-0.621937	0.958087
