data_functionalizedCrystal
_audit_creation_method	'MofGen! by Chris Wilmer'
_symmetry_space_group_name_H-M	'P1'
_symmetry_Int_Tables_number	1
_symmetry_cell_setting	triclinic
loop_
_symmetry_equiv_pos_as_xyz
  x,y,z
_cell_length_a	10.723022
_cell_length_b	9.565339
_cell_length_c	10.723022
_cell_angle_alpha	90.002306
_cell_angle_beta	95.532774
_cell_angle_gamma	90.003287
loop_
_atom_site_label
_atom_site_type_symbol
_atom_site_fract_x
_atom_site_fract_y
_atom_site_fract_z
O1	O	1.657188	0.116244	-0.175009
O2	O	1.294035	0.116248	-0.191764
O3	O	1.483989	0.116244	-0.001810
O4	O	1.467234	0.116248	-0.364963
O5	O	1.483974	-0.116276	-0.001822
O6	O	1.294020	-0.116272	-0.191776
O7	O	1.657173	-0.116276	-0.175021
Zn8	Zn	1.475594	-0.153192	-0.183400
Zn9	Zn	1.475614	0.153164	-0.183385
O10	O	1.467219	-0.116272	-0.364975
C11	C	1.247528	-0.000011	-0.190551
C12	C	1.108974	-0.000010	-0.186905
N13	N	1.475590	-0.362271	-0.183410
C14	C	0.890795	-0.000006	-0.289421
C15	C	1.033998	-0.000007	-0.293193
C16	C	1.387715	-0.453472	-0.271228
C17	C	1.500691	-0.546652	-0.296407
C18	C	1.362663	-0.546646	-0.158241
C19	C	1.588622	-0.453399	-0.208646
C20	C	1.450520	-0.453385	-0.070430
C21	C	1.563577	-0.546523	-0.095562
C22	C	1.703680	-0.000014	-0.176234
C23	C	1.842234	-0.000006	-0.179881
N24	N	1.475628	0.362243	-0.183365
C25	C	1.468445	-0.000011	-0.411469
C26	C	1.472092	-0.000010	-0.550023
C27	C	1.581632	-0.000010	-0.598583
C28	C	1.585404	-0.000008	-0.741786
C29	C	1.482763	-0.000014	0.044683
C30	C	1.479116	-0.000006	0.183238
H31	H	0.826352	0.000004	-0.380409
N32	N	1.527335	-0.598087	-0.416224
N33	N	1.621654	-0.672813	-0.425323
H34	H	1.640465	-0.709139	-0.509944
H35	H	1.313471	-0.412616	-0.345562
N36	N	1.695795	-0.000029	-0.517770
N37	N	1.772221	-0.098044	-0.522911
H38	H	1.852854	-0.098060	-0.465839
N39	N	1.708472	-0.402222	-0.235461
N40	N	1.727784	-0.273523	-0.239848
H41	H	1.812425	-0.237375	-0.258787
H42	H	1.679191	0.000042	-0.783598
H43	H	1.075809	-0.000015	-0.386980
N44	N	1.242850	-0.598061	-0.131560
N45	N	1.180698	-0.674532	-0.209030
H46	H	1.096079	-0.710845	-0.190197
H47	H	1.637987	-0.587123	-0.021274
H48	H	1.067171	0.000027	-0.093113
H49	H	1.385324	0.000001	-0.774959
H50	H	1.381103	-0.000017	-0.614466
H51	H	0.906677	0.000001	-0.088892
H52	H	1.429255	-0.412386	0.025065
