data_functionalizedCrystal
_audit_creation_method	'MofGen! by Chris Wilmer'
_symmetry_space_group_name_H-M	'P1'
_symmetry_Int_Tables_number	1
_symmetry_cell_setting	triclinic
loop_
_symmetry_equiv_pos_as_xyz
  x,y,z
_cell_length_a	13.033293
_cell_length_b	16.625539
_cell_length_c	13.032721
_cell_angle_alpha	82.846360
_cell_angle_beta	74.815879
_cell_angle_gamma	82.790144
loop_
_atom_site_label
_atom_site_type_symbol
_atom_site_fract_x
_atom_site_fract_y
_atom_site_fract_z
Zn1	Zn	1.570217	-0.631280	0.216821
Zn2	Zn	2.070217	-0.131280	0.716821
Zn3	Zn	1.547533	-0.511623	0.394466
Zn4	Zn	2.047533	-0.011623	0.894466
Zn5	Zn	1.392579	-0.481235	0.239396
Zn6	Zn	1.892579	0.018765	0.739396
Zn7	Zn	1.369996	-0.631187	0.416927
Zn8	Zn	1.869996	-0.131187	0.916927
O9	O	1.470081	-0.563831	0.316903
O10	O	1.970081	-0.063831	0.816903
O11	O	1.715850	-0.628163	0.221539
O12	O	2.215850	-0.128163	0.721539
O13	O	1.526936	-0.394760	0.373943
O14	O	2.026936	0.105240	0.873943
O15	O	1.435087	-0.488460	0.087759
O16	O	1.935087	0.011540	0.587759
O17	O	1.699185	-0.540252	0.352054
O18	O	2.199185	-0.040252	0.852054
O19	O	1.565598	-0.598697	0.071174
O20	O	2.065598	-0.098697	0.571174
O21	O	1.413091	-0.372434	0.260013
O22	O	1.913091	0.127566	0.760013
O23	O	1.240941	-0.488370	0.281793
O24	O	1.740941	0.011630	0.781793
O25	O	1.396598	-0.744031	0.390336
O26	O	1.896598	-0.244031	0.890336
O27	O	1.224350	-0.598539	0.412225
O28	O	1.724350	-0.098539	0.912225
O29	O	1.543700	-0.744099	0.243319
O30	O	2.043700	-0.244099	0.743319
O31	O	1.505038	-0.540162	0.546088
O32	O	2.005038	-0.040162	1.046088
O33	O	1.374603	-0.628005	0.562590
O34	O	1.874603	-0.128005	1.062590
C35	C	1.194104	-0.540147	0.351897
C36	C	1.694104	-0.040147	0.851897
C37	C	1.076036	-0.530037	0.366893
C38	C	1.576036	-0.030037	0.866893
C39	C	1.031631	-0.569110	0.309103
C40	C	1.531631	-0.069110	0.809103
C41	C	0.909602	-0.558661	0.324601
C42	C	1.409602	-0.058661	0.824601
C43	C	1.470161	-0.774139	0.316815
C44	C	1.970161	-0.274139	0.816815
C45	C	1.470194	-0.863760	0.316777
C46	C	1.970194	-0.363760	0.816777
C47	C	1.470258	-1.191930	0.316652
C48	C	1.970258	-0.691930	0.816652
C49	C	1.470237	-1.100623	0.316691
C50	C	1.970237	-0.600623	0.816691
C51	C	1.470227	-1.027848	0.316715
C52	C	1.970227	-0.527848	0.816715
C53	C	1.470205	-0.936535	0.316752
C54	C	1.970205	-0.436535	0.816752
C55	C	1.747136	-0.587608	0.281773
C56	C	2.247136	-0.087608	0.781773
C57	C	1.865201	-0.597740	0.266802
C58	C	2.365201	-0.097740	0.766802
C59	C	1.434937	-0.587391	0.592877
C60	C	1.934937	-0.087391	1.092877
C61	C	1.419999	-0.597505	0.710927
C62	C	1.919999	-0.097505	1.210927
C63	C	1.470073	-0.354340	0.316906
C64	C	1.970073	0.145660	0.816906
C65	C	1.470284	-0.264712	0.316618
C66	C	1.970284	0.235288	0.816618
C67	C	1.505392	-0.540199	0.039847
C68	C	2.005392	-0.040199	0.539847
C69	C	1.520439	-0.530129	-0.078217
C70	C	2.020439	-0.030129	0.421783
C71	C	1.477934	-0.558593	0.755351
C72	C	1.977934	-0.058593	1.255351
C73	C	1.462497	-0.569046	0.877362
C74	C	1.962497	-0.069046	1.377362
H75	H	0.917521	-0.638926	0.205843
H76	H	1.417521	-0.138926	0.705843
H77	H	1.358975	-0.638562	0.763222
H78	H	1.858975	-0.138562	1.263222
H79	H	1.538967	-0.517544	0.703057
H80	H	2.038967	-0.017544	1.203057
C81	C	1.380047	-0.624509	0.947996
C82	C	1.880047	-0.124509	1.447996
H83	H	1.380482	-0.624255	1.020735
H84	H	1.880482	-0.124255	1.520735
H85	H	1.397834	-0.678477	0.927842
H86	H	1.897834	-0.178477	1.427842
H87	H	1.310950	-0.604999	0.938998
H88	H	1.810950	-0.104999	1.438998
C89	C	1.005360	-0.474398	0.449236
C90	C	1.505360	0.025602	0.949236
H91	H	0.932613	-0.474679	0.448857
H92	H	1.432613	0.025321	0.948857
H93	H	1.025441	-0.420445	0.431326
H94	H	1.525441	0.079555	0.931326
H95	H	1.014412	-0.493756	0.518338
H96	H	1.514412	0.006244	1.018338
H97	H	0.857281	-0.517469	0.385552
H98	H	1.357281	-0.017469	0.885552
C99	C	1.102302	-0.624754	0.226763
C100	C	1.602302	-0.124754	0.726763
H101	H	1.058619	-0.647910	0.192511
H102	H	1.558619	-0.147910	0.692511
H103	H	1.140424	-0.666990	0.261993
H104	H	1.640424	-0.166990	0.761993
H105	H	1.151452	-0.593685	0.174971
H106	H	1.651452	-0.093685	0.674971
C107	C	1.602867	-0.474647	0.851154
C108	C	2.102867	0.025353	1.351154
H109	H	1.602417	-0.474886	0.778416
H110	H	2.102417	0.025114	1.278416
H111	H	1.671969	-0.494132	0.860143
H112	H	2.171969	0.005868	1.360143
H113	H	1.585045	-0.420680	0.871323
H114	H	2.085045	0.079320	1.371323
