data_functionalizedCrystal
_audit_creation_method	'MofGen! by Chris Wilmer'
_symmetry_space_group_name_H-M	'P1'
_symmetry_Int_Tables_number	1
_symmetry_cell_setting	triclinic
loop_
_symmetry_equiv_pos_as_xyz
  x,y,z
_cell_length_a	10.489741
_cell_length_b	13.596369
_cell_length_c	14.519709
_cell_angle_alpha	90.001336
_cell_angle_beta	84.109659
_cell_angle_gamma	90.003268
loop_
_atom_site_label
_atom_site_type_symbol
_atom_site_fract_x
_atom_site_fract_y
_atom_site_fract_z
O1	O	1.692701	0.081733	0.130108
O2	O	2.192701	0.581733	0.630108
O3	O	1.321378	0.081748	0.142322
O4	O	1.821378	0.581748	0.642322
O5	O	1.516885	0.081731	0.002030
O6	O	2.016885	0.581731	0.502030
O7	O	1.497194	0.081750	0.270400
O8	O	1.997194	0.581750	0.770400
O9	O	1.516861	-0.081851	0.002038
O10	O	2.016861	0.418149	0.502038
O11	O	1.321354	-0.081834	0.142329
O12	O	1.821354	0.418166	0.642329
O13	O	1.692677	-0.081850	0.130116
O14	O	2.192677	0.418150	0.630116
Zn15	Zn	1.507012	-0.107814	0.136224
Zn16	Zn	2.007012	0.392186	0.636224
Zn17	Zn	1.507043	0.107713	0.136214
Zn18	Zn	2.007043	0.607713	0.636214
O19	O	1.497170	-0.081833	0.270408
O20	O	1.997170	0.418167	0.770408
C21	C	1.273844	-0.000041	0.141403
C22	C	1.773844	0.499959	0.641403
C23	C	1.132243	-0.000035	0.138643
C24	C	1.632243	0.499965	0.638643
N25	N	1.506999	-0.254906	0.136230
N26	N	2.006999	0.245094	0.636230
C27	C	1.507006	-0.343904	0.136232
C28	C	2.007006	0.156096	0.636232
C29	C	1.507018	-0.455556	0.136226
C30	C	2.007018	0.044444	0.636226
C31	C	1.507035	-0.544546	0.136216
C32	C	2.007035	-0.044546	0.636216
C33	C	1.507049	-0.656205	0.136210
C34	C	2.007049	-0.156205	0.636210
C35	C	1.065034	-0.000051	0.049380
C36	C	1.565034	0.499949	0.549380
C37	C	0.972479	0.080605	0.091543
C38	C	1.472479	0.580605	0.591543
C39	C	0.972489	-0.080675	0.091572
C40	C	1.472489	0.419325	0.591572
C41	C	1.041554	0.080687	0.180843
C42	C	1.541554	0.580687	0.680843
C43	C	1.041573	-0.080665	0.180860
C44	C	1.541573	0.419335	0.680860
C45	C	0.949046	0.000010	0.223088
C46	C	1.449046	0.500010	0.723088
C47	C	1.740211	-0.000058	0.131035
C48	C	2.240211	0.499942	0.631035
C49	C	1.881812	-0.000057	0.133794
C50	C	2.381812	0.499943	0.633794
C51	C	1.515955	-0.000060	-0.032331
C52	C	2.015955	0.499940	0.467669
C53	C	1.513205	-0.000061	-0.134727
C54	C	2.013205	0.499939	0.365273
N55	N	1.507066	0.254805	0.136200
N56	N	2.007066	0.754805	0.636200
C57	C	1.503082	-0.000035	-0.509678
C58	C	2.003082	0.499965	-0.009678
C59	C	1.505893	-0.000042	-0.405355
C60	C	2.005893	0.499958	0.094645
C61	C	1.508143	-0.000048	-0.322206
C62	C	2.008143	0.499952	0.177794
C63	C	1.510955	-0.000054	-0.217876
C64	C	2.010955	0.499946	0.282124
C65	C	1.498100	-0.000039	0.304768
C66	C	1.998100	0.499961	0.804768
C67	C	1.500850	-0.000032	0.407165
C68	C	2.000850	0.499968	0.907165
H69	H	1.115488	0.000045	-0.024000
H70	H	1.615488	0.500045	0.476000
H71	H	1.071998	0.148952	0.218580
H72	H	1.571998	0.648952	0.718580
H73	H	0.941868	0.148790	0.053771
H74	H	1.441868	0.648790	0.553771
H75	H	0.941895	-0.148864	0.053790
H76	H	1.441895	0.351136	0.553790
O77	O	0.888954	0.000021	0.310657
O78	O	1.388954	0.500021	0.810657
C79	C	0.755142	-0.000765	0.307096
C80	C	1.255142	0.499235	0.807096
H81	H	0.732526	-0.032199	0.237823
H82	H	1.232526	0.467801	0.737823
H83	H	0.716626	0.077526	0.314842
H84	H	1.216626	0.577526	0.814842
C85	C	0.719332	-0.026310	0.471401
C86	C	1.219332	0.473690	0.971401
C87	C	0.691554	-0.064926	0.386322
C88	C	1.191554	0.435074	0.886322
H89	H	0.680106	-0.065883	0.520273
H90	H	1.180106	0.434117	1.020273
H91	H	0.809484	-0.025777	0.473801
H92	H	1.309484	0.474223	0.973801
H93	H	0.687234	0.038932	0.477842
H94	H	1.187234	0.538932	0.977842
H95	H	0.723666	-0.130161	0.379876
H96	H	1.223666	0.369839	0.879876
H97	H	0.601406	-0.065471	0.383922
H98	H	1.101406	0.434529	0.883922
H99	H	1.072216	-0.148853	0.218601
H100	H	1.572216	0.351147	0.718601
