data_functionalizedCrystal
_audit_creation_method	'MofGen! by Chris Wilmer'
_symmetry_space_group_name_H-M	'P1'
_symmetry_Int_Tables_number	1
_symmetry_cell_setting	triclinic
loop_
_symmetry_equiv_pos_as_xyz
  x,y,z
_cell_length_a	23.532407
_cell_length_b	22.010155
_cell_length_c	16.109301
_cell_angle_alpha	90.005917
_cell_angle_beta	83.155079
_cell_angle_gamma	90.010358
loop_
_atom_site_label
_atom_site_type_symbol
_atom_site_fract_x
_atom_site_fract_y
_atom_site_fract_z
O1	O	0.755641	0.050451	0.100924
O2	O	0.589832	0.050469	0.115527
O3	O	0.677291	0.050454	-0.012842
O4	O	0.668182	0.050467	0.229292
O5	O	0.677265	-0.050597	-0.012842
O6	O	0.589805	-0.050581	0.115527
O7	O	0.755615	-0.050599	0.100924
Cu8	Cu	0.672708	-0.059817	0.108225
Cu9	Cu	0.672739	0.059687	0.108225
O10	O	0.668155	-0.050583	0.229292
C11	C	0.568601	-0.000054	0.115155
C12	C	0.505380	-0.000047	0.114037
C13	C	0.106531	-0.000071	0.182990
C14	C	0.047127	-0.000074	0.181951
O15	O	0.010619	-0.000093	0.245872
N16	N	0.024220	-0.000078	0.105636
C17	C	0.060719	-0.000083	0.030355
O18	O	0.035780	-0.000087	-0.034652
C19	C	0.120122	-0.000084	0.031395
C20	C	0.143026	-0.000074	0.107715
C21	C	0.129436	-0.000062	0.259304
C22	C	0.188836	-0.000057	0.260342
C23	C	0.225331	-0.000061	0.185066
C24	C	0.202426	-0.000069	0.108753
C25	C	0.156621	-0.000094	-0.043886
C26	C	0.216027	-0.000095	-0.042840
C27	C	0.238932	-0.000085	0.033480
C28	C	0.298322	-0.000068	0.034516
N29	N	0.321229	-0.000065	0.110831
C30	C	0.284734	-0.000061	0.186106
C31	C	-0.064031	-0.000083	0.028178
C32	C	-0.123433	-0.000078	0.027138
C33	C	-0.137021	-0.000070	0.178734
C34	C	-0.077618	-0.000071	0.179774
C35	C	-0.041123	-0.000080	0.104493
C36	C	0.409479	-0.000051	0.188281
C37	C	0.468885	-0.000043	0.189312
C38	C	0.482468	-0.000054	0.037716
C39	C	0.423067	-0.000058	0.036684
C40	C	0.386574	-0.000059	0.111973
O41	O	0.334865	-0.000052	-0.029371
O42	O	0.309682	-0.000066	0.251102
N43	N	0.672690	-0.143869	0.108225
C44	C	0.707270	-0.563650	0.158386
C45	C	0.707276	-0.627257	0.158384
O46	O	0.736657	-0.660150	0.201027
N47	N	0.672750	-0.659076	0.108216
C48	C	0.638219	-0.627284	0.058040
O49	O	0.608853	-0.660190	0.015367
C50	C	0.638216	-0.563678	0.058038
C51	C	0.672740	-0.531862	0.108216
C52	C	0.741791	-0.531834	0.208559
C53	C	0.741784	-0.468231	0.208562
C54	C	0.707254	-0.436443	0.158392
C55	C	0.672732	-0.468259	0.108219
C56	C	0.603689	-0.531887	0.007858
C57	C	0.603689	-0.468276	0.007860
C58	C	0.638213	-0.436461	0.058038
C59	C	0.638195	-0.372868	0.058052
N60	N	0.672722	-0.341049	0.108220
C61	C	0.707251	-0.372837	0.158390
C62	C	0.638229	-0.760862	0.058046
C63	C	0.638229	-0.824467	0.058052
C64	C	0.707287	-0.824436	0.158395
C65	C	0.707284	-0.760830	0.158393
C66	C	0.672756	-0.729043	0.108215
C67	C	0.707232	-0.239266	0.158393
C68	C	0.707219	-0.175657	0.158395
C69	C	0.638164	-0.175694	0.058049
C70	C	0.638174	-0.239297	0.058050
C71	C	0.672712	-0.271081	0.108225
O72	O	0.608832	-0.339936	0.015428
O73	O	0.736618	-0.339924	0.201047
C74	C	0.776845	-0.000075	0.101295
C75	C	0.840067	-0.000078	0.102414
C76	C	0.676909	-0.000072	-0.043814
C77	C	0.675803	-0.000073	-0.136100
N78	N	0.672761	0.143739	0.108219
C79	C	0.725127	-0.000068	-0.358760
C80	C	0.724083	-0.000063	-0.445473
C81	C	0.620315	-0.000054	-0.424782
C82	C	0.621360	-0.000055	-0.338072
C83	C	0.673768	-0.000065	-0.305063
C84	C	0.671679	-0.000059	-0.478486
C85	C	0.670547	-0.000054	-0.572503
C86	C	0.674900	-0.000070	-0.211040
C87	C	0.668537	-0.000057	0.260264
C88	C	0.669644	-0.000052	0.352551
H89	H	-0.166747	-0.000070	0.240027
H90	H	0.735402	-0.850329	0.199247
O91	O	0.569459	-0.000077	-0.456987
C92	C	0.579549	-0.000064	-0.545035
H93	H	0.623991	-0.019197	-0.565770
H94	H	0.546011	-0.029401	-0.571385
H95	H	0.576803	0.048415	-0.569148
H96	H	0.207479	-0.000049	0.322489
H97	H	-0.034320	-0.000085	-0.033129
O98	O	0.604769	-0.855437	0.009269
C99	C	0.639506	-0.892210	-0.047740
H100	H	0.681755	-0.901730	-0.022182
H101	H	0.616617	-0.936943	-0.056839
H102	H	0.648237	-0.867695	-0.110299
H103	H	0.767801	-0.000075	-0.331888
H104	H	0.579534	-0.000051	-0.294349
H105	H	-0.058974	-0.000067	0.241920
H106	H	0.487530	-0.000035	0.251464
H107	H	0.137983	-0.000102	-0.106033
H108	H	0.099727	-0.000061	0.320606
O109	O	0.251396	-0.000073	-0.116046
C110	C	0.218436	-0.000096	-0.183623
H111	H	0.174102	0.019032	-0.162138
H112	H	0.240353	0.029239	-0.236337
H113	H	0.214203	-0.048578	-0.207037
O114	O	-0.145584	-0.000107	-0.047073
C115	C	-0.100627	-0.000092	-0.113284
H116	H	-0.060279	-0.019219	-0.090315
H117	H	-0.113036	-0.029434	-0.166599
H118	H	-0.092213	0.048386	-0.136477
H119	H	0.765906	-0.000064	-0.489190
O120	O	0.400880	0.000020	-0.037502
C121	C	0.419519	0.052363	-0.083350
H122	H	0.460718	0.069819	-0.061045
H123	H	0.427767	0.040589	-0.152655
H124	H	0.385145	0.089005	-0.073426
O125	O	0.374116	-0.000020	0.261492
C126	C	0.407081	-0.000025	0.329062
H127	H	0.451419	0.019104	0.307568
H128	H	0.385176	0.029320	0.381774
H129	H	0.411304	-0.048500	0.352484
H130	H	0.512193	-0.000055	-0.023571
O131	O	0.740812	-0.144846	0.207160
C132	C	0.771280	-0.186547	0.251452
H133	H	0.774614	-0.231888	0.217004
H134	H	0.816058	-0.168157	0.256280
H135	H	0.747806	-0.193317	0.316887
H136	H	0.735357	-0.265137	0.199250
O137	O	0.604627	-0.730081	0.009287
C138	C	0.574168	-0.771811	-0.035002
H139	H	0.570846	-0.817148	-0.000553
H140	H	0.529385	-0.753452	-0.039826
H141	H	0.597641	-0.778577	-0.100438
H142	H	0.769899	-0.442332	0.249418
H143	H	0.769912	-0.557709	0.249413
H144	H	0.575576	-0.557781	-0.033003
O145	O	0.740876	-0.730021	0.207153
C146	C	0.771338	-0.771725	0.251450
H147	H	0.774667	-0.817067	0.217005
H148	H	0.816118	-0.753340	0.256278
H149	H	0.747862	-0.778489	0.316884
H150	H	0.575571	-0.442399	-0.033003
H151	H	0.610054	-0.265203	0.017202
H152	H	0.610049	-0.149801	0.017204
