data_functionalizedCrystal
_audit_creation_method	'MofGen! by Chris Wilmer'
_symmetry_space_group_name_H-M	'P1'
_symmetry_Int_Tables_number	1
_symmetry_cell_setting	triclinic
loop_
_symmetry_equiv_pos_as_xyz
  x,y,z
_cell_length_a	19.121241
_cell_length_b	29.839131
_cell_length_c	19.120904
_cell_angle_alpha	92.401768
_cell_angle_beta	89.875472
_cell_angle_gamma	92.469032
loop_
_atom_site_label
_atom_site_type_symbol
_atom_site_fract_x
_atom_site_fract_y
_atom_site_fract_z
Zn1	Zn	1.054826	-0.162205	-0.442145
Zn2	Zn	1.554826	0.337795	0.057855
Zn3	Zn	1.059726	-0.234000	-0.324886
Zn4	Zn	1.559726	0.266000	0.175114
Zn5	Zn	0.942592	-0.161938	-0.319914
Zn6	Zn	1.442592	0.338062	0.180086
Zn7	Zn	0.937533	-0.240364	-0.437070
Zn8	Zn	1.437533	0.259636	0.062930
O9	O	0.998669	-0.199627	-0.381004
O10	O	1.498669	0.300373	0.118996
O11	O	1.153584	-0.169177	-0.430794
O12	O	1.653584	0.330823	0.069206
O13	O	1.048356	-0.221665	-0.226123
O14	O	1.548356	0.278335	0.273877
O15	O	0.957546	-0.099106	-0.336171
O16	O	1.457546	0.400894	0.163829
O17	O	1.157184	-0.221924	-0.344644
O18	O	1.657184	0.278076	0.155356
O19	O	1.040004	-0.099302	-0.425973
O20	O	1.540004	0.400698	0.074027
O21	O	0.962298	-0.168722	-0.222470
O22	O	1.462298	0.331278	0.277530
O23	O	0.843813	-0.174894	-0.331251
O24	O	1.343813	0.325106	0.168749
O25	O	0.948924	-0.232771	-0.535847
O26	O	1.448924	0.267229	-0.035847
O27	O	0.840096	-0.232513	-0.417325
O28	O	1.340096	0.267487	0.082675
O29	O	1.035098	-0.175348	-0.539575
O30	O	1.535098	0.324652	-0.039575
O31	O	1.043451	-0.297712	-0.339724
O32	O	1.543451	0.202288	0.160276
O33	O	0.953676	-0.302388	-0.422146
O34	O	1.453676	0.197612	0.077854
C35	C	0.816516	-0.204365	-0.373199
C36	C	1.316516	0.295635	0.126801
C37	C	0.738590	-0.206404	-0.369876
C38	C	1.238590	0.293596	0.130124
C39	C	0.700103	-0.179946	-0.413237
C40	C	1.200103	0.320054	0.086763
C41	C	0.626883	-0.181859	-0.410109
C42	C	1.126883	0.318141	0.089891
C43	C	0.592151	-0.210232	-0.363624
C44	C	1.092151	0.289768	0.136376
C45	C	0.630643	-0.236691	-0.320258
C46	C	1.130643	0.263309	0.179742
C47	C	0.703862	-0.234775	-0.323383
C48	C	1.203862	0.265225	0.176617
C49	C	0.371171	-0.217386	-0.351938
C50	C	0.871171	0.282614	0.148062
C51	C	0.297947	-0.219300	-0.348818
C52	C	0.797947	0.280700	0.151182
C53	C	0.294191	-0.164468	-0.438669
C54	C	0.794191	0.335532	0.061331
C55	C	0.367412	-0.162557	-0.441793
C56	C	0.867412	0.337443	0.058207
C57	C	0.405898	-0.189014	-0.398424
C58	C	0.905898	0.310986	0.101576
C59	C	0.517308	-0.212189	-0.360427
C60	C	1.017308	0.287811	0.139573
C61	C	0.480739	-0.187054	-0.401618
C62	C	0.980739	0.312946	0.098382
C63	C	0.998565	-0.316350	-0.380940
C64	C	1.498565	0.183650	0.119060
C65	C	0.998583	-0.366284	-0.380939
C66	C	1.498583	0.133716	0.119061
C67	C	1.041592	-0.675996	-0.427827
C68	C	1.541592	-0.175996	0.072173
C69	C	1.041667	-0.863669	-0.427873
C70	C	1.541667	-0.363669	0.072127
O71	O	1.078132	-0.887993	-0.467690
O72	O	1.578132	-0.387993	0.032310
N73	N	0.998785	-0.887068	-0.381087
N74	N	1.498785	-0.387068	0.118913
C75	C	0.955879	-0.863546	-0.334289
C76	C	1.455879	-0.363546	0.165711
O77	O	0.919401	-0.887756	-0.294501
O78	O	1.419401	-0.387756	0.205499
C79	C	0.955801	-0.675875	-0.334248
C80	C	1.455801	-0.175875	0.165752
C81	C	0.998691	-0.652478	-0.381032
C82	C	1.498691	-0.152478	0.118968
C83	C	1.084478	-0.652599	-0.474608
C84	C	1.584478	-0.152599	0.025392
C85	C	1.084462	-0.605684	-0.474594
C86	C	1.584462	-0.105684	0.025406
C87	C	1.041560	-0.582165	-0.427798
C88	C	1.541560	-0.082165	0.072202
C89	C	0.998674	-0.605563	-0.381017
C90	C	1.498674	-0.105563	0.118983
C91	C	0.912891	-0.652355	-0.287454
C92	C	1.412891	-0.152355	0.212546
C93	C	0.912874	-0.605434	-0.287449
C94	C	1.412874	-0.105434	0.212551
C95	C	0.955764	-0.582037	-0.334233
C96	C	1.455764	-0.082037	0.165767
C97	C	0.955757	-0.535129	-0.334208
C98	C	1.455757	-0.035129	0.165792
N99	N	0.998638	-0.511730	-0.380994
N100	N	1.498638	-0.011730	0.119006
C101	C	1.041540	-0.535248	-0.427789
C102	C	1.541540	-0.035248	0.072211
C103	C	0.955923	-0.962076	-0.334313
C104	C	1.455923	-0.462076	0.165687
C105	C	0.955943	-1.008994	-0.334323
C106	C	1.455943	-0.508994	0.165677
C107	C	1.041731	-1.009113	-0.427907
C108	C	1.541731	-0.509113	0.072093
C109	C	1.041714	-0.962194	-0.427894
C110	C	1.541714	-0.462194	0.072106
C111	C	0.998805	-0.938677	-0.381099
C112	C	1.498805	-0.438677	0.118901
C113	C	1.041503	-0.436722	-0.427755
C114	C	1.541503	0.063278	0.072245
C115	C	1.041485	-0.389803	-0.427734
C116	C	1.541485	0.110197	0.072266
C117	C	0.955695	-0.389688	-0.334153
C118	C	1.455695	0.110312	0.165847
C119	C	0.955716	-0.436603	-0.334170
C120	C	1.455716	0.063397	0.165830
C121	C	0.998622	-0.460119	-0.380977
C122	C	1.498622	0.039881	0.119023
O123	O	0.919305	-0.510776	-0.294416
O124	O	1.419305	-0.010776	0.205584
O125	O	1.078000	-0.511031	-0.467582
O126	O	1.578000	-0.011031	0.032418
C127	C	1.041609	-0.722912	-0.427842
C128	C	1.541609	-0.222912	0.072158
C129	C	0.998723	-0.746309	-0.381061
C130	C	1.498723	-0.246309	0.118939
C131	C	0.955821	-0.722791	-0.334265
C132	C	1.455821	-0.222791	0.165735
C133	C	0.998743	-0.793226	-0.381070
C134	C	1.498743	-0.293226	0.118930
C135	C	1.041645	-0.816745	-0.427865
C136	C	1.541645	-0.316745	0.072135
C137	C	1.084527	-0.793345	-0.474651
C138	C	1.584527	-0.293345	0.025349
C139	C	1.084510	-0.746430	-0.474637
C140	C	1.584510	-0.246430	0.025363
C141	C	0.912940	-0.746190	-0.287479
C142	C	1.412940	-0.246190	0.212521
C143	C	0.912960	-0.793105	-0.287497
C144	C	1.412960	-0.293105	0.212503
C145	C	0.955862	-0.816624	-0.334292
C146	C	1.455862	-0.316624	0.165708
C147	C	1.181534	-0.194870	-0.388840
C148	C	1.681534	0.305130	0.111160
C149	C	1.259460	-0.192843	-0.392179
C150	C	1.759460	0.307157	0.107821
C151	C	0.990901	-0.204799	-0.563859
C152	C	1.490901	0.295201	-0.063859
C153	C	0.987590	-0.207004	-0.641782
C154	C	1.487590	0.292996	-0.141782
C155	C	0.998793	-0.082447	-0.381084
C156	C	1.498793	0.417553	0.118916
C157	C	0.998845	-0.032512	-0.381118
C158	C	1.498845	0.467488	0.118882
C159	C	1.030898	-0.178143	-0.680332
C160	C	1.530898	0.321857	-0.180332
C161	C	1.027779	-0.180213	-0.753547
C162	C	1.527779	0.319787	-0.253547
C163	C	0.981354	-0.211145	-0.788212
C164	C	1.481354	0.288855	-0.288212
C165	C	0.938041	-0.240007	-0.749657
C166	C	1.438041	0.259993	-0.249657
C167	C	0.941157	-0.237935	-0.676442
C168	C	1.441157	0.262065	-0.176442
C169	C	0.969698	-0.218896	-1.009175
C170	C	1.469698	0.281104	-0.509175
C171	C	0.966586	-0.220967	-1.082395
C172	C	1.466586	0.279033	-0.582395
C173	C	1.056324	-0.161172	-1.086281
C174	C	1.556324	0.338828	-0.586281
C175	C	1.059439	-0.159104	-1.013065
C176	C	1.559439	0.340896	-0.513065
C177	C	1.016123	-0.187964	-0.974516
C178	C	1.516123	0.312036	-0.474516
C179	C	0.978167	-0.213263	-0.863050
C180	C	1.478167	0.286737	-0.363050
C181	C	1.019308	-0.185844	-0.899679
C182	C	1.519308	0.314156	-0.399679
C183	C	1.006448	-0.194441	-0.198861
C184	C	1.506448	0.305559	0.301139
C185	C	1.009895	-0.192106	-0.120945
C186	C	1.509895	0.307894	0.379055
H187	H	0.728376	-0.156843	-0.451093
H188	H	1.228376	0.343157	0.048907
H189	H	1.068705	-0.152956	-0.652113
H190	H	1.568705	0.347044	-0.152113
C191	C	0.405611	-0.131340	-0.492924
C192	C	0.905611	0.368660	0.007076
N193	N	0.434384	-0.107827	-0.531437
N194	N	0.934384	0.392173	-0.031437
H195	H	0.934437	-0.242402	-0.977798
H196	H	1.434437	0.257598	-0.477798
H197	H	0.735197	-0.256319	-0.288073
H198	H	1.235197	0.243681	0.211927
H199	H	1.063047	-0.156713	-0.784932
H200	H	1.563047	0.343287	-0.284932
H201	H	1.097245	-0.133917	-0.984846
H202	H	1.597245	0.366083	-0.484846
C203	C	0.251852	-0.135360	-0.486359
C204	C	0.751852	0.364640	0.013641
N205	N	0.219961	-0.113431	-0.522276
N206	N	0.719961	0.386569	-0.022276
C207	C	0.908709	-0.936214	-0.282839
C208	C	1.408709	-0.436214	0.217161
N209	N	0.873146	-0.916736	-0.244069
N210	N	1.373146	-0.416736	0.255931
H211	H	1.091588	-0.137675	-1.117675
H212	H	1.591588	0.362325	-0.617675
H213	H	1.076638	-0.943147	-0.465990
H214	H	1.576638	-0.443147	0.034010
C215	C	0.908539	-0.462341	-0.282702
C216	C	1.408539	0.037659	0.217298
N217	N	0.873000	-0.481723	-0.243940
N218	N	1.373000	0.018277	0.256060
H219	H	0.877966	-0.671397	-0.249357
H220	H	1.377966	-0.171397	0.250643
C221	C	0.915511	-0.254995	-1.120525
C222	C	1.415511	0.245005	-0.620525
N223	N	0.877044	-0.280624	-1.149244
N224	N	1.377044	0.219376	-0.649244
C225	C	0.865671	-0.579568	-0.235969
C226	C	1.365671	-0.079568	0.264031
N227	N	0.830119	-0.560087	-0.197193
N228	N	1.330119	-0.060087	0.302807
H229	H	0.509021	-0.163951	-0.439464
H230	H	1.009021	0.336049	0.060536
H231	H	0.920767	-0.370532	-0.296050
H232	H	1.420767	0.129468	0.203950
H233	H	0.489021	-0.235291	-0.322578
H234	H	0.989021	0.264709	0.177422
C235	C	0.886966	-0.274029	-0.787790
C236	C	1.386966	0.225971	-0.287790
N237	N	0.848496	-0.299655	-0.816511
N238	N	1.348496	0.200345	-0.316511
H239	H	0.905884	-0.261432	-0.645055
H240	H	1.405884	0.238568	-0.145055
C241	C	0.592435	-0.267901	-0.269122
C242	C	1.092435	0.232099	0.230878
N243	N	0.563658	-0.291410	-0.230607
N244	N	1.063658	0.208590	0.269393
C245	C	1.131647	-0.579953	-0.526058
C246	C	1.631647	-0.079953	-0.026058
N247	N	1.167190	-0.560575	-0.564823
N248	N	1.667190	-0.060575	-0.064823
H249	H	0.269670	-0.242407	-0.310963
H250	H	0.769670	0.257593	0.189037
C251	C	0.413496	-0.246491	-0.304234
C252	C	0.913496	0.253509	0.195766
N253	N	0.445378	-0.268415	-0.268302
N254	N	0.945378	0.231585	0.231698
H255	H	1.057104	-0.160658	-0.871452
H256	H	1.557104	0.339342	-0.371452
H257	H	1.076414	-0.370754	-0.465832
H258	H	1.576414	0.129246	0.034168
C259	C	1.088707	-0.462583	-0.479240
C260	C	1.588707	0.037417	0.020760
N261	N	1.124265	-0.482061	-0.518015
N262	N	1.624265	0.017939	-0.018015
H263	H	1.076664	-1.028269	-0.466009
H264	H	1.576664	-0.528269	0.033991
H265	H	0.595549	-0.160316	-0.445420
H266	H	1.095549	0.339684	0.054580
C267	C	1.131684	-0.678461	-0.526086
C268	C	1.631684	-0.178461	-0.026086
N269	N	1.167248	-0.697938	-0.564857
N270	N	1.667248	-0.197938	-0.064857
H271	H	0.940371	-0.238450	-0.891283
H272	H	1.440371	0.261550	-0.391283
C273	C	1.131718	-0.819224	-0.526127
C274	C	1.631718	-0.319224	-0.026127
N275	N	1.167257	-0.838719	-0.564900
N276	N	1.667257	-0.338719	-0.064900
C277	C	0.908767	-1.034725	-0.282851
C278	C	1.408767	-0.534725	0.217149
N279	N	0.873229	-1.054105	-0.244084
N280	N	1.373229	-0.554105	0.255916
H281	H	0.878035	-0.812151	-0.249393
H282	H	1.378035	-0.312151	0.250607
C283	C	0.865733	-0.720327	-0.236006
C284	C	1.365733	-0.220327	0.263994
N285	N	0.830173	-0.700849	-0.197233
N286	N	1.330173	-0.200849	0.302767
H287	H	1.119435	-0.727383	-0.512733
H288	H	1.619435	-0.227383	-0.012733
