data_functionalizedCrystal
_audit_creation_method	'MofGen! by Chris Wilmer'
_symmetry_space_group_name_H-M	'P1'
_symmetry_Int_Tables_number	1
_symmetry_cell_setting	triclinic
loop_
_symmetry_equiv_pos_as_xyz
  x,y,z
_cell_length_a	19.188930
_cell_length_b	19.188925
_cell_length_c	18.266242
_cell_angle_alpha	89.993996
_cell_angle_beta	89.977082
_cell_angle_gamma	83.143665
loop_
_atom_site_label
_atom_site_type_symbol
_atom_site_fract_x
_atom_site_fract_y
_atom_site_fract_z
O1	O	0.926148	0.087169	-0.061116
O2	O	1.426148	0.587169	0.438884
O3	O	0.722836	0.098903	-0.061065
O4	O	1.222836	0.598903	0.438935
O5	O	0.830361	-0.008620	-0.061088
O6	O	1.330361	0.491380	0.438912
O7	O	0.818623	0.194692	-0.061093
O8	O	1.318623	0.694692	0.438907
O9	O	0.830343	-0.008625	0.060674
O10	O	1.330343	0.491375	0.560674
O11	O	0.722818	0.098898	0.060697
O12	O	1.222818	0.598898	0.560697
O13	O	0.926129	0.087163	0.060646
O14	O	1.426129	0.587163	0.560646
Zn15	Zn	0.824471	0.093030	0.080004
Zn16	Zn	1.324471	0.593030	0.580004
Zn17	Zn	0.824495	0.093037	-0.080423
Zn18	Zn	1.324495	0.593037	0.419577
O19	O	0.818605	0.194687	0.060669
O20	O	1.318605	0.694687	0.560669
C21	C	0.696816	0.098520	-0.000178
C22	C	1.196816	0.598520	0.499822
C23	C	0.619311	0.097380	-0.000159
C24	C	1.119311	0.597380	0.499841
C25	C	0.829972	-0.034634	-0.000207
C26	C	1.329972	0.465366	0.499793
C27	C	0.828833	-0.112138	-0.000209
C28	C	1.328833	0.387862	0.499791
C29	C	0.884297	-0.673909	-0.000241
C30	C	1.384297	-0.173909	0.499759
C31	C	0.885374	-0.601085	-0.000234
C32	C	1.385374	-0.101085	0.499766
C33	C	0.822282	-0.556151	-0.000219
C34	C	1.322282	-0.056151	0.499781
C35	C	0.758108	-0.584045	-0.000191
C36	C	1.258108	-0.084045	0.499809
C37	C	0.757033	-0.656867	-0.000190
C38	C	1.257033	-0.156867	0.499810
N39	N	0.776612	-0.435469	-0.041652
N40	N	1.276612	0.064531	0.458348
N41	N	0.777637	-0.366291	-0.041655
N42	N	1.277637	0.133709	0.458345
C43	C	0.825516	-0.336742	-0.000220
C44	C	1.325516	0.163258	0.499780
N45	N	0.872341	-0.378984	0.041208
N46	N	1.372341	0.121016	0.541208
N47	N	0.871318	-0.448168	0.041207
N48	N	1.371318	0.051832	0.541207
C49	C	0.823440	-0.477187	-0.000220
C50	C	1.323440	0.022813	0.499780
C51	C	0.890852	-0.229893	-0.000236
C52	C	1.390852	0.270107	0.499764
C53	C	0.891926	-0.157068	-0.000225
C54	C	1.391926	0.342932	0.499775
C55	C	0.764659	-0.140029	-0.000189
C56	C	1.264659	0.359971	0.499811
C57	C	0.763587	-0.212852	-0.000193
C58	C	1.263587	0.287148	0.499807
C59	C	0.826685	-0.257780	-0.000220
C60	C	1.326685	0.242220	0.499780
C61	C	0.574386	0.160471	-0.000172
C62	C	1.074386	0.660471	0.499828
C63	C	0.501563	0.159399	-0.000180
C64	C	1.001563	0.659399	0.499820
C65	C	0.473667	0.095233	-0.000189
C66	C	0.973667	0.595233	0.499811
C67	C	0.518602	0.032134	-0.000172
C68	C	1.018602	0.532134	0.499828
C69	C	0.591424	0.033207	-0.000157
C70	C	1.091424	0.533207	0.499843
N71	N	0.365694	0.046188	-0.041659
N72	N	0.865694	0.546188	0.458341
N73	N	0.296516	0.045172	-0.041675
N74	N	0.796516	0.545172	0.458325
C75	C	0.254259	0.091995	-0.000234
C76	C	0.754259	0.591995	0.499766
N77	N	0.283792	0.139882	0.041214
N78	N	0.783792	0.639882	0.541214
N79	N	0.352977	0.140899	0.041227
N80	N	0.852977	0.640899	0.541227
C81	C	0.394705	0.094062	-0.000206
C82	C	0.894705	0.594062	0.499794
C83	C	0.130369	0.153928	-0.000255
C84	C	0.630369	0.653928	0.499745
C85	C	0.057544	0.152854	-0.000258
C86	C	0.557544	0.652854	0.499742
C87	C	0.074586	0.025586	-0.000258
C88	C	0.574586	0.525586	0.499742
C89	C	0.147409	0.026663	-0.000247
C90	C	0.647409	0.526663	0.499753
C91	C	0.175296	0.090835	-0.000249
C92	C	0.675296	0.590835	0.499751
C93	C	0.952150	0.087546	-0.000243
C94	C	1.452150	0.587546	0.499757
C95	C	1.029654	0.088687	-0.000267
C96	C	1.529654	0.588687	0.499733
C97	C	0.818993	0.220700	-0.000213
C98	C	1.318993	0.720700	0.499787
C99	C	0.820132	0.298205	-0.000217
C100	C	1.320132	0.798205	0.499783
N101	N	0.824460	0.093024	0.189491
N102	N	1.324460	0.593024	0.689491
N103	N	0.824512	0.093037	-0.189910
N104	N	1.324512	0.593037	0.310090
C105	C	0.872087	0.045436	0.227790
C106	C	1.372087	0.545436	0.727790
C107	C	0.872092	0.045433	0.304435
C108	C	1.372092	0.545433	0.804435
C109	C	0.824475	0.093030	0.342778
C110	C	1.324475	0.593030	0.842778
C111	C	0.776839	0.140621	0.304469
C112	C	1.276839	0.640621	0.804469
C113	C	0.776831	0.140619	0.227826
C114	C	1.276831	0.640619	0.727826
N115	N	0.815398	0.154838	0.463110
N116	N	1.315398	0.654838	0.963110
N117	N	0.815410	0.154838	0.535918
N118	N	1.315410	0.654838	1.035918
C119	C	0.824495	0.093040	0.573700
C120	C	1.324495	0.593040	1.073700
N121	N	0.833581	0.031240	0.535924
N122	N	1.333581	0.531240	1.035924
N123	N	0.833573	0.031240	0.463109
N124	N	1.333573	0.531240	0.963109
C125	C	0.824478	0.093038	0.425885
C126	C	1.324478	0.593038	0.925885
C127	C	0.872130	0.045445	0.695106
C128	C	1.372130	0.545445	1.195106
C129	C	0.872129	0.045440	0.771752
C130	C	1.372129	0.545440	1.271752
C131	C	0.776880	0.140635	0.771786
C132	C	1.276880	0.640635	1.271786
C133	C	0.776877	0.140633	0.695141
C134	C	1.276877	0.640633	1.195141
C135	C	0.824505	0.093039	0.656806
C136	C	1.324505	0.593039	1.156806
H137	H	0.937626	-0.578376	-0.000253
H138	H	1.437626	-0.078376	0.499747
H139	H	0.051874	-0.026659	-0.000311
H140	H	0.551874	0.473341	0.499689
C141	C	0.161048	0.224513	-0.000250
C142	C	0.661048	0.724513	0.499750
H143	H	0.123859	0.261936	-0.000248
H144	H	0.623859	0.761936	0.499752
H145	H	0.189124	0.227580	-0.042706
H146	H	0.689124	0.727580	0.457294
H147	H	0.189080	0.227574	0.042221
H148	H	0.689080	0.727574	0.542221
C149	C	0.686449	-0.687543	-0.000173
C150	C	1.186449	-0.187543	0.499827
H151	H	0.649026	-0.650355	-0.000167
H152	H	1.149026	-0.150355	0.499833
H153	H	0.683379	-0.715605	0.042286
H154	H	1.183379	-0.215605	0.542286
H155	H	0.683393	-0.715589	-0.042641
H156	H	1.183393	-0.215589	0.457359
C157	C	0.960256	-0.279316	-0.000256
C158	C	1.460256	0.220684	0.499744
H159	H	0.998626	-0.252275	-0.000258
H160	H	1.498626	0.247725	0.499742
H161	H	0.962489	-0.308073	-0.042718
H162	H	1.462489	0.191927	0.457282
H163	H	0.962475	-0.308082	0.042209
H164	H	1.462475	0.191918	0.542209
H165	H	0.706738	-0.547455	-0.000176
H166	H	1.206738	-0.047455	0.499824
H167	H	0.628003	-0.018171	-0.000147
H168	H	1.128003	0.481829	0.499853
H169	H	0.020966	0.204232	-0.000265
H170	H	0.520966	0.704232	0.499735
H171	H	0.183988	-0.024713	-0.000241
H172	H	0.683988	0.475287	0.499759
H173	H	0.738107	0.179386	0.803004
H174	H	1.238107	0.679386	1.303004
H175	H	0.713288	-0.103444	-0.000170
H176	H	1.213288	0.396556	0.499830
C177	C	0.724493	0.192988	0.653010
C178	C	1.224493	0.692988	1.153010
H179	H	0.696138	0.221339	0.686821
H180	H	1.196138	0.721339	1.186821
H181	H	0.695506	0.167944	0.623129
H182	H	1.195506	0.667944	1.123129
H183	H	0.749521	0.221992	0.623096
H184	H	1.249521	0.721992	1.123096
C185	C	0.962511	-0.126393	-0.000253
C186	C	1.462511	0.373607	0.499747
H187	H	0.999933	-0.163583	-0.000276
H188	H	1.499933	0.336417	0.499724
H189	H	0.965577	-0.098344	0.042207
H190	H	1.465577	0.401656	0.542207
H191	H	0.965574	-0.098335	-0.042720
H192	H	1.465574	0.401665	0.457280
C193	C	0.924507	-0.006913	0.652931
C194	C	1.424507	0.493087	1.152931
H195	H	0.917687	-0.000094	0.601799
H196	H	1.417687	0.499906	1.101799
H197	H	0.917069	-0.053492	0.665502
H198	H	1.417069	0.446508	1.165502
H199	H	0.971084	0.000555	0.665466
H200	H	1.471084	0.500555	1.165466
C201	C	0.693004	-0.243529	-0.000178
C202	C	1.193004	0.256471	0.499822
H203	H	0.655582	-0.206340	-0.000174
H204	H	1.155582	0.293660	0.499826
H205	H	0.689933	-0.271588	0.042282
H206	H	1.189933	0.228412	0.542282
H207	H	0.689947	-0.271577	-0.042645
H208	H	1.189947	0.228423	0.457355
H209	H	0.464977	0.210777	-0.000189
H210	H	0.964977	0.710777	0.499811
C211	C	0.953701	-0.723328	-0.000270
C212	C	1.453701	-0.223328	0.499730
H213	H	0.943873	-0.770693	-0.000274
H214	H	1.443873	-0.270693	0.499726
H215	H	0.980024	-0.714900	0.042179
H216	H	1.480024	-0.214900	0.542179
H217	H	0.980019	-0.714887	-0.042749
H218	H	1.480019	-0.214887	0.457251
C219	C	0.605059	0.231058	-0.000161
C220	C	1.105059	0.731058	0.499839
H221	H	0.567869	0.268479	-0.000162
H222	H	1.067869	0.768479	0.499838
H223	H	0.633140	0.234128	-0.042613
H224	H	1.133140	0.734128	0.457387
H225	H	0.633084	0.234117	0.042315
H226	H	1.133084	0.734117	0.542315
C227	C	0.924485	-0.006911	0.346576
C228	C	1.424485	0.493089	0.846576
H229	H	0.917665	-0.000094	0.397712
H230	H	1.417665	0.499906	0.897712
H231	H	0.971054	0.000560	0.333989
H232	H	1.471054	0.500560	0.833989
H233	H	0.917049	-0.053497	0.334030
H234	H	1.417049	0.446503	0.834030
H235	H	0.910867	0.006681	0.196579
H236	H	1.410867	0.506681	0.696579
C237	C	0.724448	0.192965	0.346640
C238	C	1.224448	0.692965	0.846640
H239	H	0.696073	0.221300	0.312850
H240	H	1.196073	0.721300	0.812850
H241	H	0.749459	0.221976	0.376528
H242	H	1.249459	0.721976	0.876528
H243	H	0.695471	0.167902	0.376550
H244	H	1.195471	0.667902	0.876550
C245	C	0.487920	-0.038447	-0.000187
C246	C	0.987920	0.461553	0.499813
H247	H	0.438115	-0.030051	-0.000206
H248	H	0.938115	0.469949	0.499794
H249	H	0.503329	-0.064421	0.042276
H250	H	1.003329	0.435579	0.542276
H251	H	0.503381	-0.064412	-0.042651
H252	H	1.003381	0.435588	0.457349
C253	C	0.724443	0.192973	0.185695
C254	C	1.224443	0.692973	0.685695
H255	H	0.696086	0.221323	0.219505
H256	H	1.196086	0.721323	0.719505
H257	H	0.695458	0.167929	0.155812
H258	H	1.195458	0.667929	0.655812
H259	H	0.749472	0.221978	0.155784
H260	H	1.249472	0.721978	0.655784
H261	H	0.910911	0.006685	0.802936
H262	H	1.410911	0.506685	1.302936
