data_functionalizedCrystal
_audit_creation_method	'MofGen! by Chris Wilmer'
_symmetry_space_group_name_H-M	'P1'
_symmetry_Int_Tables_number	1
_symmetry_cell_setting	triclinic
loop_
_symmetry_equiv_pos_as_xyz
  x,y,z
_cell_length_a	19.288856
_cell_length_b	17.766277
_cell_length_c	19.288859
_cell_angle_alpha	89.997401
_cell_angle_beta	96.866756
_cell_angle_gamma	90.011390
loop_
_atom_site_label
_atom_site_type_symbol
_atom_site_fract_x
_atom_site_fract_y
_atom_site_fract_z
O1	O	-0.921355	-0.062624	0.086620
O2	O	-0.421355	0.437376	0.586620
O3	O	-0.719093	-0.062618	0.098315
O4	O	-0.219093	0.437382	0.598315
O5	O	-0.826071	-0.062621	-0.008664
O6	O	-0.326071	0.437379	0.491336
O7	O	-0.814378	-0.062621	0.193598
O8	O	-0.314378	0.437379	0.693598
O9	O	-0.826052	0.062567	-0.008667
O10	O	-0.326052	0.562567	0.491333
O11	O	-0.719074	0.062571	0.098312
O12	O	-0.219074	0.562571	0.598312
O13	O	-0.921336	0.062564	0.086617
O14	O	-0.421336	0.562564	0.586617
Cu15	Cu	-0.820203	0.073998	0.092464
Cu16	Cu	-0.320203	0.573998	0.592464
Cu17	Cu	-0.820226	-0.074052	0.092467
Cu18	Cu	-0.320226	0.425948	0.592467
O19	O	-0.814358	0.062568	0.193595
O20	O	-0.314358	0.562568	0.693595
C21	C	-0.693207	-0.000023	0.097938
C22	C	-0.193207	0.499977	0.597938
C23	C	-0.616103	-0.000020	0.096811
C24	C	-0.116103	0.499980	0.596811
C25	C	-0.825686	-0.000029	-0.034542
C26	C	-0.325686	0.499971	0.465458
C27	C	-0.824558	-0.000033	-0.111646
C28	C	-0.324558	0.499967	0.388354
C29	C	-0.052061	-0.000009	0.151959
C30	C	0.447939	0.499991	0.651959
C31	C	-0.124507	-0.000015	0.153024
C32	C	0.375493	0.499985	0.653024
C33	C	-0.169216	-0.000014	0.090254
C34	C	0.330784	0.499986	0.590254
C35	C	-0.141472	-0.000028	0.026415
C36	C	0.358528	0.499972	0.526415
C37	C	-0.069027	-0.000030	0.025352
C38	C	0.430973	0.499970	0.525352
C39	C	-0.290480	0.043845	0.043439
C40	C	0.209520	0.543845	0.543439
C41	C	-0.362924	0.043852	0.044504
C42	C	0.137076	0.543852	0.544504
C43	C	-0.392662	-0.000011	0.093530
C44	C	0.107338	0.499989	0.593530
C45	C	-0.349945	-0.043871	0.141501
C46	C	0.150055	0.456129	0.641501
C47	C	-0.277500	-0.043873	0.140439
C48	C	0.222500	0.456127	0.640439
C49	C	-0.247771	-0.000013	0.091400
C50	C	0.252229	0.499987	0.591400
C51	C	-0.498952	-0.000009	0.158520
C52	C	0.001048	0.499991	0.658520
C53	C	-0.571400	-0.000019	0.159582
C54	C	-0.071400	0.499981	0.659582
C55	C	-0.588363	-0.000025	0.032971
C56	C	-0.088363	0.499975	0.532971
C57	C	-0.515916	-0.000022	0.031910
C58	C	-0.015916	0.499978	0.531910
C59	C	-0.471215	-0.000011	0.094687
C60	C	0.028785	0.499989	0.594687
N61	N	-0.820193	0.178129	0.092461
N62	N	-0.320193	0.678129	0.592461
C63	C	0.052778	-0.000027	0.086996
C64	C	0.552778	0.499973	0.586996
C65	C	-0.024325	-0.000019	0.088128
C66	C	0.475675	0.499981	0.588128
N67	N	-0.820242	-0.178182	0.092465
N68	N	-0.320242	0.321818	0.592465
C69	C	-0.862179	0.217508	0.134483
C70	C	-0.362179	0.717508	0.634483
C71	C	-0.862190	0.296310	0.134481
C72	C	-0.362190	0.796310	0.634481
C73	C	-0.820201	0.335729	0.092465
C74	C	-0.320201	0.835729	0.592465
C75	C	-0.778212	0.296340	0.050434
C76	C	-0.278212	0.796340	0.550434
C77	C	-0.778208	0.217540	0.050432
C78	C	-0.278208	0.717540	0.550432
C79	C	-0.757589	0.460590	0.090710
C80	C	-0.257589	0.960590	0.590710
C81	C	-0.757592	0.539389	0.090717
C82	C	-0.257592	1.039389	0.590717
C83	C	-0.820216	0.578775	0.092467
C84	C	-0.320216	1.078775	0.592467
C85	C	-0.882838	0.539353	0.094225
C86	C	-0.382838	1.039353	0.594225
C87	C	-0.882833	0.460553	0.094223
C88	C	-0.382833	0.960553	0.594223
C89	C	-0.820202	0.421175	0.092462
C90	C	-0.320202	0.921175	0.592462
C91	C	-0.862218	0.703601	0.134490
C92	C	-0.362218	1.203601	0.634490
C93	C	-0.862230	0.782404	0.134483
C94	C	-0.362230	1.282404	0.634483
C95	C	-0.778246	0.782433	0.050439
C96	C	-0.278246	1.282433	0.550439
C97	C	-0.778240	0.703631	0.050442
C98	C	-0.278240	1.203631	0.550442
C99	C	-0.820225	0.664220	0.092471
C100	C	-0.320225	1.164220	0.592471
C101	C	-0.814744	-0.000026	0.219473
C102	C	-0.314744	0.499974	0.719473
C103	C	-0.815871	-0.000027	0.296577
C104	C	-0.315871	0.499973	0.796577
C105	C	-0.760727	-0.000040	0.860619
C106	C	-0.260727	0.499960	1.360619
C107	C	-0.759662	-0.000034	0.788173
C108	C	-0.259662	0.499966	1.288173
C109	C	-0.822431	-0.000036	0.743464
C110	C	-0.322431	0.499964	1.243464
C111	C	-0.886271	-0.000026	0.771207
C112	C	-0.386271	0.499974	1.271207
C113	C	-0.887335	-0.000024	0.843652
C114	C	-0.387335	0.499976	1.343652
C115	C	-0.869251	-0.043896	0.622192
C116	C	-0.369251	0.456104	1.122192
C117	C	-0.868185	-0.043902	0.549748
C118	C	-0.368185	0.456098	1.049748
C119	C	-0.819154	-0.000037	0.520018
C120	C	-0.319154	0.499963	1.020018
C121	C	-0.771177	0.043824	0.562742
C122	C	-0.271177	0.543824	1.062742
C123	C	-0.772241	0.043826	0.635188
C124	C	-0.272241	0.543826	1.135188
C125	C	-0.821285	-0.000037	0.664908
C126	C	-0.321285	0.499963	1.164908
C127	C	-0.754163	-0.000036	0.413729
C128	C	-0.254163	0.499964	0.913729
C129	C	-0.753101	-0.000025	0.341280
C130	C	-0.253101	0.499975	0.841280
C131	C	-0.879712	-0.000025	0.324316
C132	C	-0.379712	0.499975	0.824316
C133	C	-0.880772	-0.000028	0.396763
C134	C	-0.380772	0.499972	0.896763
C135	C	-0.817996	-0.000037	0.441465
C136	C	-0.317996	0.499963	0.941465
H137	H	-0.147095	-0.000000	0.205004
H138	H	0.352905	0.500000	0.705004
O139	O	-0.486000	-0.000024	-0.036939
O140	O	0.014000	0.499976	0.463061
H141	H	-0.428114	-0.000031	-0.027134
H142	H	0.071886	0.499969	0.472866
H143	H	-0.397698	0.079569	0.005447
H144	H	0.102302	0.579569	0.505447
O145	O	-0.003851	-0.000003	0.219668
O146	O	0.496149	0.499997	0.719668
H147	H	0.051186	-0.000000	0.208208
H148	H	0.551186	0.500000	0.708208
O149	O	-0.231427	-0.091180	0.192171
O150	O	0.268573	0.408820	0.692171
H151	H	-0.194030	-0.054186	0.224428
H152	H	0.305970	0.445814	0.724428
H153	H	-0.374155	-0.079587	0.181424
H154	H	0.125845	0.420413	0.681424
H155	H	-0.593980	-0.000018	0.211562
H156	H	-0.093980	0.499982	0.711562
H157	H	-0.744047	0.671568	0.016225
H158	H	-0.244047	1.171568	0.516225
H159	H	-0.896405	0.671510	0.168712
H160	H	-0.396405	1.171510	0.668712
H161	H	-0.733178	0.079541	0.669971
H162	H	-0.233178	0.579541	1.169971
H163	H	-0.266275	0.079565	0.003513
H164	H	0.233725	0.579565	0.503513
O165	O	-0.039106	-0.000036	-0.043498
O166	O	0.460894	0.499964	0.456502
H167	H	-0.006494	0.050988	-0.047008
H168	H	0.493506	0.550988	0.452992
H169	H	-0.896381	0.328379	0.168703
H170	H	-0.396381	0.828379	0.668703
H171	H	-0.939315	-0.000019	0.866233
H172	H	-0.439315	0.499981	1.366233
O173	O	-0.947418	-0.000022	0.276107
O174	O	-0.447418	0.499978	0.776107
H175	H	-0.949978	-0.051049	0.242698
H176	H	-0.449978	0.448951	0.742698
O177	O	-0.922137	-0.091218	0.654250
O178	O	-0.422137	0.408782	1.154250
H179	H	-0.914820	-0.083845	0.711803
H180	H	-0.414820	0.416155	1.211803
O181	O	-0.450730	-0.000010	0.226223
O182	O	0.049270	0.499990	0.726223
H183	H	-0.482191	-0.000018	0.270790
H184	H	0.017809	0.499982	0.770790
O185	O	-0.953972	-0.000028	0.722987
O186	O	-0.453972	0.499972	1.222987
H187	H	-0.984515	0.051003	0.732817
H188	H	-0.484515	0.551003	1.232817
H189	H	-0.896369	0.185424	0.168704
H190	H	-0.396369	0.685424	0.668704
O191	O	-0.732973	0.824928	0.005096
O192	O	-0.232973	1.324928	0.505096
H193	H	-0.677407	0.809817	0.020333
H194	H	-0.177407	1.309817	0.520333
O195	O	-0.732939	0.175050	0.005094
O196	O	-0.232939	0.675050	0.505094
H197	H	-0.695504	0.139143	0.038479
H198	H	-0.195504	0.639143	0.538479
O199	O	-0.636575	-0.000018	-0.034734
O200	O	-0.136575	0.499982	0.465266
H201	H	-0.670001	-0.051039	-0.037276
H202	H	-0.170001	0.448961	0.462724
H203	H	-0.177878	-0.000030	-0.024693
H204	H	0.322122	0.499970	0.475307
H205	H	-0.706589	0.428529	0.089289
H206	H	-0.206589	0.928529	0.589289
H207	H	-0.932751	-0.000027	0.419345
H208	H	-0.432751	0.499973	0.919345
H209	H	-0.933832	0.571420	0.095653
H210	H	-0.433832	1.071420	0.595653
H211	H	-0.933823	0.428458	0.095652
H212	H	-0.433823	0.928458	0.595652
H213	H	-0.896426	0.814465	0.168701
H214	H	-0.396426	1.314465	0.668701
H215	H	-0.709610	-0.000046	0.897012
H216	H	-0.209610	0.499954	1.397012
O217	O	-0.919940	-0.091191	0.503667
O218	O	-0.419940	0.408809	1.003667
H219	H	-0.954227	-0.121676	0.536507
H220	H	-0.454227	0.378324	1.036507
O221	O	-0.690051	0.581902	0.088825
O222	O	-0.190051	1.081902	0.588825
H223	H	-0.700571	0.643313	0.089131
H224	H	-0.200571	1.143313	0.589131
H225	H	-0.744026	0.328441	0.016223
H226	H	-0.244026	0.828441	0.516223
O227	O	-0.690813	-0.000049	0.758244
O228	O	-0.190813	0.499951	1.258244
H229	H	-0.647341	-0.000060	0.801499
H230	H	-0.147341	0.499940	1.301499
H231	H	-0.731251	0.079543	0.538538
H232	H	-0.231251	0.579543	1.038538
H233	H	-0.703047	-0.000038	0.450127
H234	H	-0.203047	0.499962	0.950127
H235	H	-0.701120	-0.000027	0.318701
H236	H	-0.201120	0.499973	0.818701
