data_functionalizedCrystal
_audit_creation_method	'MofGen! by Chris Wilmer'
_symmetry_space_group_name_H-M	'P1'
_symmetry_Int_Tables_number	1
_symmetry_cell_setting	triclinic
loop_
_symmetry_equiv_pos_as_xyz
  x,y,z
_cell_length_a	6.817900
_cell_length_b	17.296766
_cell_length_c	19.453114
_cell_angle_alpha	99.775157
_cell_angle_beta	101.709288
_cell_angle_gamma	102.621013
loop_
_atom_site_label
_atom_site_type_symbol
_atom_site_fract_x
_atom_site_fract_y
_atom_site_fract_z
V1	V	-4.007298	-0.111963	-0.226119
O2	O	-3.994722	0.004520	-0.214543
O3	O	-3.959389	-0.221177	-0.231567
O4	O	-3.950207	-0.110619	-0.321547
O5	O	-4.003969	-0.106804	-0.123940
V6	V	-4.491988	-0.097986	-0.213048
O7	O	-4.265995	-0.142624	-0.254792
O8	O	-4.683488	-0.067326	-0.184376
O9	O	-4.316690	0.011228	-0.207601
O10	O	-4.621960	-0.214469	-0.224625
O11	O	-4.612714	-0.103146	-0.315228
O12	O	-4.325872	-0.099331	-0.117621
C13	C	-3.804791	-0.247789	-0.229805
C14	C	-3.846849	-0.337075	-0.234895
C15	C	-3.832162	-0.367306	-0.172219
C16	C	-3.871700	-0.451201	-0.177004
C17	C	-3.925910	-0.504863	-0.244466
C18	C	-3.940602	-0.474627	-0.307147
C19	C	-3.901079	-0.390734	-0.302361
C20	C	-4.046980	-0.758751	-0.262171
C21	C	-4.086497	-0.842649	-0.266952
C22	C	-4.017595	-0.819216	-0.136809
C23	C	-3.978063	-0.735323	-0.132029
C24	C	-3.992769	-0.705095	-0.194710
C25	C	-3.966318	-0.590616	-0.249359
C26	C	-3.952375	-0.619343	-0.189817
C27	C	-3.793077	-0.106760	-0.344582
C28	C	-3.827685	-0.106383	-0.422640
C29	C	-4.025745	-0.110238	-0.463143
C30	C	-4.058264	-0.109884	-0.536487
C31	C	-3.892720	-0.105692	-0.569329
C32	C	-3.694630	-0.101832	-0.528816
C33	C	-3.662113	-0.102178	-0.455472
N34	N	-3.833168	-0.148108	-0.690816
N35	N	-3.864071	-0.147782	-0.760490
C36	C	-3.990682	-0.104648	-0.790311
N37	N	-4.085257	-0.061863	-0.747827
N38	N	-4.054358	-0.062193	-0.678147
C39	C	-3.927959	-0.105316	-0.648858
C40	C	-4.224014	-0.108118	-0.910341
C41	C	-4.256523	-0.107759	-0.983686
C42	C	-3.892888	-0.099715	-0.976016
C43	C	-3.860381	-0.100066	-0.902671
C44	C	-4.025953	-0.104271	-0.869839
C45	C	-4.134630	0.037835	-0.209361
C46	C	-4.071810	0.127121	-0.204276
C47	C	-4.146345	-0.103192	-0.094582
C48	C	-4.090975	-0.103565	-0.016523
H49	H	-3.913062	-0.366123	-0.353399
O50	O	-4.250789	-0.113790	-0.575848
C51	C	-4.609133	-0.190523	-0.618803
C52	C	-4.391201	-0.186202	-0.574217
H53	H	-4.722725	-0.249055	-0.617487
H54	H	-4.604060	-0.189615	-0.676884
H55	H	-4.661978	-0.136057	-0.595000
H56	H	-4.338225	-0.240657	-0.597957
H57	H	-4.396397	-0.187071	-0.516140
O58	O	-4.449044	-0.111644	-1.023029
C59	C	-4.807425	-0.188337	-1.065966
C60	C	-4.589492	-0.184050	-1.021403
H61	H	-4.921045	-0.246864	-1.064655
H62	H	-4.802386	-0.187417	-1.124048
H63	H	-4.860209	-0.133864	-1.042142
H64	H	-4.536576	-0.238511	-1.045165
H65	H	-4.594654	-0.184931	-0.963326
H66	H	-3.933935	-0.691636	-0.077095
H67	H	-4.160568	-0.113659	-0.436415
H68	H	-3.699105	-0.096935	-0.869695
H69	H	-3.788005	-0.323619	-0.117284
O70	O	-4.139101	-0.894889	-0.332429
C71	C	-4.230623	-1.034518	-0.397472
C72	C	-4.171034	-0.975448	-0.323279
H73	H	-4.256500	-1.099664	-0.390100
H74	H	-4.100264	-1.020711	-0.425745
H75	H	-4.379376	-1.026907	-0.431506
H76	H	-4.022333	-0.983026	-0.289187
H77	H	-4.301516	-0.989270	-0.295063
H78	H	-4.010459	-0.634317	-0.304286
H79	H	-3.500823	-0.099033	-0.422494
H80	H	-4.058932	-0.734149	-0.313210
O81	O	-3.857241	-0.480428	-0.116047
C82	C	-3.784827	-0.448336	0.013539
C83	C	-3.801080	-0.415127	-0.055439
H84	H	-3.739464	-0.395557	0.062558
H85	H	-3.661961	-0.483848	0.017492
H86	H	-3.941190	-0.490202	0.011626
H87	H	-3.644817	-0.373228	-0.053573
H88	H	-3.924047	-0.379662	-0.059366
O89	O	-4.003513	-0.848719	-0.075998
C90	C	-4.033760	-0.967572	-0.025685
C91	C	-4.049819	-0.934272	-0.094614
H92	H	-4.071146	-1.036744	-0.040711
H93	H	-4.148647	-0.948508	0.004455
H94	H	-3.869432	-0.942104	0.010239
H95	H	-4.214071	-0.959724	-0.130593
H96	H	-3.934813	-0.953329	-0.124699
H97	H	-4.358831	-0.111539	-0.883608
O98	O	-3.993198	-0.526862	-0.372621
C99	C	-4.084726	-0.666488	-0.437674
C100	C	-4.025144	-0.607424	-0.363477
H101	H	-4.110615	-0.731636	-0.430308
H102	H	-3.954358	-0.652679	-0.465942
H103	H	-4.233471	-0.658871	-0.471709
H104	H	-3.876451	-0.615008	-0.329385
H105	H	-4.155635	-0.621249	-0.335265
O106	O	-3.732173	-0.095534	-1.007967
C107	C	-3.520144	-0.020499	-1.072302
C108	C	-3.702228	-0.025149	-1.036156
H109	H	-3.495847	0.036412	-1.095089
H110	H	-3.556629	-0.076594	-1.117780
H111	H	-3.373046	-0.017847	-1.030746
H112	H	-3.849402	-0.027775	-1.077658
H113	H	-3.665566	0.030946	-0.990665
H114	H	-3.908246	-0.575648	-0.134890
O115	O	-3.533926	-0.097655	-0.560775
C116	C	-3.321916	-0.022628	-0.625121
C117	C	-3.503991	-0.027274	-0.588970
H118	H	-3.297628	0.034280	-0.647913
H119	H	-3.358406	-0.078727	-0.670596
H120	H	-3.174811	-0.019972	-0.583567
H121	H	-3.651171	-0.029904	-0.630471
H122	H	-3.467323	0.028824	-0.543482
