data_functionalizedCrystal
_audit_creation_method	'MofGen! by Chris Wilmer'
_symmetry_space_group_name_H-M	'P1'
_symmetry_Int_Tables_number	1
_symmetry_cell_setting	triclinic
loop_
_symmetry_equiv_pos_as_xyz
  x,y,z
_cell_length_a	12.759401
_cell_length_b	17.639999
_cell_length_c	12.759401
_cell_angle_alpha	78.794596
_cell_angle_beta	90.002245
_cell_angle_gamma	101.192479
loop_
_atom_site_label
_atom_site_type_symbol
_atom_site_fract_x
_atom_site_fract_y
_atom_site_fract_z
Zn1	Zn	1.690653	0.314753	0.509514
Zn2	Zn	1.726107	0.446882	0.298360
Zn3	Zn	1.515006	0.314742	0.333852
Zn4	Zn	1.550448	0.446881	0.473997
O5	O	1.620553	0.380814	0.403931
O6	O	1.842378	0.332286	0.481514
O7	O	1.698108	0.429349	0.156048
O8	O	1.508635	0.204146	0.386872
O9	O	1.868426	0.429360	0.326380
O10	O	1.637682	0.204155	0.515929
O11	O	1.543013	0.332266	0.182124
O12	O	1.372685	0.332265	0.352433
O13	O	1.569042	0.429358	0.625729
O14	O	1.398724	0.429347	0.455397
O15	O	1.672050	0.332285	0.651822
O16	O	1.732476	0.557479	0.291941
O17	O	1.603420	0.557478	0.420981
C18	C	1.347583	0.380805	0.403913
C19	C	1.230811	0.380820	0.403925
C20	C	1.189556	0.431447	0.457412
C21	C	1.079833	0.431450	0.457432
C22	C	1.052628	0.330196	0.350469
C23	C	1.162348	0.330190	0.350456
C24	C	0.937527	0.459847	0.573668
C25	C	0.896272	0.510487	0.627142
C26	C	0.952591	0.587621	0.622381
C27	C	1.050169	0.614130	0.564126
C28	C	1.091420	0.563495	0.510643
C29	C	1.035099	0.486350	0.515427
C30	C	1.304658	0.301801	0.234216
C31	C	1.345912	0.251169	0.180726
C32	C	1.289594	0.174034	0.185477
C33	C	1.192014	0.147527	0.243713
C34	C	1.150760	0.198159	0.297203
C35	C	1.207085	0.275293	0.292454
C36	C	1.675670	0.586155	0.348779
C37	C	1.699345	0.674000	0.325219
C38	C	1.440963	0.963048	0.583267
C39	C	1.463211	1.045592	0.561096
C40	C	1.597680	1.045527	0.426862
C41	C	1.575446	0.962981	0.449025
C42	C	1.497086	0.921748	0.527228
C43	C	1.631569	0.921682	0.392987
C44	C	1.609333	0.839143	0.415145
C45	C	1.530974	0.797904	0.493341
C46	C	1.474850	0.839209	0.549386
C47	C	1.709924	0.962917	0.314779
C48	C	1.766047	0.921618	0.258741
C49	C	1.743817	0.839077	0.280904
C50	C	1.665458	0.797838	0.359100
C51	C	1.799941	0.797772	0.224859
C52	C	1.777705	0.715234	0.247017
C53	C	1.643222	0.715300	0.381258
C54	C	1.894589	0.380825	0.403950
C55	C	2.011367	0.380829	0.403958
C56	C	1.620545	0.380823	0.677962
C57	C	1.620541	0.380826	0.794738
C58	C	1.565217	1.174672	0.459317
C59	C	1.541552	1.086827	0.482907
C60	C	1.566910	0.431365	0.836016
C61	C	1.566917	0.431370	0.945739
C62	C	1.674187	0.330289	0.972897
C63	C	1.674186	0.330289	0.863175
C64	C	1.554383	0.524575	1.070649
C65	C	1.500734	0.575108	1.111933
C66	C	1.401473	0.587237	1.073061
C67	C	1.355837	0.548822	0.992910
C68	C	1.409479	0.498283	0.951633
C69	C	1.508759	0.486170	0.990499
C70	C	1.686708	0.237082	0.738263
C71	C	1.740345	0.186539	0.696986
C72	C	1.839605	0.174402	0.735858
C73	C	1.885234	0.212803	0.816016
C74	C	1.831597	0.263346	0.857294
C75	C	1.732338	0.275484	0.818414
C76	C	1.620555	0.380826	1.130960
C77	C	1.620549	0.380830	1.014183
H78	H	1.071308	0.176568	0.344631
O79	O	1.329702	0.124954	0.133350
C80	C	1.386470	0.101980	-0.035898
C81	C	1.341075	0.157644	0.022999
H82	H	1.395658	0.128380	-0.125129
H83	H	1.467821	0.094024	-0.003733
H84	H	1.329460	0.042291	-0.022432
H85	H	1.398004	0.217363	0.009558
H86	H	1.259706	0.165532	-0.009176
O87	O	1.876043	0.837953	0.148950
C88	C	1.969818	0.965081	0.055243
C89	C	1.883630	0.919676	0.141261
H90	H	1.975964	1.031162	0.048983
H91	H	2.050181	0.948870	0.078110
H92	H	1.947059	0.948815	-0.025106
H93	H	1.906288	0.935917	0.221641
H94	H	1.803290	0.935891	0.118303
H95	H	0.918994	0.628852	0.665923
O96	O	1.832350	0.675232	0.192515
C97	C	1.968030	0.683870	0.056975
C98	C	1.906249	0.729269	0.118644
H99	H	2.027775	0.727539	-0.002780
H100	H	2.012577	0.645207	0.115585
H101	H	1.909411	0.645244	0.012413
H102	H	1.964795	0.767938	0.163208
H103	H	1.861685	0.767882	0.059981
O104	O	0.801576	0.484787	0.683893
C105	C	0.710301	0.460492	0.856065
C106	C	0.817605	0.489629	0.791922
H107	H	0.723227	0.464381	0.943423
H108	H	0.651104	0.498794	0.822024
H109	H	0.677139	0.396669	0.850239
H110	H	0.850862	0.553441	0.797722
H111	H	0.876731	0.451272	0.825981
O112	O	1.590216	0.248805	0.700616
C113	C	1.407503	0.189736	0.675767
C114	C	1.516702	0.176314	0.718455
H115	H	1.348044	0.131136	0.690154
H116	H	1.377023	0.232435	0.719091
H117	H	1.416627	0.215576	0.586374
H118	H	1.507667	0.150449	0.807840
H119	H	1.547145	0.133644	0.675052
O120	O	1.137459	0.072562	0.248262
C121	C	1.132775	-0.051356	0.193723
C122	C	1.194679	0.033515	0.188511
H123	H	1.179001	-0.082945	0.145403
H124	H	1.122744	-0.084195	0.280494
H125	H	1.050700	-0.049740	0.159070
H126	H	1.276785	0.031972	0.223110
H127	H	1.204624	0.066320	0.101723
O128	O	1.440755	0.276813	0.124229
C129	C	1.621257	0.258593	0.102489
C130	C	1.513904	0.229448	0.166545
H131	H	1.680434	0.220323	0.136691
H132	H	1.608477	0.254645	0.015128
H133	H	1.654357	0.322433	0.108272
H134	H	1.480746	0.165602	0.160849
H135	H	1.526748	0.233455	0.253878
O136	O	1.726205	0.281084	1.039295
C137	C	1.741095	0.146647	1.109032
C138	C	1.682115	0.202285	1.033779
H139	H	1.705457	0.082925	1.104614
H140	H	1.829535	0.160464	1.083732
H141	H	1.731909	0.155367	1.194529
H142	H	1.691216	0.193596	0.948260
H143	H	1.593698	0.188454	1.059169
H144	H	1.868755	0.294611	0.922567
H145	H	1.377161	0.929474	0.646955
O146	O	1.842149	0.961797	0.182831
C147	C	1.935930	1.088922	0.089122
C148	C	1.849741	1.043521	0.175141
H149	H	1.942080	1.155004	0.082861
H150	H	2.016292	1.072710	0.111990
H151	H	1.913170	1.072657	0.008774
H152	H	1.872400	1.059762	0.255521
H153	H	1.769402	1.059737	0.152182
O154	O	1.650872	0.512943	1.108393
C155	C	1.833540	0.572178	1.133138
C156	C	1.724320	0.585467	1.090362
H157	H	1.892958	0.630801	1.118556
H158	H	1.824533	0.546442	1.222565
H159	H	1.864004	0.529433	1.089890
H160	H	1.693794	0.628226	1.133530
H161	H	1.733391	0.611164	1.000928
H162	H	1.523221	0.472511	0.780298
H163	H	1.703180	0.155265	0.631724
O164	O	1.365051	0.461080	0.873722
C165	C	1.215687	0.440354	0.760003
C166	C	1.265879	0.482531	0.848247
H167	H	1.135488	0.457668	0.739396
H168	H	1.271393	0.458279	0.685727
H169	H	1.202993	0.373838	0.789616
H170	H	1.278575	0.549054	0.818735
H171	H	1.210149	0.464541	0.922505
H172	H	1.350529	0.364609	0.230351
H173	H	1.275002	0.558694	0.961276
H174	H	1.661478	1.079111	0.363187
O175	O	1.731628	1.043095	0.293424
C176	C	1.790399	1.161511	0.362399
C177	C	1.765878	1.070711	0.386721
H178	H	1.818074	1.183867	0.437819
H179	H	1.856087	1.183929	0.296928
H180	H	1.715107	1.183960	0.334453
H181	H	1.841107	1.048195	0.414711
H182	H	1.700149	1.048348	0.452156
O183	O	1.509206	0.717726	0.514971
C184	C	1.403550	0.599320	0.620480
C185	C	1.428078	0.690120	0.596073
H186	H	1.337972	0.576972	0.686068
H187	H	1.375714	0.576886	0.545155
H188	H	1.478872	0.576879	0.648335
H189	H	1.352799	0.712627	0.568245
H190	H	1.455957	0.712499	0.671422
H191	H	1.966056	0.202916	0.847673
H192	H	1.883267	0.133236	0.702251
H193	H	1.537900	0.606385	1.177193
O194	O	1.186228	0.589356	0.454131
C195	C	1.334469	0.697522	0.397182
C196	C	1.227124	0.668327	0.461243
H197	H	1.367555	0.761379	0.402892
H198	H	1.393705	0.659279	0.431307
H199	H	1.321576	0.693534	0.309851
H200	H	1.239914	0.672315	0.548585
H201	H	1.167925	0.706575	0.427032
O202	O	1.104759	0.689076	0.559642
C203	C	1.109377	0.813031	0.614056
C204	C	1.047452	0.728168	0.619240
H205	H	1.063059	0.844666	0.662216
H206	H	1.191433	0.811488	0.648792
H207	H	1.119454	0.845781	0.527246
H208	H	1.037295	0.695369	0.706022
H209	H	0.965434	0.729768	0.584441
H210	H	1.579420	0.681726	0.444946
H211	H	0.891667	0.397036	0.577564
O212	O	0.986247	0.281061	0.298370
C213	C	0.942243	0.242514	0.130098
C214	C	1.017511	0.298195	0.188975
H215	H	0.967478	0.256359	0.041638
H216	H	0.946731	0.178794	0.165713
H217	H	0.856739	0.251205	0.139352
H218	H	1.103047	0.289575	0.179744
H219	H	1.012930	0.361895	0.153347
O220	O	1.398678	0.799270	0.625368
C221	C	1.267711	0.808035	0.756262
C222	C	1.353919	0.853364	0.670222
H223	H	1.231515	0.851751	0.792567
H224	H	1.202346	0.769447	0.718401
H225	H	1.305513	0.769341	0.821571
H226	H	1.316214	0.892101	0.604887
H227	H	1.419274	0.891903	0.708162
H228	H	1.417516	1.079215	0.606748
O229	O	1.349228	0.636209	1.113257
C230	C	1.190070	0.649292	1.204089
C231	C	1.249120	0.593738	1.158635
H232	H	1.109112	0.614979	1.240768
H233	H	1.239655	0.674647	1.268109
H234	H	1.177702	0.699399	1.136962
H235	H	1.261499	0.543590	1.225687
H236	H	1.199507	0.568443	1.094587
H237	H	1.245295	0.472671	0.500952
