data_functionalizedCrystal
_audit_creation_method	'MofGen! by Chris Wilmer'
_symmetry_space_group_name_H-M	'P1'
_symmetry_Int_Tables_number	1
_symmetry_cell_setting	triclinic
loop_
_symmetry_equiv_pos_as_xyz
  x,y,z
_cell_length_a	10.723024
_cell_length_b	11.026607
_cell_length_c	9.798715
_cell_angle_alpha	89.998891
_cell_angle_beta	89.996609
_cell_angle_gamma	96.526943
loop_
_atom_site_label
_atom_site_type_symbol
_atom_site_fract_x
_atom_site_fract_y
_atom_site_fract_z
O1	O	1.693992	0.170518	-0.113478
O2	O	2.193992	0.670518	0.386522
O3	O	1.334363	0.186840	-0.113482
O4	O	1.834363	0.686840	0.386518
O5	O	1.484372	0.001778	-0.113475
O6	O	1.984372	0.501778	0.386525
O7	O	1.543983	0.355580	-0.113485
O8	O	2.043983	0.855580	0.386515
O9	O	1.484357	0.001777	0.113507
O10	O	1.984357	0.501777	0.613507
O11	O	1.334348	0.186840	0.113500
O12	O	1.834348	0.686840	0.613500
O13	O	1.693978	0.170518	0.113504
O14	O	2.193978	0.670518	0.613504
Zn15	Zn	1.514161	0.178679	0.149540
Zn16	Zn	2.014161	0.678679	0.649540
Zn17	Zn	1.514180	0.178679	-0.149518
Zn18	Zn	2.014180	0.678679	0.350482
O19	O	1.543969	0.355580	0.113498
O20	O	2.043969	0.855580	0.613498
C21	C	1.287599	0.185652	0.000008
C22	C	1.787599	0.685652	0.500008
C23	C	1.148278	0.182098	0.000007
C24	C	1.648278	0.682098	0.500007
C25	C	1.095646	0.285649	0.000003
C26	C	1.595646	0.785649	0.500003
C27	C	0.951650	0.281979	0.000001
C28	C	1.451650	0.781979	0.500001
C29	C	1.473367	-0.043525	0.000014
C30	C	1.973367	0.456475	0.500014
C31	C	1.440584	-0.178512	0.000009
C32	C	1.940584	0.321488	0.500009
C33	C	1.531104	-0.251564	0.000008
C34	C	2.031104	0.248436	0.500008
C35	C	1.497223	-0.391080	0.000002
C36	C	1.997223	0.108920	0.500002
C37	C	1.740741	0.171706	0.000011
C38	C	2.240741	0.671706	0.500011
C39	C	1.880062	0.175259	0.000003
C40	C	2.380062	0.675259	0.500003
C41	C	1.554973	0.400883	0.000005
C42	C	2.054973	0.900883	0.500005
C43	C	1.587756	0.535869	0.000001
C44	C	2.087756	1.035869	0.500001
N45	N	1.514157	0.178677	0.353640
N46	N	2.014157	0.678677	0.853640
N47	N	1.514191	0.178671	-0.353618
N48	N	2.014191	0.678671	0.146382
C49	C	1.577067	0.100633	0.421420
C50	C	2.077067	0.600633	0.921420
C51	C	1.577087	0.100628	0.578583
C52	C	2.077087	0.600628	1.078583
H53	H	0.925352	0.086607	-0.000002
H54	H	1.425352	0.586607	0.499998
F55	F	1.363133	-0.444325	-0.000012
F56	F	1.863133	0.055675	0.499988
F57	F	1.721847	-0.410889	-0.000003
F58	F	2.221847	0.089111	0.499997
H59	H	1.633684	-0.210818	0.000017
H60	H	2.133684	0.289182	0.500017
F61	F	1.176082	0.405083	0.000005
F62	F	1.676082	0.905083	0.500005
F63	F	0.892447	0.397853	-0.000012
F64	F	1.392447	0.897853	0.499988
F65	F	1.306501	-0.231762	-0.000005
F66	F	1.806501	0.268238	0.499995
H67	H	1.086734	0.090727	-0.000026
H68	H	1.586734	0.590727	0.499974
H69	H	1.630909	0.033813	0.363100
H70	H	2.130909	0.533813	0.863100
H71	H	1.630953	0.033815	0.636870
H72	H	2.130953	0.533815	1.136870
H73	H	1.460333	0.245496	0.588103
H74	H	1.960333	0.745496	1.088103
F75	F	1.443766	0.266006	0.429866
F76	F	1.943766	0.766006	0.929866
