data_functionalizedCrystal
_audit_creation_method	'MofGen! by Chris Wilmer'
_symmetry_space_group_name_H-M	'P1'
_symmetry_Int_Tables_number	1
_symmetry_cell_setting	triclinic
loop_
_symmetry_equiv_pos_as_xyz
  x,y,z
_cell_length_a	12.759401
_cell_length_b	19.805405
_cell_length_c	19.805399
_cell_angle_alpha	90.030709
_cell_angle_beta	89.987249
_cell_angle_gamma	89.973428
loop_
_atom_site_label
_atom_site_type_symbol
_atom_site_fract_x
_atom_site_fract_y
_atom_site_fract_z
Zn1	Zn	1.606110	0.269467	-0.382637
Zn2	Zn	1.605986	0.382658	-0.269445
Zn3	Zn	1.430430	0.269488	-0.269470
Zn4	Zn	1.430365	0.382619	-0.382600
O5	O	1.518223	0.326058	-0.326038
O6	O	1.753115	0.284489	-0.367627
O7	O	1.582674	0.367671	-0.174732
O8	O	1.453813	0.174769	-0.284507
O9	O	1.753024	0.367650	-0.284465
O10	O	1.582885	0.174753	-0.367651
O11	O	1.453693	0.284526	-0.174750
O12	O	1.283400	0.284488	-0.284471
O13	O	1.453703	0.367584	-0.477322
O14	O	1.283353	0.367605	-0.367588
O15	O	1.582822	0.284451	-0.477349
O16	O	1.582611	0.477369	-0.284430
O17	O	1.453583	0.477341	-0.367564
C18	C	1.518105	0.501914	-0.326005
C19	C	1.518150	0.577146	-0.326014
C20	C	1.245256	0.326046	-0.326029
C21	C	1.128479	0.326057	-0.326041
C22	C	1.518269	0.326011	-0.502581
C23	C	1.518289	0.325991	-0.577813
C24	C	1.073620	0.369405	-0.369248
C25	C	0.963895	0.369413	-0.369255
C26	C	0.963900	0.282724	-0.282843
C27	C	1.073622	0.282712	-0.282839
C28	C	1.128477	0.412749	-0.412450
C29	C	1.073617	0.456101	-0.455660
C30	C	0.963893	0.456110	-0.455667
C31	C	0.909028	0.412766	-0.412464
C32	C	1.792256	0.326071	-0.326048
C33	C	1.909033	0.326077	-0.326052
C34	C	1.518370	0.149515	-0.326086
C35	C	1.518433	0.074283	-0.326106
C36	C	1.585400	0.612482	-0.282771
C37	C	1.585445	0.683171	-0.282786
C38	C	1.518233	0.718522	-0.326041
C39	C	1.450980	0.683180	-0.369288
C40	C	1.450942	0.612493	-0.369276
C41	C	1.451135	0.968253	-0.369339
C42	C	1.451177	1.038946	-0.369346
C43	C	1.585639	1.038931	-0.282848
C44	C	1.585600	0.968244	-0.282836
C45	C	1.518351	0.932909	-0.326086
C46	C	1.518305	0.856261	-0.326070
C47	C	1.518273	0.795169	-0.326054
C48	C	1.451148	0.282693	-0.613166
C49	C	1.451162	0.282680	-0.683854
C50	C	1.518324	0.325962	-0.719188
C51	C	1.585468	0.369264	-0.683831
C52	C	1.585447	0.369280	-0.613143
C53	C	1.585551	0.369201	-0.968904
C54	C	1.585569	0.369180	-1.039596
C55	C	1.451266	0.282601	-1.039615
C56	C	1.451245	0.282617	-0.968928
C57	C	1.518385	0.325922	-0.933576
C58	C	1.518367	0.325936	-0.856927
C59	C	1.518348	0.325944	-0.795836
C60	C	1.518237	0.326056	-0.150182
C61	C	1.518421	0.325885	-0.074950
H62	H	1.217819	0.412748	-0.412447
C63	C	1.377043	0.722069	-0.416867
N64	N	1.321347	0.751359	-0.452701
C65	C	1.659338	0.573603	-0.235185
N66	N	1.715032	0.544321	-0.199343
H67	H	0.919220	0.247436	-0.247668
C68	C	1.133971	0.235029	-0.235307
N69	N	1.179425	0.199112	-0.199505
C70	C	1.659620	1.077806	-0.235275
N71	N	1.715338	1.107086	-0.199443
H72	H	1.396181	0.583723	-0.404490
H73	H	1.396446	1.067726	-0.404574
H74	H	1.640206	0.711939	-0.247573
C75	C	1.377263	0.235079	-0.574305
N76	N	1.321607	0.199217	-0.545036
H77	H	1.396485	0.247425	-0.712636
H78	H	1.396594	0.247342	-1.068407
C79	C	1.659528	0.929362	-0.235247
N80	N	1.715213	0.900077	-0.199401
H81	H	1.640128	0.404533	-0.584360
C82	C	1.133970	0.503776	-0.503181
N83	N	1.179427	0.539686	-0.538975
H84	H	1.396377	0.939489	-0.404553
C85	C	1.377361	0.235005	-0.930064
N86	N	1.321706	0.199144	-0.900793
H87	H	1.640262	0.404428	-1.068363
H88	H	1.640209	0.404470	-0.940129
C89	C	1.659108	0.417028	-0.722700
N90	N	1.714492	0.453058	-0.751977
C91	C	0.903551	0.503800	-0.503196
N92	N	0.858103	0.539726	-0.538993
H93	H	0.819684	0.412771	-0.412480
