data_functionalizedCrystal
_audit_creation_method	'MofGen! by Chris Wilmer'
_symmetry_space_group_name_H-M	'P1'
_symmetry_Int_Tables_number	1
_symmetry_cell_setting	triclinic
loop_
_symmetry_equiv_pos_as_xyz
  x,y,z
_cell_length_a	12.594516
_cell_length_b	12.594517
_cell_length_c	12.594509
_cell_angle_alpha	90.021327
_cell_angle_beta	89.973801
_cell_angle_gamma	89.984147
loop_
_atom_site_label
_atom_site_type_symbol
_atom_site_fract_x
_atom_site_fract_y
_atom_site_fract_z
Zn1	Zn	-0.423716	-1.627267	-0.601875
Zn2	Zn	-0.601726	-1.627158	-0.423903
Zn3	Zn	-0.423761	-1.449271	-0.423904
Zn4	Zn	-0.601652	-1.449253	-0.601833
O5	O	-0.512714	-1.538237	-0.512879
O6	O	-0.447341	-1.776198	-0.578284
O7	O	-0.578169	-1.603522	-0.274957
O8	O	-0.274809	-1.472936	-0.447530
O9	O	-0.578124	-1.776118	-0.447528
O10	O	-0.274776	-1.603709	-0.578285
O11	O	-0.447419	-1.472830	-0.274958
O12	O	-0.447347	-1.300323	-0.447489
O13	O	-0.577998	-1.472905	-0.750784
O14	O	-0.578042	-1.300310	-0.578213
O15	O	-0.447269	-1.603691	-0.750815
O16	O	-0.750662	-1.603505	-0.447488
O17	O	-0.750608	-1.472799	-0.578212
C18	C	-0.512692	-1.261696	-0.512847
C19	C	-0.512709	-1.143391	-0.512859
C20	C	-0.789255	-1.538167	-0.512868
C21	C	-0.907560	-1.538235	-0.512899
C22	C	-0.512620	-1.538308	-0.790500
C23	C	-0.512581	-1.538339	-0.908805
C24	C	-0.976822	-1.467137	-0.583950
C25	C	-1.047688	-1.441204	-0.486827
C26	C	-1.047494	-1.564265	-0.610039
C27	C	-0.976867	-1.512250	-0.415725
C28	C	-0.976667	-1.635357	-0.539002
C29	C	-1.047500	-1.609460	-0.441812
C30	C	-0.235093	-1.538336	-0.512912
C31	C	-0.116787	-1.538378	-0.512927
C32	C	-0.512736	-1.815858	-0.512911
C33	C	-0.512745	-1.934163	-0.512924
C34	C	-0.441526	-1.074114	-0.441894
C35	C	-0.538615	-1.003303	-0.415718
C36	C	-0.415668	-1.003403	-0.539054
C37	C	-0.609849	-1.074138	-0.486632
C38	C	-0.486836	-1.074244	-0.610013
C39	C	-0.583991	-1.003465	-0.583874
C40	C	-0.583644	-1.467227	-0.978042
C41	C	-0.609650	-1.564347	-1.048833
C42	C	-0.486510	-1.441294	-1.048813
C43	C	-0.538638	-1.635510	-0.978038
C44	C	-0.415453	-1.512391	-0.978012
C45	C	-0.441422	-1.609579	-1.048772
C46	C	-0.512730	-1.538227	-0.236338
C47	C	-0.512470	-1.538403	-0.118033
H48	H	-1.078906	-1.359136	-0.464772
H49	H	-1.078338	-1.669647	-0.381669
H50	H	-0.381389	-1.105135	-0.381807
C51	C	-0.665418	-0.961808	-0.664987
C52	C	-0.654678	-0.991510	-0.783124
C53	C	-0.736106	-0.949850	-0.864232
C54	C	-0.828274	-0.878487	-0.827203
C55	C	-0.839018	-0.848782	-0.709060
C56	C	-0.757590	-0.890442	-0.627952
H57	H	-0.586446	-1.044340	-0.810540
H58	H	-0.728152	-0.971840	-0.951689
H59	H	-0.888552	-0.847648	-0.887244
H60	H	-0.907250	-0.795952	-0.681644
H61	H	-0.765544	-0.868451	-0.540495
C62	C	-1.089408	-1.593937	-0.721000
C63	C	-1.061492	-1.524291	-0.817521
C64	C	-1.103403	-1.553952	-0.928483
C65	C	-1.173228	-1.653260	-0.942923
C66	C	-1.201147	-1.722913	-0.846399
C67	C	-1.159237	-1.693252	-0.735437
H68	H	-1.009800	-1.450771	-0.806834
H69	H	-1.082735	-1.502390	-0.999937
H70	H	-1.204253	-1.675217	-1.025064
H71	H	-1.252840	-1.796433	-0.857086
H72	H	-1.179905	-1.744814	-0.663983
C73	C	-0.360183	-1.690947	-1.090490
C74	C	-0.372207	-1.809302	-1.062301
C75	C	-0.290979	-1.890673	-1.104029
C76	C	-0.197727	-1.853690	-1.173946
C77	C	-0.185699	-1.735329	-1.202138
C78	C	-0.266927	-1.653958	-1.160410
H79	H	-0.441242	-1.836684	-1.010541
H80	H	-0.299883	-1.978291	-1.083159
H81	H	-0.137597	-1.913926	-1.204835
H82	H	-0.116664	-1.707947	-1.253898
H83	H	-0.258023	-1.566339	-1.181280
C84	C	-0.457221	-1.116350	-0.720952
C85	C	-0.536093	-1.186299	-0.782855
C86	C	-0.506472	-1.228393	-0.893801
C87	C	-0.397978	-1.200538	-0.942845
C88	C	-0.319098	-1.130586	-0.880942
C89	C	-0.348720	-1.088492	-0.769995
H90	H	-0.616413	-1.206922	-0.746550
H91	H	-0.564864	-1.280177	-0.939626
H92	H	-0.376050	-1.231698	-1.024974
H93	H	-0.238778	-1.109962	-0.917246
H94	H	-0.290327	-1.036708	-0.724171
C95	C	-0.568227	-0.961220	-0.304762
C96	C	-0.498559	-0.989085	-0.208259
C97	C	-0.528169	-0.947017	-0.097300
C98	C	-0.627447	-0.877083	-0.082844
C99	C	-0.697121	-0.849213	-0.179349
C100	C	-0.667511	-0.891282	-0.290309
H101	H	-0.425062	-1.040858	-0.218958
H102	H	-0.476591	-0.967648	-0.025860
H103	H	-0.649366	-0.845941	-0.000705
H104	H	-0.770618	-0.797441	-0.168651
H105	H	-0.719089	-0.870651	-0.361749
H106	H	-0.691955	-1.105080	-0.464413
C107	C	-0.304784	-0.961426	-0.568957
C108	C	-0.208105	-0.989314	-0.499536
C109	C	-0.097220	-0.947341	-0.529429
C110	C	-0.083014	-0.877481	-0.628743
C111	C	-0.179696	-0.849589	-0.698170
C112	C	-0.290581	-0.891562	-0.668277
H113	H	-0.218618	-1.041032	-0.426013
H114	H	-0.025649	-0.967989	-0.478034
H115	H	-0.000930	-0.846410	-0.650872
H116	H	-0.169183	-0.797871	-0.771694
H117	H	-0.362152	-0.870915	-0.719673
H118	H	-0.333385	-1.490382	-0.946881
C119	C	-0.664948	-1.386050	-0.936074
C120	C	-0.783352	-1.398055	-0.964051
C121	C	-0.864658	-1.316885	-0.922082
C122	C	-0.827559	-1.223710	-0.852134
C123	C	-0.709149	-1.211701	-0.824153
C124	C	-0.627844	-1.292871	-0.866123
H125	H	-0.810820	-1.467032	-1.015834
H126	H	-0.952313	-1.325776	-0.942796
H127	H	-0.887746	-1.163624	-0.821066
H128	H	-0.681682	-1.142724	-0.772371
H129	H	-0.540189	-1.283981	-0.845409
C130	C	-0.720546	-1.594041	-1.090870
C131	C	-0.811452	-1.617308	-1.012456
C132	C	-0.922349	-1.646991	-1.054490
C133	C	-0.942341	-1.653406	-1.174937
C134	C	-0.851432	-1.630138	-1.253358
C135	C	-0.740535	-1.600455	-1.211324
H136	H	-0.796655	-1.612560	-0.923288
H137	H	-0.989645	-1.664216	-0.996437
H138	H	-1.024434	-1.675379	-1.206052
H139	H	-0.866229	-1.634886	-1.342526
H140	H	-0.673239	-1.583230	-1.269377
H141	H	-0.945788	-1.406905	-0.643949
H142	H	-0.560736	-1.717631	-0.947080
H143	H	-0.945972	-1.490197	-0.333563
H144	H	-0.945451	-1.717406	-0.561104
H145	H	-0.464506	-1.359198	-1.079902
