data_functionalizedCrystal
_audit_creation_method	'MofGen! by Chris Wilmer'
_symmetry_space_group_name_H-M	'P1'
_symmetry_Int_Tables_number	1
_symmetry_cell_setting	triclinic
loop_
_symmetry_equiv_pos_as_xyz
  x,y,z
_cell_length_a	12.837943
_cell_length_b	9.198806
_cell_length_c	10.723024
_cell_angle_alpha	89.997736
_cell_angle_beta	90.351595
_cell_angle_gamma	90.002625
loop_
_atom_site_label
_atom_site_type_symbol
_atom_site_fract_x
_atom_site_fract_y
_atom_site_fract_z
O1	O	1.377762	0.120859	-0.324662
O2	O	1.877762	0.620859	0.175338
O3	O	1.075842	0.120868	-0.308624
O4	O	1.575842	0.620868	0.191376
O5	O	1.233766	0.120858	-0.135824
O6	O	1.733766	0.620858	0.364176
O7	O	1.219838	0.120870	-0.497463
O8	O	1.719838	0.620870	0.002537
O9	O	1.233754	-0.120927	-0.135821
O10	O	1.733754	0.379073	0.364179
O11	O	1.075830	-0.120917	-0.308622
O12	O	1.575830	0.379083	0.191378
O13	O	1.377750	-0.120926	-0.324659
O14	O	1.877750	0.379074	0.175341
Cu15	Cu	1.226789	-0.142998	-0.316640
Cu16	Cu	1.726789	0.357002	0.183360
Cu17	Cu	1.226803	0.142941	-0.316644
Cu18	Cu	1.726803	0.642941	0.183356
O19	O	1.219826	-0.120916	-0.497460
O20	O	1.719826	0.379084	0.002540
C21	C	1.037177	-0.000023	-0.303205
C22	C	1.537177	0.499977	0.196795
C23	C	0.921985	-0.000020	-0.287047
C24	C	1.421985	0.499980	0.212953
N25	N	1.226787	-0.344112	-0.316638
N26	N	1.726787	0.155888	0.183362
C27	C	1.232747	-0.000032	-0.089212
C28	C	1.732747	0.499968	0.410788
C29	C	1.229714	-0.000027	0.049671
C30	C	1.729714	0.499973	0.549671
C31	C	0.682408	-0.000034	-0.481303
C32	C	1.182408	0.499966	0.018697
C33	C	0.574174	-0.000032	-0.466126
C34	C	1.074174	0.499968	0.033874
C35	C	0.597282	-0.000024	-0.241518
C36	C	1.097282	0.499976	0.258482
C37	C	0.705515	-0.000026	-0.256694
C38	C	1.205515	0.499974	0.243306
C39	C	0.748074	-0.000029	-0.376591
C40	C	1.248074	0.499971	0.123409
C41	C	0.856310	-0.000021	-0.391766
C42	C	1.356310	0.499979	0.108234
C43	C	0.879415	-0.000023	-0.167159
C44	C	1.379415	0.499977	0.332841
C45	C	0.771182	-0.000020	-0.151982
C46	C	1.271182	0.499980	0.348018
C47	C	1.416415	-0.000031	-0.330079
C48	C	1.916415	0.499969	0.169921
C49	C	1.531607	-0.000025	-0.346237
C50	C	2.031607	0.499975	0.153763
C51	C	1.293258	-0.583717	-0.243929
C52	C	1.793258	-0.083717	0.256071
C53	C	1.293245	-0.416305	-0.243929
C54	C	1.793245	0.083695	0.256071
N55	N	1.226813	0.344055	-0.316637
N56	N	1.726813	0.844055	0.183363
C57	C	1.220845	-0.000022	-0.544071
C58	C	1.720845	0.499978	-0.044071
C59	C	1.223878	-0.000017	-0.682955
C60	C	1.723878	0.499983	-0.182955
C61	C	1.318080	-0.000028	0.115056
C62	C	1.818080	0.499972	0.615056
C63	C	1.314948	-0.000022	0.258600
C64	C	1.814948	0.499978	0.758600
H65	H	0.890959	-0.000026	-0.489392
H66	H	1.390959	0.499974	0.010608
Cl67	Cl	1.107072	-0.000028	0.230266
Cl68	Cl	1.607072	0.499972	0.730266
H69	H	1.396052	-0.000039	0.064766
H70	H	1.896052	0.499961	0.564766
H71	H	1.169894	-0.406216	-0.378885
H72	H	1.669894	0.093784	0.121115
H73	H	1.151742	-0.000015	0.099962
H74	H	1.651742	0.499985	0.599962
H75	H	1.350127	-0.354192	-0.181675
H76	H	1.850127	0.145808	0.318325
H77	H	1.390596	-0.000029	0.314817
H78	H	1.890596	0.499971	0.814817
H79	H	0.717060	-0.000035	-0.578927
H80	H	1.217060	0.499965	-0.078927
H81	H	0.520712	-0.000041	-0.551394
H82	H	1.020712	0.499959	-0.051394
H83	H	0.562611	-0.000141	-0.143903
H84	H	1.062611	0.499859	0.356097
H85	H	0.736515	-0.000035	-0.054366
H86	H	1.236515	0.499965	0.445634
H87	H	0.932893	-0.000008	-0.081895
H88	H	1.432893	0.499992	0.418105
Cl89	Cl	1.381113	-0.679583	-0.147823
Cl90	Cl	1.881113	-0.179583	0.352177
H91	H	1.169921	-0.593844	-0.378890
H92	H	1.669921	-0.093844	0.121110
