data_functionalizedCrystal
_audit_creation_method	'MofGen! by Chris Wilmer'
_symmetry_space_group_name_H-M	'P1'
_symmetry_Int_Tables_number	1
_symmetry_cell_setting	triclinic
loop_
_symmetry_equiv_pos_as_xyz
  x,y,z
_cell_length_a	10.268362
_cell_length_b	14.971486
_cell_length_c	14.971486
_cell_angle_alpha	83.614129
_cell_angle_beta	89.994507
_cell_angle_gamma	90.000373
loop_
_atom_site_label
_atom_site_type_symbol
_atom_site_fract_x
_atom_site_fract_y
_atom_site_fract_z
O1	O	0.108151	-1.186945	-0.116563
O2	O	0.108187	-0.926545	-0.130522
O3	O	0.108159	-1.063724	0.006657
O4	O	0.108179	-1.049765	-0.253743
O5	O	-0.108442	-1.063712	0.006663
O6	O	-0.108414	-0.926533	-0.130517
O7	O	-0.108450	-1.186933	-0.116558
Cu8	Cu	-0.128209	-1.056732	-0.123537
Cu9	Cu	0.127946	-1.056746	-0.123543
O10	O	-0.108422	-1.049753	-0.253737
C11	C	-0.000109	-0.893214	-0.129895
C12	C	-0.000096	-0.793917	-0.128024
N13	N	-0.308375	-1.056728	-0.123531
C14	C	-0.000141	-1.063094	0.039985
C15	C	-0.000140	-1.061223	0.139282
C16	C	-0.574046	-1.056741	-0.123541
C17	C	-0.426208	-1.056731	-0.123538
N18	N	0.308112	-1.056756	-0.123541
C19	C	-0.000151	-1.220263	-0.117185
C20	C	-0.000156	-1.319561	-0.119056
C21	C	-0.000091	-0.736692	-0.208614
C22	C	-0.000111	-0.643392	-0.206850
C23	C	-0.000126	-0.607320	-0.124497
C24	C	-0.000134	-0.664552	-0.043902
C25	C	-0.000124	-0.757850	-0.045666
C26	C	-0.000152	-0.470090	-0.040231
C27	C	-0.000160	-0.376786	-0.038466
C28	C	-0.000139	-0.355632	-0.201415
C29	C	-0.000129	-0.448930	-0.203179
C30	C	-0.000135	-0.506156	-0.122584
C31	C	-0.000119	-1.050384	-0.287065
C32	C	-0.000112	-1.052254	-0.386362
C33	C	-0.000152	-1.141812	0.196507
C34	C	-0.000138	-1.140049	0.289807
C35	C	-0.000122	-1.057696	0.325879
C36	C	-0.000107	-0.977101	0.268646
C37	C	-0.000111	-0.978865	0.175349
C38	C	-0.000101	-0.973430	0.463109
C39	C	-0.000100	-0.971665	0.556413
C40	C	-0.000129	-1.134614	0.577567
C41	C	-0.000133	-1.136378	0.484269
C42	C	-0.000120	-1.055782	0.427043
H43	H	-0.000078	-0.766054	-0.275675
O44	O	-0.000099	-0.886504	0.401381
H45	H	-0.000106	-0.828941	0.442136
H46	H	-0.000105	-0.478296	-0.270239
O47	O	-0.000103	-0.891940	0.113627
H48	H	-0.000096	-0.907001	0.042691
H49	H	-0.000159	-0.516682	0.025399
O50	O	-0.000107	-0.581667	-0.293771
H51	H	-0.000079	-0.622424	-0.351332
H52	H	-0.000127	-0.804443	0.019958
O53	O	-0.000086	-0.882845	0.595328
H54	H	0.088189	-0.878162	0.637334
H55	H	-0.000165	-0.635175	0.023152
O56	O	-0.000151	-0.293912	-0.288344
H57	H	0.088145	-0.306731	-0.327749
O58	O	-0.000160	-1.226977	0.351521
H59	H	0.088132	-1.230089	0.394519
H60	H	-0.000173	-1.208874	0.167145
H61	H	-0.000174	-0.347419	0.028593
O62	O	-0.000134	-1.225199	0.445356
H63	H	-0.000124	-1.280946	0.500821
O64	O	-0.000104	-0.888276	0.307552
H65	H	0.088170	-0.883580	0.349556
H66	H	-0.000136	-1.200238	0.624165
