data_functionalizedCrystal
_audit_creation_method	'MofGen! by Chris Wilmer'
_symmetry_space_group_name_H-M	'P1'
_symmetry_Int_Tables_number	1
_symmetry_cell_setting	triclinic
loop_
_symmetry_equiv_pos_as_xyz
  x,y,z
_cell_length_a	17.699097
_cell_length_b	15.072220
_cell_length_c	17.699103
_cell_angle_alpha	90.006103
_cell_angle_beta	96.710270
_cell_angle_gamma	89.983234
loop_
_atom_site_label
_atom_site_type_symbol
_atom_site_fract_x
_atom_site_fract_y
_atom_site_fract_z
O1	O	-1.004086	0.073880	0.095753
O2	O	-0.504086	0.573880	0.595753
O3	O	-0.783710	0.073864	0.108195
O4	O	-0.283710	0.573864	0.608195
O5	O	-0.900116	0.073855	-0.008214
O6	O	-0.400116	0.573855	0.491786
O7	O	-0.887679	0.073888	0.212162
O8	O	-0.387679	0.573888	0.712162
O9	O	-0.900087	-0.073710	-0.008208
O10	O	-0.400087	0.426290	0.491792
O11	O	-0.783681	-0.073701	0.108201
O12	O	-0.283681	0.426299	0.608201
O13	O	-1.004057	-0.073685	0.095759
O14	O	-0.504057	0.426315	0.595759
Zn15	Zn	-0.893864	-0.097122	0.101981
Zn16	Zn	-0.393864	0.402878	0.601981
Zn17	Zn	-0.893902	0.097301	0.101973
Zn18	Zn	-0.393902	0.597301	0.601973
O19	O	-0.887650	-0.073677	0.212168
O20	O	-0.387650	0.426323	0.712168
C21	C	-0.755498	0.000079	0.107750
C22	C	-0.255498	0.500079	0.607750
C23	C	-0.671481	0.000072	0.106408
C24	C	-0.171481	0.500072	0.606408
N25	N	-0.893844	-0.229811	0.101987
N26	N	-0.393844	0.270189	0.601987
C27	C	-0.155777	0.080537	0.098175
C28	C	0.344223	0.580537	0.598175
C29	C	-0.234722	0.080534	0.099431
C30	C	0.265278	0.580534	0.599431
C31	C	-0.274172	0.000093	0.100064
C32	C	0.225828	0.500093	0.600064
C33	C	-0.234675	-0.080350	0.099433
C34	C	0.265325	0.419650	0.599433
C35	C	-0.155733	-0.080346	0.098172
C36	C	0.344267	0.419654	0.598172
C37	C	-0.553040	-0.080368	0.104520
C38	C	-0.053040	0.419632	0.604520
C39	C	-0.631987	-0.080366	0.105785
C40	C	-0.131987	0.419634	0.605785
C41	C	-0.632028	0.080512	0.105780
C42	C	-0.132028	0.580512	0.605780
C43	C	-0.553086	0.080516	0.104519
C44	C	-0.053086	0.580516	0.604519
C45	C	-0.513597	0.000074	0.103884
C46	C	-0.013597	0.500074	0.603884
C47	C	-0.427997	0.000078	0.102520
C48	C	0.072003	0.500078	0.602520
C49	C	-0.359770	0.000088	0.101433
C50	C	0.140230	0.500088	0.601433
C51	C	-0.893901	-0.589013	0.101970
C52	C	-0.393901	-0.089013	0.601970
C53	C	-0.831405	-0.551401	0.164050
C54	C	-0.331405	-0.051401	0.664050
C55	C	-0.831548	-0.448576	0.164276
C56	C	-0.331548	0.051424	0.664276
C57	C	-0.893872	-0.410809	0.101978
C58	C	-0.393872	0.089191	0.601978
C59	C	-0.972813	-0.448091	0.119085
C60	C	-0.472813	0.051909	0.619085
C61	C	-0.972462	-0.550949	0.119526
C62	C	-0.472462	-0.050949	0.619526
C63	C	-0.878160	-0.551127	0.022598
C64	C	-0.378160	-0.051127	0.522598
C65	C	-0.876347	-0.448263	0.023131
C66	C	-0.376347	0.051737	0.523131
C67	C	-0.893861	-0.310095	0.101981
C68	C	-0.393861	0.189905	0.601981
C69	C	-0.893917	-0.689726	0.101968
C70	C	-0.393917	-0.189726	0.601968
C71	C	-0.032268	0.000098	0.096204
C72	C	0.467732	0.500098	0.596204
C73	C	-0.116286	0.000100	0.097546
C74	C	0.383714	0.500100	0.597546
C75	C	-0.899653	0.000070	-0.036408
C76	C	-0.399653	0.500070	0.463592
C77	C	-0.898309	0.000063	-0.120425
C78	C	-0.398309	0.500063	0.379575
N79	N	-0.893928	0.229990	0.101961
N80	N	-0.393928	0.729990	0.601961
C81	C	-0.890100	0.080558	-0.636140
C82	C	-0.390100	0.580558	-0.136140
C83	C	-0.891363	0.080550	-0.557197
C84	C	-0.391363	0.580550	-0.057197
C85	C	-0.891977	0.000107	-0.517735
C86	C	-0.391977	0.500107	-0.017735
C87	C	-0.891336	-0.080333	-0.557222
C88	C	-0.391336	0.419667	-0.057222
C89	C	-0.890079	-0.080325	-0.636164
C90	C	-0.390079	0.419675	-0.136164
C91	C	-0.896406	-0.080370	-0.238855
C92	C	-0.396406	0.419630	0.261145
C93	C	-0.897661	-0.080373	-0.159906
C94	C	-0.397661	0.419627	0.340094
C95	C	-0.897689	0.080505	-0.159888
C96	C	-0.397689	0.580505	0.340112
C97	C	-0.896433	0.080514	-0.238830
C98	C	-0.396433	0.580514	0.261170
C99	C	-0.895796	0.000074	-0.278310
C100	C	-0.395796	0.500074	0.221690
C101	C	-0.894429	0.000083	-0.363910
C102	C	-0.394429	0.500083	0.136090
C103	C	-0.893339	0.000097	-0.432136
C104	C	-0.393339	0.500097	0.067864
C105	C	-0.888113	0.000110	0.240362
C106	C	-0.388113	0.500110	0.740362
C107	C	-0.889458	0.000124	0.324379
C108	C	-0.389458	0.500124	0.824379
H109	H	-0.123662	0.146041	0.097665
H110	H	0.376338	0.646041	0.597665
H111	H	-0.891841	-0.145831	-0.525086
H112	H	-0.391841	0.354169	-0.025086
N113	N	-0.277221	-0.167113	0.100113
N114	N	0.222779	0.332887	0.600113
H115	H	-0.333223	-0.154912	0.101012
H116	H	0.166777	0.345088	0.601012
H117	H	-0.257191	-0.202230	0.146795
H118	H	0.242809	0.297770	0.646795
H119	H	-0.889555	-0.145823	-0.668308
H120	H	-0.389555	0.354177	-0.168308
N121	N	-0.844510	-0.585585	0.241645
N122	N	-0.344510	-0.085585	0.741645
H123	H	-0.853010	-0.533907	0.275994
H124	H	-0.353010	-0.033907	0.775994
H125	H	-0.798529	-0.620416	0.264094
H126	H	-0.298529	-0.120416	0.764094
N127	N	-0.113137	-0.167103	0.097489
N128	N	0.386863	0.332897	0.597489
H129	H	-0.150176	-0.218060	0.097550
H130	H	0.349824	0.281940	0.597550
H131	H	-0.074524	-0.170873	0.144134
H132	H	0.425476	0.329127	0.644134
H133	H	-0.918919	-0.422559	-0.025220
H134	H	-0.418919	0.077441	0.474780
N135	N	-0.753818	-0.415180	0.150806
N136	N	-0.253818	0.084820	0.650806
H137	H	-0.719152	-0.467277	0.144669
H138	H	-0.219152	0.032723	0.644669
H139	H	-0.731991	-0.378053	0.195624
H140	H	-0.231991	0.121947	0.695624
H141	H	-1.020423	-0.423625	0.075066
H142	H	-0.520423	0.076375	0.575066
H143	H	-0.889593	0.146064	-0.668264
H144	H	-0.389593	0.646064	-0.168264
H145	H	-0.891888	0.146048	-0.525056
H146	H	-0.391888	0.646048	-0.025056
H147	H	-0.266873	0.146034	0.099939
H148	H	0.233127	0.646034	0.599939
H149	H	-0.923736	-0.575448	-0.023598
H150	H	-0.423736	-0.075448	0.476402
H151	H	-0.895929	0.146019	-0.270956
H152	H	-0.395929	0.646019	0.229044
N153	N	-0.510536	0.167276	0.103837
N154	N	-0.010536	0.667276	0.603837
H155	H	-0.547534	0.218233	0.104423
H156	H	-0.047534	0.718233	0.604423
H157	H	-0.484003	0.170770	0.056411
H158	H	0.015997	0.670770	0.556411
H159	H	-0.987041	-0.422312	0.176305
H160	H	-0.487041	0.077688	0.676305
H161	H	-0.664190	0.146012	0.106294
H162	H	-0.164190	0.646012	0.606294
N163	N	-0.898319	0.167269	-0.117298
N164	N	-0.398319	0.667269	0.382702
H165	H	-0.899191	0.155062	-0.061298
H166	H	-0.399191	0.655062	0.438702
H167	H	-0.944985	0.202453	-0.137283
H168	H	-0.444985	0.702453	0.362717
H169	H	-0.898157	-0.145883	-0.127778
H170	H	-0.398157	0.354117	0.372222
H171	H	-0.664105	-0.145874	0.106300
H172	H	-0.164105	0.354126	0.606300
H173	H	-0.895888	-0.145869	-0.270990
H174	H	-0.395888	0.354131	0.229010
H175	H	-0.841585	-0.423952	0.223179
H176	H	-0.341585	0.076048	0.723179
N177	N	-0.510450	-0.167124	0.103837
N178	N	-0.010450	0.332876	0.603837
H179	H	-0.547489	-0.218082	0.103897
H180	H	-0.047489	0.281918	0.603897
H181	H	-0.471840	-0.170893	0.150486
H182	H	0.028160	0.329107	0.650486
H183	H	-0.772533	-0.576169	0.154048
H184	H	-0.272533	-0.076169	0.654048
H185	H	-0.986355	-0.574920	0.177407
H186	H	-0.486355	-0.074920	0.677407
N187	N	-1.035877	-0.583912	0.061879
N188	N	-0.535877	-0.083912	0.561879
H189	H	-1.063940	-0.531623	0.036298
H190	H	-0.563940	-0.031623	0.536298
H191	H	-1.072299	-0.621048	0.088392
H192	H	-0.572299	-0.121048	0.588392
H193	H	-0.821854	-0.577124	0.006113
H194	H	-0.321854	-0.077124	0.506113
H195	H	-0.818277	-0.423898	0.010145
H196	H	-0.318277	0.076102	0.510145
