data_functionalizedCrystal
_audit_creation_method	'MofGen! by Chris Wilmer'
_symmetry_space_group_name_H-M	'P1'
_symmetry_Int_Tables_number	1
_symmetry_cell_setting	triclinic
loop_
_symmetry_equiv_pos_as_xyz
  x,y,z
_cell_length_a	18.215407
_cell_length_b	19.805405
_cell_length_c	18.215399
_cell_angle_alpha	90.027923
_cell_angle_beta	90.016899
_cell_angle_gamma	90.024185
loop_
_atom_site_label
_atom_site_type_symbol
_atom_site_fract_x
_atom_site_fract_y
_atom_site_fract_z
Zn1	Zn	1.125062	-0.269516	0.416058
Zn2	Zn	1.124967	-0.382707	0.292992
Zn3	Zn	1.001995	-0.269532	0.293012
Zn4	Zn	1.001957	-0.382663	0.416023
O5	O	1.063495	-0.326105	0.354521
O6	O	1.228034	-0.284542	0.399740
O7	O	1.108630	-0.367719	0.190010
O8	O	1.018376	-0.174814	0.309357
O9	O	1.227964	-0.367703	0.309323
O10	O	1.108793	-0.174802	0.399759
O11	O	1.018283	-0.284570	0.190025
O12	O	0.899006	-0.284528	0.309323
O13	O	1.018311	-0.367629	0.519012
O14	O	0.898978	-0.367645	0.399699
O15	O	1.108756	-0.284500	0.519038
O16	O	1.108593	-0.477418	0.309289
O17	O	1.018219	-0.477386	0.399680
C18	C	0.872289	-0.326084	0.354510
C19	C	0.790490	-0.326091	0.354523
C20	C	0.525437	-0.369455	0.401516
C21	C	0.602296	-0.369449	0.401512
C22	C	0.602295	-0.282770	0.307540
C23	C	0.525437	-0.282779	0.307541
C24	C	0.487011	-0.326121	0.354533
C25	C	0.640727	-0.326105	0.354529
C26	C	0.724060	-0.326099	0.354524
C27	C	0.403672	-0.326129	0.354536
C28	C	1.063412	-0.501961	0.354495
C29	C	1.063443	-0.577193	0.354508
C30	C	1.110495	-0.612472	0.401617
C31	C	1.110522	-0.683161	0.401631
C32	C	1.063499	-0.718568	0.354531
C33	C	1.016442	-0.683284	0.307420
C34	C	1.016412	-0.612596	0.307411
C35	C	1.016560	-0.968357	0.307458
C36	C	1.016595	-1.039049	0.307469
C37	C	1.110670	-1.038921	0.401678
C38	C	1.110640	-0.968234	0.401668
C39	C	1.063580	-0.932956	0.354560
C40	C	1.063551	-0.856307	0.354547
C41	C	1.063532	-0.795215	0.354540
C42	C	1.255448	-0.326126	0.354533
C43	C	1.337247	-0.326135	0.354538
C44	C	1.063540	-0.326058	0.546474
C45	C	1.063559	-0.326038	0.628273
C46	C	1.063600	-0.149562	0.354564
C47	C	1.063644	-0.074330	0.354583
C48	C	1.063493	-0.326102	0.163315
C49	C	1.063617	-0.325932	0.081517
C50	C	1.110671	-0.282712	0.816482
C51	C	1.110680	-0.282693	0.893341
C52	C	1.016500	-0.369259	0.893303
C53	C	1.016488	-0.369275	0.816445
C54	C	1.063578	-0.326003	0.778037
C55	C	1.063598	-0.325967	0.931753
C56	C	1.063607	-0.325946	1.015087
C57	C	1.063568	-0.326023	0.694698
H58	H	1.148842	-0.711882	0.439986
O59	O	0.970728	-0.717751	0.261769
C60	C	0.923177	-0.758641	0.303631
H61	H	0.949105	-0.769181	0.359427
H62	H	0.913356	-0.808373	0.273652
H63	H	0.868622	-0.731437	0.311665
H64	H	1.149027	-0.247440	0.924639
O65	O	1.156239	-0.933871	0.447527
C66	C	1.140130	-0.951128	0.520862
H67	H	1.081344	-0.970603	0.524526
H68	H	1.146426	-0.904616	0.557219
H69	H	1.179592	-0.992117	0.540140
O70	O	0.970832	-0.411273	0.930728
C71	C	0.980927	-0.401967	1.006809
H72	H	1.037736	-0.379802	1.017320
H73	H	0.975912	-0.452659	1.036003
H74	H	0.937299	-0.365914	1.028624
H75	H	0.978133	-0.404526	0.785143
H76	H	0.633591	-0.247482	0.269282
H77	H	1.148986	-1.067653	0.440038
O78	O	0.970841	-1.073340	0.261694
C79	C	0.929309	-1.027046	0.220101
H80	H	0.926721	-0.976642	0.250234
H81	H	0.871340	-1.047522	0.212210
H82	H	0.956281	-1.019539	0.164228
H83	H	1.148790	-0.583648	0.439968
O84	O	0.488223	-0.411620	0.447184
C85	C	0.538624	-0.449852	0.488665
H86	H	0.593400	-0.452158	0.458514
H87	H	0.516403	-0.503192	0.496421
H88	H	0.546827	-0.425125	0.544601
O89	O	1.156328	-0.240577	0.779206
C90	C	1.140292	-0.173115	0.798020
H91	H	1.081504	-0.169693	0.819139
H92	H	1.146641	-0.139684	0.747488
H93	H	1.179762	-0.155416	0.842646
O94	O	0.639704	-0.411447	0.447191
C95	C	0.684175	-0.372957	0.494805
H96	H	0.695700	-0.321635	0.468941
H97	H	0.738214	-0.400533	0.504619
H98	H	0.654573	-0.365581	0.549355
O99	O	0.487991	-0.240758	0.261909
C100	C	0.411915	-0.250059	0.271991
H101	H	0.401418	-0.302315	0.296016
H102	H	0.382696	-0.245434	0.216870
H103	H	0.390116	-0.209948	0.311237
H104	H	0.978244	-0.939639	0.269099
O105	O	0.970681	-0.578428	0.261581
C106	C	0.929169	-0.624835	0.220025
H107	H	0.959337	-0.675202	0.217504
H108	H	0.921337	-0.604448	0.162034
H109	H	0.873267	-0.632383	0.246932
