data_functionalizedCrystal
_audit_creation_method	'MofGen! by Chris Wilmer'
_symmetry_space_group_name_H-M	'P1'
_symmetry_Int_Tables_number	1
_symmetry_cell_setting	triclinic
loop_
_symmetry_equiv_pos_as_xyz
  x,y,z
_cell_length_a	19.288840
_cell_length_b	23.532407
_cell_length_c	18.366186
_cell_angle_alpha	89.989089
_cell_angle_beta	89.983729
_cell_angle_gamma	82.987346
loop_
_atom_site_label
_atom_site_type_symbol
_atom_site_fract_x
_atom_site_fract_y
_atom_site_fract_z
O1	O	0.921145	0.070977	-0.060679
O2	O	0.718852	0.080576	-0.060654
O3	O	0.826099	-0.007143	-0.060654
O4	O	0.813898	0.158696	-0.060679
O5	O	0.826081	-0.007147	0.060446
O6	O	0.718834	0.080572	0.060445
O7	O	0.921127	0.070973	0.060421
Zn8	Zn	0.819978	0.075772	0.079660
Zn9	Zn	0.820001	0.075777	-0.079894
O10	O	0.813880	0.158692	0.060420
C11	C	0.692967	0.080267	-0.000101
C12	C	0.615866	0.079347	-0.000092
C13	C	0.825779	-0.028362	-0.000102
C14	C	0.824845	-0.091581	-0.000097
C15	C	0.579673	0.078908	-0.066105
C16	C	0.507229	0.078037	-0.066113
C17	C	0.470982	0.077594	-0.000105
C18	C	0.507182	0.078037	0.065916
C19	C	0.579624	0.078914	0.065923
C20	C	0.361754	0.042846	0.050461
C21	C	0.289314	0.041966	0.050452
C22	C	0.247547	0.074894	-0.000124
C23	C	0.278230	0.108694	-0.050702
C24	C	0.350671	0.109570	-0.050695
C25	C	0.392431	0.076644	-0.000105
C26	C	0.132802	0.073510	-0.066151
C27	C	0.060356	0.072643	-0.066157
C28	C	0.060311	0.072638	0.065875
C29	C	0.132755	0.073511	0.065879
C30	C	0.168997	0.073944	-0.000136
C31	C	0.882452	-0.490568	-0.000143
C32	C	0.881585	-0.549970	-0.000149
O33	O	0.934988	-0.586608	-0.000182
N34	N	0.817827	-0.572724	-0.000141
C35	C	0.754932	-0.536072	-0.000134
O36	O	0.700622	-0.560880	-0.000129
C37	C	0.755801	-0.476671	-0.000134
C38	C	0.819563	-0.453921	-0.000135
C39	C	0.946209	-0.467818	-0.000145
C40	C	0.947077	-0.408420	-0.000138
C41	C	0.884187	-0.371773	-0.000130
C42	C	0.820430	-0.394523	-0.000128
C43	C	0.692907	-0.440021	-0.000133
C44	C	0.693781	-0.380616	-0.000134
C45	C	0.757543	-0.357866	-0.000134
C46	C	0.758408	-0.298478	-0.000113
N47	N	0.822166	-0.275725	-0.000121
C48	C	0.885056	-0.312372	-0.000130
C49	C	0.753113	-0.660818	-0.000136
C50	C	0.752244	-0.720218	-0.000131
C51	C	0.878897	-0.734112	-0.000147
C52	C	0.879765	-0.674711	-0.000147
C53	C	0.816871	-0.638065	-0.000144
C54	C	0.886873	-0.187631	-0.000115
C55	C	0.887734	-0.128228	-0.000105
C56	C	0.761082	-0.114339	-0.000093
C57	C	0.760220	-0.173737	-0.000099
C58	C	0.823121	-0.210383	-0.000112
O59	O	0.705034	-0.261806	-0.000083
O60	O	0.939358	-0.287555	-0.000145
C61	C	0.947012	0.071282	-0.000134
C62	C	1.024113	0.072202	-0.000148
C63	C	0.814200	0.179911	-0.000133
C64	C	0.815134	0.243130	-0.000143
N65	N	0.819966	0.075767	0.188551
N66	N	0.820018	0.075777	-0.188785
C67	C	0.867471	0.036945	0.226652
C68	C	0.867475	0.036942	0.302880
C69	C	0.819982	0.075772	0.341004
C70	C	0.772469	0.114598	0.302894
C71	C	0.772461	0.114596	0.226668
C72	C	0.810524	0.127664	0.461757
C73	C	0.810536	0.127667	0.537982
C74	C	0.820002	0.075779	0.576111
C75	C	0.829469	0.023886	0.538007
C76	C	0.829462	0.023884	0.461780
C77	C	0.819985	0.075779	0.423659
C78	C	0.867513	0.036950	0.696867
C79	C	0.867513	0.036947	0.773096
C80	C	0.772510	0.114608	0.773109
C81	C	0.772507	0.114606	0.696881
C82	C	0.820012	0.075778	0.658765
H83	H	0.609177	0.079261	-0.119859
H84	H	0.733798	0.146213	0.333939
H85	H	0.837169	-0.018369	0.430758
H86	H	0.701894	-0.630983	-0.000128
H87	H	0.802803	0.169920	0.430718
H88	H	0.030889	0.072289	-0.119915
H89	H	0.244223	0.135509	-0.091883
H90	H	0.837177	-0.018366	0.569050
H91	H	0.264338	0.014441	0.091632
H92	H	0.733777	0.146211	0.195646
H93	H	0.477756	0.077680	-0.119871
H94	H	0.708300	-0.192261	-0.000078
H95	H	0.640985	-0.458533	-0.000137
H96	H	0.642564	-0.350781	-0.000133
H97	H	0.939659	-0.109708	-0.000104
H98	H	0.906193	0.005332	0.665831
H99	H	0.906150	0.005327	0.195619
H100	H	0.375650	0.137093	-0.091876
H101	H	0.709879	-0.084490	-0.000084
H102	H	0.906194	0.005330	0.804118
H103	H	0.162310	0.073870	-0.119904
H104	H	0.030799	0.072281	0.119620
H105	H	0.162224	0.073865	0.119634
H106	H	0.733837	0.146222	0.804149
H107	H	0.477665	0.077678	0.119661
H108	H	0.906160	0.005327	0.333907
H109	H	0.395756	0.016031	0.091649
H110	H	0.609092	0.079272	0.119681
H111	H	0.733827	0.146222	0.665858
H112	H	0.938093	-0.217462	-0.000128
H113	H	0.998998	-0.389903	-0.000142
H114	H	0.802831	0.169922	0.569001
H115	H	0.997425	-0.497651	-0.000154
H116	H	0.931686	-0.656193	-0.000148
H117	H	0.930105	-0.763961	-0.000157
H118	H	0.700323	-0.738735	-0.000118
