data_functionalizedCrystal
_audit_creation_method	'MofGen! by Chris Wilmer'
_symmetry_space_group_name_H-M	'P1'
_symmetry_Int_Tables_number	1
_symmetry_cell_setting	triclinic
loop_
_symmetry_equiv_pos_as_xyz
  x,y,z
_cell_length_a	12.827893
_cell_length_b	16.625546
_cell_length_c	12.827885
_cell_angle_alpha	90.035124
_cell_angle_beta	90.019272
_cell_angle_gamma	90.022439
loop_
_atom_site_label
_atom_site_type_symbol
_atom_site_fract_x
_atom_site_fract_y
_atom_site_fract_z
Zn1	Zn	1.597618	-0.320963	0.590810
Zn2	Zn	1.597491	-0.455817	0.416054
Zn3	Zn	1.422860	-0.321002	0.416084
Zn4	Zn	1.422823	-0.455757	0.590754
O5	O	1.510198	-0.388385	0.503425
O6	O	1.743837	-0.338861	0.567639
O7	O	1.574287	-0.437976	0.269822
O8	O	1.446110	-0.208165	0.439297
O9	O	1.743744	-0.437937	0.439247
O10	O	1.574505	-0.208136	0.567668
O11	O	1.445987	-0.338928	0.269843
O12	O	1.276619	-0.338869	0.439243
O13	O	1.446048	-0.437835	0.736997
O14	O	1.276592	-0.437873	0.567572
O15	O	1.574469	-0.338802	0.737039
O16	O	1.574252	-0.568642	0.439192
O17	O	1.445925	-0.568598	0.567544
C18	C	1.238688	-0.388370	0.503405
C19	C	1.122535	-0.388382	0.503422
C20	C	1.070765	-0.437449	0.566825
C21	C	0.950714	-0.437464	0.566844
C22	C	1.510099	-0.597876	0.503382
C23	C	1.510152	-0.687497	0.503398
C24	C	1.510335	-1.015673	0.503507
C25	C	1.510281	-0.924364	0.503479
C26	C	1.510243	-0.851588	0.503452
C27	C	1.510190	-0.760274	0.503425
C28	C	1.782768	-0.388401	0.503446
C29	C	1.898921	-0.388408	0.503455
C30	C	1.510269	-0.388308	0.775996
C31	C	1.510299	-0.388275	0.892149
C32	C	1.510326	-0.178076	0.503492
C33	C	1.510380	-0.088455	0.503521
C34	C	1.510187	-0.388404	0.231915
C35	C	1.510359	-0.388210	0.115763
C36	C	1.573853	-0.339261	0.943954
C37	C	1.573886	-0.339225	1.064004
H38	H	1.628236	-0.297321	0.899429
H39	H	1.628300	-0.297265	1.108555
H40	H	1.455906	-0.430206	0.936673
O41	O	1.124024	-0.487442	0.631622
C42	C	1.187186	-0.441545	0.699175
H43	H	1.203428	-0.380392	0.662445
H44	H	1.145226	-0.432793	0.776683
C45	C	1.270971	-0.560947	0.762995
C46	C	1.290928	-0.485840	0.717878
H47	H	1.334962	-0.588271	0.774536
H48	H	1.228415	-0.591869	0.717486
H49	H	1.236002	-0.553643	0.827580
H50	H	1.325884	-0.493146	0.653289
H51	H	1.333492	-0.454920	0.763376
O52	O	0.897562	-0.487465	0.631718
C53	C	0.834452	-0.441583	0.699251
H54	H	0.867433	-0.378104	0.705878
H55	H	0.751758	-0.438728	0.666883
C56	C	0.792160	-0.559038	0.799657
C57	C	0.832673	-0.481073	0.807802
H58	H	0.791057	-0.583398	0.866615
H59	H	0.834674	-0.589950	0.754156
H60	H	0.723252	-0.556648	0.772679
H61	H	0.901583	-0.483464	0.834767
H62	H	0.790169	-0.450162	0.853310
O63	O	0.952135	-0.338401	0.438638
C64	C	1.015202	-0.384284	0.371066
H65	H	1.031443	-0.445432	0.407792
H66	H	0.973159	-0.393047	0.293571
C67	C	1.098997	-0.264863	0.307217
C68	C	1.118952	-0.339964	0.352329
H69	H	1.162994	-0.237524	0.295654
H70	H	1.056505	-0.233950	0.352738
H71	H	1.063959	-0.272176	0.242643
H72	H	1.153977	-0.332650	0.416907
H73	H	1.161453	-0.370875	0.306817
O74	O	1.445559	-0.438394	1.062673
C75	C	1.468319	-0.518766	1.089267
H76	H	1.551779	-0.522850	1.119351
H77	H	1.412235	-0.539868	1.152526
C78	C	1.353693	-0.567524	0.955277
C79	C	1.456203	-0.572541	0.992219
H80	H	1.346216	-0.600696	0.895415
H81	H	1.338356	-0.513377	0.937362
H82	H	1.306969	-0.585107	1.008002
H83	H	1.502925	-0.554948	0.939499
H84	H	1.471549	-0.626687	1.010123
O85	O	1.069433	-0.338166	0.438787
C86	C	1.096077	-0.257801	0.461758
H87	H	1.126196	-0.253775	0.545217
H88	H	1.159323	-0.236621	0.405707
C89	C	0.962065	-0.209009	0.347320
C90	C	0.999050	-0.204063	0.449829
H91	H	0.902216	-0.175859	0.339957
H92	H	0.944117	-0.263152	0.331840
H93	H	1.014780	-0.191360	0.300623
H94	H	0.946340	-0.221721	0.496523
H95	H	1.016987	-0.149921	0.465316
