data_functionalizedCrystal
_audit_creation_method	'MofGen! by Chris Wilmer'
_symmetry_space_group_name_H-M	'P1'
_symmetry_Int_Tables_number	1
_symmetry_cell_setting	triclinic
loop_
_symmetry_equiv_pos_as_xyz
  x,y,z
_cell_length_a	16.992694
_cell_length_b	16.992695
_cell_length_c	15.455313
_cell_angle_alpha	87.152573
_cell_angle_beta	92.857794
_cell_angle_gamma	90.668223
loop_
_atom_site_label
_atom_site_type_symbol
_atom_site_fract_x
_atom_site_fract_y
_atom_site_fract_z
O1	O	-1.054080	-0.163694	-0.072023
O2	O	-0.554080	0.336306	0.427977
O3	O	-0.825681	-0.161862	-0.072048
O4	O	-0.325681	0.338138	0.427952
O5	O	-0.938965	-0.048579	-0.072029
O6	O	-0.438965	0.451421	0.427971
O7	O	-0.940797	-0.276978	-0.072042
O8	O	-0.440797	0.223022	0.427958
O9	O	-0.932485	-0.055028	0.072232
O10	O	-0.432485	0.444972	0.572232
O11	O	-0.819202	-0.168312	0.072213
O12	O	-0.319202	0.331688	0.572213
O13	O	-1.047601	-0.170144	0.072238
O14	O	-0.547601	0.329856	0.572238
Cu15	Cu	-0.932809	-0.169817	0.085398
Cu16	Cu	-0.432809	0.330183	0.585398
Cu17	Cu	-0.940473	-0.162189	-0.085207
Cu18	Cu	-0.440473	0.337811	0.414793
O19	O	-0.934317	-0.283428	0.072219
O20	O	-0.434317	0.216572	0.572219
C21	C	-0.793081	-0.162731	0.000079
C22	C	-0.293081	0.337269	0.500079
C23	C	-0.705597	-0.155702	0.000070
C24	C	-0.205597	0.344298	0.500070
C25	C	-0.933369	-0.022443	0.000102
C26	C	-0.433369	0.477557	0.500102
C27	C	-0.926341	0.065041	0.000101
C28	C	-0.426341	0.565041	0.500101
C29	C	-1.080201	-0.169275	0.000109
C30	C	-0.580201	0.330725	0.500109
C31	C	-1.167685	-0.176304	0.000113
C32	C	-0.667685	0.323696	0.500113
C33	C	-0.939913	-0.309563	0.000087
C34	C	-0.439913	0.190437	0.500087
C35	C	-0.946942	-0.397047	0.000082
C36	C	-0.446942	0.102953	0.500082
C37	C	-0.659607	-0.223520	0.000066
C38	C	-0.159607	0.276480	0.500066
C39	C	-0.577405	-0.216911	0.000079
C40	C	-0.077405	0.283089	0.500079
C41	C	-0.541197	-0.142484	0.000088
C42	C	-0.041197	0.357516	0.500088
C43	C	-0.587193	-0.074661	0.000094
C44	C	-0.087193	0.425339	0.500094
C45	C	-0.669393	-0.081271	0.000088
C46	C	-0.169393	0.418729	0.500088
C47	C	-0.295881	-0.115091	0.000113
C48	C	0.204119	0.384909	0.500113
C49	C	-0.213676	-0.108486	0.000116
C50	C	0.286324	0.391514	0.500116
C51	C	-0.203893	-0.250737	0.000103
C52	C	0.296107	0.249263	0.500103
C53	C	-0.286095	-0.257340	0.000091
C54	C	0.213905	0.242660	0.500091
C55	C	-0.332084	-0.189517	0.000102
C56	C	0.167916	0.310483	0.500102
N57	N	-0.457174	-0.135727	0.000098
N58	N	0.042826	0.364273	0.500098
N59	N	-0.416105	-0.196275	0.000098
N60	N	0.083895	0.303725	0.500098
N61	N	-0.927425	-0.175181	0.205392
N62	N	-0.427425	0.324819	0.705392
C63	C	-0.994158	0.111032	0.000109
C64	C	-0.494158	0.611032	0.500109
C65	C	-0.987550	0.193233	0.000100
C66	C	-0.487550	0.693233	0.500100
C67	C	-0.913123	0.229442	0.000089
C68	C	-0.413123	0.729442	0.500089
C69	C	-0.845300	0.183445	0.000078
C70	C	-0.345300	0.683445	0.500078
C71	C	-0.851910	0.101246	0.000081
C72	C	-0.351910	0.601246	0.500081
C73	C	-0.885729	0.474757	0.000074
C74	C	-0.385729	0.974757	0.500074
C75	C	-0.879124	0.556962	0.000074
C76	C	-0.379124	1.056962	0.500074
C77	C	-1.021375	0.566744	0.000094
C78	C	-0.521375	1.066744	0.500094
C79	C	-1.027977	0.484543	0.000102
C80	C	-0.527977	0.984543	0.500102
C81	C	-0.960155	0.438554	0.000087
C82	C	-0.460155	0.938554	0.500087
N83	N	-0.906366	0.313464	0.000082
N84	N	-0.406366	0.813464	0.500082
N85	N	-0.966913	0.354533	0.000087
N86	N	-0.466913	0.854533	0.500087
N87	N	-0.945863	-0.156819	-0.205202
N88	N	-0.445863	0.343181	0.294798
C89	C	-0.975571	-0.127074	0.250795
C90	C	-0.475571	0.372926	0.750795
C91	C	-0.971507	-0.131139	0.341602
C92	C	-0.471507	0.368861	0.841602
C93	C	-0.919301	-0.183315	0.387005
C94	C	-0.419301	0.316685	0.887005
C95	C	-0.871149	-0.231424	0.341596
C96	C	-0.371149	0.268576	0.841596
C97	C	-0.875210	-0.227355	0.250791
C98	C	-0.375210	0.272645	0.750791
C99	C	-0.901772	-0.200858	0.658584
C100	C	-0.401772	0.299142	1.158584
C101	C	-0.897717	-0.204926	0.749395
C102	C	-0.397717	0.295074	1.249395
C103	C	-0.998074	-0.104639	0.749395
C104	C	-0.498074	0.395361	1.249395
C105	C	-1.002133	-0.100578	0.658588
C106	C	-0.502133	0.399422	1.158588
C107	C	-0.953979	-0.148684	0.613187
C108	C	-0.453979	0.351316	1.113187
N109	N	-0.915147	-0.187473	0.479825
N110	N	-0.415147	0.312527	0.979825
N111	N	-0.958129	-0.144522	0.520369
N112	N	-0.458129	0.355478	1.020369
H113	H	-0.689081	-0.284126	0.000058
H114	H	-0.189081	0.215874	0.500058
N115	N	-1.023465	-0.079272	0.390560
N116	N	-0.523465	0.420728	0.890560
H117	H	-1.011634	-0.022115	0.374770
H118	H	-0.511634	0.477885	0.874770
H119	H	-1.080577	-0.091260	0.374706
H120	H	-0.580577	0.408740	0.874706
H121	H	-0.333316	-0.059864	0.000122
H122	H	0.166684	0.440136	0.500122
H123	H	-0.830503	0.437322	0.000061
H124	H	-0.330503	0.937322	0.500061
H125	H	-0.818513	0.586440	0.000079
H126	H	-0.318513	1.086440	0.500079
N127	N	-0.325156	-0.337611	0.000090
N128	N	0.174844	0.162389	0.500090
H129	H	-0.361436	-0.341127	-0.053391
H130	H	0.138564	0.158873	0.446609
H131	H	-0.283506	-0.379531	0.000124
H132	H	0.216494	0.120469	0.500124
H133	H	-0.539963	-0.272136	0.000075
H134	H	-0.039963	0.227864	0.500075
H135	H	-1.088584	0.455068	0.000112
H136	H	-0.588584	0.955068	0.500112
H137	H	-0.706838	-0.026046	0.000090
H138	H	-0.206838	0.473954	0.500090
H139	H	-0.836004	-0.266527	0.213825
H140	H	-0.336004	0.233473	0.713825
N141	N	-1.050003	-0.052750	0.798361
N142	N	-0.550003	0.447250	1.298361
H143	H	-1.107146	-0.064642	0.782547
H144	H	-0.607146	0.435358	1.282547
H145	H	-1.039445	-0.063266	0.862759
H146	H	-0.539445	0.436734	1.362759
H147	H	-1.018087	-0.084591	0.213834
H148	H	-0.518087	0.415409	0.713834
N149	N	-0.849833	-0.252737	0.609622
N150	N	-0.349833	0.247263	1.109622
H151	H	-0.816146	-0.286407	0.652166
H152	H	-0.316146	0.213593	1.152166
H153	H	-0.883825	-0.287758	0.571930
H154	H	-0.383825	0.212242	1.071930
H155	H	-0.166440	-0.305954	0.000096
H156	H	0.333560	0.194046	0.500096
H157	H	-0.557705	-0.014061	0.000114
H158	H	-0.057705	0.485939	0.500114
N159	N	-1.074433	0.071981	0.000129
N160	N	-0.574433	0.571981	0.500129
H161	H	-1.116392	0.113592	0.000132
H162	H	-0.616392	0.613592	0.500132
H163	H	-1.082678	0.040475	-0.053347
H164	H	-0.582678	0.540475	0.446653
N165	N	-1.058442	-0.044304	0.609619
N166	N	-0.558442	0.455696	1.109619
H167	H	-1.088326	-0.014443	0.652161
H168	H	-0.588326	0.485557	1.152161
H169	H	-1.027812	-0.005909	0.571953
H170	H	-0.527812	0.494091	1.071953
N171	N	-0.814834	-0.287695	0.390562
N172	N	-0.314834	0.212305	0.890562
H173	H	-0.819568	-0.282975	0.454977
H174	H	-0.319568	0.217025	0.954977
H175	H	-0.828131	-0.343403	0.374676
H176	H	-0.328131	0.156597	0.874676
H177	H	-0.184198	-0.047876	0.000123
H178	H	0.315802	0.452124	0.500123
H179	H	-0.855202	-0.247417	0.786359
H180	H	-0.355202	0.252583	1.286359
H181	H	-1.042774	0.230675	0.000109
H182	H	-0.542774	0.730675	0.500109
N183	N	-1.094522	0.616346	0.000113
N184	N	-0.594522	1.116346	0.500113
H185	H	-1.079045	0.673913	0.000110
H186	H	-0.579045	1.173913	0.500110
H187	H	-1.129139	0.606502	-0.053362
H188	H	-0.629139	1.106502	0.446638
N189	N	-0.765022	0.222490	0.000065
N190	N	-0.265022	0.722490	0.500065
H191	H	-0.761510	0.258766	-0.053412
H192	H	-0.261510	0.758766	0.446588
H193	H	-0.756753	0.253943	0.053579
H194	H	-0.256753	0.753943	0.553579
N195	N	-0.778765	0.051638	0.000066
N196	N	-0.278765	0.551638	0.500066
H197	H	-0.730612	0.087048	0.000060
H198	H	-0.230612	0.587048	0.500060
H199	H	-0.776004	0.014930	0.053544
H200	H	-0.276004	0.514930	0.553544
