data_functionalizedCrystal
_audit_creation_method	'MofGen! by Chris Wilmer'
_symmetry_space_group_name_H-M	'P1'
_symmetry_Int_Tables_number	1
_symmetry_cell_setting	triclinic
loop_
_symmetry_equiv_pos_as_xyz
  x,y,z
_cell_length_a	18.101395
_cell_length_b	18.101398
_cell_length_c	21.395356
_cell_angle_alpha	90.024395
_cell_angle_beta	89.974602
_cell_angle_gamma	89.976925
loop_
_atom_site_label
_atom_site_type_symbol
_atom_site_fract_x
_atom_site_fract_y
_atom_site_fract_z
Zn1	Zn	-0.295003	-1.132103	-0.354406
Zn2	Zn	0.204997	-0.632103	0.145594
Zn3	Zn	-0.418847	-1.132004	-0.249633
Zn4	Zn	0.081153	-0.632004	0.250367
Zn5	Zn	-0.295007	-1.008267	-0.249628
Zn6	Zn	0.204993	-0.508267	0.250372
Zn7	Zn	-0.418790	-1.008212	-0.354359
Zn8	Zn	0.081210	-0.508212	0.145641
O9	O	-0.356912	-1.070146	-0.302006
O10	O	0.143088	-0.570146	0.197994
O11	O	-0.311454	-1.235722	-0.340529
O12	O	0.188546	-0.735722	0.159471
O13	O	-0.402445	-1.115572	-0.161955
O14	O	0.097555	-0.615572	0.338045
O15	O	-0.191374	-1.024758	-0.263544
O16	O	0.308626	-0.524758	0.236456
O17	O	-0.402442	-1.235650	-0.263553
O18	O	0.097558	-0.735650	0.236447
O19	O	-0.191371	-1.115740	-0.340524
O20	O	0.308629	-0.615740	0.159476
O21	O	-0.311460	-1.024663	-0.161951
O22	O	0.188540	-0.524663	0.338049
O23	O	-0.311405	-0.904627	-0.263499
O24	O	0.188595	-0.404627	0.236501
O25	O	-0.402344	-1.024665	-0.442043
O26	O	0.097656	-0.524665	0.057957
O27	O	-0.402348	-0.904587	-0.340444
O28	O	0.097652	-0.404587	0.159556
O29	O	-0.311398	-1.115687	-0.442077
O30	O	0.188602	-0.615687	0.057923
O31	O	-0.522473	-1.115519	-0.263508
O32	O	-0.022473	-0.615519	0.236492
O33	O	-0.522431	-1.024569	-0.340450
O34	O	-0.022431	-0.524569	0.159550
C35	C	-0.356871	-0.877736	-0.301966
C36	C	0.143129	-0.377736	0.198034
C37	C	-0.356871	-0.795422	-0.301964
C38	C	0.143129	-0.295422	0.198036
C39	C	-0.549323	-1.070047	-0.301988
C40	C	-0.049323	-0.570047	0.198012
C41	C	-0.631637	-1.070073	-0.302001
C42	C	-0.131637	-0.570073	0.197999
C43	C	-0.356900	-0.496331	-0.302005
C44	C	0.143100	0.003669	0.197995
C45	C	-0.299397	-0.527657	-0.253831
C46	C	0.200603	-0.027657	0.246169
C47	C	-0.299556	-0.613275	-0.253628
C48	C	0.200444	-0.113275	0.246372
C49	C	-0.356885	-0.644713	-0.301985
C50	C	0.143115	-0.144713	0.198015
C51	C	-0.434894	-0.613596	-0.283944
C52	C	0.065106	-0.113596	0.216056
C53	C	-0.434570	-0.527951	-0.283606
C54	C	0.065430	-0.027951	0.216394
C55	C	-0.337074	-0.527942	-0.368335
C56	C	0.162926	-0.027942	0.131665
C57	C	-0.335342	-0.613593	-0.367977
C58	C	0.164658	-0.113593	0.132023
C59	C	-0.356881	-0.728573	-0.301974
C60	C	0.143119	-0.228573	0.198026
C61	C	-0.356909	-0.412471	-0.302014
C62	C	0.143091	0.087529	0.197986
C63	C	-0.930728	-1.070235	-0.302035
C64	C	-0.430728	-0.570235	0.197965
C65	C	-0.899407	-1.013145	-0.350565
C66	C	-0.399407	-0.513145	0.149435
C67	C	-0.813789	-1.012874	-0.350413
C68	C	-0.313789	-0.512874	0.149587
C69	C	-0.782345	-1.070155	-0.302019
C70	C	-0.282345	-0.570155	0.197981
C71	C	-0.813491	-1.049029	-0.235983
C72	C	-0.313491	-0.549029	0.264017
C73	C	-0.899136	-1.048661	-0.236273
C74	C	-0.399136	-0.548661	0.263727
C75	C	-0.899083	-1.148576	-0.318960
C76	C	-0.399083	-0.648576	0.181040
C77	C	-0.813432	-1.148115	-0.320408
C78	C	-0.313432	-0.648115	0.179592
C79	C	-0.698486	-1.070110	-0.302005
C80	C	-0.198486	-0.570110	0.197995
C81	C	-1.014587	-1.070278	-0.302044
C82	C	-0.514587	-0.570278	0.197956
C83	C	-0.163750	-1.070266	-0.302039
C84	C	0.336250	-0.570266	0.197961
C85	C	-0.081436	-1.070317	-0.302052
C86	C	0.418564	-0.570317	0.197948
C87	C	-0.356864	-1.070181	-0.465430
C88	C	0.143136	-0.570181	0.034570
C89	C	-0.356844	-1.070195	-0.535071
C90	C	0.143156	-0.570195	-0.035071
C91	C	-0.356939	-0.263308	-0.302037
C92	C	0.143061	0.236692	0.197963
C93	C	-0.356914	-0.345622	-0.302026
C94	C	0.143086	0.154378	0.197974
C95	C	-0.309371	-1.117660	-1.036886
C96	C	0.190629	-0.617660	-0.536886
C97	C	-0.309389	-1.117654	-0.971451
C98	C	0.190611	-0.617654	-0.471451
C99	C	-0.356746	-1.070259	-0.938710
C100	C	0.143254	-0.570259	-0.438710
C101	C	-0.404102	-1.022879	-0.971409
C102	C	0.095898	-0.522879	-0.471409
C103	C	-0.404088	-1.022892	-1.036843
C104	C	0.095912	-0.522892	-0.536843
C105	C	-0.362601	-1.003514	-0.835026
C106	C	0.137399	-0.503514	-0.335026
C107	C	-0.362610	-1.003500	-0.769593
C108	C	0.137390	-0.503500	-0.269593
C109	C	-0.356793	-1.070221	-0.736889
C110	C	0.143207	-0.570221	-0.236889
C111	C	-0.350952	-1.136957	-0.769625
C112	C	0.149048	-0.636957	-0.269625
C113	C	-0.350938	-1.136970	-0.835060
C114	C	0.149062	-0.636970	-0.335060
C115	C	-0.356766	-1.070240	-0.867757
C116	C	0.143234	-0.570240	-0.367757
C117	C	-0.309463	-1.117595	-0.633244
C118	C	0.190537	-0.617595	-0.133244
C119	C	-0.309486	-1.117590	-0.567808
C120	C	0.190514	-0.617590	-0.067808
C121	C	-0.404195	-1.022809	-0.567767
C122	C	0.095805	-0.522809	-0.067767
C123	C	-0.404176	-1.022820	-0.633203
C124	C	0.095824	-0.522820	-0.133203
C125	C	-0.356806	-1.070212	-0.665937
C126	C	0.143194	-0.570212	-0.165937
C127	C	-0.356906	-1.070155	-0.139219
C128	C	0.143094	-0.570155	0.360781
C129	C	-0.356718	-1.070284	-0.069578
C130	C	0.143282	-0.570284	0.430422
H131	H	-0.241709	-0.634315	-0.264937
H132	H	0.258291	-0.134315	0.235063
C133	C	-0.257363	-1.169734	-0.669255
C134	C	0.242637	-0.669734	-0.169255
N135	N	-0.218123	-1.209008	-0.696376
N136	N	0.281877	-0.709008	-0.196376
H137	H	-0.270932	-1.156175	-0.541191
H138	H	0.229068	-0.656175	-0.041191
H139	H	-0.346212	-1.191288	-0.742999
H140	H	0.153788	-0.691288	-0.242999
C141	C	-0.456290	-0.970674	-0.531756
C142	C	0.043710	-0.470674	-0.031756
N143	N	-0.495530	-0.931406	-0.504629
N144	N	0.004470	-0.431406	-0.004629
H145	H	-0.442728	-0.984238	-0.659821
H146	H	0.057272	-0.484238	-0.159821
C147	C	-0.344522	-1.210379	-0.871068
C148	C	0.155478	-0.710379	-0.371068
N149	N	-0.339694	-1.265672	-0.898189
N150	N	0.160306	-0.765672	-0.398189
C151	C	-0.456192	-0.970742	-0.935392
C152	C	0.043808	-0.470742	-0.435392
N153	N	-0.495430	-0.931472	-0.908265
N154	N	0.004570	-0.431472	-0.408265
C155	C	-0.221004	-0.499863	-0.268934
C156	C	0.278996	0.000137	0.231066
N157	N	-0.161956	-0.478924	-0.280310
N158	N	0.338044	0.021076	0.219690
H159	H	-0.367365	-0.949160	-0.742944
H160	H	0.132635	-0.449160	-0.242944
C161	C	-0.369000	-0.930111	-0.870994
C162	C	0.131000	-0.430111	-0.370994
N163	N	-0.373819	-0.874826	-0.898084
N164	N	0.126181	-0.374826	-0.398084
C165	C	-0.456171	-0.970767	-1.072805
C166	C	0.043829	-0.470767	-0.572805
N167	N	-0.495398	-0.931504	-1.099893
N168	N	0.004602	-0.431504	-0.599893
H169	H	-0.312356	-0.506110	-0.204967
H170	H	0.187644	-0.006110	0.295033
C171	C	-0.261556	-0.498805	-0.390489
C172	C	0.238444	0.001195	0.109511
N173	N	-0.204671	-0.476862	-0.407168
N174	N	0.295329	0.023138	0.092832
C175	C	-0.457277	-0.500918	-0.218095
C176	C	0.042723	-0.000918	0.281905
N177	N	-0.474376	-0.480560	-0.168750
N178	N	0.025624	0.019440	0.331250
H179	H	-0.277935	-0.633936	-0.381580
H180	H	0.222065	-0.133936	0.118420
C181	C	-0.785973	-1.103432	-0.185799
C182	C	-0.285973	-0.603432	0.314201
N183	N	-0.765243	-1.144407	-0.148001
N184	N	-0.265243	-0.644407	0.351999
C185	C	-0.786183	-0.934413	-0.335312
C186	C	-0.286183	-0.434413	0.164688
N187	N	-0.765391	-0.875309	-0.323953
N188	N	-0.265391	-0.375309	0.176047
H189	H	-0.478865	-0.507227	-0.317164
H190	H	0.021135	-0.007227	0.182836
C191	C	-0.317270	-0.640913	-0.187232
C192	C	0.182730	-0.140913	0.312768
N193	N	-0.330616	-0.661730	-0.137219
N194	N	0.169384	-0.161730	0.362781
C195	C	-0.494333	-0.641115	-0.329858
C196	C	0.005667	-0.141115	0.170142
N197	N	-0.539102	-0.661846	-0.364439
N198	N	-0.039102	-0.161846	0.135561
H199	H	-0.452003	-0.635013	-0.235979
H200	H	0.047997	-0.135013	0.264021
C201	C	-0.387808	-0.642501	-0.419069
C202	C	0.112192	-0.142501	0.080931
N203	N	-0.427333	-0.664272	-0.457550
N204	N	0.072667	-0.164272	0.042450
H205	H	-0.270830	-1.156233	-0.944828
H206	H	0.229170	-0.656233	-0.444828
H207	H	-0.378957	-0.507684	-0.404230
H208	H	0.121043	-0.007684	0.095770
H209	H	-0.792728	-1.026091	-0.399377
H210	H	-0.292728	-0.526091	0.100623
C211	C	-0.927132	-1.102390	-0.185753
C212	C	-0.427132	-0.602390	0.314247
N213	N	-0.948215	-1.142854	-0.147698
N214	N	-0.448215	-0.642854	0.352302
H215	H	-0.919958	-1.026231	-0.399688
H216	H	-0.419958	-0.526231	0.100312
H217	H	-0.920985	-0.955430	-0.339494
H218	H	-0.420985	-0.455430	0.160506
C219	C	-0.784514	-1.208619	-0.276136
C220	C	-0.284514	-0.708619	0.223864
N221	N	-0.762735	-1.254189	-0.242784
N222	N	-0.262735	-0.754189	0.257216
C223	C	-0.926203	-0.971295	-0.216910
C224	C	-0.426203	-0.471295	0.283090
N225	N	-0.946587	-0.913020	-0.202328
N226	N	-0.446587	-0.413020	0.297672
H227	H	-0.792098	-0.992369	-0.221390
H228	H	-0.292098	-0.492369	0.278610
H229	H	-0.920635	-1.167837	-0.366293
H230	H	-0.420635	-0.667837	0.133707
H231	H	-0.270802	-1.156254	-1.063535
H232	H	0.229198	-0.656254	-0.563535
C233	C	-0.785897	-1.169657	-0.386049
C234	C	-0.285897	-0.669657	0.113951
N235	N	-0.765143	-1.185885	-0.435487
N236	N	-0.265143	-0.685885	0.064513
C237	C	-0.926450	-1.206039	-0.271212
C238	C	-0.426450	-0.706039	0.228788
N239	N	-0.947068	-1.249314	-0.235247
N240	N	-0.447068	-0.749314	0.264753
