data_functionalizedCrystal
_audit_creation_method	'MofGen! by Chris Wilmer'
_symmetry_space_group_name_H-M	'P1'
_symmetry_Int_Tables_number	1
_symmetry_cell_setting	triclinic
loop_
_symmetry_equiv_pos_as_xyz
  x,y,z
_cell_length_a	23.532361
_cell_length_b	23.532407
_cell_length_c	13.101039
_cell_angle_alpha	93.336507
_cell_angle_beta	86.668482
_cell_angle_gamma	82.839173
loop_
_atom_site_label
_atom_site_type_symbol
_atom_site_fract_x
_atom_site_fract_y
_atom_site_fract_z
O1	O	0.758424	0.065850	-0.085121
O2	O	0.592558	0.075880	-0.085147
O3	O	0.680492	-0.012066	-0.085115
O4	O	0.670490	0.153797	-0.085154
O5	O	0.674183	-0.005746	0.085313
O6	O	0.586249	0.082201	0.085280
O7	O	0.752115	0.072171	0.085306
Zn8	Zn	0.668180	0.078189	0.112352
Zn9	Zn	0.676493	0.069862	-0.112193
O10	O	0.664181	0.160118	0.085274
C11	C	0.568187	0.078789	0.000063
C12	C	0.504969	0.078034	0.000054
C13	C	0.235164	0.071285	-0.092839
C14	C	0.294564	0.072000	-0.092842
O15	O	0.328215	0.069420	-0.171848
N16	N	0.320830	0.075807	0.000059
C17	C	0.287694	0.078892	0.092968
O18	O	0.315491	0.082195	0.171987
C19	C	0.228296	0.078174	0.092970
C20	C	0.202032	0.074373	0.000063
C21	C	0.208900	0.067484	-0.185738
C22	C	0.149504	0.066770	-0.185735
C23	C	0.116372	0.069858	-0.092833
C24	C	0.142636	0.073659	0.000066
C25	C	0.195162	0.081255	0.185878
C26	C	0.135760	0.080536	0.185871
C27	C	0.109496	0.076735	0.092965
C28	C	0.050109	0.076033	0.092971
N29	N	0.023842	0.072226	0.000071
C30	C	0.056974	0.069139	-0.092831
C31	C	0.412435	0.080401	0.092957
C32	C	0.471831	0.081124	0.092957
C33	C	0.478697	0.074231	-0.092853
C34	C	0.419299	0.073512	-0.092851
C35	C	0.386168	0.076595	0.000057
C36	C	-0.067762	0.067641	-0.092818
C37	C	-0.127164	0.066930	-0.092806
C38	C	-0.134024	0.073820	0.093003
C39	C	-0.074628	0.074534	0.092992
C40	C	-0.041498	0.071442	0.000074
O41	O	0.016422	0.078608	0.171937
O42	O	0.029171	0.065829	-0.171837
C43	C	0.677083	-0.030122	0.000102
C44	C	0.676316	-0.093339	0.000109
C45	C	0.723553	-0.492452	0.000061
C46	C	0.722842	-0.551852	0.000053
O47	O	0.766630	-0.588605	0.000022
N48	N	0.670564	-0.574470	0.000045
C49	C	0.618995	-0.537684	0.000035
O50	O	0.574464	-0.562376	0.000027
C51	C	0.619707	-0.478285	0.000036
C52	C	0.671988	-0.455670	0.000054
C53	C	0.775829	-0.469836	0.000077
C54	C	0.776540	-0.410440	0.000087
C55	C	0.724974	-0.373659	0.000080
C56	C	0.672698	-0.396274	0.000063
C57	C	0.568139	-0.441500	0.000019
C58	C	0.568856	-0.382098	0.000018
C59	C	0.621136	-0.359483	0.000036
C60	C	0.621844	-0.300096	0.000066
N61	N	0.674121	-0.277478	0.000074
C62	C	0.725687	-0.314260	0.000081
C63	C	0.617504	-0.662426	0.000032
C64	C	0.616791	-0.721824	0.000039
C65	C	0.720638	-0.735988	0.000055
C66	C	0.721350	-0.676589	0.000055
C67	C	0.669781	-0.639808	0.000040
C68	C	0.727175	-0.189522	0.000102
C69	C	0.727882	-0.130120	0.000116
C70	C	0.624036	-0.115961	0.000095
C71	C	0.623329	-0.175358	0.000087
C72	C	0.674904	-0.212138	0.000087
O73	O	0.578079	-0.263309	0.000093
O74	O	0.770211	-0.289559	0.000075
C75	C	0.776486	0.069262	0.000093
C76	C	0.839704	0.070017	0.000096
C77	C	0.667590	0.178173	0.000055
C78	C	0.668357	0.241390	0.000041
N79	N	0.662511	0.083872	0.265599
N80	N	0.682166	0.064174	-0.265440
C81	C	0.654798	0.091609	0.474638
C82	C	0.689877	0.056439	0.525527
C83	C	0.685586	0.060744	0.641844
C84	C	0.659089	0.087305	0.358311
H85	H	0.235870	0.064968	-0.261394
O86	O	0.123901	0.063100	-0.275893
C87	C	0.035454	0.058899	-0.358269
C88	C	0.064367	0.063074	-0.256086
H89	H	-0.012682	0.058864	-0.342290
H90	H	0.043345	0.097209	-0.404109
H91	H	0.054307	0.017488	-0.404063
H92	H	0.045533	0.104461	-0.210209
H93	H	0.056480	0.024734	-0.210323
O94	O	0.393883	0.069790	-0.183191
C95	C	0.406973	0.063069	-0.367487
C96	C	0.435826	0.067270	-0.265247
H97	H	0.440869	0.061043	-0.433856
H98	H	0.384800	0.022686	-0.372201
H99	H	0.373876	0.102414	-0.372088
H100	H	0.468947	0.027955	-0.260578
H101	H	0.457962	0.107677	-0.260577
O102	O	0.729572	0.016614	0.473454
C103	C	0.806346	-0.060298	0.484501
C104	C	0.761411	-0.015236	0.543606
H105	H	0.832109	-0.086052	0.541194
H106	H	0.783724	-0.090443	0.434302
H107	H	0.836500	-0.037726	0.434239
H108	H	0.731244	-0.037759	0.593924
H109	H	0.784071	0.014906	0.593741
H110	H	0.621545	0.124951	0.518423
O111	O	-0.166144	0.076744	0.183308
C112	C	-0.183487	0.033039	0.342088
C113	C	-0.147057	0.029671	0.239866
H114	H	-0.168077	-0.005021	0.387835
H115	H	-0.178936	0.074713	0.387974
H116	H	-0.230450	0.031899	0.326094
H117	H	-0.100080	0.030787	0.255767
H118	H	-0.151657	-0.012000	0.194011
O119	O	0.573916	-0.080288	-0.000054
C120	C	0.488675	-0.053238	-0.088419
C121	C	0.545411	-0.093685	-0.088354
H122	H	0.465618	-0.064046	-0.159813
H123	H	0.460244	-0.058785	-0.017156
H124	H	0.498183	-0.006904	-0.088366
H125	H	0.535956	-0.140034	-0.088442
H126	H	0.573825	-0.088087	-0.159611
H127	H	0.575508	-0.632482	0.000029
O128	O	0.825881	-0.505614	0.000222
C129	C	0.882101	-0.577593	0.088567
C130	C	0.825383	-0.537118	0.088510
H131	H	0.881722	-0.603067	0.159951
H132	H	0.887019	-0.608436	0.017294
H133	H	0.919574	-0.551207	0.088528
H134	H	0.787877	-0.563458	0.088586
H135	H	0.820515	-0.506274	0.159777
O136	O	-0.152730	0.063161	-0.182995
C137	C	-0.209039	0.008992	-0.290851
C138	C	-0.180127	0.013197	-0.188671
H139	H	-0.231187	-0.031408	-0.295482
H140	H	-0.242150	0.048319	-0.295524
H141	H	-0.175146	0.006935	-0.357230
H142	H	-0.213979	0.015236	-0.122233
H143	H	-0.147005	-0.026130	-0.184087
H144	H	0.525567	-0.459902	-0.000002
O145	O	0.510937	0.071306	-0.183037
C146	C	0.575231	0.117472	-0.290906
C147	C	0.538754	0.120850	-0.188735
H148	H	0.597721	0.157528	-0.295556
H149	H	0.608688	0.077800	-0.295546
H150	H	0.546253	0.114602	-0.357294
H151	H	0.567686	0.123742	-0.122288
H152	H	0.505293	0.160515	-0.184184
O153	O	0.778721	-0.108250	0.000084
C154	C	0.881645	-0.128577	0.000158
C155	C	0.824113	-0.153419	0.000173
H156	H	0.918358	-0.165082	0.000252
H157	H	0.887255	-0.103780	-0.071178
H158	H	0.881906	-0.098466	0.071469
H159	H	0.823812	-0.183553	-0.071090
H160	H	0.818526	-0.178180	0.071556
O161	O	0.497252	0.084800	0.183298
C162	C	0.484152	0.091595	0.367594
C163	C	0.455295	0.087425	0.265354
H164	H	0.450241	0.093731	0.433963
H165	H	0.517212	0.052233	0.372326
H166	H	0.506368	0.131952	0.372177
H167	H	0.433047	0.047092	0.260702
H168	H	0.422266	0.126815	0.260665
H169	H	0.385462	0.082919	0.168619
O170	O	0.220652	0.084843	0.276156
C171	C	0.239638	0.041610	0.435001
C172	C	0.210758	0.037472	0.332779
H173	H	0.231640	0.003322	0.480819
H174	H	0.287794	0.041557	0.419126
H175	H	0.220826	0.083043	0.480767
H176	H	0.229524	-0.003957	0.286962
H177	H	0.162603	0.037557	0.348726
O178	O	0.103568	0.083429	0.276099
C179	C	0.039231	0.037290	0.383929
C180	C	0.075673	0.033932	0.281722
H181	H	0.016659	-0.002718	0.388499
H182	H	0.068188	0.040094	0.450363
H183	H	0.005833	0.077007	0.388558
H184	H	0.109074	-0.005782	0.276993
H185	H	0.046679	0.031159	0.215336
H186	H	0.769173	-0.219462	0.000098
O187	O	-0.049101	0.078332	0.183214
C188	C	0.007271	0.132459	0.291018
C189	C	-0.021616	0.128242	0.188815
H190	H	0.029510	0.172802	0.295570
H191	H	-0.026598	0.134584	0.357455
H192	H	0.040323	0.093083	0.295662
H193	H	-0.054663	0.167608	0.184071
H194	H	0.012286	0.126089	0.122426
O195	O	0.827377	-0.388573	0.000051
C196	C	0.930300	-0.408912	0.000121
C197	C	0.872765	-0.433746	0.000143
H198	H	0.967010	-0.445421	0.000218
H199	H	0.935913	-0.384119	-0.071218
H200	H	0.930565	-0.378799	0.071430
H201	H	0.872459	-0.463882	-0.071117
H202	H	0.867175	-0.458505	0.071529
O203	O	0.518792	-0.346308	0.000142
C204	C	0.456033	-0.267785	0.088459
C205	C	0.512751	-0.308269	0.088431
H206	H	0.451125	-0.237028	0.159844
H207	H	0.456400	-0.242218	0.017187
H208	H	0.418561	-0.294171	0.088396
H209	H	0.550254	-0.281927	0.088531
H210	H	0.512334	-0.333838	0.159697
O211	O	0.772186	-0.654720	0.000017
C212	C	0.875109	-0.675053	0.000091
C213	C	0.817576	-0.699891	0.000115
H214	H	0.911821	-0.711560	0.000192
H215	H	0.880721	-0.650263	-0.071252
H216	H	0.875372	-0.644937	0.071395
H217	H	0.817272	-0.730030	-0.071141
H218	H	0.811987	-0.724647	0.071505
O219	O	0.572587	-0.197404	-0.000058
C220	C	0.514773	-0.259479	-0.088416
C221	C	0.572268	-0.234571	-0.088355
H222	H	0.514491	-0.289524	-0.159807
H223	H	0.509196	-0.284340	-0.017150
H224	H	0.478047	-0.222975	-0.088365
H225	H	0.609028	-0.271040	-0.088443
H226	H	0.577794	-0.209694	-0.159615
H227	H	-0.040795	0.065124	-0.168481
H228	H	0.762625	-0.765946	0.000056
H229	H	0.574219	-0.740230	0.000042
