data_functionalizedCrystal
_audit_creation_method	'MofGen! by Chris Wilmer'
_symmetry_space_group_name_H-M	'P1'
_symmetry_Int_Tables_number	1
_symmetry_cell_setting	triclinic
loop_
_symmetry_equiv_pos_as_xyz
  x,y,z
_cell_length_a	18.050591
_cell_length_b	21.395363
_cell_length_c	21.395355
_cell_angle_alpha	90.007968
_cell_angle_beta	90.030556
_cell_angle_gamma	89.996470
loop_
_atom_site_label
_atom_site_type_symbol
_atom_site_fract_x
_atom_site_fract_y
_atom_site_fract_z
Zn1	Zn	1.135506	-0.249578	0.354408
Zn2	Zn	1.468840	0.083756	0.687741
Zn3	Zn	1.802173	0.417089	1.021074
Zn4	Zn	1.135456	-0.354338	0.249650
Zn5	Zn	1.468790	-0.021004	0.582983
Zn6	Zn	1.802123	0.312329	0.916316
Zn7	Zn	1.011305	-0.249571	0.249634
Zn8	Zn	1.344638	0.083763	0.582967
Zn9	Zn	1.677971	0.417096	0.916300
Zn10	Zn	1.011334	-0.354314	0.354379
Zn11	Zn	1.344667	-0.020981	0.687712
Zn12	Zn	1.678000	0.312353	1.021045
O13	O	1.073400	-0.301950	0.302017
O14	O	1.406734	0.031383	0.635351
O15	O	1.740067	0.364717	0.968684
O16	O	1.239424	-0.263487	0.340530
O17	O	1.572758	0.069846	0.673864
O18	O	1.906091	0.403179	1.007197
O19	O	1.118954	-0.340447	0.161970
O20	O	1.452288	-0.007113	0.495303
O21	O	1.785621	0.326220	0.828636
O22	O	1.027789	-0.161894	0.263537
O23	O	1.361123	0.171440	0.596871
O24	O	1.694456	0.504773	0.930204
O25	O	1.239388	-0.340454	0.263565
O26	O	1.572721	-0.007120	0.596898
O27	O	1.906054	0.326213	0.930232
O28	O	1.119040	-0.161899	0.340515
O29	O	1.452373	0.171434	0.673848
O30	O	1.785706	0.504768	1.007181
O31	O	1.027741	-0.263475	0.161958
O32	O	1.361074	0.069858	0.495291
O33	O	1.694407	0.403192	0.828624
O34	O	0.907384	-0.263452	0.263509
O35	O	1.240717	0.069881	0.596843
O36	O	1.574051	0.403214	0.930176
O37	O	1.027839	-0.340414	0.442061
O38	O	1.361172	-0.007081	0.775394
O39	O	1.694505	0.326253	1.108727
O40	O	0.907405	-0.340407	0.340465
O41	O	1.240739	-0.007074	0.673799
O42	O	1.574072	0.326260	1.007132
O43	O	1.119068	-0.263464	0.442082
O44	O	1.452401	0.069869	0.775415
O45	O	1.785734	0.403202	1.108749
O46	O	1.118983	-0.442012	0.263537
O47	O	1.452316	-0.108679	0.596870
O48	O	1.785649	0.224654	0.930203
O49	O	1.027790	-0.441995	0.340481
O50	O	1.361123	-0.108662	0.673814
O51	O	1.694457	0.224672	1.007148
C52	C	0.880448	-0.301927	0.301983
C53	C	1.213782	0.031407	0.635316
C54	C	1.547115	0.364740	0.968649
C55	C	0.797902	-0.301932	0.301983
C56	C	1.131236	0.031402	0.635316
C57	C	1.464569	0.364735	0.968649
C58	C	1.073404	-0.464738	0.302021
C59	C	1.406738	-0.131404	0.635354
C60	C	1.740071	0.201929	0.968688
C61	C	1.073474	-0.534379	0.302044
C62	C	1.406807	-0.201046	0.635377
C63	C	1.740140	0.132288	0.968710
C64	C	1.073462	-0.301937	0.465441
C65	C	1.406795	0.031396	0.798774
C66	C	1.740129	0.364729	1.132107
C67	C	1.073488	-0.301932	0.535082
C68	C	1.406822	0.031401	0.868415
C69	C	1.740155	0.364735	1.201749
C70	C	0.598419	-0.260035	0.260231
C71	C	0.931752	0.073298	0.593564
C72	C	1.265085	0.406631	0.926897
C73	C	0.549029	-0.317181	0.244821
C74	C	0.882362	0.016153	0.578154
C75	C	1.215695	0.349486	0.911488
C76	C	0.646772	-0.301951	0.302011
C77	C	0.980105	0.031383	0.635344
C78	C	1.313439	0.364716	0.968678
C79	C	0.549080	-0.244825	0.317419
C80	C	0.882414	0.088508	0.650753
C81	C	1.215747	0.421841	0.984086
C82	C	0.500787	-0.301964	0.302037
C83	C	0.834120	0.031369	0.635371
C84	C	1.167454	0.364703	0.968704
C85	C	0.598469	-0.359126	0.286572
C86	C	0.931803	-0.025793	0.619905
C87	C	1.265136	0.307541	0.953238
C88	C	0.598525	-0.286732	0.359197
C89	C	0.931859	0.046601	0.692530
C90	C	1.265192	0.379934	1.025863
C91	C	0.549158	-0.343917	0.343809
C92	C	0.882491	-0.010584	0.677142
C93	C	1.215824	0.322750	1.010475
C94	C	0.730870	-0.301942	0.301994
C95	C	1.064204	0.031391	0.635328
C96	C	1.397537	0.364724	0.968661
C97	C	0.416691	-0.301979	0.302054
C98	C	0.750024	0.031354	0.635387
C99	C	1.083357	0.364688	0.968721
C100	C	1.267106	-0.301974	0.302053
C101	C	1.600439	0.031359	0.635386
C102	C	1.933773	0.364693	0.968719
C103	C	1.349652	-0.301984	0.302068
C104	C	1.682985	0.031349	0.635401
C105	C	2.016318	0.364683	0.968734
C106	C	1.073417	-0.138527	0.302027
C107	C	1.406750	0.194807	0.635361
C108	C	1.740083	0.528140	0.968694
C109	C	1.073424	-0.068886	0.302032
C110	C	1.406757	0.264448	0.635365
C111	C	1.740090	0.597781	0.968698
C112	C	1.026000	0.432919	0.342107
C113	C	1.359334	0.766252	0.675440
C114	C	1.692667	1.099585	1.008774
C115	C	1.025989	0.367483	0.342104
C116	C	1.359322	0.700817	0.675437
C117	C	1.692656	1.034150	1.008770
C118	C	1.073465	0.334753	0.302043
C119	C	1.406798	0.668086	0.635377
C120	C	1.740131	1.001419	0.968710
C121	C	1.120942	0.367463	0.261972
C122	C	1.454275	0.700797	0.595305
C123	C	1.787608	1.034130	0.928639
C124	C	1.120946	0.432897	0.261972
C125	C	1.454280	0.766231	0.595306
C126	C	1.787613	1.099564	0.928639
C127	C	1.140365	0.231078	0.297108
C128	C	1.473699	0.564411	0.630441
C129	C	1.807032	0.897745	0.963774
C130	C	1.140362	0.165645	0.297112
C131	C	1.473695	0.498979	0.630445
C132	C	1.807029	0.832312	0.963779
C133	C	1.073450	0.132932	0.302039
C134	C	1.406784	0.466265	0.635373
C135	C	1.740117	0.799599	0.968706
C136	C	1.006540	0.165660	0.306975
C137	C	1.339874	0.498993	0.640309
C138	C	1.673207	0.832327	0.973642
C139	C	1.006545	0.231094	0.306975
C140	C	1.339878	0.564427	0.640309
C141	C	1.673211	0.897761	0.973642
C142	C	1.073465	0.263800	0.302038
C143	C	1.406798	0.597134	0.635372
C144	C	1.740132	0.930467	0.968705
C145	C	1.025961	0.029277	0.342101
C146	C	1.359294	0.362610	0.675434
C147	C	1.692627	0.695944	1.008768
C148	C	1.025948	-0.036160	0.342093
C149	C	1.359282	0.297174	0.675426
C150	C	1.692615	0.630507	1.008760
C151	C	1.120908	-0.036178	0.261965
C152	C	1.454241	0.297155	0.595298
C153	C	1.787574	0.630488	0.928632
C154	C	1.120913	0.029257	0.261970
C155	C	1.454247	0.362590	0.595303
C156	C	1.787580	0.695924	0.928636
C157	C	1.073441	0.061981	0.302041
C158	C	1.406774	0.395314	0.635374
C159	C	1.740108	0.728647	0.968708
C160	C	1.073382	-0.301917	0.139230
C161	C	1.406715	0.031416	0.472563
C162	C	1.740048	0.364749	0.805897
C163	C	1.073499	-0.301746	0.069589
C164	C	1.406833	0.031587	0.402922
C165	C	1.740166	0.364920	0.736256
C166	C	1.120989	-0.261863	0.567807
C167	C	1.454323	0.071471	0.901141
C168	C	1.787656	0.404804	1.234474
C169	C	1.120988	-0.261836	0.633243
C170	C	1.454322	0.071498	0.966576
C171	C	1.787655	0.404831	1.299909
C172	C	1.073494	-0.301889	0.665950
C173	C	1.406827	0.031444	0.999284
C174	C	1.740161	0.364777	1.332617
C175	C	1.025984	-0.341961	0.633217
C176	C	1.359317	-0.008628	0.966551
C177	C	1.692651	0.324705	1.299884
C178	C	1.025981	-0.341983	0.567783
C179	C	1.359314	-0.008649	0.901116
C180	C	1.692648	0.324684	1.234450
C181	C	1.067631	-0.358304	0.769626
C182	C	1.400965	-0.024971	1.102959
C183	C	1.734298	0.308362	1.436293
C184	C	1.067639	-0.358284	0.835059
C185	C	1.400973	-0.024951	1.168392
C186	C	1.734306	0.308383	1.501726
C187	C	1.073499	-0.301823	0.867771
C188	C	1.406832	0.031510	1.201105
C189	C	1.740165	0.364844	1.534438
C190	C	1.079365	-0.245381	0.835043
C191	C	1.412699	0.087953	1.168376
C192	C	1.746032	0.421286	1.501709
C193	C	1.079362	-0.245402	0.769608
C194	C	1.412696	0.087931	1.102942
C195	C	1.746029	0.421265	1.436275
C196	C	1.073492	-0.301870	0.736903
C197	C	1.406825	0.031463	1.070236
C198	C	1.740158	0.364796	1.403570
C199	C	1.121001	-0.261721	0.971449
C200	C	1.454334	0.071612	1.304782
C201	C	1.787668	0.404945	1.638116
C202	C	1.120995	-0.261693	1.036886
C203	C	1.454328	0.071640	1.370219
C204	C	1.787661	0.404973	1.703552
C205	C	1.025994	-0.341824	1.036859
C206	C	1.359328	-0.008491	1.370192
C207	C	1.692661	0.324842	1.703526
C208	C	1.025997	-0.341847	0.971424
C209	C	1.359330	-0.008513	1.304757
C210	C	1.692663	0.324820	1.638090
C211	C	1.073504	-0.301796	0.938723
C212	C	1.406837	0.031537	1.272056
C213	C	1.740171	0.364871	1.605389
H214	H	0.620049	-0.224627	0.224860
H215	H	0.953382	0.108706	0.558193
H216	H	1.286716	0.442040	0.891527
Br217	Br	0.512793	-0.338653	0.164237
Br218	Br	0.846126	-0.005320	0.497570
Br219	Br	1.179459	0.328013	0.830904
Br220	Br	1.185471	-0.207366	0.927065
Br221	Br	1.518804	0.125967	1.260399
Br222	Br	1.852137	0.459300	1.593732
Br223	Br	0.513330	-0.403071	0.402719
Br224	Br	0.846663	-0.069737	0.736053
Br225	Br	1.179997	0.263596	1.069386
H226	H	0.987336	0.340852	0.374735
H227	H	1.320670	0.674185	0.708068
H228	H	1.654003	1.007518	1.041402
Br229	Br	1.185440	-0.207437	0.677666
Br230	Br	1.518773	0.125897	1.010999
Br231	Br	1.852107	0.459230	1.344332
H232	H	0.987297	-0.374611	0.541139
H233	H	1.320630	-0.041278	0.874472
H234	H	1.653963	0.292056	1.207805
Br235	Br	0.915725	0.121272	0.313664
Br236	Br	1.249058	0.454606	0.646998
Br237	Br	1.582392	0.787939	0.980331
Br238	Br	0.634471	-0.439680	0.264776
Br239	Br	0.967804	-0.106347	0.598109
Br240	Br	1.301137	0.226987	0.931443
Br241	Br	1.185478	-0.207318	1.081300
Br242	Br	1.518811	0.126015	1.414634
Br243	Br	1.852144	0.459349	1.747967
H244	H	1.084137	-0.199445	0.742964
H245	H	1.417471	0.133888	1.076297
H246	H	1.750804	0.467222	1.409630
H247	H	0.987311	-0.374571	0.659852
H248	H	1.320645	-0.041238	0.993185
H249	H	1.653978	0.292096	1.326519
H250	H	0.952065	0.257740	0.310993
H251	H	1.285398	0.591073	0.644326
H252	H	1.618732	0.924406	0.977660
Br253	Br	0.961532	0.073692	0.396479
Br254	Br	1.294866	0.407025	0.729812
Br255	Br	1.628199	0.740358	1.063146
H256	H	1.159606	0.459524	0.229347
H257	H	1.492939	0.792858	0.562680
H258	H	1.826272	1.126191	0.896014
H259	H	1.062661	-0.404270	0.742997
H260	H	1.395995	-0.070936	1.076330
H261	H	1.729328	0.262397	1.409664
H262	H	0.620283	-0.273833	0.407531
H263	H	0.953617	0.059500	0.740865
H264	H	1.286950	0.392834	1.074198
H265	H	0.987283	-0.062785	0.374715
H266	H	1.320617	0.270548	0.708048
H267	H	1.653950	0.603882	1.041382
Br268	Br	1.185370	0.323045	0.207601
Br269	Br	1.518703	0.656379	0.540934
Br270	Br	1.852036	0.989712	0.874267
Br271	Br	0.512913	-0.164299	0.339120
Br272	Br	0.846246	0.169035	0.672453
Br273	Br	1.179580	0.502368	1.005787
H274	H	1.159562	-0.062827	0.229346
H275	H	1.492895	0.270507	0.562679
H276	H	1.826229	0.603840	0.896013
H277	H	0.987344	0.459560	0.374734
H278	H	1.320677	0.792894	0.708067
H279	H	1.654010	1.126227	1.041400
Br280	Br	1.185352	0.073642	0.207600
Br281	Br	1.518686	0.406976	0.540934
Br282	Br	1.852019	0.740309	0.874267
Br283	Br	1.231181	0.275468	0.290410
Br284	Br	1.564514	0.608801	0.623743
Br285	Br	1.897847	0.942134	0.957076
Br286	Br	1.231168	0.121235	0.290425
Br287	Br	1.564501	0.454569	0.623758
Br288	Br	1.897835	0.787902	0.957091
H289	H	0.987316	-0.374430	1.063489
H290	H	1.320649	-0.041097	1.396822
H291	H	1.653983	0.292236	1.730156
Br292	Br	1.185460	-0.207506	0.523430
Br293	Br	1.518793	0.125827	0.856763
Br294	Br	1.852127	0.459161	1.190097
H295	H	1.084138	-0.199405	0.861676
H296	H	1.417471	0.133928	1.195009
H297	H	1.750804	0.467262	1.528342
H298	H	0.987321	-0.374479	0.944779
H299	H	1.320654	-0.041146	1.278112
H300	H	1.653987	0.292187	1.611445
Br301	Br	1.059688	-0.434883	0.879470
Br302	Br	1.393021	-0.101550	1.212803
Br303	Br	1.726355	0.231783	1.546136
