data_functionalizedCrystal
_audit_creation_method	'MofGen! by Chris Wilmer'
_symmetry_space_group_name_H-M	'P1'
_symmetry_Int_Tables_number	1
_symmetry_cell_setting	triclinic
loop_
_symmetry_equiv_pos_as_xyz
  x,y,z
_cell_length_a	6.817900
_cell_length_b	17.982783
_cell_length_c	17.982968
_cell_angle_alpha	95.926085
_cell_angle_beta	102.451960
_cell_angle_gamma	102.448572
loop_
_atom_site_label
_atom_site_type_symbol
_atom_site_fract_x
_atom_site_fract_y
_atom_site_fract_z
V1	V	-4.009918	-0.106127	-0.237867
O2	O	-4.003034	0.004365	-0.233013
O3	O	-3.956470	-0.209725	-0.236553
O4	O	-3.956489	-0.104816	-0.341466
O5	O	-4.003015	-0.101269	-0.127374
V6	V	-4.494852	-0.092872	-0.224613
O7	O	-4.268082	-0.135201	-0.266940
O8	O	-4.686885	-0.063798	-0.195540
O9	O	-4.325093	0.010726	-0.225927
O10	O	-4.619133	-0.203364	-0.229466
O11	O	-4.619152	-0.097730	-0.335106
O12	O	-4.325074	-0.094183	-0.121014
C13	C	-3.800406	-0.234970	-0.232881
C14	C	-3.837959	-0.319665	-0.232498
C15	C	-3.800429	-0.101148	-0.366707
C16	C	-3.837995	-0.100762	-0.451402
C17	C	-3.819323	-0.348365	-0.162514
C18	C	-3.854628	-0.427945	-0.162156
C19	C	-3.908554	-0.478825	-0.231782
C20	C	-3.927196	-0.450120	-0.301772
C21	C	-3.891906	-0.370541	-0.302129
C22	C	-4.069522	-0.771054	-0.300333
C23	C	-4.104806	-0.850638	-0.299970
C24	C	-4.032244	-0.828458	-0.160359
C25	C	-3.996953	-0.748879	-0.160716
C26	C	-4.015609	-0.720182	-0.230705
C27	C	-3.977331	-0.633891	-0.231093
C28	C	-3.946818	-0.565113	-0.231396
C29	C	-4.037378	-0.104398	-0.495085
C30	C	-4.072664	-0.104036	-0.574664
C31	C	-3.908566	-0.100041	-0.610561
C32	C	-3.709166	-0.096402	-0.566872
C33	C	-3.673880	-0.096760	-0.487293
C34	C	-3.851463	-0.094959	-0.887805
C35	C	-3.886766	-0.094604	-0.967390
C36	C	-4.250247	-0.102235	-0.975176
C37	C	-4.214961	-0.102593	-0.895597
C38	C	-4.015563	-0.098949	-0.851915
C39	C	-3.977304	-0.099342	-0.765625
C40	C	-3.946825	-0.099655	-0.696849
C41	C	-4.144500	0.035967	-0.229596
C42	C	-4.086185	0.120661	-0.229985
C43	C	-4.144477	-0.097854	-0.095769
C44	C	-4.086149	-0.098236	-0.011073
H45	H	-3.775397	-0.306943	-0.105815
O46	O	-4.444052	-0.105909	-1.017602
C47	C	-4.580440	-0.174635	-1.011044
H48	H	-4.488462	-0.218851	-0.994248
H49	H	-4.697644	-0.198397	-1.068681
H50	H	-4.665502	-0.162232	-0.964901
O51	O	-3.657789	-0.091588	-0.845476
C52	C	-3.590453	-0.155511	-0.873162
H53	H	-3.730668	-0.203977	-0.904649
H54	H	-3.496295	-0.176304	-0.822635
H55	H	-3.489947	-0.137943	-0.914587
H56	H	-3.907104	-0.347176	-0.359118
O57	O	-4.157561	-0.900041	-0.367637
C58	C	-4.343664	-0.891027	-0.413817
H59	H	-4.433409	-0.865243	-0.375599
H60	H	-4.441291	-0.949633	-0.446455
H61	H	-4.306783	-0.850917	-0.456738
H62	H	-4.171013	-0.107656	-0.465865
O63	O	-3.836369	-0.455921	-0.094223
C64	C	-3.681940	-0.497593	-0.086199
H65	H	-3.661118	-0.517901	-0.145542
H66	H	-3.730302	-0.549698	-0.057235
H67	H	-3.529530	-0.458880	-0.049332
O68	O	-3.550007	-0.092559	-0.601866
C69	C	-3.623892	-0.093007	-0.681469
H70	H	-3.797501	-0.120480	-0.699536
H71	H	-3.540546	-0.127615	-0.715129
H72	H	-3.593373	-0.031289	-0.694112
H73	H	-3.971120	-0.491553	-0.358464
O74	O	-3.944676	-0.699564	-0.093013
C75	C	-3.935751	-0.741960	-0.031164
H76	H	-4.034657	-0.803289	-0.052697
H77	H	-3.996982	-0.713284	0.015522
H78	H	-3.768401	-0.743589	-0.006303
O79	O	-4.266483	-0.107596	-0.616987
C80	C	-4.403740	-0.111177	-0.568236
H81	H	-4.337919	-0.134571	-0.514225
H82	H	-4.560376	-0.150907	-0.599862
H83	H	-4.423918	-0.050949	-0.551201
O84	O	-4.374153	-0.106505	-0.860612
C85	C	-4.300243	-0.106022	-0.781004
H86	H	-4.151824	-0.127037	-0.770639
H87	H	-4.422216	-0.145773	-0.759151
H88	H	-4.266926	-0.044869	-0.748848
O89	O	-4.087313	-0.743081	-0.368260
C90	C	-3.896400	-0.694027	-0.369035
H91	H	-3.802036	-0.671246	-0.307273
H92	H	-3.925793	-0.643591	-0.399643
H93	H	-3.806994	-0.727575	-0.400814
O94	O	-3.727211	-0.090580	-1.002203
C95	C	-3.573561	-0.022029	-0.969845
H96	H	-3.646129	0.021992	-0.942884
H97	H	-3.502780	0.002201	-1.016880
H98	H	-3.447528	-0.034845	-0.923607
O99	O	-3.480170	-0.093099	-0.444802
C100	C	-3.414445	-0.026767	-0.387989
H101	H	-3.504118	0.017535	-0.406820
H102	H	-3.241732	-0.001140	-0.380101
H103	H	-3.444333	-0.043058	-0.331108
O104	O	-4.014327	-0.856467	-0.092440
C105	C	-4.056998	-0.937614	-0.107047
H106	H	-4.156117	-0.959364	-0.168316
H107	H	-4.144038	-0.962844	-0.064359
H108	H	-3.905349	-0.956251	-0.100279
