data_functionalizedCrystal
_audit_creation_method	'MofGen! by Chris Wilmer'
_symmetry_space_group_name_H-M	'P1'
_symmetry_Int_Tables_number	1
_symmetry_cell_setting	triclinic
loop_
_symmetry_equiv_pos_as_xyz
  x,y,z
_cell_length_a	17.077402
_cell_length_b	21.295418
_cell_length_c	17.077396
_cell_angle_alpha	90.042909
_cell_angle_beta	89.970962
_cell_angle_gamma	89.956563
loop_
_atom_site_label
_atom_site_type_symbol
_atom_site_fract_x
_atom_site_fract_y
_atom_site_fract_z
Zn1	Zn	-0.312127	-0.962348	-0.444330
Zn2	Zn	0.187873	-0.462348	0.055670
Zn3	Zn	-0.443401	-0.962269	-0.313063
Zn4	Zn	0.056599	-0.462269	0.186937
Zn5	Zn	-0.312195	-0.857080	-0.313024
Zn6	Zn	0.187805	-0.357080	0.186976
Zn7	Zn	-0.443396	-0.857050	-0.444233
Zn8	Zn	0.056604	-0.357050	0.055767
O9	O	-0.377780	-0.909687	-0.378663
O10	O	0.122220	-0.409687	0.121337
O11	O	-0.329514	-1.050427	-0.426974
O12	O	0.170486	-0.550427	0.073026
O13	O	-0.426028	-0.948295	-0.203211
O14	O	0.073972	-0.448295	0.296789
O15	O	-0.202339	-0.871090	-0.330467
O16	O	0.297661	-0.371090	0.169533
O17	O	-0.425961	-1.050369	-0.330533
O18	O	0.074039	-0.550369	0.169467
O19	O	-0.202289	-0.948430	-0.426937
O20	O	0.297711	-0.448430	0.073063
O21	O	-0.329631	-0.871014	-0.203183
O22	O	0.170369	-0.371014	0.296817
O23	O	-0.329626	-0.768987	-0.330373
O24	O	0.170374	-0.268987	0.169627
O25	O	-0.425952	-0.871039	-0.554093
O26	O	0.074048	-0.371039	-0.054093
O27	O	-0.426019	-0.768965	-0.426771
O28	O	0.073981	-0.268965	0.073229
O29	O	-0.329509	-0.948401	-0.554164
O30	O	0.170491	-0.448401	-0.054164
O31	O	-0.553248	-0.948266	-0.330438
O32	O	-0.053248	-0.448266	0.169562
O33	O	-0.553244	-0.870962	-0.426808
O34	O	-0.053244	-0.370962	0.073192
C35	C	-0.377830	-0.746135	-0.378558
C36	C	0.122170	-0.246135	0.121442
C37	C	-0.377870	-0.676167	-0.378531
C38	C	0.122130	-0.176167	0.121469
C39	C	-0.581728	-0.909620	-0.378634
C40	C	-0.081728	-0.409620	0.121366
C41	C	-0.668978	-0.909648	-0.378648
C42	C	-0.168978	-0.409648	0.121352
C43	C	-1.044702	-0.950027	-0.428986
C44	C	-0.544702	-0.450027	0.071014
C45	C	-0.962721	-0.949999	-0.428967
C46	C	-0.462721	-0.449999	0.071033
C47	C	-0.921826	-0.909748	-0.378694
C48	C	-0.421826	-0.409748	0.121306
C49	C	-0.962916	-0.869527	-0.328431
C50	C	-0.462916	-0.369527	0.171569
C51	C	-1.044895	-0.869559	-0.328446
C52	C	-0.544895	-0.369559	0.171554
C53	C	-0.792046	-0.869463	-0.328404
C54	C	-0.292046	-0.369463	0.171596
C55	C	-0.710061	-0.869430	-0.328390
C56	C	-0.210061	-0.369430	0.171610
C57	C	-0.709873	-0.949902	-0.428926
C58	C	-0.209873	-0.449902	0.071074
C59	C	-0.791851	-0.949934	-0.428941
C60	C	-0.291851	-0.449934	0.071059
C61	C	-0.832935	-0.909712	-0.378678
C62	C	-0.332935	-0.409712	0.121322
C63	C	-0.428130	-0.643306	-0.428648
C64	C	0.071870	-0.143306	0.071352
C65	C	-0.428114	-0.577563	-0.428677
C66	C	0.071886	-0.077563	0.071323
C67	C	-0.377846	-0.544685	-0.378576
C68	C	0.122154	-0.044685	0.121424
C69	C	-0.327577	-0.577554	-0.328456
C70	C	0.172423	-0.077554	0.171544
C71	C	-0.327588	-0.643296	-0.328433
C72	C	0.172412	-0.143296	0.171567
N73	N	-0.371721	-0.441413	-0.309910
N74	N	0.128279	0.058587	0.190090
N75	N	-0.371715	-0.378962	-0.309933
N76	N	0.128285	0.121038	0.190067
C77	C	-0.377807	-0.346610	-0.378641
C78	C	0.122193	0.153390	0.121359
N79	N	-0.383920	-0.379069	-0.447327
N80	N	0.116080	0.120931	0.052673
N81	N	-0.383931	-0.441527	-0.447302
N82	N	0.116069	0.058473	0.052698
C83	C	-0.377828	-0.473400	-0.378595
C84	C	0.122172	0.026600	0.121405
C85	C	-0.428052	-0.242463	-0.428794
C86	C	0.071948	0.257537	0.071206
C87	C	-0.428030	-0.176719	-0.428825
C88	C	0.071970	0.323281	0.071175
C89	C	-0.327497	-0.176712	-0.328596
C90	C	0.172503	0.323288	0.171404
C91	C	-0.327515	-0.242454	-0.328573
C92	C	0.172485	0.257546	0.171427
C93	C	-0.377796	-0.275326	-0.378670
C94	C	0.122204	0.224674	0.121330
C95	C	-0.173035	-0.909772	-0.378709
C96	C	0.326965	-0.409772	0.121291
C97	C	-0.085786	-0.909808	-0.378728
C98	C	0.414214	-0.409808	0.121272
C99	C	-0.377722	-0.909725	-0.583407
C100	C	0.122278	-0.409725	-0.083407
C101	C	-0.377697	-0.909741	-0.670657
C102	C	0.122303	-0.409741	-0.170657
C103	C	-0.377743	-0.073877	-0.378746
C104	C	0.122257	0.426123	0.121254
C105	C	-0.377761	-0.143846	-0.378724
C106	C	0.122239	0.356154	0.121276
C107	C	-0.327475	-0.950025	-0.711685
C108	C	0.172525	-0.450025	-0.211685
C109	C	-0.327449	-0.950033	-0.793666
C110	C	0.172551	-0.450033	-0.293666
C111	C	-0.377650	-0.909759	-0.834616
C112	C	0.122350	-0.409759	-0.334616
C113	C	-0.427874	-0.869471	-0.793582
C114	C	0.072126	-0.369471	-0.293582
C115	C	-0.427896	-0.869461	-0.711603
C116	C	0.072104	-0.369461	-0.211603
C117	C	-0.427827	-0.869497	-0.964452
C118	C	0.072173	-0.369497	-0.464452
C119	C	-0.427806	-0.869507	-1.046437
C120	C	0.072194	-0.369507	-0.546437
C121	C	-0.327380	-0.950068	-1.046515
C122	C	0.172620	-0.450068	-0.546515
C123	C	-0.327402	-0.950058	-0.964536
C124	C	0.172598	-0.450058	-0.464536
C125	C	-0.377627	-0.909771	-0.923507
C126	C	0.122373	-0.409771	-0.423507
C127	C	-0.377781	-0.909685	-0.174715
C128	C	0.122219	-0.409685	0.325285
C129	C	-0.377584	-0.909791	-0.087465
C130	C	0.122416	-0.409791	0.412535
H131	H	-1.077993	-0.982798	-0.469932
H132	H	-0.577993	-0.482798	0.030068
H133	H	-0.468713	-0.836680	-0.931049
H134	H	0.031287	-0.336680	-0.431049
Br135	Br	-0.259279	-1.004721	-0.908961
Br136	Br	0.240721	-0.504721	-0.408961
H137	H	-0.286565	-0.149943	-0.287807
H138	H	0.213435	0.350057	0.212193
Br139	Br	-0.259301	-0.287056	-0.260553
Br140	Br	0.240699	0.212944	0.239447
Br141	Br	-0.496052	-0.814784	-0.655920
Br142	Br	0.003948	-0.314784	-0.155920
Br143	Br	-0.906968	-1.004585	-0.497177
Br144	Br	-0.406968	-0.504585	0.002823
Br145	Br	-0.259348	-1.004690	-0.656118
Br146	Br	0.240652	-0.504690	-0.156118
Br147	Br	-0.847352	-1.004550	-0.497182
Br148	Br	-0.347352	-0.504550	0.002818
H149	H	-0.676417	-0.982652	-0.469851
H150	H	-0.176417	-0.482652	0.030149
H151	H	-0.676769	-0.836654	-0.287452
H152	H	-0.176769	-0.336654	0.212548
H153	H	-0.468956	-0.149964	-0.469641
H154	H	0.031044	0.350036	0.030359
Br155	Br	-0.259220	-1.004747	-1.102196
Br156	Br	0.240780	-0.504747	-0.602196
Br157	Br	-0.907416	-0.814905	-0.260197
Br158	Br	-0.407416	-0.314905	0.239803
H159	H	-0.469072	-0.670066	-0.469442
H160	H	0.030928	-0.170066	0.030558
Br161	Br	-0.496327	-0.532955	-0.496699
Br162	Br	0.003673	-0.032955	0.003301
H163	H	-0.286647	-0.550781	-0.287665
H164	H	0.213353	-0.050781	0.212335
H165	H	-0.286555	-0.982837	-0.827068
H166	H	0.213445	-0.482837	-0.327068
Br167	Br	-0.847802	-0.814879	-0.260186
Br168	Br	-0.347802	-0.314879	0.239814
H169	H	-1.078344	-0.836809	-0.287521
H170	H	-0.578344	-0.336809	0.212479
Br171	Br	-0.495929	-0.814844	-1.102012
Br172	Br	0.004071	-0.314844	-0.602012
Br173	Br	-0.259372	-0.687897	-0.260414
Br174	Br	0.240628	-0.187897	0.239586
H175	H	-0.468745	-0.836678	-0.826930
H176	H	0.031255	-0.336678	-0.326930
H177	H	-0.468990	-0.269229	-0.469591
H178	H	0.031010	0.230771	0.030409
