data_functionalizedCrystal
_audit_creation_method	'MofGen! by Chris Wilmer'
_symmetry_space_group_name_H-M	'P1'
_symmetry_Int_Tables_number	1
_symmetry_cell_setting	triclinic
loop_
_symmetry_equiv_pos_as_xyz
  x,y,z
_cell_length_a	10.654556
_cell_length_b	17.019294
_cell_length_c	9.730223
_cell_angle_alpha	86.116633
_cell_angle_beta	89.998368
_cell_angle_gamma	83.939732
loop_
_atom_site_label
_atom_site_type_symbol
_atom_site_fract_x
_atom_site_fract_y
_atom_site_fract_z
O1	O	1.666099	0.110818	-0.127351
O2	O	1.300456	0.121369	-0.128613
O3	O	1.493478	0.001317	-0.114391
O4	O	1.473077	0.230870	-0.141573
O5	O	1.493466	0.001314	0.114189
O6	O	1.300444	0.121366	0.099967
O7	O	1.666087	0.110815	0.101230
Zn8	Zn	1.483263	0.116090	0.136890
Zn9	Zn	1.483280	0.116094	-0.164274
O10	O	1.473065	0.230867	0.087008
C11	C	1.253664	0.120592	-0.014233
C12	C	1.114258	0.118271	-0.013964
C13	C	0.917770	0.115005	-0.138165
C14	C	1.048759	0.117181	-0.138431
C15	C	1.048764	0.117177	0.110779
C16	C	0.917779	0.114995	0.111045
C17	C	1.492698	-0.028078	0.003376
C18	C	1.490378	-0.115661	0.013738
C19	C	1.489297	-0.156802	-0.105993
C20	C	1.487109	-0.239095	-0.096253
C21	C	1.486010	-0.280247	0.033219
C22	C	1.487087	-0.239100	0.152958
C23	C	1.489266	-0.156808	0.143217
C24	C	1.479421	-0.528716	0.068865
C25	C	1.477246	-0.611014	0.078597
C26	C	1.477265	-0.611003	-0.170615
C27	C	1.479452	-0.528710	-0.180345
C28	C	1.480522	-0.487570	-0.060606
C29	C	1.483777	-0.364364	0.043178
C30	C	1.482746	-0.403454	-0.070566
C31	C	1.712879	0.111592	-0.013154
C32	C	1.852285	0.113913	-0.013432
C33	C	1.473845	0.260262	-0.030763
C34	C	1.476165	0.347845	-0.041133
N35	N	1.483261	0.116086	0.342427
N36	N	1.483292	0.116091	-0.369810
C37	C	1.568760	0.062950	0.420648
C38	C	1.568773	0.062950	0.564531
C39	C	1.397784	0.169230	0.551959
C40	C	1.397766	0.169226	0.408079
H41	H	0.864449	0.114123	-0.239522
H42	H	1.102071	0.118068	-0.240002
H43	H	1.486185	-0.272612	0.258377
H44	H	1.102105	0.118059	0.212124
C45	C	1.303716	0.227681	0.322030
H46	H	1.252813	0.259337	0.381734
H47	H	1.251493	0.198994	0.269312
H48	H	1.348829	0.260783	0.261971
C49	C	1.482575	-0.409630	0.185592
H50	H	1.483526	-0.373345	0.255513
H51	H	1.554917	-0.447350	0.195234
H52	H	1.408514	-0.436115	0.193897
H53	H	0.864460	0.114106	0.212624
C54	C	1.490505	-0.111542	-0.248413
H55	H	1.489537	-0.147832	-0.318324
H56	H	1.564551	-0.085052	-0.256731
H57	H	1.418149	-0.073827	-0.258058
H58	H	1.476345	-0.644517	0.184034
C59	C	1.303758	0.227686	0.624180
H60	H	1.316022	0.220085	0.721072
H61	H	1.219962	0.218630	0.601693
H62	H	1.317304	0.280414	0.594340
H63	H	1.638374	0.019680	0.367198
H64	H	1.486234	-0.272588	-0.193750
C65	C	1.480671	-0.483445	-0.322760
H66	H	1.482140	-0.428544	-0.311413
H67	H	1.407126	-0.491313	-0.373044
H68	H	1.553529	-0.502548	-0.371678
C69	C	1.476072	-0.656257	-0.302316
H70	H	1.474605	-0.711160	-0.277977
H71	H	1.549625	-0.648382	-0.354448
H72	H	1.403222	-0.637152	-0.355768
H73	H	1.480318	-0.495232	0.166366
H74	H	1.490128	-0.123311	0.240714
C75	C	1.662826	0.004503	0.650567
H76	H	1.713744	-0.027139	0.590856
H77	H	1.617729	-0.028601	0.710628
H78	H	1.715053	0.033195	0.703283
H79	H	1.483632	-0.369944	-0.175981
