data_functionalizedCrystal
_audit_creation_method	'MofGen! by Chris Wilmer'
_symmetry_space_group_name_H-M	'P1'
_symmetry_Int_Tables_number	1
_symmetry_cell_setting	triclinic
loop_
_symmetry_equiv_pos_as_xyz
  x,y,z
_cell_length_a	17.699083
_cell_length_b	15.995350
_cell_length_c	16.176319
_cell_angle_alpha	89.995430
_cell_angle_beta	89.998611
_cell_angle_gamma	83.387695
loop_
_atom_site_label
_atom_site_type_symbol
_atom_site_fract_x
_atom_site_fract_y
_atom_site_fract_z
O1	O	1.004255	0.105885	-0.068627
O2	O	1.504255	0.605885	0.431373
O3	O	0.783899	0.119661	-0.068653
O4	O	1.283899	0.619661	0.431347
O5	O	0.900101	-0.009127	-0.068638
O6	O	1.400101	0.490873	0.431362
O7	O	0.888054	0.234673	-0.068641
O8	O	1.388054	0.734673	0.431359
O9	O	0.900085	-0.009135	0.068855
O10	O	1.400085	0.490865	0.568855
O11	O	0.783883	0.119653	0.068840
O12	O	1.283883	0.619653	0.568840
O13	O	1.004239	0.105877	0.068867
O14	O	1.504239	0.605877	0.568867
Cu15	Cu	0.894060	0.112764	0.081408
Cu16	Cu	1.394060	0.612764	0.581408
Cu17	Cu	0.894079	0.112774	-0.081194
Cu18	Cu	1.394079	0.612774	0.418806
O19	O	0.888038	0.234665	0.068852
O20	O	1.388038	0.734665	0.568852
C21	C	0.755694	0.119163	0.000090
C22	C	1.255694	0.619163	0.500090
C23	C	0.671673	0.117683	0.000080
C24	C	1.171673	0.617683	0.500080
C25	C	0.623178	0.193278	0.000079
C26	C	1.123178	0.693278	0.500079
C27	C	0.544232	0.191882	0.000090
C28	C	1.044232	0.691882	0.500090
C29	C	0.513783	0.114889	0.000095
C30	C	1.013783	0.614889	0.500095
C31	C	0.562285	0.039287	0.000098
C32	C	1.062285	0.539287	0.500098
C33	C	0.641229	0.040685	0.000094
C34	C	1.141229	0.540685	0.500094
C35	C	0.243912	0.033651	0.000119
C36	C	0.743912	0.533651	0.500119
C37	C	0.164962	0.032259	0.000121
C38	C	0.664962	0.532259	0.500121
C39	C	0.146916	0.184848	0.000115
C40	C	0.646916	0.684848	0.500115
C41	C	0.225860	0.186245	0.000110
C42	C	0.725860	0.686245	0.500110
C43	C	0.274354	0.110644	0.000118
C44	C	0.774354	0.610644	0.500118
C45	C	0.359956	0.112159	0.000108
C46	C	0.859956	0.612159	0.500108
C47	C	0.428183	0.113373	0.000099
C48	C	0.928183	0.613373	0.500099
C49	C	0.899595	-0.040324	0.000107
C50	C	1.399595	0.459676	0.500107
C51	C	0.898101	-0.133272	0.000102
C52	C	1.398101	0.366728	0.500102
C53	C	0.892739	-0.471008	0.000104
C54	C	1.392739	0.028992	0.500104
C55	C	0.809983	-0.423406	-0.000214
C56	C	1.309983	0.076594	0.499786
C57	C	0.811476	-0.326719	0.000096
C58	C	1.311476	0.173281	0.500096
C59	C	0.895399	-0.303453	0.000102
C60	C	1.395399	0.196547	0.500102
C61	C	0.936208	-0.344618	0.078621
C62	C	1.436208	0.155382	0.578621
C63	C	0.934129	-0.441250	0.078687
C64	C	1.434129	0.058750	0.578687
C65	C	0.935857	-0.441602	-0.077669
C66	C	1.435857	0.058398	0.422331
C67	C	0.935838	-0.344657	-0.078706
C68	C	1.435838	0.155343	0.421294
C69	C	0.896907	-0.208759	0.000104
C70	C	1.396907	0.291241	0.500104
C71	C	0.891234	-0.565703	0.000108
C72	C	1.391234	-0.065703	0.500108
C73	C	1.032445	0.106375	0.000122
C74	C	1.532445	0.606375	0.500122
C75	C	1.116465	0.107856	0.000126
C76	C	1.616465	0.607856	0.500126
C77	C	0.888544	0.265863	0.000105
C78	C	1.388544	0.765863	0.500105
C79	C	0.890037	0.358810	0.000104
C80	C	1.390037	0.858810	0.500104
N81	N	0.894052	0.112757	0.195773
N82	N	1.394052	0.612757	0.695773
N83	N	0.894092	0.112775	-0.195559
N84	N	1.394092	0.612775	0.304441
C85	C	0.945521	0.055753	0.239043
C86	C	1.445521	0.555753	0.739043
C87	C	0.945525	0.055752	0.325591
C88	C	1.445525	0.555752	0.825591
C89	C	0.894063	0.112760	0.368865
C90	C	1.394063	0.612760	0.868865
C91	C	0.842588	0.169767	0.325589
C92	C	1.342588	0.669767	0.825589
C93	C	0.842581	0.169763	0.239043
C94	C	1.342581	0.669763	0.739043
C95	C	0.842614	0.169782	0.674617
C96	C	1.342614	0.669782	1.174617
C97	C	0.842626	0.169783	0.761168
C98	C	1.342626	0.669783	1.261168
C99	C	0.945558	0.055772	0.761164
C100	C	1.445558	0.555772	1.261164
C101	C	0.945551	0.055768	0.674619
C102	C	1.445551	0.555768	1.174619
C103	C	0.894074	0.112771	0.631350
C104	C	1.394074	0.612771	1.131350
C105	C	0.894069	0.112770	0.537505
C106	C	1.394069	0.612770	1.037505
C107	C	0.894070	0.112765	0.462708
C108	C	1.394070	0.612765	0.962708
H109	H	0.779397	-0.298228	-0.056190
H110	H	1.279397	0.201772	0.443810
O111	O	0.995438	0.000243	0.197066
O112	O	1.495438	0.500243	0.697066
C113	C	0.983132	-0.082613	0.218270
C114	C	1.483132	0.417387	0.718270
H115	H	0.922534	-0.082913	0.242055
H116	H	1.422534	0.417087	0.742055
H117	H	0.991840	-0.124673	0.161376
H118	H	1.491840	0.375327	0.661376
H119	H	1.025071	-0.107251	0.268522
H120	H	1.525071	0.392749	0.768522
O121	O	0.652626	0.268144	0.000109
O122	O	1.152626	0.768144	0.500109
C123	C	0.592890	0.334566	0.000092
C124	C	1.092890	0.834566	0.500092
H125	H	0.539264	0.311200	0.026126
H126	H	1.039264	0.811200	0.526126
H127	H	0.609387	0.388329	0.040007
H128	H	1.109387	0.888329	0.540007
H129	H	0.581716	0.357881	-0.065871
H130	H	1.081716	0.857881	0.434129
O131	O	0.770411	-0.445442	-0.067296
O132	O	1.270411	0.054558	0.432704
C133	C	0.705505	-0.481567	-0.040957
C134	C	1.205505	0.018433	0.459043
H135	H	0.689761	-0.459266	0.024394
H136	H	1.189761	0.040734	0.524394
H137	H	0.656078	-0.461566	-0.084514
H138	H	1.156078	0.038434	0.415486
H139	H	0.718189	-0.553078	-0.041452
H140	H	1.218189	-0.053078	0.458548
H141	H	0.504750	0.253440	0.000088
H142	H	1.004750	0.753440	0.500088
O143	O	0.688370	-0.032727	0.000237
O144	O	1.188370	0.467273	0.500237
C145	C	0.734589	-0.036479	0.071434
C146	C	1.234589	0.463521	0.571434
H147	H	0.705678	0.006393	0.121204
H148	H	1.205678	0.506393	0.621204
H149	H	0.743468	-0.103944	0.095338
H150	H	1.243468	0.396056	0.595338
H151	H	0.791995	-0.014923	0.055331
H152	H	1.291995	0.485077	0.555331
O153	O	0.898727	-0.463083	0.148751
O154	O	1.398727	0.036917	0.648751
C155	C	0.949002	-0.519557	0.195233
C156	C	1.449002	-0.019557	0.695233
H157	H	1.010157	-0.511510	0.177817
H158	H	1.510157	-0.011510	0.677817
H159	H	0.939978	-0.505963	0.263926
H160	H	1.439978	-0.005963	0.763926
H161	H	0.937525	-0.586861	0.181542
H162	H	1.437525	-0.086861	0.681542
O163	O	0.792586	0.225238	0.632721
O164	O	1.292586	0.725238	1.132721
C165	C	0.747158	0.275541	0.689478
C166	C	1.247158	0.775541	1.189478
H167	H	0.778196	0.276444	0.751164
H168	H	1.278196	0.776444	1.251164
H169	H	0.735605	0.342426	0.664467
H170	H	1.235605	0.842426	1.164467
H171	H	0.690939	0.248431	0.698697
H172	H	1.190939	0.748431	1.198697
H173	H	0.777046	-0.442936	0.055772
H174	H	1.277046	0.057064	0.555772
O175	O	0.900367	-0.312123	-0.148091
O176	O	1.400367	0.187877	0.351909
C177	C	0.937162	-0.349543	-0.218447
C178	C	1.437162	0.150457	0.281553
H179	H	0.968985	-0.413082	-0.200823
H180	H	1.468985	0.086918	0.299177
H181	H	0.893081	-0.358952	-0.267947
H182	H	1.393081	0.141048	0.232053
H183	H	0.979172	-0.306855	-0.243463
H184	H	1.479172	0.193145	0.256537
O185	O	1.008845	-0.326436	-0.084216
O186	O	1.508845	0.173564	0.415784
C187	C	1.025024	-0.275752	-0.016636
C188	C	1.525024	0.224248	0.483364
H189	H	0.984479	-0.285350	0.036388
H190	H	1.484479	0.214650	0.536388
H191	H	1.086137	-0.294128	0.004462
H192	H	1.586137	0.205872	0.504462
H193	H	1.017539	-0.206794	-0.036111
H194	H	1.517539	0.293206	0.463889
O195	O	0.255343	0.261091	-0.000007
O196	O	0.755343	0.761091	0.499993
C197	C	0.230571	0.307158	-0.071226
C198	C	0.730571	0.807158	0.428774
H199	H	0.175820	0.284446	-0.094962
H200	H	0.675820	0.784446	0.405038
H201	H	0.219609	0.376906	-0.055212
H202	H	0.719609	0.876906	0.444788
H203	H	0.276252	0.297373	-0.121092
H204	H	0.776252	0.797373	0.378908
O205	O	1.008614	-0.479742	-0.078195
O206	O	1.508614	0.020258	0.421805
C207	C	1.020559	-0.532718	-0.008622
C208	C	1.520559	-0.032718	0.491378
H209	H	0.963654	-0.550845	0.013997
H210	H	1.463654	-0.050845	0.513997
H211	H	1.059279	-0.591950	-0.026304
H212	H	1.559279	-0.091950	0.473696
H213	H	1.048403	-0.498198	0.042698
H214	H	1.548403	0.001802	0.542698
H215	H	0.987435	0.009335	0.360821
H216	H	1.487435	0.509335	0.860821
O217	O	0.995570	0.000309	0.632711
O218	O	1.495570	0.500309	1.132711
C219	C	1.041012	-0.049993	0.689462
C220	C	1.541012	0.450007	1.189462
H221	H	1.009990	-0.050893	0.751160
H222	H	1.509990	0.449107	1.251160
H223	H	1.052557	-0.116879	0.664463
H224	H	1.552557	0.383121	1.164463
H225	H	1.097234	-0.022885	0.698654
H226	H	1.597234	0.477115	1.198654
O227	O	0.099698	0.258212	0.000152
O228	O	0.599698	0.758212	0.500152
C229	C	0.023490	0.240476	0.000140
C230	C	0.523490	0.740476	0.500140
H231	H	0.020463	0.174716	0.026177
H232	H	0.520463	0.674716	0.526177
H233	H	-0.012273	0.288674	0.040056
H234	H	0.487727	0.788674	0.540056
H235	H	0.000656	0.243697	-0.065821
H236	H	0.500656	0.743697	0.434179
H237	H	0.987471	0.009354	0.796403
H238	H	1.487471	0.509354	1.296403
H239	H	0.907851	-0.316183	0.137047
H240	H	1.407851	0.183817	0.637047
H241	H	0.779168	-0.298792	0.056470
H242	H	1.279168	0.201208	0.556470
H243	H	0.140174	-0.030442	0.000127
H244	H	0.640174	0.469558	0.500127
H245	H	0.997864	-0.330618	0.081546
H246	H	1.497864	0.169382	0.581546
O247	O	0.792596	0.225044	0.803299
O248	O	1.292596	0.725044	1.303299
C249	C	0.745909	0.180259	0.853359
C250	C	1.245909	0.680259	1.353359
H251	H	0.776065	0.114700	0.866323
H252	H	1.276065	0.614700	1.366323
H253	H	0.733941	0.215223	0.914217
H254	H	1.233941	0.715223	1.414217
H255	H	0.689971	0.174640	0.820017
H256	H	1.189971	0.674640	1.320017
O257	O	0.290979	-0.039809	-0.000026
O258	O	0.790979	0.460191	0.499974
C259	C	0.277160	-0.086568	-0.071223
C260	C	0.777160	0.413432	0.428777
H261	H	0.250183	-0.042305	-0.120995
H262	H	0.750183	0.457695	0.379005
H263	H	0.333168	-0.120265	-0.095125
H264	H	0.833168	0.379735	0.404875
H265	H	0.236957	-0.134946	-0.055122
H266	H	0.736957	0.365054	0.444878
O267	O	0.903476	-0.466062	-0.148591
O268	O	1.403476	0.033938	0.351409
C269	C	0.841332	-0.510213	-0.128985
C270	C	1.341332	-0.010213	0.371015
H271	H	0.819550	-0.491425	-0.064525
H272	H	1.319550	0.008575	0.435475
H273	H	0.793920	-0.494141	-0.176026
H274	H	1.293920	0.005859	0.323974
H275	H	0.860272	-0.580773	-0.130552
H276	H	1.360272	-0.080773	0.369448
H277	H	0.800682	0.216181	0.360828
H278	H	1.300682	0.716181	0.860828
H279	H	0.537487	-0.023402	0.000115
H280	H	1.037487	0.476598	0.500115
H281	H	0.994887	-0.473622	0.082254
H282	H	1.494887	0.026378	0.582254
H283	H	0.800668	0.216180	0.203813
H284	H	1.300668	0.716180	0.703813
