data_functionalizedCrystal
_audit_creation_method	'MofGen! by Chris Wilmer'
_symmetry_space_group_name_H-M	'P1'
_symmetry_Int_Tables_number	1
_symmetry_cell_setting	triclinic
loop_
_symmetry_equiv_pos_as_xyz
  x,y,z
_cell_length_a	18.101398
_cell_length_b	18.101395
_cell_length_c	18.101390
_cell_angle_alpha	89.968664
_cell_angle_beta	89.975319
_cell_angle_gamma	90.026371
loop_
_atom_site_label
_atom_site_type_symbol
_atom_site_fract_x
_atom_site_fract_y
_atom_site_fract_z
Zn1	Zn	1.132124	-0.294895	-0.418847
Zn2	Zn	1.632124	0.205105	0.081153
Zn3	Zn	1.132019	-0.418752	-0.295009
Zn4	Zn	1.632019	0.081248	0.204991
Zn5	Zn	1.008282	-0.294918	-0.295008
Zn6	Zn	1.508282	0.205082	0.204992
Zn7	Zn	1.008233	-0.418689	-0.418797
Zn8	Zn	1.508233	0.081311	0.081203
O9	O	1.070164	-0.356813	-0.356915
O10	O	1.570164	0.143187	0.143085
O11	O	1.235743	-0.311341	-0.402441
O12	O	1.735743	0.188659	0.097559
O13	O	1.115581	-0.402361	-0.191376
O14	O	1.615581	0.097639	0.308624
O15	O	1.024774	-0.191282	-0.311456
O16	O	1.524774	0.308718	0.188544
O17	O	1.235666	-0.402338	-0.311457
O18	O	1.735666	0.097662	0.188543
O19	O	1.115760	-0.191265	-0.402440
O20	O	1.615760	0.308735	0.097560
O21	O	1.024672	-0.311381	-0.191375
O22	O	1.524672	0.188619	0.308625
O23	O	0.904642	-0.311320	-0.311408
O24	O	1.404642	0.188680	0.188592
O25	O	1.024691	-0.402231	-0.522437
O26	O	1.524691	0.097769	-0.022437
O27	O	0.904607	-0.402254	-0.402355
O28	O	1.404607	0.097746	0.097645
O29	O	1.115713	-0.311280	-0.522473
O30	O	1.615713	0.188720	-0.022473
O31	O	1.115534	-0.522376	-0.311409
O32	O	1.615534	-0.022376	0.188591
O33	O	1.024590	-0.522330	-0.402356
O34	O	1.524590	-0.022330	0.097644
C35	C	0.877754	-0.356783	-0.356877
C36	C	1.377754	0.143217	0.143123
C37	C	0.795440	-0.356788	-0.356878
C38	C	1.295440	0.143212	0.143122
C39	C	0.496349	-0.356835	-0.356940
C40	C	0.996349	0.143165	0.143060
C41	C	0.527672	-0.299336	-0.299997
C42	C	1.027672	0.200664	0.200003
C43	C	0.613290	-0.299490	-0.299754
C44	C	1.113290	0.200510	0.200246
C45	C	0.644731	-0.356811	-0.356909
C46	C	1.144731	0.143189	0.143091
C47	C	0.613613	-0.434824	-0.335587
C48	C	1.113613	0.065176	0.164413
C49	C	0.527968	-0.434505	-0.335191
C50	C	1.027968	0.065495	0.164809
C51	C	0.527964	-0.336998	-0.435339
C52	C	1.027964	0.163002	0.064661
C53	C	0.613615	-0.335261	-0.434911
C54	C	1.113615	0.164739	0.065089
C55	C	0.728591	-0.356803	-0.356893
C56	C	1.228591	0.143197	0.143107
C57	C	0.412489	-0.356848	-0.356954
C58	C	0.912489	0.143152	0.143046
C59	C	1.070065	-0.549224	-0.356893
C60	C	1.570065	-0.049224	0.143107
C61	C	1.070091	-0.631538	-0.356909
C62	C	1.570091	-0.131538	0.143091
C63	C	1.070253	-0.930629	-0.356949
C64	C	1.570253	-0.430629	0.143051
C65	C	1.013166	-0.899306	-0.414312
C66	C	1.513166	-0.399306	0.085688
C67	C	1.012895	-0.813688	-0.414133
C68	C	1.512895	-0.313688	0.085867
C69	C	1.070172	-0.782247	-0.356930
C70	C	1.570172	-0.282247	0.143070
C71	C	1.049043	-0.813402	-0.278878
C72	C	1.549043	-0.313402	0.221122
C73	C	1.048675	-0.899047	-0.279221
C74	C	1.548675	-0.399047	0.220779
C75	C	1.148595	-0.898978	-0.376950
C76	C	1.648595	-0.398978	0.123050
C77	C	1.148134	-0.813327	-0.378661
C78	C	1.648134	-0.313327	0.121339
C79	C	1.070128	-0.698387	-0.356914
C80	C	1.570128	-0.198387	0.143086
C81	C	1.070296	-1.014488	-0.356959
C82	C	1.570296	-0.514488	0.143041
C83	C	1.263326	-0.356844	-0.356954
C84	C	1.763326	0.143156	0.143046
C85	C	1.345640	-0.356857	-0.356971
C86	C	1.845640	0.143143	0.143029
C87	C	1.070208	-0.356746	-0.550077
C88	C	1.570208	0.143254	-0.050077
C89	C	1.070227	-0.356717	-0.632391
C90	C	1.570227	0.143283	-0.132391
C91	C	1.070284	-0.163652	-0.356953
C92	C	1.570284	0.336348	0.143047
C93	C	1.070335	-0.081337	-0.356970
C94	C	1.570335	0.418663	0.143030
C95	C	1.070267	-0.356671	-0.931483
C96	C	1.570267	0.143329	-0.431483
C97	C	1.127724	-0.299648	-0.900180
C98	C	1.627724	0.200352	-0.400180
C99	C	1.127545	-0.299437	-0.814562
C100	C	1.627545	0.200563	-0.314562
C101	C	1.070248	-0.356694	-0.783100
C102	C	1.570248	0.143306	-0.283100
C103	C	0.992231	-0.335484	-0.814166
C104	C	1.492231	0.164516	-0.314166
C105	C	0.992575	-0.335057	-0.899811
C106	C	1.492575	0.164943	-0.399811
C107	C	1.090140	-0.435050	-0.899899
C108	C	1.590140	0.064950	-0.399899
C109	C	1.091852	-0.434650	-0.814249
C110	C	1.591852	0.065350	-0.314249
C111	C	1.070232	-0.356708	-0.699240
C112	C	1.570232	0.143292	-0.199240
C113	C	1.070278	-0.356655	-1.015342
C114	C	1.570278	0.143345	-0.515342
C115	C	1.070163	-0.356827	-0.164505
C116	C	1.570163	0.143173	0.335495
C117	C	1.070288	-0.356648	-0.082191
C118	C	1.570288	0.143352	0.417809
H119	H	0.633959	-0.277852	-0.450989
H120	H	1.133959	0.222148	0.049011
H121	H	1.088451	-0.919770	-0.235023
H122	H	1.588451	-0.419770	0.264977
H123	H	1.192917	-0.791921	-0.339927
H124	H	1.692917	-0.291921	0.160073
Cl125	Cl	0.646656	-0.395210	-0.503926
Cl126	Cl	1.146656	0.104790	-0.003926
Cl127	Cl	1.107234	-0.209790	-0.782944
Cl128	Cl	1.607234	0.290210	-0.282944
Cl129	Cl	0.646670	-0.461248	-0.248053
Cl130	Cl	1.146670	0.038752	0.251947
Cl131	Cl	0.496689	-0.401656	-0.500844
Cl132	Cl	0.996689	0.098344	-0.000844
H133	H	1.191127	-0.919234	-0.335170
H134	H	1.691127	-0.419234	0.164830
H135	H	1.026255	-0.919850	-0.472374
H136	H	1.526255	-0.419850	0.027626
H137	H	1.089314	-0.793038	-0.234972
H138	H	1.589314	-0.293038	0.265028
H139	H	1.185396	-0.312720	-0.793559
H140	H	1.685396	0.187280	-0.293559
H141	H	0.992382	-0.792013	-0.261633
H142	H	1.492382	-0.292013	0.238367
H143	H	0.506392	-0.281101	-0.454725
H144	H	1.006392	0.218899	0.045275
H145	H	0.507101	-0.241309	-0.313215
H146	H	1.007101	0.258691	0.186785
Cl147	Cl	1.033301	-0.781158	-0.503487
Cl148	Cl	1.533301	-0.281158	-0.003487
H149	H	0.506122	-0.312301	-0.242242
H150	H	1.006122	0.187699	0.257758
Cl151	Cl	1.031934	-0.503773	-0.781188
Cl152	Cl	1.531934	-0.003773	-0.281188
H153	H	0.955450	-0.920888	-0.401230
H154	H	1.455450	-0.420888	0.098770
H155	H	0.954826	-0.793261	-0.400884
H156	H	1.454826	-0.293261	0.099116
Cl157	Cl	1.178337	-0.932240	-0.463326
Cl158	Cl	1.678337	-0.432240	0.036674
Cl159	Cl	1.172739	-0.781884	-0.467347
Cl160	Cl	1.672739	-0.281884	0.032653
Cl161	Cl	0.495971	-0.502891	-0.396425
Cl162	Cl	0.995971	-0.002891	0.103575
Cl163	Cl	1.025527	-0.500646	-0.931147
Cl164	Cl	1.525527	-0.000646	-0.431147
Cl165	Cl	0.960259	-0.929989	-0.253066
Cl166	Cl	1.460259	-0.429989	0.246934
H167	H	1.185764	-0.312767	-0.920788
H168	H	1.685764	0.187233	-0.420788
H169	H	1.114736	-0.241908	-0.921715
H170	H	1.614736	0.258092	-0.421715
Cl171	Cl	0.966531	-0.246609	-0.930674
Cl172	Cl	1.466531	0.253391	-0.430674
Cl173	Cl	0.924223	-0.396376	-0.931781
Cl174	Cl	1.424223	0.103624	-0.431781
H175	H	0.633743	-0.312604	-0.241661
H176	H	1.133743	0.187396	0.258339
Cl177	Cl	0.645044	-0.502742	-0.397619
Cl178	Cl	1.145044	-0.002742	0.102381
Cl179	Cl	1.176468	-0.464833	-0.933263
Cl180	Cl	1.676468	0.035167	-0.433263
Cl181	Cl	0.645778	-0.210173	-0.320386
Cl182	Cl	1.145778	0.289827	0.179614
Cl183	Cl	0.924340	-0.397635	-0.782708
Cl184	Cl	1.424340	0.102365	-0.282708
Cl185	Cl	0.965748	-0.248005	-0.781072
Cl186	Cl	1.465748	0.251995	-0.281072
Cl187	Cl	1.180497	-0.459343	-0.782907
Cl188	Cl	1.680497	0.040657	-0.282907
H189	H	0.507956	-0.451326	-0.277877
H190	H	1.007956	0.048674	0.222123
