data_functionalizedCrystal
_audit_creation_method	'MofGen! by Chris Wilmer'
_symmetry_space_group_name_H-M	'P1'
_symmetry_Int_Tables_number	1
_symmetry_cell_setting	triclinic
loop_
_symmetry_equiv_pos_as_xyz
  x,y,z
_cell_length_a	30.570279
_cell_length_b	30.570279
_cell_length_c	30.570318
_cell_angle_alpha	120.004606
_cell_angle_beta	89.996166
_cell_angle_gamma	120.000074
loop_
_atom_site_label
_atom_site_type_symbol
_atom_site_fract_x
_atom_site_fract_y
_atom_site_fract_z
O1	O	-0.372837	0.313096	0.013017
O2	O	-0.309225	0.223519	-0.012949
O3	O	-0.309225	0.313096	0.076628
O4	O	-0.372837	0.223519	-0.076560
O5	O	-0.236470	0.385851	0.076628
O6	O	-0.236471	0.296274	-0.012949
O7	O	-0.300082	0.385851	0.013017
Zn8	Zn	-0.256725	0.352614	0.000034
Zn9	Zn	-0.352582	0.256756	0.000034
O10	O	-0.300083	0.296274	-0.076560
C11	C	-0.449621	0.560375	0.031542
C12	C	-0.423175	0.534175	0.031909
C13	C	-0.528834	0.481162	0.031542
C14	C	-0.502267	0.455083	0.031909
C15	C	-0.449623	0.481159	0.031538
C16	C	-0.502266	0.534178	0.031914
C17	C	-0.449825	0.639563	0.025118
C18	C	-0.424890	0.689604	0.021062
C19	C	-0.372726	0.714699	0.019025
C20	C	-0.345688	0.768955	0.014625
C21	C	-0.345489	0.689763	0.021049
C22	C	-0.370422	0.639726	0.025107
C23	C	-0.422590	0.614626	0.027139
C24	C	-0.370233	0.474933	0.025105
C25	C	-0.345129	0.445939	0.021045
C26	C	-0.372197	0.391739	0.019008
C27	C	-0.344980	0.360297	0.014603
C28	C	-0.424369	0.366528	0.021036
C29	C	-0.449472	0.395522	0.025098
C30	C	-0.422404	0.449722	0.027130
C31	C	-0.614445	0.474943	0.025119
C32	C	-0.668545	0.445948	0.021056
C33	C	-0.695677	0.391747	0.019019
C34	C	-0.754334	0.360309	0.014619
C35	C	-0.668720	0.366533	0.021040
C36	C	-0.614623	0.395524	0.025101
C37	C	-0.587488	0.449729	0.027140
C38	C	-0.449636	0.128228	-0.321402
C39	C	-0.423189	0.154306	-0.347969
C40	C	-0.528852	0.049019	-0.400612
C41	C	-0.502284	0.075217	-0.427060
C42	C	-0.449638	0.128231	-0.400613
C43	C	-0.502283	0.075215	-0.347968
C44	C	-0.449840	0.134449	-0.235789
C45	C	-0.424903	0.163439	-0.181692
C46	C	-0.372738	0.217637	-0.154560
C47	C	-0.345699	0.249074	-0.095904
C48	C	-0.345500	0.242849	-0.181521
C49	C	-0.370434	0.213859	-0.235616
C50	C	-0.422604	0.159661	-0.262748
C51	C	-0.370246	0.214049	-0.400407
C52	C	-0.345140	0.243212	-0.425341
C53	C	-0.372208	0.218183	-0.477504
C54	C	-0.344990	0.249803	-0.504540
C55	C	-0.424383	0.163985	-0.504742
C56	C	-0.449486	0.134821	-0.479810
C57	C	-0.422418	0.159855	-0.427643
C58	C	-0.614465	-0.030163	-0.400405
C59	C	-0.668566	-0.080197	-0.425335
C60	C	-0.695700	-0.105291	-0.477498
C61	C	-0.754357	-0.159543	-0.504533
C62	C	-0.668741	-0.080356	-0.504734
C63	C	-0.614643	-0.030323	-0.479806
C64	C	-0.587507	-0.005228	-0.427641
O65	O	-0.926862	0.296287	-0.012932
O66	O	-0.773676	0.385866	0.013038
O67	O	-0.863239	0.296284	-0.076541
O68	O	-0.837298	0.385869	0.076647
O69	O	-0.863238	0.223533	-0.076533
O70	O	-0.773675	0.313116	0.013046
O71	O	-0.926860	0.223536	-0.012924
Zn72	Zn	-0.850267	0.256776	0.000062
Zn73	Zn	-0.850269	0.352627	0.000052
O74	O	-0.837297	0.313119	0.076655
C75	C	-0.188654	0.082302	-0.027137
C76	C	-0.215647	0.028317	-0.023421
C77	C	-0.136008	0.108501	-0.027505
C78	C	-0.188655	0.161512	-0.027141
C79	C	-0.215650	0.192218	-0.023430
C80	C	-0.136010	0.187591	-0.027510
C81	C	-0.109441	0.161515	-0.027137
C82	C	-0.051739	0.192225	-0.023420
C83	C	-0.215102	0.108498	-0.027510
C84	C	-0.005121	0.217037	-0.020416
C85	C	-0.237454	-0.015297	-0.020417
C86	C	-0.237459	0.217026	-0.020430
C87	C	0.053362	0.248163	-0.016648
C88	C	-0.264813	-0.070013	-0.016650
C89	C	-0.264819	0.248149	-0.016668
O90	O	-0.236465	0.913928	-0.012932
O91	O	-0.300073	0.786713	0.013038
O92	O	-0.300079	0.786696	-0.076541
O93	O	-0.236458	0.913945	0.076647
O94	O	-0.372833	0.786700	-0.076536
O95	O	-0.372826	0.786717	0.013043
O96	O	-0.309218	0.913932	-0.012928
Zn97	Zn	-0.352573	0.850325	0.000058
Zn98	Zn	-0.256718	0.850320	0.000052
O99	O	-0.309211	0.913949	0.076651
O100	O	-0.926884	-0.304527	-0.541005
O101	O	-0.773699	-0.177308	-0.477397
O102	O	-0.863263	-0.177295	-0.477382
O103	O	-0.837320	-0.304540	-0.541020
O104	O	-0.863264	-0.177292	-0.550135
O105	O	-0.773699	-0.177305	-0.550150
O106	O	-0.926885	-0.304524	-0.613758
Zn107	Zn	-0.850292	-0.240914	-0.593505
Zn108	Zn	-0.850292	-0.240918	-0.497650
O109	O	-0.837321	-0.304537	-0.613773
O110	O	-0.309234	0.313106	-0.613765
O111	O	-0.372848	0.223533	-0.550154
O112	O	-0.372841	0.313114	-0.550140
O113	O	-0.309241	0.223525	-0.613779
O114	O	-0.300083	0.385866	-0.477388
O115	O	-0.300090	0.296285	-0.477402
O116	O	-0.236476	0.385857	-0.541013
Zn117	Zn	-0.256731	0.352622	-0.497656
Zn118	Zn	-0.352593	0.256768	-0.593511
O119	O	-0.236483	0.296276	-0.541027
C120	C	-0.109451	0.527085	0.338425
C121	C	-0.051750	0.581073	0.365419
C122	C	-0.136020	0.500888	0.364873
C123	C	-0.188662	0.447870	0.259210
C124	C	-0.215655	0.417160	0.201508
C125	C	-0.215111	0.421793	0.285778
C126	C	-0.188664	0.447871	0.338424
C127	C	-0.215659	0.417163	0.365417
C128	C	-0.136018	0.500886	0.285779
C129	C	-0.237467	0.392354	0.387224
C130	C	-0.005133	0.624688	0.387227
C131	C	-0.237461	0.392349	0.154890
C132	C	-0.264826	0.361230	0.414583
C133	C	0.053350	0.679407	0.414587
C134	C	-0.264819	0.361223	0.096405
C135	C	-0.823124	0.447908	0.338449
C136	C	-0.826842	0.417204	0.365446
C137	C	-0.822758	0.500923	0.364893
C138	C	-0.823116	0.447900	0.259232
C139	C	-0.826824	0.417187	0.201530
C140	C	-0.822749	0.500915	0.285796
C141	C	-0.823126	0.527117	0.338442
C142	C	-0.826844	0.581103	0.365431
C143	C	-0.822748	0.421827	0.285803
C144	C	-0.829850	0.624718	0.387236
C145	C	-0.829846	0.392398	0.387256
C146	C	-0.829821	0.392373	0.154912
C147	C	-0.833619	0.679436	0.414591
C148	C	-0.833614	0.361278	0.414619
C149	C	-0.833581	0.361244	0.096428
C150	C	-0.188625	1.161593	0.338438
C151	C	-0.215616	1.192306	0.365433
C152	C	-0.135977	1.187676	0.364882
C153	C	-0.188631	1.082363	0.259225
C154	C	-0.215629	1.028364	0.201524
C155	C	-0.135984	1.108566	0.285788
C156	C	-0.109412	1.161592	0.338432
C157	C	-0.051709	1.192305	0.365420
C158	C	-0.215076	1.108567	0.285795
C159	C	-0.005090	1.217119	0.387224
C160	C	-0.237422	1.217120	0.387242
C161	C	-0.237441	0.984739	0.154908
C162	C	0.053395	1.248249	0.414577
C163	C	-0.264779	1.248250	0.414602
C164	C	-0.264804	0.930009	0.096426
C165	C	-0.881708	0.048998	-0.400594
C166	C	-0.882076	0.075192	-0.427045
C167	C	-0.881718	0.128215	-0.321384
C168	C	-0.882086	0.154288	-0.347955
C169	C	-0.881709	0.128207	-0.400600
C170	C	-0.882084	0.075199	-0.347949
C171	C	-0.875279	-0.030183	-0.400381
C172	C	-0.871218	-0.080223	-0.425313
C173	C	-0.869177	-0.105324	-0.477477
C174	C	-0.864772	-0.159578	-0.504511
C175	C	-0.871201	-0.080393	-0.504719
C176	C	-0.875264	-0.030357	-0.479790
C177	C	-0.877301	-0.005252	-0.427621
C178	C	-0.875273	0.134422	-0.479995
C179	C	-0.871213	0.163410	-0.505103
C180	C	-0.869182	0.217610	-0.478039
C181	C	-0.864777	0.249045	-0.505260
C182	C	-0.871214	0.242826	-0.425865
C183	C	-0.875276	0.213838	-0.400759
C184	C	-0.877303	0.159638	-0.427823
C185	C	-0.875299	0.134445	-0.235766
C186	C	-0.871241	0.163446	-0.181666
C187	C	-0.869209	0.217645	-0.154536
C188	C	-0.864814	0.249089	-0.095879
C189	C	-0.871230	0.242854	-0.181498
C190	C	-0.875286	0.213858	-0.235597
C191	C	-0.877320	0.159654	-0.262729
O192	O	-0.863319	0.296339	0.522638
O193	O	-0.837339	0.385910	0.459024
O194	O	-0.926919	0.296336	0.459013
O195	O	-0.773740	0.385912	0.522650
O196	O	-0.926909	0.223578	0.386261
O197	O	-0.837329	0.313152	0.386272
O198	O	-0.863309	0.223581	0.449887
Zn199	Zn	-0.850318	0.256814	0.406529
Zn200	Zn	-0.850331	0.352676	0.502382
O201	O	-0.773730	0.313154	0.449898
C202	C	-0.528864	0.481081	-0.400586
C203	C	-0.502300	0.454995	-0.427035
C204	C	-0.449646	0.560308	-0.321378
C205	C	-0.423202	0.534101	-0.347947
C206	C	-0.449654	0.481075	-0.400590
C207	C	-0.502292	0.534108	-0.347943
C208	C	-0.614474	0.474867	-0.400374
C209	C	-0.668572	0.445873	-0.425305
C210	C	-0.695708	0.391663	-0.477467
C211	C	-0.754366	0.360222	-0.504500
C212	C	-0.668751	0.366442	-0.504707
C213	C	-0.614655	0.395435	-0.479779
C214	C	-0.587519	0.449645	-0.427612
C215	C	-0.449868	0.395237	-0.479980
C216	C	-0.424937	0.366067	-0.505086
C217	C	-0.372772	0.391102	-0.478022
C218	C	-0.345739	0.359474	-0.505240
C219	C	-0.345529	0.445312	-0.425850
C220	C	-0.370458	0.474482	-0.400746
C221	C	-0.422628	0.449443	-0.427811
C222	C	-0.449843	0.639515	-0.235764
C223	C	-0.424906	0.689562	-0.181665
C224	C	-0.372741	0.714662	-0.154536
C225	C	-0.345698	0.768930	-0.095880
C226	C	-0.345508	0.689718	-0.181496
C227	C	-0.370443	0.639670	-0.235593
C228	C	-0.422610	0.614571	-0.262724
H229	H	-0.523594	0.556105	0.032507
H230	H	-0.822151	0.379166	0.264478
H231	H	-0.258332	1.086641	0.264469
C232	C	-0.882894	0.211918	-0.319148
C233	C	-0.837032	0.272157	-0.267225
C234	C	-0.837840	0.329784	-0.238422
C235	C	-0.884511	0.327174	-0.261543
C236	C	-0.930377	0.266933	-0.313469
C237	C	-0.929569	0.209305	-0.342272
H238	H	-0.802480	0.274091	-0.250107
H239	H	-0.803887	0.374378	-0.199983
H240	H	-0.885110	0.369833	-0.240222
H241	H	-0.964929	0.264998	-0.330587
H242	H	-0.963522	0.164711	-0.380711
C243	C	-0.454863	0.135710	-0.152036
C244	C	-0.507997	0.128170	-0.147303
C245	C	-0.537954	0.100440	-0.117645
C246	C	-0.514778	0.080249	-0.092720
C247	C	-0.461641	0.087788	-0.097452
C248	C	-0.431684	0.115518	-0.127110
H249	H	-0.525156	0.143118	-0.165755
H250	H	-0.577289	0.094859	-0.114143
H251	H	-0.536954	0.059721	-0.070765
H252	H	-0.444482	0.072840	-0.079000
H253	H	-0.392349	0.121098	-0.130612
H254	H	-0.882668	0.053260	-0.470301
H255	H	-0.690489	0.466483	0.019412
C256	C	-0.454161	0.136452	-0.562124
C257	C	-0.473338	0.070572	-0.608417
C258	C	-0.503118	0.043036	-0.665799
C259	C	-0.513720	0.081379	-0.676889
C260	C	-0.494543	0.147263	-0.630595
C261	C	-0.464763	0.174800	-0.573213
H262	H	-0.465490	0.042184	-0.600209
H263	H	-0.517314	-0.005736	-0.700069
H264	H	-0.535765	0.060995	-0.719367
H265	H	-0.502391	0.175651	-0.638804
H266	H	-0.450566	0.223572	-0.538943
C267	C	-0.288122	0.717327	-0.151654
C268	C	-0.243102	0.785669	-0.126678
C269	C	-0.185716	0.813281	-0.096836
C270	C	-0.173350	0.772551	-0.091969
C271	C	-0.218371	0.704205	-0.116946
C272	C	-0.275757	0.676593	-0.146788
H273	H	-0.252255	0.815824	-0.130280
H274	H	-0.152389	0.863876	-0.078347
H275	H	-0.130869	0.792991	-0.069878
H276	H	-0.209218	0.674050	-0.113344
H277	H	-0.309085	0.625998	-0.165277
C278	C	-0.454146	0.306901	0.018793
C279	C	-0.430824	0.305235	0.062146
C280	C	-0.460603	0.245610	0.059905
C281	C	-0.513704	0.187652	0.014311
C282	C	-0.537029	0.189316	-0.029046
C283	C	-0.507251	0.248941	-0.026805
H284	H	-0.391512	0.348141	0.095901
H285	H	-0.443335	0.244378	0.092001
H286	H	-0.535748	0.143514	0.012652
H287	H	-0.576341	0.146410	-0.062801
H288	H	-0.524518	0.250172	-0.058901
H289	H	-0.690511	-0.100495	-0.403154
H290	H	-0.491964	0.090689	-0.501991
C291	C	-0.107169	1.078942	0.256974
C292	C	-0.136385	1.020500	0.198944
C293	C	-0.107570	0.990878	0.170133
C294	C	-0.049540	1.019698	0.199352
C295	C	-0.020320	1.078143	0.257386
C296	C	-0.049135	1.107765	0.286197
H297	H	-0.179346	0.999163	0.177311
H298	H	-0.129201	0.947613	0.127172
H299	H	-0.028209	0.997770	0.178024
H300	H	0.022640	1.099480	0.279019
H301	H	-0.027505	1.151031	0.329158
H302	H	-0.592707	0.374902	-0.501960
H303	H	-0.114682	0.230251	-0.028106
H304	H	-0.447070	0.709902	0.019414
H305	H	-0.876926	0.090288	-0.502036
H306	H	-0.303049	0.465694	-0.403817
C307	C	-0.584600	0.534566	0.027358
C308	C	-0.604195	0.534139	-0.019349
C309	C	-0.574353	0.593759	-0.017116
C310	C	-0.524915	0.653806	0.031825
C311	C	-0.505317	0.654235	0.078535
C312	C	-0.535160	0.594616	0.076302
H313	H	-0.640795	0.489686	-0.055580
H314	H	-0.588861	0.593440	-0.051694
H315	H	-0.502824	0.697940	0.033478
H316	H	-0.468718	0.698688	0.114767
H317	H	-0.520652	0.594934	0.110880
C318	C	-0.868977	0.302452	-0.396092
C319	C	-0.915684	0.302032	-0.376924
C320	C	-0.913449	0.361656	-0.347149
C321	C	-0.864505	0.421699	-0.336541
C322	C	-0.817794	0.422121	-0.355708
C323	C	-0.820030	0.362497	-0.385484
H324	H	-0.951918	0.257582	-0.384777
H325	H	-0.948028	0.361343	-0.332960
H326	H	-0.862851	0.465836	-0.314499
H327	H	-0.781560	0.466571	-0.347856
H328	H	-0.785451	0.362810	-0.399673
H329	H	-0.822175	0.522845	0.408146
C330	C	-0.698588	-0.107959	-0.562118
C331	C	-0.748023	-0.108449	-0.573209
C332	C	-0.777870	-0.136055	-0.630593
C333	C	-0.758281	-0.163170	-0.676884
C334	C	-0.708844	-0.162681	-0.665794
C335	C	-0.678997	-0.135075	-0.608411
H336	H	-0.762525	-0.088376	-0.538940
H337	H	-0.814467	-0.136417	-0.638802
H338	H	-0.780376	-0.183606	-0.719363
H339	H	-0.694341	-0.182754	-0.700063
H340	H	-0.642400	-0.134713	-0.600201
C341	C	-0.868952	-0.108004	-0.562103
C342	C	-0.823355	-0.067263	-0.574462
C343	C	-0.821107	-0.094871	-0.631846
C344	C	-0.864455	-0.163220	-0.676870
C345	C	-0.910056	-0.203965	-0.664512
C346	C	-0.912304	-0.176357	-0.607129
H347	H	-0.791263	-0.016664	-0.541131
H348	H	-0.787350	-0.064709	-0.640994
H349	H	-0.862791	-0.183657	-0.719349
H350	H	-0.942148	-0.254564	-0.697843
H351	H	-0.946060	-0.206519	-0.597981
C352	C	-0.273543	0.364158	0.256963
C353	C	-0.302757	0.335351	0.286185
C354	C	-0.361187	0.277717	0.257372
C355	C	-0.390402	0.248891	0.199337
C356	C	-0.361189	0.277699	0.170112
C357	C	-0.302759	0.335332	0.198925
H358	H	-0.281130	0.356689	0.329149
H359	H	-0.382812	0.256392	0.279007
H360	H	-0.433656	0.206227	0.178008
H361	H	-0.382816	0.256360	0.127148
H362	H	-0.281134	0.356657	0.177290
C363	C	-0.821944	0.530534	0.256982
C364	C	-0.775276	0.597717	0.280096
C365	C	-0.774472	0.627336	0.251284
C366	C	-0.820336	0.589773	0.199359
C367	C	-0.867008	0.522586	0.176243
C368	C	-0.867812	0.492967	0.205054
H369	H	-0.741321	0.625527	0.318536
H370	H	-0.739922	0.677073	0.268397
H371	H	-0.819741	0.611699	0.178032
H372	H	-0.900962	0.494776	0.137802
H373	H	-0.902362	0.443230	0.187941
H374	H	-0.114679	0.522803	0.264446
H375	H	-0.114681	0.086572	-0.028103
C376	C	-0.531131	0.397348	-0.485465
C377	C	-0.508045	0.399915	-0.529558
C378	C	-0.536881	0.342267	-0.587984
C379	C	-0.588803	0.282053	-0.602319
C380	C	-0.611892	0.279485	-0.558226
C381	C	-0.583056	0.337132	-0.499799
H382	H	-0.469607	0.444490	-0.518947
H383	H	-0.519788	0.344169	-0.620625
H384	H	-0.610149	0.239379	-0.645570
H385	H	-0.650331	0.234909	-0.568836
H386	H	-0.600149	0.335230	-0.467158
C387	C	-0.507224	0.074826	-0.265636
C388	C	-0.518331	0.014783	-0.315086
C389	C	-0.575717	-0.044837	-0.344931
C390	C	-0.621997	-0.044414	-0.325328
C391	C	-0.610892	0.015631	-0.275876
C392	C	-0.553506	0.075252	-0.246030
H393	H	-0.484070	0.014468	-0.329600
H394	H	-0.583938	-0.089287	-0.381539
H395	H	-0.664478	-0.088549	-0.347421
H396	H	-0.645152	0.015947	-0.261362
H397	H	-0.545285	0.119701	-0.209422
H398	H	-0.492302	0.619131	0.026777
C399	C	-0.288115	0.302474	-0.151673
C400	C	-0.243095	0.304136	-0.126689
C401	C	-0.185710	0.363759	-0.096844
C402	C	-0.173345	0.421720	-0.091982
C403	C	-0.218366	0.420060	-0.116967
C404	C	-0.275751	0.360437	-0.146812
H405	H	-0.252247	0.261228	-0.130287
H406	H	-0.152383	0.364987	-0.078349
H407	H	-0.130865	0.465856	-0.069889
H408	H	-0.209213	0.462968	-0.113368
H409	H	-0.309078	0.359208	-0.165307
C410	C	-0.454857	0.717005	-0.152010
C411	C	-0.465598	0.717469	-0.102615
C412	C	-0.495549	0.744914	-0.072957
C413	C	-0.514758	0.771896	-0.092693
C414	C	-0.504017	0.771433	-0.142091
C415	C	-0.474067	0.743988	-0.171750
H416	H	-0.451378	0.697495	-0.088003
H417	H	-0.503500	0.745257	-0.036389
H418	H	-0.536930	0.792213	-0.070738
H419	H	-0.518238	0.791408	-0.156703
H420	H	-0.466116	0.743646	-0.208317
H421	H	-0.114648	1.230341	0.408138
H422	H	-0.876933	0.234368	-0.358280
C423	C	-0.877533	0.074823	-0.265614
C424	C	-0.834170	0.073168	-0.290596
C425	C	-0.836398	0.013549	-0.320443
C426	C	-0.881990	-0.044416	-0.325308
C427	C	-0.925357	-0.042764	-0.300325
C428	C	-0.923128	0.016855	-0.270478
H429	H	-0.800417	0.116080	-0.286996
H430	H	-0.804295	0.012327	-0.338937
H431	H	-0.883639	-0.088550	-0.347403
H432	H	-0.959109	-0.085675	-0.303926
H433	H	-0.955231	0.018078	-0.251984
C434	C	-0.340498	0.534111	-0.343362
C435	C	-0.287359	0.591964	-0.331102
C436	C	-0.257399	0.651594	-0.273718
C437	C	-0.280578	0.653371	-0.228594
C438	C	-0.333720	0.595516	-0.240852
C439	C	-0.363680	0.535886	-0.298237
H440	H	-0.270198	0.590651	-0.364507
H441	H	-0.218060	0.694423	-0.264643
H442	H	-0.258400	0.697513	-0.186114
H443	H	-0.350881	0.596829	-0.207448
H444	H	-0.403019	0.493058	-0.307311
C445	C	-0.584986	-0.002893	-0.509764
C446	C	-0.580272	-0.043766	-0.562911
C447	C	-0.550615	-0.016336	-0.592869
C448	C	-0.525672	0.051967	-0.569681
C449	C	-0.530385	0.092844	-0.516531
C450	C	-0.560042	0.065414	-0.486573
H451	H	-0.598737	-0.094332	-0.580079
H452	H	-0.547126	-0.046597	-0.632214
H453	H	-0.503718	0.072272	-0.591858
H454	H	-0.511920	0.143409	-0.499363
H455	H	-0.563531	0.095674	-0.447228
H456	H	-0.303013	0.710199	0.019383
C457	C	-0.868977	0.135673	-0.562490
C458	C	-0.915680	0.069735	-0.608691
C459	C	-0.913444	0.042002	-0.666079
C460	C	-0.864504	0.080207	-0.677265
C461	C	-0.817798	0.146149	-0.631063
C462	C	-0.820034	0.173882	-0.573676
H463	H	-0.951911	0.041449	-0.600411
H464	H	-0.948019	-0.006813	-0.700280
H465	H	-0.862849	0.059677	-0.719747
H466	H	-0.781567	0.174435	-0.639343
H467	H	-0.785458	0.222697	-0.539474
C468	C	-0.454905	0.306439	-0.562471
C469	C	-0.508041	0.248585	-0.574730
C470	C	-0.538005	0.188957	-0.632116
C471	C	-0.514832	0.187184	-0.677243
C472	C	-0.461693	0.245041	-0.664985
C473	C	-0.431729	0.304669	-0.607599
H474	H	-0.525198	0.249895	-0.541323
H475	H	-0.577342	0.146127	-0.641189
H476	H	-0.537013	0.143044	-0.719723
H477	H	-0.444536	0.243730	-0.698392
H478	H	-0.392392	0.347498	-0.598526
H479	H	-0.258359	0.086567	-0.028109
H480	H	-0.882639	0.053303	-0.326604
H481	H	-0.114689	0.522818	0.408129
H482	H	-0.869600	0.142912	-0.159719
C483	C	-0.868988	-0.107643	-0.395348
C484	C	-0.823400	-0.066768	-0.342207
C485	C	-0.821172	-0.094192	-0.312245
C486	C	-0.864532	-0.162491	-0.335424
C487	C	-0.910124	-0.203370	-0.388568
C488	C	-0.912352	-0.175946	-0.418530
H489	H	-0.791300	-0.016205	-0.325046
H490	H	-0.787422	-0.063930	-0.272904
H491	H	-0.862883	-0.182792	-0.313244
H492	H	-0.942225	-0.253933	-0.405729
H493	H	-0.946102	-0.206208	-0.457871
H494	H	-0.876943	-0.009749	-0.357905
H495	H	-0.876903	-0.010054	-0.501968
C496	C	-0.868995	0.302479	-0.151657
C497	C	-0.820059	0.362525	-0.102215
C498	C	-0.817826	0.422147	-0.072372
C499	C	-0.864529	0.421723	-0.091972
C500	C	-0.913468	0.361674	-0.141416
C501	C	-0.915702	0.302052	-0.171259
H502	H	-0.785483	0.362841	-0.087703
H503	H	-0.781597	0.466599	-0.035770
H504	H	-0.862876	0.465859	-0.069880
H505	H	-0.948044	0.361358	-0.155927
H506	H	-0.951930	0.257600	-0.207861
C507	C	-0.531097	0.563742	-0.319120
C508	C	-0.551615	0.587291	-0.342235
C509	C	-0.580416	0.616927	-0.313410
C510	C	-0.588699	0.623014	-0.261471
C511	C	-0.568180	0.599465	-0.238354
C512	C	-0.539379	0.569829	-0.267178
H513	H	-0.545484	0.582785	-0.380686
H514	H	-0.595606	0.634360	-0.330524
H515	H	-0.610019	0.644952	-0.240134
H516	H	-0.574311	0.603970	-0.199903
H517	H	-0.524190	0.552396	-0.250065
C518	C	-0.698223	0.473613	-0.395343
C519	C	-0.723158	0.493789	-0.418529
C520	C	-0.752812	0.521530	-0.388569
C521	C	-0.757530	0.529093	-0.335424
C522	C	-0.732594	0.508916	-0.312236
C523	C	-0.702940	0.481176	-0.342195
H524	H	-0.719667	0.488190	-0.457872
H525	H	-0.771271	0.536466	-0.405735
H526	H	-0.779481	0.549628	-0.313246
H527	H	-0.736086	0.514515	-0.272892
H528	H	-0.684481	0.466239	-0.325030
C529	C	-0.698606	0.306804	-0.562089
C530	C	-0.703460	0.248850	-0.574442
C531	C	-0.733311	0.189213	-0.631823
C532	C	-0.758307	0.187531	-0.676851
C533	C	-0.753453	0.245487	-0.664499
C534	C	-0.723603	0.305123	-0.607118
H535	H	-0.684956	0.250093	-0.541108
H536	H	-0.736904	0.146310	-0.640966
H537	H	-0.780404	0.143384	-0.719328
H538	H	-0.771957	0.244243	-0.697833
H539	H	-0.720010	0.348026	-0.597975
H540	H	-0.876930	0.234387	-0.257548
H541	H	-0.379947	0.556030	-0.326617
H542	H	-0.492319	0.619083	-0.257853
C543	C	-0.584967	0.367792	0.027326
C544	C	-0.580249	0.360241	0.072914
C545	C	-0.550593	0.332508	0.075138
C546	C	-0.525655	0.312326	0.031775
C547	C	-0.530372	0.319876	-0.013816
C548	C	-0.560028	0.347609	-0.016041
H549	H	-0.598710	0.375181	0.105017
H550	H	-0.547101	0.326919	0.108888
H551	H	-0.503702	0.291796	0.033422
H552	H	-0.511910	0.304936	-0.045920
H553	H	-0.563520	0.353198	-0.049791
H554	H	-0.523601	0.412420	0.032500
H555	H	-0.379923	0.556095	0.032493
H556	H	-0.348245	0.619421	0.026751
H557	H	-0.592380	0.519009	-0.357899
H558	H	-0.348189	0.519068	0.026763
H559	H	-0.302650	0.466472	0.019393
H560	H	-0.491952	0.374993	0.026747
H561	H	-0.523618	0.053292	-0.470314
C562	C	-0.698565	0.306908	0.018800
C563	C	-0.723551	0.305248	0.062160
C564	C	-0.753397	0.245626	0.059922
C565	C	-0.758257	0.187662	0.014324
C566	C	-0.733271	0.189319	-0.029039
C567	C	-0.703425	0.248942	-0.026801
H568	H	-0.719954	0.348158	0.095917
H569	H	-0.771894	0.244399	0.092023
H570	H	-0.780351	0.143526	0.012667
H571	H	-0.736868	0.146409	-0.062797
H572	H	-0.684928	0.250168	-0.058902
H573	H	-0.379931	0.196961	-0.326640
H574	H	-0.523611	0.053292	-0.326636
H575	H	-0.592373	-0.009735	-0.357930
H576	H	-0.348267	0.619362	-0.257543
C577	C	-0.340479	0.241582	-0.265279
C578	C	-0.287342	0.249126	-0.270005
C579	C	-0.257387	0.276848	-0.299670
C580	C	-0.280569	0.297024	-0.324609
C581	C	-0.333708	0.289480	-0.319883
C582	C	-0.363663	0.261759	-0.290219
H583	H	-0.270179	0.234190	-0.251543
H584	H	-0.218050	0.282432	-0.303168
H585	H	-0.258395	0.317545	-0.346568
H586	H	-0.350871	0.304416	-0.338345
H587	H	-0.403001	0.256175	-0.286721
C588	C	-0.287751	0.302827	-0.395379
C589	C	-0.241557	0.302309	-0.376161
C590	C	-0.184168	0.361924	-0.346202
C591	C	-0.172973	0.422057	-0.335462
C592	C	-0.219169	0.422576	-0.354680
C593	C	-0.276558	0.362961	-0.384638
H594	H	-0.249842	0.257794	-0.384111
H595	H	-0.149970	0.361539	-0.331976
H596	H	-0.130490	0.466187	-0.313285
H597	H	-0.210883	0.467092	-0.346729
H598	H	-0.310755	0.363346	-0.398865
H599	H	-0.348200	0.234434	-0.357932
H600	H	-0.492344	0.374851	-0.502024
