data_functionalizedCrystal
_audit_creation_method	'MofGen! by Chris Wilmer'
_symmetry_space_group_name_H-M	'P1'
_symmetry_Int_Tables_number	1
_symmetry_cell_setting	triclinic
loop_
_symmetry_equiv_pos_as_xyz
  x,y,z
_cell_length_a	10.540510
_cell_length_b	19.188928
_cell_length_c	9.016244
_cell_angle_alpha	89.992760
_cell_angle_beta	90.003796
_cell_angle_gamma	96.171438
loop_
_atom_site_label
_atom_site_type_symbol
_atom_site_fract_x
_atom_site_fract_y
_atom_site_fract_z
O1	O	1.683741	-0.098288	0.123377
O2	O	1.314118	-0.107580	0.123380
O3	O	1.509598	-0.001348	0.123341
O4	O	1.488262	-0.204519	0.123416
O5	O	1.509582	-0.001355	-0.123340
O6	O	1.314103	-0.107586	-0.123301
O7	O	1.683726	-0.098294	-0.123304
Cu8	Cu	1.498913	-0.102941	-0.145826
Cu9	Cu	1.498931	-0.102933	0.145902
O10	O	1.488246	-0.204525	-0.123265
C11	C	1.266822	-0.106890	0.000040
C12	C	1.125918	-0.104819	0.000039
C13	C	0.906835	-0.178617	0.000633
C14	C	1.053382	-0.180827	0.000069
C15	C	1.082008	-0.065914	-0.140839
C16	C	0.935283	-0.064242	-0.140948
C17	C	0.935530	-0.062652	0.139573
C18	C	1.081791	-0.066257	0.141427
C19	C	1.508900	0.024664	-0.000006
C20	C	1.506827	0.102182	-0.000025
C21	C	1.621528	0.146348	-0.000037
C22	C	1.619581	0.219185	-0.000019
C23	C	1.502926	0.247853	-0.000020
C24	C	1.388210	0.203677	0.000000
C25	C	1.390161	0.130841	-0.000003
N26	N	1.413754	0.356445	-0.083979
N27	N	1.411909	0.425635	-0.083979
C28	C	1.497043	0.467300	-0.000008
N29	N	1.584110	0.437162	0.083944
N30	N	1.585959	0.367965	0.083938
C31	C	1.500798	0.326829	-0.000016
C32	C	1.609640	0.590445	0.000001
C33	C	1.607688	0.663283	0.000028
C34	C	1.376314	0.647773	0.000032
C35	C	1.378270	0.574936	0.000021
C36	C	1.494936	0.546277	-0.000002
C37	C	1.731022	-0.098983	0.000040
C38	C	1.871926	-0.101055	0.000050
N39	N	1.498910	-0.102946	-0.351012
C40	C	1.488948	0.769462	0.000064
C41	C	1.491032	0.691945	0.000030
C42	C	1.394296	-0.159764	-0.413962
C43	C	1.393947	-0.159600	-0.585853
C44	C	1.470965	-0.029847	-0.586514
C45	C	1.470194	-0.030193	-0.414570
C46	C	1.631830	-0.118545	-0.414344
C47	C	1.630949	-0.120182	-0.586300
N48	N	1.498945	-0.102923	0.351088
H49	H	1.112260	-0.092938	-0.245659
N50	N	1.261115	0.529808	0.000029
N51	N	1.236401	0.487427	0.104009
H52	H	1.153656	0.455554	0.104021
H53	H	0.862673	-0.208061	-0.099804
N54	N	1.729503	-0.066588	-0.363292
N55	N	1.794848	-0.029105	-0.454569
H56	H	1.863823	0.007591	-0.418509
N57	N	1.740684	0.117063	-0.000034
N58	N	1.742416	0.052032	-0.000032
H59	H	1.826570	0.031347	-0.000028
N60	N	1.414627	-0.227707	-0.638816
N61	N	1.417882	-0.239242	-0.775131
H62	H	1.432472	-0.287347	-0.812533
N63	N	1.724847	0.708410	-0.000006
N64	N	1.723092	0.773440	-0.000004
H65	H	1.805837	0.805314	-0.000033
H66	H	1.296755	0.094881	0.000006
N67	N	1.270214	-0.146958	-0.637535
N68	N	1.248451	-0.144642	-0.773630
H69	H	1.161060	-0.135712	-0.810133
H70	H	1.410526	-0.214239	-0.372611
H71	H	1.109792	-0.094564	0.245648
N72	N	1.728807	0.561167	0.000028
N73	N	1.755711	0.522247	0.104010
H74	H	1.839874	0.501572	0.104034
H75	H	1.296193	-0.149838	-0.370786
N76	N	1.665824	-0.184035	-0.359920
N77	N	1.592488	-0.220010	-0.273783
H78	H	1.616482	-0.266265	-0.235343
N79	N	1.144882	0.003358	0.152045
N80	N	1.132378	0.046629	0.050860
H81	H	1.176939	0.095797	0.058345
H82	H	0.914634	-0.005585	0.140504
H83	H	1.373286	-0.016589	-0.374497
N84	N	0.881659	-0.092793	0.273533
N85	N	0.951239	-0.119075	0.365721
H86	H	0.913192	-0.140369	0.460324
H87	H	1.081104	-0.211454	-0.101066
N88	N	1.257164	0.677058	0.000049
N89	N	1.255436	0.742089	0.000060
H90	H	1.171283	0.762776	0.000078
N91	N	1.657621	-0.187619	-0.637489
N92	N	1.755108	-0.193341	-0.713536
H93	H	1.773939	-0.240969	-0.749701
H94	H	1.543542	0.013407	-0.372926
H95	H	1.130631	-0.009958	-0.146098
H96	H	1.545187	0.013497	-0.627357
H97	H	1.712987	0.255152	-0.000023
N98	N	1.350804	-0.012392	-0.640579
N99	N	1.285578	-0.053648	-0.725045
H100	H	1.200710	-0.041324	-0.763227
H101	H	1.293230	0.227022	0.000003
N102	N	1.733118	-0.071720	-0.640148
N103	N	1.753667	-0.066225	-0.776407
H104	H	1.825821	-0.031992	-0.814437
N105	N	1.089351	-0.219013	0.126762
N106	N	1.006142	-0.244215	0.216218
H107	H	1.031536	-0.271187	0.305698
H108	H	0.864235	-0.208227	0.101666
H109	H	0.894474	-0.090835	-0.246236
H110	H	0.913541	-0.007393	-0.147368
