data_functionalizedCrystal
_audit_creation_method	'MofGen! by Chris Wilmer'
_symmetry_space_group_name_H-M	'P1'
_symmetry_Int_Tables_number	1
_symmetry_cell_setting	triclinic
loop_
_symmetry_equiv_pos_as_xyz
  x,y,z
_cell_length_a	15.944545
_cell_length_b	15.021413
_cell_length_c	10.723023
_cell_angle_alpha	90.004758
_cell_angle_beta	96.018140
_cell_angle_gamma	90.004532
loop_
_atom_site_label
_atom_site_type_symbol
_atom_site_fract_x
_atom_site_fract_y
_atom_site_fract_z
O1	O	1.115453	0.073973	-0.160881
O2	O	1.448786	0.407306	0.172453
O3	O	1.782119	0.740640	0.505786
O4	O	0.871016	0.073987	-0.180730
O5	O	1.204349	0.407321	0.152603
O6	O	1.537683	0.740654	0.485936
O7	O	0.998873	0.073976	0.010842
O8	O	1.332206	0.407309	0.344176
O9	O	1.665540	0.740642	0.677509
O10	O	0.987596	0.073985	-0.352453
O11	O	1.320929	0.407318	-0.019120
O12	O	1.654262	0.740652	0.314214
O13	O	0.998853	-0.074089	0.010815
O14	O	1.332186	0.259245	0.344148
O15	O	1.665519	0.592578	0.677482
O16	O	0.870996	-0.074077	-0.180758
O17	O	1.204329	0.259256	0.152576
O18	O	1.537662	0.592590	0.485909
O19	O	1.115432	-0.074091	-0.160908
O20	O	1.448766	0.259242	0.172425
O21	O	1.782099	0.592575	0.505759
Zn22	Zn	0.993211	-0.097592	-0.170837
Zn23	Zn	1.326544	0.235741	0.162496
Zn24	Zn	1.659877	0.569074	0.495830
Zn25	Zn	0.993238	0.097489	-0.170801
Zn26	Zn	1.326571	0.430822	0.162532
Zn27	Zn	1.659904	0.764155	0.495866
O28	O	0.987575	-0.074079	-0.352480
O29	O	1.320909	0.259254	-0.019147
O30	O	1.654242	0.592587	0.314186
C31	C	0.839707	-0.000043	-0.179921
C32	C	1.173040	0.333290	0.153412
C33	C	1.506374	0.666624	0.486745
C34	C	0.746447	-0.000038	-0.177455
C35	C	1.079780	0.333296	0.155878
C36	C	1.413113	0.666629	0.489212
C37	C	0.475092	-0.000050	-0.051340
C38	C	0.808426	0.333283	0.281993
C39	C	1.141759	0.666616	0.615327
C40	C	0.526012	-0.073054	-0.112156
C41	C	0.859345	0.260279	0.221177
C42	C	1.192678	0.593612	0.554511
C43	C	0.410752	-0.000053	-0.168660
C44	C	0.744086	0.333280	0.164674
C45	C	1.077419	0.666614	0.498007
C46	C	0.526013	0.072925	-0.112160
C47	C	0.859346	0.406259	0.221173
C48	C	1.192679	0.739592	0.554506
C49	C	0.575691	-0.000044	-0.172975
C50	C	0.909024	0.333289	0.160359
C51	C	1.242357	0.666623	0.493692
C52	C	0.460444	-0.073117	-0.229444
C53	C	0.793777	0.260216	0.103889
C54	C	1.127110	0.593549	0.437222
C55	C	0.460441	0.072928	-0.229432
C56	C	0.793774	0.406261	0.103902
C57	C	1.127108	0.739595	0.437235
C58	C	0.511328	-0.000094	-0.290334
C59	C	0.844661	0.333239	0.043000
C60	C	1.177995	0.666573	0.376333
C61	C	0.315736	-0.000059	-0.166170
C62	C	0.649069	0.333274	0.167163
C63	C	0.982403	0.666608	0.500496
C64	C	0.670704	-0.000044	-0.175473
C65	C	1.004038	0.333289	0.157860
C66	C	1.337371	0.666622	0.491194
N67	N	0.993199	-0.230730	-0.170861
N68	N	1.326532	0.102603	0.162472
N69	N	1.659865	0.435937	0.495806
C70	C	0.934068	-0.470408	-0.259402
C71	C	1.267401	-0.137075	0.073931
C72	C	1.600735	0.196259	0.407264
C73	C	1.010107	-0.529746	-0.283625
C74	C	1.343441	-0.196413	0.049708
C75	C	1.676774	0.136921	0.383042
C76	C	0.993220	-0.412337	-0.170830
C77	C	1.326553	-0.079004	0.162504
C78	C	1.659887	0.254330	0.495837
C79	C	0.917201	-0.529740	-0.146635
C80	C	1.250535	-0.196407	0.186698
C81	C	1.583868	0.136926	0.520032
C82	C	0.993234	-0.587761	-0.170803
C83	C	1.326567	-0.254428	0.162531
C84	C	1.659900	0.078906	0.495864
C85	C	1.069298	-0.470369	-0.195109
C86	C	1.402631	-0.137035	0.138225
C87	C	1.735964	0.196298	0.471558
C88	C	0.976342	-0.470358	-0.058070
C89	C	1.309675	-0.137025	0.275264
C90	C	1.643008	0.196309	0.608597
C91	C	1.052435	-0.529669	-0.082244
C92	C	1.385769	-0.196336	0.251089
C93	C	1.719102	0.136997	0.584422
C94	C	0.993211	-0.311280	-0.170849
C95	C	1.326544	0.022054	0.162485
C96	C	1.659877	0.355387	0.495818
C97	C	0.993252	-0.688816	-0.170783
C98	C	1.326585	-0.355483	0.162551
C99	C	1.659918	-0.022150	0.495884
C100	C	1.146741	-0.000059	-0.161717
C101	C	1.480075	0.333274	0.171616
C102	C	1.813408	0.666608	0.504950
C103	C	1.240002	-0.000058	-0.164183
C104	C	1.573335	0.333275	0.169150
C105	C	1.906668	0.666608	0.502483
C106	C	0.998042	-0.000056	0.057318
C107	C	1.331376	0.333278	0.390651
C108	C	1.664709	0.666611	0.723984
C109	C	0.995587	-0.000053	0.195841
C110	C	1.328921	0.333280	0.529174
C111	C	1.662254	0.666613	0.862508
N112	N	0.993256	0.230626	-0.170767
N113	N	1.326590	0.563960	0.162566
N114	N	1.659923	0.897293	0.495899
C115	C	0.994482	-0.076754	0.257591
C116	C	1.327815	0.256579	0.590924
C117	C	1.661149	0.589913	0.924258
C118	C	0.991945	-0.076753	0.400762
C119	C	1.325278	0.256580	0.734095
C120	C	1.658611	0.589914	1.067429
C121	C	0.988406	-0.000048	0.601044
C122	C	1.321739	0.333285	0.934377
C123	C	1.655073	0.666619	1.267711
C124	C	0.990861	-0.000051	0.462521
C125	C	1.324194	0.333283	0.795854
C126	C	1.657528	0.666616	1.129187
H127	H	0.431786	0.134652	-0.278924
H128	H	0.765120	0.467985	0.054409
H129	H	1.098453	0.801319	0.387743
H130	H	0.995419	-0.142420	0.204465
H131	H	1.328752	0.190913	0.537798
H132	H	1.662086	0.524246	0.871131
F133	F	0.957636	-0.436233	0.066517
F134	F	1.290969	-0.102899	0.399850
F135	F	1.624302	0.230434	0.733184
F136	F	0.833167	-0.563830	-0.119900
F137	F	1.166500	-0.230497	0.213433
F138	F	1.499833	0.102836	0.546767
F139	F	0.990697	-0.162587	0.470166
F140	F	1.324030	0.170747	0.803500
F141	F	1.657363	0.504080	1.136833
H142	H	0.994659	0.065613	0.248969
H143	H	1.327992	0.398947	0.582302
H144	H	1.661326	0.732280	0.915636
F145	F	0.532332	-0.000141	-0.422499
F146	F	0.865666	0.333192	-0.089165
F147	F	1.198999	0.666525	0.244168
H148	H	1.102519	-0.555526	-0.007325
H149	H	1.435852	-0.222193	0.326008
H150	H	1.769186	0.111140	0.659342
H151	H	0.458861	-0.000124	0.049697
H152	H	0.792194	0.333209	0.383030
H153	H	1.125527	0.666543	0.716364
H154	H	0.554655	0.134641	-0.062582
H155	H	0.887988	0.467974	0.270751
H156	H	1.221322	0.801307	0.604085
F157	F	0.992097	0.085787	0.393122
F158	F	1.325430	0.419120	0.726455
F159	F	1.658763	0.752453	1.059789
H160	H	0.554651	-0.134776	-0.062620
H161	H	0.887984	0.198557	0.270713
H162	H	1.221317	0.531891	0.604047
H163	H	0.884097	-0.444388	-0.334366
H164	H	1.217430	-0.111054	-0.001033
H165	H	1.550763	0.222279	0.332300
F166	F	1.028785	-0.563843	-0.408249
F167	F	1.362118	-0.230510	-0.074915
F168	F	1.695451	0.102824	0.258418
F169	F	0.423150	-0.153876	-0.294173
F170	F	0.756484	0.179457	0.039160
F171	F	1.089817	0.512790	0.372494
H172	H	1.133606	-0.444399	-0.215675
H173	H	1.466939	-0.111065	0.117658
H174	H	1.800272	0.222268	0.450992
