data_functionalizedCrystal
_audit_creation_method	'MofGen! by Chris Wilmer'
_symmetry_space_group_name_H-M	'P1'
_symmetry_Int_Tables_number	1
_symmetry_cell_setting	triclinic
loop_
_symmetry_equiv_pos_as_xyz
  x,y,z
_cell_length_a	12.594517
_cell_length_b	12.594516
_cell_length_c	17.640968
_cell_angle_alpha	101.227826
_cell_angle_beta	101.218185
_cell_angle_gamma	90.016010
loop_
_atom_site_label
_atom_site_type_symbol
_atom_site_fract_x
_atom_site_fract_y
_atom_site_fract_z
Zn1	Zn	1.748908	-0.302091	0.446821
Zn2	Zn	1.712818	-0.516076	0.314654
Zn3	Zn	1.534936	-0.338107	0.314671
Zn4	Zn	1.570890	-0.480032	0.446806
O5	O	1.641888	-0.409077	0.380738
O6	O	1.893066	-0.330489	0.429288
O7	O	1.659071	-0.522625	0.204045
O8	O	1.563377	-0.184380	0.332215
O9	O	1.866551	-0.487702	0.332186
O10	O	1.720581	-0.157920	0.429305
O11	O	1.528382	-0.391872	0.204057
O12	O	1.390760	-0.356922	0.332200
O13	O	1.624656	-0.426271	0.557420
O14	O	1.417175	-0.461194	0.429279
O15	O	1.755445	-0.295538	0.557431
O16	O	1.693934	-0.660244	0.332171
O17	O	1.589661	-0.633763	0.429262
C18	C	1.365348	-0.409056	0.380740
C19	C	1.247048	-0.409067	0.380760
C20	C	1.121403	-0.465936	0.433463
C21	C	1.172534	-0.511479	0.361324
C22	C	1.197486	-0.363574	0.452891
C23	C	1.087377	-0.454712	0.308558
C24	C	1.112335	-0.306748	0.400174
C25	C	1.163421	-0.352268	0.327985
C26	C	1.641816	-0.685620	0.380730
C27	C	1.641890	-0.803919	0.380754
C28	C	1.585159	-0.858818	0.433525
C29	C	1.539590	-0.949314	0.361401
C30	C	1.687559	-0.924218	0.452890
C31	C	1.596260	-0.892868	0.308591
C32	C	1.744287	-0.867752	0.400129
C33	C	1.698742	-0.958230	0.327956
C34	C	1.919509	-0.409099	0.380737
C35	C	2.037814	-0.409108	0.380736
C36	C	1.698086	-0.352867	0.586907
C37	C	1.722035	-0.328913	0.674764
C38	C	1.641994	-0.131449	0.380763
C39	C	1.642039	-0.013141	0.380774
C40	C	1.585970	-0.464992	0.175371
C41	C	1.562228	-0.488645	0.087514
C42	C	1.460364	-0.590469	0.963686
C43	C	1.482889	-0.567948	1.046241
C44	C	1.619069	-0.431828	1.046242
C45	C	1.596551	-0.454334	0.963686
C46	C	1.517198	-0.533657	0.922414
C47	C	1.653385	-0.397522	0.922413
C48	C	1.630873	-0.420031	0.839864
C49	C	1.551526	-0.499352	0.798587
C50	C	1.494686	-0.556166	0.839864
C51	C	1.732743	-0.318205	0.963687
C52	C	1.789577	-0.261392	0.922414
C53	C	1.767059	-0.283895	0.839863
C54	C	1.687713	-0.363217	0.798586
C55	C	1.823900	-0.227082	0.798586
C56	C	1.801387	-0.249590	0.716036
C57	C	1.665201	-0.385726	0.716037
H58	H	1.039787	-0.493310	0.247531
Br59	Br	1.897271	-0.153749	0.978433
H60	H	1.830802	-0.832070	0.416536
Br61	Br	1.194601	-0.272147	0.253604
H62	H	1.085704	-0.220217	0.416632
H63	H	1.557597	-0.878580	0.247578
Br64	Br	1.395364	-1.008739	0.334088
Br65	Br	1.504995	-0.786872	0.507800
Br66	Br	1.778796	-1.029893	0.253509
H67	H	1.726123	-0.938639	0.513887
H68	H	1.245202	-0.325079	0.513902
Br69	Br	1.557494	-0.493367	0.660017
H70	H	1.888516	-0.162505	0.832201
H71	H	1.847666	-0.203326	0.682431
Br72	Br	1.352657	-0.698110	0.907667
Br73	Br	1.089836	-0.546158	0.507674
H74	H	1.683680	-0.367246	1.079857
H75	H	1.430044	-0.620733	0.806259
Br76	Br	1.216897	-0.655730	0.333927
Br77	Br	1.405747	-0.645059	1.102252
Br78	Br	1.763302	-0.287663	1.075720
H79	H	1.533202	-0.517681	0.731369
