data_functionalizedCrystal
_audit_creation_method	'MofGen! by Chris Wilmer'
_symmetry_space_group_name_H-M	'P1'
_symmetry_Int_Tables_number	1
_symmetry_cell_setting	triclinic
loop_
_symmetry_equiv_pos_as_xyz
  x,y,z
_cell_length_a	17.640280
_cell_length_b	12.827893
_cell_length_c	12.827885
_cell_angle_alpha	90.021189
_cell_angle_beta	78.769256
_cell_angle_gamma	101.201443
loop_
_atom_site_label
_atom_site_type_symbol
_atom_site_fract_x
_atom_site_fract_y
_atom_site_fract_z
Zn1	Zn	-0.314671	-1.681797	-0.506873
Zn2	Zn	-0.446866	-1.717033	-0.296832
Zn3	Zn	-0.314705	-1.507048	-0.332131
Zn4	Zn	-0.446803	-1.542349	-0.471543
O5	O	-0.380761	-1.612057	-0.401845
O6	O	-0.332219	-1.832710	-0.479023
O7	O	-0.429375	-1.689151	-0.155267
O8	O	-0.204093	-1.500708	-0.384870
O9	O	-0.429342	-1.858598	-0.324707
O10	O	-0.204068	-1.629096	-0.513252
O11	O	-0.332277	-1.534875	-0.181202
O12	O	-0.332216	-1.365491	-0.350612
O13	O	-0.429234	-1.560875	-0.622476
O14	O	-0.429268	-1.391427	-0.453037
O15	O	-0.332158	-1.663326	-0.648433
O16	O	-0.557464	-1.723382	-0.290449
O17	O	-0.557418	-1.595042	-0.418808
C18	C	-0.380739	-1.340541	-0.401821
C19	C	-0.380749	-1.224391	-0.401831
C20	C	-0.332774	-1.159818	-0.478267
C21	C	-0.332783	-1.039770	-0.478278
C22	C	-0.586121	-1.666894	-0.346987
C23	C	-0.673974	-1.690450	-0.323554
C24	C	-0.962931	-1.433538	-0.580245
C25	C	-1.045483	-1.455674	-0.558193
C26	C	-1.045466	-1.589397	-0.424667
C27	C	-0.962912	-1.567276	-0.446712
C28	C	-0.921651	-1.489344	-0.524501
C29	C	-0.921632	-1.623082	-0.390968
C30	C	-0.839086	-1.600959	-0.413008
C31	C	-0.797820	-1.523029	-0.490791
C32	C	-0.839105	-1.467221	-0.546541
C33	C	-0.962895	-1.701008	-0.313174
C34	C	-0.921615	-1.756815	-0.257430
C35	C	-0.839067	-1.734697	-0.279475
C36	C	-0.797801	-1.656767	-0.357258
C37	C	-0.797781	-1.790505	-0.223725
C38	C	-0.715235	-1.768381	-0.245765
C39	C	-0.715254	-1.634643	-0.379298
C40	C	-0.174600	-1.557034	-0.456939
C41	C	-0.086746	-1.533586	-0.480417
C42	C	-0.380685	-1.612108	-0.674435
C43	C	-0.380653	-1.612129	-0.790597
C44	C	-0.380777	-0.884631	-0.401862
C45	C	-0.380767	-1.000782	-0.401852
C46	C	-0.332607	-1.662830	-0.855229
C47	C	-0.332572	-1.662854	-0.975288
C48	C	-0.380780	-1.612051	-0.130330
C49	C	-0.380589	-1.612172	-0.014228
H50	H	-0.421847	-1.056259	-0.336414
H51	H	-0.291690	-1.193409	-0.543694
H52	H	-0.681625	-1.813824	-0.200371
H53	H	-1.079090	-1.410236	-0.603604
C54	C	-0.435571	-1.554474	-0.835346
C55	C	-0.486188	-1.627232	-0.884466
C56	C	-0.536800	-1.574161	-0.925683
H57	H	-0.405386	-1.500912	-0.886073
H58	H	-0.465766	-1.522695	-0.779246
H59	H	-0.455997	-1.658994	-0.940559
H60	H	-0.516391	-1.680796	-0.833760
H61	H	-0.566995	-1.542383	-0.869583
H62	H	-0.506608	-1.520601	-0.976406
H63	H	-0.571154	-1.623521	-0.959007
C64	C	-0.278141	-0.965701	-0.565567
C65	C	-0.323002	-0.915039	-0.620400
C66	C	-0.272691	-0.846786	-0.700810
H67	H	-0.248017	-1.005610	-0.613618
H68	H	-0.243711	-0.913842	-0.534859
H69	H	-0.357417	-0.966890	-0.651108
H70	H	-0.353124	-0.875110	-0.572378
H71	H	-0.238262	-0.794927	-0.670102
H72	H	-0.242570	-0.886703	-0.748854
H73	H	-0.303122	-0.812397	-0.738018
H74	H	-0.421828	-1.190798	-0.336399
H75	H	-0.955221	-1.820263	-0.194091
H76	H	-0.291496	-1.706215	-0.821679
H77	H	-0.681658	-1.571191	-0.442649
C78	C	-0.708197	-1.498999	-0.514502
C79	C	-0.680938	-1.465115	-0.422259
C80	C	-0.598383	-1.442983	-0.444057
H81	H	-0.689434	-1.444571	-0.568760
H82	H	-0.689448	-1.561410	-0.537587
H83	H	-0.699679	-1.402711	-0.399188
H84	H	-0.699678	-1.519527	-0.367989
H85	H	-0.579634	-1.505394	-0.467143
H86	H	-0.579629	-1.388558	-0.498317
H87	H	-0.579878	-1.420000	-0.381472
C88	C	-0.794442	-1.382549	-0.631017
C89	C	-0.848258	-1.338398	-0.675116
C90	C	-0.807144	-1.260395	-0.752929
H91	H	-0.762200	-1.413757	-0.685278
H92	H	-0.762295	-1.328362	-0.599616
H93	H	-0.880391	-1.392575	-0.706518
H94	H	-0.880502	-1.307169	-0.620882
H95	H	-0.774997	-1.206208	-0.721528
H96	H	-0.774903	-1.291611	-0.807182
H97	H	-0.843652	-1.230422	-0.782853
H98	H	-0.929335	-1.370086	-0.643597
H99	H	-1.079072	-1.652846	-0.361328
H100	H	-1.030109	-1.719021	-0.295235
H101	H	-0.831388	-1.853949	-0.160382
C102	C	-0.277748	-1.720626	-1.049507
C103	C	-0.288593	-1.709131	-1.153838
C104	C	-0.238092	-1.762323	-1.222241
H105	H	-0.289260	-1.793967	-1.028728
H106	H	-0.224617	-1.691147	-1.045927
H107	H	-0.341712	-1.738613	-1.157414
H108	H	-0.277075	-1.635802	-1.174649
H109	H	-0.184961	-1.732845	-1.218661
H110	H	-0.249609	-1.835662	-1.201453
H111	H	-0.245438	-1.754523	-1.293038
H112	H	-0.421728	-1.568768	-0.958701
