data_functionalizedCrystal
_audit_creation_method	'MofGen! by Chris Wilmer'
_symmetry_space_group_name_H-M	'P1'
_symmetry_Int_Tables_number	1
_symmetry_cell_setting	triclinic
loop_
_symmetry_equiv_pos_as_xyz
  x,y,z
_cell_length_a	18.101398
_cell_length_b	18.101395
_cell_length_c	18.101389
_cell_angle_alpha	89.983159
_cell_angle_beta	89.975673
_cell_angle_gamma	90.026371
loop_
_atom_site_label
_atom_site_type_symbol
_atom_site_fract_x
_atom_site_fract_y
_atom_site_fract_z
Zn1	Zn	1.132121	-0.295001	-0.418847
Zn2	Zn	1.382121	-0.045001	-0.168847
Zn3	Zn	1.632121	0.204999	0.081153
Zn4	Zn	1.882121	0.454999	0.331153
Zn5	Zn	1.132017	-0.418826	-0.295009
Zn6	Zn	1.382017	-0.168826	-0.045009
Zn7	Zn	1.632017	0.081174	0.204991
Zn8	Zn	1.882017	0.331174	0.454991
Zn9	Zn	1.008280	-0.294993	-0.295008
Zn10	Zn	1.258280	-0.044993	-0.045008
Zn11	Zn	1.508280	0.205007	0.204992
Zn12	Zn	1.758280	0.455007	0.454992
Zn13	Zn	1.008231	-0.418795	-0.418797
Zn14	Zn	1.258231	-0.168795	-0.168797
Zn15	Zn	1.508231	0.081205	0.081203
Zn16	Zn	1.758231	0.331205	0.331203
O17	O	1.070162	-0.356904	-0.356915
O18	O	1.320162	-0.106904	-0.106915
O19	O	1.570162	0.143096	0.143085
O20	O	1.820162	0.393096	0.393085
O21	O	1.235740	-0.311443	-0.402440
O22	O	1.485740	-0.061443	-0.152440
O23	O	1.735740	0.188557	0.097560
O24	O	1.985740	0.438557	0.347560
O25	O	1.115580	-0.402410	-0.191376
O26	O	1.365580	-0.152410	0.058624
O27	O	1.615580	0.097590	0.308624
O28	O	1.865580	0.347590	0.558624
O29	O	1.024772	-0.191361	-0.311456
O30	O	1.274772	0.058639	-0.061456
O31	O	1.524772	0.308639	0.188544
O32	O	1.774772	0.558639	0.438544
O33	O	1.235664	-0.402417	-0.311457
O34	O	1.485664	-0.152417	-0.061457
O35	O	1.735664	0.097583	0.188543
O36	O	1.985664	0.347583	0.438543
O37	O	1.115757	-0.191367	-0.402440
O38	O	1.365757	0.058633	-0.152440
O39	O	1.615757	0.308633	0.097560
O40	O	1.865757	0.558633	0.347560
O41	O	1.024671	-0.311430	-0.191375
O42	O	1.274671	-0.061430	0.058625
O43	O	1.524671	0.188570	0.308625
O44	O	1.774671	0.438570	0.558625
O45	O	0.904641	-0.311399	-0.311408
O46	O	1.154641	-0.061399	-0.061408
O47	O	1.404641	0.188601	0.188592
O48	O	1.654641	0.438601	0.438592
O49	O	1.024688	-0.402363	-0.522437
O50	O	1.274688	-0.152363	-0.272437
O51	O	1.524688	0.097637	-0.022437
O52	O	1.774688	0.347637	0.227563
O53	O	0.904604	-0.402356	-0.402355
O54	O	1.154604	-0.152356	-0.152355
O55	O	1.404604	0.097644	0.097645
O56	O	1.654604	0.347644	0.347645
O57	O	1.115710	-0.311412	-0.522473
O58	O	1.365710	-0.061412	-0.272473
O59	O	1.615710	0.188588	-0.022473
O60	O	1.865710	0.438588	0.227527
O61	O	1.115532	-0.522455	-0.311409
O62	O	1.365532	-0.272455	-0.061409
O63	O	1.615532	-0.022455	0.188591
O64	O	1.865532	0.227545	0.438591
O65	O	1.024587	-0.522432	-0.402356
O66	O	1.274587	-0.272432	-0.152356
O67	O	1.524587	-0.022432	0.097644
O68	O	1.774587	0.227568	0.347644
C69	C	0.877752	-0.356874	-0.356877
C70	C	1.127752	-0.106874	-0.106877
C71	C	1.377752	0.143126	0.143123
C72	C	1.627752	0.393126	0.393123
C73	C	0.795437	-0.356879	-0.356878
C74	C	1.045437	-0.106879	-0.106878
C75	C	1.295437	0.143121	0.143122
C76	C	1.545437	0.393121	0.393122
C77	C	0.496347	-0.356925	-0.356940
C78	C	0.746347	-0.106925	-0.106940
C79	C	0.996347	0.143075	0.143060
C80	C	1.246347	0.393075	0.393060
C81	C	0.527670	-0.299412	-0.299997
C82	C	0.777670	-0.049412	-0.049997
C83	C	1.027670	0.200588	0.200003
C84	C	1.277670	0.450588	0.450003
C85	C	0.613288	-0.299566	-0.299754
C86	C	0.863288	-0.049566	-0.049754
C87	C	1.113288	0.200434	0.200246
C88	C	1.363288	0.450434	0.450246
C89	C	0.644729	-0.356901	-0.356909
C90	C	0.894729	-0.106901	-0.106909
C91	C	1.144729	0.143099	0.143091
C92	C	1.394729	0.393099	0.393091
C93	C	0.613611	-0.434909	-0.335587
C94	C	0.863611	-0.184909	-0.085587
C95	C	1.113611	0.065091	0.164413
C96	C	1.363611	0.315091	0.414413
C97	C	0.527966	-0.434590	-0.335191
C98	C	0.777966	-0.184590	-0.085191
C99	C	1.027966	0.065410	0.164809
C100	C	1.277966	0.315410	0.414809
C101	C	0.527961	-0.337109	-0.435339
C102	C	0.777961	-0.087109	-0.185339
C103	C	1.027961	0.162891	0.064661
C104	C	1.277961	0.412891	0.314661
C105	C	0.613612	-0.335371	-0.434911
C106	C	0.863612	-0.085371	-0.184911
C107	C	1.113612	0.164629	0.065089
C108	C	1.363612	0.414629	0.315089
C109	C	0.728589	-0.356893	-0.356893
C110	C	0.978589	-0.106893	-0.106893
C111	C	1.228589	0.143107	0.143107
C112	C	1.478589	0.393107	0.393107
C113	C	0.412487	-0.356939	-0.356954
C114	C	0.662487	-0.106939	-0.106954
C115	C	0.912487	0.143061	0.143046
C116	C	1.162487	0.393061	0.393046
C117	C	1.070063	-0.549314	-0.356893
C118	C	1.320063	-0.299314	-0.106893
C119	C	1.570063	-0.049314	0.143107
C120	C	1.820063	0.200686	0.393107
C121	C	1.070088	-0.631628	-0.356909
C122	C	1.320088	-0.381628	-0.106909
C123	C	1.570088	-0.131628	0.143091
C124	C	1.820088	0.118372	0.393091
C125	C	1.070251	-0.930719	-0.356949
C126	C	1.320251	-0.680719	-0.106949
C127	C	1.570251	-0.430719	0.143051
C128	C	1.820251	-0.180719	0.393051
C129	C	1.013163	-0.899410	-0.414312
C130	C	1.263163	-0.649410	-0.164312
C131	C	1.513163	-0.399410	0.085688
C132	C	1.763163	-0.149410	0.335688
C133	C	1.012892	-0.813792	-0.414133
C134	C	1.262892	-0.563792	-0.164133
C135	C	1.512892	-0.313792	0.085867
C136	C	1.762892	-0.063792	0.335867
C137	C	1.070170	-0.782337	-0.356930
C138	C	1.320170	-0.532337	-0.106930
C139	C	1.570170	-0.282337	0.143070
C140	C	1.820170	-0.032337	0.393070
C141	C	1.049041	-0.813472	-0.278878
C142	C	1.299041	-0.563472	-0.028878
C143	C	1.549041	-0.313472	0.221122
C144	C	1.799041	-0.063472	0.471122
C145	C	1.048673	-0.899117	-0.279221
C146	C	1.298673	-0.649117	-0.029221
C147	C	1.548673	-0.399117	0.220779
C148	C	1.798673	-0.149117	0.470779
C149	C	1.148593	-0.899073	-0.376950
C150	C	1.398593	-0.649073	-0.126950
C151	C	1.648593	-0.399073	0.123050
C152	C	1.898593	-0.149073	0.373050
C153	C	1.148132	-0.813422	-0.378661
C154	C	1.398132	-0.563422	-0.128661
C155	C	1.648132	-0.313422	0.121339
C156	C	1.898132	-0.063422	0.371339
C157	C	1.070126	-0.698477	-0.356914
C158	C	1.320126	-0.448477	-0.106914
C159	C	1.570126	-0.198477	0.143086
C160	C	1.820126	0.051523	0.393086
C161	C	1.070293	-1.014579	-0.356959
C162	C	1.320293	-0.764579	-0.106959
C163	C	1.570293	-0.514579	0.143041
C164	C	1.820293	-0.264579	0.393041
C165	C	1.263324	-0.356934	-0.356954
C166	C	1.513324	-0.106934	-0.106954
C167	C	1.763324	0.143066	0.143046
C168	C	2.013324	0.393066	0.393046
C169	C	1.345638	-0.356948	-0.356971
C170	C	1.595638	-0.106948	-0.106971
C171	C	1.845638	0.143052	0.143029
C172	C	2.095638	0.393052	0.393029
C173	C	1.070205	-0.356885	-0.550077
C174	C	1.320205	-0.106885	-0.300077
C175	C	1.570205	0.143115	-0.050077
C176	C	1.820205	0.393115	0.199923
C177	C	1.070223	-0.356877	-0.632391
C178	C	1.320223	-0.106877	-0.382391
C179	C	1.570223	0.143123	-0.132391
C180	C	1.820223	0.393123	0.117609
C181	C	1.070282	-0.163742	-0.356953
C182	C	1.320282	0.086258	-0.106953
C183	C	1.570282	0.336258	0.143047
C184	C	1.820282	0.586258	0.393047
C185	C	1.070333	-0.081428	-0.356970
C186	C	1.320333	0.168572	-0.106970
C187	C	1.570333	0.418572	0.143030
C188	C	1.820333	0.668572	0.393030
C189	C	1.070266	-0.356738	-0.931482
C190	C	1.320266	-0.106738	-0.681482
C191	C	1.570266	0.143262	-0.431482
C192	C	1.820266	0.393262	-0.181482
C193	C	1.012801	-0.413780	-0.900134
C194	C	1.262801	-0.163780	-0.650134
C195	C	1.512801	0.086220	-0.400134
C196	C	1.762801	0.336220	-0.150134
C197	C	1.012956	-0.414045	-0.814516
C198	C	1.262956	-0.164045	-0.564516
C199	C	1.512956	0.085955	-0.314516
C200	C	1.762956	0.335955	-0.064516
C201	C	1.070244	-0.356807	-0.783100
C202	C	1.320244	-0.106807	-0.533100
C203	C	1.570244	0.143193	-0.283100
C204	C	1.820244	0.393193	-0.033100
C205	C	1.148270	-0.377998	-0.814206
C206	C	1.398270	-0.127998	-0.564206
C207	C	1.648270	0.122002	-0.314206
C208	C	1.898270	0.372002	-0.064206
C209	C	1.147949	-0.378372	-0.899851
C210	C	1.397949	-0.128372	-0.649851
C211	C	1.647949	0.121628	-0.399851
C212	C	1.897949	0.371628	-0.149851
C213	C	1.050385	-0.278379	-0.899905
C214	C	1.300385	-0.028379	-0.649905
C215	C	1.550385	0.221621	-0.399905
C216	C	1.800385	0.471621	-0.149905
C217	C	1.048649	-0.278832	-0.814254
C218	C	1.298649	-0.028832	-0.564254
C219	C	1.548649	0.221168	-0.314254
C220	C	1.798649	0.471168	-0.064254
C221	C	1.070237	-0.356845	-0.699240
C222	C	1.320237	-0.106845	-0.449240
C223	C	1.570237	0.143155	-0.199240
C224	C	1.820237	0.393155	0.050760
C225	C	1.070279	-0.356702	-1.015342
C226	C	1.320279	-0.106702	-0.765342
C227	C	1.570279	0.143298	-0.515342
C228	C	1.820279	0.393298	-0.265342
C229	C	1.070162	-0.356869	-0.164505
C230	C	1.320162	-0.106869	0.085495
C231	C	1.570162	0.143131	0.335495
C232	C	1.820162	0.393131	0.585495
C233	C	1.070287	-0.356668	-0.082191
C234	C	1.320287	-0.106668	0.167809
C235	C	1.570287	0.143332	0.417809
C236	C	1.820287	0.393332	0.667809
H237	H	0.506120	-0.312363	-0.242242
H238	H	0.756120	-0.062363	0.007758
H239	H	1.006120	0.187637	0.257758
H240	H	1.256120	0.437637	0.507758
O241	O	0.936708	-0.927988	-0.396991
O242	O	1.186708	-0.677988	-0.146991
O243	O	1.436708	-0.427988	0.103009
O244	O	1.686708	-0.177988	0.353009
H245	H	0.899363	-0.880708	-0.385661
H246	H	1.149363	-0.630708	-0.135661
H247	H	1.399363	-0.380708	0.114339
H248	H	1.649363	-0.130708	0.364339
O249	O	1.030344	-0.490999	-0.787434
O250	O	1.280344	-0.240999	-0.537434
O251	O	1.530344	0.009001	-0.287434
O252	O	1.780344	0.259001	-0.037434
H253	H	1.081405	-0.489631	-0.753532
H254	H	1.331405	-0.239631	-0.503532
H255	H	1.581405	0.010369	-0.253532
H256	H	1.831405	0.260369	-0.003532
H257	H	1.026252	-0.919970	-0.472374
H258	H	1.276252	-0.669970	-0.222374
H259	H	1.526252	-0.419970	0.027626
H260	H	1.776252	-0.169970	0.277626
H261	H	1.164804	-0.435654	-0.919836
H262	H	1.414804	-0.185654	-0.669836
H263	H	1.664804	0.064346	-0.419836
H264	H	1.914804	0.314346	-0.169836
H265	H	1.026111	-0.792740	-0.472007
H266	H	1.276111	-0.542740	-0.222007
H267	H	1.526111	-0.292740	0.027993
H268	H	1.776111	-0.042740	0.277993
H269	H	0.506389	-0.281216	-0.454725
H270	H	0.756389	-0.031216	-0.204725
H271	H	1.006389	0.218784	0.045275
H272	H	1.256389	0.468784	0.295275
O273	O	1.102384	-0.786486	-0.220717
O274	O	1.352384	-0.536486	0.029283
O275	O	1.602384	-0.286486	0.279283
O276	O	1.852384	-0.036486	0.529283
H277	H	1.086233	-0.809271	-0.166112
H278	H	1.336233	-0.559271	0.083888
H279	H	1.586233	-0.309271	0.333888
H280	H	1.836233	-0.059271	0.583888
H281	H	0.991406	-0.919153	-0.262279
H282	H	1.241406	-0.669153	-0.012279
H283	H	1.491406	-0.419153	0.237721
H284	H	1.741406	-0.169153	0.487721
H285	H	1.167856	-0.920633	-0.432895
H286	H	1.417856	-0.670633	-0.182895
H287	H	1.667856	-0.420633	0.067105
H288	H	1.917856	-0.170633	0.317105
H289	H	0.633956	-0.277966	-0.450989
H290	H	0.883956	-0.027966	-0.200989
H291	H	1.133956	0.222034	0.049011
H292	H	1.383956	0.472034	0.299011
O293	O	0.935974	-0.786726	-0.396581
O294	O	1.185974	-0.536726	-0.146581
O295	O	1.435974	-0.286726	0.103419
O296	O	1.685974	-0.036726	0.353419
H297	H	0.935510	-0.725410	-0.396399
H298	H	1.185510	-0.475410	-0.146399
H299	H	1.435510	-0.225410	0.103601
H300	H	1.685510	0.024590	0.353601
H301	H	1.192217	-0.338629	-0.920590
H302	H	1.442217	-0.088629	-0.670590
H303	H	1.692217	0.161371	-0.420590
H304	H	1.942217	0.411371	-0.170590
H305	H	0.955097	-0.400784	-0.793483
H306	H	1.205097	-0.150784	-0.543483
H307	H	1.455097	0.099216	-0.293483
H308	H	1.705097	0.349216	-0.043483
H309	H	1.192915	-0.792007	-0.339927
H310	H	1.442915	-0.542007	-0.089927
H311	H	1.692915	-0.292007	0.160073
H312	H	1.942915	-0.042007	0.410073
O313	O	0.640371	-0.316909	-0.222797
O314	O	0.890371	-0.066909	0.027203
O315	O	1.140371	0.183091	0.277203
O316	O	1.390371	0.433091	0.527203
H317	H	0.674274	-0.367969	-0.224138
H318	H	0.924274	-0.117969	0.025862
H319	H	1.174274	0.132031	0.275862
H320	H	1.424274	0.382031	0.525862
O321	O	1.101351	-0.926571	-0.220676
O322	O	1.351351	-0.676571	0.029324
O323	O	1.601351	-0.426571	0.279324
O324	O	1.851351	-0.176571	0.529324
H325	H	1.083369	-0.905983	-0.165790
H326	H	1.333369	-0.655983	0.084210
H327	H	1.583369	-0.405983	0.334210
H328	H	1.833369	-0.155983	0.584210
O329	O	0.973985	-0.785146	-0.256028
O330	O	1.223985	-0.535146	-0.006028
O331	O	1.473985	-0.285146	0.243972
O332	O	1.723985	-0.035146	0.493972
H333	H	0.951611	-0.748903	-0.300131
H334	H	1.201611	-0.498903	-0.050131
H335	H	1.451611	-0.248903	0.199869
H336	H	1.701611	0.001097	0.449869
O337	O	1.169255	-0.786456	-0.454742
O338	O	1.419255	-0.536456	-0.204742
O339	O	1.669255	-0.286456	0.045258
O340	O	1.919255	-0.036456	0.295258
H341	H	1.124421	-0.751057	-0.476990
H342	H	1.374421	-0.501057	-0.226990
H343	H	1.624421	-0.251057	0.023010
H344	H	1.874421	-0.001057	0.273010
H345	H	1.192236	-0.337757	-0.793859
H346	H	1.442236	-0.087757	-0.543859
H347	H	1.692236	0.162243	-0.293859
H348	H	1.942236	0.412243	-0.043859
H349	H	1.191125	-0.919319	-0.335170
H350	H	1.441125	-0.669319	-0.085170
H351	H	1.691125	-0.419319	0.164830
H352	H	1.941125	-0.169319	0.414830
H353	H	1.165415	-0.434671	-0.792765
H354	H	1.415415	-0.184671	-0.542765
H355	H	1.665415	0.065329	-0.292765
H356	H	1.915415	0.315329	-0.042765
O357	O	0.501448	-0.456841	-0.259273
O358	O	0.751448	-0.206841	-0.009273
O359	O	1.001448	0.043159	0.240727
O360	O	1.251448	0.293159	0.490727
H361	H	0.549796	-0.467725	-0.223186
H362	H	0.799796	-0.217725	0.026814
H363	H	1.049796	0.032275	0.276814
H364	H	1.299796	0.282275	0.526814
H365	H	1.092240	-0.235880	-0.920179
H366	H	1.342240	0.014120	-0.670179
H367	H	1.592240	0.264120	-0.420179
H368	H	1.842240	0.514120	-0.170179
H369	H	0.954768	-0.400655	-0.920720
H370	H	1.204768	-0.150655	-0.670720
H371	H	1.454768	0.099345	-0.420720
H372	H	1.704768	0.349345	-0.170720
O373	O	1.029981	-0.490244	-0.928677
O374	O	1.279981	-0.240244	-0.678677
O375	O	1.529981	0.009756	-0.428677
O376	O	1.779981	0.259756	-0.178677
H377	H	1.079276	-0.487800	-0.965086
H378	H	1.329276	-0.237800	-0.715086
H379	H	1.579276	0.012200	-0.465086
H380	H	1.829276	0.262200	-0.215086
H381	H	0.507244	-0.478892	-0.374857
H382	H	0.757244	-0.228892	-0.124857
H383	H	1.007244	0.021108	0.125143
H384	H	1.257244	0.271108	0.375143
O385	O	0.640583	-0.493200	-0.388797
O386	O	0.890583	-0.243200	-0.138797
O387	O	1.140583	0.006800	0.111203
O388	O	1.390583	0.256800	0.361203
H389	H	0.676543	-0.467127	-0.431103
H390	H	0.926543	-0.217127	-0.181103
H391	H	1.176543	0.032873	0.068897
H392	H	1.426543	0.282873	0.318897
O393	O	0.976322	-0.252808	-0.928478
O394	O	1.226322	-0.002808	-0.678478
O395	O	1.476322	0.247192	-0.428478
O396	O	1.726322	0.497192	-0.178478
H397	H	0.952855	-0.295669	-0.965510
H398	H	1.202855	-0.045669	-0.715510
H399	H	1.452855	0.204331	-0.465510
H400	H	1.702855	0.454331	-0.215510
H401	H	0.635026	-0.452008	-0.278892
H402	H	0.885026	-0.202008	-0.028892
H403	H	1.135026	0.047992	0.221108
H404	H	1.385026	0.297992	0.471108
O405	O	0.972597	-0.257648	-0.787312
O406	O	1.222597	-0.007648	-0.537312
O407	O	1.472597	0.242352	-0.287312
O408	O	1.722597	0.492352	-0.037312
H409	H	0.950266	-0.302461	-0.751878
H410	H	1.200266	-0.052461	-0.501878
H411	H	1.450266	0.197539	-0.251878
H412	H	1.700266	0.447539	-0.001878
H413	H	1.087450	-0.234076	-0.792868
H414	H	1.337450	0.015924	-0.542868
H415	H	1.587450	0.265924	-0.292868
H416	H	1.837450	0.515924	-0.042868
O417	O	0.641946	-0.386836	-0.494115
O418	O	0.891946	-0.136836	-0.244115
O419	O	1.141946	0.113164	0.005885
O420	O	1.391946	0.363164	0.255885
H421	H	0.703168	-0.383947	-0.496067
H422	H	0.953168	-0.133947	-0.246067
H423	H	1.203168	0.116053	0.003933
H424	H	1.453168	0.366053	0.253933
H425	H	0.634329	-0.241719	-0.313119
H426	H	0.884329	0.008281	-0.063119
H427	H	1.134329	0.258281	0.186881
H428	H	1.384329	0.508281	0.436881
O429	O	0.501123	-0.392586	-0.491546
O430	O	0.751123	-0.142586	-0.241546
O431	O	1.001123	0.107414	0.008454
O432	O	1.251123	0.357414	0.258454
H433	H	0.520156	-0.448638	-0.475575
H434	H	0.770156	-0.198638	-0.225575
H435	H	1.020156	0.051362	0.024425
H436	H	1.270156	0.301362	0.274425
O437	O	0.500377	-0.222557	-0.317460
O438	O	0.750377	0.027443	-0.067460
O439	O	1.000377	0.277443	0.182540
O440	O	1.250377	0.527443	0.432540
H441	H	0.464196	-0.224526	-0.366912
H442	H	0.714196	0.025474	-0.116912
H443	H	0.964196	0.275474	0.133088
H444	H	1.214196	0.525474	0.383088
