data_functionalizedCrystal
_audit_creation_method	'MofGen! by Chris Wilmer'
_symmetry_space_group_name_H-M	'P1'
_symmetry_Int_Tables_number	1
_symmetry_cell_setting	triclinic
loop_
_symmetry_equiv_pos_as_xyz
  x,y,z
_cell_length_a	11.792241
_cell_length_b	10.268362
_cell_length_c	11.792241
_cell_angle_alpha	90.005428
_cell_angle_beta	95.806584
_cell_angle_gamma	89.999626
loop_
_atom_site_label
_atom_site_type_symbol
_atom_site_fract_x
_atom_site_fract_y
_atom_site_fract_z
O1	O	1.506909	-0.108174	-0.155569
O2	O	1.840242	0.225159	0.177765
O3	O	2.173575	0.558492	0.511098
O4	O	1.176568	-0.108205	-0.171602
O5	O	1.509901	0.225129	0.161732
O6	O	1.843234	0.558462	0.495065
O7	O	1.349755	-0.108180	0.001585
O8	O	1.683088	0.225154	0.334919
O9	O	2.016421	0.558487	0.668252
O10	O	1.333722	-0.108199	-0.328756
O11	O	1.667055	0.225134	0.004578
O12	O	2.000388	0.558467	0.337911
O13	O	1.349740	0.108421	0.001593
O14	O	1.683073	0.441754	0.334926
O15	O	2.016406	0.775088	0.668259
O16	O	1.176553	0.108396	-0.171594
O17	O	1.509886	0.441729	0.161739
O18	O	1.843219	0.775063	0.495072
O19	O	1.506894	0.108426	-0.155561
O20	O	1.840227	0.441760	0.177772
O21	O	2.173560	0.775093	0.511105
Cu22	Cu	1.341722	0.128188	-0.163577
Cu23	Cu	1.675055	0.461522	0.169756
Cu24	Cu	2.008388	0.794855	0.503089
Cu25	Cu	1.341740	-0.127967	-0.163586
Cu26	Cu	1.675073	0.205366	0.169748
Cu27	Cu	2.008406	0.538700	0.503081
O28	O	1.333707	0.108401	-0.328748
O29	O	1.667040	0.441735	0.004585
O30	O	2.000373	0.775068	0.337918
C31	C	1.134269	0.000092	-0.170591
C32	C	1.467603	0.333425	0.162742
C33	C	1.800936	0.666758	0.496076
C34	C	1.008255	0.000080	-0.167576
C35	C	1.341589	0.333414	0.165757
C36	C	1.674922	0.666747	0.499090
N37	N	1.341717	0.308354	-0.163571
N38	N	1.675051	0.641688	0.169763
N39	N	2.008384	0.975021	0.503096
N40	N	1.341753	-0.308133	-0.163584
N41	N	1.675086	0.025201	0.169750
N42	N	2.008420	0.358534	0.503083
C43	C	0.777543	0.000118	-0.162034
C44	C	1.110877	0.333451	0.171300
C45	C	1.444210	0.666785	0.504633
C46	C	0.905928	0.000097	-0.165113
C47	C	1.239262	0.333431	0.168220
C48	C	1.572595	0.666764	0.501553
C49	C	1.549192	0.000127	-0.156572
C50	C	1.882525	0.333460	0.176761
C51	C	2.215859	0.666794	0.510095
C52	C	1.675206	0.000130	-0.159587
C53	C	2.008539	0.333463	0.173747
C54	C	2.341873	0.666796	0.507080
C55	C	1.348740	0.000120	0.043880
C56	C	1.682073	0.333454	0.377213
C57	C	2.015407	0.666787	0.710547
C58	C	1.345726	0.000119	0.169894
C59	C	1.679059	0.333452	0.503227
C60	C	2.012392	0.666785	0.836560
C61	C	1.341734	0.574025	-0.163583
C62	C	1.675067	0.907358	0.169750
C63	C	2.008401	1.240692	0.503083
C64	C	1.341721	0.426187	-0.163580
C65	C	1.675054	0.759520	0.169754
C66	C	2.008388	1.092854	0.503087
C67	C	1.334721	0.000099	-0.371043
C68	C	1.668055	0.333432	-0.037710
C69	C	2.001388	0.666765	0.295624
C70	C	1.337736	0.000092	-0.497057
C71	C	1.671069	0.333425	-0.163723
C72	C	2.004402	0.666758	0.169610
C73	C	1.340183	0.000096	0.400606
C74	C	1.673516	0.333430	0.733939
C75	C	2.006849	0.666763	1.067272
C76	C	1.343262	0.000108	0.272221
C77	C	1.676596	0.333442	0.605554
C78	C	2.009929	0.666775	0.938887
