data_functionalizedCrystal
_audit_creation_method	'MofGen! by Chris Wilmer'
_symmetry_space_group_name_H-M	'P1'
_symmetry_Int_Tables_number	1
_symmetry_cell_setting	triclinic
loop_
_symmetry_equiv_pos_as_xyz
  x,y,z
_cell_length_a	21.395364
_cell_length_b	19.805399
_cell_length_c	21.395361
_cell_angle_alpha	89.969097
_cell_angle_beta	90.045659
_cell_angle_gamma	89.981369
loop_
_atom_site_label
_atom_site_type_symbol
_atom_site_fract_x
_atom_site_fract_y
_atom_site_fract_z
Zn1	Zn	0.957823	-0.382687	-0.249203
Zn2	Zn	1.291156	-0.049354	0.084130
Zn3	Zn	1.624489	0.283980	0.417464
Zn4	Zn	0.957736	-0.269492	-0.353980
Zn5	Zn	1.291069	0.063841	-0.020647
Zn6	Zn	1.624403	0.397174	0.312687
Zn7	Zn	0.853048	-0.269514	-0.249248
Zn8	Zn	1.186382	0.063820	0.084086
Zn9	Zn	1.519715	0.397153	0.417419
Zn10	Zn	0.853007	-0.382641	-0.353974
Zn11	Zn	1.186340	-0.049308	-0.020641
Zn12	Zn	1.519673	0.284026	0.312693
O13	O	0.905403	-0.326084	-0.301601
O14	O	1.238737	0.007250	0.031732
O15	O	1.572070	0.340583	0.365065
O16	O	1.045489	-0.367682	-0.263086
O17	O	1.378822	-0.034349	0.070247
O18	O	1.712156	0.298985	0.403581
O19	O	0.943830	-0.174779	-0.340108
O20	O	1.277163	0.158555	-0.006775
O21	O	1.610497	0.491888	0.326558
O22	O	0.867001	-0.284555	-0.161564
O23	O	1.200334	0.048779	0.171769
O24	O	1.533667	0.382112	0.505103
O25	O	1.045425	-0.284518	-0.340065
O26	O	1.378759	0.048815	-0.006732
O27	O	1.712092	0.382148	0.326602
O28	O	0.943978	-0.367703	-0.161531
O29	O	1.277311	-0.034369	0.171802
O30	O	1.610644	0.298964	0.505136
O31	O	0.866917	-0.174794	-0.263162
O32	O	1.200250	0.158539	0.070171
O33	O	1.533583	0.491873	0.403505
O34	O	0.765365	-0.284510	-0.263156
O35	O	1.098698	0.048824	0.070177
O36	O	1.432032	0.382157	0.403511
O37	O	0.866930	-0.477364	-0.340055
O38	O	1.200263	-0.144030	-0.006722
O39	O	1.533596	0.189303	0.326612
O40	O	0.765334	-0.367624	-0.340098
O41	O	1.098668	-0.034291	-0.006765
O42	O	1.432001	0.299043	0.326569
O43	O	0.943937	-0.477398	-0.263080
O44	O	1.277271	-0.144064	0.070253
O45	O	1.610604	0.189269	0.403587
O46	O	0.943790	-0.284474	-0.441657
O47	O	1.277123	0.048860	-0.108324
O48	O	1.610456	0.382193	0.225009
O49	O	0.866846	-0.367603	-0.441653
O50	O	1.200179	-0.034270	-0.108320
O51	O	1.533512	0.299063	0.225014
C52	C	0.742616	-0.326064	-0.301632
C53	C	1.075949	0.007269	0.031702
C54	C	1.409282	0.340602	0.365035
C55	C	0.672975	-0.326072	-0.301660
C56	C	1.006308	0.007261	0.031673
C57	C	1.339641	0.340594	0.365007
C58	C	0.640317	-0.369443	-0.261642
C59	C	0.973650	-0.036109	0.071691
C60	C	1.306984	0.297224	0.405024
C61	C	0.574882	-0.369445	-0.261626
C62	C	0.908215	-0.036112	0.071708
C63	C	1.241548	0.297221	0.405041
C64	C	0.542106	-0.326085	-0.301638
C65	C	0.875440	0.007249	0.031696
C66	C	1.208773	0.340582	0.365029
C67	C	0.574772	-0.282706	-0.341658
C68	C	0.908105	0.050627	-0.008325
C69	C	1.241438	0.383961	0.325009
C70	C	0.640206	-0.282700	-0.341669
C71	C	0.973539	0.050633	-0.008336
C72	C	1.306873	0.383967	0.324998
C73	C	0.438382	-0.320640	-0.358063
C74	C	0.771716	0.012694	-0.024730
C75	C	1.105049	0.346027	0.308603
C76	C	0.372949	-0.320650	-0.358053
C77	C	0.706283	0.012683	-0.024720
C78	C	1.039616	0.346016	0.308613
C79	C	0.340286	-0.326100	-0.301603
C80	C	0.673619	0.007234	0.031730
C81	C	1.006952	0.340567	0.365063
C82	C	0.373063	-0.331552	-0.245162
C83	C	0.706396	0.001781	0.088172
C84	C	1.039729	0.335114	0.421505
C85	C	0.438497	-0.331546	-0.245173
C86	C	0.771830	0.001787	0.088161
C87	C	1.105163	0.335120	0.421494
C88	C	0.471154	-0.326086	-0.301630
C89	C	0.804487	0.007247	0.031703
C90	C	1.137821	0.340580	0.365037
C91	C	0.236675	-0.369475	-0.261564
C92	C	0.570009	-0.036142	0.071769
C93	C	0.903342	0.297191	0.405102
C94	C	0.171239	-0.369473	-0.261547
C95	C	0.504572	-0.036140	0.071787
C96	C	0.837905	0.297194	0.405120
C97	C	0.171130	-0.282737	-0.341585
C98	C	0.504464	0.050596	-0.008251
C99	C	0.837797	0.383929	0.325082
C100	C	0.236566	-0.282736	-0.341597
C101	C	0.569899	0.050597	-0.008263
C102	C	0.903232	0.383931	0.325070
C103	C	0.269334	-0.326108	-0.301587
C104	C	0.602668	0.007225	0.031746
C105	C	0.936001	0.340558	0.365079
C106	C	0.905439	-0.502626	-0.301562
C107	C	1.238772	-0.169293	0.031772
C108	C	1.572105	0.164040	0.365105
C109	C	0.905454	-0.577858	-0.301545
C110	C	1.238787	-0.244525	0.031788
C111	C	1.572120	0.088808	0.365122
C112	C	0.945552	-0.613221	-0.261462
C113	C	1.278886	-0.279888	0.071871
C114	C	1.612219	0.053445	0.405204
C115	C	0.945559	-0.683910	-0.261444
C116	C	1.278892	-0.350576	0.071889
C117	C	1.612226	-0.017243	0.405223
C118	C	0.905469	-0.719234	-0.301512
C119	C	1.238802	-0.385901	0.031821
C120	C	1.572136	-0.052567	0.365154
C121	C	0.865366	-0.683866	-0.341597
C122	C	1.198699	-0.350533	-0.008263
C123	C	1.532033	-0.017199	0.325070
C124	C	0.865357	-0.613179	-0.341611
C125	C	1.198690	-0.279846	-0.008278
C126	C	1.532023	0.053488	0.325055
C127	C	0.865401	-0.968940	-0.341538
C128	C	1.198735	-0.635606	-0.008205
C129	C	1.532068	-0.302273	0.325128
C130	C	0.865415	-1.039632	-0.341522
C131	C	1.198748	-0.706298	-0.008189
C132	C	1.532081	-0.372965	0.325145
C133	C	0.945603	-1.039670	-0.261371
C134	C	1.278937	-0.706337	0.071962
C135	C	1.612270	-0.373004	0.405296
C136	C	0.945594	-0.968983	-0.261386
C137	C	1.278928	-0.635650	0.071948
C138	C	1.612261	-0.302317	0.405281
C139	C	0.905489	-0.933621	-0.301468
C140	C	1.238822	-0.600288	0.031866
C141	C	1.572156	-0.266955	0.365199
C142	C	0.905482	-0.856973	-0.301486
C143	C	1.238815	-0.523640	0.031847
C144	C	1.572148	-0.190306	0.365181
C145	C	0.905479	-0.795881	-0.301498
C146	C	1.238813	-0.462548	0.031836
C147	C	1.572146	-0.129214	0.365169
C148	C	1.068827	-0.326103	-0.301571
C149	C	1.402160	0.007230	0.031762
C150	C	1.735493	0.340564	0.365096
C151	C	1.138468	-0.326111	-0.301558
C152	C	1.471801	0.007222	0.031775
C153	C	1.805135	0.340555	0.365108
C154	C	0.905321	-0.326046	-0.464389
C155	C	1.238654	0.007287	-0.131056
C156	C	1.571987	0.340621	0.202278
C157	C	0.905343	-0.326052	-0.534030
C158	C	1.238676	0.007281	-0.200697
C159	C	1.572009	0.340614	0.132636
C160	C	0.905405	-0.150228	-0.301595
C161	C	1.238738	0.183106	0.031738
C162	C	1.572071	0.516439	0.365071
C163	C	0.905511	-0.074996	-0.301436
C164	C	1.238844	0.258337	0.031898
C165	C	1.572178	0.591671	0.365231
C166	C	0.945443	-0.282811	-0.566725
C167	C	1.278776	0.050522	-0.233391
C168	C	1.612110	0.383856	0.099942
C169	C	0.945472	-0.282826	-0.632160
C170	C	1.278805	0.050507	-0.298827
C171	C	1.612139	0.383841	0.034506
C172	C	0.905390	-0.326076	-0.664898
C173	C	1.238723	0.007258	-0.331565
C174	C	1.572056	0.340591	0.001768
C175	C	0.865287	-0.369325	-0.632196
C176	C	1.198620	-0.035992	-0.298863
C177	C	1.531953	0.297341	0.034471
C178	C	0.865263	-0.369314	-0.566762
C179	C	1.198596	-0.035980	-0.233429
C180	C	1.531930	0.297353	0.099905
C181	C	0.848975	-0.331380	-0.768628
C182	C	1.182308	0.001954	-0.435294
C183	C	1.515641	0.335287	-0.101961
C184	C	0.848997	-0.331386	-0.834061
C185	C	1.182330	0.001947	-0.500727
C186	C	1.515664	0.335280	-0.167394
C187	C	0.905463	-0.326115	-0.866719
C188	C	1.238796	0.007218	-0.533386
C189	C	1.572129	0.340551	-0.200053
C190	C	0.961908	-0.320823	-0.833937
C191	C	1.295241	0.012510	-0.500604
C192	C	1.628574	0.345844	-0.167270
C193	C	0.961884	-0.320811	-0.768503
C194	C	1.295217	0.012522	-0.435169
C195	C	1.628551	0.345855	-0.101836
C196	C	0.905411	-0.326093	-0.735851
C197	C	1.238744	0.007240	-0.402517
C198	C	1.572078	0.340573	-0.069184
C199	C	0.945598	-0.282888	-0.970366
C200	C	1.278931	0.050445	-0.637033
C201	C	1.612265	0.383779	-0.303700
C202	C	0.945628	-0.282908	-1.035803
C203	C	1.278962	0.050425	-0.702470
C204	C	1.612295	0.383759	-0.369136
C205	C	0.865437	-0.369404	-1.035837
C206	C	1.198771	-0.036070	-0.702504
C207	C	1.532104	0.297263	-0.369171
C208	C	0.865413	-0.369387	-0.970402
C209	C	1.198746	-0.036054	-0.637069
C210	C	1.532079	0.297279	-0.303735
C211	C	0.905492	-0.326126	-0.937670
C212	C	1.238825	0.007208	-0.604337
C213	C	1.572159	0.340541	-0.271004
C214	C	0.905504	-0.326136	-0.138178
C215	C	1.238837	0.007197	0.195155
C216	C	1.572170	0.340531	0.528489
C217	C	0.905546	-0.326159	-0.068537
C218	C	1.238880	0.007175	0.264797
C219	C	1.572213	0.340508	0.598130
H220	H	0.346469	-0.335990	-0.199195
H221	H	0.679802	-0.002657	0.134139
H222	H	1.013136	0.330677	0.467472
C223	C	0.989689	-0.235311	-0.934359
C224	C	1.323023	0.098022	-0.601025
C225	C	1.656356	0.431356	-0.267692
H226	H	1.013584	-0.209567	-0.963205
H227	H	1.346917	0.123767	-0.629872
H228	H	1.680250	0.457100	-0.296538
H229	H	0.965730	-0.205789	-0.908881
H230	H	1.299064	0.127544	-0.575547
H231	H	1.632397	0.460877	-0.242214
H232	H	1.016966	-0.261231	-0.908784
H233	H	1.350299	0.072103	-0.575451
H234	H	1.683632	0.405436	-0.242118
C235	C	0.821315	-1.078491	-0.385597
C236	C	1.154648	-0.745157	-0.052264
C237	C	1.487981	-0.411824	0.281069
H238	H	0.827071	-1.125654	-0.379852
H239	H	1.160405	-0.792320	-0.046519
H240	H	1.493738	-0.458987	0.286815
H241	H	0.779220	-1.066906	-0.376437
H242	H	1.112554	-0.733573	-0.043104
H243	H	1.445887	-0.400239	0.290229
H244	H	0.830459	-1.066892	-0.427698
H245	H	1.163792	-0.733559	-0.094365
H246	H	1.497125	-0.400226	0.238968
C247	C	0.135085	-0.235045	-0.385600
C248	C	0.468419	0.098289	-0.052267
C249	C	0.801752	0.431622	0.281067
H250	H	0.091437	-0.241262	-0.379866
H251	H	0.424771	0.092071	-0.046533
H252	H	0.758104	0.425404	0.286801
H253	H	0.145800	-0.189584	-0.376382
H254	H	0.479133	0.143750	-0.043048
H255	H	0.812467	0.477083	0.290285
H256	H	0.145773	-0.244874	-0.427713
H257	H	0.479106	0.088460	-0.094379
H258	H	0.812440	0.421793	0.238954
C259	C	0.821267	-0.722718	-0.385672
C260	C	1.154600	-0.389384	-0.052339
C261	C	1.487934	-0.056051	0.280994
H262	H	0.797380	-0.691531	-0.409542
H263	H	1.130714	-0.358197	-0.076209
H264	H	1.464047	-0.024864	0.257124
H265	H	0.845221	-0.750288	-0.412962
H266	H	1.178554	-0.416954	-0.079629
H267	H	1.511888	-0.083621	0.253705
H268	H	0.793983	-0.750295	-0.361700
H269	H	1.127317	-0.416962	-0.028367
H270	H	1.460650	-0.083629	0.304966
C271	C	0.821250	-0.574277	-0.385701
C272	C	1.154583	-0.240943	-0.052368
C273	C	1.487916	0.092390	0.280965
H274	H	0.826981	-0.527119	-0.379967
H275	H	1.160314	-0.193786	-0.046634
H276	H	1.493648	0.139548	0.286699
H277	H	0.830392	-0.585847	-0.427796
H278	H	1.163725	-0.252513	-0.094463
H279	H	1.497058	0.080820	0.238871
H280	H	0.779158	-0.585857	-0.376531
H281	H	1.112491	-0.252524	-0.043197
H282	H	1.445824	0.080809	0.290136
H283	H	1.007888	-0.316531	-0.860526
H284	H	1.341221	0.016802	-0.527193
H285	H	1.674554	0.350136	-0.193859
H286	H	0.978213	-0.712699	-0.228806
H287	H	1.311546	-0.379366	0.104527
H288	H	1.644880	-0.046032	0.437861
C289	C	0.821275	-0.930050	-0.385614
C290	C	1.154608	-0.596717	-0.052280
C291	C	1.487941	-0.263384	0.281053
H292	H	0.797401	-0.961214	-0.409473
H293	H	1.130735	-0.627881	-0.076140
H294	H	1.464068	-0.294548	0.257193
H295	H	0.793990	-0.902488	-0.361643
H296	H	1.127323	-0.569155	-0.028310
H297	H	1.460657	-0.235822	0.305024
H298	H	0.845208	-0.902462	-0.412924
H299	H	1.178542	-0.569128	-0.079590
H300	H	1.511875	-0.235795	0.253743
C301	C	0.989514	-0.235213	-0.530721
C302	C	1.322848	0.098121	-0.197387
C303	C	1.656181	0.431454	0.135946
H304	H	0.983750	-0.241388	-0.487067
H305	H	1.317083	0.091945	-0.153734
H306	H	1.650417	0.425278	0.179600
H307	H	1.031616	-0.245142	-0.541381
H308	H	1.364949	0.088192	-0.208048
H309	H	1.698283	0.421525	0.125285
H310	H	0.980351	-0.189733	-0.541494
H311	H	1.313684	0.143601	-0.208160
H312	H	1.647018	0.476934	0.125173
C313	C	0.989579	-0.235254	-0.668132
C314	C	1.322912	0.098080	-0.334799
C315	C	1.656246	0.431413	-0.001465
H316	H	1.013442	-0.209484	-0.639266
H317	H	1.346775	0.123849	-0.305933
H318	H	1.680108	0.457182	0.027400
H319	H	1.016875	-0.261171	-0.693613
H320	H	1.350208	0.072163	-0.360280
H321	H	1.683542	0.405496	-0.026946
H322	H	0.965625	-0.205745	-0.693701
H323	H	1.298959	0.127589	-0.360368
H324	H	1.632292	0.460922	-0.027034
H325	H	0.832757	-0.404596	-0.943780
H326	H	1.166090	-0.071262	-0.610447
H327	H	1.499423	0.262071	-0.277114
C328	C	0.989649	-0.574371	-0.217384
C329	C	1.322982	-0.241037	0.115950
C330	C	1.656315	0.092296	0.449283
H331	H	1.013526	-0.605558	-0.193504
H332	H	1.346859	-0.272225	0.139829
H333	H	1.680192	0.061108	0.473162
H334	H	1.016932	-0.546791	-0.241347
H335	H	1.350265	-0.213457	0.091986
H336	H	1.683598	0.119876	0.425320
H337	H	0.965687	-0.546803	-0.190092
H338	H	1.299021	-0.213470	0.143241
H339	H	1.632354	0.119863	0.476574
C340	C	0.786860	-0.337177	-0.732706
C341	C	1.120193	-0.003844	-0.399373
C342	C	1.453527	0.329490	-0.066040
H343	H	0.794929	-0.336419	-0.689042
H344	H	1.128263	-0.003085	-0.355708
H345	H	1.461596	0.330248	-0.022375
H346	H	0.760530	-0.300333	-0.743485
H347	H	1.093863	0.033001	-0.410151
H348	H	1.427196	0.366334	-0.076818
H349	H	0.766807	-0.378368	-0.743426
H350	H	1.100140	-0.045035	-0.410093
H351	H	1.433473	0.288298	-0.076759
H352	H	1.007843	-0.316504	-0.741813
H353	H	1.341176	0.016829	-0.408480
H354	H	1.674510	0.350163	-0.075146
C355	C	0.474309	-0.314641	-0.420160
C356	C	0.807643	0.018692	-0.086827
C357	C	1.140976	0.352026	0.246506
H358	H	0.517973	-0.315411	-0.412084
H359	H	0.851307	0.017923	-0.078750
H360	H	1.184640	0.351256	0.254583
H361	H	0.463576	-0.351408	-0.446561
H362	H	0.796909	-0.018074	-0.113227
H363	H	1.130243	0.315259	0.220106
H364	H	0.463549	-0.273392	-0.440140
H365	H	0.796883	0.059942	-0.106806
H366	H	1.130216	0.393275	0.226527
H367	H	0.978242	-0.940226	-0.228760
H368	H	1.311575	-0.606892	0.104573
H369	H	1.644908	-0.273559	0.437907
C370	C	0.538722	-0.235014	-0.385673
C371	C	0.872055	0.098320	-0.052339
C372	C	1.205389	0.431653	0.280994
H373	H	0.495074	-0.241234	-0.379940
H374	H	0.828407	0.092099	-0.046607
H375	H	1.161740	0.425433	0.286727
H376	H	0.549435	-0.189553	-0.376452
H377	H	0.882768	0.143780	-0.043118
H378	H	1.216101	0.477114	0.290215
H379	H	0.549411	-0.244840	-0.427786
H380	H	0.882744	0.088494	-0.094452
H381	H	1.216078	0.421827	0.238881
C382	C	0.989740	-0.235339	-1.071767
C383	C	1.323074	0.097994	-0.738434
C384	C	1.656407	0.431327	-0.405101
H385	H	1.013601	-0.209570	-1.042899
H386	H	1.346934	0.123763	-0.709566
H387	H	1.680267	0.457096	-0.376233
H388	H	1.017038	-0.261259	-1.097244
H389	H	1.350372	0.072074	-0.763910
H390	H	1.683705	0.405408	-0.430577
H391	H	0.965792	-0.205830	-1.097340
H392	H	1.299125	0.127503	-0.764007
H393	H	1.632458	0.460837	-0.430674
H394	H	0.803036	-0.335689	-0.860747
H395	H	1.136369	-0.002356	-0.527414
H396	H	1.469703	0.330978	-0.194080
H397	H	0.832804	-0.404621	-1.062492
H398	H	1.166138	-0.071288	-0.729159
H399	H	1.499471	0.262046	-0.395826
H400	H	0.978257	-1.068470	-0.228732
H401	H	1.311590	-0.735137	0.104601
H402	H	1.644924	-0.401804	0.437934
H403	H	0.263156	-0.247422	-0.374186
H404	H	0.596489	0.085911	-0.040852
H405	H	0.929822	0.419245	0.292481
H406	H	0.666993	-0.404760	-0.229063
H407	H	1.000327	-0.071426	0.104270
H408	H	1.333660	0.261907	0.437603
C409	C	0.272724	-0.417176	-0.217552
C410	C	0.606057	-0.083843	0.115781
C411	C	0.939390	0.249490	0.449115
H412	H	0.243899	-0.443001	-0.193709
H413	H	0.577233	-0.109667	0.139624
H414	H	0.910566	0.223666	0.472957
H415	H	0.298236	-0.446619	-0.241560
H416	H	0.631569	-0.113285	0.091774
H417	H	0.964902	0.220048	0.425107
H418	H	0.298267	-0.391333	-0.190224
H419	H	0.631600	-0.058000	0.143109
H420	H	0.964934	0.275333	0.476442
H421	H	0.832653	-0.404540	-0.658856
H422	H	1.165986	-0.071207	-0.325522
H423	H	1.499319	0.262126	0.007811
C424	C	0.821150	-0.416878	-0.530793
C425	C	1.154484	-0.083544	-0.197460
C426	C	1.487817	0.249789	0.135873
H427	H	0.826879	-0.410678	-0.487135
H428	H	1.160212	-0.077345	-0.153802
H429	H	1.493546	0.255989	0.179532
H430	H	0.779062	-0.406936	-0.541573
H431	H	1.112395	-0.073602	-0.208240
H432	H	1.445728	0.259731	0.125094
H433	H	0.830305	-0.462369	-0.541475
H434	H	1.163638	-0.129035	-0.208141
H435	H	1.496972	0.204298	0.125192
C436	C	0.538951	-0.417162	-0.217612
C437	C	0.872284	-0.083828	0.115721
C438	C	1.205617	0.249505	0.449055
H439	H	0.567838	-0.442995	-0.193790
H440	H	0.901172	-0.109662	0.139543
H441	H	1.234505	0.223671	0.472877
H442	H	0.513437	-0.391336	-0.190274
H443	H	0.846770	-0.058002	0.143059
H444	H	1.180103	0.275331	0.476392
H445	H	0.513418	-0.446605	-0.241625
H446	H	0.846751	-0.113272	0.091709
H447	H	1.180084	0.220062	0.425042
H448	H	0.465181	-0.335984	-0.199216
H449	H	0.798515	-0.002650	0.134117
H450	H	1.131848	0.330683	0.467451
H451	H	0.346267	-0.316214	-0.404011
H452	H	0.679601	0.017120	-0.070678
H453	H	1.012934	0.350453	0.262655
C454	C	0.135315	-0.417183	-0.217525
C455	C	0.468648	-0.083850	0.115808
C456	C	0.801982	0.249484	0.449142
H457	H	0.164205	-0.443015	-0.193705
H458	H	0.497538	-0.109682	0.139629
H459	H	0.830872	0.223651	0.472962
H460	H	0.109807	-0.391352	-0.190186
H461	H	0.443140	-0.058018	0.143147
H462	H	0.776474	0.275315	0.476480
H463	H	0.109777	-0.446627	-0.241530
H464	H	0.443110	-0.113294	0.091803
H465	H	0.776443	0.220039	0.425136
C466	C	0.676131	-0.234996	-0.385696
C467	C	1.009464	0.098337	-0.052362
C468	C	1.342797	0.431670	0.280971
H469	H	0.647242	-0.209174	-0.409527
H470	H	0.980575	0.124159	-0.076193
H471	H	1.313908	0.457492	0.257140
H472	H	0.701673	-0.205552	-0.361700
H473	H	1.035006	0.127781	-0.028367
H474	H	1.368340	0.461114	0.304967
H475	H	0.701635	-0.260839	-0.413034
H476	H	1.034969	0.072494	-0.079700
H477	H	1.368302	0.405827	0.253633
