data_functionalizedCrystal
_audit_creation_method	'MofGen! by Chris Wilmer'
_symmetry_space_group_name_H-M	'P1'
_symmetry_Int_Tables_number	1
_symmetry_cell_setting	triclinic
loop_
_symmetry_equiv_pos_as_xyz
  x,y,z
_cell_length_a	16.625548
_cell_length_b	16.625546
_cell_length_c	12.827885
_cell_angle_alpha	89.964876
_cell_angle_beta	89.978764
_cell_angle_gamma	90.023536
loop_
_atom_site_label
_atom_site_type_symbol
_atom_site_fract_x
_atom_site_fract_y
_atom_site_fract_z
Zn1	Zn	1.232686	-0.320940	-0.590865
Zn2	Zn	1.566019	0.012394	-0.257531
Zn3	Zn	1.899352	0.345727	0.075802
Zn4	Zn	1.232587	-0.455794	-0.416109
Zn5	Zn	1.565921	-0.122461	-0.082775
Zn6	Zn	1.899254	0.210873	0.250558
Zn7	Zn	1.097846	-0.320981	-0.416132
Zn8	Zn	1.431179	0.012352	-0.082799
Zn9	Zn	1.764513	0.345685	0.250534
Zn10	Zn	1.097818	-0.455736	-0.590803
Zn11	Zn	1.431151	-0.122403	-0.257469
Zn12	Zn	1.764485	0.210930	0.075864
O13	O	1.165234	-0.388363	-0.503477
O14	O	1.498568	-0.055029	-0.170144
O15	O	1.831901	0.278304	0.163190
O16	O	1.345505	-0.338835	-0.567699
O17	O	1.678838	-0.005501	-0.234366
O18	O	2.012172	0.327832	0.098968
O19	O	1.214684	-0.437952	-0.269876
O20	O	1.548018	-0.104619	0.063458
O21	O	1.881351	0.228714	0.396791
O22	O	1.115786	-0.208143	-0.439347
O23	O	1.449119	0.125190	-0.106013
O24	O	1.782452	0.458523	0.227320
O25	O	1.345433	-0.437912	-0.439307
O26	O	1.678766	-0.104578	-0.105973
O27	O	2.012100	0.228755	0.227360
O28	O	1.214852	-0.208113	-0.567722
O29	O	1.548185	0.125221	-0.234389
O30	O	1.881519	0.458554	0.098945
O31	O	1.115690	-0.338906	-0.269893
O32	O	1.449024	-0.005573	0.063440
O33	O	1.782357	0.327761	0.396774
O34	O	0.985010	-0.338850	-0.439287
O35	O	1.318343	-0.005517	-0.105953
O36	O	1.651677	0.327816	0.227380
O37	O	1.115738	-0.437814	-0.737047
O38	O	1.449071	-0.104480	-0.403714
O39	O	1.782405	0.228853	-0.070380
O40	O	0.984989	-0.437854	-0.567616
O41	O	1.318323	-0.104521	-0.234283
O42	O	1.651656	0.228812	0.099050
O43	O	1.214825	-0.338779	-0.737093
O44	O	1.548158	-0.005446	-0.403759
O45	O	1.881491	0.327888	-0.070426
O46	O	1.214657	-0.568619	-0.439246
O47	O	1.547990	-0.235285	-0.105913
O48	O	1.881324	0.098048	0.227420
O49	O	1.115643	-0.568576	-0.567593
O50	O	1.448976	-0.235243	-0.234260
O51	O	1.782309	0.098090	0.099073
C52	C	0.955743	-0.388351	-0.503448
C53	C	1.289077	-0.055018	-0.170115
C54	C	1.622410	0.278315	0.163219
C55	C	0.866122	-0.388366	-0.503460
C56	C	1.199456	-0.055032	-0.170127
C57	C	1.532789	0.278301	0.163206
C58	C	0.537947	-0.388371	-0.503505
C59	C	0.871280	-0.055038	-0.170172
C60	C	1.204613	0.278296	0.163162
C61	C	0.629255	-0.388367	-0.503489
C62	C	0.962589	-0.055034	-0.170156
C63	C	1.295922	0.278299	0.163178
C64	C	0.702032	-0.388369	-0.503482
C65	C	1.035365	-0.055036	-0.170148
C66	C	1.368698	0.278298	0.163185
C67	C	0.793346	-0.388364	-0.503468
C68	C	1.126679	-0.055031	-0.170134
C69	C	1.460013	0.278302	0.163199
C70	C	1.165158	-0.597854	-0.503433
C71	C	1.498491	-0.264520	-0.170100
C72	C	1.831825	0.068813	0.163233
C73	C	1.165199	-0.687475	-0.503450
C74	C	1.498532	-0.354141	-0.170116
C75	C	1.831866	-0.020808	0.163217
C76	C	1.165340	-1.015650	-0.503558
C77	C	1.498673	-0.682317	-0.170225
C78	C	1.832006	-0.348984	0.163108
C79	C	1.165298	-0.924342	-0.503531
C80	C	1.498631	-0.591009	-0.170198
C81	C	1.831965	-0.257675	0.163136
C82	C	1.165269	-0.851565	-0.503503
C83	C	1.498602	-0.518232	-0.170170
C84	C	1.831935	-0.184899	0.163163
C85	C	1.165228	-0.760251	-0.503477
C86	C	1.498562	-0.426918	-0.170144
C87	C	1.831895	-0.093585	0.163190
C88	C	1.375543	-0.388375	-0.503507
C89	C	1.708877	-0.055042	-0.170174
C90	C	2.042210	0.278292	0.163160
C91	C	1.465164	-0.388380	-0.503520
C92	C	1.798498	-0.055047	-0.170186
C93	C	2.131831	0.278287	0.163147
C94	C	1.165289	-0.388285	-0.776047
C95	C	1.498623	-0.054952	-0.442714
C96	C	1.831956	0.278381	-0.109381
C97	C	1.165313	-0.388252	-0.892201
C98	C	1.498646	-0.054919	-0.558867
C99	C	1.831979	0.278414	-0.225534
C100	C	1.165333	-0.178054	-0.503544
C101	C	1.498666	0.155279	-0.170211
C102	C	1.832000	0.488613	0.163123
C103	C	1.165375	-0.088433	-0.503572
C104	C	1.498708	0.244901	-0.170239
C105	C	1.832042	0.578234	0.163094
C106	C	1.214349	-0.339237	-0.944008
C107	C	1.547683	-0.005904	-0.610675
C108	C	1.881016	0.327429	-0.277341
C109	C	1.214374	-0.339202	-1.064058
C110	C	1.547708	-0.005869	-0.730725
C111	C	1.881041	0.327465	-0.397392
C112	C	1.165226	-0.388382	-0.231967
C113	C	1.498559	-0.055048	0.101366
C114	C	1.831893	0.278285	0.434699
C115	C	1.165359	-0.388188	-0.115815
C116	C	1.498692	-0.054854	0.217519
C117	C	1.832026	0.278479	0.550852
H118	H	1.256310	-0.297297	-0.899485
H119	H	1.589643	0.036036	-0.566152
H120	H	1.922976	0.369370	-0.232819
C121	C	1.260100	-0.293473	-1.231480
C122	C	1.593434	0.039860	-0.898147
C123	C	1.926767	0.373194	-0.564813
C124	C	1.271048	-0.282545	-1.124194
C125	C	1.604382	0.050789	-0.790861
C126	C	1.937715	0.384122	-0.457528
H127	H	1.295086	-0.258489	-1.268604
H128	H	1.628419	0.074845	-0.935271
H129	H	1.961753	0.408178	-0.601938
H130	H	1.271873	-0.347649	-1.249296
H131	H	1.605206	-0.014315	-0.915963
H132	H	1.938540	0.319018	-0.582629
H133	H	1.205918	-0.281680	-1.249300
H134	H	1.539252	0.051654	-0.915967
H135	H	1.872585	0.384987	-0.582634
H136	H	1.325229	-0.294344	-1.106373
H137	H	1.658563	0.038990	-0.773039
H138	H	1.991896	0.372323	-0.439706
H139	H	1.259281	-0.228357	-1.106371
H140	H	1.592615	0.104977	-0.773038
H141	H	1.925948	0.438310	-0.439704
H142	H	1.123344	-0.430185	-0.936723
H143	H	1.456677	-0.096851	-0.603390
H144	H	1.790011	0.236482	-0.270057
H145	H	1.123378	-0.430156	-1.071268
H146	H	1.456711	-0.096823	-0.737935
H147	H	1.790044	0.236510	-0.404602
