data_functionalizedCrystal
_audit_creation_method	'MofGen! by Chris Wilmer'
_symmetry_space_group_name_H-M	'P1'
_symmetry_Int_Tables_number	1
_symmetry_cell_setting	triclinic
loop_
_symmetry_equiv_pos_as_xyz
  x,y,z
_cell_length_a	16.109318
_cell_length_b	12.996460
_cell_length_c	16.109301
_cell_angle_alpha	89.998286
_cell_angle_beta	96.534978
_cell_angle_gamma	90.002628
loop_
_atom_site_label
_atom_site_type_symbol
_atom_site_fract_x
_atom_site_fract_y
_atom_site_fract_z
O1	O	1.103126	0.085485	-0.106930
O2	O	1.353126	0.335485	0.143070
O3	O	1.603126	0.585485	0.393070
O4	O	1.853126	0.835485	0.643070
O5	O	0.861066	0.085506	-0.120214
O6	O	1.111066	0.335506	0.129786
O7	O	1.361066	0.585506	0.379786
O8	O	1.611066	0.835506	0.629786
O9	O	0.988745	0.085484	0.007458
O10	O	1.238745	0.335484	0.257458
O11	O	1.488745	0.585484	0.507458
O12	O	1.738745	0.835484	0.757458
O13	O	0.975446	0.085506	-0.234603
O14	O	1.225446	0.335506	0.015397
O15	O	1.475446	0.585506	0.265397
O16	O	1.725446	0.835506	0.515397
O17	O	0.988729	-0.085650	0.007451
O18	O	1.238729	0.164350	0.257451
O19	O	1.488729	0.414350	0.507451
O20	O	1.738729	0.664350	0.757451
O21	O	0.861049	-0.085628	-0.120222
O22	O	1.111049	0.164372	0.129778
O23	O	1.361049	0.414372	0.379778
O24	O	1.611049	0.664372	0.629778
O25	O	1.103109	-0.085649	-0.106937
O26	O	1.353109	0.164351	0.143063
O27	O	1.603109	0.414351	0.393063
O28	O	1.853109	0.664351	0.643063
Cu29	Cu	0.982078	-0.101265	-0.113580
Cu30	Cu	1.232078	0.148735	0.136420
Cu31	Cu	1.482078	0.398735	0.386420
Cu32	Cu	1.732078	0.648735	0.636420
Cu33	Cu	0.982097	0.101121	-0.113572
Cu34	Cu	1.232097	0.351121	0.136428
Cu35	Cu	1.482097	0.601121	0.386428
Cu36	Cu	1.732097	0.851121	0.636428
O37	O	0.975430	-0.085628	-0.234610
O38	O	1.225430	0.164372	0.015390
O39	O	1.475430	0.414372	0.265390
O40	O	1.725430	0.664372	0.515390
C41	C	0.830083	-0.000059	-0.119677
C42	C	1.080083	0.249941	0.130323
C43	C	1.330083	0.499941	0.380323
C44	C	1.580083	0.749941	0.630323
C45	C	0.737788	-0.000051	-0.118057
C46	C	0.987788	0.249949	0.131943
C47	C	1.237788	0.499949	0.381943
C48	C	1.487788	0.749949	0.631943
C49	C	0.438723	0.093216	-0.112818
C50	C	0.688723	0.343216	0.137182
C51	C	0.938723	0.593216	0.387182
C52	C	1.188723	0.843216	0.637182
C53	C	0.525445	0.093222	-0.114335
C54	C	0.775445	0.343222	0.135665
C55	C	1.025445	0.593222	0.385665
C56	C	1.275445	0.843222	0.635665
C57	C	0.525446	-0.093357	-0.114332
C58	C	0.775446	0.156643	0.135668
C59	C	1.025446	0.406643	0.385668
C60	C	1.275446	0.656643	0.635668
C61	C	0.438727	-0.093363	-0.112808
C62	C	0.688727	0.156637	0.137192
C63	C	0.938727	0.406637	0.387192
C64	C	1.188727	0.656637	0.637192
C65	C	0.395367	-0.000073	-0.112056
C66	C	0.645367	0.249927	0.137944
C67	C	0.895367	0.499927	0.387944
C68	C	1.145367	0.749927	0.637944
C69	C	0.568807	-0.000061	-0.115096
C70	C	0.818807	0.249939	0.134904
C71	C	1.068807	0.499939	0.384904
C72	C	1.318807	0.749939	0.634904
C73	C	0.662835	-0.000055	-0.116742
C74	C	0.912835	0.249945	0.133258
C75	C	1.162835	0.499945	0.383258
C76	C	1.412835	0.749945	0.633258
C77	C	0.301334	-0.000079	-0.110409
C78	C	0.551334	0.249921	0.139591
C79	C	0.801334	0.499921	0.389591
C80	C	1.051334	0.749921	0.639591
N81	N	0.982070	-0.243612	-0.113586
N82	N	1.232070	0.006388	0.136414
N83	N	1.482070	0.256388	0.386414
N84	N	1.732070	0.506388	0.636414
C85	C	0.982074	-0.336718	-0.113588
C86	C	1.232074	-0.086718	0.136412
C87	C	1.482074	0.163282	0.386412
C88	C	1.732074	0.413282	0.636412
C89	C	0.982081	-0.453523	-0.113582
C90	C	1.232081	-0.203523	0.136418
C91	C	1.482081	0.046477	0.386418
C92	C	1.732081	0.296477	0.636418
C93	C	0.982092	-0.546621	-0.113573
C94	C	1.232092	-0.296621	0.136427
C95	C	1.482092	-0.046621	0.386427
C96	C	1.732092	0.203379	0.636427
C97	C	0.982101	-0.663434	-0.113569
C98	C	1.232101	-0.413434	0.136431
C99	C	1.482101	-0.163434	0.386431
C100	C	1.732101	0.086566	0.636431
C101	C	1.134092	-0.000083	-0.107474
C102	C	1.384092	0.249917	0.142526
C103	C	1.634092	0.499917	0.392526
C104	C	1.884092	0.749917	0.642526
C105	C	1.226387	-0.000084	-0.109095
C106	C	1.476387	0.249916	0.140905
C107	C	1.726387	0.499916	0.390905
C108	C	1.976387	0.749916	0.640905
C109	C	0.988198	-0.000083	0.038430
C110	C	1.238198	0.249917	0.288430
C111	C	1.488198	0.499917	0.538430
C112	C	1.738198	0.749917	0.788430
C113	C	0.986583	-0.000085	0.130725
C114	C	1.236583	0.249915	0.380725
C115	C	1.486583	0.499915	0.630725
C116	C	1.736583	0.749915	0.880725
N117	N	0.982111	0.243468	-0.113559
N118	N	1.232111	0.493468	0.136441
N119	N	1.482111	0.743468	0.386441
N120	N	1.732111	0.993468	0.636441
C121	C	0.975976	-0.000058	-0.265581
C122	C	1.225976	0.249942	-0.015581
C123	C	1.475976	0.499942	0.234419
C124	C	1.725976	0.749942	0.484419
C125	C	0.977592	-0.000050	-0.357877
C126	C	1.227592	0.249950	-0.107877
C127	C	1.477592	0.499950	0.142123
C128	C	1.727592	0.749950	0.392123
C129	C	1.058590	-0.000075	0.352993
C130	C	1.308590	0.249925	0.602993
C131	C	1.558590	0.499925	0.852993
C132	C	1.808590	0.749925	1.102993
C133	C	1.057066	-0.000066	0.439713
C134	C	1.307066	0.249934	0.689713
C135	C	1.557066	0.499934	0.939713
C136	C	1.807066	0.749934	1.189713
C137	C	0.905579	-0.000057	0.419848
C138	C	1.155579	0.249943	0.669848
C139	C	1.405579	0.499943	0.919848
C140	C	1.655579	0.749943	1.169848
C141	C	0.907104	-0.000058	0.333130
C142	C	1.157104	0.249942	0.583130
C143	C	1.407104	0.499942	0.833130
C144	C	1.657104	0.749942	1.083130
C145	C	0.983612	-0.000072	0.299704
C146	C	1.233612	0.249928	0.549704
C147	C	1.483612	0.499928	0.799704
C148	C	1.733612	0.749928	1.049704
C149	C	0.980563	-0.000062	0.473144
C150	C	1.230563	0.249938	0.723144
C151	C	1.480563	0.499938	0.973144
C152	C	1.730563	0.749938	1.223144
C153	C	0.978910	-0.000053	0.567170
C154	C	1.228910	0.249947	0.817170
C155	C	1.478910	0.499947	1.067170
C156	C	1.728910	0.749947	1.317170
C157	C	0.985265	-0.000080	0.205672
C158	C	1.235265	0.249920	0.455672
C159	C	1.485265	0.499920	0.705672
C160	C	1.735265	0.749920	0.955672
H161	H	0.403423	0.169178	-0.112204
H162	H	0.653423	0.419178	0.137796
H163	H	0.903423	0.669178	0.387796
H164	H	1.153423	0.919178	0.637796
F165	F	1.140017	-0.000089	0.317422
F166	F	1.390017	0.249911	0.567422
F167	F	1.640017	0.499911	0.817422
F168	F	1.890017	0.749911	1.067422
F169	F	0.824158	-0.000041	0.455430
F170	F	1.074158	0.249959	0.705430
F171	F	1.324158	0.499959	0.955430
F172	F	1.574158	0.749959	1.205430
F173	F	1.136869	-0.000067	0.496424
F174	F	1.386869	0.249933	0.746424
F175	F	1.636869	0.499933	0.996424
F176	F	1.886869	0.749933	1.246424
F177	F	0.827297	-0.000048	0.276412
F178	F	1.077297	0.249952	0.526412
F179	F	1.327297	0.499952	0.776412
F180	F	1.577297	0.749952	1.026412
F181	F	0.571584	0.192513	-0.115143
F182	F	0.821584	0.442513	0.134857
F183	F	1.071584	0.692513	0.384857
F184	F	1.321584	0.942513	0.634857
H185	H	0.560759	-0.169310	-0.114946
H186	H	0.810759	0.080690	0.135054
H187	H	1.060759	0.330690	0.385054
H188	H	1.310759	0.580690	0.635054
H189	H	0.403425	-0.169334	-0.112187
H190	H	0.653425	0.080666	0.137813
H191	H	0.903425	0.330666	0.387813
H192	H	1.153425	0.580666	0.637813
