data_functionalizedCrystal
_audit_creation_method	'MofGen! by Chris Wilmer'
_symmetry_space_group_name_H-M	'P1'
_symmetry_Int_Tables_number	1
_symmetry_cell_setting	triclinic
loop_
_symmetry_equiv_pos_as_xyz
  x,y,z
_cell_length_a	20.919467
_cell_length_b	20.919286
_cell_length_c	14.560438
_cell_angle_alpha	93.156563
_cell_angle_beta	61.855082
_cell_angle_gamma	63.565673
loop_
_atom_site_label
_atom_site_type_symbol
_atom_site_fract_x
_atom_site_fract_y
_atom_site_fract_z
Zr1	Zr	0.664234	0.653233	-0.016378
O2	O	0.790831	0.557960	-0.160555
O3	O	0.537636	0.677618	0.020501
O4	O	0.664236	0.684568	-0.160548
O5	O	0.664230	0.551012	0.171635
O6	O	0.664238	0.789925	-0.152217
O7	O	0.664232	0.551009	0.020494
O8	O	0.437774	0.777491	0.171648
O9	O	0.890694	0.563445	-0.152230
O10	O	0.589709	0.772470	0.051290
O11	O	0.589706	0.693845	0.157867
O12	O	0.738761	0.702029	-0.055295
O13	O	0.738759	0.623404	0.051282
Zr14	Zr	0.664234	0.821269	0.237962
Zr15	Zr	0.664237	0.821265	-0.003090
Zr16	Zr	0.664231	0.653238	0.224674
Zr17	Zr	0.823503	0.661982	-0.003099
Zr18	Zr	0.504965	0.812521	0.224683
O19	O	0.790831	0.796885	0.201083
O20	O	0.790835	0.796879	-0.141662
O21	O	0.790828	0.557966	0.182190
O22	O	0.537636	0.916543	0.382139
O23	O	0.537640	0.916537	0.039394
O24	O	0.537632	0.677624	0.363246
O25	O	0.664238	0.923491	0.049949
O26	O	0.664232	0.789934	0.382132
O27	O	0.664230	0.684578	0.373801
O28	O	0.664236	0.923494	0.201090
O29	O	0.890696	0.697008	-0.141668
O30	O	0.437772	0.777495	0.363252
O31	O	0.437774	0.911057	0.373814
O32	O	0.437776	0.911054	0.182209
O33	O	0.890692	0.563448	0.039375
O34	O	0.890694	0.697011	0.049936
O35	O	0.589706	0.772474	0.276879
O36	O	0.589709	0.851098	0.170302
O37	O	0.738761	0.780657	0.063717
O38	O	0.738759	0.702033	0.170294
C39	C	0.465012	0.726308	0.094183
C40	C	0.397399	0.722594	0.088545
C41	C	0.310613	0.775856	0.169157
C42	C	0.247101	0.772332	0.163852
C43	C	0.270378	0.715549	0.077929
C44	C	0.357172	0.662282	-0.002687
C45	C	0.420682	0.665803	0.002624
C46	C	0.081373	0.702162	0.057733
C47	C	0.017855	0.698646	0.052427
C48	C	-0.092212	0.808697	0.218968
C49	C	-0.028696	0.812215	0.224267
C50	C	0.058093	0.758946	0.143654
C51	C	0.205460	0.711947	0.072502
C52	C	0.123008	0.762545	0.149086
C53	C	0.664230	0.527069	0.094172
C54	C	0.664229	0.455736	0.088531
C55	C	0.664241	0.052277	0.052437
C56	C	0.664244	0.119302	0.057738
C57	C	0.664238	0.152819	0.143661
C58	C	0.664238	0.119303	0.224281
C59	C	0.664241	0.052276	0.218975
C60	C	0.664233	0.355193	0.163845
C61	C	0.664227	0.422226	0.169147
C62	C	0.664234	0.422219	0.002602
C63	C	0.664233	0.355194	-0.002693
C64	C	0.664237	0.321682	0.077924
C65	C	0.664238	0.221330	0.149083
C66	C	0.664243	0.253169	0.072496
C67	C	0.863455	0.748194	0.127402
C68	C	0.931069	0.751908	0.133039
C69	C	0.664237	0.737246	-0.190728
C70	C	0.664238	0.737244	-0.293061
C71	C	0.664237	0.947433	0.127413
C72	C	0.664238	1.018767	0.133053
C73	C	0.742041	0.700476	-0.396773
C74	C	0.742037	0.700485	-0.492922
C75	C	0.586421	0.774032	-0.381631
C76	C	0.586426	0.774027	-0.285485
C77	C	0.664230	0.737256	0.412312
C78	C	0.664229	0.737258	0.514645
C79	C	0.465016	0.936490	0.110803
C80	C	0.397403	1.004110	0.110807
C81	C	0.465009	0.726313	0.395702
C82	C	0.397394	0.722601	0.492398
C83	C	0.465013	0.936495	0.412323
C84	C	0.397399	1.004117	0.514659
C85	C	0.863455	0.538007	-0.190739
C86	C	0.931069	0.470386	-0.293075
C87	C	0.863452	0.538012	0.110781
C88	C	0.931064	0.470393	0.110777
C89	C	0.863458	0.748189	-0.174118
C90	C	0.931073	0.751901	-0.270814
C91	C	0.365652	0.994822	0.048675
C92	C	0.302131	1.058352	0.048656
C93	C	0.270359	1.131169	0.110776
C94	C	0.302117	1.140456	0.172910
C95	C	0.365641	1.076927	0.172922
C96	C	0.365641	0.761901	0.599941
C97	C	0.302119	0.758410	0.690806
C98	C	0.270346	0.715624	0.674127
C99	C	0.302105	0.676319	0.566573
C100	C	0.365630	0.679806	0.475710
C101	C	0.365648	1.076921	0.507086
C102	C	0.302126	1.140465	0.603234
C103	C	0.270352	1.131204	0.706954
C104	C	0.302110	1.058392	0.714525
C105	C	0.365634	0.994850	0.618379
C106	C	0.962827	0.397582	-0.285501
C107	C	1.026369	0.334039	-0.381648
C108	C	1.058146	0.343300	-0.485368
C109	C	1.026385	0.416112	-0.492939
C110	C	0.962849	0.479654	-0.396793
C111	C	0.962823	0.479681	0.172899
C112	C	1.026361	0.416152	0.172893
C113	C	1.058135	0.343335	0.110770
C114	C	1.026374	0.334048	0.048641
C115	C	0.962841	0.397576	0.048642
C116	C	0.962826	0.794695	-0.254100
C117	C	1.026350	0.798198	-0.344946
C118	C	1.058123	0.758902	-0.452506
C119	C	1.026364	0.716107	-0.469218
C120	C	0.962837	0.712609	-0.378373
H121	H	0.176437	0.815704	0.229495
H122	H	0.276276	1.199746	0.597050
H123	H	0.218626	1.182951	0.785235
N124	N	0.664151	0.456530	0.256943
N125	N	0.724254	0.465576	0.235539
H126	H	0.724167	0.489832	0.297557
H127	H	1.109867	0.291612	0.110779
H128	H	0.491348	0.622424	-0.063010
N129	N	0.269636	1.048952	0.820485
N130	N	0.212912	1.105698	0.906312
H131	H	0.189970	1.099034	0.981149
N132	N	0.398053	0.920489	0.626143
N133	N	0.369669	0.912239	0.718762
H134	H	0.392561	0.859722	0.724255
H135	H	0.391475	0.647805	0.388147
H136	H	0.936958	0.390026	-0.201057
N137	N	1.058795	0.259676	-0.373879
N138	N	1.030403	0.251424	-0.281262
H139	H	1.053301	0.198906	-0.275771
N140	N	0.664231	0.456441	-0.079751
N141	N	0.664232	0.426509	-0.156457
H142	H	0.664228	0.450678	-0.214623
N143	N	0.286848	0.833859	0.256912
N144	N	0.310000	0.879837	0.235432
H145	H	0.293215	0.920802	0.297411
H146	H	1.109881	0.291554	-0.563647
H147	H	1.052266	0.423644	-0.577399
N148	N	0.930413	0.388068	-0.014823
N149	N	0.958795	0.323046	-0.070279
H150	H	0.935896	0.316325	-0.115106
N151	N	0.398082	1.086406	0.401155
N152	N	0.369717	1.151421	0.394430
H153	H	0.392622	1.158127	0.319619
H154	H	0.664234	0.327914	0.229488
H155	H	0.936992	0.538932	-0.402973
N156	N	0.930381	0.554052	0.236371
N157	N	0.958758	0.562321	0.291823
H158	H	0.935853	0.614844	0.336651
N159	N	0.506940	0.811598	-0.179543
N160	N	0.437472	0.844433	-0.172793
H161	H	0.381337	0.870971	-0.097973
H162	H	1.052210	0.423729	0.223490
N163	N	-0.052490	0.870223	0.312043
N164	N	-0.129983	0.917774	0.384015
H165	H	-0.146789	0.958744	0.446008
N166	N	1.058847	0.259659	-0.014810
N167	N	1.115569	0.202950	-0.014787
H168	H	1.138503	0.150411	-0.059595
H169	H	0.664241	0.024994	-0.017526
N170	N	0.398088	0.920444	-0.014765
N171	N	0.348447	0.897723	0.004476
H172	H	0.371353	0.845194	-0.040333
H173	H	0.936966	0.826694	-0.166527
H174	H	1.052201	0.833045	-0.331316
N175	N	0.821513	0.662923	-0.404488
N176	N	0.821510	0.662924	-0.318638
H177	H	0.877639	0.636403	-0.324088
N178	N	-0.180866	0.863102	0.301296
N179	N	-0.237565	0.859955	0.296547
H180	H	-0.300180	0.898380	0.354695
H181	H	0.218633	1.182892	0.110758
H182	H	0.036818	0.652406	-0.017548
H183	H	1.109850	0.761757	-0.526468
N184	N	1.058831	0.675977	-0.579098
N185	N	1.115554	0.679110	-0.660190
H186	H	1.138490	0.650765	-0.737797
N187	N	0.821503	0.662914	-0.598872
N188	N	0.821491	0.662918	-0.684711
H189	H	0.877617	0.636379	-0.759542
H190	H	0.104060	0.808775	0.219047
N191	N	0.170014	0.647735	-0.024604
N192	N	0.190781	0.597036	-0.101306
H193	H	0.253389	0.558591	-0.159458
H194	H	0.936991	0.677759	-0.391998
N195	N	0.664228	0.153546	0.312047
N196	N	0.724377	0.162533	0.290587
H197	H	0.724362	0.186724	0.352578
N198	N	0.380937	0.604279	-0.090443
N199	N	0.324226	0.601143	-0.095176
H200	H	0.341011	0.560179	-0.157157
H201	H	0.224405	0.665715	0.002544
H202	H	0.664237	0.327906	-0.072658
N203	N	0.664278	0.153506	-0.024641
N204	N	0.664298	0.123566	-0.101362
H205	H	0.664335	0.147716	-0.159556
H206	H	0.664241	0.024992	0.284620
H207	H	0.523069	0.803978	-0.375477
H208	H	0.664231	0.248626	0.219045
N209	N	0.664238	0.218930	-0.015253
N210	N	0.604073	0.209959	0.006243
H211	H	0.604065	0.185775	-0.055727
H212	H	0.276281	1.050775	-0.001940
N213	N	0.269647	1.214845	0.236356
N214	N	0.212925	1.271554	0.236333
H215	H	0.189987	1.324093	0.281147
H216	H	0.391504	0.796742	0.613543
N217	N	0.398078	1.086407	0.236388
N218	N	0.476069	1.062455	0.189428
H219	H	0.498978	1.069154	0.234252
N220	N	0.269696	0.798566	0.800653
N221	N	0.298069	0.836771	0.815520
H222	H	0.275173	0.865132	0.893097
N223	N	0.205457	0.712072	0.766960
N224	N	0.177118	0.747170	0.862973
H225	H	0.131289	0.744666	0.928542
H226	H	0.276226	0.641483	0.553009
