data_functionalizedCrystal
_audit_creation_method	'MofGen! by Chris Wilmer'
_symmetry_space_group_name_H-M	'P1'
_symmetry_Int_Tables_number	1
_symmetry_cell_setting	triclinic
loop_
_symmetry_equiv_pos_as_xyz
  x,y,z
_cell_length_a	12.759401
_cell_length_b	15.299816
_cell_length_c	12.759393
_cell_angle_alpha	80.349878
_cell_angle_beta	90.018496
_cell_angle_gamma	80.350473
loop_
_atom_site_label
_atom_site_type_symbol
_atom_site_fract_x
_atom_site_fract_y
_atom_site_fract_z
Zn1	Zn	1.678544	-0.358997	0.666396
Zn2	Zn	1.708812	-0.509841	0.521143
Zn3	Zn	1.502855	-0.359045	0.490745
Zn4	Zn	1.533194	-0.509771	0.696771
O5	O	1.605851	-0.434413	0.593764
O6	O	1.829582	-0.379016	0.647138
O7	O	1.681462	-0.489886	0.370100
O8	O	1.500796	-0.232830	0.488612
O9	O	1.851820	-0.489840	0.540421
O10	O	1.629874	-0.232796	0.617662
O11	O	1.530146	-0.379097	0.347766
O12	O	1.359857	-0.379030	0.518065
O13	O	1.552505	-0.489722	0.839753
O14	O	1.382147	-0.489768	0.669431
O15	O	1.659292	-0.378949	0.817437
O16	O	1.710881	-0.636039	0.569874
O17	O	1.581855	-0.635988	0.698907
C18	C	1.332881	-0.434397	0.593746
C19	C	1.216107	-0.434411	0.593768
C20	C	1.172898	-0.492165	0.672492
C21	C	1.063176	-0.492177	0.672506
C22	C	1.039882	-0.376678	0.515062
C23	C	1.149601	-0.376663	0.515054
C24	C	1.239403	-0.549914	0.751206
C25	C	1.196195	-0.607673	0.829936
C26	C	1.086473	-0.607684	0.829950
C27	C	1.019960	-0.549937	0.751234
C28	C	1.652973	-0.668738	0.641008
C29	C	1.673228	-0.768983	0.661255
C30	C	1.461775	-1.051929	0.449415
C31	C	1.442739	-0.957743	0.430395
C32	C	1.500360	-0.910549	0.488108
C33	C	1.577019	-0.957549	0.564845
C34	C	1.596051	-1.051743	0.583873
C35	C	1.634636	-0.910363	0.622566
C36	C	1.711296	-0.957363	0.699303
C37	C	1.730325	-1.051548	0.718327
C38	C	1.672704	-1.098743	0.660614
C39	C	1.615604	-0.816169	0.603538
C40	C	1.749881	-0.815983	0.737996
C41	C	1.768917	-0.910169	0.757016
C42	C	1.879888	-0.434431	0.593782
C43	C	1.996666	-0.434438	0.593790
C44	C	1.605907	-0.434322	0.867779
C45	C	1.605930	-0.434284	0.984548
C46	C	1.558574	-0.199174	0.546358
C47	C	1.538428	-0.098928	0.526156
C48	C	1.605844	-0.434439	0.320802
C49	C	1.605973	-0.434224	0.203982
C50	C	1.661543	-0.376599	1.027790
C51	C	1.661561	-0.376566	1.137508
C52	C	1.550353	-0.491911	1.160732
C53	C	1.550329	-0.491939	1.051016
C54	C	1.717144	-0.318944	0.961323
C55	C	1.772761	-0.261255	1.004564
C56	C	1.772780	-0.261222	1.114282
C57	C	1.717180	-0.318879	1.180758
H58	H	1.051295	-0.654708	0.894061
O59	O	0.913398	-0.550060	0.751402
C60	C	0.889512	-0.613384	0.837799
H61	H	0.963336	-0.666110	0.863008
H62	H	0.862947	-0.577694	0.907290
C63	C	0.708908	-0.594785	0.773287
C64	C	0.799578	-0.659548	0.804244
H65	H	0.653429	-0.623258	0.752592
H66	H	0.724999	-0.552119	0.715082
H67	H	0.686785	-0.565048	0.831202
H68	H	0.821707	-0.689275	0.746326
H69	H	0.783489	-0.702219	0.862440
O70	O	1.260956	-0.663734	0.906294
C71	C	1.367061	-0.651326	0.889420
H72	H	1.376054	-0.621705	0.802423
H73	H	1.388572	-0.603357	0.942156
C74	C	1.430713	-0.778964	1.024118
C75	C	1.441760	-0.742590	0.917265
H76	H	1.476792	-0.835259	1.041298
H77	H	1.359228	-0.787322	1.035490
H78	H	1.448637	-0.738982	1.068052
H79	H	1.423823	-0.782567	0.873333
H80	H	1.513245	-0.734241	0.905886
H81	H	1.818058	-0.214243	1.149485
H82	H	1.688203	-1.175436	0.676092
O83	O	0.975295	-0.320465	0.438683
C84	C	0.984040	-0.230594	0.443672
H85	H	1.013334	-0.226115	0.526707
H86	H	1.042947	-0.206951	0.382617
C87	C	0.838470	-0.175913	0.317445
C88	C	0.874440	-0.170410	0.419433
H89	H	0.770866	-0.138787	0.302488
H90	H	0.832581	-0.236460	0.314080
H91	H	0.887569	-0.156212	0.266578
H92	H	0.825349	-0.190121	0.470299
H93	H	0.880319	-0.109864	0.422806
O94	O	1.368159	-0.912193	0.355924
C95	C	1.268092	-0.935254	0.383467
H96	H	1.279705	-1.003614	0.437665
H97	H	1.221960	-0.882230	0.426737
C98	C	1.191152	-0.855767	0.215324
C99	C	1.205415	-0.939731	0.281884
H100	H	1.152486	-0.858525	0.152664
H101	H	1.258567	-0.840227	0.196768
H102	H	1.152711	-0.811589	0.251395
H103	H	1.243866	-0.983905	0.245818
H104	H	1.138005	-0.955279	0.300432
O105	O	1.191560	-0.320667	0.438447
C106	C	1.168638	-0.340263	0.337651
H107	H	1.152962	-0.412309	0.346739
H108	H	1.095212	-0.291886	0.300522
C109	C	1.283214	-0.241210	0.254261
C110	C	1.263970	-0.329701	0.265423
H111	H	1.342016	-0.234691	0.209706
H112	H	1.298655	-0.228004	0.322169
H113	H	1.222018	-0.200906	0.223325
H114	H	1.325160	-0.370003	0.296371
H115	H	1.248542	-0.342914	0.197519
H116	H	1.792742	-1.089813	0.780816
O117	O	1.541020	-0.770618	0.529070
C118	C	1.440956	-0.793680	0.556622
H119	H	1.452573	-0.862040	0.610819
H120	H	1.394828	-0.740657	0.599896
C121	C	1.364002	-0.714191	0.388485
C122	C	1.378271	-0.798156	0.455043
H123	H	1.325332	-0.716948	0.325827
H124	H	1.431416	-0.698650	0.369924
H125	H	1.325566	-0.670014	0.424559
H126	H	1.416718	-0.842328	0.418974
H127	H	1.310861	-0.813704	0.473596
H128	H	1.328746	-0.549913	0.751202
H129	H	1.484857	-0.833859	0.472616
O130	O	1.843230	-0.955874	0.831682
C131	C	1.794381	-1.010371	0.910470
H132	H	1.705909	-0.982034	0.911166
H133	H	1.805197	-1.081776	0.892397
C134	C	1.954583	-1.046527	1.019152
C135	C	1.845922	-1.011719	1.020013
H136	H	1.986378	-1.047363	1.086723
H137	H	1.987496	-1.009814	0.966070
H138	H	1.963582	-1.106029	1.004086
H139	H	1.836925	-0.952215	1.035066
H140	H	1.813009	-1.048422	1.073101
H141	H	1.818021	-0.214308	0.950432
H142	H	1.414864	-1.090363	0.402439
O143	O	1.805923	-0.770288	0.794190
C144	C	1.877676	-0.831967	0.865987
H145	H	1.848214	-0.899138	0.883159
H146	H	1.959507	-0.841952	0.829599
C147	C	1.921498	-0.712616	0.949281
C148	C	1.885307	-0.795114	0.970379
H149	H	1.926211	-0.689883	1.013674
H150	H	1.873160	-0.671061	0.900908
H151	H	1.989687	-0.720948	0.918956
H152	H	1.817115	-0.786779	1.000692
H153	H	1.933635	-0.836667	1.018761
H154	H	1.717137	-0.318966	0.871984
H155	H	1.717185	-0.318837	1.270094
H156	H	1.505086	-0.538852	1.214865
H157	H	1.505026	-0.538897	1.015805
