data_functionalizedCrystal
_audit_creation_method	'MofGen! by Chris Wilmer'
_symmetry_space_group_name_H-M	'P1'
_symmetry_Int_Tables_number	1
_symmetry_cell_setting	triclinic
loop_
_symmetry_equiv_pos_as_xyz
  x,y,z
_cell_length_a	11.169417
_cell_length_b	13.897448
_cell_length_c	11.169409
_cell_angle_alpha	89.964482
_cell_angle_beta	89.979436
_cell_angle_gamma	90.018571
loop_
_atom_site_label
_atom_site_type_symbol
_atom_site_fract_x
_atom_site_fract_y
_atom_site_fract_z
Zn1	Zn	1.834910	-0.383915	-0.678516
Zn2	Zn	1.834771	-0.545250	-0.477821
Zn3	Zn	1.634193	-0.383973	-0.477850
Zn4	Zn	1.634177	-0.545172	-0.678466
O5	O	1.734513	-0.464578	-0.578163
O6	O	2.002841	-0.405324	-0.651902
O7	O	1.808112	-0.523914	-0.309875
O8	O	1.660883	-0.248984	-0.504502
O9	O	2.002739	-0.523857	-0.504453
O10	O	1.808349	-0.248941	-0.651930
O11	O	1.660749	-0.405424	-0.309896
O12	O	1.466241	-0.405348	-0.504454
O13	O	1.660857	-0.523723	-0.846423
O14	O	1.466230	-0.523780	-0.651845
O15	O	1.808334	-0.405249	-0.846459
O16	O	1.808097	-0.680222	-0.504404
O17	O	1.660722	-0.680164	-0.651817
C18	C	1.422688	-0.464563	-0.578148
C19	C	1.289288	-0.464580	-0.578170
C20	C	1.734425	-0.715192	-0.578129
C21	C	1.734497	-0.822406	-0.578154
C22	C	1.734624	-1.018701	-0.578229
C23	C	1.734550	-0.909468	-0.578191
C24	C	2.047555	-0.464593	-0.578180
C25	C	2.180955	-0.464600	-0.578186
C26	C	1.734609	-0.464471	-0.891206
C27	C	1.734650	-0.464425	-1.024606
C28	C	1.734633	-0.212985	-0.578224
C29	C	1.734685	-0.105771	-0.578251
C30	C	1.734486	-0.464614	-0.266339
C31	C	1.734678	-0.464388	-0.132939
