data_functionalizedCrystal
_audit_creation_method	'MofGen! by Chris Wilmer'
_symmetry_space_group_name_H-M	'P1'
_symmetry_Int_Tables_number	1
_symmetry_cell_setting	triclinic
loop_
_symmetry_equiv_pos_as_xyz
  x,y,z
_cell_length_a	18.215407
_cell_length_b	15.297327
_cell_length_c	15.298025
_cell_angle_alpha	88.388309
_cell_angle_beta	99.686858
_cell_angle_gamma	99.707397
loop_
_atom_site_label
_atom_site_type_symbol
_atom_site_fract_x
_atom_site_fract_y
_atom_site_fract_z
Zn1	Zn	1.166312	-0.263174	0.555647
Zn2	Zn	1.666312	0.236826	1.055647
Zn3	Zn	1.124869	-0.434976	0.434496
Zn4	Zn	1.624869	0.065024	0.934496
Zn5	Zn	1.019001	-0.288507	0.409177
Zn6	Zn	1.519001	0.211493	0.909177
Zn7	Zn	1.026099	-0.409628	0.580930
Zn8	Zn	1.526099	0.090372	1.080930
O9	O	1.084070	-0.349071	0.495062
O10	O	1.584070	0.150929	0.995062
O11	O	1.263800	-0.285970	0.539592
O12	O	1.763800	0.214030	1.039592
O13	O	1.090511	-0.436757	0.308556
O14	O	1.590511	0.063243	0.808556
O15	O	1.052916	-0.162557	0.407430
O16	O	1.552916	0.337443	0.907430
O17	O	1.233352	-0.412192	0.450582
O18	O	1.733352	0.087808	0.950582
O19	O	1.161144	-0.143945	0.515041
O20	O	1.661144	0.356055	1.015041
O21	O	1.012730	-0.329147	0.289954
O22	O	1.512730	0.170853	0.789954
O23	O	0.916957	-0.304568	0.431945
O24	O	1.416957	0.195432	0.931945
O25	O	1.065013	-0.368990	0.700158
O26	O	1.565013	0.131010	1.200158
O27	O	0.922172	-0.393555	0.558131
O28	O	1.422172	0.106445	1.058131
O29	O	1.168027	-0.261391	0.681583
O30	O	1.668027	0.238609	1.181583
O31	O	1.097393	-0.554203	0.475097
O32	O	1.597393	-0.054203	0.975097
O33	O	1.024827	-0.535580	0.582682
O34	O	1.524827	-0.035580	1.082682
C35	C	0.892861	-0.349060	0.495035
C36	C	1.392861	0.150940	0.995035
C37	C	0.811063	-0.349073	0.495047
C38	C	1.311063	0.150927	0.995047
C39	C	0.625581	-0.395509	0.560697
C40	C	1.125581	0.104491	1.060697
C41	C	0.548724	-0.395510	0.560709
C42	C	1.048724	0.104490	1.060709
C43	C	0.543312	-0.302646	0.429449
C44	C	1.043312	0.197354	0.929449
C45	C	0.620170	-0.302640	0.429442
C46	C	1.120170	0.197360	0.929442
C47	C	0.661301	-0.349077	0.495066
C48	C	1.161301	0.150923	0.995066
C49	C	0.507587	-0.349083	0.495084
C50	C	1.007587	0.150917	0.995084
C51	C	0.424255	-0.349084	0.495096
C52	C	0.924255	0.150916	0.995096
C53	C	0.744639	-0.349075	0.495055
C54	C	1.244639	0.150925	0.995055
C55	C	1.057406	-0.576674	0.534400
C56	C	1.557406	-0.076674	1.034400
C57	C	1.046072	-0.674038	0.551258
C58	C	1.546072	-0.174038	1.051258
C59	C	1.165434	-0.987124	0.374875
C60	C	1.665434	-0.487124	0.874875
C61	C	1.176082	-0.895646	0.359032
C62	C	1.676082	-0.395646	0.859032
C63	C	1.143581	-0.840240	0.407087
C64	C	1.643581	-0.340240	0.907087
C65	C	1.100429	-0.876320	0.470988
C66	C	1.600429	-0.376320	0.970988
C67	C	1.089774	-0.967808	0.486828
C68	C	1.589774	-0.467808	0.986828
C69	C	1.067921	-0.820923	0.519040
C70	C	1.567921	-0.320923	1.019040
C71	C	1.024769	-0.857004	0.582941
C72	C	1.524769	-0.357004	1.082941
C73	C	1.014117	-0.948483	0.598779
C74	C	1.514117	-0.448483	1.098779
C75	C	1.046618	-1.003889	0.550723
C76	C	1.546618	-0.503889	1.050723
C77	C	1.078576	-0.729436	0.503200
C78	C	1.578576	-0.229436	1.003200
C79	C	1.002916	-0.710119	0.615153
C80	C	1.502916	-0.210119	1.115153
C81	C	0.992267	-0.801597	0.630996
C82	C	1.492267	-0.301597	1.130996
C83	C	1.276025	-0.349082	0.495091
C84	C	1.776025	0.150918	0.995091
C85	C	1.357825	-0.349087	0.495103
C86	C	1.857825	0.150913	0.995103
C87	C	1.121934	-0.309537	0.723543
C88	C	1.621934	0.190463	1.223543
C89	C	1.138070	-0.292690	0.820908
C90	C	1.638070	0.207310	1.320908
C91	C	1.110861	-0.120576	0.455591
C92	C	1.610861	0.379424	0.955591
C93	C	1.122278	-0.023205	0.438770
C94	C	1.622278	0.476795	0.938770
C95	C	1.199285	-0.228752	0.856975
C96	C	1.699285	0.271248	1.356975
C97	C	1.214440	-0.212912	0.948453
C98	C	1.714440	0.287088	1.448453
C99	C	1.168385	-0.261014	1.003871
C100	C	1.668385	0.238986	1.503871
C101	C	1.107172	-0.324958	0.967804
C102	C	1.607172	0.175042	1.467804
C103	C	1.092012	-0.340794	0.876318
C104	C	1.592012	0.159206	1.376318
C105	C	1.061112	-0.373056	1.023214
C106	C	1.561112	0.126944	1.523214
C107	C	0.999899	-0.437000	0.987147
C108	C	1.499899	0.063000	1.487147
C109	C	0.984742	-0.452834	0.895669
C110	C	1.484742	0.047166	1.395669
C111	C	1.030797	-0.404733	0.840250
C112	C	1.530797	0.095267	1.340250
C113	C	1.076272	-0.357219	1.114700
C114	C	1.576272	0.142781	1.614700
C115	C	0.968999	-0.469262	1.134042
C116	C	1.468999	0.030738	1.634042
C117	C	0.953844	-0.485102	1.042565
C118	C	1.453844	0.014898	1.542565
C119	C	1.046347	-0.388472	1.267474
C120	C	1.546347	0.111528	1.767474
C121	C	1.030214	-0.405323	1.170110
C122	C	1.530214	0.094677	1.670110
H123	H	1.113710	-0.700068	0.451171
H124	H	1.613710	-0.200068	0.951171
H125	H	1.211216	-0.866273	0.307003
H126	H	1.711216	-0.366273	0.807003
H127	H	0.659069	-0.433319	0.614134
H128	H	1.159069	0.066681	1.114134
Br129	Br	1.261755	-0.163445	0.781757
Br130	Br	1.761755	0.336555	1.281757
H131	H	0.976448	-0.665008	0.654282
H132	H	1.476448	-0.165008	1.154282
Br133	Br	1.159342	-0.270438	1.163637
Br134	Br	1.659342	0.229562	1.663637
Br135	Br	1.031774	-1.128110	0.571830
Br136	Br	1.531774	-0.628110	1.071830
H137	H	0.509814	-0.264840	0.376020
H138	H	1.009814	0.235160	0.876020
H139	H	0.519645	-0.433318	0.614153
H140	H	1.019645	0.066682	1.114153
Br141	Br	1.297536	-0.126169	0.997401
Br142	Br	1.797536	0.373831	1.497401
H143	H	0.649254	-0.264824	0.375996
H144	H	1.149254	0.235176	0.875996
Br145	Br	1.158299	-0.716044	0.385850
Br146	Br	1.658299	-0.216044	0.885850
Br147	Br	1.010234	-0.426232	0.716097
Br148	Br	1.510234	0.073768	1.216097
Br149	Br	1.209533	-1.062321	0.309661
Br150	Br	1.709533	-0.562321	0.809661
Br151	Br	0.901656	-0.539600	0.846719
Br152	Br	1.401656	-0.039600	1.346719
Br153	Br	0.955547	-0.997448	0.685495
Br154	Br	1.455547	-0.497448	1.185495
Br155	Br	0.870771	-0.571880	0.993607
Br156	Br	1.370771	-0.071880	1.493607
Br157	Br	0.906487	-0.534540	1.209245
Br158	Br	1.406487	-0.034540	1.709245
Br159	Br	0.933707	-0.850574	0.717718
Br160	Br	1.433707	-0.350574	1.217718
H161	H	1.180727	-0.248112	1.078355
H162	H	1.680727	0.251888	1.578355
