data_functionalizedCrystal
_audit_creation_method	'MofGen! by Chris Wilmer'
_symmetry_space_group_name_H-M	'P1'
_symmetry_Int_Tables_number	1
_symmetry_cell_setting	triclinic
loop_
_symmetry_equiv_pos_as_xyz
  x,y,z
_cell_length_a	29.839131
_cell_length_b	14.908932
_cell_length_c	14.908308
_cell_angle_alpha	83.630060
_cell_angle_beta	93.261283
_cell_angle_gamma	86.658579
loop_
_atom_site_label
_atom_site_type_symbol
_atom_site_fract_x
_atom_site_fract_y
_atom_site_fract_z
Zn1	Zn	-0.152337	-1.354128	-0.432051
Zn2	Zn	-0.222873	-1.362714	-0.280691
Zn3	Zn	-0.152356	-1.211501	-0.289427
Zn4	Zn	-0.232043	-1.202678	-0.440718
O5	O	-0.189902	-1.282755	-0.360722
O6	O	-0.157848	-1.481932	-0.404690
O7	O	-0.209689	-1.349941	-0.155189
O8	O	-0.089484	-1.230520	-0.308376
O9	O	-0.209671	-1.488240	-0.293486
O10	O	-0.089470	-1.335308	-0.413161
O11	O	-0.157880	-1.238846	-0.161608
O12	O	-0.166772	-1.083666	-0.316780
O13	O	-0.225299	-1.215483	-0.566229
O14	O	-0.225318	-1.077183	-0.427933
O15	O	-0.166739	-1.326752	-0.559862
O16	O	-0.286959	-1.341386	-0.301890
O17	O	-0.293696	-1.223808	-0.419461
C18	C	-0.197042	-1.047582	-0.374245
C19	C	-0.200108	-0.946972	-0.380052
C20	C	-0.234952	-0.801822	-0.446004
C21	C	-0.232071	-0.896353	-0.440555
C22	C	-0.171024	-0.903053	-0.324991
C23	C	-0.173904	-0.808522	-0.330439
C24	C	-0.205869	-0.757909	-0.390948
C25	C	-0.208747	-0.663376	-0.396401
C26	C	-0.147702	-0.670078	-0.280832
C27	C	-0.144822	-0.764609	-0.275384
C28	C	-0.306628	-1.282595	-0.360687
C29	C	-0.356563	-1.282607	-0.360697
C30	C	-0.662681	-1.344078	-0.299581
C31	C	-0.850352	-1.344188	-0.299610
O32	O	-0.871623	-1.396326	-0.247620
N33	N	-0.877340	-1.282939	-0.360779
C34	C	-0.857409	-1.221662	-0.421950
O35	O	-0.884670	-1.169575	-0.473986
C36	C	-0.669739	-1.221558	-0.421925
C37	C	-0.642752	-1.282805	-0.360745
C38	C	-0.635695	-1.405321	-0.238407
C39	C	-0.588780	-1.405290	-0.238397
C40	C	-0.568852	-1.344016	-0.299561
C41	C	-0.595838	-1.282773	-0.360736
C42	C	-0.649808	-1.160286	-0.483099
C43	C	-0.602887	-1.160267	-0.483089
C44	C	-0.575901	-1.221514	-0.421910
C45	C	-0.528994	-1.221468	-0.421890
N46	N	-0.502005	-1.282717	-0.360720
C47	C	-0.521934	-1.343991	-0.299556
C48	C	-0.955938	-1.221720	-0.421958
C49	C	-1.002855	-1.221745	-0.421963
C50	C	-0.995795	-1.344273	-0.299624
C51	C	-0.948877	-1.344243	-0.299615
C52	C	-0.928949	-1.282969	-0.360788
C53	C	-0.423410	-1.343920	-0.299540
C54	C	-0.376491	-1.343881	-0.299533
C55	C	-0.383555	-1.221357	-0.421875
C56	C	-0.430470	-1.221393	-0.421879
C57	C	-0.450396	-1.282682	-0.360708
O58	O	-0.507693	-1.169364	-0.473859
O59	O	-0.494665	-1.396084	-0.247542
C60	C	-0.709596	-1.344110	-0.299591
C61	C	-0.736582	-1.282867	-0.360765
C62	C	-0.716653	-1.221593	-0.421929
C63	C	-0.783499	-1.282892	-0.360770
C64	C	-0.803428	-1.344166	-0.299606
C65	C	-0.776440	-1.405415	-0.238437
C66	C	-0.729525	-1.405384	-0.238427
C67	C	-0.743642	-1.160344	-0.483099
C68	C	-0.790556	-1.160380	-0.483103
C69	C	-0.810485	-1.221654	-0.421939
C70	C	-0.072720	-1.282940	-0.360776
C71	C	-0.022784	-1.283019	-0.360799
C72	C	-0.197040	-1.269175	-0.596805
C73	C	-0.200082	-1.263388	-0.697410
C74	C	-0.182730	-0.518848	-0.347141
C75	C	-0.179663	-0.619457	-0.341339
C76	C	-0.144809	-1.368376	-0.879828
C77	C	-0.147665	-1.362942	-0.974355
C78	C	-0.208648	-1.247081	-0.980992
C79	C	-0.205792	-1.252515	-0.886466
C80	C	-0.173872	-1.313166	-0.835886
C81	C	-0.171018	-1.318605	-0.741358
C82	C	-0.231998	-1.202740	-0.747997
C83	C	-0.234855	-1.197305	-0.842524
C84	C	-0.182758	-1.296335	-0.125554
C85	C	-0.179584	-1.302297	-0.024940
H86	H	-0.354520	-1.393755	-0.249710
H87	H	-0.255754	-0.932103	-0.485387
H88	H	-0.145003	-0.944278	-0.275720
O89	O	-0.113785	-0.813912	-0.216687
C90	C	-0.082309	-0.962513	-0.157039
C91	C	-0.117473	-0.906790	-0.223565
H92	H	-0.085286	-1.037617	-0.162563
H93	H	-0.047134	-0.943118	-0.174137
H94	H	-0.088496	-0.948051	-0.085111
H95	H	-0.111328	-0.921223	-0.295516
H96	H	-0.152636	-0.926195	-0.206388
H97	H	-0.118820	-1.417765	-0.838645
H98	H	-0.260975	-0.760612	-0.495280
H99	H	-0.255665	-1.157786	-0.712210
H100	H	-0.234636	-1.197702	-1.022190
H101	H	-0.260843	-1.147923	-0.883718
O102	O	-1.029113	-1.162367	-0.481425
C103	C	-1.086110	-1.143089	-0.604380
C104	C	-1.056409	-1.210430	-0.537069
H105	H	-1.108179	-1.181921	-0.649398
H106	H	-1.108318	-1.098204	-0.565565
H107	H	-1.063792	-1.099279	-0.648052
H108	H	-1.078692	-1.254300	-0.493380
H109	H	-1.034197	-1.255253	-0.575939
H110	H	-0.651916	-1.455222	-0.188599
H111	H	-0.124019	-0.634314	-0.236005
O112	O	-0.936636	-1.162225	-0.481504
C113	C	-0.928261	-1.109314	-0.637963
C114	C	-0.950154	-1.176733	-0.570632
H115	H	-0.939175	-1.121032	-0.710039
H116	H	-0.939277	-1.037249	-0.626271
H117	H	-0.890093	-1.119790	-0.627419
H118	H	-0.988325	-1.166339	-0.581137
H119	H	-0.939102	-1.248773	-0.582342
H120	H	-0.439628	-1.393829	-0.249730
O121	O	-0.583581	-1.100783	-0.542639
C122	C	-0.575193	-1.047907	-0.699102
C123	C	-0.597094	-1.115307	-0.631765
H124	H	-0.586103	-1.059639	-0.771175
H125	H	-0.586206	-0.975836	-0.687428
H126	H	-0.537026	-1.058392	-0.688546
H127	H	-0.635264	-1.104905	-0.642281
H128	H	-0.586045	-1.187354	-0.643456
H129	H	-0.727420	-1.110449	-0.532907
H130	H	-0.566810	-1.455164	-0.188582
H131	H	-0.234772	-0.622169	-0.445674
O132	O	-0.922730	-1.403827	-0.240155
C133	C	-0.920693	-1.525316	-0.118770
C134	C	-0.950353	-1.457896	-0.186076
H135	H	-0.943014	-1.569036	-0.075017
H136	H	-0.898526	-1.570277	-0.157590
H137	H	-0.898575	-1.486496	-0.073832
H138	H	-0.972498	-1.496643	-0.231031
H139	H	-0.972490	-1.412936	-0.147200
O140	O	-1.015231	-1.403813	-0.240346
C141	C	-1.084388	-1.458225	-0.186239
C142	C	-1.062433	-1.390729	-0.253390
H143	H	-1.122554	-1.447658	-0.196748
H144	H	-1.073407	-1.530265	-0.198077
H145	H	-1.073451	-1.446678	-0.114125
H146	H	-1.073359	-1.402194	-0.325529
H147	H	-1.073413	-1.318713	-0.241472
O148	O	-0.676060	-1.100919	-0.542576
C149	C	-0.733048	-1.081655	-0.665548
C150	C	-0.703352	-1.148989	-0.598219
H151	H	-0.755114	-1.120493	-0.710565
H152	H	-0.755259	-1.036761	-0.626747
H153	H	-0.710726	-1.037854	-0.709218
H154	H	-0.725639	-1.192850	-0.554531
H155	H	-0.681137	-1.193820	-0.637074
O156	O	-0.456621	-1.161863	-0.481392
C157	C	-0.458666	-1.040302	-0.602706
C158	C	-0.429002	-1.107676	-0.535362
H159	H	-0.436348	-0.996462	-0.646346
H160	H	-0.480757	-1.079070	-0.647750
H161	H	-0.480859	-0.995453	-0.563828
H162	H	-0.406782	-1.152543	-0.574166
H163	H	-0.406941	-1.068853	-0.490319
O164	O	-0.364119	-1.161927	-0.481255
C165	C	-0.294962	-1.107568	-0.535420
C166	C	-0.316917	-1.174929	-0.468132
H167	H	-0.256796	-1.118044	-0.524821
H168	H	-0.305856	-1.119216	-0.607527
H169	H	-0.305987	-1.035522	-0.523683
H170	H	-0.305903	-1.247001	-0.479787
H171	H	-0.306024	-1.163201	-0.396049
H172	H	-0.707556	-1.455257	-0.188609
O173	O	-0.795818	-1.465047	-0.179156
C174	C	-0.844659	-1.587978	-0.160121
C175	C	-0.822735	-1.520497	-0.227339
H176	H	-0.866434	-1.632814	-0.199050
H177	H	-0.817328	-1.631819	-0.116419
H178	H	-0.866471	-1.549208	-0.115121
H179	H	-0.800927	-1.559194	-0.272397
H180	H	-0.850089	-1.476657	-0.270977
O181	O	-0.816788	-1.100792	-0.542414
C182	C	-0.873919	-0.977950	-0.561564
C183	C	-0.844234	-1.045356	-0.494290
H184	H	-0.896123	-0.933125	-0.522682
H185	H	-0.851634	-0.934091	-0.605265
H186	H	-0.896000	-1.016783	-0.606559
H187	H	-0.822148	-1.006596	-0.449236
H188	H	-0.866545	-1.089214	-0.450652
O189	O	-0.139972	-1.377537	-0.692361
C190	C	-0.079802	-1.491914	-0.695757
C191	C	-0.114935	-1.425199	-0.751352
H192	H	-0.059556	-1.530479	-0.743427
H193	H	-0.056206	-1.452976	-0.653925
H194	H	-0.097659	-1.541723	-0.648749
H195	H	-0.097116	-1.375374	-0.798411
H196	H	-0.138528	-1.464196	-0.793124
H197	H	-0.123998	-1.407897	-1.010128
