data_functionalizedCrystal
_audit_creation_method	'MofGen! by Chris Wilmer'
_symmetry_space_group_name_H-M	'P1'
_symmetry_Int_Tables_number	1
_symmetry_cell_setting	triclinic
loop_
_symmetry_equiv_pos_as_xyz
  x,y,z
_cell_length_a	14.044191
_cell_length_b	14.044190
_cell_length_c	10.065875
_cell_angle_alpha	99.589132
_cell_angle_beta	80.446775
_cell_angle_gamma	93.191777
loop_
_atom_site_label
_atom_site_type_symbol
_atom_site_fract_x
_atom_site_fract_y
_atom_site_fract_z
O1	O	1.289956	0.217353	-0.113453
O2	O	1.539956	0.467353	0.136547
O3	O	1.789956	0.717353	0.386547
O4	O	2.039956	0.967353	0.636547
O5	O	1.013285	0.209039	-0.113470
O6	O	1.263285	0.459039	0.136530
O7	O	1.513285	0.709039	0.386530
O8	O	1.763285	0.959039	0.636530
O9	O	1.147461	0.074863	-0.113435
O10	O	1.397461	0.324863	0.136565
O11	O	1.647461	0.574863	0.386565
O12	O	1.897461	0.824863	0.636565
O13	O	1.155780	0.351529	-0.113488
O14	O	1.405780	0.601529	0.136512
O15	O	1.655780	0.851529	0.386512
O16	O	1.905780	1.101529	0.636512
O17	O	1.121885	0.100560	0.113547
O18	O	1.371885	0.350560	0.363547
O19	O	1.621885	0.600560	0.613547
O20	O	1.871885	0.850560	0.863547
O21	O	0.987709	0.234736	0.113513
O22	O	1.237709	0.484736	0.363513
O23	O	1.487709	0.734736	0.613513
O24	O	1.737709	0.984736	0.863513
O25	O	1.264380	0.243051	0.113529
O26	O	1.514380	0.493051	0.363529
O27	O	1.764380	0.743051	0.613529
O28	O	2.014380	0.993051	0.863529
Zn29	Zn	1.121983	0.242974	0.149559
Zn30	Zn	1.371983	0.492974	0.399559
Zn31	Zn	1.621983	0.742974	0.649559
Zn32	Zn	1.871983	0.992974	0.899559
Zn33	Zn	1.155681	0.209116	-0.149500
Zn34	Zn	1.405681	0.459116	0.100500
Zn35	Zn	1.655681	0.709116	0.350500
Zn36	Zn	1.905681	0.959116	0.600500
O37	O	1.130203	0.377227	0.113494
O38	O	1.380203	0.627227	0.363494
O39	O	1.630203	0.877227	0.613494
O40	O	1.880203	1.127227	0.863494
C41	C	0.964875	0.218251	0.000020
C42	C	1.214875	0.468251	0.250020
C43	C	1.464875	0.718251	0.500020
C44	C	1.714875	0.968251	0.750020
C45	C	0.858732	0.207403	0.000015
C46	C	1.108732	0.457403	0.250015
C47	C	1.358732	0.707403	0.500015
C48	C	1.608732	0.957403	0.750015
C49	C	1.131036	0.052090	0.000060
C50	C	1.381036	0.302090	0.250060
C51	C	1.631036	0.552090	0.500060
C52	C	1.881036	0.802090	0.750060
C53	C	1.120187	-0.054052	0.000071
C54	C	1.370187	0.195948	0.250071
C55	C	1.620187	0.445948	0.500071
C56	C	1.870187	0.695948	0.750071
C57	C	0.613275	0.264504	0.000017
C58	C	0.863275	0.514504	0.250017
C59	C	1.113275	0.764504	0.500017
C60	C	1.363275	1.014504	0.750017
C61	C	0.664397	0.187589	0.000030
C62	C	0.914397	0.437589	0.250030
C63	C	1.164397	0.687589	0.500030
C64	C	1.414397	0.937589	0.750030
C65	C	0.772535	0.198616	0.000021
C66	C	1.022535	0.448616	0.250021
C67	C	1.272535	0.698616	0.500021
C68	C	1.522535	0.948616	0.750021
C69	C	0.505127	0.253478	0.000026
C70	C	0.755127	0.503478	0.250026
C71	C	1.005127	0.753478	0.500026
C72	C	1.255127	1.003478	0.750026
C73	C	1.177293	-0.299515	0.000021
C74	C	1.427293	-0.049515	0.250021
C75	C	1.677293	0.200485	0.500021
C76	C	1.927293	0.450485	0.750021
C77	C	1.100376	-0.248391	0.000026
C78	C	1.350376	0.001609	0.250026
C79	C	1.600376	0.251609	0.500026
C80	C	1.850376	0.501609	0.750026
C81	C	1.111402	-0.140251	0.000051
C82	C	1.361402	0.109749	0.250051
C83	C	1.611402	0.359749	0.500051
C84	C	1.861402	0.609749	0.750051
C85	C	1.166270	-0.407665	-0.000004
C86	C	1.416270	-0.157665	0.249996
C87	C	1.666270	0.092335	0.499996
C88	C	1.916270	0.342335	0.749996
C89	C	1.312790	0.233839	0.000036
C90	C	1.562790	0.483839	0.250036
C91	C	1.812790	0.733839	0.500036
C92	C	2.062790	0.983839	0.750036
C93	C	1.418934	0.244685	0.000032
C94	C	1.668934	0.494685	0.250032
C95	C	1.918934	0.744685	0.500032
C96	C	2.168934	0.994685	0.750032
C97	C	1.146629	0.399999	-0.000004
C98	C	1.396629	0.649999	0.249996
C99	C	1.646629	0.899999	0.499996
C100	C	1.896629	1.149999	0.749996
C101	C	1.157478	0.506141	-0.000024
C102	C	1.407478	0.756141	0.249976
C103	C	1.657478	1.006141	0.499976
C104	C	1.907478	1.256141	0.749976
N105	N	1.098993	0.266081	0.353659
N106	N	1.348993	0.516081	0.603659
N107	N	1.598993	0.766081	0.853659
N108	N	1.848993	1.016081	1.103659
N109	N	1.178679	0.186002	-0.353599
N110	N	1.428679	0.436002	-0.103599
N111	N	1.678679	0.686002	0.146401
N112	N	1.928679	0.936002	0.396401
C113	C	1.147675	0.217149	0.421450
C114	C	1.397675	0.467149	0.671450
C115	C	1.647675	0.717149	0.921450
C116	C	1.897675	0.967149	1.171450
C117	C	1.129989	0.234941	0.578613
C118	C	1.379989	0.484941	0.828613
C119	C	1.629989	0.734941	1.078613
C120	C	1.879989	0.984941	1.328613
H121	H	0.626961	0.113447	-0.000052
H122	H	0.876961	0.363447	0.249948
H123	H	1.126961	0.613447	0.499948
H124	H	1.376961	0.863447	0.749948
O125	O	1.057447	0.307906	0.655826
O126	O	1.307447	0.557906	0.905826
O127	O	1.557447	0.807906	1.155826
O128	O	1.807447	1.057906	1.405826
H129	H	0.985007	0.286548	0.628514
H130	H	1.235007	0.536548	0.878514
H131	H	1.485007	0.786548	1.128514
H132	H	1.735007	1.036548	1.378514
O133	O	0.662869	0.362695	-0.000005
O134	O	0.912869	0.612695	0.249995
O135	O	1.162869	0.862695	0.499995
O136	O	1.412869	1.112695	0.749995
H137	H	0.652279	0.391546	-0.092523
H138	H	0.902279	0.641546	0.157477
H139	H	1.152279	0.891546	0.407477
H140	H	1.402279	1.141546	0.657477
H141	H	1.026245	-0.285838	0.000014
H142	H	1.276245	-0.035838	0.250014
H143	H	1.526245	0.214162	0.500014
H144	H	1.776245	0.464162	0.750014
H145	H	1.233451	0.130930	0.588094
H146	H	1.483451	0.380930	0.838094
H147	H	1.733451	0.630930	1.088094
H148	H	1.983451	0.880930	1.338094
H149	H	1.251418	-0.262070	0.000040
H150	H	1.501418	-0.012070	0.250040
H151	H	1.751418	0.237930	0.500040
H152	H	2.001418	0.487930	0.750040
O153	O	1.220202	0.144177	0.344228
O154	O	1.470202	0.394177	0.594228
O155	O	1.720202	0.644177	0.844228
O156	O	1.970202	0.894177	1.094228
H157	H	1.222701	0.141643	0.232904
H158	H	1.472701	0.391643	0.482904
H159	H	1.722701	0.641643	0.732904
H160	H	1.972701	0.891643	0.982904
O161	O	1.026440	0.339027	0.430881
O162	O	1.276440	0.589027	0.680881
O163	O	1.526440	0.839027	0.930881
O164	O	1.776440	1.089027	1.180881
H165	H	1.023940	0.341561	0.542204
H166	H	1.273940	0.591561	0.792204
H167	H	1.523940	0.841561	1.042204
H168	H	1.773940	1.091561	1.292204
