data_functionalizedCrystal
_audit_creation_method	'MofGen! by Chris Wilmer'
_symmetry_space_group_name_H-M	'P1'
_symmetry_Int_Tables_number	1
_symmetry_cell_setting	triclinic
loop_
_symmetry_equiv_pos_as_xyz
  x,y,z
_cell_length_a	21.395362
_cell_length_b	18.050590
_cell_length_c	21.395355
_cell_angle_alpha	90.018036
_cell_angle_beta	90.043940
_cell_angle_gamma	90.034430
loop_
_atom_site_label
_atom_site_type_symbol
_atom_site_fract_x
_atom_site_fract_y
_atom_site_fract_z
Zn1	Zn	0.957912	-0.295431	0.354588
Zn2	Zn	1.207912	-0.045431	0.604588
Zn3	Zn	1.457912	0.204569	0.854588
Zn4	Zn	1.707912	0.454569	1.104588
Zn5	Zn	0.957837	-0.419603	0.249811
Zn6	Zn	1.207837	-0.169603	0.499811
Zn7	Zn	1.457837	0.080397	0.749811
Zn8	Zn	1.707837	0.330397	0.999811
Zn9	Zn	0.853127	-0.295465	0.249789
Zn10	Zn	1.103127	-0.045465	0.499789
Zn11	Zn	1.353127	0.204535	0.749789
Zn12	Zn	1.603127	0.454535	0.999789
Zn13	Zn	0.853119	-0.419618	0.354516
Zn14	Zn	1.103119	-0.169618	0.604516
Zn15	Zn	1.353119	0.080382	0.854516
Zn16	Zn	1.603119	0.330382	1.104516
O17	O	0.905499	-0.357529	0.302176
O18	O	1.155499	-0.107529	0.552176
O19	O	1.405499	0.142471	0.802176
O20	O	1.655499	0.392471	1.052176
O21	O	1.045580	-0.311881	0.340728
O22	O	1.295580	-0.061881	0.590728
O23	O	1.545580	0.188119	0.840728
O24	O	1.795580	0.438119	1.090728
O25	O	0.943919	-0.403143	0.162130
O26	O	1.193919	-0.153143	0.412130
O27	O	1.443919	0.096857	0.662130
O28	O	1.693919	0.346857	0.912130
O29	O	0.867062	-0.191536	0.263712
O30	O	1.117062	0.058464	0.513712
O31	O	1.367062	0.308464	0.763712
O32	O	1.617062	0.558464	1.013712
O33	O	1.045525	-0.403110	0.263749
O34	O	1.295525	-0.153110	0.513749
O35	O	1.545525	0.096890	0.763749
O36	O	1.795525	0.346890	1.013749
O37	O	0.944048	-0.191511	0.340707
O38	O	1.194048	0.058489	0.590707
O39	O	1.444048	0.308489	0.840707
O40	O	1.694048	0.558489	1.090707
O41	O	0.866989	-0.311940	0.162114
O42	O	1.116989	-0.061940	0.412114
O43	O	1.366989	0.188060	0.662114
O44	O	1.616989	0.438060	0.912114
O45	O	0.765448	-0.311955	0.263642
O46	O	1.015448	-0.061955	0.513642
O47	O	1.265448	0.188045	0.763642
O48	O	1.515448	0.438045	1.013642
O49	O	0.867048	-0.403136	0.442203
O50	O	1.117048	-0.153136	0.692203
O51	O	1.367048	0.096864	0.942203
O52	O	1.617048	0.346864	1.192203
O53	O	0.765442	-0.403170	0.340584
O54	O	1.015442	-0.153170	0.590584
O55	O	1.265442	0.096830	0.840584
O56	O	1.515442	0.346830	1.090584
O57	O	0.944039	-0.311896	0.442256
O58	O	1.194039	-0.061896	0.692256
O59	O	1.444039	0.188104	0.942256
O60	O	1.694039	0.438104	1.192256
O61	O	0.943911	-0.523529	0.263680
O62	O	1.193911	-0.273529	0.513680
O63	O	1.443911	-0.023529	0.763680
O64	O	1.693911	0.226471	1.013680
O65	O	0.866975	-0.523540	0.340606
O66	O	1.116975	-0.273540	0.590606
O67	O	1.366975	-0.023540	0.840606
O68	O	1.616975	0.226460	1.090606
C69	C	0.742711	-0.357568	0.302103
C70	C	0.992711	-0.107568	0.552103
C71	C	1.242711	0.142432	0.802103
C72	C	1.492711	0.392432	1.052103
C73	C	0.673070	-0.357603	0.302087
C74	C	0.923070	-0.107603	0.552087
C75	C	1.173070	0.142397	0.802087
C76	C	1.423070	0.392397	1.052087
C77	C	0.640370	-0.405161	0.342091
C78	C	0.890370	-0.155161	0.592091
C79	C	1.140370	0.094839	0.842091
C80	C	1.390370	0.344839	1.092091
C81	C	0.574935	-0.405143	0.342119
C82	C	0.824935	-0.155143	0.592119
C83	C	1.074935	0.094857	0.842119
C84	C	1.324935	0.344857	1.092119
C85	C	0.542202	-0.357574	0.302132
C86	C	0.792202	-0.107574	0.552132
C87	C	1.042202	0.142426	0.802132
C88	C	1.292202	0.392426	1.052132
C89	C	0.574910	-0.310007	0.262125
C90	C	0.824910	-0.060007	0.512125
C91	C	1.074910	0.189993	0.762125
C92	C	1.324910	0.439993	1.012125
C93	C	0.640344	-0.310021	0.262103
C94	C	0.890344	-0.060021	0.512103
C95	C	1.140344	0.189979	0.762103
C96	C	1.390344	0.439979	1.012103
C97	C	0.438476	-0.351592	0.245726
C98	C	0.688476	-0.101592	0.495726
C99	C	0.938476	0.148408	0.745726
C100	C	1.188476	0.398408	0.995726
C101	C	0.373043	-0.351583	0.245748
C102	C	0.623043	-0.101583	0.495748
C103	C	0.873043	0.148417	0.745748
C104	C	1.123043	0.398417	0.995748
C105	C	0.340381	-0.357526	0.302201
C106	C	0.590381	-0.107526	0.552201
C107	C	0.840381	0.142474	0.802201
C108	C	1.090381	0.392474	1.052201
C109	C	0.373160	-0.363494	0.358634
C110	C	0.623160	-0.113494	0.608634
C111	C	0.873160	0.136506	0.858634
C112	C	1.123160	0.386506	1.108634
C113	C	0.438594	-0.363508	0.358612
C114	C	0.688594	-0.113508	0.608612
C115	C	0.938594	0.136492	0.858612
C116	C	1.188594	0.386492	1.108612
C117	C	0.471249	-0.357553	0.302152
C118	C	0.721249	-0.107553	0.552152
C119	C	0.971249	0.142447	0.802152
C120	C	1.221249	0.392447	1.052152
C121	C	0.236728	-0.405067	0.342238
C122	C	0.486728	-0.155067	0.592238
C123	C	0.736728	0.094933	0.842238
C124	C	0.986728	0.344933	1.092238
C125	C	0.171292	-0.405044	0.342267
C126	C	0.421292	-0.155044	0.592267
C127	C	0.671292	0.094956	0.842267
C128	C	0.921292	0.344956	1.092267
C129	C	0.171268	-0.309911	0.262268
C130	C	0.421268	-0.059911	0.512268
C131	C	0.671268	0.190089	0.762268
C132	C	0.921268	0.440089	1.012268
C133	C	0.236703	-0.309931	0.262245
C134	C	0.486703	-0.059931	0.512245
C135	C	0.736703	0.190069	0.762245
C136	C	0.986703	0.440069	1.012245
C137	C	0.269430	-0.357513	0.302229
C138	C	0.519430	-0.107513	0.552229
C139	C	0.769430	0.142487	0.802229
C140	C	1.019430	0.392487	1.052229
C141	C	0.905451	-0.550481	0.302151
C142	C	1.155451	-0.300481	0.552151
C143	C	1.405451	-0.050481	0.802151
C144	C	1.655451	0.199519	1.052151
C145	C	0.905487	-0.633027	0.302161
C146	C	1.155487	-0.383027	0.552161
C147	C	1.405487	-0.133027	0.802161
C148	C	1.655487	0.116973	1.052161
C149	C	0.947412	-0.832444	0.260387
C150	C	1.197412	-0.582444	0.510387
C151	C	1.447412	-0.332444	0.760387
C152	C	1.697412	-0.082444	1.010387
C153	C	0.962722	-0.881784	0.317576
C154	C	1.212722	-0.631784	0.567576
C155	C	1.462722	-0.381784	0.817576
C156	C	1.712722	-0.131784	1.067576
C157	C	0.905523	-0.784157	0.302186
C158	C	1.155523	-0.534157	0.552186
C159	C	1.405523	-0.284157	0.802186
C160	C	1.655523	-0.034157	1.052186
C161	C	0.890277	-0.881899	0.245023
C162	C	1.140277	-0.631899	0.495023
C163	C	1.390277	-0.381899	0.745023
C164	C	1.640277	-0.131899	0.995023
C165	C	0.905559	-0.930142	0.302205
C166	C	1.155559	-0.680142	0.552205
C167	C	1.405559	-0.430142	0.802205
C168	C	1.655559	-0.180142	1.052205
C169	C	0.920862	-0.832410	0.359405
C170	C	1.170862	-0.582410	0.609405
C171	C	1.420862	-0.332410	0.859405
C172	C	1.670862	-0.082410	1.109405
C173	C	0.848390	-0.832520	0.286813
C174	C	1.098390	-0.582520	0.536813
C175	C	1.348390	-0.332520	0.786813
C176	C	1.598390	-0.082520	1.036813
C177	C	0.863678	-0.881838	0.344042
C178	C	1.113678	-0.631838	0.594042
C179	C	1.363678	-0.381838	0.844042
C180	C	1.613678	-0.131838	1.094042
C181	C	0.905504	-0.700059	0.302174
C182	C	1.155504	-0.450059	0.552174
C183	C	1.405504	-0.200059	0.802174
C184	C	1.655504	0.049941	1.052174
C185	C	0.905577	-1.014239	0.302224
C186	C	1.155577	-0.764239	0.552224
C187	C	1.405577	-0.514239	0.802224
C188	C	1.655577	-0.264239	1.052224
C189	C	1.068922	-0.357490	0.302249
C190	C	1.318922	-0.107490	0.552249
C191	C	1.568922	0.142510	0.802249
C192	C	1.818922	0.392510	1.052249
C193	C	1.138563	-0.357474	0.302281
C194	C	1.388563	-0.107474	0.552281
C195	C	1.638563	0.142526	0.802281
C196	C	1.888563	0.392526	1.052281
C197	C	0.905551	-0.357514	0.465599
C198	C	1.155551	-0.107514	0.715599
C199	C	1.405551	0.142486	0.965599
C200	C	1.655551	0.392486	1.215599
C201	C	0.905573	-0.357508	0.535241
C202	C	1.155573	-0.107508	0.785241
C203	C	1.405573	0.142492	1.035241
C204	C	1.655573	0.392492	1.285241
C205	C	0.905564	-0.163823	0.302215
C206	C	1.155564	0.086177	0.552215
C207	C	1.405564	0.336177	0.802215
C208	C	1.655564	0.586177	1.052215
C209	C	0.905592	-0.081278	0.302231
C210	C	1.155592	0.168722	0.552231
C211	C	1.405592	0.418722	0.802231
C212	C	1.655592	0.668722	1.052231
C213	C	0.905483	-0.357490	0.139388
C214	C	1.155483	-0.107490	0.389388
C215	C	1.405483	0.142510	0.639388
C216	C	1.655483	0.392510	0.889388
C217	C	0.905582	-0.357288	0.069747
C218	C	1.155582	-0.107288	0.319747
C219	C	1.405582	0.142712	0.569747
C220	C	1.655582	0.392712	0.819747
C221	C	0.945661	-0.309997	0.567982
C222	C	1.195661	-0.059997	0.817982
C223	C	1.445661	0.190003	1.067982
C224	C	1.695661	0.440003	1.317982
C225	C	0.945660	-0.309965	0.633418
C226	C	1.195660	-0.059965	0.883418
C227	C	1.445660	0.190035	1.133418
C228	C	1.695660	0.440035	1.383418
C229	C	0.905578	-0.357457	0.666109
C230	C	1.155578	-0.107457	0.916109
C231	C	1.405578	0.142543	1.166109
C232	C	1.655578	0.392543	1.416109
C233	C	0.865482	-0.404971	0.633359
C234	C	1.115482	-0.154971	0.883359
C235	C	1.365482	0.095029	1.133359
C236	C	1.615482	0.345029	1.383359
C237	C	0.865480	-0.404996	0.567925
C238	C	1.115480	-0.154996	0.817925
C239	C	1.365480	0.095004	1.067925
C240	C	1.615480	0.345004	1.317925
C241	C	0.900614	-0.424328	0.769773
C242	C	1.150614	-0.174328	1.019773
C243	C	1.400614	0.075672	1.269773
C244	C	1.650614	0.325672	1.519773
C245	C	0.900621	-0.424304	0.835206
C246	C	1.150621	-0.174304	1.085206
C247	C	1.400621	0.075696	1.335206
C248	C	1.650621	0.325696	1.585206
C249	C	0.905582	-0.357379	0.867930
C250	C	1.155582	-0.107379	1.117930
C251	C	1.405582	0.142621	1.367930
C252	C	1.655582	0.392621	1.617930
C253	C	0.910549	-0.290475	0.835212
C254	C	1.160549	-0.040475	1.085212
C255	C	1.410549	0.209525	1.335212
C256	C	1.660549	0.459525	1.585212
C257	C	0.910547	-0.290501	0.769778
C258	C	1.160547	-0.040501	1.019778
C259	C	1.410547	0.209499	1.269778
C260	C	1.660547	0.459499	1.519778
C261	C	0.905576	-0.357434	0.737061
C262	C	1.155576	-0.107434	0.987061
C263	C	1.405576	0.142566	1.237061
C264	C	1.655576	0.392566	1.487061
C265	C	0.945671	-0.309829	0.971624
C266	C	1.195671	-0.059829	1.221624
C267	C	1.445671	0.190171	1.471624
C268	C	1.695671	0.440171	1.721624
C269	C	0.945665	-0.309796	1.037061
C270	C	1.195665	-0.059796	1.287061
C271	C	1.445665	0.190204	1.537061
C272	C	1.695665	0.440204	1.787061
C273	C	0.865491	-0.404808	1.037001
C274	C	1.115491	-0.154808	1.287001
C275	C	1.365491	0.095192	1.537001
C276	C	1.615491	0.345192	1.787001
C277	C	0.865493	-0.404835	0.971566
C278	C	1.115493	-0.154835	1.221566
C279	C	1.365493	0.095165	1.471566
C280	C	1.615493	0.345165	1.721566
C281	C	0.905586	-0.357346	0.938881
C282	C	1.155586	-0.107346	1.188881
C283	C	1.405586	0.142654	1.438881
C284	C	1.655586	0.392654	1.688881
H285	H	0.346568	-0.368332	0.404604
H286	H	0.596568	-0.118332	0.654604
H287	H	0.846568	0.131668	0.904604
H288	H	1.096568	0.381668	1.154604
H289	H	0.828269	-0.903388	0.379439
H290	H	1.078269	-0.653388	0.629439
H291	H	1.328269	-0.403388	0.879439
H292	H	1.578269	-0.153388	1.129439
F293	F	0.873402	-0.910313	0.181826
F294	F	1.123402	-0.660313	0.431826
F295	F	1.373402	-0.410313	0.681826
F296	F	1.623402	-0.160313	0.931826
H297	H	0.896580	-0.478780	0.861840
H298	H	1.146580	-0.228780	1.111840
H299	H	1.396580	0.021220	1.361840
H300	H	1.646580	0.271220	1.611840
F301	F	0.271560	-0.455703	0.384795
F302	F	0.521560	-0.205703	0.634795
F303	F	0.771560	0.044297	0.884795
F304	F	1.021560	0.294297	1.134795
F305	F	1.025896	-0.910059	0.334597
F306	F	1.275896	-0.660059	0.584597
F307	F	1.525896	-0.410059	0.834597
F308	F	1.775896	-0.160059	1.084597
H309	H	0.465280	-0.368366	0.404562
H310	H	0.715280	-0.118366	0.654562
H311	H	0.965280	0.131634	0.904562
H312	H	1.215280	0.381634	1.154562
F313	F	0.785233	-0.804215	0.269782
F314	F	1.035233	-0.554215	0.519782
F315	F	1.285233	-0.304215	0.769782
F316	F	1.535233	-0.054215	1.019782
H317	H	0.263328	-0.271207	0.229666
H318	H	0.513328	-0.021207	0.479666
H319	H	0.763328	0.228793	0.729666
H320	H	1.013328	0.478793	0.979666
F321	F	0.338163	-0.345231	0.185687
F322	F	0.588163	-0.095231	0.435687
F323	F	0.838163	0.154769	0.685687
F324	F	1.088163	0.404769	0.935687
F325	F	0.915832	-0.219243	0.870034
F326	F	1.165832	0.030757	1.120034
F327	F	1.415832	0.280757	1.370034
F328	F	1.665832	0.530757	1.620034
F329	F	0.988318	-0.259384	0.668271
F330	F	1.238318	-0.009384	0.918271
F331	F	1.488318	0.240616	1.168271
F332	F	1.738318	0.490616	1.418271
H333	H	0.548305	-0.443870	0.374697
H334	H	0.798305	-0.193870	0.624697
H335	H	1.048305	0.056130	0.874697
H336	H	1.298305	0.306130	1.124697
F337	F	0.915830	-0.219300	0.734960
F338	F	1.165830	0.030700	0.984960
F339	F	1.415830	0.280700	1.234960
F340	F	1.665830	0.530700	1.484960
H341	H	0.978307	-0.271327	0.541374
H342	H	1.228307	-0.021327	0.791374
H343	H	1.478307	0.228673	1.041374
H344	H	1.728307	0.478673	1.291374
F345	F	0.993728	-0.804095	0.214232
F346	F	1.243728	-0.554095	0.464232
F347	F	1.493728	-0.304095	0.714232
F348	F	1.743728	-0.054095	0.964232
F349	F	0.895348	-0.495565	0.734953
F350	F	1.145348	-0.245565	0.984953
F351	F	1.395348	0.004435	1.234953
F352	F	1.645348	0.254435	1.484953
H353	H	0.144669	-0.443770	0.374847
H354	H	0.394669	-0.193770	0.624847
H355	H	0.644669	0.056230	0.874847
H356	H	0.894669	0.306230	1.124847
H357	H	0.978313	-0.271157	0.945011
H358	H	1.228313	-0.021157	1.195011
H359	H	1.478313	0.228843	1.445011
H360	H	1.728313	0.478843	1.695011
H361	H	0.144618	-0.271177	0.229712
H362	H	0.394618	-0.021177	0.479712
H363	H	0.644618	0.228823	0.729712
H364	H	0.894618	0.478823	0.979712
F365	F	0.473231	-0.345267	0.185637
F366	F	0.723231	-0.095267	0.435637
F367	F	0.973231	0.154733	0.685637
F368	F	1.223231	0.404733	0.935637
F369	F	0.675146	-0.259401	0.219523
F370	F	0.925146	-0.009401	0.469523
F371	F	1.175146	0.240599	0.719523
F372	F	1.425146	0.490599	0.969523
H373	H	0.978309	-0.271103	1.063718
H374	H	1.228309	-0.021103	1.313718
H375	H	1.478309	0.228897	1.563718
H376	H	1.728309	0.478897	1.813718
F377	F	0.822822	-0.455513	0.668153
F378	F	1.072822	-0.205513	0.918153
F379	F	1.322822	0.044487	1.168153
F380	F	1.572822	0.294487	1.418153
H381	H	0.832849	-0.443470	1.063618
H382	H	1.082849	-0.193470	1.313618
H383	H	1.332849	0.056530	1.563618
H384	H	1.582849	0.306530	1.813618
H385	H	0.933724	-0.810764	0.407797
H386	H	1.183724	-0.560764	0.657797
H387	H	1.433724	-0.310764	0.907797
H388	H	1.683724	-0.060764	1.157797
H389	H	0.832833	-0.443684	0.541267
H390	H	1.082833	-0.193684	0.791267
H391	H	1.332833	0.056316	1.041267
H392	H	1.582833	0.306316	1.291267
F393	F	0.675196	-0.455800	0.384648
F394	F	0.925196	-0.205800	0.634648
F395	F	1.175196	0.044200	0.884648
F396	F	1.425196	0.294200	1.134648
F397	F	0.540072	-0.259378	0.219570
F398	F	0.790072	-0.009378	0.469570
F399	F	1.040072	0.240622	0.719570
F400	F	1.290072	0.490622	0.969570
F401	F	0.822828	-0.455406	0.936718
F402	F	1.072828	-0.205406	1.186718
F403	F	1.322828	0.044594	1.436718
F404	F	1.572828	0.294594	1.686718
