data_functionalizedCrystal
_audit_creation_method	'MofGen! by Chris Wilmer'
_symmetry_space_group_name_H-M	'P1'
_symmetry_Int_Tables_number	1
_symmetry_cell_setting	triclinic
loop_
_symmetry_equiv_pos_as_xyz
  x,y,z
_cell_length_a	19.805407
_cell_length_b	18.050589
_cell_length_c	19.805399
_cell_angle_alpha	89.977706
_cell_angle_beta	89.980427
_cell_angle_gamma	90.028221
loop_
_atom_site_label
_atom_site_type_symbol
_atom_site_fract_x
_atom_site_fract_y
_atom_site_fract_z
Zn1	Zn	1.034727	-0.295677	-0.382745
Zn2	Zn	1.534727	0.204323	0.117255
Zn3	Zn	1.034638	-0.419869	-0.269567
Zn4	Zn	1.534638	0.080131	0.230433
Zn5	Zn	0.921542	-0.295697	-0.269569
Zn6	Zn	1.421542	0.204303	0.230431
Zn7	Zn	0.921502	-0.419829	-0.382713
Zn8	Zn	1.421502	0.080171	0.117287
O9	O	0.978102	-0.357768	-0.326148
O10	O	1.478102	0.142232	0.173852
O11	O	1.129432	-0.312159	-0.367743
O12	O	1.629432	0.187841	0.132257
O13	O	1.019616	-0.403422	-0.174850
O14	O	1.519616	0.096578	0.325150
O15	O	0.936610	-0.191770	-0.284596
O16	O	1.436610	0.308230	0.215404
O17	O	1.129367	-0.403402	-0.284592
O18	O	1.629367	0.096598	0.215408
O19	O	1.019767	-0.191755	-0.367746
O20	O	1.519767	0.308245	0.132254
O21	O	0.936524	-0.312194	-0.174852
O22	O	1.436524	0.187806	0.325148
O23	O	0.826820	-0.312156	-0.284566
O24	O	1.326820	0.187844	0.215434
O25	O	0.936542	-0.403335	-0.477434
O26	O	1.436542	0.096665	0.022566
O27	O	0.826791	-0.403355	-0.367693
O28	O	1.326791	0.096645	0.132307
O29	O	1.019728	-0.312121	-0.477457
O30	O	1.519728	0.187879	0.022543
O31	O	1.019577	-0.523788	-0.284562
O32	O	1.519577	-0.023788	0.215438
O33	O	0.936456	-0.523759	-0.367690
O34	O	1.436456	-0.023759	0.132310
C35	C	0.802246	-0.357754	-0.326127
C36	C	1.302246	0.142246	0.173873
C37	C	0.727014	-0.357766	-0.326133
C38	C	1.227014	0.142234	0.173867
C39	C	0.691673	-0.405325	-0.369347
C40	C	1.191673	0.094675	0.130653
C41	C	0.620984	-0.405326	-0.369357
C42	C	1.120984	0.094674	0.130643
C43	C	0.585639	-0.357771	-0.326148
C44	C	1.085639	0.142229	0.173852
C45	C	0.620985	-0.310207	-0.282933
C46	C	1.120985	0.189793	0.217067
C47	C	0.691673	-0.310203	-0.282927
C48	C	1.191673	0.189797	0.217073
C49	C	0.335912	-0.310224	-0.282955
C50	C	0.835912	0.189776	0.217045
C51	C	0.265220	-0.310233	-0.282962
C52	C	0.765220	0.189767	0.217038
C53	C	0.265224	-0.405347	-0.369385
C54	C	0.765224	0.094653	0.130615
C55	C	0.335911	-0.405342	-0.369379
C56	C	0.835911	0.094658	0.130621
C57	C	0.371251	-0.357776	-0.326166
C58	C	0.871251	0.142224	0.173834
C59	C	0.447900	-0.357774	-0.326157
C60	C	0.947900	0.142226	0.173843
C61	C	0.508992	-0.357776	-0.326153
C62	C	1.008992	0.142224	0.173847
C63	C	0.978021	-0.550720	-0.326137
C64	C	1.478021	-0.050720	0.173863
C65	C	0.978048	-0.633266	-0.326155
C66	C	1.478048	-0.133266	0.173845
C67	C	0.932891	-0.832728	-0.371344
C68	C	1.432891	-0.332728	0.128656
C69	C	0.916392	-0.882167	-0.309581
C70	C	1.416392	-0.382167	0.190419
C71	C	0.978114	-0.784396	-0.326164
C72	C	1.478114	-0.284396	0.173836
C73	C	0.994646	-0.882039	-0.387934
C74	C	1.494646	-0.382039	0.112066
C75	C	0.978177	-0.930381	-0.326178
C76	C	1.478177	-0.430381	0.173822
C77	C	0.961583	-0.832748	-0.264368
C78	C	1.461583	-0.332748	0.235632
C79	C	1.039865	-0.832616	-0.342762
C80	C	1.539865	-0.332616	0.157238
C81	C	1.023390	-0.882033	-0.280957
C82	C	1.523390	-0.382033	0.219043
C83	C	0.978076	-0.700298	-0.326157
C84	C	1.478076	-0.200298	0.173843
C85	C	0.978215	-1.014478	-0.326178
C86	C	1.478215	-0.514478	0.173822
C87	C	1.154645	-0.357783	-0.326171
C88	C	1.654645	0.142217	0.173829
C89	C	1.229877	-0.357789	-0.326180
C90	C	1.729877	0.142211	0.173820
C91	C	0.978140	-0.357721	-0.502691
C92	C	1.478140	0.142279	-0.002691
C93	C	0.978156	-0.357701	-0.577923
C94	C	1.478156	0.142299	-0.077923
C95	C	0.978203	-0.164062	-0.326175
C96	C	1.478203	0.335938	0.173825
C97	C	0.978246	-0.081517	-0.326186
C98	C	1.478246	0.418483	0.173814
C99	C	1.021472	-0.310204	-0.613280
C100	C	1.521472	0.189796	-0.113280
C101	C	1.021479	-0.310182	-0.683969
C102	C	1.521479	0.189818	-0.183969
C103	C	0.978173	-0.357662	-0.719299
C104	C	1.478173	0.142338	-0.219299
C105	C	0.934852	-0.405162	-0.683937
C106	C	1.434852	0.094838	-0.183937
C107	C	0.934843	-0.405180	-0.613250
C108	C	1.434843	0.094820	-0.113250
C109	C	0.934891	-0.405093	-0.969010
C110	C	1.434891	0.094907	-0.469010
C111	C	0.934905	-0.405074	-1.039702
C112	C	1.434905	0.094926	-0.539702
C113	C	1.021527	-0.310096	-1.039729
C114	C	1.521527	0.189904	-0.539729
C115	C	1.021518	-0.310113	-0.969042
C116	C	1.521518	0.189887	-0.469042
C117	C	0.978195	-0.357609	-0.933686
C118	C	1.478195	0.142391	-0.433686
C119	C	0.978187	-0.357631	-0.857038
C120	C	1.478187	0.142369	-0.357038
C121	C	0.978184	-0.357645	-0.795946
C122	C	1.478184	0.142355	-0.295946
C123	C	0.978103	-0.357761	-0.150292
C124	C	1.478103	0.142239	0.349708
C125	C	0.978218	-0.357572	-0.075061
C126	C	1.478218	0.142428	0.424939
H127	H	0.364686	-0.444069	-0.404562
H128	H	0.864686	0.055931	0.095438
C129	C	1.110353	-0.803186	-0.361747
C130	C	1.610353	-0.303186	0.138253
H131	H	1.127683	-0.774238	-0.325637
H132	H	1.627683	-0.274238	0.174363
H133	H	1.107089	-0.773464	-0.401201
H134	H	1.607089	-0.273464	0.098799
H135	H	1.139781	-0.843706	-0.370107
H136	H	1.639781	-0.343706	0.129893
C137	C	0.942639	-0.803625	-0.193788
C138	C	1.442639	-0.303625	0.306212
H139	H	0.942708	-0.750995	-0.194221
H140	H	1.442708	-0.250995	0.305779
H141	H	0.974582	-0.820900	-0.161672
H142	H	1.474582	-0.320900	0.338328
H143	H	0.898928	-0.821005	-0.181937
H144	H	1.398928	-0.321005	0.318063
H145	H	0.236444	-0.271504	-0.247777
H146	H	0.736444	0.228496	0.252223
C147	C	0.582111	-0.257895	-0.235404
C148	C	1.082111	0.242105	0.264596
H149	H	0.613285	-0.229565	-0.209671
H150	H	1.113285	0.270435	0.290329
H151	H	0.554512	-0.286261	-0.205871
H152	H	1.054512	0.213739	0.294129
H153	H	0.554560	-0.225574	-0.261354
H154	H	1.054560	0.274426	0.238646
H155	H	0.899637	-0.443740	-1.068466
H156	H	1.399637	0.056260	-0.568466
H157	H	0.592212	-0.444054	-0.404545
H158	H	1.092212	0.055946	0.095455
H159	H	0.364678	-0.271497	-0.247763
H160	H	0.864678	0.228503	0.252237
H161	H	0.720447	-0.271471	-0.247741
H162	H	1.220447	0.228529	0.252259
C163	C	1.069180	-0.257843	-1.078620
C164	C	1.569180	0.242157	-0.578620
H165	H	1.094975	-0.229575	-1.047453
H166	H	1.594975	0.270425	-0.547453
H167	H	1.043313	-0.225472	-1.106194
H168	H	1.543313	0.274528	-0.606194
H169	H	1.098661	-0.286253	-1.106195
H170	H	1.598661	0.213747	-0.606195
C171	C	0.730546	-0.457634	-0.416878
C172	C	1.230546	0.042366	0.083122
H173	H	0.699371	-0.485953	-0.442621
H174	H	1.199371	0.014047	0.057379
H175	H	0.758099	-0.489955	-0.390937
H176	H	1.258099	0.010045	0.109063
H177	H	0.758143	-0.429260	-0.446414
H178	H	1.258143	0.070740	0.053586
C179	C	0.881155	-0.803473	-0.422884
C180	C	1.381155	-0.303473	0.077116
H181	H	0.837322	-0.820442	-0.410982
H182	H	1.337322	-0.320442	0.089018
H183	H	0.892445	-0.821074	-0.466648
H184	H	1.392445	-0.321074	0.033352
H185	H	0.881772	-0.750847	-0.422806
H186	H	1.381772	-0.250847	0.077194
C187	C	0.845887	-0.911574	-0.290615
C188	C	1.345887	-0.411574	0.209385
H189	H	0.848996	-0.940542	-0.250678
H190	H	1.348996	-0.440542	0.249322
H191	H	0.828918	-0.941271	-0.326381
H192	H	1.328918	-0.441271	0.173619
H193	H	0.816252	-0.871043	-0.283074
H194	H	1.316252	-0.371043	0.216926
C195	C	1.075088	-0.911103	-0.229294
C196	C	1.575088	-0.411103	0.270706
H197	H	1.063256	-0.894135	-0.185459
H198	H	1.563256	-0.394135	0.314541
H199	H	1.118800	-0.893387	-0.240705
H200	H	1.618800	-0.393387	0.259295
H201	H	1.075089	-0.963729	-0.229836
H202	H	1.575089	-0.463729	0.270164
C203	C	1.013505	-0.911288	-0.458494
C204	C	1.513505	-0.411288	0.041506
H205	H	0.981306	-0.894397	-0.490532
H206	H	1.481306	-0.394397	0.009468
H207	H	1.013798	-0.963909	-0.457896
H208	H	1.513798	-0.463909	0.042104
H209	H	1.057041	-0.893585	-0.470589
H210	H	1.557041	-0.393585	0.029411
C211	C	1.069107	-0.257971	-0.574423
C212	C	1.569107	0.242029	-0.074423
H213	H	1.094899	-0.229674	-0.605608
H214	H	1.594899	0.270326	-0.105608
H215	H	1.098581	-0.286383	-0.546848
H216	H	1.598581	0.213617	-0.046848
H217	H	1.043221	-0.225615	-0.546851
H218	H	1.543221	0.274385	-0.046851
H219	H	1.056753	-0.271506	-0.712754
H220	H	1.556753	0.228494	-0.212754
H221	H	1.056784	-0.271452	-0.940280
H222	H	1.556784	0.228548	-0.440280
C223	C	0.887224	-0.457322	-0.930128
C224	C	1.387224	0.042678	-0.430128
H225	H	0.861435	-0.485595	-0.961295
H226	H	1.361435	0.014405	-0.461295
H227	H	0.857748	-0.428901	-0.902561
H228	H	1.357748	0.071099	-0.402561
H229	H	0.913080	-0.489700	-0.902543
H230	H	1.413080	0.010300	-0.402543
H231	H	0.899589	-0.443819	-0.712708
H232	H	1.399589	0.056181	-0.212708
C233	C	0.887212	-0.457445	-0.574357
C234	C	1.387212	0.042555	-0.074357
H235	H	0.861430	-0.485731	-0.605521
H236	H	1.361430	0.014269	-0.105521
H237	H	0.857727	-0.429056	-0.546772
H238	H	1.357727	0.070944	-0.046772
H239	H	0.913101	-0.489810	-0.546790
H240	H	1.413101	0.010190	-0.046790
H241	H	0.236441	-0.444075	-0.404574
H242	H	0.736441	0.055925	0.095426
