data_functionalizedCrystal
_audit_creation_method	'MofGen! by Chris Wilmer'
_symmetry_space_group_name_H-M	'P1'
_symmetry_Int_Tables_number	1
_symmetry_cell_setting	triclinic
loop_
_symmetry_equiv_pos_as_xyz
  x,y,z
_cell_length_a	14.519709
_cell_length_b	10.489741
_cell_length_c	13.596369
_cell_angle_alpha	89.999913
_cell_angle_beta	89.999684
_cell_angle_gamma	84.109659
loop_
_atom_site_label
_atom_site_type_symbol
_atom_site_fract_x
_atom_site_fract_y
_atom_site_fract_z
O1	O	1.224781	0.167193	-0.081663
O2	O	0.956411	0.186883	-0.081693
O3	O	1.096703	-0.008624	-0.081671
O4	O	1.084490	0.362699	-0.081684
O5	O	1.096686	-0.008613	0.081912
O6	O	0.956394	0.186894	0.081890
O7	O	1.224764	0.167204	0.081920
Zn8	Zn	1.090576	0.177050	0.107878
Zn9	Zn	1.090599	0.177036	-0.107650
O10	O	1.084472	0.362710	0.081899
C11	C	0.922038	0.185971	0.000095
C12	C	0.819642	0.183221	0.000084
C13	C	0.444691	0.173098	0.000129
C14	C	0.549014	0.175909	0.000116
C15	C	0.632163	0.178159	0.000105
C16	C	0.736493	0.180971	0.000094
C17	C	1.095772	-0.056140	0.000120
C18	C	1.093012	-0.197741	0.000118
C19	C	1.003749	-0.264951	0.000100
C20	C	1.045907	-0.357507	0.080760
C21	C	1.045946	-0.357493	-0.080520
C22	C	1.135207	-0.288433	0.080844
C23	C	1.135233	-0.288408	-0.080509
C24	C	1.177457	-0.380938	0.000171
C25	C	1.259137	0.168116	0.000130
C26	C	1.361533	0.170866	0.000135
C27	C	1.085403	0.410227	0.000106
C28	C	1.088163	0.551828	0.000101
N29	N	1.090567	0.177059	0.254969
N30	N	1.090615	0.177017	-0.254742
C31	C	1.090572	0.177062	0.343967
C32	C	1.090581	0.177054	0.455619
C33	C	1.090593	0.177039	0.544609
C34	C	1.090603	0.177032	0.656268
H35	H	1.008131	-0.388121	0.148944
C36	C	1.186174	-0.247318	0.173075
C37	C	1.198167	-0.104838	0.190148
C38	C	1.249129	-0.063720	0.282379
C39	C	1.288097	-0.165082	0.357536
C40	C	1.276105	-0.307571	0.340465
C41	C	1.225143	-0.348689	0.248234
H42	H	1.169320	-0.029796	0.134511
H43	H	1.258006	0.041760	0.295016
H44	H	1.325822	-0.134644	0.425811
H45	H	1.304952	-0.382613	0.396103
H46	H	1.216266	-0.454169	0.235597
H47	H	1.008172	-0.388067	-0.148718
H48	H	1.250914	-0.431128	0.000224
C49	C	1.186224	-0.246993	-0.172622
C50	C	1.224529	-0.347981	-0.248374
C51	C	1.275510	-0.306560	-0.340497
C52	C	1.288187	-0.164152	-0.356869
C53	C	1.249882	-0.063154	-0.281115
C54	C	1.198900	-0.104575	-0.188992
H55	H	1.215145	-0.453408	-0.236257
H56	H	1.303867	-0.381326	-0.396575
H57	H	1.325927	-0.133490	-0.425064
H58	H	1.259265	0.042273	-0.293232
H59	H	1.170544	-0.029809	-0.132914
C60	C	0.904606	-0.196830	0.000193
C61	C	0.838377	-0.218599	0.085633
C62	C	0.739238	-0.150477	0.085731
C63	C	0.706327	-0.060586	0.000389
C64	C	0.772556	-0.038813	-0.085057
C65	C	0.871696	-0.106935	-0.085155
H66	H	0.862739	-0.285145	0.148814
H67	H	0.690211	-0.166595	0.148985
H68	H	0.632938	-0.010158	0.000461
H69	H	0.748194	0.027734	-0.148239
H70	H	0.920723	-0.090817	-0.148409
