data_functionalizedCrystal
_audit_creation_method	'MofGen! by Chris Wilmer'
_symmetry_space_group_name_H-M	'P1'
_symmetry_Int_Tables_number	1
_symmetry_cell_setting	triclinic
loop_
_symmetry_equiv_pos_as_xyz
  x,y,z
_cell_length_a	11.792254
_cell_length_b	19.188924
_cell_length_c	10.268362
_cell_angle_alpha	89.992651
_cell_angle_beta	89.995475
_cell_angle_gamma	83.670281
loop_
_atom_site_label
_atom_site_type_symbol
_atom_site_fract_x
_atom_site_fract_y
_atom_site_fract_z
O1	O	1.505463	0.095738	-0.108306
O2	O	1.174976	0.105591	-0.108309
O3	O	1.349761	-0.000937	-0.108292
O4	O	1.330679	0.202266	-0.108323
O5	O	1.349746	-0.000942	0.108309
O6	O	1.174961	0.105586	0.108292
O7	O	1.505448	0.095733	0.108295
Cu8	Cu	1.340203	0.100659	0.128071
Cu9	Cu	1.340221	0.100665	-0.128085
O10	O	1.330664	0.202261	0.108278
C11	C	1.132687	0.104968	-0.000009
C12	C	1.006702	0.103110	-0.000010
C13	C	1.349137	-0.026954	0.000010
C14	C	1.347286	-0.104470	0.000013
C15	C	0.904388	0.101601	-0.000015
C16	C	0.776030	0.099713	-0.000016
C17	C	1.346430	-0.140871	-0.118056
C18	C	1.344675	-0.213704	-0.118066
C19	C	1.343798	-0.250134	-0.000000
C20	C	1.344647	-0.213723	0.118085
C21	C	1.346391	-0.140891	0.118091
N22	N	1.405639	-0.369447	0.087874
N23	N	1.403985	-0.438635	0.087860
C24	C	1.338541	-0.469573	-0.000013
N25	N	1.274828	-0.428711	-0.087891
N26	N	1.276487	-0.359517	-0.087880
C27	C	1.341906	-0.329108	0.000006
C28	C	1.335780	-0.584948	-0.118101
C29	C	1.334018	-0.657781	-0.118106
C30	C	1.334002	-0.657800	0.118049
C31	C	1.335753	-0.584967	0.118050
C32	C	1.336647	-0.548546	-0.000028
C33	C	1.547737	0.096356	-0.000008
C34	C	1.673722	0.098214	-0.000016
C35	C	1.331288	0.228278	-0.000027
C36	C	1.333139	0.305794	-0.000039
N37	N	1.340199	0.100655	0.308237
N38	N	1.340235	0.100663	-0.308251
C39	C	1.340216	0.100663	0.573907
C40	C	1.340203	0.100661	0.426069
H41	H	1.343971	-0.243347	-0.214215
O42	O	1.333066	-0.697086	0.245393
H43	H	1.254939	-0.724344	0.251037
O44	O	1.333087	-0.697042	-0.245464
H45	H	1.331708	-0.753805	-0.225635
H46	H	1.336459	-0.555330	0.214195
H47	H	1.347155	-0.111221	-0.214205
H48	H	1.343930	-0.243389	0.214215
H49	H	1.347083	-0.111253	0.214241
O50	O	1.336723	-0.545654	-0.245447
H51	H	1.335811	-0.583204	-0.327553
