data_functionalizedCrystal
_audit_creation_method	'MofGen! by Chris Wilmer'
_symmetry_space_group_name_H-M	'P1'
_symmetry_Int_Tables_number	1
_symmetry_cell_setting	triclinic
loop_
_symmetry_equiv_pos_as_xyz
  x,y,z
_cell_length_a	15.944551
_cell_length_b	27.732048
_cell_length_c	15.021413
_cell_angle_alpha	89.999048
_cell_angle_beta	89.997174
_cell_angle_gamma	83.070697
loop_
_atom_site_label
_atom_site_type_symbol
_atom_site_fract_x
_atom_site_fract_y
_atom_site_fract_z
O1	O	1.113714	0.062334	-0.073949
O2	O	0.869064	0.070020	-0.073973
O3	O	0.998987	-0.004187	-0.073943
O4	O	0.983790	0.136541	-0.073979
O5	O	0.998966	-0.004176	0.074121
O6	O	0.869043	0.070030	0.074092
O7	O	1.113693	0.062345	0.074115
Zn8	Zn	0.991365	0.066189	0.097612
Zn9	Zn	0.991392	0.066175	-0.097469
O10	O	0.983770	0.136551	0.074086
C11	C	0.837763	0.069706	0.000057
C12	C	0.744530	0.068749	0.000049
C13	C	0.530305	0.020466	0.000078
C14	C	0.469001	0.042882	-0.072931
C15	C	0.573827	0.067019	0.000060
C16	C	0.469003	0.042904	0.073049
C17	C	0.408936	0.065344	0.000074
C18	C	0.513752	0.089448	-0.073010
C19	C	0.513760	0.089463	0.073036
C20	C	0.452474	0.111912	0.000009
C21	C	0.668816	0.067983	0.000051
C22	C	0.313947	0.064384	0.000077
C23	C	0.998658	-0.022190	0.000091
C24	C	0.997697	-0.075849	0.000099
C25	C	1.068426	-0.414358	0.000060
C26	C	1.064862	-0.616033	0.000047
O27	O	1.129539	-0.647008	0.000014
N28	N	0.987823	-0.635490	0.000040
C29	C	0.911669	-0.604525	0.000031
O30	O	0.846061	-0.625703	0.000016
C31	C	0.915234	-0.402851	0.000038
C32	C	0.992278	-0.383397	0.000053
C33	C	1.145464	-0.394903	0.000074
C34	C	1.146354	-0.344487	0.000082
C35	C	1.070206	-0.313526	0.000076
C36	C	0.993168	-0.332981	0.000061
C37	C	0.839081	-0.371887	0.000022
C38	C	0.839979	-0.321466	0.000021
C39	C	0.917024	-0.302012	0.000037
C40	C	0.917911	-0.251604	0.000063
N41	N	0.994950	-0.232147	0.000069
C42	C	1.071098	-0.263108	0.000076
C43	C	0.909803	-0.710408	0.000030
C44	C	0.908912	-0.760826	0.000030
C45	C	1.062105	-0.772330	0.000044
C46	C	1.062995	-0.721911	0.000050
C47	C	0.986842	-0.690950	0.000036
C48	C	1.072961	-0.157231	0.000093
C49	C	1.073845	-0.106810	0.000105
C50	C	0.920652	-0.095310	0.000086
C51	C	0.919768	-0.145727	0.000079
C52	C	0.995930	-0.176686	0.000080
O53	O	0.853269	-0.220600	0.000085
O54	O	1.136697	-0.241921	0.000071
C55	C	1.067536	-0.464774	0.000052
C56	C	0.990498	-0.484228	0.000037
C57	C	0.914350	-0.453268	0.000031
C58	C	0.989607	-0.534647	0.000037
C59	C	1.065754	-0.565608	0.000044
C60	C	1.142794	-0.546150	0.000050
C61	C	1.143684	-0.495734	0.000058
C62	C	0.837311	-0.472725	0.000024
C63	C	0.836427	-0.523141	0.000017
C64	C	0.912575	-0.554102	0.000023
C65	C	1.144993	0.062658	0.000084
C66	C	1.238227	0.063615	0.000086
C67	C	0.984099	0.154554	0.000049
C68	C	0.985059	0.208213	0.000036
N69	N	0.991352	0.066198	0.230749
N70	N	0.991411	0.066162	-0.230607
C71	C	0.931267	0.100495	0.470419
C72	C	1.007044	0.109879	0.529758
C73	C	0.991374	0.066186	0.412356
C74	C	0.915617	0.056813	0.529759
C75	C	0.991388	0.066176	0.587780
C76	C	1.067190	0.075592	0.470389
C77	C	0.975712	0.022507	0.470385
C78	C	1.051545	0.031872	0.529697
C79	C	0.991365	0.066194	0.311299
C80	C	0.991406	0.066168	0.688836
H81	H	0.533491	0.109118	-0.134801
C82	C	0.442203	0.016304	0.156431
H83	H	0.404243	0.037845	0.190807
H84	H	0.490722	0.005519	0.191037
H85	H	0.415093	-0.010863	0.138883
C86	C	0.957767	-0.027370	0.435115
H87	H	0.903884	-0.033977	0.455406
H88	H	0.999918	-0.051810	0.456293
H89	H	0.958406	-0.027089	0.371879
H90	H	1.102437	0.002852	0.555561
H91	H	0.846175	-0.776661	0.000032
C92	C	0.540607	0.116044	0.156407
H93	H	0.525476	0.099460	0.208235
H94	H	0.512889	0.148347	0.156924
H95	H	0.600032	0.116712	0.155508
H96	H	1.020304	0.146814	0.555837
C97	C	0.826029	-0.676357	0.000026
H98	H	0.780026	-0.695170	0.000032
H99	H	0.823187	-0.656447	-0.051604
H100	H	0.823186	-0.656452	0.051669
H101	H	1.131275	0.083560	0.444419
H102	H	0.851544	0.048890	0.555840
H103	H	1.136586	-0.090973	0.000120
H104	H	0.858655	-0.070093	0.000084
H105	H	1.124107	-0.797547	0.000049
C106	C	0.576011	-0.031726	-0.000019
H107	H	0.560815	-0.048191	-0.051956
H108	H	0.560068	-0.048436	0.051316
H109	H	0.635361	-0.030747	0.000498
H110	H	0.418809	0.150587	-0.000042
C111	C	0.442185	0.016278	-0.156297
H112	H	0.469110	-0.016207	-0.156201
H113	H	0.458260	0.032498	-0.208144
H114	H	0.382638	0.016121	-0.155963
C115	C	1.226554	-0.580213	0.000050
H116	H	1.214981	-0.613026	0.000036
H117	H	1.258173	-0.574322	0.051684
H118	H	1.258173	-0.574314	-0.051589
C119	C	1.228433	-0.474341	0.000066
H120	H	1.273649	-0.500006	0.000061
H121	H	1.231967	-0.454913	0.051699
H122	H	1.231975	-0.454913	-0.051574
H123	H	0.880487	0.129533	0.444392
H124	H	1.134979	-0.182432	0.000090
H125	H	1.209091	-0.328652	0.000091
C126	C	1.147743	-0.700515	0.000059
H127	H	1.192962	-0.726179	0.000058
H128	H	1.151273	-0.681085	0.051690
H129	H	1.151285	-0.681089	-0.051583
H130	H	0.776344	-0.387718	0.000004
C131	C	0.756211	-0.287410	0.000007
H132	H	0.767769	-0.254596	0.000005
H133	H	0.724582	-0.293312	0.051632
H134	H	0.724608	-0.293310	-0.051641
C135	C	0.835023	-0.167128	0.000060
H136	H	0.789800	-0.141466	0.000052
H137	H	0.831475	-0.186563	0.051683
H138	H	0.831505	-0.186549	-0.051590
H139	H	0.773684	-0.538976	0.000012
H140	H	0.775301	-0.447521	0.000017
H141	H	1.207476	-0.420107	0.000076
