data_functionalizedCrystal
_audit_creation_method	'MofGen! by Chris Wilmer'
_symmetry_space_group_name_H-M	'P1'
_symmetry_Int_Tables_number	1
_symmetry_cell_setting	triclinic
loop_
_symmetry_equiv_pos_as_xyz
  x,y,z
_cell_length_a	10.723023
_cell_length_b	17.000383
_cell_length_c	9.798715
_cell_angle_alpha	89.997663
_cell_angle_beta	89.996770
_cell_angle_gamma	80.033926
loop_
_atom_site_label
_atom_site_type_symbol
_atom_site_fract_x
_atom_site_fract_y
_atom_site_fract_z
O1	O	1.643450	0.111563	-0.113474
O2	O	1.278983	0.122243	-0.113479
O3	O	1.483845	0.001161	-0.113471
O4	O	1.438588	0.232646	-0.113482
O5	O	1.483831	0.001160	0.113511
O6	O	1.278969	0.122243	0.113503
O7	O	1.643436	0.111563	0.113508
Zn8	Zn	1.461200	0.116903	0.149544
Zn9	Zn	1.461219	0.116903	-0.149515
O10	O	1.438574	0.232645	0.113500
C11	C	1.232572	0.121466	0.000011
C12	C	1.094304	0.119141	0.000009
C13	C	1.486269	-0.028480	0.000019
C14	C	1.493497	-0.116799	0.000014
C15	C	0.889767	0.115702	-0.117574
C16	C	1.032674	0.118105	-0.117575
C17	C	1.540167	-0.616761	0.000010
C18	C	1.533366	-0.533775	0.000018
C19	C	1.415319	-0.483425	0.000010
C20	C	1.304067	-0.516064	0.000007
C21	C	1.310869	-0.599048	0.000009
C22	C	1.389046	-0.232422	0.000013
C23	C	1.382252	-0.149433	0.000008
C24	C	1.611552	-0.167150	0.000021
C25	C	1.618344	-0.250135	0.000014
C26	C	1.507091	-0.282767	0.000019
C27	C	1.408365	-0.398600	0.000014
C28	C	1.514047	-0.367591	0.000025
C29	C	1.689847	0.112340	0.000015
C30	C	1.828115	0.114665	0.000008
C31	C	1.436150	0.262286	0.000007
C32	C	1.428922	0.350605	0.000003
N33	N	1.461197	0.116902	0.353644
N34	N	1.461233	0.116898	-0.353615
C35	C	1.547240	0.065839	0.421424
C36	C	1.547261	0.065836	0.578587
H37	H	0.836753	0.114805	-0.218241
Br38	Br	1.121031	0.119600	-0.285370
H39	H	1.387568	0.160620	0.588106
H40	H	1.041291	0.118254	0.100681
Br41	Br	1.670058	-0.007027	0.675730
Br42	Br	1.248163	-0.330261	-0.000004
H43	H	1.387542	0.160614	0.411965
Br44	Br	0.916468	0.116141	0.167803
H45	H	1.623953	-0.507209	0.000025
Br46	Br	1.700381	-0.685086	0.000005
H47	H	1.714470	-0.291126	0.000027
Br48	Br	1.762529	-0.122859	0.000018
Br49	Br	1.222036	-0.081099	-0.000001
H50	H	1.298456	-0.258981	0.000001
Br51	Br	1.159888	-0.643338	0.000014
Br52	Br	1.143858	-0.447732	0.000007
H53	H	1.610160	-0.408589	0.000038
H54	H	1.620887	0.022120	0.363104
