data_functionalizedCrystal
_audit_creation_method	'MofGen! by Chris Wilmer'
_symmetry_space_group_name_H-M	'P1'
_symmetry_Int_Tables_number	1
_symmetry_cell_setting	triclinic
loop_
_symmetry_equiv_pos_as_xyz
  x,y,z
_cell_length_a	10.654556
_cell_length_b	17.699083
_cell_length_c	9.730223
_cell_angle_alpha	90.002214
_cell_angle_beta	90.000637
_cell_angle_gamma	83.885212
loop_
_atom_site_label
_atom_site_type_symbol
_atom_site_fract_x
_atom_site_fract_y
_atom_site_fract_z
O1	O	1.665968	0.106321	0.114307
O2	O	1.300314	0.116444	0.114307
O3	O	1.493472	0.001259	0.114295
O4	O	1.472810	0.221506	0.114319
O5	O	1.493469	0.001262	-0.114285
O6	O	1.300311	0.116447	-0.114273
O7	O	1.665966	0.106324	-0.114273
Zn8	Zn	1.483138	0.111386	-0.150565
Zn9	Zn	1.483141	0.111382	0.150599
O10	O	1.472808	0.221509	-0.114261
C11	C	1.253528	0.115701	0.000017
C12	C	1.114124	0.113475	0.000016
C13	C	0.917650	0.110340	0.124626
C14	C	1.048636	0.112428	0.124620
C15	C	1.048621	0.112426	-0.124590
C16	C	0.917639	0.110333	-0.124583
C17	C	0.917658	0.110344	0.268506
C18	C	1.048644	0.112432	0.268500
C19	C	1.492730	-0.026941	0.000005
C20	C	1.490509	-0.110973	0.000004
C21	C	1.603889	-0.158872	0.000002
C22	C	1.601795	-0.237828	0.000014
C23	C	1.486319	-0.268885	0.000018
C24	C	1.372931	-0.220980	0.000025
C25	C	1.375027	-0.142025	0.000022
C26	C	1.364477	-0.539397	0.000036
C27	C	1.362390	-0.618358	0.000034
C28	C	1.591245	-0.635200	0.000028
C29	C	1.593340	-0.556245	0.000025
C30	C	1.479953	-0.508347	0.000039
C31	C	1.482225	-0.422734	0.000028
C32	C	1.484046	-0.354497	0.000019
C33	C	1.712752	0.107067	0.000020
C34	C	1.852156	0.109294	0.000029
C35	C	1.473550	0.249709	0.000032
C36	C	1.475771	0.333742	0.000042
N37	N	1.483146	0.111388	-0.356102
C38	C	1.568698	0.060402	-0.428033
C39	C	1.568694	0.060393	-0.571916
C40	C	1.397583	0.162363	-0.571923
C41	C	1.397581	0.162368	-0.428043
C42	C	1.667491	0.001532	-0.428030
C43	C	1.667488	0.001523	-0.571913
N44	N	1.483144	0.111374	0.356135
H45	H	1.101954	0.113273	-0.226045
H46	H	0.893770	0.056906	0.323749
F47	F	1.254352	-0.091047	0.000028
F48	F	1.306513	0.216625	-0.351489
F49	F	1.306524	0.216616	-0.648500
F50	F	1.640795	-0.074503	-0.376985
F51	F	1.786245	0.025635	-0.369690
H52	H	0.864323	0.109466	-0.226041
H53	H	1.763772	0.014492	-0.610962
F54	F	0.848837	0.180794	0.326867
F55	F	1.117468	0.041978	0.326848
F56	F	1.079888	0.182280	0.340703
H57	H	1.697922	-0.133592	-0.000010
F58	F	1.722469	-0.288803	0.000010
F59	F	1.239479	-0.651408	0.000040
F60	F	1.628855	-0.070327	-0.630244
F61	F	1.711923	-0.686183	0.000018
H62	H	1.272149	-0.500407	0.000046
F63	F	1.716245	-0.523197	0.000022
F64	F	1.250033	-0.254035	0.000045
