data_functionalizedCrystal
_audit_creation_method	'MofGen! by Chris Wilmer'
_symmetry_space_group_name_H-M	'P1'
_symmetry_Int_Tables_number	1
_symmetry_cell_setting	triclinic
loop_
_symmetry_equiv_pos_as_xyz
  x,y,z
_cell_length_a	8.634740
_cell_length_b	8.559649
_cell_length_c	15.186229
_cell_angle_alpha	89.998040
_cell_angle_beta	89.996933
_cell_angle_gamma	85.174486
loop_
_atom_site_label
_atom_site_type_symbol
_atom_site_fract_x
_atom_site_fract_y
_atom_site_fract_z
O1	O	1.985469	0.511628	-0.073223
O2	O	1.541598	0.468726	-0.073224
O3	O	1.802639	0.263595	-0.073223
O4	O	1.724428	0.716758	-0.073225
O5	O	1.802624	0.263590	0.073235
O6	O	1.541583	0.468720	0.073233
O7	O	1.985454	0.511622	0.073235
Zn8	Zn	1.763516	0.490170	0.096487
Zn9	Zn	1.763536	0.490178	-0.096477
O10	O	1.724413	0.716753	0.073233
C11	C	1.485291	0.459004	0.000004
C12	C	1.317539	0.430026	0.000003
C13	C	1.808558	0.204975	0.000004
C14	C	1.826201	0.030311	-0.000000
C15	C	2.041761	0.521344	0.000004
C16	C	2.209512	0.550322	-0.000001
C17	C	1.718493	0.775373	0.000004
C18	C	1.700851	0.950037	0.000003
N19	N	1.763513	0.490166	0.228180
N20	N	1.763552	0.490172	-0.228169
C21	C	1.879133	0.399375	0.453903
C22	C	1.879138	0.399372	0.546093
C23	C	1.647920	0.580965	0.546100
C24	C	1.647910	0.580959	0.453912
C25	C	1.763525	0.490167	0.407816
C26	C	1.763540	0.490170	0.592194
C27	C	1.763545	0.490168	0.692150
C28	C	1.763519	0.490167	0.307854
H29	H	1.281685	0.304857	-0.000021
H30	H	1.245360	0.675483	0.000007
C31	C	1.989429	-0.057366	0.000005
N32	N	2.112371	-0.123406	0.000008
C33	C	2.006302	0.299487	0.403201
N34	N	2.102085	0.224243	0.365014
C35	C	1.537631	0.037708	-0.000003
N36	N	1.414691	0.103751	-0.000009
C37	C	2.006306	0.299480	0.596785
N38	N	2.102090	0.224230	0.634965
H39	H	1.553791	0.654889	0.583641
C40	C	1.520786	0.680923	0.403214
N41	N	1.425059	0.756241	0.365027
