data_functionalizedCrystal
_audit_creation_method	'MofGen! by Chris Wilmer'
_symmetry_space_group_name_H-M	'P1'
_symmetry_Int_Tables_number	1
_symmetry_cell_setting	triclinic
loop_
_symmetry_equiv_pos_as_xyz
  x,y,z
_cell_length_a	16.625547
_cell_length_b	21.295417
_cell_length_c	16.625539
_cell_angle_alpha	89.967674
_cell_angle_beta	89.975178
_cell_angle_gamma	90.029639
loop_
_atom_site_label
_atom_site_type_symbol
_atom_site_fract_x
_atom_site_fract_y
_atom_site_fract_z
Zn1	Zn	1.232640	-0.250609	-0.455978
Zn2	Zn	1.565973	0.082724	-0.122645
Zn3	Zn	1.899307	0.416058	0.210688
Zn4	Zn	1.232526	-0.355882	-0.321136
Zn5	Zn	1.565859	-0.022549	0.012197
Zn6	Zn	1.899193	0.310784	0.345531
Zn7	Zn	1.097802	-0.250631	-0.321149
Zn8	Zn	1.431135	0.082702	0.012185
Zn9	Zn	1.764468	0.416036	0.345518
Zn10	Zn	1.097755	-0.355844	-0.455916
Zn11	Zn	1.431089	-0.022511	-0.122583
Zn12	Zn	1.764422	0.310822	0.210751
O13	O	1.165181	-0.303242	-0.388545
O14	O	1.498514	0.030092	-0.055211
O15	O	1.831847	0.363425	0.278122
O16	O	1.345457	-0.264581	-0.438112
O17	O	1.678791	0.068753	-0.104779
O18	O	2.012124	0.402086	0.228555
O19	O	1.214627	-0.341946	-0.208305
O20	O	1.547960	-0.008612	0.125028
O21	O	1.881293	0.324721	0.458361
O22	O	1.115755	-0.162539	-0.339066
O23	O	1.449089	0.170795	-0.005732
O24	O	1.782422	0.504128	0.327601
O25	O	1.345374	-0.341925	-0.339044
O26	O	1.678707	-0.008591	-0.005711
O27	O	2.012040	0.324742	0.327623
O28	O	1.214821	-0.162523	-0.438124
O29	O	1.548154	0.170811	-0.104791
O30	O	1.881487	0.504144	0.228542
O31	O	1.115645	-0.264618	-0.208315
O32	O	1.448978	0.068715	0.125019
O33	O	1.782312	0.402049	0.458352
O34	O	0.984963	-0.264581	-0.339005
O35	O	1.318297	0.068752	-0.005672
O36	O	1.651630	0.402086	0.327661
O37	O	1.115676	-0.341859	-0.568757
O38	O	1.449009	-0.008526	-0.235423
O39	O	1.782343	0.324807	0.097910
O40	O	0.984929	-0.341881	-0.438018
O41	O	1.318262	-0.008547	-0.104685
O42	O	1.651596	0.324786	0.228649
O43	O	1.214775	-0.264544	-0.568802
O44	O	1.548109	0.068790	-0.235469
O45	O	1.881442	0.402123	0.097864
O46	O	1.214581	-0.443967	-0.338983
O47	O	1.547915	-0.110633	-0.005650
O48	O	1.881248	0.222700	0.327683
O49	O	1.115566	-0.443939	-0.438006
O50	O	1.448899	-0.110605	-0.104672
O51	O	1.782232	0.222728	0.228661
C52	C	0.955690	-0.303229	-0.388507
C53	C	1.289023	0.030104	-0.055173
C54	C	1.622357	0.363437	0.278160
C55	C	0.866069	-0.303239	-0.388510
C56	C	1.199402	0.030094	-0.055176
C57	C	1.532735	0.363427	0.278157
C58	C	0.793286	-0.303241	-0.388519
C59	C	1.126620	0.030093	-0.055186
C60	C	1.459953	0.363426	0.278147
C61	C	0.701978	-0.303244	-0.388540
C62	C	1.035311	0.030089	-0.055206
C63	C	1.368645	0.363423	0.278127
C64	C	0.629201	-0.303250	-0.388560
C65	C	0.962535	0.030084	-0.055227
C66	C	1.295868	0.363417	0.278107
C67	C	0.537887	-0.303254	-0.388579
C68	C	0.871221	0.030079	-0.055246
C69	C	1.204554	0.363413	0.278087
C70	C	1.165078	-0.466793	-0.388504
C71	C	1.498411	-0.133460	-0.055171
C72	C	1.831745	0.199873	0.278163
C73	C	1.165108	-0.536761	-0.388513
C74	C	1.498441	-0.203428	-0.055180
C75	C	1.831774	0.129905	0.278153
C76	C	1.216661	-0.569563	-0.440130
C77	C	1.549995	-0.236229	-0.106797
C78	C	1.883328	0.097104	0.226537
C79	C	1.216690	-0.635305	-0.440150
C80	C	1.550023	-0.301972	-0.106817
C81	C	1.883357	0.031362	0.226517
C82	C	1.165173	-0.668244	-0.388539
C83	C	1.498507	-0.334911	-0.055206
C84	C	1.831840	-0.001577	0.278128
C85	C	1.113610	-0.635435	-0.336919
C86	C	1.446943	-0.302102	-0.003585
C87	C	1.780276	0.031232	0.329748
C88	C	1.113577	-0.569694	-0.336906
C89	C	1.446910	-0.236360	-0.003573
C90	C	1.780243	0.096973	0.329761
N91	N	1.159082	-0.771508	-0.317973
N92	N	1.492415	-0.438174	0.015360
N93	N	1.825748	-0.104841	0.348694
N94	N	1.159117	-0.833959	-0.317987
N95	N	1.492451	-0.500626	0.015346
N96	N	1.825784	-0.167292	0.348679
C97	C	1.165267	-0.866319	-0.388575
C98	C	1.498601	-0.532985	-0.055242
C99	C	1.831934	-0.199652	0.278091
N100	N	1.171396	-0.833868	-0.459150
N101	N	1.504729	-0.500534	-0.125816
N102	N	1.838063	-0.167201	0.207517
N103	N	1.171364	-0.771410	-0.459134
N104	N	1.504698	-0.438077	-0.125801
N105	N	1.838031	-0.104744	0.207532
C106	C	1.165203	-0.739529	-0.388547
C107	C	1.498536	-0.406196	-0.055214
C108	C	1.831869	-0.072863	0.278119
C109	C	1.216855	-0.970405	-0.440218
C110	C	1.550188	-0.637072	-0.106885
C111	C	1.883521	-0.303739	0.226449
C112	C	1.216877	-1.036149	-0.440239
C113	C	1.550211	-0.702816	-0.106906
C114	C	1.883544	-0.369482	0.226428
C115	C	1.113801	-1.036278	-0.337000
C116	C	1.447135	-0.702944	-0.003667
C117	C	1.780468	-0.369611	0.329666
C118	C	1.113774	-0.970535	-0.336986
C119	C	1.447108	-0.637202	-0.003653
C120	C	1.780441	-0.303868	0.329680
C121	C	1.165305	-0.937603	-0.388594
C122	C	1.498639	-0.604270	-0.055261
C123	C	1.831972	-0.270936	0.278073
C124	C	1.375490	-0.303254	-0.388583
C125	C	1.708823	0.030079	-0.055250
C126	C	2.042156	0.363412	0.278083
C127	C	1.465111	-0.303260	-0.388600
C128	C	1.798444	0.030073	-0.055267
C129	C	2.131777	0.363407	0.278067
C130	C	1.165233	-0.303195	-0.598854
C131	C	1.498567	0.030139	-0.265520
C132	C	1.831900	0.363472	0.067813
C133	C	1.165256	-0.303175	-0.688475
C134	C	1.498589	0.030159	-0.355142
C135	C	1.831922	0.363492	-0.021808
C136	C	1.165306	-0.139051	-0.388603
C137	C	1.498639	0.194282	-0.055270
C138	C	1.831973	0.527615	0.278063
C139	C	1.165359	-0.069083	-0.388628
C140	C	1.498693	0.264250	-0.055295
C141	C	1.832026	0.597583	0.278038
C142	C	1.165293	-0.303104	-1.016651
C143	C	1.498626	0.030229	-0.683317
C144	C	1.831959	0.363562	-0.349984
C145	C	1.165280	-0.303126	-0.925342
C146	C	1.498613	0.030207	-0.592009
C147	C	1.831947	0.363541	-0.258676
C148	C	1.165275	-0.303140	-0.852566
C149	C	1.498608	0.030193	-0.519232
C150	C	1.831941	0.363527	-0.185899
C151	C	1.165261	-0.303161	-0.761251
C152	C	1.498594	0.030173	-0.427918
C153	C	1.831928	0.363506	-0.094585
C154	C	1.165175	-0.303243	-0.179054
C155	C	1.498508	0.030090	0.154279
C156	C	1.831842	0.363424	0.487613
C157	C	1.165309	-0.303086	-0.089433
C158	C	1.498642	0.030248	0.243900
C159	C	1.831976	0.363581	0.577233
H160	H	1.258619	-0.542751	-0.482154
H161	H	1.591952	-0.209418	-0.148821
H162	H	1.925286	0.123916	0.184513
H163	H	1.071662	-0.662258	-0.294898
H164	H	1.404996	-0.328925	0.038435
H165	H	1.738329	0.004409	0.371768
C166	C	1.056858	-0.533611	-0.280124
C167	C	1.390192	-0.200278	0.053209
C168	C	1.723525	0.133055	0.386543
N169	N	1.014136	-0.506433	-0.237355
N170	N	1.347470	-0.173100	0.095978
N171	N	1.680803	0.160233	0.429311
H172	H	1.258812	-0.943591	-0.482243
H173	H	1.592145	-0.610257	-0.148909
H174	H	1.925479	-0.276924	0.184424
H175	H	1.258858	-1.062854	-0.482275
H176	H	1.592192	-0.729521	-0.148942
H177	H	1.925525	-0.396188	0.184391
H178	H	1.071850	-1.063096	-0.294983
H179	H	1.405184	-0.729762	0.038351
H180	H	1.738517	-0.396429	0.371684
H181	H	1.258664	-0.662017	-0.482192
H182	H	1.591998	-0.328684	-0.148859
H183	H	1.925331	0.004650	0.184475
C184	C	1.057056	-0.934452	-0.280208
C185	C	1.390389	-0.601119	0.053126
C186	C	1.723722	-0.267786	0.386459
N187	N	1.014327	-0.907275	-0.237445
N188	N	1.347661	-0.573942	0.095889
N189	N	1.680994	-0.240609	0.429222
