data_functionalizedCrystal
_audit_creation_method	'MofGen! by Chris Wilmer'
_symmetry_space_group_name_H-M	'P1'
_symmetry_Int_Tables_number	1
_symmetry_cell_setting	triclinic
loop_
_symmetry_equiv_pos_as_xyz
  x,y,z
_cell_length_a	14.853567
_cell_length_b	14.853569
_cell_length_c	14.472311
_cell_angle_alpha	89.996299
_cell_angle_beta	89.992641
_cell_angle_gamma	96.364624
loop_
_atom_site_label
_atom_site_type_symbol
_atom_site_fract_x
_atom_site_fract_y
_atom_site_fract_z
O1	O	0.117702	-1.196367	0.076782
O2	O	0.131722	-0.933908	0.076794
O3	O	-0.006518	-1.072148	0.076791
O4	O	0.255942	-1.058127	0.076786
O5	O	-0.006500	-1.072129	-0.076891
O6	O	0.131740	-0.933889	-0.076888
O7	O	0.117720	-1.196348	-0.076900
Cu8	Cu	0.124732	-1.065117	-0.090926
Cu9	Cu	0.124710	-1.065139	0.090821
O10	O	0.255960	-1.058108	-0.076896
C11	C	0.131095	-0.900310	-0.000045
C12	C	0.129191	-0.800226	-0.000040
C13	C	0.046180	-0.763850	-0.000035
C14	C	0.210412	-0.742560	-0.000048
C15	C	0.208626	-0.648526	-0.000049
C16	C	0.125615	-0.612149	-0.000044
C17	C	0.044390	-0.669807	-0.000038
C18	C	0.289848	-0.590861	-0.000064
C19	C	0.288065	-0.496821	-0.000065
C20	C	0.205053	-0.460443	-0.000053
C21	C	0.123825	-0.518107	-0.000047
C22	C	0.040814	-0.481730	-0.000042
C23	C	-0.040414	-0.539393	-0.000028
C24	C	-0.038622	-0.633429	-0.000026
C25	C	0.203260	-0.366407	-0.000055
C26	C	0.039025	-0.387688	-0.000045
C27	C	-0.040097	-1.071503	-0.000047
C28	C	-0.140181	-1.069599	-0.000039
C29	C	-0.552716	-0.979434	-0.000053
C30	C	-0.573995	-1.143667	-0.000060
C31	C	-0.479962	-1.145457	-0.000055
C32	C	-0.422300	-1.064234	-0.000050
C33	C	-0.458673	-0.981222	-0.000050
C34	C	-0.443582	-1.228468	-0.000064
C35	C	-0.349543	-1.230261	-0.000060
C36	C	-0.291880	-1.149038	-0.000048
C37	C	-0.328258	-1.066022	-0.000047
C38	C	-0.270596	-0.984799	-0.000042
C39	C	-0.306972	-0.901782	-0.000035
C40	C	-0.401010	-0.899998	-0.000039
C41	C	-0.197842	-1.150822	-0.000044
C42	C	-0.176554	-0.986587	-0.000040
C43	C	0.289539	-1.058753	-0.000056
C44	C	0.389623	-1.060656	-0.000058
N45	N	0.124746	-1.065108	-0.218757
C46	C	0.118346	-0.229946	-0.000057
C47	C	0.120249	-0.330030	-0.000050
C48	C	0.124726	-1.065124	-0.407257
C49	C	0.198669	-0.991142	-0.446486
C50	C	0.198467	-0.990888	-0.553574
C51	C	0.124709	-1.065139	-0.592848
C52	C	0.030501	-1.044860	-0.553955
C53	C	0.030945	-1.044320	-0.446834
C54	C	0.144142	-1.159611	-0.446721
C55	C	0.146268	-1.158989	-0.553850
C56	C	0.124692	-1.065150	-0.697736
C57	C	0.124736	-1.065111	-0.302369
N58	N	0.124689	-1.065155	0.218652
H59	H	0.357431	-0.620487	-0.000074
C60	C	-0.228326	-1.312978	-0.000052
C61	C	-0.157857	-1.242065	-0.000045
H62	H	-0.203640	-1.369310	-0.000044
H63	H	-0.264546	-1.308860	-0.053645
H64	H	-0.264577	-1.308864	0.053540
H65	H	-0.121610	-1.246175	-0.053640
H66	H	-0.121622	-1.246185	0.053554
H67	H	-0.025756	-1.096169	-0.420881
C68	C	-0.058469	-0.893326	0.078972
C69	C	-0.113176	-0.897302	-0.000031
H70	H	-0.019347	-0.838202	0.078979
H71	H	-0.023347	-0.943011	0.078959
H72	H	-0.095614	-0.896053	0.132558
H73	H	-0.076031	-0.894581	-0.053617
H74	H	-0.148301	-0.847603	-0.000026
C75	C	-0.490668	-1.367887	-0.079078
C76	C	-0.506959	-1.317745	-0.000071
H77	H	-0.529802	-1.423003	-0.079081
H78	H	-0.429465	-1.380830	-0.079074
H79	H	-0.501706	-1.333837	-0.132661
H80	H	-0.495916	-1.351793	0.053513
H81	H	-0.568177	-1.304804	-0.000066
H82	H	0.354206	-0.449880	-0.000074
C83	C	0.296526	-0.248306	-0.079076
C84	C	0.292538	-0.303028	-0.000072
H85	H	0.351649	-0.209183	-0.079087
H86	H	0.246840	-0.213184	-0.079061
H87	H	0.293807	-0.285440	-0.132662
H88	H	0.295250	-0.265894	0.053513
H89	H	0.342238	-0.338152	-0.000079
H90	H	0.013053	-0.976757	-0.580803
H91	H	0.268478	-1.002928	-0.579872
H92	H	-0.260012	-0.835651	-0.000037
H93	H	-0.430636	-0.832410	-0.000034
C94	C	0.307693	-0.835973	0.078939
C95	C	0.301653	-0.782545	-0.000060
H96	H	0.364027	-0.860655	0.078931
H97	H	0.259580	-0.883764	0.078935
H98	H	0.303583	-0.799726	0.132527
H99	H	0.305757	-0.818794	-0.053649
H100	H	0.349780	-0.734748	-0.000065
C101	C	0.230212	-1.260270	-0.639355
C102	C	0.239822	-1.179782	-0.588172
H103	H	0.287969	-1.273105	-0.660544
H104	H	0.191798	-1.253736	-0.690822
H105	H	0.204363	-1.308557	-0.601401
H106	H	0.265665	-1.131492	-0.626128
H107	H	0.278250	-1.186309	-0.536697
C108	C	-0.178058	-0.680544	0.078993
C109	C	-0.127899	-0.696815	-0.000015
H110	H	-0.233170	-0.719684	0.078999
H111	H	-0.191009	-0.619343	0.078987
H112	H	-0.144016	-0.691586	0.132575
H113	H	-0.161939	-0.685767	-0.053598
H114	H	-0.114951	-0.758031	-0.000018
C115	C	0.286695	-1.083645	-0.354595
C116	C	0.293507	-1.007105	-0.411723
H117	H	0.345246	-1.093495	-0.333126
H118	H	0.261365	-1.135025	-0.388568
H119	H	0.248864	-1.074315	-0.303339
H120	H	0.331333	-1.016438	-0.462983
H121	H	0.318850	-0.955714	-0.377749
H122	H	0.186389	-0.921414	-0.419581
H123	H	-0.108002	-0.509762	-0.000018
C124	C	-0.563534	-0.838911	0.078965
C125	C	-0.592698	-0.888186	-0.000042
H126	H	-0.588223	-0.782581	0.078973
H127	H	-0.499284	-0.828354	0.078955
H128	H	-0.583330	-0.872376	0.132548
H129	H	-0.572896	-0.854723	-0.053626
H130	H	-0.656961	-0.898739	-0.000041
C131	C	-0.621103	-1.283106	0.078936
C132	C	-0.637373	-1.232943	-0.000066
H133	H	-0.660231	-1.338226	0.078929
H134	H	-0.632156	-1.249077	0.132517
H135	H	-0.559891	-1.296047	0.078930
H136	H	-0.698585	-1.219997	-0.000057
H137	H	-0.626328	-1.266980	-0.053661
H138	H	-0.319934	-1.297858	-0.000064
C139	C	0.171757	-0.839521	-0.512442
C140	C	0.181682	-0.896224	-0.588197
H141	H	0.161402	-0.781076	-0.533819
H142	H	0.225342	-0.834910	-0.476145
H143	H	0.121786	-0.864118	-0.475996
H144	H	0.231659	-0.871631	-0.624640
H145	H	0.128092	-0.900832	-0.624509
H146	H	-0.025872	-1.097329	-0.579391
H147	H	0.090228	-1.214664	-0.421344
C148	C	-0.006086	-0.896590	-0.489407
C149	C	0.007958	-0.951305	-0.413114
H150	H	-0.020270	-0.839164	-0.468592
H151	H	-0.054831	-0.924632	-0.525390
H152	H	0.047329	-0.888856	-0.525974
H153	H	-0.045459	-0.959045	-0.376552
H154	H	0.056707	-0.923257	-0.377117
C155	C	0.015509	-1.201661	-0.648153
C156	C	0.078320	-1.236781	-0.589928
H157	H	-0.026446	-1.249686	-0.670421
H158	H	0.046368	-1.171572	-0.698829
H159	H	-0.016002	-1.159917	-0.614690
H160	H	0.109837	-1.278520	-0.623393
H161	H	0.047458	-1.266884	-0.539245
H162	H	-0.028573	-0.358078	-0.000036
C163	C	-0.093256	-0.810941	0.078990
C164	C	-0.043103	-0.827228	-0.000017
H165	H	-0.148372	-0.850074	0.079003
H166	H	-0.106198	-0.749737	0.078977
H167	H	-0.059213	-0.821981	0.132573
H168	H	-0.077143	-0.816182	-0.053601
H169	H	-0.030163	-0.888447	-0.000013
H170	H	0.211402	-1.179155	-0.419715
