data_functionalizedCrystal
_audit_creation_method	'MofGen! by Chris Wilmer'
_symmetry_space_group_name_H-M	'P1'
_symmetry_Int_Tables_number	1
_symmetry_cell_setting	triclinic
loop_
_symmetry_equiv_pos_as_xyz
  x,y,z
_cell_length_a	23.532407
_cell_length_b	23.532355
_cell_length_c	22.610064
_cell_angle_alpha	90.004126
_cell_angle_beta	90.005928
_cell_angle_gamma	82.838088
loop_
_atom_site_label
_atom_site_type_symbol
_atom_site_fract_x
_atom_site_fract_y
_atom_site_fract_z
O1	O	0.068982	0.755278	-0.049110
O2	O	0.402315	1.088611	0.284223
O3	O	0.735648	1.421945	0.617557
O4	O	0.079016	0.589410	-0.049130
O5	O	0.412349	0.922744	0.284204
O6	O	0.745682	1.256077	0.617537
O7	O	-0.008934	0.677346	-0.049108
O8	O	0.324399	1.010679	0.284225
O9	O	0.657733	1.344013	0.617558
O10	O	0.156931	0.667342	-0.049131
O11	O	0.490265	1.000676	0.284202
O12	O	0.823598	1.334009	0.617535
O13	O	-0.008912	0.677340	0.049261
O14	O	0.324422	1.010673	0.382594
O15	O	0.657755	1.344007	0.715927
O16	O	0.079038	0.589404	0.049239
O17	O	0.412371	0.922738	0.382573
O18	O	0.745705	1.256071	0.715906
O19	O	0.069004	0.755272	0.049259
O20	O	0.402337	1.088605	0.382592
O21	O	0.735671	1.421939	0.715926
Zn22	Zn	0.074025	0.672337	0.064868
Zn23	Zn	0.407358	1.005670	0.398201
Zn24	Zn	0.740691	1.339004	0.731534
Zn25	Zn	0.073995	0.672345	-0.064738
Zn26	Zn	0.407328	1.005678	0.268595
Zn27	Zn	0.740662	1.339012	0.601929
O28	O	0.156954	0.667336	0.049238
O29	O	0.490287	1.000670	0.382571
O30	O	0.823620	1.334003	0.715905
C31	C	0.078776	0.568191	0.000052
C32	C	0.412109	0.901524	0.333386
C33	C	0.745443	1.234857	0.666719
C34	C	0.078022	0.504972	0.000045
C35	C	0.411355	0.838305	0.333379
C36	C	0.744689	1.171639	0.666712
C37	C	-0.030139	0.677088	0.000078
C38	C	0.303195	1.010421	0.333411
C39	C	0.636528	1.343755	0.666744
C40	C	-0.093356	0.676322	0.000082
C41	C	0.239978	1.009656	0.333415
C42	C	0.573311	1.342989	0.666749
C43	C	0.073296	0.112955	0.053692
C44	C	0.406629	0.446288	0.387025
C45	C	0.739963	0.779622	0.720359
C46	C	0.072579	0.053556	0.053694
C47	C	0.405912	0.386889	0.387028
C48	C	0.739245	0.720222	0.720361
O49	O	0.072199	0.022834	0.099296
O50	O	0.405532	0.356168	0.432630
O51	O	0.738865	0.689501	0.765963
N52	N	0.072211	0.023850	0.000074
N53	N	0.405544	0.357184	0.333407
N54	N	0.738877	0.690517	0.666740
C55	C	0.072554	0.053549	-0.053553
C56	C	0.405888	0.386882	0.279780
C57	C	0.739221	0.720215	0.613113
O58	O	0.072175	0.022828	-0.099162
O59	O	0.405508	0.356161	0.234172
O60	O	0.738842	0.689494	0.567505
C61	C	0.073268	0.112947	-0.053555
C62	C	0.406601	0.446281	0.279778
C63	C	0.739934	0.779614	0.613112
C64	C	0.073641	0.142649	0.000069
C65	C	0.406975	0.475982	0.333403
C66	C	0.740308	0.809315	0.666736
C67	C	0.073669	0.142656	0.107312
C68	C	0.407003	0.475990	0.440645
C69	C	0.740336	0.809323	0.773979
C70	C	0.074388	0.202052	0.107309
C71	C	0.407721	0.535385	0.440643
C72	C	0.741054	0.868718	0.773976
C73	C	0.074733	0.231745	0.053687
C74	C	0.408066	0.565079	0.387020
C75	C	0.741400	0.898412	0.720353
C76	C	0.074360	0.202044	0.000067
C77	C	0.407693	0.535377	0.333400
C78	C	0.741027	0.868711	0.666733
C79	C	0.073607	0.142645	-0.107181
C80	C	0.406941	0.475978	0.226152
C81	C	0.740274	0.809312	0.559486
C82	C	0.074320	0.202048	-0.107178
C83	C	0.407654	0.535381	0.226155
C84	C	0.740987	0.868715	0.559489
C85	C	0.074694	0.231749	-0.053554
C86	C	0.408027	0.565083	0.279779
C87	C	0.741361	0.898416	0.613113
C88	C	0.075424	0.291133	-0.053558
C89	C	0.408757	0.624466	0.279775
C90	C	0.742090	0.957799	0.613108
N91	N	0.075792	0.320838	0.000062
N92	N	0.409125	0.654171	0.333396
N93	N	0.742458	0.987505	0.666729
C94	C	0.075446	0.291144	0.053685
C95	C	0.408780	0.624478	0.387018
C96	C	0.742113	0.957811	0.720352
C97	C	0.071055	-0.071193	-0.053545
C98	C	0.404389	0.262140	0.279788
C99	C	0.737722	0.595474	0.613121
C100	C	0.070346	-0.130591	-0.053544
C101	C	0.403679	0.202742	0.279789
C102	C	0.737013	0.536075	0.613122
C103	C	0.070369	-0.130580	0.053703
C104	C	0.403703	0.202753	0.387037
C105	C	0.737036	0.536087	0.720370
C106	C	0.071083	-0.071181	0.053702
C107	C	0.404416	0.262152	0.387035
C108	C	0.737749	0.595486	0.720368
C109	C	0.071423	-0.041488	0.000075
C110	C	0.404757	0.291846	0.333409
C111	C	0.738090	0.625179	0.666742
C112	C	0.076956	0.415878	0.053675
C113	C	0.410289	0.749212	0.387009
C114	C	0.743622	1.082545	0.720342
C115	C	0.077677	0.475278	0.053668
C116	C	0.411010	0.808612	0.387001
C117	C	0.744343	1.141945	0.720335
C118	C	0.077650	0.475262	-0.053579
C119	C	0.410984	0.808596	0.279754
C120	C	0.744317	1.141929	0.613087
C121	C	0.076933	0.415867	-0.053572
C122	C	0.410266	0.749200	0.279761
C123	C	0.743599	1.082534	0.613094
C124	C	0.076583	0.386177	0.000060
C125	C	0.409917	0.719510	0.333393
C126	C	0.743250	1.052843	0.666727
O127	O	0.075802	0.321892	-0.099137
O128	O	0.409135	0.655226	0.234196
O129	O	0.742469	0.988559	0.567529
O130	O	0.075818	0.321873	0.099286
O131	O	0.409152	0.655207	0.432619
O132	O	0.742485	0.988540	0.765952
C133	C	-0.492468	0.723557	0.000055
C134	C	-0.159134	1.056890	0.333389
C135	C	0.174199	1.390224	0.666722
C136	C	-0.551868	0.722845	0.000051
C137	C	-0.218534	1.056179	0.333384
C138	C	0.114799	1.389512	0.666717
O139	O	-0.588620	0.766632	0.000034
O140	O	-0.255287	1.099966	0.333367
O141	O	0.078046	1.433299	0.666701
N142	N	-0.574484	0.670568	0.000045
N143	N	-0.241151	1.003901	0.333378
N144	N	0.092183	1.337234	0.666712
C145	C	-0.537697	0.618998	0.000038
C146	C	-0.204364	0.952332	0.333371
C147	C	0.128970	1.285665	0.666704
O148	O	-0.562388	0.574467	0.000032
O149	O	-0.229055	0.907800	0.333365
O150	O	0.104278	1.241133	0.666698
C151	C	-0.478298	0.619710	0.000038
C152	C	-0.144965	0.953044	0.333371
C153	C	0.188369	1.286377	0.666705
C154	C	-0.455685	0.671991	0.000050
C155	C	-0.122352	1.005325	0.333383
C156	C	0.210982	1.338658	0.666716
C157	C	-0.469854	0.775834	0.000066
C158	C	-0.136521	1.109167	0.333400
C159	C	0.196813	1.442500	0.666733
C160	C	-0.410458	0.776545	0.000072
C161	C	-0.077125	1.109878	0.333405
C162	C	0.256209	1.443212	0.666739
C163	C	-0.373675	0.724979	0.000067
C164	C	-0.040342	1.058313	0.333400
C165	C	0.292991	1.391646	0.666733
C166	C	-0.396289	0.672703	0.000055
C167	C	-0.062956	1.006036	0.333389
C168	C	0.270378	1.339369	0.666722
C169	C	-0.441512	0.568141	0.000027
C170	C	-0.108179	0.901475	0.333360
C171	C	0.225155	1.234808	0.666693
C172	C	-0.382110	0.568858	0.000026
C173	C	-0.048776	0.902191	0.333360
C174	C	0.284557	1.235525	0.666693
C175	C	-0.359497	0.621139	0.000038
C176	C	-0.026163	0.954472	0.333372
C177	C	0.307170	1.287806	0.666705
C178	C	-0.300110	0.621848	0.000056
C179	C	0.033223	0.955182	0.333389
C180	C	0.366556	1.288515	0.666722
N181	N	-0.277494	0.674126	0.000061
N182	N	0.055839	1.007459	0.333395
N183	N	0.389173	1.340793	0.666728
C184	C	-0.314277	0.725691	0.000067
C185	C	0.019057	1.059025	0.333400
C186	C	0.352390	1.392358	0.666734
C187	C	-0.662439	0.617507	0.000036
C188	C	-0.329106	0.950840	0.333369
C189	C	0.004228	1.284173	0.666703
C190	C	-0.721837	0.616794	0.000040
C191	C	-0.388504	0.950127	0.333373
C192	C	-0.055170	1.283461	0.666706
C193	C	-0.736004	0.720642	0.000052
C194	C	-0.402670	1.053975	0.333385
C195	C	-0.069337	1.387308	0.666718
C196	C	-0.676605	0.721354	0.000052
C197	C	-0.343271	1.054687	0.333385
C198	C	-0.009938	1.388020	0.666719
C199	C	-0.639823	0.669784	0.000042
C200	C	-0.306489	1.003118	0.333375
C201	C	0.026844	1.336451	0.666708
C202	C	-0.189540	0.727181	0.000079
C203	C	0.143793	1.060514	0.333413
C204	C	0.477127	1.393848	0.666746
C205	C	-0.130138	0.727888	0.000087
C206	C	0.203195	1.061221	0.333421
C207	C	0.536528	1.394554	0.666754
C208	C	-0.115977	0.624041	0.000072
C209	C	0.217357	0.957374	0.333406
C210	C	0.550690	1.290707	0.666739
C211	C	-0.175373	0.623334	0.000067
C212	C	0.157960	0.956667	0.333401
C213	C	0.491293	1.290000	0.666734
C214	C	-0.212154	0.674909	0.000069
C215	C	0.121179	1.008242	0.333402
C216	C	0.454512	1.341575	0.666736
O217	O	-0.263323	0.578084	0.000070
O218	O	0.070010	0.911418	0.333403
O219	O	0.403344	1.244751	0.666737
O220	O	-0.289577	0.770216	0.000065
O221	O	0.043756	1.103549	0.333398
O222	O	0.377090	1.436882	0.666732
C223	C	0.178158	0.667594	0.000050
C224	C	0.511492	1.000927	0.333384
C225	C	0.844825	1.334261	0.666717
C226	C	0.241375	0.668360	0.000042
C227	C	0.574709	1.001693	0.333375
C228	C	0.908042	1.335027	0.666709
C229	C	0.069244	0.776492	0.000076
C230	C	0.402577	1.109825	0.333409
C231	C	0.735910	1.443158	0.666742
C232	C	0.069998	0.839710	0.000079
C233	C	0.403331	1.173043	0.333412
C234	C	0.736664	1.506377	0.666745
N235	N	0.074044	0.672336	0.153320
N236	N	0.407378	1.005669	0.486653
N237	N	0.740711	1.339003	0.819987
N238	N	0.073971	0.672351	-0.153191
N239	N	0.407304	1.005684	0.180143
N240	N	0.740637	1.339018	0.513476
C241	C	0.112941	0.633385	0.438159
C242	C	0.446275	0.966719	0.771492
C243	C	0.779608	1.300052	1.104825
C244	C	0.112947	0.633384	0.376239
C245	C	0.446280	0.966717	0.709572
C246	C	0.779614	1.300050	1.042905
O247	O	0.146044	0.600249	0.344212
O248	O	0.479377	0.933583	0.677545
O249	O	0.812711	1.266916	1.010879
N250	N	0.074022	0.672332	0.345272
N251	N	0.407355	1.005665	0.678606
N252	N	0.740688	1.338998	1.011939
C253	C	0.035084	0.711280	0.376229
C254	C	0.368418	1.044613	0.709562
C255	C	0.701751	1.377947	1.042896
O256	O	0.001975	0.744408	0.344204
O257	O	0.335309	1.077741	0.677537
O258	O	0.668642	1.411075	1.010870
C259	C	0.035077	0.711278	0.438148
C260	C	0.368410	1.044612	0.771481
C261	C	0.701743	1.377945	1.104814
C262	C	0.074008	0.672332	0.469111
C263	C	0.407342	1.005665	0.802444
C264	C	0.740675	1.338998	1.135778
C265	C	0.151870	0.594441	0.469122
C266	C	0.485203	0.927775	0.802455
C267	C	0.818536	1.261108	1.135789
C268	C	0.151865	0.594444	0.531038
C269	C	0.485198	0.927777	0.864371
C270	C	0.818531	1.261111	1.197704
C271	C	0.112932	0.633390	0.561990
C272	C	0.446265	0.966724	0.895323
C273	C	0.779598	1.300057	1.228657
C274	C	0.074003	0.672334	0.531027
C275	C	0.407337	1.005668	0.864360
C276	C	0.740670	1.339001	1.197693
C277	C	-0.003863	0.750224	0.469103
C278	C	0.329470	1.083557	0.802437
C279	C	0.662804	1.416890	1.135770
C280	C	-0.003868	0.750218	0.531026
C281	C	0.329466	1.083552	0.864360
C282	C	0.662799	1.416885	1.197693
C283	C	0.035064	0.711272	0.561989
C284	C	0.368397	1.044605	0.895323
C285	C	0.701731	1.377938	1.228656
C286	C	0.035065	0.711283	0.623895
C287	C	0.368399	1.044616	0.957228
C288	C	0.701732	1.377950	1.290561
N289	N	0.073991	0.672335	0.654861
N290	N	0.407324	1.005668	0.988194
N291	N	0.740657	1.339002	1.321528
C292	C	0.112924	0.633389	0.623909
C293	C	0.446257	0.966722	0.957242
C294	C	0.779590	1.300055	1.290575
C295	C	0.035103	0.711280	0.246195
C296	C	0.368436	1.044613	0.579529
C297	C	0.701770	1.377946	0.912862
C298	C	0.035113	0.711285	0.184278
C299	C	0.368446	1.044618	0.517611
C300	C	0.701780	1.377951	0.850944
C301	C	0.112975	0.633387	0.184292
C302	C	0.446308	0.966721	0.517625
C303	C	0.779642	1.300054	0.850958
C304	C	0.112967	0.633386	0.246211
C305	C	0.446301	0.966719	0.579544
C306	C	0.779634	1.300052	0.912877
C307	C	0.074028	0.672332	0.277162
C308	C	0.407362	1.005665	0.610495
C309	C	0.740695	1.338998	0.943828
C310	C	0.112911	0.633397	0.753936
C311	C	0.446244	0.966730	1.087269
C312	C	0.779577	1.300064	1.420603
C313	C	0.112904	0.633405	0.815857
C314	C	0.446237	0.966738	1.149190
C315	C	0.779571	1.300071	1.482524
C316	C	0.035040	0.711299	0.815838
C317	C	0.368373	1.044633	1.149171
C318	C	0.701707	1.377966	1.482504
C319	C	0.035049	0.711294	0.753922
C320	C	0.368382	1.044628	1.087255
C321	C	0.701715	1.377961	1.420589
C322	C	0.073986	0.672338	0.722973
C323	C	0.407319	1.005672	1.056306
C324	C	0.740653	1.339005	1.389639
O325	O	0.001984	0.744399	0.655961
O326	O	0.335317	1.077732	0.989294
O327	O	0.668650	1.411066	1.322627
O328	O	0.146022	0.600261	0.655941
O329	O	0.479356	0.933595	0.989275
O330	O	0.812689	1.266928	1.322608
H331	H	0.076677	0.391711	0.097348
H332	H	0.410010	0.725044	0.430681
H333	H	0.743343	1.058377	0.764014
O334	O	0.073315	0.113857	-0.159311
O335	O	0.406649	0.447190	0.174022
O336	O	0.739982	0.780524	0.507356
C337	C	0.122815	0.121628	-0.191941
C338	C	0.456149	0.454961	0.141393
C339	C	0.789482	0.788294	0.474726
H340	H	0.139792	0.162505	-0.176689
H341	H	0.473125	0.495838	0.156644
H342	H	0.806458	0.829172	0.489978
H343	H	0.111725	0.125186	-0.240991
H344	H	0.445058	0.458519	0.092342
H345	H	0.778391	0.791852	0.425675
H346	H	0.156956	0.083478	-0.184527
H347	H	0.490290	0.416811	0.148806
H348	H	0.823623	0.750144	0.482139
O349	O	-0.771821	0.770682	0.000024
O350	O	-0.438488	1.104015	0.333357
O351	O	-0.105155	1.437349	0.666690
C352	C	-0.829095	0.758837	0.000032
C353	C	-0.495762	1.092170	0.333365
C354	C	-0.162429	1.425503	0.666699
H355	H	-0.831113	0.714114	-0.018593
H356	H	-0.497779	1.047448	0.314741
H357	H	-0.164446	1.380781	0.648074
H358	H	-0.856199	0.791722	-0.028530
H359	H	-0.522865	1.125055	0.304804
H360	H	-0.189532	1.458389	0.638137
H361	H	-0.846288	0.761096	0.047223
H362	H	-0.512954	1.094429	0.380556
H363	H	-0.179621	1.427763	0.713889
O364	O	-0.002806	0.749179	0.845819
O365	O	0.330527	1.082512	1.179153
O366	O	0.663861	1.415846	1.512486
C367	C	-0.037182	0.783543	0.805218
C368	C	0.296151	1.116877	1.138551
C369	C	0.629485	1.450210	1.471884
H370	H	-0.013832	0.784068	0.761085
H371	H	0.319501	1.117402	1.094418
H372	H	0.652834	1.450735	1.427752
H373	H	-0.046125	0.829069	0.823119
H374	H	0.287209	1.162403	1.156452
H375	H	0.620542	1.495736	1.489786
H376	H	-0.079386	0.765281	0.798618
H377	H	0.253948	1.098614	1.131951
H378	H	0.587281	1.431948	1.465284
O379	O	-0.743705	0.565958	0.000009
O380	O	-0.410371	0.899292	0.333342
O381	O	-0.077038	1.232625	0.666675
C382	C	-0.698495	0.520602	0.000021
C383	C	-0.365162	0.853935	0.333355
C384	C	-0.031829	1.187269	0.666688
H385	H	-0.658233	0.536338	-0.018596
H386	H	-0.324900	0.869671	0.314737
H387	H	0.008433	1.203004	0.648070
H388	H	-0.710698	0.484082	-0.028544
H389	H	-0.377365	0.817415	0.304789
H390	H	-0.044032	1.150748	0.638123
H391	H	-0.689997	0.504711	0.047213
H392	H	-0.356663	0.838044	0.380546
H393	H	-0.023330	1.171377	0.713879
H394	H	0.183574	0.562724	0.443926
H395	H	0.516907	0.896057	0.777259
H396	H	0.850240	1.229391	1.110593
H397	H	-0.111731	0.770463	0.000099
H398	H	0.221603	1.103796	0.333432
H399	H	0.554936	1.437130	0.666765
O400	O	0.078011	0.504045	0.105814
O401	O	0.411345	0.837379	0.439148
O402	O	0.744678	1.170712	0.772481
C403	C	0.077564	0.465093	0.153141
C404	C	0.410898	0.798427	0.486475
C405	C	0.744231	1.131760	0.819808
H406	H	0.059016	0.425214	0.137422
H407	H	0.392350	0.758548	0.470755
H408	H	0.725683	1.091881	0.804089
H409	H	0.050126	0.486032	0.190649
H410	H	0.383460	0.819365	0.523982
H411	H	0.716793	1.152699	0.857316
H412	H	0.123188	0.452536	0.169623
H413	H	0.456521	0.785870	0.502956
H414	H	0.789855	1.119203	0.836290
H415	H	0.074689	0.226230	0.150976
H416	H	0.408022	0.559563	0.484309
H417	H	0.741355	0.892896	0.817642
O418	O	0.076655	0.387060	-0.105698
O419	O	0.409988	0.720394	0.227636
O420	O	0.743322	1.053727	0.560969
C421	C	0.126164	0.394820	-0.138318
C422	C	0.459497	0.728154	0.195015
C423	C	0.792830	1.061487	0.528349
H424	H	0.143136	0.435702	-0.123075
H425	H	0.476470	0.769035	0.210258
H426	H	0.809803	1.102369	0.543591
H427	H	0.115085	0.398362	-0.187373
H428	H	0.448419	0.731696	0.145961
H429	H	0.781752	1.065029	0.479294
H430	H	0.160302	0.356672	-0.130885
H431	H	0.493636	0.690006	0.202449
H432	H	0.826969	1.023339	0.535782
H433	H	0.003417	0.743004	0.159072
H434	H	0.336750	1.076338	0.492405
H435	H	0.670084	1.409671	0.825738
H436	H	0.073387	0.118486	0.150980
H437	H	0.406720	0.451820	0.484314
H438	H	0.740053	0.785153	0.817647
O439	O	-0.002642	0.749144	0.276324
O440	O	0.330691	1.082477	0.609657
O441	O	0.664025	1.415810	0.942990
C442	C	0.027668	0.784115	0.312139
C443	C	0.361002	1.117448	0.645472
C444	C	0.694335	1.450782	0.978805
H445	H	0.072350	0.761177	0.321430
H446	H	0.405684	1.094510	0.654764
H447	H	0.739017	1.427843	0.988097
H448	H	0.003839	0.793267	0.355672
H449	H	0.337173	1.126600	0.689005
H450	H	0.670506	1.459933	1.022338
H451	H	0.031325	0.826180	0.288276
H452	H	0.364658	1.159513	0.621609
H453	H	0.697991	1.492847	0.954943
H454	H	-0.352164	0.526863	0.000017
H455	H	-0.018830	0.860196	0.333351
H456	H	0.314503	1.193530	0.666684
H457	H	0.144676	0.601674	0.159079
H458	H	0.478009	0.935008	0.492412
H459	H	0.811343	1.268341	0.825746
H460	H	0.071388	-0.047002	0.097367
H461	H	0.404721	0.286331	0.430701
H462	H	0.738054	0.619664	0.764034
H463	H	0.070087	-0.154767	0.097366
H464	H	0.403420	0.178566	0.430699
H465	H	0.736754	0.511899	0.764033
O466	O	-0.197248	0.572499	0.000032
O467	O	0.136085	0.905833	0.333365
O468	O	0.469418	1.239166	0.666699
C469	C	-0.152043	0.527139	0.000046
C470	C	0.181291	0.860473	0.333379
C471	C	0.514624	1.193806	0.666712
H472	H	-0.111777	0.542873	-0.018565
H473	H	0.221557	0.876206	0.314769
H474	H	0.554890	1.209539	0.648102
H475	H	-0.164246	0.490623	-0.028525
H476	H	0.169088	0.823956	0.304808
H477	H	0.502421	1.157290	0.638141
H478	H	-0.143551	0.511243	0.047236
H479	H	0.189783	0.844576	0.380570
H480	H	0.523116	1.177910	0.713903
H481	H	-0.219481	0.769178	0.000078
H482	H	0.113853	1.102512	0.333412
H483	H	0.447186	1.435845	0.666745
O484	O	0.150803	0.595494	0.276194
O485	O	0.484136	0.928828	0.609527
O486	O	0.817470	1.262161	0.942861
C487	C	0.185175	0.561133	0.235589
C488	C	0.518509	0.894467	0.568923
C489	C	0.851842	1.227800	0.902256
H490	H	0.161832	0.560631	0.191446
H491	H	0.495165	0.893965	0.524779
H492	H	0.828499	1.227298	0.858113
H493	H	0.194099	0.515600	0.253470
H494	H	0.527433	0.848933	0.586803
H495	H	0.860766	1.182267	0.920137
H496	H	0.227389	0.579382	0.229018
H497	H	0.560722	0.912715	0.562351
H498	H	0.894055	1.246049	0.895685
O499	O	0.069966	-0.159349	-0.105688
O500	O	0.403299	0.173984	0.227646
O501	O	0.736633	0.507317	0.560979
C502	C	0.070441	-0.120398	-0.153013
C503	C	0.403774	0.212935	0.180321
C504	C	0.737108	0.546268	0.513654
H505	H	0.052923	-0.075595	-0.137286
H506	H	0.386256	0.257738	0.196047
H507	H	0.719590	0.591071	0.529380
H508	H	0.042572	-0.133783	-0.190514
H509	H	0.375905	0.199551	0.142819
H510	H	0.709239	0.532884	0.476152
H511	H	0.116210	-0.120321	-0.169505
H512	H	0.449543	0.213013	0.163828
H513	H	0.782877	0.546346	0.497161
H514	H	0.071338	-0.047021	-0.097217
H515	H	0.404671	0.286312	0.236116
H516	H	0.738005	0.619646	0.569450
H517	H	-0.035565	0.781937	0.443901
H518	H	0.297768	1.115270	0.777235
H519	H	0.631102	1.448604	1.110568
H520	H	0.144617	0.601675	0.728744
H521	H	0.477950	0.935008	1.062077
H522	H	0.811283	1.268342	1.395411
O523	O	0.074731	0.230944	-0.159235
O524	O	0.408064	0.564277	0.174099
O525	O	0.741398	0.897610	0.507432
C526	C	0.124483	0.258553	-0.162462
C527	C	0.457817	0.591886	0.170871
C528	C	0.791150	0.925220	0.504205
H529	H	0.141050	0.265211	-0.115909
H530	H	0.474383	0.598544	0.217425
H531	H	0.807716	0.931878	0.550758
H532	H	0.113888	0.301835	-0.185159
H533	H	0.447221	0.635168	0.148175
H534	H	0.780555	0.968501	0.481508
H535	H	0.158743	0.230941	-0.188928
H536	H	0.492076	0.564274	0.144405
H537	H	0.825410	0.897608	0.477738
O538	O	-0.041718	0.788105	0.561000
O539	O	0.291615	1.121438	0.894333
O540	O	0.624949	1.454772	1.227666
C541	C	-0.076086	0.822465	0.520388
C542	C	0.257247	1.155798	0.853721
C543	C	0.590581	1.489131	1.187054
H544	H	-0.052732	0.822976	0.476256
H545	H	0.280602	1.156309	0.809590
H546	H	0.613935	1.489643	1.142923
H547	H	-0.085023	0.867996	0.538278
H548	H	0.248310	1.201329	0.871611
H549	H	0.581643	1.534662	1.204944
H550	H	-0.118293	0.804208	0.513789
H551	H	0.215041	1.137541	0.847122
H552	H	0.548374	1.470875	1.180456
H553	H	-0.392053	0.819117	0.000079
H554	H	-0.058719	1.152451	0.333413
H555	H	0.274614	1.485784	0.666746
H556	H	0.003352	0.743014	0.728711
H557	H	0.336686	1.076347	1.062044
H558	H	0.670019	1.409680	1.395378
O559	O	0.078062	0.504167	-0.105627
O560	O	0.411395	0.837500	0.227706
O561	O	0.744729	1.170833	0.561039
C562	C	0.127812	0.531780	-0.108850
C563	C	0.461145	0.865114	0.224483
C564	C	0.794479	1.198447	0.557817
H565	H	0.144381	0.538428	-0.062296
H566	H	0.477715	0.871761	0.271038
H567	H	0.811048	1.205095	0.604371
H568	H	0.117212	0.575067	-0.131535
H569	H	0.450546	0.908400	0.201798
H570	H	0.783879	1.241734	0.535132
H571	H	0.162071	0.504177	-0.135325
H572	H	0.495405	0.837510	0.198008
H573	H	0.828738	1.170843	0.531342
H574	H	-0.499797	0.817827	0.000069
H575	H	-0.166464	1.151160	0.333402
H576	H	0.166869	1.484494	0.666735
O577	O	-0.654736	0.772189	0.000031
O578	O	-0.321402	1.105522	0.333365
O579	O	0.011931	1.438856	0.666698
C580	C	-0.699945	0.817545	0.000053
C581	C	-0.366612	1.150878	0.333386
C582	C	-0.033279	1.484212	0.666719
H583	H	-0.740210	0.801811	-0.018569
H584	H	-0.406877	1.135145	0.314764
H585	H	-0.073544	1.468478	0.648097
H586	H	-0.687747	0.854068	-0.028504
H587	H	-0.354414	1.187401	0.304829
H588	H	-0.021081	1.520735	0.638162
H589	H	-0.708435	0.833432	0.047247
H590	H	-0.375102	1.166766	0.380581
H591	H	-0.041768	1.500099	0.713914
H592	H	-0.632494	0.575510	0.000033
H593	H	-0.299160	0.908844	0.333366
H594	H	0.034173	1.242177	0.666699
H595	H	-0.459912	0.525569	0.000013
H596	H	-0.126579	0.858902	0.333347
H597	H	0.206754	1.192235	0.666680
H598	H	-0.086018	0.582057	0.000070
H599	H	0.247316	0.915391	0.333404
H600	H	0.580649	1.248724	0.666737
O601	O	0.150744	0.595513	0.845842
O602	O	0.484078	0.928846	1.179176
O603	O	0.817411	1.262180	1.512509
C604	C	0.185115	0.561147	0.805240
C605	C	0.518448	0.894480	1.138574
C606	C	0.851782	1.227814	1.471907
H607	H	0.161770	0.560639	0.761099
H608	H	0.495103	0.893972	1.094432
H609	H	0.828436	1.227306	1.427766
H610	H	0.194040	0.515616	0.823127
H611	H	0.527374	0.848949	1.156461
H612	H	0.860707	1.182283	1.489794
H613	H	0.227328	0.579395	0.798663
H614	H	0.560661	0.912729	1.131997
H615	H	0.893994	1.246062	1.465330
H616	H	0.183565	0.562729	0.556244
H617	H	0.516898	0.896062	0.889578
H618	H	0.850231	1.229395	1.222911
