data_functionalizedCrystal
_audit_creation_method	'MofGen! by Chris Wilmer'
_symmetry_space_group_name_H-M	'P1'
_symmetry_Int_Tables_number	1
_symmetry_cell_setting	triclinic
loop_
_symmetry_equiv_pos_as_xyz
  x,y,z
_cell_length_a	14.044220
_cell_length_b	14.853566
_cell_length_c	13.930277
_cell_angle_alpha	89.995631
_cell_angle_beta	90.003087
_cell_angle_gamma	91.588354
loop_
_atom_site_label
_atom_site_type_symbol
_atom_site_fract_x
_atom_site_fract_y
_atom_site_fract_z
O1	O	-0.123761	1.206174	-0.079765
O2	O	0.376239	1.706174	0.420235
O3	O	-0.138506	0.944883	-0.079781
O4	O	0.361494	1.444883	0.420219
O5	O	0.006856	1.071607	-0.079769
O6	O	0.506856	1.571607	0.420231
O7	O	-0.269123	1.079451	-0.079777
O8	O	0.230877	1.579451	0.420223
O9	O	0.006859	1.071587	0.079893
O10	O	0.506859	1.571587	0.579893
O11	O	-0.138503	0.944864	0.079881
O12	O	0.361497	1.444864	0.579881
O13	O	-0.123758	1.206155	0.079897
O14	O	0.376242	1.706155	0.579897
Zn15	Zn	-0.131130	1.075506	0.105239
Zn16	Zn	0.368870	1.575506	0.605239
Zn17	Zn	-0.131134	1.075532	-0.105123
Zn18	Zn	0.368866	1.575532	0.394877
O19	O	-0.269120	1.079431	0.079885
O20	O	0.230880	1.579431	0.579885
C21	C	-0.137836	0.911232	0.000048
C22	C	0.362164	1.411232	0.500048
C23	C	-0.135835	0.810989	0.000042
C24	C	0.364165	1.310989	0.500042
C25	C	-0.127371	0.387144	-0.086972
C26	C	0.372629	0.887144	0.413028
C27	C	-0.127369	0.387145	0.087097
C28	C	0.372631	0.887145	0.587097
C29	C	-0.129248	0.481328	0.087094
C30	C	0.370752	0.981328	0.587094
C31	C	-0.130191	0.528423	0.000057
C32	C	0.369809	1.028423	0.500057
C33	C	-0.129254	0.481336	-0.086978
C34	C	0.370746	0.981336	0.413022
C35	C	-0.130195	0.528421	0.174127
C36	C	0.369805	1.028421	0.674127
C37	C	-0.132075	0.622610	0.174128
C38	C	0.367925	1.122610	0.674128
C39	C	-0.133011	0.669708	0.087089
C40	C	0.366989	1.169708	0.587089
C41	C	-0.132073	0.622615	0.000051
C42	C	0.367927	1.122615	0.500051
C43	C	-0.133016	0.669710	-0.086986
C44	C	0.366984	1.169710	0.413014
C45	C	-0.132071	0.622619	-0.174026
C46	C	0.367929	1.122619	0.325974
C47	C	-0.130190	0.528434	-0.174016
C48	C	0.369810	1.028434	0.325984
C49	C	-0.134892	0.763894	0.087080
C50	C	0.365108	1.263894	0.587080
C51	C	-0.134898	0.763902	-0.086992
C52	C	0.365102	1.263902	0.413008
C53	C	-0.304441	1.082875	0.000053
C54	C	0.195559	1.582875	0.500053
C55	C	-0.409680	1.093116	0.000050
C56	C	0.090320	1.593116	0.500050
C57	C	-0.602366	1.111840	0.000056
C58	C	-0.102366	1.611840	0.500056
C59	C	-0.659904	1.039202	0.000052
C60	C	-0.159904	1.539202	0.500052
C61	C	-0.767121	1.049620	0.000055
C62	C	-0.267121	1.549620	0.500055
C63	C	-0.495139	1.101423	0.000053
C64	C	0.004861	1.601423	0.500053
C65	C	0.042177	1.068163	0.000061
C66	C	0.542177	1.568163	0.500061
C67	C	0.147416	1.057922	0.000058
C68	C	0.647416	1.557922	0.500058
C69	C	-0.124427	1.239806	0.000066
C70	C	0.375573	1.739806	0.500066
C71	C	-0.126429	1.340049	0.000065
C72	C	0.373571	1.840049	0.500065
N73	N	-0.131126	1.075495	0.248805
N74	N	0.368874	1.575495	0.748805
N75	N	-0.131130	1.075549	-0.248689
N76	N	0.368870	1.575549	0.251311
C77	C	-0.195475	1.019414	0.701069
C78	C	0.304525	1.519414	1.201069
C79	C	-0.066786	1.131674	0.701049
C80	C	0.433214	1.631674	1.201049
C81	C	-0.066783	1.131663	0.600553
C82	C	0.433217	1.631663	1.100553
C83	C	-0.131128	1.075528	0.550311
C84	C	0.368872	1.575528	1.050311
C85	C	-0.195476	1.019403	0.600564
C86	C	0.304524	1.519403	1.100564
C87	C	-0.002442	1.187793	0.550292
C88	C	0.497558	1.687793	1.050292
C89	C	-0.002437	1.187785	0.449790
C90	C	0.497563	1.687785	0.949790
C91	C	-0.066779	1.131644	0.399546
C92	C	0.433221	1.631644	0.899546
C93	C	-0.131129	1.075517	0.449806
C94	C	0.368871	1.575517	0.949806
C95	C	-0.195474	1.019382	0.399563
C96	C	0.304526	1.519382	0.899563
C97	C	-0.259820	0.963249	0.449821
C98	C	0.240180	1.463249	0.949821
C99	C	-0.259817	0.963263	0.550320
C100	C	0.240183	1.463263	1.050320
C101	C	-0.066781	1.131630	0.299047
C102	C	0.433219	1.631630	0.799047
C103	C	-0.195475	1.019371	0.299058
C104	C	0.304525	1.519371	0.799058
H105	H	-0.135671	0.802231	0.157946
H106	H	0.364329	1.302231	0.657946
H107	H	-0.247863	0.973709	0.741991
H108	H	0.252137	1.473709	1.241991
C109	C	-0.617671	0.944617	0.000054
C110	C	-0.117671	1.444617	0.500054
N111	N	-0.585857	0.873379	0.000059
N112	N	-0.085857	1.373379	0.500059
C113	C	-0.644599	1.206418	0.000077
C114	C	-0.144599	1.706418	0.500077
N115	N	-0.676420	1.277653	0.000100
N116	N	-0.176420	1.777653	0.500100
H117	H	-0.126598	0.348799	-0.157837
H118	H	0.373402	0.848799	0.342163
C119	C	-0.126335	0.335336	0.182833
C120	C	0.373665	0.835336	0.682833
N121	N	-0.125554	0.296310	0.254945
N122	N	0.374446	0.796310	0.754945
H123	H	-0.247869	0.973655	0.258157
H124	H	0.252131	1.473655	0.758157
C125	C	0.003990	1.193419	0.756319
C126	C	0.503990	1.693419	1.256319
N127	N	0.057303	1.239926	0.797952
N128	N	0.557303	1.739926	1.297952
C129	C	-0.129162	0.476611	0.269862
C130	C	0.370838	0.976611	0.769862
N131	N	-0.128383	0.437582	0.341973
N132	N	0.371617	0.937582	0.841973
H133	H	-0.132843	0.660944	0.245000
H134	H	0.367157	1.160944	0.745000
C135	C	-0.330598	0.901503	0.394541
C136	C	0.169402	1.401503	0.894541
N137	N	-0.383906	0.854997	0.352901
N138	N	0.116094	1.354997	0.852901
H139	H	-0.132845	0.660977	-0.244892
H140	H	0.367155	1.160977	0.255108
C141	C	0.068333	1.249537	0.605565
C142	C	0.568333	1.749537	1.105565
N143	N	0.121645	1.296042	0.647201
N144	N	0.621645	1.796042	1.147201
C145	C	0.068352	1.249523	0.394516
C146	C	0.568352	1.749523	0.894516
N147	N	0.121674	1.296022	0.352883
N148	N	0.621674	1.796022	0.852883
C149	C	-0.129157	0.476626	-0.269751
C150	C	0.370843	0.976626	0.230249
N151	N	-0.128382	0.437601	-0.341857
N152	N	0.371618	0.937601	0.158143
H153	H	-0.312207	0.917563	0.591246
H154	H	0.187793	1.417563	1.091246
H155	H	-0.014396	1.177337	0.258132
H156	H	0.485604	1.677337	0.758132
H157	H	-0.135663	0.802241	-0.157870
H158	H	0.364337	1.302241	0.342130
