data_functionalizedCrystal
_audit_creation_method	'MofGen! by Chris Wilmer'
_symmetry_space_group_name_H-M	'P1'
_symmetry_Int_Tables_number	1
_symmetry_cell_setting	triclinic
loop_
_symmetry_equiv_pos_as_xyz
  x,y,z
_cell_length_a	19.077068
_cell_length_b	21.395364
_cell_length_c	19.076919
_cell_angle_alpha	87.720454
_cell_angle_beta	94.470751
_cell_angle_gamma	87.656234
loop_
_atom_site_label
_atom_site_type_symbol
_atom_site_fract_x
_atom_site_fract_y
_atom_site_fract_z
Zn1	Zn	-0.296378	-0.932567	-0.409852
Zn2	Zn	0.203622	-0.432567	0.090148
Zn3	Zn	-0.409531	-0.932489	-0.296697
Zn4	Zn	0.090469	-0.432489	0.203303
Zn5	Zn	-0.291695	-0.832179	-0.291982
Zn6	Zn	0.208305	-0.332179	0.208018
Zn7	Zn	-0.414263	-0.823373	-0.414540
Zn8	Zn	0.085737	-0.323373	0.085460
O9	O	-0.352967	-0.880152	-0.353268
O10	O	0.147033	-0.380152	0.146732
O11	O	-0.311367	-1.020235	-0.394853
O12	O	0.188633	-0.520235	0.105147
O13	O	-0.389959	-0.922836	-0.197424
O14	O	0.110041	-0.422836	0.302576
O15	O	-0.193665	-0.849213	-0.303682
O16	O	0.306335	-0.349213	0.196318
O17	O	-0.394500	-1.020178	-0.311718
O18	O	0.105500	-0.520178	0.188282
O19	O	-0.197106	-0.922968	-0.390281
O20	O	0.302894	-0.422968	0.109719
O21	O	-0.303386	-0.849138	-0.193960
O22	O	0.196614	-0.349138	0.306040
O23	O	-0.307974	-0.743332	-0.308228
O24	O	0.192026	-0.243332	0.191772
O25	O	-0.402566	-0.834204	-0.512565
O26	O	0.097434	-0.334204	-0.012565
O27	O	-0.398025	-0.736863	-0.398271
O28	O	0.101975	-0.236863	0.101729
O29	O	-0.315956	-0.914429	-0.509121
O30	O	0.184044	-0.414429	-0.009121
O31	O	-0.508809	-0.914297	-0.316264
O32	O	-0.008809	-0.414297	0.183736
O33	O	-0.512286	-0.834129	-0.402843
O34	O	-0.012286	-0.334129	0.097157
C35	C	-0.353006	-0.717363	-0.353247
C36	C	0.146994	-0.217363	0.146753
C37	C	-0.353040	-0.647721	-0.353256
C38	C	0.146960	-0.147721	0.146744
C39	C	-0.309830	-0.615054	-0.396616
C40	C	0.190170	-0.115054	0.103384
C41	C	-0.309814	-0.549619	-0.396617
C42	C	0.190186	-0.049619	0.103383
C43	C	-0.353020	-0.516853	-0.353266
C44	C	0.146980	-0.016853	0.146734
C45	C	-0.396233	-0.549527	-0.309897
C46	C	0.103767	-0.049527	0.190103
C47	C	-0.396243	-0.614961	-0.309892
C48	C	0.103757	-0.114961	0.190108
C49	C	-0.416283	-0.410981	-0.350145
C50	C	0.083717	0.089019	0.149855
C51	C	-0.416275	-0.345548	-0.350155
C52	C	0.083725	0.154452	0.149845
C53	C	-0.352989	-0.315033	-0.353277
C54	C	0.147011	0.184967	0.146723
C55	C	-0.289710	-0.349958	-0.356404
C56	C	0.210290	0.150042	0.143596
C57	C	-0.289720	-0.415392	-0.356399
C58	C	0.210280	0.084608	0.143601
C59	C	-0.353014	-0.445901	-0.353266
C60	C	0.146986	0.054099	0.146734
C61	C	-0.309757	-0.211414	-0.396641
C62	C	0.190243	0.288586	0.103359
C63	C	-0.309740	-0.145979	-0.396637
C64	C	0.190260	0.354021	0.103363
C65	C	-0.396165	-0.145887	-0.309921
C66	C	0.103835	0.354113	0.190079
C67	C	-0.396176	-0.211322	-0.309920
C68	C	0.103824	0.288678	0.190080
C69	C	-0.352974	-0.244082	-0.353285
C70	C	0.147026	0.255918	0.146715
C71	C	-0.536127	-0.873265	-0.360589
C72	C	-0.036127	-0.373265	0.139411
C73	C	-0.614485	-0.870376	-0.363745
C74	C	-0.114485	-0.370376	0.136255
C75	C	-0.649466	-0.910787	-0.320188
C76	C	-0.149466	-0.410787	0.179812
C77	C	-0.723091	-0.908073	-0.323160
C78	C	-0.223091	-0.408073	0.176840
C79	C	-0.761735	-0.864944	-0.369686
C80	C	-0.261735	-0.364944	0.130314
C81	C	-0.726750	-0.824531	-0.413248
C82	C	-0.226750	-0.324531	0.086752
C83	C	-0.653125	-0.827249	-0.410279
C84	C	-0.153125	-0.327249	0.089721
C85	C	-0.982125	-0.852340	-0.383400
C86	C	-0.482125	-0.352340	0.116600
C87	C	-1.055754	-0.849624	-0.386364
C88	C	-0.555754	-0.349624	0.113636
C89	C	-1.052091	-0.933166	-0.296277
C90	C	-0.552091	-0.433166	0.203723
C91	C	-0.978465	-0.935878	-0.293309
C92	C	-0.478465	-0.435878	0.206691
C93	C	-0.943486	-0.895467	-0.336873
C94	C	-0.443486	-0.395467	0.163127
N95	N	-0.836992	-0.862167	-0.372724
N96	N	-0.336992	-0.362167	0.127276
N97	N	-0.868230	-0.898247	-0.333838
N98	N	-0.368230	-0.398247	0.166162
C99	C	-0.169091	-0.887082	-0.345933
C100	C	0.330909	-0.387082	0.154067
C101	C	-0.090735	-0.890035	-0.342807
C102	C	0.409265	-0.390035	0.157193
C103	C	-0.360311	-0.873343	-0.537136
C104	C	0.139689	-0.373343	-0.037136
C105	C	-0.363441	-0.870441	-0.615490
C106	C	0.136559	-0.370441	-0.115490
C107	C	-0.352937	-0.043576	-0.353285
C108	C	0.147063	0.456424	0.146715
C109	C	-0.352945	-0.113216	-0.353284
C110	C	0.147055	0.386784	0.146716
C111	C	-0.319820	-0.910845	-0.650509
C112	C	0.180180	-0.410845	-0.150509
C113	C	-0.322758	-0.908111	-0.724131
C114	C	0.177242	-0.408111	-0.224131
C115	C	-0.369321	-0.864976	-0.762732
C116	C	0.130679	-0.364976	-0.262732
C117	C	-0.412944	-0.824569	-0.727709
C118	C	0.087056	-0.324569	-0.227709
C119	C	-0.410002	-0.827300	-0.654088
C120	C	0.089998	-0.327300	-0.154088
C121	C	-0.382952	-0.852326	-0.983106
C122	C	0.117048	-0.352326	-0.483106
C123	C	-0.385892	-0.849599	-1.056732
C124	C	0.114108	-0.349599	-0.556732
C125	C	-0.295705	-0.933141	-1.053149
C126	C	0.204295	-0.433141	-0.553149
C127	C	-0.292771	-0.935871	-0.979527
C128	C	0.207229	-0.435871	-0.479527
C129	C	-0.336390	-0.895461	-0.944510
C130	C	0.163610	-0.395461	-0.444510
N131	N	-0.372327	-0.862182	-0.837986
N132	N	0.127673	-0.362182	-0.337986
N133	N	-0.333381	-0.898253	-0.869258
N134	N	0.166619	-0.398253	-0.369258
C135	C	-0.345600	-0.886972	-0.170112
C136	C	0.154400	-0.386972	0.329888
C137	C	-0.342272	-0.890002	-0.091751
C138	C	0.157728	-0.390002	0.408249
H139	H	-0.431344	-0.119209	-0.274623
H140	H	0.068656	0.380791	0.225377
C141	C	-0.511083	-0.809218	-0.814277
C142	C	-0.011083	-0.309218	-0.314277
C143	C	-0.464128	-0.777154	-0.770137
C144	C	0.035872	-0.277154	-0.270137
H145	H	-0.542685	-0.779945	-0.840466
H146	H	-0.042685	-0.279945	-0.340466
H147	H	-0.485525	-0.832884	-0.845667
H148	H	0.014475	-0.332884	-0.345667
H149	H	-0.536891	-0.836562	-0.786628
H150	H	-0.036891	-0.336562	-0.286628
H151	H	-0.438315	-0.749812	-0.797786
H152	H	0.061685	-0.249812	-0.297786
H153	H	-0.489688	-0.753477	-0.738743
H154	H	0.010312	-0.253477	-0.238743
C155	C	-0.570813	-0.745657	-0.416655
C156	C	-0.070813	-0.245657	0.083345
C157	C	-0.614672	-0.782828	-0.458158
C158	C	-0.114672	-0.282828	0.041842
H159	H	-0.547072	-0.718237	-0.446218
H160	H	-0.047072	-0.218237	0.053782
H161	H	-0.598349	-0.721788	-0.387084
H162	H	-0.098349	-0.221788	0.112916
H163	H	-0.537265	-0.771738	-0.388524
H164	H	-0.037265	-0.271738	0.111476
H165	H	-0.648223	-0.756747	-0.486285
H166	H	-0.148223	-0.256747	0.013715
H167	H	-0.587134	-0.806698	-0.487742
H168	H	-0.087134	-0.306698	0.012258
H169	H	-0.445515	-0.794393	-0.625577
H170	H	0.054485	-0.294393	-0.125577
H171	H	-0.431365	-0.237919	-0.274615
H172	H	0.068635	0.262081	0.225385
H173	H	-0.618006	-0.945904	-0.282298
H174	H	-0.118006	-0.445904	0.217702
H175	H	-0.751569	-0.940979	-0.287691
H176	H	-0.251569	-0.440979	0.212309
H177	H	-0.254856	-0.970997	-0.948103
H178	H	0.245144	-0.470997	-0.448103
H179	H	-0.431411	-0.522845	-0.274599
H180	H	0.068589	-0.022845	0.225401
H181	H	-0.274651	-0.641723	-0.431926
H182	H	0.225349	-0.141723	0.068074
H183	H	-0.953651	-0.819435	-0.418870
H184	H	-0.453651	-0.319435	0.081130
C185	C	-0.204182	-0.942346	-1.132154
C186	C	0.295818	-0.442346	-0.632154
C187	C	-0.247753	-0.977552	-1.091640
C188	C	0.252247	-0.477552	-0.591640
H189	H	-0.174572	-0.969765	-1.155912
H190	H	0.325428	-0.469765	-0.655912
H191	H	-0.232335	-0.916275	-1.165678
H192	H	0.267665	-0.416275	-0.665678
H193	H	-0.176080	-0.917130	-1.102345
H194	H	0.323920	-0.417130	-0.602345
H195	H	-0.275858	-1.002765	-1.121451
H196	H	0.224142	-0.502765	-0.621451
H197	H	-0.219597	-1.003634	-1.058113
H198	H	0.280403	-0.503634	-0.558113
H199	H	-0.287239	-0.941013	-0.752640
H200	H	0.212761	-0.441013	-0.252640
C201	C	-0.951052	-0.971751	-0.173062
C202	C	-0.451052	-0.471751	0.326938
C203	C	-0.935995	-0.983293	-0.242169
C204	C	-0.435995	-0.483293	0.257831
H205	H	-0.924836	-1.001026	-0.141491
H206	H	-0.424836	-0.501026	0.358509
H207	H	-0.938622	-0.930495	-0.162218
H208	H	-0.438622	-0.430495	0.337782
H209	H	-0.999909	-0.975914	-0.168608
H210	H	-0.499909	-0.475914	0.331392
H211	H	-0.887139	-0.979125	-0.246625
H212	H	-0.387139	-0.479125	0.253375
H213	H	-0.948421	-1.024559	-0.253017
H214	H	-0.448421	-0.524559	0.246983
C215	C	-0.174125	-0.441716	-0.301614
C216	C	0.325875	0.058284	0.198386
C217	C	-0.220168	-0.453784	-0.359825
C218	C	0.279832	0.046216	0.140175
H219	H	-0.131189	-0.465421	-0.303726
H220	H	0.368811	0.034579	0.196274
H221	H	-0.165059	-0.398385	-0.302072
H222	H	0.334941	0.101615	0.197928
H223	H	-0.194900	-0.453167	-0.259566
H224	H	0.305100	0.046833	0.240434
H225	H	-0.199396	-0.442328	-0.401874
H226	H	0.300604	0.057672	0.098126
H227	H	-0.229233	-0.497124	-0.359374
H228	H	0.270767	0.002876	0.140626
H229	H	-0.467800	-0.317117	-0.347612
H230	H	0.032200	0.182883	0.152388
H231	H	-0.431430	-0.641558	-0.274581
H232	H	0.068570	-0.141558	0.225419
H233	H	-0.423811	-0.814472	-1.088160
H234	H	0.076189	-0.314472	-0.588160
H235	H	-0.281905	-0.945971	-0.619085
H236	H	0.218095	-0.445971	-0.119085
H237	H	-1.080579	-0.966067	-0.260810
H238	H	-0.580579	-0.466067	0.239190
C239	C	-0.472377	-0.769464	-0.994053
C240	C	0.027623	-0.269464	-0.494053
C241	C	-0.430890	-0.807901	-0.944621
C242	C	0.069110	-0.307901	-0.444621
H243	H	-0.501972	-0.742036	-0.970290
H244	H	-0.001972	-0.242036	-0.470290
H245	H	-0.442810	-0.745604	-1.021544
H246	H	0.057190	-0.245604	-0.521544
H247	H	-0.500494	-0.794685	-1.023841
H248	H	-0.000494	-0.294685	-0.523841
H249	H	-0.402769	-0.782679	-0.914835
H250	H	0.097231	-0.282679	-0.414835
H251	H	-0.460460	-0.831762	-0.917118
H252	H	0.039540	-0.331762	-0.417118
C253	C	-0.541394	-0.400049	-0.343990
C254	C	-0.041394	0.099951	0.156010
C255	C	-0.485855	-0.444519	-0.346721
C256	C	0.014145	0.055481	0.153279
H257	H	-0.584342	-0.420755	-0.341882
H258	H	-0.084342	0.079245	0.158118
H259	H	-0.533523	-0.376258	-0.303352
H260	H	-0.033523	0.123742	0.196648
H261	H	-0.543988	-0.372980	-0.384893
H262	H	-0.043988	0.127020	0.115107
H263	H	-0.483258	-0.471585	-0.305815
H264	H	0.016742	0.028415	0.194185
H265	H	-0.493728	-0.468321	-0.387363
H266	H	0.006272	0.031679	0.112637
C267	C	-1.083194	-0.813773	-0.506622
C268	C	-0.583194	-0.313773	-0.006622
C269	C	-1.098238	-0.802219	-0.437514
C270	C	-0.598238	-0.302219	0.062486
H271	H	-1.109427	-0.784511	-0.538195
H272	H	-0.609427	-0.284511	-0.038195
H273	H	-1.034347	-0.809602	-0.511090
H274	H	-0.534347	-0.309602	-0.011090
H275	H	-1.095617	-0.855040	-0.517450
H276	H	-0.595617	-0.355040	-0.017450
H277	H	-1.085810	-0.760953	-0.426683
H278	H	-0.585810	-0.260953	0.073317
H279	H	-1.147096	-0.806385	-0.433043
H280	H	-0.647096	-0.306385	0.066957
C281	C	-0.280450	-0.526358	-0.514684
C282	C	0.219550	-0.026358	-0.014684
C283	C	-0.262322	-0.513699	-0.444288
C284	C	0.237678	-0.013699	0.055712
H285	H	-0.251134	-0.504180	-0.544114
H286	H	0.248866	-0.004180	-0.044114
H287	H	-0.274264	-0.570011	-0.520883
H288	H	0.225736	-0.070011	-0.020883
H289	H	-0.328243	-0.513459	-0.526800
H290	H	0.171757	-0.013459	-0.026800
H291	H	-0.214530	-0.526603	-0.432170
H292	H	0.285470	-0.026603	0.067830
H293	H	-0.268502	-0.470037	-0.438085
H294	H	0.231498	0.029963	0.061915
C295	C	-0.189554	-0.331168	-0.421832
C296	C	0.310446	0.168832	0.078168
C297	C	-0.220136	-0.316428	-0.359839
C298	C	0.279864	0.183572	0.140161
H299	H	-0.146606	-0.310464	-0.423955
H300	H	0.353394	0.189536	0.076045
H301	H	-0.180511	-0.375132	-0.422273
H302	H	0.319489	0.124868	0.077727
H303	H	-0.220802	-0.317896	-0.461312
H304	H	0.279198	0.182104	0.038688
H305	H	-0.188890	-0.329705	-0.320358
H306	H	0.311110	0.170295	0.179642
H307	H	-0.229176	-0.272455	-0.359392
H308	H	0.270824	0.227545	0.140608
C309	C	-0.224328	-0.204935	-0.482356
C310	C	0.275672	0.295065	0.017644
C311	C	-0.262266	-0.247429	-0.444301
C312	C	0.237734	0.252571	0.055699
H313	H	-0.195008	-0.227169	-0.511776
H314	H	0.304992	0.272831	-0.011776
H315	H	-0.256155	-0.177251	-0.510498
H316	H	0.243845	0.322749	-0.010498
H317	H	-0.196085	-0.181572	-0.450599
H318	H	0.303915	0.318428	0.049401
H319	H	-0.290514	-0.270788	-0.476057
H320	H	0.209486	0.229212	0.023943
H321	H	-0.230436	-0.275124	-0.416157
H322	H	0.269564	0.224876	0.083843
C323	C	-0.303876	-0.069261	-0.491094
C324	C	0.196124	0.430739	0.008906
C325	C	-0.262240	-0.110068	-0.444304
C326	C	0.237760	0.389932	0.055696
H327	H	-0.274550	-0.047090	-0.520518
H328	H	0.225450	0.452910	-0.020518
H329	H	-0.335709	-0.092626	-0.519230
H330	H	0.164291	0.407374	-0.019230
H331	H	-0.329598	-0.040387	-0.465262
H332	H	0.170402	0.459613	0.034738
H333	H	-0.236522	-0.138946	-0.470135
H334	H	0.263478	0.361054	0.029865
H335	H	-0.230395	-0.086702	-0.416164
H336	H	0.269605	0.413298	0.083836
C337	C	-0.841235	-0.783265	-0.457795
C338	C	-0.341235	-0.283265	0.042205
C339	C	-0.769225	-0.777121	-0.464390
C340	C	-0.269225	-0.277121	0.035610
H341	H	-0.867455	-0.753991	-0.489364
H342	H	-0.367455	-0.253991	0.010636
H343	H	-0.853656	-0.824522	-0.468643
H344	H	-0.353656	-0.324522	0.031357
H345	H	-0.851431	-0.775437	-0.410906
H346	H	-0.351431	-0.275437	0.089094
H347	H	-0.759028	-0.784953	-0.511278
H348	H	-0.259028	-0.284953	-0.011278
H349	H	-0.756800	-0.735854	-0.453546
H350	H	-0.256800	-0.235854	0.046454
