data_functionalizedCrystal
_audit_creation_method	'MofGen! by Chris Wilmer'
_symmetry_space_group_name_H-M	'P1'
_symmetry_Int_Tables_number	1
_symmetry_cell_setting	triclinic
loop_
_symmetry_equiv_pos_as_xyz
  x,y,z
_cell_length_a	11.792241
_cell_length_b	15.500215
_cell_length_c	17.019448
_cell_angle_alpha	89.315744
_cell_angle_beta	83.796942
_cell_angle_gamma	93.161413
loop_
_atom_site_label
_atom_site_type_symbol
_atom_site_fract_x
_atom_site_fract_y
_atom_site_fract_z
O1	O	1.509943	0.063599	0.111025
O2	O	1.179434	0.062793	0.122131
O3	O	1.354452	0.071702	0.002177
O4	O	1.334925	0.054690	0.230978
O5	O	1.345066	-0.071698	-0.004386
O6	O	1.170048	-0.080607	0.115568
O7	O	1.500557	-0.079801	0.104462
Cu8	Cu	1.334445	-0.093298	0.109416
Cu9	Cu	1.345546	0.076290	0.117177
O10	O	1.325539	-0.088710	0.224416
C11	C	1.132461	-0.008853	0.118152
C12	C	1.006479	-0.008690	0.116064
C13	C	0.775824	-0.008429	0.112224
C14	C	0.904178	-0.008574	0.114358
N15	N	1.326646	-0.212577	0.103956
C16	C	1.392222	-0.261270	0.149894
C17	C	1.386338	-0.351535	0.145760
C18	C	1.314873	-0.393106	0.095693
C19	C	1.249295	-0.344407	0.049750
C20	C	1.255185	-0.254143	0.053880
C21	C	1.293666	-0.665467	0.080817
C22	C	1.287778	-0.755738	0.076692
C23	C	1.424824	-0.762860	0.172703
C24	C	1.430703	-0.672594	0.176832
C25	C	1.365129	-0.623902	0.130886
C26	C	1.308855	-0.485372	0.091468
C27	C	1.371154	-0.531638	0.135107
C28	C	1.547530	-0.008153	0.108441
C29	C	1.673512	-0.008311	0.110529
C30	C	1.349199	0.002182	-0.030396
C31	C	1.347518	0.008677	-0.117675
N32	N	1.353354	0.195569	0.122630
C33	C	1.338375	0.049429	-0.611135
C34	C	1.339942	0.043308	-0.529127
C35	C	1.335601	-0.037920	-0.491716
C36	C	1.329702	-0.113032	-0.536318
C37	C	1.328143	-0.106911	-0.618326
C38	C	1.340060	-0.060313	-0.244286
C39	C	1.341617	-0.066429	-0.162272
C40	C	1.351859	0.089912	-0.155086
C41	C	1.350292	0.096026	-0.237095
C42	C	1.344400	0.020914	-0.281691
C43	C	1.337199	-0.044178	-0.407889
C44	C	1.342809	0.027173	-0.365516
C45	C	1.330792	-0.019188	0.256989
C46	C	1.332473	-0.025678	0.344268
H47	H	1.450410	-0.227429	0.190670
H48	H	1.439739	-0.391177	0.183167
H49	H	1.478211	-0.802514	0.210109
H50	H	1.250666	-0.519230	0.050703
C51	C	1.508414	-0.627619	0.231206
C52	C	1.564609	-0.689582	0.270537
C53	C	1.636215	-0.648183	0.320627
H54	H	1.464094	-0.595084	0.268846
H55	H	1.563208	-0.590048	0.200858
H56	H	1.509823	-0.727138	0.300884
H57	H	1.608950	-0.722121	0.232917
H58	H	1.691009	-0.610612	0.290278
H59	H	1.591886	-0.615649	0.358261
H60	H	1.674360	-0.690218	0.347313
H61	H	1.341899	0.115574	-0.641588
H62	H	1.429345	-0.497786	0.175869
C63	C	1.346289	0.124954	-0.480839
C64	C	1.349719	0.197400	-0.531152
C65	C	1.355552	0.272630	-0.486697
H66	H	1.413282	0.126361	-0.454396
H67	H	1.280907	0.125443	-0.443005
H68	H	1.415094	0.196912	-0.568972
H69	H	1.282733	0.196022	-0.557596
H70	H	1.290170	0.273119	-0.448862
H71	H	1.422545	0.274028	-0.460255
H72	H	1.357869	0.321793	-0.520826
H73	H	1.353835	0.162171	-0.267550
H74	H	1.229576	-0.789582	0.035921
C75	C	1.358031	0.171488	-0.106690
C76	C	1.263092	0.219510	-0.116039
C77	C	1.268735	0.294662	-0.071463
H78	H	1.425991	0.205125	-0.124316
H79	H	1.358280	0.156251	-0.052476
H80	H	1.262854	0.234749	-0.170242
H81	H	1.195118	0.185899	-0.098409
H82	H	1.268984	0.279424	-0.017249
H83	H	1.336698	0.328291	-0.089092
H84	H	1.204316	0.327250	-0.077794
H85	H	1.333662	-0.110315	-0.377420
H86	H	1.338047	-0.132579	-0.131812
H87	H	1.240272	-0.625833	0.043404
H88	H	1.191111	-0.378261	0.008979
C89	C	1.333591	-0.141963	-0.292554
C90	C	1.330086	-0.214406	-0.242232
C91	C	1.324108	-0.289640	-0.286671
H92	H	1.398924	-0.142535	-0.330407
H93	H	1.266561	-0.143291	-0.318973
H94	H	1.397109	-0.213079	-0.215826
H95	H	1.264756	-0.213863	-0.204379
H96	H	1.257078	-0.290968	-0.313089
H97	H	1.389443	-0.290202	-0.324521
H98	H	1.321719	-0.338801	-0.252533
C99	C	1.324750	-0.201199	-0.495633
C100	C	1.227689	-0.209894	-0.440363
C101	C	1.223074	-0.291106	-0.402875
H102	H	1.391240	-0.206508	-0.469426
H103	H	1.320949	-0.245087	-0.533907
H104	H	1.231499	-0.166019	-0.402095
H105	H	1.161182	-0.204602	-0.466550
H106	H	1.219273	-0.334993	-0.441148
H107	H	1.289568	-0.296408	-0.376672
H108	H	1.157213	-0.297019	-0.365375
H109	H	1.201786	-0.214498	0.016472
H110	H	1.346350	0.093309	-0.395980
C111	C	1.321672	-0.188557	-0.666606
C112	C	1.318172	-0.261005	-0.616290
C113	C	1.312200	-0.336234	-0.660735
H114	H	1.387005	-0.189123	-0.704458
H115	H	1.254642	-0.189885	-0.693025
H116	H	1.385194	-0.259678	-0.589884
H117	H	1.252841	-0.260468	-0.578437
H118	H	1.245171	-0.337562	-0.687154
H119	H	1.377536	-0.336791	-0.698586
H120	H	1.309814	-0.385398	-0.626601
