data_functionalizedCrystal
_audit_creation_method	'MofGen! by Chris Wilmer'
_symmetry_space_group_name_H-M	'P1'
_symmetry_Int_Tables_number	1
_symmetry_cell_setting	triclinic
loop_
_symmetry_equiv_pos_as_xyz
  x,y,z
_cell_length_a	16.120484
_cell_length_b	17.077404
_cell_length_c	17.077396
_cell_angle_alpha	90.021457
_cell_angle_beta	92.868746
_cell_angle_gamma	87.075241
loop_
_atom_site_label
_atom_site_type_symbol
_atom_site_fract_x
_atom_site_fract_y
_atom_site_fract_z
Zn1	Zn	-0.331927	-1.184193	-0.459715
Zn2	Zn	-0.471351	-1.177438	-0.335098
Zn3	Zn	-0.331954	-1.052924	-0.328459
Zn4	Zn	-0.471299	-1.046233	-0.466315
O5	O	-0.401633	-1.115197	-0.397397
O6	O	-0.350433	-1.293143	-0.443200
O7	O	-0.452892	-1.160894	-0.224372
O8	O	-0.215284	-1.075964	-0.340330
O9	O	-0.452867	-1.288180	-0.351645
O10	O	-0.215265	-1.172407	-0.436763
O11	O	-0.350478	-1.069414	-0.219495
O12	O	-0.350427	-0.942190	-0.346730
O13	O	-0.452778	-1.064561	-0.575285
O14	O	-0.452804	-0.937274	-0.448012
O15	O	-0.350382	-1.165919	-0.570436
O16	O	-0.588010	-1.154406	-0.358045
O17	O	-0.587971	-1.058010	-0.454449
C18	C	-0.401613	-0.911250	-0.397367
C19	C	-0.401625	-0.824000	-0.397374
C20	C	-0.455012	-0.780467	-0.450033
C21	C	-0.455012	-0.698486	-0.450043
C22	C	-0.401629	-0.660040	-0.397389
C23	C	-0.348236	-0.703579	-0.344727
C24	C	-0.348232	-0.785558	-0.344722
C25	C	-0.348249	-0.532708	-0.344741
C26	C	-0.348253	-0.450723	-0.344745
C27	C	-0.455029	-0.445636	-0.450062
C28	C	-0.455025	-0.527615	-0.450057
C29	C	-0.401633	-0.571149	-0.397394
C30	C	-0.618241	-1.104770	-0.407701
C31	C	-0.710906	-1.100381	-0.412135
C32	C	-0.880568	-1.092373	-0.420248
C33	C	-0.921857	-1.138161	-0.374559
C34	C	-1.016262	-1.133705	-0.379072
C35	C	-0.786154	-1.096828	-0.415735
C36	C	-0.184179	-1.125686	-0.387069
C37	C	-0.091513	-1.130155	-0.382669
C38	C	-0.401571	-1.115247	-0.602138
C39	C	-0.401545	-1.115269	-0.689387
C40	C	-0.401647	-0.319940	-0.397418
C41	C	-0.401640	-0.407190	-0.397405
C42	C	-0.348223	-1.168048	-0.727853
C43	C	-0.348195	-1.168059	-0.809832
C44	C	-0.401494	-1.115293	-0.853344
C45	C	-0.454819	-1.062508	-0.814872
C46	C	-0.454841	-1.062494	-0.732894
C47	C	-0.454768	-1.062542	-0.985740
C48	C	-0.454747	-1.062557	-1.067723
C49	C	-0.348122	-1.168107	-1.062678
C50	C	-0.348145	-1.168093	-0.980700
C51	C	-0.401471	-1.115309	-0.942234
C52	C	-0.401634	-1.115195	-0.193449
C53	C	-0.401425	-1.115336	-0.106190
H54	H	-0.498499	-0.558916	-0.492928
Cl55	Cl	-0.521743	-0.996214	-1.122423
Cl56	Cl	-0.522130	-0.828790	-0.516228
Cl57	Cl	-0.281196	-1.234447	-0.858188
Cl58	Cl	-0.522130	-0.643762	-0.516247
H59	H	-0.498500	-0.410188	-0.492945
Cl60	Cl	-0.281126	-0.587435	-0.278535
H61	H	-0.916118	-1.049830	-0.462749
H62	H	-0.498253	-1.019508	-0.701576
Cl63	Cl	-0.281219	-1.234390	-0.673161
Cl64	Cl	-0.866970	-1.203847	-0.308930
H65	H	-0.304774	-0.419424	-0.301879
Cl66	Cl	-0.521806	-0.996183	-0.937384
Cl67	Cl	-0.281145	-1.234432	-0.926001
H68	H	-0.498212	-1.019543	-0.850306
Cl69	Cl	-0.281120	-0.655247	-0.278538
Cl70	Cl	-0.281112	-0.840286	-0.278521
Cl71	Cl	-0.281085	-1.234465	-1.111035
