data_functionalizedCrystal
_audit_creation_method	'MofGen! by Chris Wilmer'
_symmetry_space_group_name_H-M	'P1'
_symmetry_Int_Tables_number	1
_symmetry_cell_setting	triclinic
loop_
_symmetry_equiv_pos_as_xyz
  x,y,z
_cell_length_a	18.101398
_cell_length_b	13.032868
_cell_length_c	13.032268
_cell_angle_alpha	76.714099
_cell_angle_beta	97.157621
_cell_angle_gamma	82.791775
loop_
_atom_site_label
_atom_site_type_symbol
_atom_site_fract_x
_atom_site_fract_y
_atom_site_fract_z
Zn1	Zn	1.028279	0.499221	-0.654349
Zn2	Zn	1.528279	0.999221	-0.154349
Zn3	Zn	1.028184	0.654305	-0.499289
Zn4	Zn	1.528184	1.154305	0.000711
Zn5	Zn	0.922457	0.476702	-0.476752
Zn6	Zn	1.422457	0.976702	0.023248
Zn7	Zn	0.886392	0.676759	-0.676807
Zn8	Zn	1.386392	1.176759	-0.176807
O9	O	0.966328	0.576747	-0.576799
O10	O	1.466328	1.076747	-0.076799
O11	O	1.131894	0.519821	-0.633813
O12	O	1.631894	1.019821	-0.133813
O13	O	1.029212	0.611924	-0.347683
O14	O	1.529212	1.111924	0.152317
O15	O	0.951627	0.331061	-0.481480
O16	O	1.451627	0.831061	0.018520
O17	O	1.131824	0.633760	-0.519892
O18	O	1.631824	1.133760	-0.019892
O19	O	1.029375	0.347607	-0.611959
O20	O	1.529375	0.847607	-0.111959
O21	O	0.951535	0.481439	-0.331125
O22	O	1.451535	0.981439	0.168875
O23	O	0.814045	0.503212	-0.503257
O24	O	1.314045	1.003212	-0.003257
O25	O	0.890161	0.672030	-0.822444
O26	O	1.390161	1.172030	-0.322444
O27	O	0.787549	0.650193	-0.650236
O28	O	1.287549	1.150193	-0.150236
O29	O	0.994404	0.541594	-0.805944
O30	O	1.494404	1.041594	-0.305944
O31	O	0.994242	0.805911	-0.541668
O32	O	1.494242	1.305911	-0.041668
O33	O	0.890068	0.822408	-0.672090
O34	O	1.390068	1.322408	-0.172090
C35	C	0.773927	0.576696	-0.576738
C36	C	1.273927	1.076696	-0.076738
C37	C	0.691613	0.576704	-0.576741
C38	C	1.191613	1.076704	-0.076741
C39	C	0.938249	0.852700	-0.611785
C40	C	1.438249	1.352700	-0.111785
C41	C	0.926301	0.970758	-0.626787
C42	C	1.426301	1.470758	-0.126787
C43	C	0.938270	0.611828	-0.853806
C44	C	1.438270	1.111828	-0.353806
C45	C	0.926314	0.626778	-0.971850
C46	C	1.426314	1.126778	-0.471850
C47	C	0.392506	0.576781	-0.576838
C48	C	0.892506	1.076781	-0.076838
C49	C	0.440478	0.483945	-0.484711
C50	C	0.940478	0.983945	0.015289
C51	C	0.526109	0.484123	-0.484391
C52	C	1.026109	0.984123	0.015609
C53	C	0.540896	0.576742	-0.576790
C54	C	1.040896	1.076742	-0.076790
C55	C	0.501535	0.684746	-0.560408
C56	C	1.001535	1.184746	-0.060408
C57	C	0.415994	0.684216	-0.559782
C58	C	0.915994	1.184216	-0.059782
C59	C	0.415596	0.562610	-0.685663
C60	C	0.915596	1.062610	-0.185663
C61	C	0.501562	0.560041	-0.684733
C62	C	1.001562	1.060041	-0.184733
C63	C	0.624759	0.576727	-0.576765
C64	C	1.124759	1.076727	-0.076765
C65	C	0.308642	0.576804	-0.576862
C66	C	0.808642	1.076804	-0.076862
C67	C	1.159480	0.576798	-0.576861
C68	C	1.659480	1.076798	-0.076861
C69	C	1.241789	0.576820	-0.576887
C70	C	1.741789	1.076820	-0.076887
C71	C	0.972552	1.015201	-0.568994
C72	C	1.472552	1.515201	-0.068994
C73	C	0.960204	1.137221	-0.584498
C74	C	1.460204	1.637221	-0.084498
C75	C	0.994511	1.299718	-0.541689
C76	C	1.494511	1.799718	-0.041689
C77	C	1.006462	1.181660	-0.526697
C78	C	1.506462	1.681660	-0.026697
C79	C	0.972561	0.568906	-1.016314
C80	C	1.472561	1.068906	-0.516314
C81	C	0.960204	0.584356	-1.138319
C82	C	1.460204	1.084356	-0.638319
C83	C	0.994327	0.541725	-0.300860
C84	C	1.494327	1.041725	0.199140
C85	C	1.006458	0.526476	-0.182779
C86	C	1.506458	1.026476	0.317221
H87	H	0.553618	0.403588	-0.493030
H88	H	1.053618	0.903588	0.006970
H89	H	0.911455	0.645338	-1.190571
H90	H	1.411455	1.145338	-0.690571
H91	H	1.055200	0.465481	-1.130527
H92	H	1.555200	0.965481	-0.630527
F93	F	0.862600	0.706486	-1.040147
F94	F	1.362600	1.206486	-0.540147
F95	F	1.036263	0.946867	-0.489323
F96	F	1.536263	1.446867	0.010677
F97	F	0.896497	1.205553	-0.664185
F98	F	1.396497	1.705553	-0.164185
F99	F	0.397540	0.702104	-0.456349
F100	F	0.897540	1.202104	0.043651
H101	H	0.426423	0.403130	-0.493107
H102	H	0.926423	0.903130	0.006893
H103	H	1.055207	1.129381	-0.465740
H104	H	1.555207	1.629381	0.034260
F105	F	0.513652	0.643470	-0.777762
F106	F	1.013652	1.143470	-0.277762
F107	F	0.862597	1.039094	-0.706470
F108	F	1.362597	1.539094	-0.206470
H109	H	0.383058	0.754964	-0.624729
H110	H	0.883058	1.254964	-0.124729
F111	F	0.420822	0.494485	-0.379533
F112	F	0.920822	0.994485	0.120467
H113	H	1.021300	0.507918	-0.964058
H114	H	1.521300	1.007918	-0.464058
H115	H	0.553110	0.492351	-0.403465
H116	H	1.053110	0.992351	0.096535
H117	H	0.509656	0.755153	-0.626032
H118	H	1.009656	1.255153	-0.126032
H119	H	0.528712	0.698965	-0.482216
H120	H	1.028712	1.198965	0.017784
F121	F	0.394341	0.462437	-0.708706
F122	F	0.894341	0.962437	-0.208706
H123	H	0.383074	0.630402	-0.754131
H124	H	0.883074	1.130402	-0.254131
F125	F	0.536015	0.456256	-0.701227
F126	F	1.036015	0.956256	-0.201227
