data_functionalizedCrystal
_audit_creation_method	'MofGen! by Chris Wilmer'
_symmetry_space_group_name_H-M	'P1'
_symmetry_Int_Tables_number	1
_symmetry_cell_setting	triclinic
loop_
_symmetry_equiv_pos_as_xyz
  x,y,z
_cell_length_a	19.288835
_cell_length_b	18.366186
_cell_length_c	10.654549
_cell_angle_alpha	89.996632
_cell_angle_beta	83.805439
_cell_angle_gamma	89.986000
loop_
_atom_site_label
_atom_site_type_symbol
_atom_site_fract_x
_atom_site_fract_y
_atom_site_fract_z
O1	O	-0.922389	0.060691	-0.156474
O2	O	-0.720264	0.060661	-0.177646
O3	O	-0.825972	0.060674	0.015780
O4	O	-0.816681	0.060678	-0.349899
O5	O	-0.825960	-0.060426	0.015784
O6	O	-0.720253	-0.060439	-0.177641
O7	O	-0.922377	-0.060408	-0.156469
Zn8	Zn	-0.821313	-0.079651	-0.167055
Zn9	Zn	-0.821328	0.079903	-0.167060
O10	O	-0.816670	-0.060421	-0.349895
C11	C	-0.694377	0.000107	-0.176969
C12	C	-0.617259	0.000096	-0.174943
N13	N	-0.821308	-0.188542	-0.167050
C14	C	-0.581055	0.066108	-0.173972
C15	C	-0.508596	0.066115	-0.172054
C16	C	-0.472344	0.000106	-0.171082
C17	C	-0.508556	-0.065915	-0.172060
C18	C	-0.581014	-0.065920	-0.173990
C19	C	-0.362509	-0.050458	-0.094467
C20	C	-0.290054	-0.050450	-0.092529
C21	C	-0.248861	0.000120	-0.165134
C22	C	-0.280134	0.050695	-0.239661
C23	C	-0.352592	0.050689	-0.241591
C24	C	-0.393776	0.000105	-0.168989
C25	C	-0.134088	0.066145	-0.162085
C26	C	-0.061627	0.066149	-0.160175
C27	C	-0.061590	-0.065882	-0.160169
C28	C	-0.134049	-0.065885	-0.162091
C29	C	-0.170294	0.000131	-0.163043
C30	C	0.051736	0.000141	-0.157155
C31	C	-0.025380	0.000140	-0.159205
C32	C	-0.868147	-0.773086	-0.081430
C33	C	-0.868148	-0.696859	-0.081433
C34	C	-0.821328	-0.658753	-0.167049
C35	C	-0.774516	-0.696882	-0.252690
C36	C	-0.774522	-0.773108	-0.252694
C37	C	-0.758145	-0.538008	-0.183821
C38	C	-0.758139	-0.461783	-0.183809
C39	C	-0.821312	-0.423646	-0.167047
C40	C	-0.884495	-0.461742	-0.150270
C41	C	-0.884500	-0.537969	-0.150273
C42	C	-0.821318	-0.576098	-0.167056
C43	C	-0.868126	-0.302871	-0.081420
C44	C	-0.868128	-0.226642	-0.081431
C45	C	-0.774490	-0.226667	-0.252683
C46	C	-0.774494	-0.302894	-0.252677
C47	C	-0.821311	-0.340992	-0.167039
C48	C	-0.825283	0.000125	0.062565
C49	C	-0.823240	0.000127	0.201964
N50	N	-0.821339	0.188794	-0.167055
C51	C	-0.817358	0.000129	-0.396680
C52	C	-0.819401	0.000132	-0.536079
C53	C	-0.945807	0.000141	0.494596
C54	C	-1.009970	0.000149	0.444445
C55	C	-1.011892	0.000151	0.313468
C56	C	-0.949644	0.000142	0.232638
C57	C	-0.885481	0.000134	0.282789
C58	C	-0.883566	0.000135	0.413770
C59	C	-0.759077	0.000119	0.252115
C60	C	-0.757153	0.000123	0.383091
C61	C	-0.696829	0.000110	0.171285
C62	C	-0.632665	0.000107	0.221435
C63	C	-0.630745	0.000107	0.352421
C64	C	-0.692990	0.000115	0.433242
H65	H	-0.610562	0.119863	-0.174747
N66	N	-0.022574	0.137352	-0.159131
H67	H	-0.056533	0.179168	-0.160023
H68	H	0.002226	0.140222	-0.080499
H69	H	-0.906250	-0.333892	-0.011691
H70	H	-0.578496	0.000092	0.393244
N71	N	-0.943743	0.000142	0.635865
H72	H	-0.918463	-0.044753	0.661399
H73	H	-0.918487	0.045059	0.661295
N74	N	-0.173108	-0.137082	-0.163114
H75	H	-0.197907	-0.140026	-0.241744
H76	H	-0.139113	-0.178859	-0.162156
H77	H	-0.479113	0.119872	-0.171265
N78	N	-0.022499	-0.137078	-0.159114
H79	H	-0.040366	-0.165937	-0.081617
H80	H	-0.029850	-0.165882	-0.237329
H81	H	-0.706698	-0.569053	-0.197477
N82	N	-0.918621	-0.185523	0.010919
H83	H	-0.948277	-0.221228	0.065167
H84	H	-0.891760	-0.153905	0.066301
N85	N	-0.469312	-0.137010	-0.170793
H86	H	-0.476506	-0.166002	-0.248887
H87	H	-0.417973	-0.126733	-0.169304
H88	H	-0.951215	0.000134	0.125992
H89	H	-0.264597	-0.091627	-0.031838
H90	H	-0.906270	-0.804103	-0.011701
H91	H	-0.698399	0.000106	0.064638
N92	N	-0.918627	-0.655747	0.010962
H93	H	-0.891801	-0.624141	0.066426
H94	H	-0.949609	-0.624141	-0.036928
N95	N	-0.690928	0.000109	0.574511
H96	H	-0.665649	-0.044788	0.600039
H97	H	-0.665673	0.045025	0.599952
N98	N	-0.724027	-0.814229	-0.345038
H99	H	-0.732451	-0.800961	-0.434131
H100	H	-0.674686	-0.800960	-0.330698
H101	H	-0.736396	-0.665852	-0.322403
H102	H	-0.736371	-0.195642	-0.322398
N103	N	-1.077107	0.000151	0.531623
H104	H	-1.066156	0.000150	0.622207
H105	H	-1.105050	0.045046	0.515425
N106	N	-1.081094	0.000153	0.259367
H107	H	-1.120236	0.000156	0.330441
H108	H	-1.084648	0.045046	0.205688
H109	H	-0.581988	0.000095	0.155614
H110	H	-0.935946	-0.568984	-0.136616
H111	H	-0.246596	0.091872	-0.298788
H112	H	-0.378051	0.091867	-0.302276
H113	H	-0.163600	0.119899	-0.162874
N114	N	-0.723995	-0.344012	-0.345014
H115	H	-0.731102	-0.398083	-0.332024
H116	H	-0.732444	-0.330682	-0.434064
N117	N	-0.406932	-0.105009	-0.016155
H118	H	-0.400533	-0.098260	0.075965
H119	H	-0.457559	-0.097312	-0.028792
N120	N	-0.620067	-0.137121	-0.175043
H121	H	-0.586110	-0.178939	-0.174142
H122	H	-0.655392	-0.140002	-0.098010
N123	N	-0.952638	-0.420618	-0.132200
H124	H	-0.992661	-0.456318	-0.121574
H125	H	-0.953717	-0.388992	-0.054472
H126	H	-0.706692	-0.430771	-0.197455
