data_functionalizedCrystal
_audit_creation_method	'MofGen! by Chris Wilmer'
_symmetry_space_group_name_H-M	'P1'
_symmetry_Int_Tables_number	1
_symmetry_cell_setting	triclinic
loop_
_symmetry_equiv_pos_as_xyz
  x,y,z
_cell_length_a	12.759395
_cell_length_b	12.759394
_cell_length_c	12.827885
_cell_angle_alpha	90.029530
_cell_angle_beta	90.017790
_cell_angle_gamma	90.013701
loop_
_atom_site_label
_atom_site_type_symbol
_atom_site_fract_x
_atom_site_fract_y
_atom_site_fract_z
Zn1	Zn	1.606258	-0.418220	0.590809
Zn2	Zn	1.606156	-0.593936	0.416070
Zn3	Zn	1.430561	-0.418271	0.416087
Zn4	Zn	1.430551	-0.593857	0.590775
O5	O	1.518381	-0.506071	0.503435
O6	O	1.753265	-0.441541	0.567637
O7	O	1.582825	-0.570687	0.269836
O8	O	1.453914	-0.271243	0.439286
O9	O	1.753191	-0.570638	0.439257
O10	O	1.582998	-0.271206	0.567654
O11	O	1.453816	-0.441627	0.269849
O12	O	1.283539	-0.441551	0.439253
O13	O	1.453897	-0.570504	0.737015
O14	O	1.283531	-0.570554	0.567595
O15	O	1.582988	-0.441464	0.737041
O16	O	1.582815	-0.740946	0.439224
O17	O	1.453799	-0.740889	0.567578
C18	C	1.245414	-0.506050	0.503423
C19	C	1.128637	-0.506066	0.503442
C20	C	1.128696	-0.371854	0.637340
C21	C	1.073864	-0.304761	0.704297
C22	C	0.964143	-0.304780	0.704310
C23	C	0.909250	-0.371897	0.637356
C24	C	0.964082	-0.438990	0.570399
C25	C	1.073806	-0.438966	0.570396
C26	C	0.964023	-0.573195	0.436497
C27	C	1.073745	-0.573183	0.436488
C28	C	0.909130	-0.640312	0.369544
C29	C	0.963962	-0.707412	0.302590
C30	C	1.073690	-0.707392	0.302580
C31	C	1.128576	-0.640277	0.369531
C32	C	1.518323	-0.779038	0.503418
C33	C	1.518394	-0.895815	0.503446
C34	C	1.652708	-0.895618	0.637215
C35	C	1.719899	-0.950380	0.704107
C36	C	1.719961	-1.060102	0.704130
C37	C	1.652824	-1.115064	0.637255
C38	C	1.585634	-1.060301	0.570363
C39	C	1.585581	-0.950577	0.570345
C40	C	1.451316	-1.060498	0.436600
C41	C	1.451257	-0.950777	0.436571
C42	C	1.384178	-1.115460	0.369725
C43	C	1.316992	-1.060698	0.302826
C44	C	1.316933	-0.950970	0.302805
C45	C	1.384067	-0.896015	0.369678
C46	C	1.792415	-0.506093	0.503449
C47	C	1.909192	-0.506102	0.503455
C48	C	1.518453	-0.505970	0.776006
C49	C	1.518483	-0.505927	0.892159
C50	C	1.518469	-0.232037	0.503476
C51	C	1.518506	-0.115261	0.503493
C52	C	1.518371	-0.506096	0.231926
C53	C	1.518544	-0.505843	0.115773
C54	C	1.582369	-0.442061	0.943956
C55	C	1.582402	-0.442016	1.064007
H56	H	0.819909	-0.371897	0.637365
O57	O	1.453436	-0.571131	1.062530
C58	C	1.513276	-0.638976	0.999409
H59	H	1.592918	-0.601918	0.983178
H60	H	1.524766	-0.716857	1.041400
C61	C	1.357719	-0.703454	0.915598
C62	C	1.455534	-0.657935	0.895656
H63	H	1.322101	-0.715154	0.851600
H64	H	1.317403	-0.657749	0.958126
H65	H	1.367308	-0.768351	0.950593
H66	H	1.445944	-0.593034	0.860674
H67	H	1.495848	-0.703629	0.853119
O68	O	1.127025	-0.239474	0.769374
C69	C	1.055100	-0.180283	0.828494
H70	H	0.976871	-0.176597	0.785700
H71	H	1.043455	-0.218870	0.907788
C72	C	1.194018	-0.073008	0.896326
C73	C	1.097939	-0.068473	0.843762
H74	H	1.220444	-0.004039	0.905750
H75	H	1.242477	-0.112888	0.856500
H76	H	1.184301	-0.105168	0.962399
H77	H	1.107660	-0.036325	0.777687
H78	H	1.049483	-0.028585	0.883579
H79	H	0.819789	-0.640320	0.369556
O80	O	0.910758	-0.239754	0.769402
C81	C	0.847336	-0.299676	0.836810
H82	H	0.830889	-0.379252	0.799811
H83	H	0.889650	-0.311307	0.914230
C84	C	0.763315	-0.144187	0.901280
C85	C	0.743108	-0.241921	0.855834
H86	H	0.699024	-0.108560	0.913020
H87	H	0.806046	-0.103815	0.855870
H88	H	0.798579	-0.153894	0.965792
H89	H	0.707856	-0.232213	0.791318
H90	H	0.700368	-0.282290	0.901235
H91	H	1.384030	-0.806673	0.369664
O92	O	1.785258	-0.897109	0.769019
C93	C	1.889997	-0.923836	0.746253
H94	H	1.892236	-1.003525	0.706092
H95	H	1.925379	-0.862090	0.692547
C96	C	1.950837	-0.830917	0.897507
C97	C	1.953588	-0.928797	0.848189
H98	H	1.990065	-0.833973	0.960385
H99	H	1.880273	-0.812907	0.912844
H100	H	1.980320	-0.779473	0.852742
H101	H	1.924093	-0.980237	0.892948
H102	H	2.024149	-0.946816	0.832862
H103	H	0.919260	-0.762049	0.248077
H104	H	1.637035	-0.387414	0.899425
O105	O	1.647504	-0.376667	1.117184
C106	C	1.587669	-0.308857	1.180346
H107	H	1.504944	-0.302348	1.147387
H108	H	1.583990	-0.341383	1.263022
C109	C	1.740629	-0.207635	1.222662
C110	C	1.639028	-0.199634	1.182176
H111	H	1.772311	-0.140262	1.223795
H112	H	1.780943	-0.253322	1.180111
H113	H	1.737550	-0.234745	1.291555
H114	H	1.642110	-0.172538	1.113280
H115	H	1.598716	-0.153940	1.224715
O116	O	1.235159	-0.640425	0.369615
C117	C	1.271828	-0.741151	0.396239
H118	H	1.208615	-0.784661	0.441722
H119	H	1.291268	-0.786563	0.322170
C120	C	1.448651	-0.677620	0.408072
C121	C	1.371015	-0.731056	0.463944
H122	H	1.509837	-0.671395	0.449832
H123	H	1.423948	-0.609760	0.390132
H124	H	1.464838	-0.715471	0.346351
H125	H	1.354819	-0.693199	0.525656
H126	H	1.395717	-0.798910	0.481896
H127	H	1.218037	-0.371828	0.637331
O128	O	1.126788	-0.772668	0.237504
C129	C	1.054806	-0.831884	0.178399
H130	H	0.976608	-0.835586	0.221202
H131	H	1.043110	-0.793308	0.099103
C132	C	1.193650	-0.939130	0.110560
C133	C	1.097609	-0.943684	0.163136
H134	H	1.220054	-1.008093	0.101141
H135	H	1.242147	-0.899233	0.150377
H136	H	1.183891	-0.906979	0.044485
H137	H	1.107373	-0.975823	0.229214
H138	H	1.049115	-0.983590	0.123330
H139	H	1.463807	-0.560564	0.936690
H140	H	1.774662	-1.104689	0.758611
O141	O	1.652754	-0.789035	0.637353
C142	C	1.726436	-0.752268	0.710696
H143	H	1.741156	-0.815441	0.771777
H144	H	1.803052	-0.732774	0.669310
C145	C	1.665465	-0.575510	0.689188
C146	C	1.683538	-0.653097	0.764214
H147	H	1.639007	-0.514334	0.722197
H148	H	1.615826	-0.600279	0.639772
H149	H	1.729316	-0.559278	0.654705
H150	H	1.619685	-0.669337	0.798685
H151	H	1.733165	-0.628328	0.813637
H152	H	1.652872	-1.204405	0.637288
O153	O	1.251880	-1.114248	0.237906
C154	C	1.266315	-1.222833	0.252298
H155	H	1.347387	-1.237730	0.286590
H156	H	1.203987	-1.253971	0.307908
C157	C	1.157194	-1.260963	0.104453
C158	C	1.256770	-1.279261	0.146565
H159	H	1.151301	-1.295772	0.039234
H160	H	1.147464	-1.187808	0.094759
H161	H	1.105264	-1.286911	0.150806
H162	H	1.308697	-1.253301	0.100219
H163	H	1.266508	-1.352413	0.156248
H164	H	1.262215	-0.906388	0.248338
H165	H	1.384230	-1.204801	0.369752
