data_functionalizedCrystal
_audit_creation_method	'MofGen! by Chris Wilmer'
_symmetry_space_group_name_H-M	'P1'
_symmetry_Int_Tables_number	1
_symmetry_cell_setting	triclinic
loop_
_symmetry_equiv_pos_as_xyz
  x,y,z
_cell_length_a	15.995350
_cell_length_b	15.538191
_cell_length_c	14.185569
_cell_angle_alpha	82.127072
_cell_angle_beta	103.158160
_cell_angle_gamma	65.382234
loop_
_atom_site_label
_atom_site_type_symbol
_atom_site_fract_x
_atom_site_fract_y
_atom_site_fract_z
O1	O	1.048627	0.142757	-0.083326
O2	O	0.800288	0.157756	-0.083346
O3	O	0.972797	0.013127	-0.083337
O4	O	0.876118	0.287386	-0.083335
O5	O	1.023756	-0.029593	0.083500
O6	O	0.851248	0.115036	0.083491
O7	O	1.099586	0.100037	0.083511
Cu8	Cu	0.980070	0.103636	0.098734
Cu9	Cu	0.919805	0.154157	-0.098570
O10	O	0.927077	0.244666	0.083502
C11	C	1.008391	-0.043328	0.000079
C12	C	1.038519	-0.147899	0.000071
C13	C	0.794761	0.135777	0.000070
C14	C	0.702373	0.133920	0.000062
C15	C	0.739184	-0.435690	0.000069
C16	C	0.767519	-0.533956	0.000073
C17	C	0.926888	-0.556402	0.000086
C18	C	0.898566	-0.458134	0.000076
C19	C	0.804713	-0.397785	0.000069
C20	C	0.964094	-0.420230	0.000076
C21	C	0.935775	-0.321972	0.000072
C22	C	0.841928	-0.261617	0.000068
C23	C	0.776394	-0.299527	0.000065
C24	C	1.057949	-0.480582	0.000091
C25	C	1.123477	-0.442678	0.000091
C26	C	1.095157	-0.344416	0.000080
C27	C	1.001309	-0.284062	0.000075
C28	C	1.160690	-0.306507	0.000083
C29	C	1.132372	-0.208248	0.000079
C30	C	0.972990	-0.185804	0.000071
C31	C	0.366660	0.127241	0.000083
C32	C	0.445511	0.024146	0.000454
C33	C	0.541520	0.026102	0.000071
C34	C	0.533211	0.130554	0.000073
C35	C	0.447585	0.205751	-0.095195
C36	C	0.351714	0.203182	-0.095268
C37	C	0.408678	0.156730	0.094457
C38	C	0.506014	0.156385	0.095710
C39	C	0.627336	0.132433	0.000064
C40	C	0.272532	0.125367	0.000085
C41	C	1.105113	0.122017	0.000093
C42	C	1.197499	0.123875	0.000094
C43	C	0.891482	0.301121	0.000083
C44	C	0.861353	0.405694	0.000084
N45	N	1.022463	0.068101	0.237508
N46	N	0.877420	0.189684	-0.237343
C47	C	0.752880	0.294044	0.605144
C48	C	0.784996	0.267133	0.710167
C49	C	0.937762	0.139112	0.710136
C50	C	0.905656	0.166009	0.605110
C51	C	0.813215	0.243476	0.552623
C52	C	0.965991	0.115441	0.552589
C53	C	0.933890	0.142339	0.447573
C54	C	0.841453	0.219805	0.395078
C55	C	0.781114	0.270374	0.447606
C56	C	1.058434	0.037979	0.605079
C57	C	1.118769	-0.012589	0.552558
C58	C	1.086666	0.014304	0.447540
C59	C	0.994229	0.091770	0.395045
C60	C	1.147006	-0.036264	0.395012
C61	C	1.114904	-0.009366	0.289996
C62	C	0.962128	0.118669	0.290029
H63	H	0.896564	-0.136662	0.000058
N64	N	0.806819	0.248808	0.281810
H65	H	0.739103	0.305552	0.256531
H66	H	0.851850	0.268981	0.256570
H67	H	0.465027	0.188620	-0.166096
N68	N	0.811370	-0.155637	0.000063
H69	H	0.854724	-0.152203	0.061910
H70	H	0.816933	-0.120600	-0.061824
N71	N	0.653169	0.377591	0.548525
H72	H	0.648067	0.439778	0.566799
H73	H	0.642054	0.386867	0.474047
H74	H	1.084569	0.016084	0.690590
H75	H	1.185732	-0.177387	0.000080
N76	N	0.675162	-0.234421	0.000041
H77	H	0.637940	-0.273339	0.000035
H78	H	0.678829	-0.208997	0.061887
N79	N	0.696833	-0.574835	0.000074
H80	H	0.638174	-0.536996	-0.061775
H81	H	0.729090	-0.646242	0.000117
H82	H	1.003304	-0.605553	0.000096
N83	N	0.424255	0.087637	0.190113
H84	H	0.404227	0.036516	0.173237
H85	H	0.495038	0.054362	0.231450
H86	H	0.295162	0.279910	-0.099590
H87	H	1.081000	-0.560588	0.000085
N88	N	0.336307	0.257099	0.095333
H89	H	0.322589	0.306804	0.032509
H90	H	0.274186	0.255999	0.097981
N91	N	0.637952	-0.370584	0.000045
H92	H	0.600731	-0.409502	0.000039
H93	H	0.641619	-0.345160	0.061891
H94	H	1.199894	-0.491828	0.000101
H95	H	0.602944	-0.031318	0.068363
N96	N	1.261919	-0.371606	0.000110
H97	H	1.269917	-0.439606	0.000120
H98	H	1.272885	-0.343507	-0.061736
H99	H	1.194038	-0.075662	0.595306
H100	H	0.417620	0.000561	-0.067490
H101	H	0.886849	0.181744	0.247291
N102	N	0.465202	-0.053567	0.090955
H103	H	0.423199	-0.022703	0.132593
H104	H	0.449898	-0.105642	0.068148
H105	H	1.222276	-0.099333	0.437761
H106	H	0.322912	0.184370	-0.166484
H107	H	0.499987	0.231081	0.101465
N108	N	0.566939	-0.003951	-0.090542
H109	H	0.515744	-0.018516	-0.130397
H110	H	0.570190	0.051104	-0.133883
H111	H	1.164036	-0.050543	0.247233
N112	N	1.037459	0.055555	0.766746
H113	H	1.087985	0.071121	0.748456
H114	H	1.048556	0.046223	0.841225
N115	N	0.433971	0.308602	-0.099905
H116	H	0.483295	0.307438	-0.040185
H117	H	0.442942	0.335392	-0.163760
N118	N	0.585636	0.083361	0.189073
H119	H	0.639106	0.033749	0.169512
H120	H	0.612443	0.118938	0.231329
H121	H	0.735856	0.308319	0.752924
N122	N	0.681403	0.353921	0.390988
H123	H	0.676300	0.416108	0.409262
H124	H	0.670287	0.363198	0.316510
