data_functionalizedCrystal
_audit_creation_method	'MofGen! by Chris Wilmer'
_symmetry_space_group_name_H-M	'P1'
_symmetry_Int_Tables_number	1
_symmetry_cell_setting	triclinic
loop_
_symmetry_equiv_pos_as_xyz
  x,y,z
_cell_length_a	19.288840
_cell_length_b	15.625429
_cell_length_c	18.366186
_cell_angle_alpha	71.916618
_cell_angle_beta	89.983729
_cell_angle_gamma	83.704569
loop_
_atom_site_label
_atom_site_type_symbol
_atom_site_fract_x
_atom_site_fract_y
_atom_site_fract_z
O1	O	0.921744	0.112356	-0.090332
O2	O	1.421744	0.612356	0.409668
O3	O	0.719533	0.127551	-0.094318
O4	O	1.219533	0.627551	0.405682
O5	O	0.826038	-0.011307	-0.057670
O6	O	1.326038	0.488693	0.442330
O7	O	0.815239	0.251214	-0.126981
O8	O	1.315239	0.751214	0.373019
O9	O	0.826020	-0.011314	0.063432
O10	O	1.326020	0.488686	0.563432
O11	O	0.719515	0.127544	0.026783
O12	O	1.219515	0.627544	0.526783
O13	O	0.921726	0.112349	0.030769
O14	O	1.421726	0.612349	0.530769
Zn15	Zn	0.820618	0.119946	0.048003
Zn16	Zn	1.320618	0.619946	0.548003
Zn17	Zn	0.820642	0.119954	-0.111553
Zn18	Zn	1.320642	0.619954	0.388447
O19	O	0.815221	0.251207	-0.005880
O20	O	1.315221	0.751207	0.494120
C21	C	0.693645	0.127062	-0.033637
C22	C	1.193645	0.627062	0.466363
C23	C	0.616536	0.125606	-0.033242
C24	C	1.116536	0.625606	0.466758
C25	C	0.580340	0.124910	-0.099072
C26	C	1.080340	0.624910	0.400928
C27	C	0.507888	0.123531	-0.098717
C28	C	1.007888	0.623531	0.401283
C29	C	0.471637	0.122831	-0.032524
C30	C	0.971637	0.622831	0.467476
C31	C	0.507842	0.123532	0.033313
C32	C	1.007842	0.623532	0.533313
C33	C	0.580291	0.124920	0.032954
C34	C	1.080291	0.624920	0.532954
C35	C	0.362116	0.067825	0.032560
C36	C	0.862116	0.567825	0.532560
C37	C	0.289668	0.066432	0.032918
C38	C	0.789668	0.566432	0.532918
C39	C	0.248179	0.118555	-0.031414
C40	C	0.748179	0.618555	0.468586
C41	C	0.279148	0.172061	-0.096114
C42	C	0.779148	0.672061	0.403886
C43	C	0.351597	0.173448	-0.096473
C44	C	0.851597	0.673448	0.403527
C45	C	0.393078	0.121327	-0.032127
C46	C	0.893078	0.621327	0.467873
C47	C	0.133423	0.116366	-0.096863
C48	C	0.633423	0.616366	0.403137
C49	C	0.060969	0.114993	-0.096507
C50	C	0.560969	0.614993	0.403493
C51	C	0.060925	0.114985	0.035527
C52	C	0.560925	0.614985	0.535527
C53	C	0.133376	0.116367	0.035166
C54	C	0.633376	0.616367	0.535166
C55	C	0.169621	0.117053	-0.031030
C56	C	0.669621	0.617053	0.468970
C57	C	0.825539	-0.044896	0.011747
C58	C	1.325539	0.455104	0.511747
C59	C	0.824071	-0.144971	0.038165
C60	C	1.324071	0.355029	0.538165
C61	C	0.819273	-0.474086	-0.204983
C62	C	1.319273	0.025914	0.295017
C63	C	0.817891	-0.568121	-0.180137
C64	C	1.317891	-0.068121	0.319863
C65	C	0.817871	-0.568115	-0.048121
C66	C	1.317871	-0.068115	0.451879
C67	C	0.819257	-0.474078	-0.072956
C68	C	1.319257	0.025922	0.427044
C69	C	0.819957	-0.427071	-0.151388
C70	C	1.319957	0.072929	0.348612
C71	C	0.819941	-0.427064	-0.019361
C72	C	1.319941	0.072936	0.480639
C73	C	0.821323	-0.333035	-0.044195
C74	C	1.321323	0.166965	0.455805
C75	C	0.822021	-0.286021	-0.122623
C76	C	1.322021	0.213979	0.377377
C77	C	0.821339	-0.333043	-0.176222
C78	C	1.321339	0.166957	0.323778
C79	C	0.819236	-0.474072	0.059071
C80	C	1.319236	0.025928	0.559071
C81	C	0.819920	-0.427057	0.112666
C82	C	1.319920	0.072943	0.612666
C83	C	0.821307	-0.333028	0.087833
C84	C	1.321307	0.166972	0.587833
C85	C	0.822005	-0.286014	0.009404
C86	C	1.322005	0.213986	0.509404
C87	C	0.821989	-0.286006	0.141431
C88	C	1.321989	0.213994	0.641431
C89	C	0.823371	-0.191978	0.116597
C90	C	1.323371	0.308022	0.616597
C91	C	0.823387	-0.191985	-0.015430
C92	C	1.323387	0.308015	0.484570
C93	C	0.947614	0.112838	-0.029915
C94	C	1.447614	0.612838	0.470085
C95	C	1.024723	0.114294	-0.030314
C96	C	1.524723	0.614294	0.469686
C97	C	0.815720	0.284796	-0.075298
C98	C	1.315720	0.784796	0.424702
C99	C	0.817188	0.384871	-0.101721
C100	C	1.317188	0.884871	0.398279
N101	N	0.820606	0.119939	0.156896
N102	N	1.320606	0.619939	0.656896
N103	N	0.820658	0.119954	-0.220444
N104	N	1.320658	0.619954	0.279556
C105	C	0.867783	0.058483	0.211217
C106	C	1.367783	0.558483	0.711217
C107	C	0.867787	0.058479	0.287445
C108	C	1.367787	0.558479	0.787445
C109	C	0.820622	0.119946	0.309347
C110	C	1.320622	0.619946	0.809347
C111	C	0.773437	0.181407	0.255016
C112	C	1.273437	0.681407	0.755016
C113	C	0.773429	0.181403	0.178790
C114	C	1.273429	0.681403	0.678790
C115	C	0.811602	0.202090	0.408420
C116	C	1.311602	0.702090	0.908420
C117	C	0.811614	0.202095	0.484644
C118	C	1.311614	0.702095	0.984644
C119	C	0.820642	0.119958	0.544451
C120	C	1.320642	0.619958	1.044451
C121	C	0.829671	0.037811	0.528027
C122	C	1.329671	0.537811	1.028027
C123	C	0.829663	0.037808	0.451802
C124	C	1.329663	0.537808	0.951802
C125	C	0.820625	0.119957	0.391999
C126	C	1.320625	0.619957	0.891999
C127	C	0.867825	0.058492	0.681429
C128	C	1.367825	0.558492	1.181429
C129	C	0.867825	0.058487	0.757660
C130	C	1.367825	0.558487	1.257660
C131	C	0.773478	0.181423	0.725227
C132	C	1.273478	0.681423	1.225227
C133	C	0.773475	0.181420	0.649000
C134	C	1.273475	0.681420	1.149000
C135	C	0.820652	0.119956	0.627105
C136	C	1.320652	0.619956	1.127105
H137	H	0.162848	0.116927	0.088773
H138	H	0.662848	0.616927	0.588773
H139	H	0.376808	0.217016	-0.149152
H140	H	0.876808	0.717016	0.350848
H141	H	0.245368	0.214508	-0.148498
H142	H	0.745368	0.714508	0.351502
O143	O	0.722628	0.247747	0.748835
O144	O	1.222628	0.747747	1.248835
H145	H	0.689827	0.290492	0.698249
H146	H	1.189827	0.790492	1.198249
H147	H	0.819347	-0.465343	0.176525
H148	H	1.319347	0.034657	0.676525
O149	O	0.722541	0.247684	0.120194
O150	O	1.222541	0.747684	0.620194
H151	H	0.751813	0.291397	0.073902
H152	H	1.251813	0.791397	0.573902
H153	H	0.906239	0.008437	0.801892
H154	H	1.406239	0.508437	1.301892
H155	H	0.906195	0.008433	0.193394
H156	H	1.406195	0.508433	0.693394
O157	O	0.619433	0.125662	-0.170468
O158	O	1.119433	0.625662	0.329532
H159	H	0.582086	0.124955	-0.216187
H160	H	1.082086	0.624955	0.283813
H161	H	0.837022	-0.029073	0.576723
H162	H	1.337022	0.470927	1.076723
O163	O	0.824116	-0.141260	0.174398
O164	O	1.324116	0.358740	0.674398
H165	H	0.823406	-0.189744	0.233109
H166	H	1.323406	0.310256	0.733109
O167	O	0.817131	-0.618818	0.036472
O168	O	1.317131	-0.118818	0.536472
H169	H	0.816064	-0.692102	0.044739
H170	H	1.316064	-0.192102	0.544739
H171	H	0.162934	0.116934	-0.150767
H172	H	0.662934	0.616934	0.349233
H173	H	0.735062	0.231467	0.604767
H174	H	1.235062	0.731467	1.104767
O175	O	0.468858	0.122886	0.104753
O176	O	0.968858	0.622886	0.604753
H177	H	0.476722	0.184632	0.119993
H178	H	0.976722	0.684632	0.619993
O179	O	0.918677	-0.007807	0.346043
O180	O	1.418677	0.492193	0.846043
H181	H	0.910753	0.002521	0.402726
H182	H	1.410753	0.502521	0.902726
O183	O	0.918697	-0.007808	0.657807
O184	O	1.418697	0.492192	1.157807
H185	H	0.951495	-0.050556	0.708394
H186	H	1.451495	0.449444	1.208394
H187	H	0.031410	0.114420	0.089421
H188	H	0.531410	0.614420	0.589421
H189	H	0.837013	-0.029078	0.438433
H190	H	1.337013	0.470922	0.938433
O191	O	0.817752	-0.575491	0.085857
O192	O	1.317752	-0.075491	0.585857
H193	H	0.770095	-0.592056	0.061732
H194	H	1.270095	-0.092056	0.561732
H195	H	0.478412	0.122966	-0.152325
H196	H	0.978412	0.622966	0.347675
O197	O	0.021927	0.114211	-0.167503
O198	O	0.521927	0.614211	0.332497
H199	H	0.059307	0.114901	-0.213585
H200	H	0.559307	0.614901	0.286415
O201	O	0.820033	-0.423379	-0.289579
O202	O	1.320033	0.076621	0.210421
H203	H	0.773360	-0.372302	-0.306216
H204	H	1.273360	0.127698	0.193784
H205	H	0.821412	-0.324292	0.205290
H206	H	1.321412	0.175708	0.705290
O207	O	0.801890	0.290690	0.502359
O208	O	1.301890	0.790690	1.002359
H209	H	0.795602	0.347804	0.447967
H210	H	1.295602	0.847804	0.947967
O211	O	0.801870	0.290687	0.343913
O212	O	1.301870	0.790687	0.843913
H213	H	0.795606	0.347806	0.368138
H214	H	1.295606	0.847806	0.868138
H215	H	0.264460	0.022860	0.085598
H216	H	0.764460	0.522860	0.585598
H217	H	0.821916	-0.294768	-0.240089
H218	H	1.321916	0.205232	0.259911
H219	H	0.817327	-0.606396	-0.223787
H220	H	1.317327	-0.106396	0.276213
O221	O	0.824147	-0.141278	-0.100026
O222	O	1.324147	0.358722	0.399974
H223	H	0.777475	-0.090201	-0.116663
H224	H	1.277475	0.409799	0.383337
H225	H	0.395891	0.025377	0.084952
H226	H	0.895891	0.525377	0.584952
H227	H	0.609761	0.125487	0.086561
H228	H	1.109761	0.625487	0.586561
O229	O	0.722567	0.247712	0.278629
O230	O	1.222567	0.747712	0.778629
H231	H	0.730504	0.237398	0.340758
H232	H	1.230504	0.737398	0.840758
O233	O	0.823646	-0.184627	-0.149326
O234	O	1.323646	0.315373	0.350674
H235	H	0.871364	-0.168187	-0.182149
H236	H	1.371364	0.331813	0.317851
