data_functionalizedCrystal
_audit_creation_method	'MofGen! by Chris Wilmer'
_symmetry_space_group_name_H-M	'P1'
_symmetry_Int_Tables_number	1
_symmetry_cell_setting	triclinic
loop_
_symmetry_equiv_pos_as_xyz
  x,y,z
_cell_length_a	16.625548
_cell_length_b	16.625545
_cell_length_c	13.897441
_cell_angle_alpha	90.031157
_cell_angle_beta	90.021870
_cell_angle_gamma	90.026626
loop_
_atom_site_label
_atom_site_type_symbol
_atom_site_fract_x
_atom_site_fract_y
_atom_site_fract_z
Zn1	Zn	1.232674	-0.320953	0.545407
Zn2	Zn	1.732674	0.179047	1.045407
Zn3	Zn	1.232566	-0.455803	0.384106
Zn4	Zn	1.732566	0.044197	0.884106
Zn5	Zn	1.097832	-0.320991	0.384122
Zn6	Zn	1.597832	0.179009	0.884122
Zn7	Zn	1.097798	-0.455750	0.545356
Zn8	Zn	1.597798	0.044250	1.045356
O9	O	1.165218	-0.388374	0.464748
O10	O	1.665218	0.111626	0.964748
O11	O	1.345492	-0.338848	0.524025
O12	O	1.845492	0.161152	1.024025
O13	O	1.214663	-0.437958	0.249127
O14	O	1.714663	0.062042	0.749127
O15	O	1.115778	-0.208153	0.405544
O16	O	1.615778	0.291847	0.905544
O17	O	1.345413	-0.437922	0.405518
O18	O	1.845413	0.062078	0.905518
O19	O	1.214846	-0.208126	0.524040
O20	O	1.714846	0.291874	1.024040
O21	O	1.115674	-0.338912	0.249138
O22	O	1.615674	0.161088	0.749138
O23	O	0.984995	-0.338860	0.405495
O24	O	1.484995	0.161140	0.905495
O25	O	1.115721	-0.437830	0.680344
O26	O	1.615721	0.062170	1.180344
O27	O	0.984971	-0.437867	0.523953
O28	O	1.484971	0.062133	1.023953
O29	O	1.214813	-0.338796	0.680382
O30	O	1.714813	0.161204	1.180382
O31	O	1.214630	-0.568629	0.405469
O32	O	1.714630	-0.068629	0.905469
O33	O	1.115617	-0.568589	0.523938
O34	O	1.615617	-0.068589	1.023938
C35	C	0.955727	-0.388363	0.464721
C36	C	1.455727	0.111637	0.964721
C37	C	0.866106	-0.388377	0.464732
C38	C	1.366106	0.111623	0.964732
C39	C	1.165130	-0.597865	0.464717
C40	C	1.665130	-0.097865	0.964717
C41	C	1.165166	-0.687486	0.464737
C42	C	1.665166	-0.187486	0.964737
C43	C	0.537930	-0.388382	0.464773
C44	C	1.037930	0.111618	0.964773
C45	C	0.629239	-0.388379	0.464759
C46	C	1.129239	0.111621	0.964759
C47	C	0.702015	-0.388380	0.464752
C48	C	1.202015	0.111620	0.964752
C49	C	0.793329	-0.388376	0.464739
C50	C	1.293329	0.111624	0.964739
C51	C	1.165198	-0.760269	0.464756
C52	C	1.665198	-0.260269	0.964756
C53	C	1.165245	-0.851577	0.464777
C54	C	1.665245	-0.351577	0.964777
C55	C	1.165286	-0.924353	0.464789
C56	C	1.665286	-0.424353	0.964789
C57	C	1.165333	-1.015668	0.464809
C58	C	1.665333	-0.515668	0.964809
C59	C	1.375527	-0.388386	0.464775
C60	C	1.875527	0.111614	0.964775
C61	C	1.465148	-0.388392	0.464787
C62	C	1.965148	0.111608	0.964787
C63	C	1.165275	-0.388303	0.716341
C64	C	1.665275	0.111697	1.216341
C65	C	1.165299	-0.388273	0.823555
C66	C	1.665299	0.111727	1.323555
C67	C	1.165328	-0.178065	0.464799
C68	C	1.665328	0.321935	0.964799
C69	C	1.165374	-0.088444	0.464821
C70	C	1.665374	0.411556	0.964821
C71	C	1.165207	-0.388387	0.214133
C72	C	1.665207	0.111613	0.714133
C73	C	1.165339	-0.388190	0.106920
C74	C	1.665339	0.111810	0.606920
C75	C	1.165321	-0.388218	1.019850
C76	C	1.665321	0.111782	1.519850
C77	C	1.165307	-0.388251	0.910618
C78	C	1.665307	0.111749	1.410618
