data_functionalizedCrystal
_audit_creation_method	'MofGen! by Chris Wilmer'
_symmetry_space_group_name_H-M	'P1'
_symmetry_Int_Tables_number	1
_symmetry_cell_setting	triclinic
loop_
_symmetry_equiv_pos_as_xyz
  x,y,z
_cell_length_a	12.594517
_cell_length_b	21.295417
_cell_length_c	12.594509
_cell_angle_alpha	89.964802
_cell_angle_beta	89.977786
_cell_angle_gamma	90.029134
loop_
_atom_site_label
_atom_site_type_symbol
_atom_site_fract_x
_atom_site_fract_y
_atom_site_fract_z
Zn1	Zn	1.627166	-0.250600	-0.601834
Zn2	Zn	1.627014	-0.355878	-0.423833
Zn3	Zn	1.449170	-0.250626	-0.423860
Zn4	Zn	1.449110	-0.355834	-0.601761
O5	O	1.538115	-0.303235	-0.512822
O6	O	1.776092	-0.264573	-0.578241
O7	O	1.603385	-0.341946	-0.274891
O8	O	1.472870	-0.162533	-0.447510
O9	O	1.775980	-0.341921	-0.447465
O10	O	1.603643	-0.162514	-0.578267
O11	O	1.472723	-0.264618	-0.274910
O12	O	1.300216	-0.264574	-0.447439
O13	O	1.472767	-0.341845	-0.750716
O14	O	1.300172	-0.341870	-0.578142
O15	O	1.603585	-0.264530	-0.750770
O16	O	1.603326	-0.443962	-0.447394
O17	O	1.472621	-0.443929	-0.578117
C18	C	1.261574	-0.303221	-0.512786
C19	C	1.143269	-0.303230	-0.512796
C20	C	1.003245	-0.261143	-0.441869
C21	C	1.074110	-0.245805	-0.538999
C22	C	1.073975	-0.318539	-0.415678
C23	C	1.003348	-0.287888	-0.610055
C24	C	1.003207	-0.360648	-0.486668
C25	C	1.074040	-0.345333	-0.583864
C26	C	1.537979	-0.466786	-0.512768
C27	C	1.538019	-0.536754	-0.512781
C28	C	1.606073	-0.569554	-0.580914
C29	C	1.606111	-0.635296	-0.580940
C30	C	1.538105	-0.668237	-0.512814
C31	C	1.470037	-0.635429	-0.444676
C32	C	1.469994	-0.569688	-0.444659
N33	N	1.530063	-0.771503	-0.419663
N34	N	1.530110	-0.833954	-0.419682
C35	C	1.538229	-0.866311	-0.512862
N36	N	1.546320	-0.833858	-0.606024
N37	N	1.546278	-0.771401	-0.606004
C38	C	1.538144	-0.739522	-0.512825
C39	C	1.606328	-0.970396	-0.581030
C40	C	1.606358	-1.036140	-0.581058
C41	C	1.470290	-1.036272	-0.444784
C42	C	1.470255	-0.970530	-0.444765
C43	C	1.538279	-0.937596	-0.512887
C44	C	1.815736	-0.303249	-0.512858
C45	C	1.934041	-0.303255	-0.512874
C46	C	1.538186	-0.303179	-0.790443
C47	C	1.538217	-0.303156	-0.908749
C48	C	1.538280	-0.139044	-0.512899
C49	C	1.538351	-0.069076	-0.512932
C50	C	1.467088	-0.345184	-0.977973
C51	C	1.564202	-0.360565	-1.048761
C52	C	1.441178	-0.287737	-1.048759
C53	C	1.635382	-0.318567	-0.977979
C54	C	1.512292	-0.245712	-0.977970
C55	C	1.609474	-0.261072	-1.048727
C56	C	1.538105	-0.303244	-0.236281
C57	C	1.538281	-0.303090	-0.117976
H58	H	1.105234	-0.197256	-0.561150
H59	H	1.661776	-1.062844	-0.636546
O60	O	0.966197	-0.418577	-0.460162
C61	C	1.010431	-0.524705	-0.410666
C62	C	1.052488	-0.459127	-0.440662
H63	H	1.080176	-0.557511	-0.394914
H64	H	0.959330	-0.521095	-0.336186
H65	H	0.960637	-0.544067	-0.478772
H66	H	1.102327	-0.439727	-0.372625
H67	H	1.103531	-0.462777	-0.515175
H68	H	1.414575	-0.542982	-0.389175
O69	O	1.110863	-0.333906	-0.317577
C70	C	1.116771	-0.306851	-0.131923
C71	C	1.074912	-0.289391	-0.242958
H72	H	1.087741	-0.270864	-0.071567
H73	H	1.086359	-0.355428	-0.108949
H74	H	1.207280	-0.307168	-0.133069
H75	H	0.984406	-0.289039	-0.241896
H76	H	1.105406	-0.240826	-0.265888
O77	O	0.966321	-0.272366	-0.708032
C78	C	0.812582	-0.255005	-0.818010
C79	C	0.854373	-0.272579	-0.707000
H80	H	0.722069	-0.255185	-0.817218
H81	H	0.842342	-0.206206	-0.840481
H82	H	0.842409	-0.290662	-0.878540
H83	H	0.824564	-0.236965	-0.646396
H84	H	0.824622	-0.321394	-0.684619
H85	H	1.359087	-0.274723	-1.079850
H86	H	1.586164	-0.409115	-1.079857
H87	H	1.669722	-0.225502	-1.079598
O88	O	1.672423	-0.938497	-0.647315
C89	C	1.807411	-0.945303	-0.782453
C90	C	1.732602	-0.981504	-0.707454
H91	H	1.856102	-0.980059	-0.831079
H92	H	1.758536	-0.914543	-0.838118
H93	H	1.863034	-0.914500	-0.733622
H94	H	1.676964	-1.012342	-0.756199
H95	H	1.781543	-1.012225	-0.651786
H96	H	1.661460	-0.542741	-0.636385
O97	O	1.485875	-0.187829	-0.940883
C98	C	1.353674	-0.106150	-0.934855
C99	C	1.383463	-0.171713	-0.976910
H100	H	1.270882	-0.093094	-0.963984
H101	H	1.354596	-0.106614	-0.844344
H102	H	1.413537	-0.070182	-0.965163
H103	H	1.323630	-0.207717	-0.946680
H104	H	1.382575	-0.171196	-1.067420
O105	O	1.110849	-0.387735	-0.655681
C106	C	1.116376	-0.419521	-0.839190
C107	C	1.074638	-0.371451	-0.757972
H108	H	1.087098	-0.406380	-0.921907
H109	H	1.206889	-0.419491	-0.838234
H110	H	1.085978	-0.468310	-0.817534
H111	H	1.104957	-0.322638	-0.779572
H112	H	0.984126	-0.371536	-0.758943
H113	H	1.661520	-0.662007	-0.636435
H114	H	1.414912	-1.063092	-0.389321
H115	H	1.414664	-0.662254	-0.389209
H116	H	1.717497	-0.331636	-0.947019
H117	H	1.406983	-0.380781	-0.946907
O118	O	0.966201	-0.218555	-0.370485
C119	C	0.960358	-0.109914	-0.317427
C120	C	1.002362	-0.158076	-0.398350
H121	H	0.989595	-0.061008	-0.339914
H122	H	0.869846	-0.110586	-0.317591
H123	H	0.990598	-0.122506	-0.234812
H124	H	0.972201	-0.145518	-0.481004
H125	H	1.092873	-0.157396	-0.398093
O126	O	1.404122	-0.938762	-0.378469
C127	C	1.269127	-0.945833	-0.243349
C128	C	1.343991	-0.981887	-0.318359
H129	H	1.220476	-0.980684	-0.194746
H130	H	1.317957	-0.915072	-0.187662
H131	H	1.213471	-0.915043	-0.292170
H132	H	1.399663	-1.012711	-0.269623
H133	H	1.295095	-1.012608	-0.374048
