data_functionalizedCrystal
_audit_creation_method	'MofGen! by Chris Wilmer'
_symmetry_space_group_name_H-M	'P1'
_symmetry_Int_Tables_number	1
_symmetry_cell_setting	triclinic
loop_
_symmetry_equiv_pos_as_xyz
  x,y,z
_cell_length_a	19.288864
_cell_length_b	10.540539
_cell_length_c	17.766277
_cell_angle_alpha	89.995823
_cell_angle_beta	89.976791
_cell_angle_gamma	83.830869
loop_
_atom_site_label
_atom_site_type_symbol
_atom_site_fract_x
_atom_site_fract_y
_atom_site_fract_z
O1	O	0.922410	0.158345	-0.062832
O2	O	0.720292	0.179706	-0.062781
O3	O	0.825962	-0.015784	-0.062807
O4	O	0.816739	0.353835	-0.062806
O5	O	0.825943	-0.015794	0.062382
O6	O	0.720273	0.179696	0.062408
O7	O	0.922391	0.158335	0.062356
Cu8	Cu	0.821330	0.169015	0.073813
Cu9	Cu	0.821352	0.169026	-0.074237
O10	O	0.816721	0.353825	0.062382
C11	C	0.694401	0.179013	-0.000180
C12	C	0.617284	0.176950	-0.000160
C13	C	0.573353	0.291654	-0.000172
C14	C	0.500893	0.289716	-0.000180
C15	C	0.472367	0.173067	-0.000192
C16	C	0.516308	0.058347	-0.000176
C17	C	0.588766	0.060289	-0.000160
C18	C	0.363500	0.081371	-0.044076
C19	C	0.291042	0.079434	-0.044097
C20	C	0.248881	0.167074	-0.000237
C21	C	0.279185	0.256671	0.043633
C22	C	0.351644	0.258613	0.043649
C23	C	0.393799	0.170949	-0.000208
C24	C	0.126381	0.279684	-0.000257
C25	C	0.053919	0.277741	-0.000261
C26	C	0.069336	0.046369	-0.000264
C27	C	0.141795	0.048315	-0.000253
C28	C	0.170313	0.164976	-0.000253
C29	C	0.825261	-0.063076	-0.000214
C30	C	0.823192	-0.203978	-0.000217
C31	C	0.743903	-0.385638	-0.000478
C32	C	0.746000	-0.239067	-0.000197
C33	C	0.860329	-0.266470	0.071262
C34	C	0.857694	-0.412955	0.071323
C35	C	0.859286	-0.413497	-0.071040
C36	C	0.859997	-0.266531	-0.071986
C37	C	0.948281	0.159027	-0.000246
C38	C	1.025399	0.161091	-0.000271
C39	C	0.817422	0.401117	-0.000212
C40	C	0.819491	0.542019	-0.000214
N41	N	0.821320	0.169006	0.177943
N42	N	0.821368	0.169025	-0.178368
C43	C	0.868126	0.082485	0.217318
C44	C	0.868130	0.082479	0.296120
C45	C	0.821334	0.169016	0.335544
C46	C	0.774519	0.255543	0.296159
C47	C	0.774512	0.255538	0.217359
C48	C	0.812807	0.284670	0.460383
C49	C	0.812819	0.284676	0.539182
C50	C	0.821353	0.169031	0.578590
C51	C	0.829889	0.053373	0.539189
C52	C	0.829882	0.053368	0.460389
C53	C	0.821337	0.169030	0.420989
C54	C	0.868166	0.082497	0.703411
C55	C	0.868165	0.082489	0.782214
C56	C	0.774558	0.255564	0.782252
C57	C	0.774555	0.255560	0.703450
C58	C	0.821363	0.169028	0.664034
H59	H	0.266374	0.006484	-0.079822
H60	H	0.913209	-0.462161	0.074552
C61	C	0.919649	-0.012701	0.660052
N62	N	0.958425	-0.084407	0.627395
H63	H	0.397822	0.010002	-0.079796
C64	C	0.919629	-0.012691	0.339442
N65	N	0.958422	-0.084369	0.372069
H66	H	0.834311	-0.444489	-0.125218
C67	C	0.723115	0.350833	0.660135
N68	N	0.684383	0.422624	0.627511
H69	H	0.906238	0.012023	0.185229
H70	H	0.736453	0.326019	0.814350
C71	C	0.839262	-0.073852	0.417051
N72	N	0.846323	-0.169677	0.384410
C73	C	0.839275	-0.073848	0.582532
N74	N	0.846344	-0.169667	0.615181
C75	C	0.452560	0.415905	-0.000202
N76	N	0.416158	0.510950	-0.000222
C77	C	0.919647	-0.012717	0.825527
N78	N	0.958421	-0.084434	0.858151
H79	H	0.805873	0.378851	0.571256
H80	H	0.805846	0.378849	0.428304
H81	H	0.736416	0.326000	0.328261
C82	C	0.723049	0.350776	0.174044
N83	N	0.684298	0.422532	0.141419
H84	H	0.596567	0.386649	-0.000173
H85	H	0.376314	0.331562	0.079372
H86	H	0.244859	0.328035	0.079348
C87	C	0.005595	0.403932	-0.000262
N88	N	-0.030804	0.498982	-0.000262
C89	C	0.157752	0.408012	-0.000248
N90	N	0.181380	0.504670	-0.000239
H91	H	0.046111	-0.048609	-0.000320
C92	C	0.190122	-0.077870	-0.000249
N93	N	0.226521	-0.172919	-0.000244
H94	H	0.832824	-0.225063	-0.124864
H95	H	0.493077	-0.036629	-0.000196
C96	C	0.637092	-0.065900	-0.000152
N97	N	0.673493	-0.160948	-0.000149
C98	C	0.706517	-0.180622	-0.069414
N99	N	0.676772	-0.136606	-0.121549
H100	H	0.713418	-0.413555	-0.051736
H101	H	0.713527	-0.415173	0.050509
C102	C	0.936906	-0.237953	0.074846
N103	N	0.994582	-0.216463	0.077547
C104	C	0.706227	-0.181770	0.069162
N105	N	0.676269	-0.138616	0.121407
H106	H	0.830232	-0.440547	0.124769
H107	H	0.834516	-0.223299	0.124468
H108	H	0.916276	-0.243564	-0.076317
C109	C	0.934606	-0.478983	-0.071713
N110	N	0.991335	-0.528315	-0.072214
