data_functionalizedCrystal
_audit_creation_method	'MofGen! by Chris Wilmer'
_symmetry_space_group_name_H-M	'P1'
_symmetry_Int_Tables_number	1
_symmetry_cell_setting	triclinic
loop_
_symmetry_equiv_pos_as_xyz
  x,y,z
_cell_length_a	14.519731
_cell_length_b	27.732048
_cell_length_c	13.596369
_cell_angle_alpha	90.010933
_cell_angle_beta	90.005416
_cell_angle_gamma	83.165754
loop_
_atom_site_label
_atom_site_type_symbol
_atom_site_fract_x
_atom_site_fract_y
_atom_site_fract_z
O1	O	1.222753	0.063411	0.081805
O2	O	1.722753	0.563411	0.581805
O3	O	0.954149	0.070862	0.081807
O4	O	1.454149	0.570862	0.581807
O5	O	1.096793	-0.003220	0.081787
O6	O	1.596793	0.496780	0.581787
O7	O	1.080109	0.137493	0.081825
O8	O	1.580109	0.637493	0.581825
O9	O	1.096779	-0.003224	-0.081796
O10	O	1.596779	0.496776	0.418204
O11	O	0.954135	0.070858	-0.081775
O12	O	1.454135	0.570858	0.418225
O13	O	1.222739	0.063407	-0.081778
O14	O	1.722739	0.563407	0.418222
Zn15	Zn	1.088435	0.067132	-0.107749
Zn16	Zn	1.588435	0.567132	0.392251
Zn17	Zn	1.088453	0.067137	0.107778
Zn18	Zn	1.588453	0.567137	0.607778
O19	O	1.080095	0.137489	-0.081758
O20	O	1.580095	0.637489	0.418242
C21	C	0.919789	0.070511	0.000016
C22	C	1.419789	0.570511	0.500016
C23	C	0.817427	0.069465	0.000016
C24	C	1.317427	0.569465	0.500016
C25	C	0.734297	0.068615	0.000020
C26	C	1.234297	0.568615	0.500020
C27	C	0.630007	0.067553	0.000020
C28	C	1.130007	0.567553	0.500020
C29	C	0.546883	0.066710	0.000020
C30	C	1.046883	0.566710	0.500020
C31	C	0.442586	0.065647	0.000022
C32	C	0.942586	0.565647	0.500022
C33	C	1.096436	-0.021231	-0.000007
C34	C	1.596436	0.478769	0.499993
C35	C	1.095382	-0.074890	-0.000015
C36	C	1.595382	0.425110	0.499985
C37	C	1.173036	-0.413331	0.000035
C38	C	1.673036	0.086669	0.500035
C39	C	1.169123	-0.615010	0.000048
C40	C	1.669123	-0.115010	0.500048
O41	O	1.240132	-0.645923	0.000091
O42	O	1.740132	-0.145923	0.500091
N43	N	1.084541	-0.634541	0.000048
N44	N	1.584541	-0.134541	0.500048
C45	C	1.000931	-0.603649	0.000051
C46	C	1.500931	-0.103649	0.500051
O47	O	0.928899	-0.624890	0.000062
O48	O	1.428899	-0.124890	0.500062
C49	C	1.004845	-0.401972	0.000045
C50	C	1.504845	0.098028	0.500045
C51	C	1.089432	-0.382444	0.000035
C52	C	1.589432	0.117556	0.500035
C53	C	1.257616	-0.393802	0.000026
C54	C	1.757616	0.106198	0.500026
C55	C	1.258594	-0.343386	0.000017
C56	C	1.758594	0.156614	0.500017
C57	C	1.174990	-0.312498	0.000017
C58	C	1.674990	0.187502	0.500017
C59	C	1.090410	-0.332027	0.000026
C60	C	1.590410	0.167973	0.500026
C61	C	0.921236	-0.371081	0.000055
C62	C	1.421236	0.128919	0.500055
C63	C	0.922222	-0.320659	0.000055
C64	C	1.422222	0.179341	0.500055
C65	C	1.006809	-0.301131	0.000046
C66	C	1.506809	0.198869	0.500046
C67	C	1.007784	-0.250723	0.000017
C68	C	1.507784	0.249277	0.500017
N69	N	1.092366	-0.231191	0.000017
N70	N	1.592366	0.268809	0.500017
C71	C	1.175969	-0.262079	0.000017
C72	C	1.675969	0.237921	0.500017
C73	C	0.998882	-0.709533	0.000053
C74	C	1.498882	-0.209533	0.500053
C75	C	0.997903	-0.759953	0.000053
C76	C	1.497903	-0.259953	0.500053
C77	C	1.166096	-0.771309	0.000052
C78	C	1.666096	-0.271309	0.500052
C79	C	1.167073	-0.720889	0.000045
C80	C	1.667073	-0.220889	0.500045
C81	C	1.083464	-0.690002	0.000053
C82	C	1.583464	-0.190002	0.500053
C83	C	1.178015	-0.156200	-0.000002
C84	C	1.678015	0.343800	0.499998
C85	C	1.178985	-0.105778	-0.000015
C86	C	1.678985	0.394222	0.499985
C87	C	1.010793	-0.094426	-0.000009
C88	C	1.510793	0.405574	0.499991
C89	C	1.009823	-0.144843	-0.000001
C90	C	1.509823	0.355157	0.499999
C91	C	1.093441	-0.175729	0.000006
C92	C	1.593441	0.324271	0.500006
O93	O	0.936812	-0.219781	-0.000014
O94	O	1.436812	0.280219	0.499986
O95	O	1.247991	-0.240829	0.000029
O96	O	1.747991	0.259171	0.500029
C97	C	1.172058	-0.463748	0.000043
C98	C	1.672058	0.036252	0.500043
C99	C	1.087478	-0.483277	0.000052
C100	C	1.587478	0.016723	0.500052
C101	C	1.003874	-0.452389	0.000052
C102	C	1.503874	0.047611	0.500052
C103	C	1.086499	-0.533696	0.000052
C104	C	1.586499	-0.033696	0.500052
C105	C	1.170102	-0.564584	0.000052
C106	C	1.670102	-0.064584	0.500052
C107	C	1.254685	-0.545052	0.000052
C108	C	1.754685	-0.045052	0.500052
C109	C	1.255662	-0.494636	0.000043
C110	C	1.755662	0.005364	0.500043
C111	C	0.919292	-0.471921	0.000052
C112	C	1.419292	0.028079	0.500052
C113	C	0.918322	-0.522338	0.000060
C114	C	1.418322	-0.022338	0.500060
C115	C	1.001925	-0.553225	0.000060
C116	C	1.501925	-0.053225	0.500060
C117	C	1.257099	0.063758	0.000015
C118	C	1.757099	0.563758	0.500015
C119	C	1.359462	0.064804	0.000021
C120	C	1.859462	0.564804	0.500021
C121	C	1.080452	0.155500	0.000038
C122	C	1.580452	0.655500	0.500038
C123	C	1.081507	0.209160	0.000053
C124	C	1.581507	0.709160	0.500053
N125	N	1.088429	0.067128	-0.254841
N126	N	1.588429	0.567128	0.245159
C127	C	1.088452	0.067138	-0.656132
C128	C	1.588452	0.567138	-0.156132
C129	C	1.088443	0.067137	-0.544481
C130	C	1.588443	0.567137	-0.044481
C131	C	1.088441	0.067133	-0.455490
C132	C	1.588441	0.567133	0.044510
C133	C	1.088431	0.067132	-0.343832
C134	C	1.588431	0.567132	0.156168
N135	N	1.088467	0.067137	0.254870
N136	N	1.588467	0.567137	0.754870
H137	H	1.247869	-0.089881	-0.000026
H138	H	1.747869	0.410119	0.499974
H139	H	0.851211	-0.446776	0.000054
H140	H	1.351211	0.053224	0.500054
Br141	Br	1.291498	-0.198109	0.000008
Br142	Br	1.791498	0.301891	0.500008
H143	H	1.322757	-0.570210	0.000048
H144	H	1.822757	-0.070210	0.500048
H145	H	1.327474	-0.327491	0.000013
H146	H	1.827474	0.172509	0.500013
H147	H	0.940945	-0.160744	-0.000020
H148	H	1.440945	0.339256	0.499980
Br149	Br	0.897337	-0.052497	-0.000009
Br150	Br	1.397337	0.447503	0.499991
H151	H	1.235952	-0.704993	0.000037
H152	H	1.735952	-0.204993	0.500037
Br153	Br	1.371094	-0.435713	0.000027
Br154	Br	1.871094	0.064287	0.500027
H155	H	0.849435	-0.538232	0.000059
H156	H	1.349435	-0.038232	0.500059
Br157	Br	0.883101	-0.786449	0.000043
Br158	Br	1.383101	-0.286449	0.500043
Br159	Br	1.279557	-0.813238	0.000054
Br160	Br	1.779557	-0.313238	0.500054
H161	H	0.930793	-0.684389	0.000059
H162	H	1.430793	-0.184389	0.500059
H163	H	0.852356	-0.386972	0.000069
H164	H	1.352356	0.113028	0.500069
Br165	Br	0.808745	-0.278743	0.000071
Br166	Br	1.308745	0.221257	0.500071
H167	H	1.324542	-0.478741	0.000036
H168	H	1.824542	0.021259	0.500036
