data_functionalizedCrystal
_audit_creation_method	'MofGen! by Chris Wilmer'
_symmetry_space_group_name_H-M	'P1'
_symmetry_Int_Tables_number	1
_symmetry_cell_setting	triclinic
loop_
_symmetry_equiv_pos_as_xyz
  x,y,z
_cell_length_a	13.185408
_cell_length_b	14.971496
_cell_length_c	12.376755
_cell_angle_alpha	102.660411
_cell_angle_beta	74.687840
_cell_angle_gamma	112.204188
loop_
_atom_site_label
_atom_site_type_symbol
_atom_site_fract_x
_atom_site_fract_y
_atom_site_fract_z
O1	O	1.465292	0.222139	-0.093907
O2	O	1.147922	0.131501	-0.093931
O3	O	1.315106	0.309075	-0.093909
O4	O	1.298108	0.044566	-0.093930
O5	O	1.277777	0.330706	0.094095
O6	O	1.110593	0.153132	0.094073
O7	O	1.427963	0.243770	0.094096
Zn8	Zn	1.263351	0.201886	0.123934
Zn9	Zn	1.312534	0.173386	-0.123769
O10	O	1.260779	0.066197	0.094074
C11	C	1.088642	0.133128	0.000068
C12	C	0.967620	0.105759	0.000059
C13	C	0.897883	0.008313	0.000049
C14	C	0.784174	-0.017402	0.000057
C15	C	0.740192	0.054324	0.000066
C16	C	0.809930	0.151770	0.000068
C17	C	0.923649	0.177490	0.000069
C18	C	0.765957	0.223500	0.000087
C19	C	0.835696	0.320947	0.000089
C20	C	0.949403	0.346661	0.000089
C21	C	0.993386	0.274935	0.000079
C22	C	0.652238	0.197781	0.000086
C23	C	0.678004	0.366957	0.000107
C24	C	0.791713	0.392673	0.000098
C25	C	1.295679	0.353031	0.000093
C26	C	1.293395	0.451776	0.000094
C27	C	1.487244	0.242143	0.000095
C28	C	1.608267	0.269512	0.000096
C29	C	1.280207	0.022241	0.000069
C30	C	1.282492	-0.076505	0.000062
C31	C	1.303916	0.865309	-0.102417
C32	C	1.306067	0.772531	-0.102412
C33	C	1.286787	0.737937	0.000073
C34	C	1.265365	0.796131	0.102560
C35	C	1.263222	0.888910	0.102554
C36	C	1.269830	0.602748	0.102566
C37	C	1.271972	0.509961	0.102573
C38	C	1.312676	0.486368	-0.102400
C39	C	1.310532	0.579147	-0.102406
C40	C	1.289109	0.637334	0.000081
N41	N	1.229793	0.221338	0.292985
C42	C	1.151862	0.266500	0.352152
C43	C	1.128359	0.280111	0.470487
C44	C	1.182793	0.248569	0.529666
C45	C	1.260732	0.203412	0.470499
C46	C	1.284230	0.189793	0.352153
C47	C	1.315161	0.171862	0.529666
C48	C	1.393101	0.126705	0.470499
C49	C	1.416596	0.113089	0.352164
C50	C	1.362162	0.144631	0.292985
C51	C	1.291663	0.185481	0.648013
C52	C	1.424032	0.108775	0.648013
C53	C	1.447534	0.095163	0.529678
N54	N	1.346100	0.153936	0.707180
H55	H	1.006180	0.426010	0.000105
F56	F	1.328871	0.710610	-0.211485
F57	F	1.331045	0.615960	-0.211482
H58	H	1.064901	0.316877	0.518653
F59	F	1.530481	0.047105	0.466694
H60	H	1.252387	0.650122	0.186022
H61	H	0.595467	0.118439	0.000086
H62	H	1.256237	0.481786	0.186025
H63	H	1.468352	0.083085	0.696196
F64	F	1.335433	0.424425	-0.211475
H65	H	1.163653	0.259655	0.626020
F66	F	1.324429	0.902115	-0.211498
H67	H	0.647603	0.033380	0.000074
H68	H	1.249674	0.767960	0.186005
F69	F	1.240426	0.950838	0.211626
H70	H	0.933704	-0.050074	0.000049
H71	H	1.228204	0.222247	0.696175
H72	H	1.381299	0.133556	0.196627
F73	F	0.709962	-0.121108	0.000050
F74	F	0.865946	0.496380	0.000104
F75	F	1.499516	0.064998	0.289197
H76	H	1.085976	0.295868	0.000076
H77	H	1.107545	0.292171	0.303958
F78	F	0.631200	0.443299	0.000122
