data_functionalizedCrystal
_audit_creation_method	'MofGen! by Chris Wilmer'
_symmetry_space_group_name_H-M	'P1'
_symmetry_Int_Tables_number	1
_symmetry_cell_setting	triclinic
loop_
_symmetry_equiv_pos_as_xyz
  x,y,z
_cell_length_a	18.101398
_cell_length_b	19.121449
_cell_length_c	18.101389
_cell_angle_alpha	92.458273
_cell_angle_beta	90.024327
_cell_angle_gamma	87.580180
loop_
_atom_site_label
_atom_site_type_symbol
_atom_site_fract_x
_atom_site_fract_y
_atom_site_fract_z
Zn1	Zn	1.144729	-0.279771	0.406263
Zn2	Zn	1.644729	0.220229	0.906263
Zn3	Zn	1.149918	-0.397203	0.277143
Zn4	Zn	1.649918	0.102797	0.777143
Zn5	Zn	1.020888	-0.279763	0.282424
Zn6	Zn	1.520888	0.220237	0.782424
Zn7	Zn	1.026130	-0.397173	0.400933
Zn8	Zn	1.526130	0.102827	0.900933
O9	O	1.085416	-0.338478	0.341691
O10	O	1.585416	0.161522	0.841691
O11	O	1.249051	-0.295364	0.389155
O12	O	1.749051	0.204636	0.889155
O13	O	1.132779	-0.381634	0.174210
O14	O	1.632779	0.118366	0.674210
O15	O	1.032951	-0.181482	0.303293
O16	O	1.532951	0.318518	0.803293
O17	O	1.252863	-0.381641	0.294291
O18	O	1.752863	0.118359	0.794291
O19	O	1.123936	-0.181487	0.394277
O20	O	1.623936	0.318513	0.894277
O21	O	1.037981	-0.295351	0.178090
O22	O	1.537981	0.204649	0.678090
O23	O	0.917950	-0.295322	0.298124
O24	O	1.417950	0.204678	0.798124
O25	O	1.041885	-0.381590	0.505273
O26	O	1.541885	0.118410	1.005273
O27	O	0.921801	-0.381583	0.385192
O28	O	1.421801	0.118417	0.885192
O29	O	1.129019	-0.295335	0.509189
O30	O	1.629019	0.204665	1.009189
O31	O	1.137862	-0.495482	0.289122
O32	O	1.637862	0.004518	0.789122
O33	O	1.046916	-0.495460	0.380070
O34	O	1.546916	0.004540	0.880070
C35	C	0.893004	-0.338449	0.341653
C36	C	1.393004	0.161551	0.841653
C37	C	0.810690	-0.338454	0.341654
C38	C	1.310690	0.161546	0.841654
C39	C	0.511601	-0.338498	0.341714
C40	C	1.011601	0.161502	0.841714
C41	C	0.540467	-0.283954	0.287225
C42	C	1.040467	0.216046	0.787225
C43	C	0.626091	-0.284100	0.286976
C44	C	1.126091	0.215900	0.786976
C45	C	0.659983	-0.338475	0.341684
C46	C	1.159983	0.161525	0.841684
C47	C	0.632199	-0.412456	0.317034
C48	C	1.132199	0.087544	0.817034
C49	C	0.546540	-0.412153	0.316652
C50	C	1.046540	0.087847	0.816652
C51	C	0.542369	-0.319704	0.420958
C52	C	1.042369	0.180296	0.920958
C53	C	0.627946	-0.318057	0.420605
C54	C	1.127946	0.181943	0.920605
C55	C	0.743842	-0.338467	0.341669
C56	C	1.243842	0.161533	0.841669
C57	C	0.427743	-0.338511	0.341728
C58	C	0.927743	0.161489	0.841728
C59	C	1.093541	-0.520955	0.333461
C60	C	1.593541	-0.020955	0.833461
C61	C	1.097084	-0.599019	0.329965
C62	C	1.597084	-0.099019	0.829965
C63	C	1.051366	-0.635708	0.375635
C64	C	1.551366	-0.135708	0.875635
C65	C	1.054698	-0.709058	0.372348
C66	C	1.554698	-0.209058	0.872348
C67	C	1.103754	-0.745717	0.323393
C68	C	1.603754	-0.245717	0.823393
C69	C	1.149474	-0.709023	0.277718
C70	C	1.649474	-0.209023	0.777718
C71	C	1.146137	-0.635675	0.281002
C72	C	1.646137	-0.135675	0.781002
C73	C	1.116196	-0.967181	0.311105
C74	C	1.616196	-0.467181	0.811105
C75	C	1.119531	-1.040535	0.307826
C76	C	1.619531	-0.540535	0.807826
C77	C	1.024754	-1.040564	0.402455
C78	C	1.524754	-0.540564	0.902455
C79	C	1.021425	-0.967214	0.405738
C80	C	1.521425	-0.467214	0.905738
C81	C	1.067142	-0.930527	0.360061
C82	C	1.567142	-0.430527	0.860061
C83	C	1.107163	-0.820692	0.320033
C84	C	1.607163	-0.320692	0.820033
C85	C	1.063729	-0.855553	0.363417
C86	C	1.563729	-0.355553	0.863417
C87	C	1.278579	-0.338507	0.341728
C88	C	1.778579	0.161493	0.841728
C89	C	1.360894	-0.338519	0.341745
C90	C	1.860894	0.161481	0.841745
C91	C	1.085458	-0.338460	0.534853
C92	C	1.585458	0.161540	1.034853
C93	C	1.085476	-0.338452	0.617168
C94	C	1.585476	0.161548	1.117168
C95	C	1.077280	-0.155288	0.349968
C96	C	1.577280	0.344712	0.849968
C97	C	1.073813	-0.077224	0.353496
C98	C	1.573813	0.422776	0.853496
C99	C	1.085415	-0.338445	0.149282
C100	C	1.585415	0.161555	0.649282
C101	C	1.085531	-0.338254	0.066976
C102	C	1.585531	0.161746	0.566976
C103	C	1.085513	-0.338321	0.916265
C104	C	1.585513	0.161679	1.416265
C105	C	1.030486	-0.392418	0.882483
C106	C	1.530486	0.107582	1.382483
C107	C	1.030652	-0.392669	0.796854
C108	C	1.530652	0.107331	1.296854
C109	C	1.085494	-0.338386	0.767879
C110	C	1.585494	0.161614	1.267879
C111	C	1.164425	-0.358482	0.798082
C112	C	1.664425	0.141518	1.298082
C113	C	1.164121	-0.358838	0.883711
C114	C	1.664121	0.141162	1.383711
C115	C	1.062283	-0.264007	0.888030
C116	C	1.562283	0.235993	1.388030
C117	C	1.060566	-0.264436	0.802359
C118	C	1.560566	0.235564	1.302359
C119	C	1.085488	-0.338422	0.684018
C120	C	1.585488	0.161578	1.184018
C121	C	1.085525	-0.338287	1.000126
C122	C	1.585525	0.161713	1.500126
H123	H	0.644660	-0.229240	0.302808
H124	H	1.144660	0.270760	0.802808
Cl125	Cl	1.173683	-0.921069	0.253694
Cl126	Cl	1.673683	-0.421069	0.753694
Cl127	Cl	0.974690	-0.235741	0.922623
Cl128	Cl	1.474690	0.264259	1.422623
Cl129	Cl	0.666533	-0.476882	0.376169
Cl130	Cl	1.166533	0.023118	0.876169
H131	H	1.002463	-0.249281	0.782709
H132	H	1.502463	0.250719	1.282709
H133	H	1.206671	-0.320319	0.779451
H134	H	1.706671	0.179681	1.279451
H135	H	1.102322	-0.223702	0.910117
H136	H	1.602322	0.276298	1.410117
H137	H	0.517416	-0.228926	0.302918
H138	H	1.017416	0.271074	0.802918
Cl139	Cl	0.663550	-0.374927	0.487062
Cl140	Cl	1.163550	0.125073	0.987062
H141	H	0.518408	-0.266697	0.442729
H142	H	1.018408	0.233303	0.942729
H143	H	0.519471	-0.296236	0.228918
H144	H	1.019471	0.203764	0.728918
H145	H	0.971892	-0.379970	0.903629
H146	H	1.471892	0.120030	1.403629
Cl147	Cl	0.658540	-0.303277	0.196421
Cl148	Cl	1.158540	0.196723	0.696421
Cl149	Cl	1.054314	-0.476934	0.911971
Cl150	Cl	1.554314	0.023066	1.411971
Cl151	Cl	0.655580	-0.234010	0.449219
Cl152	Cl	1.155580	0.265990	0.949219
H153	H	0.527247	-0.428092	0.258622
H154	H	1.027247	0.071908	0.758622
Cl155	Cl	0.517467	-0.477023	0.374968
Cl156	Cl	1.017467	0.022977	0.874968
H157	H	0.654345	-0.428672	0.259611
H158	H	1.154345	0.071328	0.759611
Cl159	Cl	0.513858	-0.381039	0.483705
Cl160	Cl	1.013858	0.118961	0.983705
H161	H	1.011423	-0.605864	0.415503
H162	H	1.511423	-0.105864	0.915503
Cl163	Cl	0.959756	-0.921133	0.467287
Cl164	Cl	1.459756	-0.421133	0.967287
Cl165	Cl	0.997229	-0.755178	0.429773
Cl166	Cl	1.497229	-0.255178	0.929773
H167	H	1.147105	-0.850549	0.280174
H168	H	1.647105	-0.350549	0.780174
H169	H	1.097454	-0.221991	0.782883
H170	H	1.597454	0.278009	1.282883
H171	H	0.987533	-1.070443	0.439643
H172	H	1.487533	-0.570443	0.939643
H173	H	1.159483	-1.070381	0.267961
H174	H	1.659483	-0.570381	0.767961
Cl175	Cl	1.203610	-0.589551	0.223581
Cl176	Cl	1.703610	-0.089551	0.723581
Cl177	Cl	1.211144	-0.755110	0.216174
Cl178	Cl	1.711144	-0.255110	0.716174
Cl179	Cl	1.194640	-0.441464	0.761250
Cl180	Cl	1.694640	0.058536	1.261250
H181	H	1.023785	-0.825703	0.403274
H182	H	1.523785	-0.325703	0.903274
Cl183	Cl	0.940448	-0.373249	0.765251
Cl184	Cl	1.440448	0.126751	1.265251
H185	H	1.183424	-0.413162	0.901252
H186	H	1.683424	0.086838	1.401252
Cl187	Cl	1.054792	-0.477705	0.761403
Cl188	Cl	1.554792	0.022295	1.261403
Cl189	Cl	1.229802	-0.300607	0.918353
Cl190	Cl	1.729802	0.199393	1.418353
