data_functionalizedCrystal
_audit_creation_method	'MofGen! by Chris Wilmer'
_symmetry_space_group_name_H-M	'P1'
_symmetry_Int_Tables_number	1
_symmetry_cell_setting	triclinic
loop_
_symmetry_equiv_pos_as_xyz
  x,y,z
_cell_length_a	15.995350
_cell_length_b	10.908891
_cell_length_c	10.065918
_cell_angle_alpha	78.549094
_cell_angle_beta	99.814207
_cell_angle_gamma	108.211768
loop_
_atom_site_label
_atom_site_type_symbol
_atom_site_fract_x
_atom_site_fract_y
_atom_site_fract_z
O1	O	-0.120752	-1.720705	0.113487
O2	O	-0.055364	-1.346841	0.113489
O3	O	-0.211369	-1.543993	0.113487
O4	O	0.035253	-1.523553	0.113489
O5	O	-0.228529	-1.510275	-0.113502
O6	O	-0.072525	-1.313123	-0.113499
O7	O	-0.137912	-1.686987	-0.113501
Zn8	Zn	-0.107943	-1.494702	-0.149540
Zn9	Zn	-0.085333	-1.539127	0.149527
O10	O	0.018092	-1.489835	-0.113499
C11	C	-0.057834	-1.282140	-0.000005
C12	C	-0.039635	-1.139588	-0.000004
C13	C	-0.106035	-1.090579	-0.000004
C14	C	-0.087228	-0.943244	-0.000003
C15	C	-0.251026	-1.526289	-0.000005
C16	C	-0.343623	-1.523757	0.000003
C17	C	-0.680104	-1.514658	-0.000002
C18	C	-0.613080	-1.374326	0.000508
C19	C	-0.516781	-1.376784	-0.000003
C20	C	-0.513172	-1.519171	0.000001
C21	C	-0.573692	-1.569171	-0.129618
C22	C	-0.669845	-1.565628	-0.129727
C23	C	-0.651092	-1.606872	0.128402
C24	C	-0.554012	-1.607093	0.130115
C25	C	-0.418831	-1.521729	-0.000001
C26	C	-0.774447	-1.512104	-0.000008
C27	C	0.057750	-1.507539	-0.000004
C28	C	0.150347	-1.510073	-0.000003
C29	C	-0.135442	-0.751688	-0.000006
C30	C	-0.153636	-0.894240	-0.000004
N31	N	-0.123376	-1.464392	-0.353645
C32	C	-0.090701	-1.528572	-0.421424
C33	C	-0.102588	-1.505256	-0.578591
N34	N	-0.069909	-1.569446	0.353633
H35	H	-0.016452	-0.876130	0.000003
H36	H	-0.224411	-0.961354	0.000006
H37	H	-0.160152	-1.392187	-0.411972
H38	H	-0.139367	-1.433047	-0.636913
H39	H	-0.176805	-1.157698	0.000002
H40	H	0.031135	-1.072470	0.000003
H41	H	-0.631882	-1.304725	-0.091926
H42	H	-0.616770	-1.332014	0.093461
H43	H	-0.473754	-1.336148	0.092913
H44	H	-0.488322	-1.308154	-0.093078
H45	H	-0.053932	-1.600786	-0.363098
H46	H	-0.512464	-1.570704	0.226004
H47	H	-0.552517	-1.712091	0.137945
H48	H	-0.688440	-1.500734	-0.226622
H49	H	-0.716892	-1.667840	-0.135604
H50	H	-0.574497	-1.673064	-0.134435
H51	H	-0.033135	-1.641663	-0.588048
H52	H	-0.697202	-1.710524	0.129276
H53	H	-0.545905	-1.506742	-0.226080
H54	H	-0.657812	-1.575560	0.226646
