data_functionalizedCrystal
_audit_creation_method	'MofGen! by Chris Wilmer'
_symmetry_space_group_name_H-M	'P1'
_symmetry_Int_Tables_number	1
_symmetry_cell_setting	triclinic
loop_
_symmetry_equiv_pos_as_xyz
  x,y,z
_cell_length_a	12.759401
_cell_length_b	17.640280
_cell_length_c	12.759393
_cell_angle_alpha	101.231878
_cell_angle_beta	90.019437
_cell_angle_gamma	78.800756
loop_
_atom_site_label
_atom_site_type_symbol
_atom_site_fract_x
_atom_site_fract_y
_atom_site_fract_z
Zn1	Zn	1.690816	-0.314624	0.509542
Zn2	Zn	2.190816	0.185376	1.009542
Zn3	Zn	1.726241	-0.446821	0.298372
Zn4	Zn	2.226241	0.053179	0.798372
Zn5	Zn	1.515129	-0.314665	0.333867
Zn6	Zn	2.015129	0.185335	0.833867
Zn7	Zn	1.550620	-0.446759	0.474027
Zn8	Zn	2.050620	0.053241	0.974027
O9	O	1.620701	-0.380717	0.403952
O10	O	2.120701	0.119283	0.903952
O11	O	1.842538	-0.332168	0.481538
O12	O	2.342538	0.167832	0.981538
O13	O	1.698208	-0.429333	0.156048
O14	O	2.198208	0.070667	0.656048
O15	O	1.508756	-0.204052	0.386889
O16	O	2.008756	0.295948	0.886889
O17	O	1.868565	-0.429293	0.326392
O18	O	2.368565	0.070707	0.826392
O19	O	1.637832	-0.204022	0.515957
O20	O	2.137832	0.295978	1.015957
O21	O	1.543105	-0.332238	0.182126
O22	O	2.043105	0.167762	0.682126
O23	O	1.372814	-0.332179	0.352452
O24	O	1.872814	0.167821	0.852452
O25	O	1.569246	-0.429188	0.625770
O26	O	2.069246	0.070812	1.125770
O27	O	1.398889	-0.429228	0.455426
O28	O	1.898889	0.070772	0.955426
O29	O	1.672247	-0.332109	0.651863
O30	O	2.172247	0.167891	1.151863
O31	O	1.732623	-0.557419	0.291954
O32	O	2.232623	-0.057419	0.791954
O33	O	1.603595	-0.557374	0.421007
O34	O	2.103595	-0.057374	0.921007
C35	C	1.347730	-0.380702	0.403937
C36	C	1.847730	0.119298	0.903937
C37	C	1.230957	-0.380715	0.403951
C38	C	1.730957	0.119285	0.903951
C39	C	1.675833	-0.586076	0.348798
C40	C	2.175833	-0.086076	0.848798
C41	C	1.699515	-0.673930	0.325238
C42	C	2.199515	-0.173930	0.825238
C43	C	1.079999	-0.431338	0.457458
C44	C	1.579999	0.068662	0.957458
C45	C	1.189720	-0.431328	0.457443
C46	C	1.689720	0.068672	0.957443
C47	C	1.162467	-0.330114	0.350460
C48	C	1.662467	0.169886	0.850460
C49	C	1.052749	-0.330129	0.350468
C50	C	1.552749	0.169871	0.850468
C51	C	1.038768	-0.481948	0.510963
C52	C	1.538768	0.018052	1.010963
C53	C	1.107250	-0.532550	0.564453
C54	C	1.607250	-0.032550	1.064453
C55	C	1.216971	-0.532540	0.564439
C56	C	1.716971	-0.032540	1.064439
C57	C	1.258210	-0.481928	0.510935
C58	C	1.758210	0.018072	1.010935
C59	C	1.441226	-0.962889	0.583316
C60	C	1.941226	-0.462889	1.083316
C61	C	1.463481	-1.045441	0.561145
C62	C	1.963481	-0.545441	1.061145
C63	C	1.597920	-1.045422	0.426898
C64	C	2.097920	-0.545422	0.926898
C65	C	1.575681	-0.962869	0.449062
C66	C	2.075681	-0.462869	0.949062
C67	C	1.497332	-0.921609	0.527271
C68	C	1.997332	-0.421609	1.027271
C69	C	1.631786	-0.921588	0.393017
C70	C	2.131786	-0.421588	0.893017
C71	C	1.609544	-0.839042	0.415175
C72	C	2.109544	-0.339042	0.915175
C73	C	1.531197	-0.797776	0.493379
C74	C	2.031197	-0.297776	0.993379
C75	C	1.475090	-0.839062	0.549430
C76	C	1.975090	-0.339062	1.049430
C77	C	1.710130	-0.962850	0.314802
C78	C	2.210130	-0.462850	0.814802
C79	C	1.766235	-0.921570	0.258757
C80	C	2.266235	-0.421570	0.758757
C81	C	1.743999	-0.839022	0.280921
C82	C	2.243999	-0.339022	0.780921
C83	C	1.665651	-0.797756	0.359124
C84	C	2.165651	-0.297756	0.859124
C85	C	1.800106	-0.797736	0.224870
C86	C	2.300106	-0.297736	0.724870
C87	C	1.777864	-0.715190	0.247028
C88	C	2.277864	-0.215190	0.747028
C89	C	1.643409	-0.715210	0.381283
C90	C	2.143409	-0.215210	0.881283
C91	C	1.894739	-0.380733	0.403967
C92	C	2.394739	0.119267	0.903967
C93	C	2.011517	-0.380739	0.403973
C94	C	2.511517	0.119261	0.903973
C95	C	1.620754	-0.380637	0.678007
C96	C	2.120754	0.119363	1.178007
C97	C	1.620776	-0.380603	0.794793
C98	C	2.120776	0.119397	1.294793
C99	C	1.565383	-0.174556	0.459344
C100	C	2.065383	0.325444	0.959344
C101	C	1.541810	-0.086703	0.482949
C102	C	2.041810	0.413297	0.982949
C103	C	1.620695	-0.380739	0.130978
C104	C	2.120695	0.119261	0.630978
C105	C	1.620816	-0.380551	0.014253
C106	C	2.120816	0.119449	0.514253
C107	C	1.674416	-0.330049	0.863244
C108	C	2.174416	0.169951	1.363244
C109	C	1.674434	-0.330021	0.972976
C110	C	2.174434	0.169979	1.472976
C111	C	1.567169	-0.431107	0.945793
C112	C	2.067169	0.068893	1.445793
C113	C	1.567146	-0.431131	0.836064
C114	C	2.067146	0.068869	1.336064
C115	C	1.728047	-0.279521	0.821972
C116	C	2.228047	0.220479	1.321972
C117	C	1.781693	-0.228964	0.890425
C118	C	2.281693	0.271036	1.390425
C119	C	1.781710	-0.228935	1.000157
C120	C	2.281710	0.271065	1.500157
C121	C	1.728081	-0.279464	1.041436
C122	C	2.228081	0.220536	1.541436
H123	H	0.949428	-0.481961	0.510984
H124	H	1.449428	0.018039	1.010984
H125	H	1.523447	-0.472285	0.780332
H126	H	2.023447	0.027715	1.280332
H127	H	1.825382	-0.187763	1.055890
H128	H	2.325382	0.312237	1.555890
Cl129	Cl	1.849088	-0.165433	0.838536
Cl130	Cl	2.349088	0.334567	1.338536
Cl131	Cl	1.214311	-0.266489	0.283208
Cl132	Cl	1.714311	0.233511	0.783208
Cl133	Cl	1.499760	-0.494628	0.997688
Cl134	Cl	1.999760	0.005372	1.497688
Cl135	Cl	1.303063	-0.596159	0.631670
Cl136	Cl	1.803063	-0.096159	1.131670
Cl137	Cl	1.392926	-1.097334	0.631599
Cl138	Cl	1.892926	-0.597334	1.131599
H139	H	1.661709	-1.079027	0.363216
H140	H	2.161709	-0.579027	0.863216
Cl141	Cl	1.055411	-0.596183	0.631695
Cl142	Cl	1.555411	-0.096183	1.131695
Cl143	Cl	1.544921	-0.663334	0.479615
Cl144	Cl	2.044921	-0.163334	0.979615
Cl145	Cl	1.898590	-0.849615	0.126547
Cl146	Cl	2.398590	-0.349615	0.626547
H147	H	1.513081	-0.730562	0.511412
H148	H	2.013081	-0.230562	1.011412
H149	H	1.347555	-0.481928	0.510920
H150	H	1.847555	0.018072	1.010920
Cl151	Cl	0.966654	-0.266523	0.283221
Cl152	Cl	1.466654	0.233477	0.783221
Cl153	Cl	1.738129	-1.066624	0.286984
Cl154	Cl	2.238129	-0.566624	0.786984
H155	H	1.411298	-0.805467	0.613124
H156	H	1.911298	-0.305467	1.113124
Cl157	Cl	1.728088	-0.279415	1.179389
Cl158	Cl	2.228088	0.220585	1.679389
H159	H	1.377434	-0.929294	0.647010
H160	H	1.877434	-0.429294	1.147010
Cl161	Cl	1.864730	-0.973447	0.160443
Cl162	Cl	2.364730	-0.473447	0.660443
Cl163	Cl	1.848387	-0.663290	0.176561
Cl164	Cl	2.348387	-0.163290	0.676561
Cl165	Cl	1.728033	-0.279556	0.684024
Cl166	Cl	2.228033	0.220444	1.184024
