data_functionalizedCrystal
_audit_creation_method	'MofGen! by Chris Wilmer'
_symmetry_space_group_name_H-M	'P1'
_symmetry_Int_Tables_number	1
_symmetry_cell_setting	triclinic
loop_
_symmetry_equiv_pos_as_xyz
  x,y,z
_cell_length_a	15.995350
_cell_length_b	14.044220
_cell_length_c	12.503552
_cell_angle_alpha	86.157908
_cell_angle_beta	93.516897
_cell_angle_gamma	88.340626
loop_
_atom_site_label
_atom_site_type_symbol
_atom_site_fract_x
_atom_site_fract_y
_atom_site_fract_z
O1	O	1.124528	0.116710	0.089158
O2	O	0.881881	0.131796	0.089195
O3	O	0.999562	-0.013731	0.089172
O4	O	1.006847	0.262237	0.089181
O5	O	0.990701	-0.002777	-0.089469
O6	O	0.873020	0.142750	-0.089446
O7	O	1.115667	0.127665	-0.089483
Cu8	Cu	0.993535	0.136207	-0.105776
Cu9	Cu	1.004013	0.123253	0.105488
O10	O	0.997986	0.273192	-0.089460
C11	C	0.846210	0.136649	-0.000121
C12	C	0.753120	0.134778	-0.000107
C13	C	1.151338	0.122811	-0.000165
C14	C	1.244428	0.124682	-0.000172
C15	C	1.582679	0.131395	-0.000128
C16	C	1.542967	0.235062	-0.000529
C17	C	1.446156	0.233168	-0.000137
C18	C	1.414869	0.128065	-0.000150
C19	C	1.457171	0.070689	0.101862
C20	C	1.554006	0.073287	0.101959
C21	C	1.544162	0.083603	-0.101189
C22	C	1.447151	0.083711	-0.102548
C23	C	1.320030	0.126177	-0.000159
C24	C	1.677519	0.133279	-0.000112
C25	C	0.991943	-0.043569	-0.000147
C26	C	0.982432	-0.148795	-0.000142
C27	C	1.005605	0.303029	-0.000139
C28	C	1.015116	0.408255	-0.000137
N29	N	0.986170	0.145318	-0.254367
C30	C	1.032504	0.600916	-0.000144
C31	C	0.965048	0.658549	-0.000135
C32	C	0.974723	0.765753	-0.000139
C33	C	1.022830	0.493703	-0.000140
C34	C	1.022212	0.100729	-0.526807
C35	C	0.975344	0.158721	-0.473474
C36	C	0.981370	0.151262	-0.351552
C37	C	1.016188	0.108187	-0.648741
N38	N	1.011384	0.114135	0.254079
H39	H	1.417120	0.277840	-0.073261
H40	H	1.066859	0.045483	-0.480905
H41	H	0.900032	0.627377	-0.000126
O42	O	0.922150	0.224614	-0.528398
C43	C	0.867512	0.292161	-0.701763
C44	C	0.927797	0.217510	-0.639691
H45	H	0.872045	0.286429	-0.791754
H46	H	0.885208	0.366773	-0.679808
H47	H	0.800602	0.278500	-0.679668
H48	H	0.994727	0.231082	-0.661753
H49	H	0.910029	0.142924	-0.661651
H50	H	1.097515	0.632087	-0.000158
H51	H	1.560978	0.280973	-0.073677
H52	H	1.437466	-0.006760	0.105647
H53	H	1.569236	0.271841	0.072223
H54	H	1.424934	0.269127	0.073113
H55	H	1.578862	0.105890	0.178219
H56	H	1.580801	-0.003090	0.106601
H57	H	1.435170	0.101516	0.177777
H58	H	1.563412	0.122229	-0.178503
H59	H	1.418909	0.125667	-0.178016
H60	H	1.570178	0.007229	-0.101875
O61	O	1.421774	-0.007326	-0.109947
C62	C	1.463624	-0.172891	-0.116909
C63	C	1.492480	-0.069830	-0.108565
H64	H	1.520775	-0.223457	-0.115772
H65	H	1.423859	-0.177800	-0.195068
H66	H	1.424866	-0.193721	-0.045979
H67	H	1.531271	-0.048934	-0.179438
H68	H	1.532202	-0.064977	-0.030363
