data_functionalizedCrystal
_audit_creation_method	'MofGen! by Chris Wilmer'
_symmetry_space_group_name_H-M	'P1'
_symmetry_Int_Tables_number	1
_symmetry_cell_setting	triclinic
loop_
_symmetry_equiv_pos_as_xyz
  x,y,z
_cell_length_a	21.295419
_cell_length_b	21.295412
_cell_length_c	21.295417
_cell_angle_alpha	89.969332
_cell_angle_beta	90.045308
_cell_angle_gamma	89.976510
loop_
_atom_site_label
_atom_site_type_symbol
_atom_site_fract_x
_atom_site_fract_y
_atom_site_fract_z
Zn1	Zn	0.962349	-0.355911	-0.250376
Zn2	Zn	1.295682	-0.022578	0.082957
Zn3	Zn	1.629016	0.310756	0.416290
Zn4	Zn	0.962253	-0.250637	-0.355645
Zn5	Zn	1.295587	0.082697	-0.022311
Zn6	Zn	1.628920	0.416030	0.311022
Zn7	Zn	0.857074	-0.250656	-0.250421
Zn8	Zn	1.190407	0.082677	0.082913
Zn9	Zn	1.523741	0.416010	0.416246
Zn10	Zn	0.857042	-0.355868	-0.355639
Zn11	Zn	1.190375	-0.022535	-0.022305
Zn12	Zn	1.523708	0.310798	0.311028
O13	O	0.909680	-0.303268	-0.303020
O14	O	1.243013	0.030065	0.030313
O15	O	1.576346	0.363399	0.363647
O16	O	1.050426	-0.341956	-0.264324
O17	O	1.383759	-0.008623	0.069009
O18	O	1.717092	0.324711	0.402342
O19	O	0.948275	-0.162550	-0.341708
O20	O	1.281608	0.170784	-0.008374
O21	O	1.614941	0.504117	0.324959
O22	O	0.871093	-0.264645	-0.162325
O23	O	1.204426	0.068689	0.171008
O24	O	1.537759	0.402022	0.504341
O25	O	1.050355	-0.264611	-0.341665
O26	O	1.383689	0.068722	-0.008331
O27	O	1.717022	0.402056	0.325002
O28	O	0.948438	-0.341975	-0.162293
O29	O	1.281771	-0.008642	0.171041
O30	O	1.615104	0.324692	0.504374
O31	O	0.871000	-0.162564	-0.264400
O32	O	1.204333	0.170769	0.068934
O33	O	1.537667	0.504102	0.402267
O34	O	0.768980	-0.264603	-0.264394
O35	O	1.102314	0.068730	0.068939
O36	O	1.435647	0.402064	0.402273
O37	O	0.871037	-0.443963	-0.341654
O38	O	1.204371	-0.110630	-0.008321
O39	O	1.537704	0.222703	0.325012
O40	O	0.768957	-0.341902	-0.341697
O41	O	1.102290	-0.008569	-0.008364
O42	O	1.435623	0.324765	0.324969
O43	O	0.948406	-0.443995	-0.264319
O44	O	1.281740	-0.110662	0.069015
O45	O	1.615073	0.222672	0.402348
O46	O	0.948243	-0.264570	-0.443733
O47	O	1.281576	0.068764	-0.110400
O48	O	1.614910	0.402097	0.222933
O49	O	0.870945	-0.341883	-0.443729
O50	O	1.204278	-0.008550	-0.110396
O51	O	1.537611	0.324784	0.222938
C52	C	0.746128	-0.303250	-0.303050
C53	C	1.079461	0.030083	0.030283
C54	C	1.412795	0.363416	0.363616
C55	C	0.676160	-0.303258	-0.303078
C56	C	1.009493	0.030076	0.030255
C57	C	1.342826	0.363409	0.363588
C58	C	0.643352	-0.343593	-0.262873
C59	C	0.976686	-0.010260	0.070460
C60	C	1.310019	0.323073	0.403794
C61	C	0.577610	-0.343596	-0.262856
C62	C	0.910943	-0.010263	0.070477
C63	C	1.244276	0.323071	0.403810
C64	C	0.544677	-0.303269	-0.303056
C65	C	0.878011	0.030064	0.030278
C66	C	1.211344	0.363397	0.363611
C67	C	0.577493	-0.262926	-0.343264
C68	C	0.910826	0.070408	-0.009931
C69	C	1.244160	0.403741	0.323403
C70	C	0.643234	-0.262920	-0.343275
C71	C	0.976567	0.070413	-0.009942
C72	C	1.309901	0.403747	0.323392
N73	N	0.441402	-0.298349	-0.358134
N74	N	0.774735	0.034984	-0.024800
N75	N	1.108069	0.368317	0.308533
N76	N	0.378951	-0.298359	-0.358121
N77	N	0.712284	0.034975	-0.024788
N78	N	1.045617	0.368308	0.308545
C79	C	0.346603	-0.303283	-0.303023
C80	C	0.679936	0.030050	0.030310
C81	C	1.013269	0.363384	0.363643
N82	N	0.379065	-0.308210	-0.247937
N83	N	0.712399	0.025123	0.085396
N84	N	1.045732	0.358456	0.418730
N85	N	0.441523	-0.308205	-0.247950
N86	N	0.774856	0.025129	0.085383
N87	N	1.108189	0.358462	0.418717
C88	C	0.473392	-0.303271	-0.303048
C89	C	0.806725	0.030063	0.030286
C90	C	1.140059	0.363396	0.363619
C91	C	0.242510	-0.343624	-0.262796
C92	C	0.575843	-0.010290	0.070537
C93	C	0.909176	0.323043	0.403870
C94	C	0.176766	-0.343622	-0.262778
C95	C	0.510099	-0.010288	0.070555
C96	C	0.843432	0.323045	0.403888
C97	C	0.176650	-0.262955	-0.343192
C98	C	0.509984	0.070379	-0.009858
C99	C	0.843317	0.403712	0.323475
C100	C	0.242393	-0.262953	-0.343204
C101	C	0.575726	0.070380	-0.009871
C102	C	0.909059	0.403713	0.323463
C103	C	0.275318	-0.303291	-0.303007
C104	C	0.608652	0.030042	0.030326
C105	C	0.941985	0.363375	0.363660
C106	C	0.909729	-0.467458	-0.302981
C107	C	1.243062	-0.134125	0.030352
C108	C	1.576395	0.199208	0.363686
C109	C	0.909750	-0.537427	-0.302964
C110	C	1.243083	-0.204093	0.030369
C111	C	1.576416	0.129240	0.363702
C112	C	0.869524	-0.570291	-0.262706
C113	C	1.202857	-0.236957	0.070628
C114	C	1.536190	0.096376	0.403961
C115	C	0.869521	-0.636033	-0.262694
C116	C	1.202855	-0.302700	0.070640
C117	C	1.536188	0.030633	0.403973
C118	C	0.909757	-0.668909	-0.302934
C119	C	1.243090	-0.335576	0.030399
C120	C	1.576423	-0.002242	0.363732
C121	C	0.949986	-0.636037	-0.343201
C122	C	1.283319	-0.302704	-0.009867
C123	C	1.616652	0.030630	0.323466
C124	C	0.949982	-0.570296	-0.343216
C125	C	1.283316	-0.236962	-0.009882
C126	C	1.616649	0.096371	0.323451
N127	N	0.964861	-0.772147	-0.307728
N128	N	1.298194	-0.438814	0.025606
N129	N	1.631528	-0.105481	0.358939
N130	N	0.964862	-0.834599	-0.307710
N131	N	1.298196	-0.501265	0.025624
N132	N	1.631529	-0.167932	0.358957
C133	C	0.909768	-0.866984	-0.302892
C134	C	1.243102	-0.533651	0.030441
C135	C	1.576435	-0.200317	0.363774
N136	N	0.854671	-0.834558	-0.298081
N137	N	1.188005	-0.501225	0.035252
N138	N	1.521338	-0.167892	0.368585
N139	N	0.854671	-0.772101	-0.298096
N140	N	1.188004	-0.438768	0.035237
N141	N	1.521337	-0.105434	0.368571
C142	C	0.909764	-0.740194	-0.302923
C143	C	1.243098	-0.406861	0.030411
C144	C	1.576431	-0.073528	0.363744
C145	C	0.869536	-0.971134	-0.262619
C146	C	1.202869	-0.637800	0.070715
C147	C	1.536203	-0.304467	0.404048
C148	C	0.869533	-1.036878	-0.262611
C149	C	1.202866	-0.703544	0.070722
C150	C	1.536200	-0.370211	0.404055
C151	C	0.950003	-1.036880	-0.343115
C152	C	1.283336	-0.703546	-0.009782
C153	C	1.616669	-0.370213	0.323552
C154	C	0.950000	-0.971137	-0.343126
C155	C	1.283334	-0.637804	-0.009792
C156	C	1.616667	-0.304471	0.323541
C157	C	0.909768	-0.938268	-0.302874
C158	C	1.243101	-0.604935	0.030459
C159	C	1.576435	-0.271602	0.363793
C160	C	1.073870	-0.303286	-0.302990
C161	C	1.407203	0.030047	0.030343
C162	C	1.740536	0.363381	0.363676
C163	C	1.143838	-0.303294	-0.302977
C164	C	1.477171	0.030039	0.030356
C165	C	1.810505	0.363373	0.363689
C166	C	0.909597	-0.303233	-0.466572
C167	C	1.242930	0.030100	-0.133238
C168	C	1.576264	0.363433	0.200095
C169	C	0.909619	-0.303239	-0.536540
C170	C	1.242953	0.030094	-0.203206
C171	C	1.576286	0.363427	0.130127
C172	C	0.909667	-0.139716	-0.303014
C173	C	1.243000	0.193617	0.030320
C174	C	1.576333	0.526950	0.363653
C175	C	0.909768	-0.069749	-0.302853
C176	C	1.243101	0.263585	0.030480
C177	C	1.576434	0.596918	0.363814
C178	C	0.949904	-0.263024	-0.569388
C179	C	1.283238	0.070310	-0.236054
C180	C	1.616571	0.403643	0.097279
C181	C	0.949934	-0.263038	-0.635130
C182	C	1.283267	0.070296	-0.301797
C183	C	1.616601	0.403629	0.031536
C184	C	0.909667	-0.303261	-0.668022
C185	C	1.243000	0.030072	-0.334689
C186	C	1.576334	0.363406	-0.001356
C187	C	0.869379	-0.343485	-0.635166
C188	C	1.202712	-0.010151	-0.301833
C189	C	1.536046	0.323182	0.031500
C190	C	0.869355	-0.343474	-0.569425
C191	C	1.202689	-0.010140	-0.236092
C192	C	1.536022	0.323193	0.097242
N193	N	0.854600	-0.308054	-0.771302
N194	N	1.187933	0.025279	-0.437969
N195	N	1.521267	0.358613	-0.104636
N196	N	0.854624	-0.308061	-0.833754
N197	N	1.187958	0.025273	-0.500420
N198	N	1.521291	0.358606	-0.167087
C199	C	0.909738	-0.303297	-0.866097
C200	C	1.243071	0.030036	-0.532764
C201	C	1.576404	0.363370	-0.199430
N202	N	0.964827	-0.298514	-0.833629
N203	N	1.298160	0.034819	-0.500296
N204	N	1.631493	0.368152	-0.166963
N205	N	0.964801	-0.298505	-0.771172
N206	N	1.298135	0.034829	-0.437839
N207	N	1.631468	0.368162	-0.104506
C208	C	0.909689	-0.303278	-0.739308
C209	C	1.243022	0.030056	-0.405974
C210	C	1.576355	0.363389	-0.072641
C211	C	0.950058	-0.263095	-0.970230
C212	C	1.283391	0.070239	-0.636897
C213	C	1.616725	0.403572	-0.303564
C214	C	0.950089	-0.263113	-1.035974
C215	C	1.283422	0.070220	-0.702641
C216	C	1.616755	0.403554	-0.369308
C217	C	0.869528	-0.343557	-1.036009
C218	C	1.202862	-0.010223	-0.702676
C219	C	1.536195	0.323110	-0.369342
C220	C	0.869503	-0.343541	-0.970267
C221	C	1.202837	-0.010208	-0.636933
C222	C	1.536170	0.323125	-0.303600
C223	C	0.909767	-0.303307	-0.937381
C224	C	1.243101	0.030026	-0.604048
C225	C	1.576434	0.363360	-0.270715
C226	C	0.909780	-0.303317	-0.138830
C227	C	1.243113	0.030017	0.194504
C228	C	1.576446	0.363350	0.527837
C229	C	0.909822	-0.303338	-0.068862
C230	C	1.243155	0.029996	0.264472
C231	C	1.576489	0.363329	0.597805
H232	H	0.550675	-0.230091	-0.375994
H233	H	0.884008	0.103242	-0.042661
H234	H	1.217342	0.436576	0.290673
H235	H	0.982759	-0.944379	-0.375907
H236	H	1.316092	-0.611046	-0.042574
H237	H	1.649425	-0.277712	0.290759
H238	H	0.982764	-1.063647	-0.375878
H239	H	1.316098	-0.730313	-0.042545
H240	H	1.649431	-0.396980	0.290788
O241	O	0.993547	-0.219741	-1.071408
O242	O	1.326880	0.113592	-0.738075
O243	O	1.660214	0.446925	-0.404741
H244	H	0.965401	-0.187701	-1.101424
H245	H	1.298734	0.145632	-0.768090
H246	H	1.632067	0.478966	-0.434757
O247	O	0.826142	-0.671482	-0.219253
O248	O	1.159475	-0.338149	0.114080
O249	O	1.492809	-0.004815	0.447413
H250	H	0.854354	-0.701448	-0.187224
H251	H	1.187687	-0.368114	0.146110
H252	H	1.521021	-0.034781	0.479443
O253	O	0.826137	-0.534837	-0.219289
O254	O	1.159470	-0.201504	0.114044
O255	O	1.492803	0.131829	0.447377
H256	H	0.798164	-0.568739	-0.191293
H257	H	1.131497	-0.235406	0.142040
H258	H	1.464830	0.097927	0.475374
O259	O	0.825892	-0.386839	-0.533990
O260	O	1.159225	-0.053506	-0.200656
O261	O	1.492558	0.279828	0.132677
H262	H	0.797890	-0.414808	-0.567903
H263	H	1.131224	-0.081475	-0.234570
H264	H	1.464557	0.251859	0.098763
H265	H	0.836771	-1.063635	-0.229830
H266	H	1.170105	-0.730301	0.103503
H267	H	1.503438	-0.396968	0.436837
H268	H	0.836697	-0.376286	-0.943520
H269	H	1.170030	-0.042953	-0.610187
H270	H	1.503363	0.290380	-0.276853
H271	H	0.836595	-0.376236	-0.661951
H272	H	1.169928	-0.042903	-0.328618
H273	H	1.503261	0.290431	0.004715
H274	H	0.982691	-0.230264	-0.542615
H275	H	1.316025	0.103069	-0.209281
H276	H	1.649358	0.436403	0.124052
O277	O	0.993380	-0.219656	-0.670572
O278	O	1.326714	0.113678	-0.337239
O279	O	1.660047	0.447011	-0.003905
H280	H	1.021370	-0.191673	-0.636660
H281	H	1.354704	0.141660	-0.303327
H282	H	1.688037	0.474993	0.030007
O283	O	0.993380	-0.534843	-0.386629
O284	O	1.326714	-0.201509	-0.053296
O285	O	1.660047	0.131824	0.280038
H286	H	1.021364	-0.568745	-0.414606
H287	H	1.354697	-0.235412	-0.081273
H288	H	1.688030	0.097922	0.252060
H289	H	0.269319	-0.376465	-0.230062
H290	H	0.602652	-0.043132	0.103272
H291	H	0.935986	0.290202	0.436605
O292	O	0.826143	-0.935674	-0.219212
O293	O	1.159476	-0.602340	0.114122
O294	O	1.492809	-0.269007	0.447455
H295	H	0.776731	-0.948262	-0.230019
H296	H	1.110064	-0.614929	0.103315
H297	H	1.443397	-0.281596	0.436648
O298	O	0.993491	-0.219710	-0.934754
O299	O	1.326824	0.113623	-0.601420
O300	O	1.660158	0.446956	-0.268087
H301	H	1.021518	-0.191755	-0.968643
H302	H	1.354851	0.141578	-0.635310
H303	H	1.688185	0.474911	-0.301976
H304	H	0.550893	-0.376441	-0.230113
H305	H	0.884226	-0.043108	0.103220
H306	H	1.217559	0.290226	0.436554
O307	O	0.678626	-0.219415	-0.386642
O308	O	1.011959	0.113919	-0.053309
O309	O	1.345293	0.447252	0.280025
H310	H	0.644684	-0.191373	-0.414595
H311	H	0.978018	0.141961	-0.081261
H312	H	1.311351	0.475294	0.252072
H313	H	0.836745	-0.376310	-1.062789
H314	H	1.170078	-0.042977	-0.729456
H315	H	1.503412	0.290356	-0.396122
O316	O	0.678867	-0.387095	-0.219517
O317	O	1.012200	-0.053761	0.113817
O318	O	1.345534	0.279572	0.447150
H319	H	0.708838	-0.358975	-0.187462
H320	H	1.042171	-0.025642	0.145872
H321	H	1.375505	0.307692	0.479205
H322	H	0.150055	-0.376467	-0.230035
H323	H	0.483388	-0.043133	0.103299
H324	H	0.816722	0.290200	0.436632
O325	O	0.141141	-0.219457	-0.386552
O326	O	0.474475	0.113876	-0.053219
O327	O	0.807808	0.447209	0.280115
H328	H	0.089915	-0.226239	-0.379793
H329	H	0.423248	0.107094	-0.046459
H330	H	0.756581	0.440428	0.286874
H331	H	0.982745	-0.662809	-0.375965
H332	H	1.316079	-0.329475	-0.042632
H333	H	1.649412	0.003858	0.290702
O334	O	0.277785	-0.219451	-0.386571
O335	O	0.611118	0.113882	-0.053237
O336	O	0.944452	0.447216	0.280096
H337	H	0.243842	-0.191411	-0.414524
H338	H	0.577176	0.141922	-0.081191
H339	H	0.910509	0.475256	0.252142
