data_functionalizedCrystal
_audit_creation_method	'MofGen! by Chris Wilmer'
_symmetry_space_group_name_H-M	'P1'
_symmetry_Int_Tables_number	1
_symmetry_cell_setting	triclinic
loop_
_symmetry_equiv_pos_as_xyz
  x,y,z
_cell_length_a	13.897449
_cell_length_b	19.120786
_cell_length_c	13.897441
_cell_angle_alpha	87.525635
_cell_angle_beta	89.976606
_cell_angle_gamma	92.465881
loop_
_atom_site_label
_atom_site_type_symbol
_atom_site_fract_x
_atom_site_fract_y
_atom_site_fract_z
Zn1	Zn	1.458269	-0.279593	-0.529041
Zn2	Zn	1.791603	0.053740	-0.195707
Zn3	Zn	2.124936	0.387073	0.137626
Zn4	Zn	1.451259	-0.397064	-0.360848
Zn5	Zn	1.784592	-0.063731	-0.027514
Zn6	Zn	2.117926	0.269602	0.305819
Zn7	Zn	1.296957	-0.279626	-0.367749
Zn8	Zn	1.630290	0.053707	-0.034416
Zn9	Zn	1.963623	0.387041	0.298917
Zn10	Zn	1.290039	-0.397017	-0.522096
Zn11	Zn	1.623372	-0.063684	-0.188762
Zn12	Zn	1.956705	0.269649	0.144571
O13	O	1.374131	-0.338325	-0.444933
O14	O	1.707464	-0.004992	-0.111600
O15	O	2.040798	0.328341	0.221733
O16	O	1.592321	-0.295182	-0.506747
O17	O	1.925654	0.038151	-0.173414
O18	O	2.258987	0.371484	0.159919
O19	O	1.430752	-0.381519	-0.226779
O20	O	1.764085	-0.048186	0.106554
O21	O	2.097419	0.285147	0.439887
O22	O	1.324184	-0.181331	-0.394940
O23	O	1.657518	0.152002	-0.061607
O24	O	1.990851	0.485336	0.271727
O25	O	1.587170	-0.381488	-0.383177
O26	O	1.920504	-0.048154	-0.049843
O27	O	2.253837	0.285179	0.283490
O28	O	1.442700	-0.181307	-0.513440
O29	O	1.776033	0.152026	-0.180107
O30	O	2.109367	0.485360	0.153227
O31	O	1.317387	-0.295238	-0.231850
O32	O	1.650720	0.038096	0.101483
O33	O	1.984053	0.371429	0.434816
O34	O	1.161058	-0.295192	-0.388206
O35	O	1.494391	0.038141	-0.054872
O36	O	1.827724	0.371475	0.278461
O37	O	1.312394	-0.381407	-0.658000
O38	O	1.645727	-0.048074	-0.324667
O39	O	1.979060	0.285259	0.008666
O40	O	1.155975	-0.381439	-0.501603
O41	O	1.489308	-0.048106	-0.168270
O42	O	1.822642	0.285228	0.165064
O43	O	1.435992	-0.295137	-0.663103
O44	O	1.769325	0.038197	-0.329770
O45	O	2.102659	0.371530	0.003564
O46	O	1.424044	-0.495349	-0.376443
O47	O	1.757377	-0.162015	-0.043109
O48	O	2.090710	0.171318	0.290224
O49	O	1.305596	-0.495314	-0.494911
O50	O	1.638929	-0.161981	-0.161577
O51	O	1.972263	0.171352	0.171756
C52	C	1.123517	-0.338314	-0.444900
C53	C	1.456851	-0.004981	-0.111567
C54	C	1.790184	0.328352	0.221766
C55	C	1.016303	-0.338327	-0.444908
C56	C	1.349636	-0.004993	-0.111575
C57	C	1.682969	0.328340	0.221759
C58	C	0.929233	-0.338329	-0.444924
C59	C	1.262566	-0.004996	-0.111591
C60	C	1.595899	0.328338	0.221743
C61	C	0.820000	-0.338334	-0.444953
C62	C	1.153333	-0.005001	-0.111620
C63	C	1.486667	0.328333	0.221714
C64	C	1.363335	-0.520817	-0.434195
C65	C	1.696668	-0.187484	-0.100862
C66	C	2.030001	0.145849	0.232472
C67	C	1.358804	-0.598888	-0.429633
C68	C	1.692137	-0.265555	-0.096300
C69	C	2.025471	0.067779	0.237033
C70	C	1.418334	-0.635493	-0.489237
C71	C	1.751668	-0.302160	-0.155904
C72	C	2.085001	0.031174	0.177430
C73	C	1.414074	-0.708849	-0.484953
C74	C	1.747407	-0.375516	-0.151619
C75	C	2.080740	-0.042182	0.181714
C76	C	1.350287	-0.745598	-0.421059
C77	C	1.683620	-0.412265	-0.087726
C78	C	2.016953	-0.078932	0.245608
C79	C	1.290750	-0.708988	-0.361453
C80	C	1.624083	-0.375655	-0.028120
C81	C	1.957416	-0.042322	0.305214
C82	C	1.295006	-0.635634	-0.365743
C83	C	1.628340	-0.302300	-0.032410
C84	C	1.961673	0.031033	0.300924
C85	C	1.334345	-0.967085	-0.405021
C86	C	1.667679	-0.633752	-0.071688
C87	C	2.001012	-0.300419	0.261645
C88	C	1.330095	-1.040445	-0.400734
C89	C	1.663429	-0.707111	-0.067401
C90	C	1.996762	-0.373778	0.265933
C91	C	1.453419	-1.040300	-0.524235
C92	C	1.786752	-0.706967	-0.190902
C93	C	2.120085	-0.373634	0.142431
C94	C	1.457674	-0.966944	-0.528515
C95	C	1.791007	-0.633611	-0.195182
C96	C	2.124340	-0.300278	0.138151
C97	C	1.398133	-0.930341	-0.468913
C98	C	1.731466	-0.597007	-0.135580
C99	C	2.064800	-0.263674	0.197754
C100	C	1.345932	-0.820580	-0.416676
C101	C	1.679265	-0.487246	-0.083343
C102	C	2.012599	-0.153913	0.249991
C103	C	1.402484	-0.855361	-0.473302
C104	C	1.735817	-0.522027	-0.139968
C105	C	2.069150	-0.188694	0.193365
C106	C	1.625723	-0.338337	-0.444967
C107	C	1.959057	-0.005003	-0.111634
C108	C	2.292390	0.328330	0.221700
C109	C	1.732937	-0.338341	-0.444981
C110	C	2.066270	-0.005008	-0.111648
C111	C	2.399604	0.328325	0.221685
C112	C	1.374203	-0.338263	-0.696530
C113	C	1.707536	-0.004930	-0.363197
C114	C	2.040870	0.328404	-0.029863
C115	C	1.374234	-0.338237	-0.803746
C116	C	1.707567	-0.004903	-0.470412
C117	C	2.040900	0.328430	-0.137079
C118	C	1.384996	-0.155121	-0.455735
C119	C	1.718329	0.178213	-0.122401
C120	C	2.051662	0.511546	0.210932
C121	C	1.389626	-0.077050	-0.460337
C122	C	1.722959	0.256284	-0.127004
C123	C	2.056292	0.589617	0.206329
C124	C	1.374263	-0.338189	-1.000044
C125	C	1.707596	-0.004856	-0.666710
C126	C	2.040929	0.328477	-0.333377
C127	C	1.374244	-0.338218	-0.890809
C128	C	1.707577	-0.004884	-0.557476
C129	C	2.040910	0.328449	-0.224143
C130	C	1.374118	-0.338336	-0.194318
C131	C	1.707451	-0.005003	0.139015
C132	C	2.040784	0.328330	0.472348
C133	C	1.374285	-0.338165	-0.087115
C134	C	1.707619	-0.004832	0.246218
C135	C	2.040952	0.328502	0.579552
H136	H	1.462557	-0.738649	-0.533481
H137	H	1.795891	-0.405316	-0.200147
H138	H	2.129224	-0.071983	0.133186
H139	H	1.293999	-0.850509	-0.364651
H140	H	1.627333	-0.517176	-0.031318
H141	H	1.960666	-0.183843	0.302016
H142	H	1.501892	-1.070111	-0.572761
H143	H	1.835225	-0.736778	-0.239428
H144	H	2.168558	-0.403444	0.093906
H145	H	1.238809	-0.738916	-0.309433
H146	H	1.572142	-0.405582	0.023900
H147	H	1.905476	-0.072249	0.357233
H148	H	1.470281	-0.605576	-0.541262
H149	H	1.803614	-0.272243	-0.207928
H150	H	2.136948	0.061090	0.125405
C151	C	1.208601	-1.033224	-0.279099
C152	C	1.541934	-0.699890	0.054235
C153	C	1.875268	-0.366557	0.387568
C154	C	1.259968	-1.080842	-0.330504
C155	C	1.593301	-0.747508	0.002829
C156	C	1.926635	-0.414175	0.336163
H157	H	1.165307	-1.058165	-0.235749
H158	H	1.498640	-0.724831	0.097584
H159	H	1.831974	-0.391498	0.430918
H160	H	1.252300	-1.004605	-0.243910
H161	H	1.585633	-0.671272	0.089423
H162	H	1.918967	-0.337938	0.422756
H163	H	1.173346	-1.004614	-0.322777
H164	H	1.506679	-0.671281	0.010557
H165	H	1.840012	-0.337948	0.343890
H166	H	1.295229	-1.109447	-0.286826
H167	H	1.628562	-0.776114	0.046507
H168	H	1.961896	-0.442781	0.379840
H169	H	1.216263	-1.109472	-0.365694
H170	H	1.549596	-0.776139	-0.032361
H171	H	1.882930	-0.442806	0.300972
C172	C	1.209367	-0.884700	-0.396303
C173	C	1.542701	-0.551367	-0.062970
C174	C	1.876034	-0.218033	0.270363
C175	C	1.268903	-0.926861	-0.339498
C176	C	1.602236	-0.593528	-0.006165
C177	C	1.935569	-0.260194	0.327169
H178	H	1.168961	-0.859870	-0.355847
H179	H	1.502294	-0.526537	-0.022513
H180	H	1.835627	-0.193204	0.310820
H181	H	1.247958	-0.852313	-0.434957
H182	H	1.581292	-0.518980	-0.101624
H183	H	1.914625	-0.185646	0.231709
H184	H	1.170794	-0.913327	-0.436620
H185	H	1.504128	-0.579994	-0.103287
H186	H	1.837461	-0.246660	0.230046
H187	H	1.307481	-0.898233	-0.299186
H188	H	1.640814	-0.564900	0.034147
H189	H	1.974148	-0.231566	0.367480
H190	H	1.230307	-0.959251	-0.300828
H191	H	1.563641	-0.625918	0.032506
H192	H	1.896974	-0.292585	0.365839
C193	C	1.505897	-0.944247	-0.693224
C194	C	1.839231	-0.610914	-0.359891
C195	C	2.172564	-0.277580	-0.026557
C196	C	1.527792	-0.926554	-0.598750
C197	C	1.861126	-0.593221	-0.265417
C198	C	2.194459	-0.259888	0.067916
H199	H	1.549188	-0.919309	-0.736580
H200	H	1.882521	-0.585976	-0.403247
H201	H	2.215854	-0.252642	-0.069913
H202	H	1.511882	-0.993168	-0.699192
H203	H	1.845215	-0.659834	-0.365859
H204	H	2.178548	-0.326501	-0.032526
H205	H	1.441776	-0.932252	-0.707974
H206	H	1.775110	-0.598918	-0.374640
H207	H	2.108443	-0.265585	-0.041307
H208	H	1.591912	-0.938555	-0.583998
H209	H	1.925245	-0.605221	-0.250665
H210	H	2.258578	-0.271888	0.082668
H211	H	1.521817	-0.877623	-0.592778
H212	H	1.855150	-0.544289	-0.259445
H213	H	2.188483	-0.210956	0.073888
H214	H	1.246529	-0.605831	-0.317209
H215	H	1.579863	-0.272497	0.016125
H216	H	1.913196	0.060836	0.349458
H217	H	1.454415	-0.825437	-0.525328
H218	H	1.787749	-0.492104	-0.191994
H219	H	2.121082	-0.158770	0.141339
