data_functionalizedCrystal
_audit_creation_method	'MofGen! by Chris Wilmer'
_symmetry_space_group_name_H-M	'P1'
_symmetry_Int_Tables_number	1
_symmetry_cell_setting	triclinic
loop_
_symmetry_equiv_pos_as_xyz
  x,y,z
_cell_length_a	19.188930
_cell_length_b	11.792241
_cell_length_c	10.268362
_cell_angle_alpha	89.996518
_cell_angle_beta	90.010846
_cell_angle_gamma	83.669099
loop_
_atom_site_label
_atom_site_type_symbol
_atom_site_fract_x
_atom_site_fract_y
_atom_site_fract_z
O1	O	0.095696	1.505470	0.108190
O2	O	0.105558	1.174981	0.108222
O3	O	-0.000974	1.349763	0.108179
O4	O	0.202229	1.330688	0.108232
O5	O	-0.000981	1.349761	-0.108421
O6	O	0.105552	1.174979	-0.108379
O7	O	0.095690	1.505468	-0.108411
Cu8	Cu	0.100621	1.340223	-0.128172
Cu9	Cu	0.100628	1.340226	0.127983
O10	O	0.202223	1.330686	-0.108368
C11	C	0.104936	1.132699	-0.000075
C12	C	0.103082	1.006713	-0.000064
C13	C	0.099672	0.776051	-0.000102
C14	C	0.101566	0.904408	-0.000081
C15	C	-0.026992	1.349144	-0.000125
C16	C	-0.104507	1.347290	-0.000136
C17	C	-0.148850	1.449846	-0.000152
C18	C	-0.221684	1.448104	-0.000131
C19	C	-0.250171	1.343800	-0.000120
C20	C	-0.205818	1.241230	-0.000096
C21	C	-0.132986	1.242975	-0.000104
N22	N	-0.358630	1.264071	-0.073825
N23	N	-0.427818	1.262421	-0.073820
C24	C	-0.469609	1.338536	-0.000093
N25	N	-0.439601	1.416382	0.073614
N26	N	-0.370407	1.418036	0.073603
C27	C	-0.329144	1.341896	-0.000110
C28	C	-0.592928	1.439211	-0.000084
C29	C	-0.665762	1.437464	-0.000055
C30	C	-0.649895	1.230588	-0.000034
C31	C	-0.577062	1.232337	-0.000050
C32	C	-0.548583	1.336652	-0.000081
C33	C	0.228240	1.331305	-0.000062
C34	C	0.305755	1.333159	-0.000042
C35	C	0.096313	1.547751	-0.000111
C36	C	0.098167	1.673737	-0.000114
N37	N	0.100628	1.340228	0.308149
N38	N	0.100615	1.340230	-0.308338
C39	C	0.100624	1.340225	0.573820
C40	C	0.100628	1.340224	0.425982
H41	H	-0.125667	1.534787	-0.000173
Cl42	Cl	-0.277440	1.577041	-0.000150
H43	H	-0.569739	1.524150	-0.000104
H44	H	-0.229017	1.156305	-0.000084
Cl45	Cl	-0.685701	1.099461	-0.000012
H46	H	-0.096881	1.159459	-0.000091
Cl47	Cl	-0.721510	1.566405	-0.000067
H48	H	-0.540957	1.148825	-0.000044
