data_functionalizedCrystal
_audit_creation_method	'MofGen! by Chris Wilmer'
_symmetry_space_group_name_H-M	'P1'
_symmetry_Int_Tables_number	1
_symmetry_cell_setting	triclinic
loop_
_symmetry_equiv_pos_as_xyz
  x,y,z
_cell_length_a	21.395362
_cell_length_b	12.594516
_cell_length_c	21.395355
_cell_angle_alpha	90.011407
_cell_angle_beta	90.043940
_cell_angle_gamma	90.031933
loop_
_atom_site_label
_atom_site_type_symbol
_atom_site_fract_x
_atom_site_fract_y
_atom_site_fract_z
Zn1	Zn	0.957923	-0.423414	0.354617
Zn2	Zn	1.457923	0.076586	0.854617
Zn3	Zn	0.957853	-0.601379	0.249852
Zn4	Zn	1.457853	-0.101379	0.749852
Zn5	Zn	0.853138	-0.423464	0.249818
Zn6	Zn	1.353138	0.076536	0.749818
Zn7	Zn	0.853134	-0.601400	0.354557
Zn8	Zn	1.353134	-0.101400	0.854557
O9	O	0.905512	-0.512414	0.302211
O10	O	1.405512	-0.012414	0.802211
O11	O	1.045592	-0.446992	0.340759
O12	O	1.545592	0.053008	0.840759
O13	O	0.943934	-0.577789	0.162170
O14	O	1.443934	-0.077789	0.662170
O15	O	0.867069	-0.274511	0.263730
O16	O	1.367069	0.225489	0.763730
O17	O	1.045540	-0.577741	0.263789
O18	O	1.545540	-0.077741	0.763789
O19	O	0.944055	-0.274475	0.340725
O20	O	1.444055	0.225525	0.840725
O21	O	0.867001	-0.447076	0.162144
O22	O	1.367001	0.052924	0.662144
O23	O	0.765460	-0.447097	0.263672
O24	O	1.265460	0.052903	0.763672
O25	O	0.867063	-0.577779	0.442243
O26	O	1.367063	-0.077779	0.942243
O27	O	0.765457	-0.577827	0.340624
O28	O	1.265457	-0.077827	0.840624
O29	O	0.944051	-0.447013	0.442287
O30	O	1.444051	0.052987	0.942287
O31	O	0.943930	-0.750327	0.263731
O32	O	1.443930	-0.250327	0.763731
O33	O	0.866994	-0.750343	0.340657
O34	O	1.366994	-0.250343	0.840657
C35	C	0.742724	-0.512471	0.302138
C36	C	1.242724	-0.012471	0.802138
C37	C	0.673083	-0.512520	0.302122
C38	C	1.173083	-0.012520	0.802122
C39	C	0.640385	-0.580681	0.342130
C40	C	1.140385	-0.080681	0.842130
C41	C	0.574949	-0.580655	0.342158
C42	C	1.074949	-0.080655	0.842158
C43	C	0.542215	-0.512479	0.302167
C44	C	1.042215	-0.012479	0.802167
C45	C	0.574921	-0.444305	0.262155
C46	C	1.074921	0.055695	0.762155
C47	C	0.640355	-0.444326	0.262133
C48	C	1.140355	0.055674	0.762133
C49	C	0.438489	-0.503905	0.245761
C50	C	0.938489	-0.003905	0.745761
C51	C	0.373056	-0.503892	0.245782
C52	C	0.873056	-0.003892	0.745782
C53	C	0.340394	-0.512410	0.302236
C54	C	0.840394	-0.012410	0.802236
C55	C	0.373173	-0.520963	0.358670
C56	C	0.873173	-0.020963	0.858670
C57	C	0.438608	-0.520984	0.358648
C58	C	0.938608	-0.020984	0.858648
C59	C	0.471262	-0.512449	0.302187
C60	C	0.971262	-0.012449	0.802187
C61	C	0.236743	-0.580546	0.342278
C62	C	0.736743	-0.080546	0.842278
C63	C	0.171307	-0.580513	0.342307
C64	C	0.671307	-0.080513	0.842307
C65	C	0.171280	-0.444168	0.262298
C66	C	0.671280	0.055832	0.762298
C67	C	0.236715	-0.444196	0.262275
C68	C	0.736715	0.055804	0.762275
C69	C	0.269443	-0.512391	0.302264
C70	C	0.769443	-0.012391	0.802264
C71	C	0.905471	-0.788955	0.302205
C72	C	1.405471	-0.288955	0.802205
C73	C	0.905511	-0.907261	0.302223
C74	C	1.405511	-0.407261	0.802223
C75	C	0.863661	-0.976561	0.344034
C76	C	1.363661	-0.476561	0.844034
C77	C	0.848392	-1.047409	0.286856
C78	C	1.348392	-0.547409	0.786856
C79	C	0.920837	-1.047212	0.359410
C80	C	1.420837	-0.547212	0.859410
C81	C	0.890211	-0.976550	0.245015
C82	C	1.390211	-0.476550	0.745015
C83	C	0.962683	-0.976347	0.317608
C84	C	1.462683	-0.476347	0.817608
C85	C	0.947436	-1.047163	0.260391
C86	C	1.447436	-0.547163	0.760391
C87	C	1.068935	-0.512359	0.302284
C88	C	1.568935	-0.012359	0.802284
C89	C	1.138577	-0.512335	0.302315
C90	C	1.638577	-0.012335	0.802315
C91	C	0.905564	-0.512393	0.465634
C92	C	1.405564	-0.012393	0.965634
C93	C	0.905586	-0.512384	0.535275
C94	C	1.405586	-0.012384	1.035275
C95	C	0.905570	-0.234793	0.302231
C96	C	1.405570	0.265207	0.802231
C97	C	0.905595	-0.116488	0.302239
C98	C	1.405595	0.383512	0.802239
C99	C	0.905496	-0.512359	0.139423
C100	C	1.405496	-0.012359	0.639423
C101	C	0.905596	-0.512068	0.069782
C102	C	1.405596	-0.012068	0.569782
C103	C	0.945672	-0.444291	0.568012
C104	C	1.445672	0.055709	1.068012
C105	C	0.945671	-0.444245	0.633448
C106	C	1.445671	0.055755	1.133448
C107	C	0.905591	-0.512311	0.666144
C108	C	1.405591	-0.012311	1.166144
C109	C	0.865497	-0.580408	0.633399
C110	C	1.365497	-0.080408	1.133399
C111	C	0.865495	-0.580445	0.567965
C112	C	1.365495	-0.080445	1.067965
C113	C	0.900630	-0.608151	0.769815
C114	C	1.400630	-0.108151	1.269815
C115	C	0.900636	-0.608116	0.835248
C116	C	1.400636	-0.108116	1.335248
C117	C	0.905595	-0.512199	0.867965
C118	C	1.405595	-0.012199	1.367965
C119	C	0.910560	-0.416312	0.835241
C120	C	1.410560	0.083688	1.335241
C121	C	0.910557	-0.416349	0.769806
C122	C	1.410557	0.083651	1.269806
C123	C	0.905589	-0.512279	0.737096
C124	C	1.405589	-0.012279	1.237096
C125	C	0.945682	-0.444051	0.971654
C126	C	1.445682	0.055949	1.471654
C127	C	0.945677	-0.444003	1.037091
C128	C	1.445677	0.055997	1.537091
C129	C	0.865506	-0.580176	1.037041
C130	C	1.365506	-0.080176	1.537041
C131	C	0.865508	-0.580214	0.971605
C132	C	1.365508	-0.080214	1.471605
C133	C	0.905599	-0.512153	0.938916
C134	C	1.405599	-0.012153	1.438916
H135	H	0.667028	-0.636209	0.374694
H136	H	1.167028	-0.136209	0.874694
H137	H	0.832870	-0.635669	0.944951
H138	H	1.332870	-0.135669	1.444951
C139	C	0.676328	-0.369351	0.218121
C140	C	1.176328	0.130649	0.718121
H141	H	0.719985	-0.379125	0.223837
H142	H	1.219985	0.120875	0.723837
H143	H	0.665550	-0.384813	0.176011
H144	H	1.165550	0.115187	0.676011
H145	H	0.665648	-0.297852	0.227371
H146	H	1.165648	0.202148	0.727371
C147	C	0.538919	-0.369311	0.218165
C148	C	1.038919	0.130689	0.718165
H149	H	0.567767	-0.328712	0.194336
H150	H	1.067767	0.171288	0.694336
H151	H	0.513345	-0.409947	0.190833
H152	H	1.013345	0.090053	0.690833
H153	H	0.513440	-0.322985	0.242192
H154	H	1.013440	0.177015	0.742192
C155	C	0.538974	-0.655573	0.386206
C156	C	1.038974	-0.155573	0.886206
H157	H	0.567837	-0.696173	0.410027
H158	H	1.067837	-0.196173	0.910027
H159	H	0.513514	-0.614861	0.413542
H160	H	1.013514	-0.114861	0.913542
H161	H	0.513383	-0.701902	0.362229
H162	H	1.013383	-0.201902	0.862229
H163	H	0.800081	-1.078645	0.273857
H164	H	1.300081	-0.578645	0.773857
H165	H	0.877226	-0.945639	0.196646
H166	H	1.377226	-0.445639	0.696646
H167	H	1.010983	-0.945114	0.330634
H168	H	1.510983	-0.445114	0.830634
H169	H	0.982863	-1.077968	0.224999
H170	H	1.482863	-0.577968	0.724999
C171	C	0.938307	-1.089141	0.424732
C172	C	1.438307	-0.589141	0.924732
H173	H	0.908501	-1.064955	0.454379
H174	H	1.408501	-0.564955	0.954379
H175	H	0.938588	-1.164558	0.424180
H176	H	1.438588	-0.664558	0.924180
H177	H	0.978606	-1.063754	0.435942
H178	H	1.478606	-0.563754	0.935942
C179	C	0.821415	-0.655045	1.072995
C180	C	1.321415	-0.155045	1.572995
H181	H	0.797539	-0.695603	1.044124
H182	H	1.297539	-0.195603	1.544124
H183	H	0.845371	-0.701399	1.098545
H184	H	1.345371	-0.201399	1.598545
H185	H	0.794122	-0.614314	1.098495
H186	H	1.294122	-0.114314	1.598495
H187	H	0.144685	-0.636015	0.374891
H188	H	0.644685	-0.136015	0.874891
C189	C	0.821413	-0.655284	0.669362
C190	C	1.321413	-0.155284	1.169362
H191	H	0.827161	-0.645519	0.713021
H192	H	1.327161	-0.145519	1.213021
H193	H	0.779318	-0.639730	0.658609
H194	H	1.279318	-0.139730	1.158609
H195	H	0.830573	-0.726804	0.658648
H196	H	1.330573	-0.226804	1.158648
H197	H	0.465294	-0.527945	0.404598
H198	H	0.965294	-0.027945	0.904598
C199	C	0.989766	-0.369419	0.532058
C200	C	1.489766	0.130581	1.032058
H201	H	1.013636	-0.328852	0.560930
H202	H	1.513636	0.171148	1.060930
H203	H	1.017055	-0.410136	0.506553
H204	H	1.517055	0.089864	1.006553
H205	H	0.965803	-0.323057	0.506513
H206	H	1.465803	0.176943	1.006513
C207	C	0.989772	-0.369349	0.669466
C208	C	1.489772	0.130651	1.169466
H209	H	1.013651	-0.328826	0.640626
H210	H	1.513651	0.171174	1.140626
H211	H	0.965821	-0.322964	0.694975
H212	H	1.465821	0.177036	1.194975
H213	H	1.017063	-0.410061	0.695011
H214	H	1.517063	0.089939	1.195011
H215	H	0.914598	-0.338275	0.743165
H216	H	1.414598	0.161725	1.243165
C217	C	0.916422	-0.310860	0.871220
C218	C	1.416422	0.189140	1.371220
H219	H	0.915829	-0.324585	0.914876
H220	H	1.415829	0.175415	1.414876
H221	H	0.954672	-0.277286	0.860370
H222	H	1.454672	0.222714	1.360370
H223	H	0.882492	-0.265679	0.860617
H224	H	1.382492	0.234321	1.360617
H225	H	0.263338	-0.388697	0.229692
H226	H	0.763338	0.111303	0.729692
C227	C	0.337255	-0.530330	0.420773
C228	C	0.837255	-0.030330	0.920773
H229	H	0.293590	-0.529080	0.412707
H230	H	0.793590	-0.029080	0.912707
H231	H	0.347970	-0.595180	0.440741
H232	H	0.847970	-0.095180	0.940741
H233	H	0.348037	-0.472491	0.447179
H234	H	0.848037	0.027509	0.947179
H235	H	0.978323	-0.388625	0.945037
H236	H	1.478323	0.111375	1.445037
H237	H	0.978319	-0.388548	1.063744
H238	H	1.478319	0.111452	1.563744
H239	H	0.896598	-0.686193	0.861887
H240	H	1.396598	-0.186193	1.361887
C241	C	0.272747	-0.655544	0.386270
C242	C	0.772747	-0.155544	0.886270
H243	H	0.243898	-0.696124	0.410109
H244	H	0.743898	-0.196124	0.910109
H245	H	0.298225	-0.701871	0.362249
H246	H	0.798225	-0.201871	0.862249
H247	H	0.298321	-0.614896	0.413601
H248	H	0.798321	-0.114896	0.913601
H249	H	0.346372	-0.496933	0.199830
H250	H	0.846372	0.003067	0.699830
C251	C	0.895038	-0.713647	0.733832
C252	C	1.395038	-0.213647	1.233832
H253	H	0.892050	-0.770740	0.762691
H254	H	1.392050	-0.270740	1.262691
H255	H	0.858686	-0.712138	0.708330
H256	H	1.358686	-0.212138	1.208330
H257	H	0.930899	-0.723145	0.708283
H258	H	1.430899	-0.223145	1.208283
H259	H	0.832849	-0.635892	0.541311
H260	H	1.332849	-0.135892	1.041311
C261	C	0.815773	-0.934672	0.391731
C262	C	1.315773	-0.434672	0.891731
H263	H	0.836652	-0.893108	0.422374
H264	H	1.336652	-0.393108	0.922374
H265	H	0.785612	-0.892205	0.370836
H266	H	1.285612	-0.392205	0.870836
H267	H	0.795516	-0.992868	0.411418
H268	H	1.295516	-0.492868	0.911418
C269	C	0.135279	-0.369163	0.218316
C270	C	0.635279	0.130837	0.718316
H271	H	0.091625	-0.378911	0.224058
H272	H	0.591625	0.121089	0.724058
H273	H	0.146050	-0.297679	0.227558
H274	H	0.646050	0.202321	0.727558
H275	H	0.145945	-0.384634	0.176194
H276	H	0.645945	0.115366	0.676194
H277	H	0.465077	-0.496964	0.199786
H278	H	0.965077	0.003036	0.699786
