data_functionalizedCrystal
_audit_creation_method	'MofGen! by Chris Wilmer'
_symmetry_space_group_name_H-M	'P1'
_symmetry_Int_Tables_number	1
_symmetry_cell_setting	triclinic
loop_
_symmetry_equiv_pos_as_xyz
  x,y,z
_cell_length_a	14.908183
_cell_length_b	18.101398
_cell_length_c	14.908308
_cell_angle_alpha	86.717290
_cell_angle_beta	89.779152
_cell_angle_gamma	86.686603
loop_
_atom_site_label
_atom_site_type_symbol
_atom_site_fract_x
_atom_site_fract_y
_atom_site_fract_z
Zn1	Zn	-0.387346	-1.090733	-0.487620
Zn2	Zn	-0.529056	-1.091479	-0.328583
Zn3	Zn	-0.378703	-0.974425	-0.337289
Zn4	Zn	-0.537669	-0.960163	-0.478907
O5	O	-0.458193	-1.029200	-0.408100
O6	O	-0.406157	-1.194465	-0.466526
O7	O	-0.501889	-1.082233	-0.203913
O8	O	-0.254015	-0.995510	-0.364521
O9	O	-0.510271	-1.195013	-0.349682
O10	O	-0.260366	-1.080961	-0.474969
O11	O	-0.391425	-0.996233	-0.210309
O12	O	-0.399777	-0.868901	-0.356072
O13	O	-0.524950	-0.971202	-0.605887
O14	O	-0.516568	-0.858422	-0.460118
O15	O	-0.414509	-1.067132	-0.612289
O16	O	-0.656032	-1.068403	-0.341233
O17	O	-0.662360	-0.971926	-0.451676
C18	C	-0.458170	-0.836791	-0.408095
C19	C	-0.458183	-0.754475	-0.408113
C20	C	-0.458201	-0.603766	-0.408110
C21	C	-0.531784	-0.565845	-0.473459
C22	C	-0.532055	-0.480225	-0.473237
C23	C	-0.458219	-0.455383	-0.408109
C24	C	-0.478036	-0.490066	-0.311776
C25	C	-0.478554	-0.575669	-0.312149
C26	C	-0.364580	-0.575233	-0.438276
C27	C	-0.365222	-0.489455	-0.440335
C28	C	-0.458227	-0.371523	-0.408103
C29	C	-0.458194	-0.687626	-0.408110
C30	C	-0.691825	-1.018717	-0.394584
C31	C	-0.791775	-1.014298	-0.388832
C32	C	-0.929416	-0.963622	-0.323173
C33	C	-0.835504	-0.967771	-0.328576
C34	C	-0.841965	-1.056678	-0.443691
C35	C	-0.935877	-1.052530	-0.438288
C36	C	-0.979599	-1.006001	-0.378026
C37	C	-1.073513	-1.001856	-0.372620
C38	C	-1.079972	-1.090759	-0.487738
C39	C	-0.986060	-1.094908	-0.493141
C40	C	-0.223651	-1.039743	-0.421688
C41	C	-0.123703	-1.044236	-0.427479
C42	C	-0.471654	-1.017493	-0.642626
C43	C	-0.477390	-1.012504	-0.742566
C44	C	-0.458220	-0.222360	-0.408105
C45	C	-0.458237	-0.304674	-0.408106
C46	C	-0.373146	-1.103020	-0.937035
C47	C	-0.378532	-1.098335	-1.030939
C48	C	-0.493545	-0.998446	-1.024279
C49	C	-0.488158	-1.003131	-0.930376
C50	C	-0.427958	-1.055421	-0.886757
C51	C	-0.422576	-1.060109	-0.792851
C52	C	-0.537583	-0.960217	-0.786194
C53	C	-0.542970	-0.955532	-0.880097
C54	C	-0.444720	-1.040907	-0.174490
C55	C	-0.438731	-1.046051	-0.074564
H56	H	-0.307944	-0.472846	-0.396687
O57	O	-0.408904	-0.469541	-0.245188
H58	H	-0.410412	-0.408329	-0.242521
O59	O	-1.134099	-1.136467	-0.546912
H60	H	-1.174559	-1.174287	-0.504248
O61	O	-0.976570	-0.913446	-0.258168
H62	H	-1.016706	-0.947024	-0.209995
H63	H	-0.333896	-1.137094	-1.071872
H64	H	-0.545519	-0.466595	-0.286596
O65	O	-0.308230	-1.159423	-0.889981
H66	H	-0.260026	-1.130472	-0.849838
O67	O	-0.357646	-1.116505	-0.745807
H68	H	-0.395441	-1.154517	-0.700703
H69	H	-0.806354	-1.094555	-0.492760
H70	H	-0.350172	-0.466512	-0.511258
H71	H	-0.591982	-0.912958	-0.915625
O72	O	-0.339170	-0.600726	-0.530136
H73	H	-0.330777	-0.551700	-0.576974
O74	O	-0.558457	-0.942040	-1.071332
H75	H	-0.552988	-0.946780	-1.145076
O76	O	-0.596706	-0.908869	-0.731968
H77	H	-0.582845	-0.920906	-0.659342
H78	H	-0.520335	-0.456406	-0.544483
O79	O	-0.781378	-0.922070	-0.269401
H80	H	-0.800343	-0.862371	-0.283713
O81	O	-0.516530	-0.589387	-0.568114
H82	H	-0.456344	-0.628372	-0.569598
H83	H	-0.309829	-0.600346	-0.390751
H84	H	-0.600879	-0.585031	-0.453241
H85	H	-0.601543	-0.457392	-0.452798
H86	H	-0.426956	-0.601244	-0.261493
O87	O	-0.568971	-0.599388	-0.279216
H88	H	-0.611917	-0.549730	-0.263178
H89	H	-1.109110	-0.963971	-0.323550
O90	O	-0.938902	-1.145097	-0.558130
H91	H	-0.865167	-1.140868	-0.552667
