data_functionalizedCrystal
_audit_creation_method	'MofGen! by Chris Wilmer'
_symmetry_space_group_name_H-M	'P1'
_symmetry_Int_Tables_number	1
_symmetry_cell_setting	triclinic
loop_
_symmetry_equiv_pos_as_xyz
  x,y,z
_cell_length_a	33.428889
_cell_length_b	33.428139
_cell_length_c	33.424847
_cell_angle_alpha	60.004234
_cell_angle_beta	60.008465
_cell_angle_gamma	59.994972
loop_
_atom_site_label
_atom_site_type_symbol
_atom_site_fract_x
_atom_site_fract_y
_atom_site_fract_z
O1	O	0.055565	-0.584504	0.488714
O2	O	0.020982	-0.455083	0.393778
O3	O	0.102943	-0.536959	0.393689
O4	O	-0.026396	-0.502628	0.488803
O5	O	0.130140	-0.509767	0.420792
O6	O	0.048179	-0.427891	0.420881
O7	O	0.082762	-0.557312	0.515817
Cu8	Cu	0.067954	-0.490119	0.470823
Cu9	Cu	0.035790	-0.522276	0.438771
O10	O	0.000801	-0.475436	0.515906
N11	N	0.090577	-0.467504	0.493370
N12	N	0.013171	-0.544895	0.416225
C13	C	0.143377	-0.280390	0.546067
C14	C	0.143515	-0.414755	0.680369
C15	C	0.143392	-0.414735	0.546069
C16	C	0.277766	-0.414702	0.545966
C17	C	0.158177	-0.324719	0.560828
C18	C	0.158255	-0.399967	0.636038
C19	C	0.233434	-0.399936	0.560773
C20	C	0.158186	-0.399955	0.560829
C21	C	0.124540	-0.223964	0.527278
C22	C	0.124565	-0.433545	0.527281
C23	C	0.177014	-0.381145	0.579617
C24	C	0.359814	-0.400540	0.502735
C25	C	0.411105	-0.417624	0.485606
C26	C	0.411136	-0.500620	0.517255
C27	C	0.359845	-0.483534	0.534385
C28	C	0.136887	-0.198305	0.476855
C29	C	0.119761	-0.147011	0.459777
C30	C	0.077945	-0.147038	0.543547
C31	C	0.095072	-0.198332	0.560625
C32	C	0.074134	-0.421169	0.539710
C33	C	0.057023	-0.438269	0.522625
C34	C	0.140770	-0.480120	0.480694
C35	C	0.157883	-0.463020	0.497773
C36	C	0.074339	-0.421208	0.762475
C37	C	0.057288	-0.438323	0.813768
C38	C	0.141075	-0.480183	0.813699
C39	C	0.158125	-0.463069	0.762404
C40	C	0.124756	-0.433580	0.736794
C41	C	0.334186	-0.433494	0.527123
C42	C	-0.173769	-0.597444	0.363037
C43	C	-0.039302	-0.597595	0.228856
C44	C	-0.039496	-0.597587	0.363300
C45	C	-0.039512	-0.731889	0.363237
C46	C	-0.129442	-0.612265	0.348329
C47	C	-0.054138	-0.612351	0.273187
C48	C	-0.054257	-0.687554	0.348440
C49	C	-0.054247	-0.612346	0.348477
C50	C	-0.230191	-0.578579	0.381758
C51	C	-0.020722	-0.578803	0.382168
C52	C	-0.073020	-0.631130	0.329609
C53	C	-0.053713	-0.813916	0.406386
C54	C	-0.036654	-0.865210	0.423504
C55	C	0.046338	-0.865293	0.391984
C56	C	0.029278	-0.813999	0.374865
C57	C	-0.255900	-0.590938	0.432169
C58	C	-0.307191	-0.573786	0.449185
C59	C	-0.307060	-0.531922	0.365377
C60	C	-0.255769	-0.549074	0.348360
C61	C	-0.033081	-0.528377	0.369764
C62	C	-0.016014	-0.511306	0.386922
C63	C	0.025770	-0.595083	0.428877
C64	C	0.008703	-0.612156	0.411725
C65	C	-0.032755	-0.528393	0.146761
C66	C	-0.015585	-0.511324	0.095468
C67	C	0.026262	-0.595106	0.095516
C68	C	0.009094	-0.612174	0.146811
C69	C	-0.020417	-0.578816	0.172432
C70	C	-0.020748	-0.788312	0.382068
N71	N	0.436037	-0.467415	0.493101
O72	O	0.592642	-0.471896	0.376066
O73	O	0.592838	-0.567146	0.505347
O74	O	0.592754	-0.566928	0.423360
O75	O	0.592727	-0.472113	0.458053
O76	O	0.511269	-0.539835	0.450606
O77	O	0.511353	-0.540052	0.532594
O78	O	0.511157	-0.444802	0.403312
Cu79	Cu	0.503815	-0.489954	0.470441
Cu80	Cu	0.600180	-0.521995	0.438219
O81	O	0.511242	-0.445020	0.485300
N82	N	0.667959	-0.544533	0.415554
N83	N	0.090544	-0.122107	0.493359
O84	O	-0.026406	0.034587	0.488773
O85	O	0.102877	0.034627	0.393499
O86	O	0.020848	0.034591	0.393771
O87	O	0.055623	0.034623	0.488500
O88	O	0.048051	-0.046899	0.420925
O89	O	0.130080	-0.046864	0.420653
O90	O	0.000796	-0.046903	0.515927
Cu91	Cu	0.067922	-0.054324	0.470769
Cu92	Cu	0.035752	0.042048	0.438656
O93	O	0.082825	-0.046867	0.515655
N94	N	0.013123	0.109830	0.416068
N95	N	0.090892	-0.467554	0.838649
O96	O	0.086330	-0.584488	0.995334
O97	O	-0.008902	-0.455160	0.995379
O98	O	-0.008679	-0.537172	0.995355
O99	O	0.086107	-0.502475	0.995358
O100	O	0.018452	-0.509990	0.913868
O101	O	0.018230	-0.427978	0.913891
O102	O	0.113461	-0.557306	0.913847
Cu103	Cu	0.068323	-0.490160	0.906429
Cu104	Cu	0.036237	-0.522306	1.002797
O105	O	0.113239	-0.475293	0.913870
N106	N	0.013667	-0.544916	1.070577
C107	C	0.031339	-0.425179	0.394250
C108	C	0.132837	-0.526572	0.394139
C109	C	0.072405	-0.587216	0.515344
C110	C	-0.029093	-0.485823	0.515455
C111	C	0.552119	-0.566716	0.535258
C112	C	0.552016	-0.566447	0.433726
C113	C	0.551873	-0.445232	0.373402
C114	C	0.551980	-0.445502	0.474933
C115	C	0.132731	-0.006013	0.393923
C116	C	0.031182	-0.006158	0.394293
C117	C	-0.029092	-0.006163	0.515469
C118	C	0.072491	-0.006119	0.515133
C119	C	-0.008451	-0.425276	0.954641
C120	C	-0.008170	-0.526833	0.954596
C121	C	0.113010	-0.587190	0.954585
C122	C	0.112735	-0.485627	0.954611
H123	H	0.047163	-0.397193	0.741627
H124	H	0.552029	-0.596233	0.426301
H125	H	0.079796	-0.624394	0.545162
H126	H	-0.038348	-0.388133	0.954654
C127	C	-0.079244	-0.006170	0.597753
C128	C	-0.079212	-0.006177	0.555849
H129	H	-0.110185	-0.006182	0.622682
H130	H	-0.073274	0.022253	0.590032
H131	H	-0.054298	-0.034582	0.608969
H132	H	-0.104156	0.022237	0.544631
H133	H	-0.085187	-0.034603	0.563570
C134	C	0.164150	-0.436205	0.912718
C135	C	0.152939	-0.475607	0.954602
H136	H	0.188973	-0.430022	0.912711
H137	H	0.135633	-0.407892	0.912734
H138	H	0.175456	-0.443984	0.884301
H139	H	0.141630	-0.467826	0.983019
H140	H	0.181463	-0.503926	0.954590
C141	C	0.130365	-0.006109	0.537640
C142	C	0.082545	-0.006121	0.555316
H143	H	0.136573	-0.006115	0.562450
H144	H	0.133992	0.022314	0.509784
H145	H	0.152962	-0.034522	0.528706
H146	H	0.059948	0.022294	0.564247
H147	H	0.078914	-0.034546	0.583182
C148	C	0.176653	-0.531014	0.312793
C149	C	0.182983	-0.536445	0.353817
H150	H	0.207612	-0.537112	0.287902
H151	H	0.156094	-0.498589	0.300922
H152	H	0.161967	-0.553663	0.321734
H153	H	0.197665	-0.513793	0.344877
H154	H	0.203550	-0.568874	0.365689
H155	H	0.016234	-0.428240	0.834672
H156	H	0.056124	-0.793157	0.355062
H157	H	-0.066242	-0.478508	0.545321
C158	C	0.009704	-0.048090	0.370826
C159	C	0.021145	-0.006183	0.354113
H160	H	0.003514	-0.048110	0.346018
H161	H	-0.018602	-0.048089	0.399341
H162	H	0.036445	-0.076494	0.378444
H163	H	-0.005598	0.022221	0.346497
H164	H	0.049454	-0.006179	0.325589
H165	H	-0.037935	-0.534246	0.954563
C166	C	0.552213	-0.589636	0.615715
C167	C	0.552194	-0.607086	0.585381
H168	H	0.552262	-0.614561	0.646657
H169	H	0.523782	-0.561812	0.620032
H170	H	0.580613	-0.580707	0.601029
H171	H	0.523791	-0.616012	0.600065
H172	H	0.580628	-0.634919	0.581065
C173	C	0.135931	-0.667670	0.954558
C174	C	0.153375	-0.637329	0.954566
H175	H	0.160850	-0.698625	0.954549
H176	H	0.127020	-0.653006	0.926147
H177	H	0.108096	-0.671963	0.982980
H178	H	0.181207	-0.633033	0.926142
H179	H	0.162292	-0.651996	0.982980
H180	H	0.168250	-0.504186	0.834549
C181	C	0.127736	-0.881165	0.333804
C182	C	0.101327	-0.893530	0.384068
H183	H	0.161684	-0.898602	0.328918
H184	H	0.122295	-0.846957	0.320133
H185	H	0.117145	-0.889561	0.318273
H186	H	0.111916	-0.885131	0.399599
H187	H	0.106772	-0.927746	0.397745
H188	H	0.199181	-0.473148	0.741498
H189	H	0.015959	-0.428182	0.532734
C190	C	-0.010368	-0.381510	0.579433
C191	C	0.037510	-0.388765	0.572139
H192	H	-0.032977	-0.361502	0.599451
H193	H	-0.015279	-0.412255	0.595094
H194	H	-0.015318	-0.365844	0.548697
H195	H	0.042462	-0.404434	0.602874
H196	H	0.042424	-0.358015	0.556478
C197	C	0.551771	-0.422308	0.292948
C198	C	0.551791	-0.404858	0.323282
H199	H	0.551722	-0.397384	0.262006
H200	H	0.523375	-0.431238	0.307633
H201	H	0.580207	-0.450134	0.288629
H202	H	0.523354	-0.377034	0.327604
H203	H	0.580190	-0.395922	0.308594
C204	C	0.593883	-0.421956	0.496367
C205	C	0.551967	-0.405292	0.484952
H206	H	0.593873	-0.397133	0.502556
H207	H	0.622274	-0.429551	0.469620
H208	H	0.593926	-0.450482	0.524675
H209	H	0.551926	-0.376768	0.456642
H210	H	0.523569	-0.397690	0.511702
C211	C	0.225275	-0.519773	0.440962
C212	C	0.177397	-0.512523	0.448260
H213	H	0.247884	-0.539774	0.420936
H214	H	0.230230	-0.535440	0.471691
H215	H	0.230182	-0.489022	0.425301
H216	H	0.172489	-0.543274	0.463924
H217	H	0.172440	-0.496857	0.417525
C218	C	0.225673	-0.433848	0.458462
C219	C	0.213317	-0.476618	0.484114
H220	H	0.259895	-0.442244	0.450028
H221	H	0.208278	-0.413853	0.478482
H222	H	0.217230	-0.416447	0.429476
H223	H	0.221756	-0.494017	0.513102
H224	H	0.230717	-0.496621	0.464093
C225	C	0.219680	-0.047479	0.369805
C226	C	0.182750	-0.005692	0.353446
H227	H	0.250560	-0.047279	0.344818
H228	H	0.213866	-0.075960	0.377427
H229	H	0.219664	-0.047532	0.398260
H230	H	0.182765	-0.005641	0.324993
H231	H	0.188566	0.022797	0.345818
C232	C	0.365036	-0.567289	0.563943
C233	C	0.331677	-0.519761	0.561192
H234	H	0.347645	-0.589653	0.580490
H235	H	0.385061	-0.575864	0.581401
H236	H	0.385019	-0.568583	0.531801
H237	H	0.311696	-0.518465	0.593334
H238	H	0.311644	-0.511183	0.543735
H239	H	0.432025	-0.541365	0.523165
C240	C	0.063128	-0.374792	0.311987
C241	C	0.021367	-0.374992	0.353993
H242	H	0.056972	-0.343807	0.287136
H243	H	0.070881	-0.399693	0.300716
H244	H	0.089852	-0.380733	0.319621
H245	H	-0.005356	-0.369054	0.346360
H246	H	0.013608	-0.350083	0.365266
C247	C	0.405927	-0.333869	0.456033
C248	C	0.439280	-0.381401	0.458793
H249	H	0.423323	-0.311507	0.439474
H250	H	0.385948	-0.332565	0.488167
H251	H	0.385897	-0.325297	0.438577
H252	H	0.459308	-0.389974	0.476252
H253	H	0.459268	-0.382706	0.426652
H254	H	0.160882	-0.219171	0.449698
C255	C	0.281174	-0.337492	0.514934
C256	C	0.331607	-0.345533	0.494753
H257	H	0.263763	-0.303533	0.510002
H258	H	0.272798	-0.355376	0.549038
H259	H	0.272759	-0.348106	0.499441
H260	H	0.340023	-0.334922	0.510249
H261	H	0.339987	-0.327642	0.460643
C262	C	0.115918	-0.131204	0.383142
C263	C	0.133328	-0.118801	0.404349
H264	H	0.124296	-0.113791	0.348923
H265	H	0.081319	-0.122810	0.397572
H266	H	0.130340	-0.165422	0.388544
H267	H	0.118904	-0.084583	0.398950
H268	H	0.167935	-0.127191	0.389914
C269	C	0.038342	-0.152217	0.628068
C270	C	0.045557	-0.118861	0.580202
H271	H	0.018343	-0.134821	0.650697
H272	H	0.069098	-0.172213	0.632966
H273	H	0.022684	-0.172233	0.633006
H274	H	0.061218	-0.098847	0.575263
H275	H	0.014795	-0.098857	0.575303
H276	H	0.085016	-0.219221	0.601683
H277	H	-0.056788	-0.501226	0.167618
C278	C	-0.058692	-0.430226	0.100579
C279	C	-0.029160	-0.455895	0.067255
H280	H	-0.067073	-0.396006	0.083161
H281	H	-0.041329	-0.438646	0.120630
H282	H	-0.087706	-0.438611	0.120542
H283	H	-0.000145	-0.447513	0.047295
H284	H	-0.046523	-0.447471	0.047196
H285	H	0.050281	-0.622271	0.074658
H286	H	0.019144	-0.653235	0.167709
H287	H	-0.057039	-0.501216	0.345698
H288	H	-0.026079	-0.470245	0.376824
H289	H	0.018765	-0.653217	0.421828
C290	C	0.100881	-0.661277	0.435754
C291	C	0.058120	-0.631749	0.461363
H292	H	0.120850	-0.683913	0.455811
H293	H	0.118314	-0.641291	0.406776
H294	H	0.092479	-0.678658	0.427314
H295	H	0.066522	-0.614365	0.469799
H296	H	0.040684	-0.651738	0.490349
C297	C	-0.096735	-0.880944	0.419061
C298	C	-0.072889	-0.893358	0.450236
H299	H	-0.119106	-0.898321	0.435569
H300	H	-0.073223	-0.889374	0.390579
H301	H	-0.114055	-0.846719	0.409900
H302	H	-0.055566	-0.927584	0.459395
H303	H	-0.096405	-0.884931	0.478727
C304	C	-0.116721	-0.735248	0.394145
C305	C	-0.108704	-0.785678	0.414301
H306	H	-0.150670	-0.717818	0.399037
H307	H	-0.098803	-0.726864	0.360050
H308	H	-0.106134	-0.726860	0.409686
H309	H	-0.119288	-0.794067	0.398758
H310	H	-0.126629	-0.794066	0.448403
C311	C	-0.240235	-0.666087	0.498357
C312	C	-0.227787	-0.623369	0.468882
H313	H	-0.222881	-0.686107	0.521024
H314	H	-0.231805	-0.683491	0.478341
H315	H	-0.274463	-0.657632	0.515702
H316	H	-0.193560	-0.631823	0.451535
H317	H	-0.236215	-0.605962	0.488900
C318	C	-0.301780	-0.492274	0.280824
C319	C	-0.335179	-0.499493	0.328667
H320	H	-0.319139	-0.472250	0.258162
H321	H	-0.281785	-0.523028	0.275923
H322	H	-0.281770	-0.476639	0.275940
H323	H	-0.355187	-0.515131	0.333552
H324	H	-0.355183	-0.468733	0.333570
C325	C	-0.198021	-0.578263	0.280585
C326	C	-0.227510	-0.535490	0.292947
H327	H	-0.180573	-0.569874	0.246374
H328	H	-0.218037	-0.595631	0.288952
H329	H	-0.175446	-0.598287	0.298040
H330	H	-0.250087	-0.515468	0.275495
H331	H	-0.207492	-0.518114	0.284575
C332	C	-0.364937	-0.544601	0.516965
C333	C	-0.335451	-0.587372	0.504601
H334	H	-0.382378	-0.552990	0.551177
H335	H	-0.387513	-0.524578	0.499517
H336	H	-0.344915	-0.527231	0.508592
H337	H	-0.355473	-0.604740	0.512970
H338	H	-0.312873	-0.607403	0.522055
