data_functionalizedCrystal
_audit_creation_method	'MofGen! by Chris Wilmer'
_symmetry_space_group_name_H-M	'P1'
_symmetry_Int_Tables_number	1
_symmetry_cell_setting	triclinic
loop_
_symmetry_equiv_pos_as_xyz
  x,y,z
_cell_length_a	14.971482
_cell_length_b	19.188924
_cell_length_c	13.448316
_cell_angle_alpha	89.991325
_cell_angle_beta	89.993798
_cell_angle_gamma	83.377286
loop_
_atom_site_label
_atom_site_type_symbol
_atom_site_fract_x
_atom_site_fract_y
_atom_site_fract_z
O1	O	1.186466	0.090976	-0.082684
O2	O	1.686466	0.590976	0.417316
O3	O	0.926007	0.101875	-0.082689
O4	O	1.426007	0.601875	0.417311
O5	O	1.063756	-0.005207	-0.082674
O6	O	1.563756	0.494793	0.417326
O7	O	1.048717	0.198057	-0.082698
O8	O	1.548717	0.698057	0.417302
O9	O	1.063739	-0.005213	0.082709
O10	O	1.563739	0.494787	0.582709
O11	O	0.925990	0.101868	0.082695
O12	O	1.425990	0.601868	0.582695
O13	O	1.186449	0.090969	0.082700
O14	O	1.686449	0.590969	0.582700
Cu15	Cu	1.056218	0.096418	0.097798
Cu16	Cu	1.556218	0.596418	0.597798
Cu17	Cu	1.056238	0.096426	-0.097787
Cu18	Cu	1.556238	0.596426	0.402213
O19	O	1.048700	0.198051	0.082686
O20	O	1.548700	0.698051	0.582686
C21	C	0.892677	0.101384	0.000002
C22	C	1.392677	0.601384	0.500002
C23	C	0.793387	0.099925	0.000001
C24	C	1.293387	0.599925	0.500001
C25	C	0.746737	0.099234	0.090153
C26	C	1.246737	0.599234	0.590153
C27	C	0.653446	0.097852	0.090154
C28	C	1.153446	0.597852	0.590154
C29	C	0.606806	0.097166	0.000002
C30	C	1.106806	0.597166	0.500002
C31	C	0.653463	0.097855	-0.090157
C32	C	1.153463	0.597855	0.409843
C33	C	0.746753	0.099232	-0.090157
C34	C	1.246753	0.599232	0.409843
C35	C	0.459016	0.094986	-0.090150
C36	C	0.959016	0.594986	0.409850
C37	C	0.365719	0.093610	-0.090150
C38	C	0.865719	0.593610	0.409850
C39	C	0.365709	0.093606	0.090161
C40	C	0.865709	0.593606	0.590161
C41	C	0.458999	0.094983	0.090161
C42	C	0.958999	0.594983	0.590161
C43	C	0.505650	0.095673	0.000001
C44	C	1.005650	0.595673	0.500001
C45	C	1.063262	-0.031223	0.000018
C46	C	1.563262	0.468777	0.500018
C47	C	1.061803	-0.108732	0.000021
C48	C	1.561803	0.391268	0.500021
C49	C	1.061131	-0.145129	-0.090130
C50	C	1.561131	0.354871	0.409870
C51	C	1.059748	-0.217957	-0.090138
C52	C	1.559748	0.282043	0.409862
C53	C	1.059054	-0.254385	0.000011
C54	C	1.559054	0.245615	0.500011
C55	C	1.059720	-0.217979	0.090174
C56	C	1.559720	0.282021	0.590174
C57	C	1.061095	-0.145152	0.090179
C58	C	1.561095	0.354848	0.590179
N59	N	1.107789	-0.373895	0.067107
N60	N	1.607789	0.126105	0.567107
N61	N	1.106485	-0.443077	0.067096
N62	N	1.606485	0.056923	0.567096
C63	C	1.054911	-0.473808	0.000001
C64	C	1.554911	0.026192	0.500001
N65	N	1.004700	-0.432743	-0.067098
N66	N	1.504700	0.067257	0.432902
N67	N	1.006008	-0.363555	-0.067090
N68	N	1.506008	0.136445	0.432910
C69	C	1.057563	-0.333354	0.000016
C70	C	1.557563	0.166646	0.500016
C71	C	1.052738	-0.589173	-0.090164
C72	C	1.552738	-0.089173	0.409836
C73	C	1.051349	-0.662001	-0.090168
C74	C	1.551349	-0.162001	0.409832
C75	C	1.051330	-0.662022	0.090146
C76	C	1.551330	-0.162022	0.590146
C77	C	1.052711	-0.589195	0.090147
C78	C	1.552711	-0.089195	0.590147
C79	C	1.053418	-0.552775	-0.000011
C80	C	1.553418	-0.052775	0.499989
C81	C	1.219780	0.091460	0.000007
C82	C	1.719780	0.591460	0.500007
C83	C	1.319069	0.092919	0.000002
C84	C	1.819069	0.592919	0.500002
C85	C	1.049195	0.224067	-0.000009
C86	C	1.549195	0.724067	0.499991
C87	C	1.050653	0.301576	-0.000019
C88	C	1.550653	0.801576	0.499981
N89	N	1.056210	0.096412	0.235363
N90	N	1.556210	0.596412	0.735363
N91	N	1.056253	0.096426	-0.235351
N92	N	1.556253	0.596426	0.264649
C93	C	1.117224	0.049016	0.287409
C94	C	1.617224	0.549016	0.787409
C95	C	1.117230	0.049016	0.391513
C96	C	1.617230	0.549016	0.891513
C97	C	1.056225	0.096415	0.443567
C98	C	1.556225	0.596415	0.943567
C99	C	0.995204	0.143813	0.391513
C100	C	1.495204	0.643813	0.891513
C101	C	0.995195	0.143810	0.287412
C102	C	1.495195	0.643810	0.787412
C103	C	0.995229	0.143818	0.608493
C104	C	1.495229	0.643818	1.108493
C105	C	0.995239	0.143822	0.712602
C106	C	1.495239	0.643822	1.212602
C107	C	1.117264	0.049024	0.712594
C108	C	1.617264	0.549024	1.212594
C109	C	1.117254	0.049020	0.608493
C110	C	1.617254	0.549020	1.108493
C111	C	1.056235	0.096420	0.556446
C112	C	1.556235	0.596420	1.056446
H113	H	0.615482	0.097291	-0.163560
H114	H	1.115482	0.597291	0.336440
C115	C	0.798032	0.099989	0.189328
C116	C	1.298032	0.599989	0.689328
N117	N	0.836666	0.100554	0.264031
N118	N	1.336666	0.600554	0.764031
H119	H	0.327748	0.093051	-0.163560
H120	H	0.827748	0.593051	0.336440
H121	H	1.166911	0.010422	0.433889
H122	H	1.666911	0.510422	0.933889
C123	C	1.061839	-0.105114	0.189356
C124	C	1.561839	0.394886	0.689356
N125	N	1.062402	-0.074957	0.264058
N126	N	1.562402	0.425043	0.764058
C127	C	1.058955	-0.258051	0.189337
C128	C	1.558955	0.241949	0.689337
N129	N	1.058375	-0.288234	0.264031
N130	N	1.558375	0.211766	0.764031
H131	H	1.166905	0.010421	0.245033
H132	H	1.666905	0.510421	0.745033
H133	H	1.166933	0.010428	0.566110
H134	H	1.666933	0.510428	1.066110
C135	C	1.061902	-0.105071	-0.189307
C136	C	1.561902	0.394929	0.310693
N137	N	1.062479	-0.074898	-0.264007
N138	N	1.562479	0.425102	0.235993
C139	C	0.510301	0.095739	0.189332
C140	C	1.010301	0.595739	0.689332
N141	N	0.548942	0.096306	0.264029
N142	N	1.048942	0.596306	0.764029
C143	C	1.059004	-0.258001	-0.189315
C144	C	1.559004	0.241999	0.310685
N145	N	1.058442	-0.288161	-0.264015
N146	N	1.558442	0.211839	0.235985
C147	C	1.184383	-0.003119	0.769848
C148	C	1.684383	0.496881	1.269848
N149	N	1.234936	-0.042390	0.812976
N150	N	1.734936	0.457610	1.312976
H151	H	0.945529	0.182404	0.433902
H152	H	1.445529	0.682404	0.933902
C153	C	0.928126	0.195960	0.769860
C154	C	1.428126	0.695960	1.269860
N155	N	0.877574	0.235230	0.812986
N156	N	1.377574	0.735230	1.312986
H157	H	0.945538	0.182413	0.566120
H158	H	1.445538	0.682413	1.066120
C159	C	1.053459	-0.549157	0.189322
C160	C	1.553459	-0.049157	0.689322
N161	N	1.054021	-0.519000	0.264025
N162	N	1.554021	-0.019000	0.764025
C163	C	0.314392	0.092842	0.189337
C164	C	0.814392	0.592842	0.689337
N165	N	0.275736	0.092268	0.264034
N166	N	0.775736	0.592268	0.764034
H167	H	0.945511	0.182404	0.245036
H168	H	1.445511	0.682404	0.745036
H169	H	1.050759	-0.691681	0.163547
H170	H	1.550759	-0.191681	0.663547
C171	C	0.798068	0.099993	-0.189331
C172	C	1.298068	0.599993	0.310669
N173	N	0.836717	0.100565	-0.264032
N174	N	1.336717	0.600565	0.235968
C175	C	0.510329	0.095748	-0.189330
C176	C	1.010329	0.595748	0.310670
N177	N	0.548977	0.096328	-0.264032
N178	N	1.048977	0.596328	0.235968
H179	H	1.050798	-0.691634	-0.163583
H180	H	1.550798	-0.191634	0.336417
C181	C	1.053503	-0.549107	-0.189338
C182	C	1.553503	-0.049107	0.310662
N183	N	1.054077	-0.518931	-0.264038
N184	N	1.554077	-0.018931	0.235962
H185	H	0.615469	0.097278	0.163565
H186	H	1.115469	0.597278	0.663565
