data_functionalizedCrystal
_audit_creation_method	'MofGen! by Chris Wilmer'
_symmetry_space_group_name_H-M	'P1'
_symmetry_Int_Tables_number	1
_symmetry_cell_setting	triclinic
loop_
_symmetry_equiv_pos_as_xyz
  x,y,z
_cell_length_a	14.908571
_cell_length_b	16.959453
_cell_length_c	14.908308
_cell_angle_alpha	93.265363
_cell_angle_beta	90.175053
_cell_angle_gamma	86.716085
loop_
_atom_site_label
_atom_site_type_symbol
_atom_site_fract_x
_atom_site_fract_y
_atom_site_fract_z
Zn1	Zn	1.345300	-0.412495	-0.587567
Zn2	Zn	1.678633	-0.079161	-0.254234
Zn3	Zn	2.011967	0.254172	0.079099
Zn4	Zn	1.353882	-0.537519	-0.437203
Zn5	Zn	1.687215	-0.204185	-0.103870
Zn6	Zn	2.020548	0.129148	0.229464
Zn7	Zn	1.203615	-0.397313	-0.428566
Zn8	Zn	1.536948	-0.063979	-0.095232
Zn9	Zn	1.870282	0.269354	0.238101
Zn10	Zn	1.194909	-0.536580	-0.578855
Zn11	Zn	1.528243	-0.203246	-0.245521
Zn12	Zn	1.861576	0.130087	0.087812
O13	O	1.274426	-0.470976	-0.508048
O14	O	1.607760	-0.137643	-0.174714
O15	O	1.941093	0.195690	0.158619
O16	O	1.472264	-0.435826	-0.574882
O17	O	1.805598	-0.102493	-0.241549
O18	O	2.138931	0.230840	0.091785
O19	O	1.341183	-0.512959	-0.310233
O20	O	1.674517	-0.179626	0.023100
O21	O	2.007850	0.153707	0.356434
O22	O	1.222462	-0.288720	-0.449689
O23	O	1.555795	0.044613	-0.116356
O24	O	1.889128	0.377947	0.216978
O25	O	1.478569	-0.527681	-0.464410
O26	O	1.811903	-0.194347	-0.131077
O27	O	2.145236	0.138986	0.202256
O28	O	1.326557	-0.299874	-0.566507
O29	O	1.659890	0.033459	-0.233173
O30	O	1.993224	0.366793	0.100160
O31	O	1.230783	-0.409951	-0.303887
O32	O	1.564116	-0.076617	0.029446
O33	O	1.897450	0.256716	0.362780
O34	O	1.076634	-0.409040	-0.441241
O35	O	1.409967	-0.075707	-0.107907
O36	O	1.743301	0.257627	0.225426
O37	O	1.207624	-0.526080	-0.705835
O38	O	1.540958	-0.192747	-0.372502
O39	O	1.874291	0.140586	-0.039168
O40	O	1.070238	-0.511359	-0.551658
O41	O	1.403571	-0.178025	-0.218324
O42	O	1.736905	0.155308	0.115009
O43	O	1.318115	-0.434916	-0.712236
O44	O	1.651449	-0.101582	-0.378903
O45	O	1.984782	0.231751	-0.045569
O46	O	1.332742	-0.648001	-0.455962
O47	O	1.666075	-0.314667	-0.122629
O48	O	1.999408	0.018666	0.210705
O49	O	1.215945	-0.647311	-0.560033
O50	O	1.549279	-0.313978	-0.226700
O51	O	1.882612	0.019356	0.106634
C52	C	1.040811	-0.458451	-0.494567
C53	C	1.374144	-0.125117	-0.161234
C54	C	1.707477	0.208216	0.172100
C55	C	0.940868	-0.453112	-0.488821
C56	C	1.274201	-0.119779	-0.155488
C57	C	1.607534	0.213555	0.177845
C58	C	0.746461	-0.549774	-0.592847
C59	C	1.079795	-0.216441	-0.259513
C60	C	1.413128	0.116892	0.073820
C61	C	0.652556	-0.544761	-0.587451
C62	C	0.985889	-0.211428	-0.254118
C63	C	1.319222	0.121906	0.079215
C64	C	0.659149	-0.438068	-0.472640
C65	C	0.992482	-0.104735	-0.139306
C66	C	1.325816	0.228598	0.194027
C67	C	0.753055	-0.443082	-0.478035
C68	C	1.086388	-0.109749	-0.144702
C69	C	1.419721	0.223585	0.188631
C70	C	0.796707	-0.498938	-0.538140
C71	C	1.130041	-0.165604	-0.204807
C72	C	1.463374	0.167729	0.128527
C73	C	0.890615	-0.503954	-0.543530
C74	C	1.223948	-0.170621	-0.210197
C75	C	1.557282	0.162712	0.123136
C76	C	0.897206	-0.397258	-0.428724
C77	C	1.230540	-0.063925	-0.095391
C78	C	1.563873	0.269408	0.237943
C79	C	0.803301	-0.392245	-0.423328
C80	C	1.136634	-0.058912	-0.089995
C81	C	1.469967	0.274422	0.243338
C82	C	1.274353	-0.676337	-0.508010
C83	C	1.607687	-0.343004	-0.174677
C84	C	1.941020	-0.009670	0.158656
C85	C	1.274403	-0.764197	-0.508029
C86	C	1.607736	-0.430864	-0.174696
C87	C	1.941069	-0.097531	0.158637
C88	C	1.328696	-1.141433	-0.568987
C89	C	1.662030	-0.808100	-0.235654
C90	C	1.995363	-0.474767	0.097679
C91	C	1.220400	-1.129936	-0.447256
C92	C	1.553733	-0.796603	-0.113923
C93	C	1.887067	-0.463269	0.219411
C94	C	1.220368	-1.047387	-0.447233
C95	C	1.553701	-0.714054	-0.113900
C96	C	1.887035	-0.380721	0.219433
C97	C	1.274500	-1.011858	-0.508090
C98	C	1.607833	-0.678525	-0.174756
C99	C	1.941166	-0.345191	0.158577
C100	C	1.328664	-1.058877	-0.568969
C101	C	1.661997	-0.725544	-0.235635
C102	C	1.995330	-0.392211	0.097698
C103	C	1.166198	-1.000362	-0.386362
C104	C	1.499532	-0.667029	-0.053028
C105	C	1.832865	-0.333695	0.280305
C106	C	1.166163	-0.917808	-0.386337
C107	C	1.499496	-0.584475	-0.053004
C108	C	1.832830	-0.251141	0.280329
C109	C	1.220300	-0.882277	-0.447190
C110	C	1.553634	-0.548944	-0.113857
C111	C	1.886967	-0.215611	0.219477
C112	C	1.274467	-0.929302	-0.508071
C113	C	1.607801	-0.595969	-0.174737
C114	C	1.941134	-0.262635	0.158596
C115	C	1.328599	-0.893773	-0.568927
C116	C	1.661932	-0.560439	-0.235594
C117	C	1.995266	-0.227106	0.097740
C118	C	1.382771	-0.940796	-0.629804
C119	C	1.716105	-0.607462	-0.296471
C120	C	2.049438	-0.274129	0.036862
C121	C	1.382801	-1.023347	-0.629821
C122	C	1.716134	-0.690013	-0.296488
C123	C	2.049468	-0.356680	0.036845
C124	C	1.220271	-0.799727	-0.447173
C125	C	1.553604	-0.466393	-0.113840
C126	C	1.886938	-0.133060	0.219494
C127	C	1.328567	-0.811216	-0.568908
C128	C	1.661900	-0.477883	-0.235575
C129	C	1.995233	-0.144550	0.097758
C130	C	1.508954	-0.483552	-0.521582
C131	C	1.842288	-0.150218	-0.188248
C132	C	2.175621	0.183115	0.145085
C133	C	1.608896	-0.488911	-0.527349
C134	C	1.942230	-0.155577	-0.194016
C135	C	2.275563	0.177756	0.139318
C136	C	1.260941	-0.482087	-0.742573
C137	C	1.594275	-0.148753	-0.409239
C138	C	1.927608	0.184580	-0.075906
C139	C	1.255195	-0.486821	-0.842513
C140	C	1.588528	-0.153488	-0.509180
C141	C	1.921862	0.179845	-0.175846
C142	C	1.274523	-0.264816	-0.508106
C143	C	1.607857	0.068517	-0.174773
C144	C	1.941190	0.401851	0.158560
C145	C	1.274564	-0.176963	-0.508131
C146	C	1.607898	0.156371	-0.174798
C147	C	1.941231	0.489704	0.158536
C148	C	1.359449	-0.400770	-1.036979
C149	C	1.692782	-0.067436	-0.703646
C150	C	2.026115	0.265897	-0.370312
C151	C	1.354052	-0.405216	-1.130882
C152	C	1.687385	-0.071882	-0.797549
C153	C	2.020719	0.261451	-0.464215
C154	C	1.239001	-0.500154	-1.124224
C155	C	1.572335	-0.166821	-0.790891
C156	C	1.905668	0.166512	-0.457558
C157	C	1.244398	-0.495708	-1.030321
C158	C	1.577731	-0.162375	-0.696988
C159	C	1.911065	0.170958	-0.363654
C160	C	1.304625	-0.446015	-0.986702
C161	C	1.637958	-0.112682	-0.653368
C162	C	1.971291	0.220651	-0.320035
C163	C	1.310025	-0.441574	-0.892797
C164	C	1.643358	-0.108241	-0.559464
C165	C	1.976692	0.225093	-0.226130
C166	C	1.194970	-0.536508	-0.886141
C167	C	1.528304	-0.203175	-0.552807
C168	C	1.861637	0.130159	-0.219474
C169	C	1.189574	-0.540954	-0.980044
C170	C	1.522907	-0.207621	-0.646711
C171	C	1.856240	0.125713	-0.313377
C172	C	1.287911	-0.459855	-0.274438
C173	C	1.621244	-0.126522	0.058895
C174	C	1.954577	0.206812	0.392229
C175	C	1.293831	-0.454907	-0.174508
C176	C	1.627165	-0.121574	0.158825
C177	C	1.960498	0.211759	0.492158
H178	H	0.767745	-0.346767	-0.374395
H179	H	1.101079	-0.013434	-0.041062
H180	H	1.434412	0.319899	0.292271
H181	H	1.408492	-0.360312	-1.001464
H182	H	1.741825	-0.026979	-0.668131
H183	H	2.075159	0.306355	-0.334797
H184	H	0.611648	-0.586156	-0.632001
H185	H	0.944982	-0.252823	-0.298668
H186	H	1.278315	0.080510	0.034666
F187	F	1.412402	-0.357058	-1.184388
F188	F	1.745736	-0.023725	-0.851054
F189	F	2.079069	0.309609	-0.517721
F190	F	0.792922	-0.609226	-0.656805
F191	F	1.126256	-0.275892	-0.323472
F192	F	1.459589	0.057441	0.009862
H193	H	1.122124	-1.029296	-0.336818
H194	H	1.455458	-0.695963	-0.003485
H195	H	1.788791	-0.362630	0.329849
F196	F	1.174904	-0.553031	-1.170662
F197	F	1.508237	-0.219698	-0.837328
F198	F	1.841570	0.113635	-0.503995
F199	F	0.612675	-0.378618	-0.408689
F200	F	0.946008	-0.045285	-0.075356
F201	F	1.279341	0.288048	0.257977
F202	F	0.937072	-0.563402	-0.607496
F203	F	1.270406	-0.230069	-0.274162
F204	F	1.603739	0.103265	0.059171
F205	F	0.950689	-0.343156	-0.370491
F206	F	1.284022	-0.009823	-0.037157
F207	F	1.617356	0.323511	0.296176
H208	H	1.372651	-0.782294	-0.618462
H209	H	1.705985	-0.448961	-0.285129
H210	H	2.039318	-0.115628	0.048205
H211	H	1.359066	-0.401113	-0.857284
H212	H	1.692399	-0.067779	-0.523951
H213	H	2.025733	0.265554	-0.190617
H214	H	1.426842	-0.911858	-0.679358
H215	H	1.760175	-0.578525	-0.346025
H216	H	2.093508	-0.245192	-0.012691
H217	H	1.426904	-1.061640	-0.679385
H218	H	1.760238	-0.728307	-0.346052
H219	H	2.093571	-0.394973	-0.012718
H220	H	1.140537	-0.581411	-1.015571
H221	H	1.473871	-0.248078	-0.682238
H222	H	1.807204	0.085256	-0.348905
F223	F	1.386350	-1.191478	-0.633771
F224	F	1.719684	-0.858145	-0.300438
F225	F	2.053017	-0.524811	0.032895
H226	H	1.176160	-0.761444	-0.397612
H227	H	1.509493	-0.428111	-0.064278
H228	H	1.842827	-0.094777	0.269055
F229	F	1.162781	-1.167751	-0.382502
F230	F	1.496114	-0.834418	-0.049169
F231	F	1.829448	-0.501084	0.284164
F232	F	1.108507	-0.867770	-0.321549
F233	F	1.441840	-0.534437	0.011784
F234	F	1.775174	-0.201103	0.345118
F235	F	1.136627	-0.584672	-0.832626
F236	F	1.469960	-0.251339	-0.499292
F237	F	1.803293	0.081994	-0.165959
