data_functionalizedCrystal
_audit_creation_method	'MofGen! by Chris Wilmer'
_symmetry_space_group_name_H-M	'P1'
_symmetry_Int_Tables_number	1
_symmetry_cell_setting	triclinic
loop_
_symmetry_equiv_pos_as_xyz
  x,y,z
_cell_length_a	19.188930
_cell_length_b	19.188930
_cell_length_c	17.666332
_cell_angle_alpha	90.011603
_cell_angle_beta	90.023234
_cell_angle_gamma	83.144779
loop_
_atom_site_label
_atom_site_type_symbol
_atom_site_fract_x
_atom_site_fract_y
_atom_site_fract_z
O1	O	-0.926150	-0.087169	-0.063200
O2	O	-0.722838	-0.098903	-0.063149
O3	O	-0.830361	0.008620	-0.063161
O4	O	-0.818627	-0.194692	-0.063188
O5	O	-0.830342	0.008625	0.062735
O6	O	-0.722820	-0.098897	0.062747
O7	O	-0.926131	-0.087163	0.062697
Cu8	Cu	-0.824473	-0.093030	0.074217
Cu9	Cu	-0.824496	-0.093036	-0.074670
O10	O	-0.818608	-0.194686	0.062709
C11	C	-0.696818	-0.098520	-0.000194
C12	C	-0.619313	-0.097380	-0.000174
C13	C	-0.829972	0.034634	-0.000211
C14	C	-0.828831	0.112138	-0.000204
C15	C	-0.952151	-0.087546	-0.000260
C16	C	-1.029656	-0.088687	-0.000285
C17	C	-0.574389	-0.160470	-0.000194
C18	C	-0.501566	-0.159399	-0.000203
C19	C	-0.473669	-0.095233	-0.000206
C20	C	-0.518603	-0.032133	-0.000181
C21	C	-0.591425	-0.033207	-0.000166
N22	N	-0.365695	-0.046188	-0.043078
N23	N	-0.296517	-0.045172	-0.043095
C24	C	-0.254260	-0.091994	-0.000252
N25	N	-0.283795	-0.139881	0.042599
N26	N	-0.352979	-0.140899	0.042612
C27	C	-0.394707	-0.094062	-0.000222
C28	C	-0.130372	-0.153928	-0.000280
C29	C	-0.057547	-0.152853	-0.000283
C30	C	-0.074586	-0.025586	-0.000270
C31	C	-0.147409	-0.026662	-0.000258
C32	C	-0.175298	-0.090835	-0.000267
C33	C	-0.818997	-0.220700	-0.000244
C34	C	-0.820138	-0.298204	-0.000255
N35	N	-0.824463	-0.093025	0.178937
C36	C	-0.891922	0.157062	-0.000216
C37	C	-0.890850	0.229886	-0.000228
C38	C	-0.826684	0.257782	-0.000212
C39	C	-0.763585	0.212849	-0.000205
C40	C	-0.764658	0.140026	-0.000200
N41	N	-0.777630	0.365789	0.042645
N42	N	-0.776615	0.434968	0.042642
C43	C	-0.823446	0.477191	-0.000227
N44	N	-0.871341	0.447624	-0.043084
N45	N	-0.872359	0.378439	-0.043079
C46	C	-0.825513	0.336745	-0.000218
C47	C	-0.885379	0.601079	-0.000253
C48	C	-0.884305	0.673904	-0.000270
C49	C	-0.757038	0.656865	-0.000239
C50	C	-0.758114	0.584042	-0.000230
C51	C	-0.822287	0.556154	-0.000233
N52	N	-0.824512	-0.093036	-0.179390
C53	C	-0.872089	-0.045437	0.218541
C54	C	-0.872093	-0.045433	0.297789
C55	C	-0.824478	-0.093030	0.337429
C56	C	-0.776842	-0.140621	0.297815
C57	C	-0.776835	-0.140619	0.218569
N58	N	-0.815401	-0.154837	0.461841
N59	N	-0.815413	-0.154837	0.537121
C60	C	-0.824496	-0.093040	0.576193
N61	N	-0.833582	-0.031239	0.537140
N62	N	-0.833574	-0.031240	0.461853
C63	C	-0.824480	-0.093038	0.423358
C64	C	-0.872130	-0.045444	0.701727
C65	C	-0.872129	-0.045440	0.780976
C66	C	-0.776881	-0.140634	0.781000
C67	C	-0.776878	-0.140632	0.701753
C68	C	-0.824506	-0.093038	0.662121
H69	H	-0.464982	-0.210776	-0.000217
H70	H	-0.944176	0.134360	-0.000222
O71	O	-0.047613	0.036807	-0.000238
C72	C	-0.072198	0.162922	-0.000266
C73	C	-0.102842	0.092310	-0.000289
H74	H	-0.116836	0.207815	-0.000323
H75	H	-0.038529	0.166657	0.052428
H76	H	-0.038533	0.166566	-0.052947
H77	H	-0.136538	0.088618	0.052357
H78	H	-0.136472	0.088606	-0.053018
H79	H	-0.628003	0.018171	-0.000150
O80	O	-0.730655	-0.186965	0.819415
C81	C	-0.689395	-0.308472	0.843690
C82	C	-0.741778	-0.256081	0.800121
H83	H	-0.698380	-0.364364	0.828120
H84	H	-0.633488	-0.299569	0.828126
H85	H	-0.697570	-0.300262	0.907129
H86	H	-0.733667	-0.264259	0.736672
H87	H	-0.797666	-0.264997	0.815748
H88	H	-0.495885	0.020111	-0.000194
O89	O	-0.157549	-0.216219	-0.000175
C90	C	-0.229808	-0.291303	0.065086
C91	C	-0.199094	-0.220727	0.065050
H92	H	-0.263392	-0.294977	0.117823
H93	H	-0.263548	-0.295007	0.012441
H94	H	-0.185173	-0.336199	0.065042
H95	H	-0.243684	-0.175789	0.065121
H96	H	-0.165335	-0.217084	0.117691
H97	H	-0.910869	-0.006681	0.186275
O98	O	-0.191122	0.034580	-0.000351
C99	C	-0.283231	0.107241	-0.065577
C100	C	-0.233778	0.037848	-0.065560
H101	H	-0.317721	0.109913	-0.118301
H102	H	-0.317772	0.109935	-0.012919
H103	H	-0.250770	0.153276	-0.065545
H104	H	-0.266184	-0.008225	-0.065619
H105	H	-0.199235	0.035216	-0.118214
H106	H	-0.738051	-0.179371	0.186322
H107	H	-0.020970	-0.204232	-0.000295
O108	O	-0.918313	0.000779	0.663114
C109	C	-0.933538	0.096131	0.573611
C110	C	-0.881147	0.043839	0.617292
H111	H	-0.903510	0.130968	0.536565
H112	H	-0.968277	0.066049	0.536459
H113	H	-0.967620	0.130122	0.615518
H114	H	-0.847018	0.009835	0.575439
H115	H	-0.846456	0.073964	0.654455
O116	O	-0.952094	0.273605	-0.000134
C117	C	-1.024738	0.365694	0.065106
C118	C	-0.955348	0.316237	0.065083
H119	H	-1.027398	0.400164	0.117837
H120	H	-1.027441	0.400253	0.012454
H121	H	-1.070775	0.333236	0.065067
H122	H	-0.909272	0.348640	0.065150
H123	H	-0.952707	0.281675	0.117731
H124	H	-0.711340	0.235567	-0.000194
O125	O	-0.696873	0.540327	-0.000109
C126	C	-0.624199	0.448264	0.065159
C127	C	-0.693590	0.497720	0.065112
H128	H	-0.621515	0.413813	0.117892
H129	H	-0.621520	0.413684	0.012510
H130	H	-0.578163	0.480722	0.065131
H131	H	-0.739665	0.465317	0.065166
H132	H	-0.696208	0.532301	0.117756
O133	O	-0.703305	0.096483	-0.000151
C134	C	-0.576962	0.087268	-0.000170
C135	C	-0.646393	0.136662	-0.000210
H136	H	-0.530931	0.119732	-0.000234
H137	H	-0.574226	0.052775	0.052534
H138	H	-0.574332	0.052720	-0.052841
H139	H	-0.649069	0.171253	0.052424
H140	H	-0.649100	0.171106	-0.052950
H141	H	-0.597091	-0.212725	-0.000203
O142	O	-0.918368	0.000885	0.819365
C143	C	-0.959647	0.122389	0.843652
C144	C	-0.907251	0.070004	0.800115
H145	H	-0.950667	0.178283	0.828116
H146	H	-1.015550	0.113479	0.828023
H147	H	-0.951482	0.114181	0.907096
H148	H	-0.915352	0.078180	0.736661
H149	H	-0.851367	0.078927	0.815807
O150	O	-0.947774	0.574099	-0.000304
C151	C	-1.073890	0.598683	-0.000305
C152	C	-1.003278	0.629329	-0.000262
H153	H	-1.118783	0.643321	-0.000255
H154	H	-1.077624	0.565029	-0.053004
H155	H	-1.077533	0.565004	0.052371
H156	H	-0.999587	0.663039	-0.052903
H157	H	-0.999574	0.662943	0.052472
O158	O	-0.694645	0.683839	-0.000257
C159	C	-0.568529	0.659254	-0.000181
C160	C	-0.639141	0.628609	-0.000173
H161	H	-0.523636	0.614615	-0.000097
H162	H	-0.564804	0.692882	-0.052883
H163	H	-0.564875	0.692958	0.052492
H164	H	-0.642843	0.594873	-0.052811
H165	H	-0.642836	0.595020	0.052564
O166	O	-0.730493	-0.186787	0.336285
C167	C	-0.608970	-0.228022	0.360558
C168	C	-0.661389	-0.175692	0.316958
H169	H	-0.553088	-0.219079	0.344936
H170	H	-0.617097	-0.219851	0.424010
H171	H	-0.617925	-0.283917	0.344965
H172	H	-0.652466	-0.119776	0.332487
H173	H	-0.653249	-0.183924	0.253517
H174	H	-0.738099	-0.179386	0.669505
H175	H	-0.935683	0.710481	-0.000284
H176	H	-0.910878	-0.006680	0.330041
