data_functionalizedCrystal
_audit_creation_method	'MofGen! by Chris Wilmer'
_symmetry_space_group_name_H-M	'P1'
_symmetry_Int_Tables_number	1
_symmetry_cell_setting	triclinic
loop_
_symmetry_equiv_pos_as_xyz
  x,y,z
_cell_length_a	10.654541
_cell_length_b	10.723024
_cell_length_c	9.798715
_cell_angle_alpha	90.003391
_cell_angle_beta	90.002919
_cell_angle_gamma	84.475899
loop_
_atom_site_label
_atom_site_type_symbol
_atom_site_fract_x
_atom_site_fract_y
_atom_site_fract_z
O1	O	-0.176147	-1.657212	-0.113482
O2	O	-0.193008	-1.294062	-0.113486
O3	O	-0.001837	-1.483988	-0.113475
O4	O	-0.367318	-1.467286	-0.113492
O5	O	-0.001836	-1.483974	0.113507
O6	O	-0.193007	-1.294048	0.113496
O7	O	-0.176147	-1.657198	0.113501
Zn8	Zn	-0.184577	-1.475620	0.149537
Zn9	Zn	-0.184578	-1.475639	-0.149522
O10	O	-0.367318	-1.467272	0.113490
C11	C	0.044961	-1.482755	0.000015
C12	C	0.184404	-1.479088	0.000012
C13	C	-0.191781	-1.247555	0.000004
C14	C	-0.188109	-1.109000	0.000003
C15	C	-0.414116	-1.468504	-0.000003
C16	C	-0.553559	-1.472172	-0.000010
C17	C	0.212409	-1.706196	0.000033
C18	C	0.291921	-1.818022	0.000045
C19	C	0.422938	-1.814569	0.000041
C20	C	0.474446	-1.699277	0.000020
C21	C	0.394935	-1.587451	0.000007
C22	C	0.263916	-1.590917	0.000016
C23	C	0.366930	-1.360346	-0.000023
C24	C	0.235912	-1.363796	-0.000009
C25	C	0.418438	-1.245054	-0.000044
C26	C	0.338927	-1.133225	-0.000047
C27	C	0.207902	-1.136683	-0.000041
C28	C	0.156401	-1.251970	-0.000022
C29	C	-0.177374	-1.703705	0.000007
C30	C	-0.181045	-1.842259	-0.000000
N31	N	-0.184576	-1.475617	0.353636
C32	C	-0.295079	-1.034033	-0.000003
C33	C	-0.291287	-0.890829	-0.000005
N34	N	-0.184569	-1.475653	-0.353622
C35	C	-0.103954	-1.555361	0.421418
C36	C	-0.103950	-1.555381	0.578580
H37	H	0.249968	-1.911891	0.000075
O38	O	-0.420111	-1.089440	-0.000006
H39	H	-0.474278	-1.057862	0.092512
O40	O	-0.012522	-1.645776	0.344173
H41	H	0.046543	-1.704187	0.417731
O42	O	-0.012511	-1.645823	0.655774
H43	H	-0.026850	-1.631639	0.767102
H44	H	-0.089466	-0.906672	-0.000004
O45	O	0.122148	-1.016066	-0.000041
H46	H	0.140580	-0.960960	-0.092558
H47	H	-0.382861	-0.826409	-0.000015
O48	O	-0.275987	-1.385196	0.569177
H49	H	-0.337286	-1.438473	0.504046
H50	H	0.581129	-1.696475	-0.000000
H51	H	-0.093722	-1.067165	-0.000028
O52	O	-0.276025	-1.385203	0.430861
H53	H	-0.222744	-1.323994	0.495990
O54	O	0.508705	-1.935178	0.000069
H55	H	0.490271	-1.990320	-0.092429
O56	O	0.071096	-1.709912	0.000057
H57	H	0.042574	-1.759851	-0.092448
O58	O	0.559749	-1.241318	-0.000035
H59	H	0.606387	-1.338444	-0.000004
H60	H	0.049722	-1.254797	-0.000008
O61	O	0.394490	-1.008891	-0.000064
H62	H	0.362631	-0.955115	-0.092584
