data_functionalizedCrystal
_audit_creation_method	'MofGen! by Chris Wilmer'
_symmetry_space_group_name_H-M	'P1'
_symmetry_Int_Tables_number	1
_symmetry_cell_setting	triclinic
loop_
_symmetry_equiv_pos_as_xyz
  x,y,z
_cell_length_a	25.639242
_cell_length_b	25.639239
_cell_length_c	17.077396
_cell_angle_alpha	90.031629
_cell_angle_beta	90.028365
_cell_angle_gamma	90.034811
loop_
_atom_site_label
_atom_site_type_symbol
_atom_site_fract_x
_atom_site_fract_y
_atom_site_fract_z
Zn1	Zn	0.799255	-0.208213	0.444011
Zn2	Zn	1.299255	0.291787	0.944011
Zn3	Zn	0.799168	-0.295651	0.312738
Zn4	Zn	1.299168	0.204349	0.812738
Zn5	Zn	0.711822	-0.208224	0.312739
Zn6	Zn	1.211822	0.291776	0.812739
Zn7	Zn	0.711775	-0.295613	0.443941
Zn8	Zn	1.211775	0.204387	0.943941
O9	O	0.755505	-0.251925	0.378357
O10	O	1.255505	0.248075	0.878357
O11	O	0.872409	-0.219823	0.426626
O12	O	1.372409	0.280177	0.926626
O13	O	0.787564	-0.284074	0.202891
O14	O	1.287564	0.215926	0.702891
O15	O	0.723476	-0.135058	0.330182
O16	O	1.223476	0.364942	0.830182
O17	O	0.872345	-0.284063	0.330180
O18	O	1.372345	0.215937	0.830180
O19	O	0.787712	-0.135049	0.426627
O20	O	1.287712	0.364951	0.926627
O21	O	0.723391	-0.219842	0.202892
O22	O	1.223391	0.280158	0.702892
O23	O	0.638650	-0.219805	0.330114
O24	O	1.138650	0.280195	0.830114
O25	O	0.723397	-0.283998	0.553797
O26	O	1.223397	0.216002	1.053797
O27	O	0.638616	-0.284009	0.426508
O28	O	1.138616	0.215991	0.926508
O29	O	0.787668	-0.219786	0.553849
O30	O	1.287668	0.280214	1.053849
O31	O	0.787519	-0.368811	0.330113
O32	O	1.287519	0.131189	0.830113
O33	O	0.723312	-0.368783	0.426507
O34	O	1.223312	0.131217	0.926507
C35	C	0.619662	-0.251905	0.378304
C36	C	1.119662	0.248095	0.878304
C37	C	0.561548	-0.251908	0.378300
C38	C	1.061548	0.248092	0.878300
C39	C	0.755416	-0.387768	0.378319
C40	C	1.255416	0.112232	0.878319
C41	C	0.755425	-0.445882	0.378329
C42	C	1.255425	0.054118	0.878329
C43	C	0.201177	-0.285412	0.428502
C44	C	0.701177	0.214588	0.928502
C45	C	0.146572	-0.285415	0.428514
C46	C	0.646572	0.214585	0.928514
O47	O	0.118328	-0.313876	0.471153
O48	O	0.618328	0.186124	0.971153
N49	N	0.119266	-0.251940	0.378408
N50	N	0.619266	0.248060	0.878408
C51	C	0.146567	-0.218455	0.328293
C52	C	0.646567	0.281545	0.828293
O53	O	0.118327	-0.189981	0.285675
O54	O	0.618327	0.310019	0.785675
C55	C	0.201170	-0.218449	0.328285
C56	C	0.701170	0.281551	0.828285
C57	C	0.228474	-0.251931	0.378388
C58	C	0.728474	0.248069	0.878388
C59	C	0.228480	-0.318890	0.478602
C60	C	0.728480	0.181110	0.978602
C61	C	0.283081	-0.318888	0.478588
C62	C	0.783081	0.181112	0.978588
C63	C	0.310378	-0.285407	0.428475
C64	C	0.810378	0.214593	0.928475
C65	C	0.283074	-0.251928	0.378375
C66	C	0.783074	0.248072	0.878375
C67	C	0.228470	-0.184962	0.278173
C68	C	0.728470	0.315038	0.778173
C69	C	0.283077	-0.184960	0.278170
C70	C	0.783077	0.315040	0.778170
C71	C	0.310381	-0.218441	0.328274
C72	C	0.810381	0.281559	0.828274
C73	C	0.364972	-0.218445	0.328247
C74	C	0.864972	0.281555	0.828247
N75	N	0.392278	-0.251920	0.378353
N76	N	0.892278	0.248080	0.878353
C77	C	0.364981	-0.285401	0.428467
C78	C	0.864981	0.214599	0.928467
C79	C	0.031896	-0.218468	0.328314
C80	C	0.531896	0.281532	0.828314
C81	C	-0.022706	-0.218476	0.328317
C82	C	0.477294	0.281524	0.828317
C83	C	-0.022697	-0.285436	0.428540
C84	C	0.477303	0.214564	0.928540
C85	C	0.031906	-0.285430	0.428532
C86	C	0.531906	0.214570	0.928532
C87	C	0.059202	-0.251944	0.378420
C88	C	0.559202	0.248056	0.878420
C89	C	0.479646	-0.285393	0.428434
C90	C	0.979646	0.214607	0.928434
C91	C	0.534251	-0.285389	0.428414
C92	C	1.034251	0.214611	0.928414
C93	C	0.534237	-0.218428	0.328194
C94	C	1.034237	0.281572	0.828194
C95	C	0.479637	-0.218434	0.328211
C96	C	0.979637	0.281566	0.828211
C97	C	0.452342	-0.251918	0.378337
C98	C	0.952342	0.248082	0.878337
O99	O	0.393251	-0.189997	0.285633
O100	O	0.893251	0.310003	0.785633
O101	O	0.393228	-0.313865	0.471084
O102	O	0.893228	0.186135	0.971084
C103	C	0.722066	-0.697073	0.428534
C104	C	1.222066	-0.197073	0.928534
C105	C	0.722047	-0.642469	0.428525
C106	C	1.222047	-0.142469	0.928525
O107	O	0.693598	-0.614230	0.471184
O108	O	1.193598	-0.114230	0.971184
N109	N	0.755491	-0.615156	0.378370
N110	N	1.255491	-0.115156	0.878370
C111	C	0.788961	-0.642450	0.328227
C112	C	1.288961	-0.142450	0.828227
O113	O	0.817406	-0.614204	0.285567
O114	O	1.317406	-0.114204	0.785567
C115	C	0.788982	-0.697053	0.328241
C116	C	1.288982	-0.197053	0.828241
C117	C	0.755532	-0.724363	0.378393
C118	C	1.255532	-0.224363	0.878393
C119	C	0.688619	-0.724383	0.478682
C120	C	1.188619	-0.224383	0.978682
C121	C	0.688638	-0.778984	0.478690
C122	C	1.188638	-0.278984	0.978690
C123	C	0.722104	-0.806274	0.428550
C124	C	1.222104	-0.306274	0.928550
C125	C	0.755551	-0.778964	0.378401
C126	C	1.255551	-0.278964	0.878401
C127	C	0.822454	-0.724346	0.278103
C128	C	1.322454	-0.224346	0.778103
C129	C	0.822473	-0.778953	0.278121
C130	C	1.322473	-0.278953	0.778121
C131	C	0.789023	-0.806263	0.328273
C132	C	1.289023	-0.306263	0.828273
C133	C	0.789036	-0.860855	0.328268
C134	C	1.289036	-0.360855	0.828268
N135	N	0.755591	-0.888168	0.378423
N136	N	1.255591	-0.388168	0.878423
C137	C	0.722125	-0.860877	0.428563
C138	C	1.222125	-0.360877	0.928563
C139	C	0.788913	-0.527779	0.328204
C140	C	1.288913	-0.027779	0.828204
C141	C	0.788890	-0.473177	0.328185
C142	C	1.288890	0.026823	0.828185
C143	C	0.721976	-0.473200	0.428484
C144	C	1.221976	0.026800	0.928484
C145	C	0.721998	-0.527803	0.428498
C146	C	1.221998	-0.027803	0.928498
C147	C	0.755469	-0.555092	0.378358
C148	C	1.255469	-0.055092	0.878358
C149	C	0.722167	-0.975543	0.428576
C150	C	1.222167	-0.475543	0.928576
C151	C	0.722187	-1.030148	0.428577
C152	C	1.222187	-0.530148	0.928577
C153	C	0.789102	-1.030120	0.328281
C154	C	1.289102	-0.530120	0.828281
C155	C	0.789080	-0.975520	0.328277
C156	C	1.289080	-0.475520	0.828277
C157	C	0.755611	-0.948232	0.378430
C158	C	1.255611	-0.448232	0.878430
O159	O	0.817472	-0.889128	0.285633
O160	O	1.317472	-0.389128	0.785633
O161	O	0.693689	-0.889130	0.471224
O162	O	1.193689	-0.389130	0.971224
C163	C	0.891878	-0.251946	0.378411
C164	C	1.391878	0.248054	0.878411
C165	C	0.949992	-0.251955	0.378434
C166	C	1.449992	0.248045	0.878434
C167	C	0.755537	-0.251887	0.583102
C168	C	1.255537	0.248113	1.083102
C169	C	0.755550	-0.251870	0.670351
C170	C	1.255550	0.248130	1.170351
C171	C	0.755609	-0.115552	0.378412
C172	C	1.255609	0.384448	0.878412
C173	C	0.755653	-0.057438	0.378436
C174	C	1.255653	0.442562	0.878436
C175	C	0.755504	-0.251926	0.174409
C176	C	1.255504	0.248074	0.674409
C177	C	0.755591	-0.251795	0.087160
C178	C	1.255591	0.248205	0.587160
C179	C	0.789017	-0.218432	0.711370
C180	C	1.289017	0.281568	1.211370
C181	C	0.789023	-0.218415	0.793350
C182	C	1.289023	0.281585	1.293350
C183	C	0.755565	-0.251838	0.834311
C184	C	1.255565	0.248162	1.334311
C185	C	0.722094	-0.285278	0.793287
C186	C	1.222094	0.214722	1.293287
C187	C	0.722086	-0.285292	0.711308
C188	C	1.222086	0.214708	1.211308
C189	C	0.722115	-0.285246	0.964157
C190	C	1.222115	0.214754	1.464157
C191	C	0.722124	-0.285233	1.046142
C192	C	1.222124	0.214767	1.546142
C193	C	0.789053	-0.218369	1.046199
C194	C	1.289053	0.281631	1.546199
C195	C	0.789045	-0.218383	0.964220
C196	C	1.289045	0.281617	1.464220
C197	C	0.755574	-0.251824	0.923202
C198	C	1.255574	0.248176	1.423202
H199	H	0.556479	-0.312656	0.469214
H200	H	1.056479	0.187344	0.969214
H201	H	0.816313	-0.953283	0.287431
H202	H	1.316313	-0.453283	0.787431
Cl203	Cl	0.831174	-1.064438	0.265255
Cl204	Cl	1.331174	-0.564438	0.765255
Cl205	Cl	0.194173	-0.360987	0.541610
Cl206	Cl	0.694173	0.139013	1.041610
H207	H	0.849693	-0.702118	0.237265
H208	H	1.349693	-0.202118	0.737265
Cl209	Cl	0.680056	-0.327246	1.097635
Cl210	Cl	1.180056	0.172754	1.597635
Cl211	Cl	0.568564	-0.176339	0.265198
Cl212	Cl	1.068564	0.323661	0.765198
H213	H	0.054133	-0.312693	0.469332
H214	H	0.554133	0.187307	0.969332
Cl215	Cl	0.680009	-0.327329	0.659742
Cl216	Cl	1.180009	0.172671	1.159742
Cl217	Cl	0.680037	-0.327286	0.912593
Cl218	Cl	1.180037	0.172714	1.412593
Cl219	Cl	0.680090	-0.941247	0.491625
Cl220	Cl	1.180090	-0.441247	0.991625
Cl221	Cl	0.830992	-0.562080	0.265158
Cl222	Cl	1.330992	-0.062080	0.765158
H223	H	0.694947	-1.052381	0.469418
H224	H	1.194947	-0.552381	0.969418
Cl225	Cl	0.831121	-0.176400	0.844912
Cl226	Cl	1.331121	0.323600	1.344912
H227	H	0.054117	-0.191200	0.287500
H228	H	0.554117	0.308800	0.787500
H229	H	0.661398	-0.801215	0.519528
H230	H	1.161398	-0.301215	1.019528
H231	H	-0.044932	-0.312696	0.469348
H232	H	0.455068	0.187304	0.969348
Cl233	Cl	0.831084	-0.176414	0.659884
Cl234	Cl	1.331084	0.323586	1.159884
Cl235	Cl	0.680030	-0.327295	0.844781
Cl236	Cl	1.180030	0.172705	1.344781
Cl237	Cl	-0.057024	-0.176390	0.265317
Cl238	Cl	0.442976	0.323610	0.765317
H239	H	0.457429	-0.312659	0.469253
H240	H	0.957429	0.187341	0.969253
H241	H	0.206249	-0.157700	0.237371
H242	H	0.706249	0.342300	0.737371
Cl243	Cl	0.317389	-0.142859	0.215168
Cl244	Cl	0.817389	0.357141	0.715168
Cl245	Cl	0.317397	-0.360978	0.541584
Cl246	Cl	0.817397	0.139022	1.041584
Cl247	Cl	0.646542	-0.690086	0.541725
Cl248	Cl	1.146542	-0.190086	1.041725
H249	H	0.816292	-0.191170	0.930872
H250	H	1.316292	0.308830	1.430872
Cl251	Cl	0.679945	-0.562130	0.491549
Cl252	Cl	1.179945	-0.062130	0.991549
Cl253	Cl	0.831130	-0.176331	1.097764
Cl254	Cl	1.331130	0.323669	1.597764
Cl255	Cl	0.445312	-0.176351	0.265211
Cl256	Cl	0.945312	0.323649	0.765211
H257	H	0.694727	-0.450970	0.469312
H258	H	1.194727	0.049030	0.969312
H259	H	0.849732	-0.801169	0.237293
H260	H	1.349732	-0.301169	0.737293
Cl261	Cl	0.830937	-0.438851	0.265125
Cl262	Cl	1.330937	0.061149	0.765125
