data_functionalizedCrystal
_audit_creation_method	'MofGen! by Chris Wilmer'
_symmetry_space_group_name_H-M	'P1'
_symmetry_Int_Tables_number	1
_symmetry_cell_setting	triclinic
loop_
_symmetry_equiv_pos_as_xyz
  x,y,z
_cell_length_a	12.759395
_cell_length_b	17.077402
_cell_length_c	17.077396
_cell_angle_alpha	89.970216
_cell_angle_beta	90.017209
_cell_angle_gamma	89.975580
loop_
_atom_site_label
_atom_site_type_symbol
_atom_site_fract_x
_atom_site_fract_y
_atom_site_fract_z
Zn1	Zn	1.606175	0.312476	0.443788
Zn2	Zn	1.606050	0.443751	0.312519
Zn3	Zn	1.430483	0.312507	0.312541
Zn4	Zn	1.430440	0.443707	0.443747
O5	O	1.518287	0.378110	0.378149
O6	O	1.753179	0.329895	0.426382
O7	O	1.582727	0.426372	0.202675
O8	O	1.453859	0.202656	0.329977
O9	O	1.753088	0.426342	0.329939
O10	O	1.582939	0.202633	0.426404
O11	O	1.453738	0.329947	0.202691
O12	O	1.283456	0.329905	0.329938
O13	O	1.453786	0.426268	0.553600
O14	O	1.283425	0.426298	0.426335
O15	O	1.582897	0.329853	0.553629
O16	O	1.582685	0.553592	0.329900
O17	O	1.453665	0.553560	0.426314
C18	C	1.245320	0.378101	0.378135
C19	C	1.128543	0.378115	0.378148
C20	C	1.518186	0.582058	0.378117
C21	C	1.518238	0.669308	0.378130
C22	C	1.518351	0.378052	0.582893
C23	C	1.518378	0.378028	0.670143
C24	C	1.128549	0.478651	0.478364
C25	C	1.073691	0.528926	0.528474
C26	C	0.963969	0.528935	0.528483
C27	C	0.909103	0.478663	0.478379
C28	C	0.963961	0.428389	0.428269
C29	C	1.073685	0.428387	0.428263
C30	C	0.963955	0.327851	0.328059
C31	C	1.073677	0.327844	0.328044
C32	C	0.909089	0.277579	0.277954
C33	C	0.963947	0.227307	0.227839
C34	C	1.073675	0.227301	0.227831
C35	C	1.128535	0.277570	0.277934
C36	C	1.792320	0.378120	0.378163
C37	C	1.909097	0.378125	0.378169
C38	C	1.518417	0.173366	0.378197
C39	C	1.518473	0.086116	0.378218
C40	C	1.585488	0.710289	0.327982
C41	C	1.585539	0.792269	0.328002
C42	C	1.518335	0.833267	0.378167
C43	C	1.451083	0.792281	0.428321
C44	C	1.451037	0.710302	0.428304
C45	C	1.451180	0.963151	0.428351
C46	C	1.451224	1.045135	0.428366
C47	C	1.585682	1.045118	0.328048
C48	C	1.585636	0.963139	0.328031
C49	C	1.518382	0.922158	0.378185
C50	C	1.518284	0.378111	0.174201
C51	C	1.518461	0.377915	0.086951
C52	C	1.585608	0.327820	0.711150
C53	C	1.585621	0.327794	0.793130
C54	C	1.518408	0.377980	0.834102
C55	C	1.451169	0.428190	0.793090
C56	C	1.451152	0.428211	0.711111
C57	C	1.451212	0.428142	0.963960
C58	C	1.451230	0.428122	1.045945
C59	C	1.585681	0.327725	1.045979
C60	C	1.585663	0.327747	0.964000
C61	C	1.518426	0.377958	0.922993
H62	H	1.217890	0.478654	0.478355
H63	H	1.118334	0.186356	0.187030
F64	F	1.657241	0.274287	1.089622
F65	F	1.245310	0.277570	0.277926
H66	H	1.640208	0.676913	0.287128
H67	H	1.396496	0.468986	1.079302
H68	H	1.640401	0.286885	0.930643
H69	H	1.640300	0.825632	0.287165
F70	F	0.905584	0.582438	0.581820
F71	F	1.657161	0.919507	0.274639
H72	H	1.118375	0.569854	0.569269
H73	H	1.396444	0.469017	0.930575
H74	H	1.640446	1.078488	0.287214
H75	H	0.819762	0.478669	0.478398
H76	H	1.396439	0.469049	0.826456
H77	H	1.396395	0.469087	0.677724
F78	F	1.657214	0.274383	0.836769
F79	F	0.792313	0.277586	0.277970
H80	H	0.919266	0.186377	0.187052
F81	F	1.379688	1.088767	0.481751
F82	F	1.379603	0.919538	0.481732
F83	F	1.379464	0.666687	0.481681
F84	F	1.657153	0.274408	0.667551
F85	F	1.379565	0.835916	0.481715
