data_functionalizedCrystal
_audit_creation_method	'MofGen! by Chris Wilmer'
_symmetry_space_group_name_H-M	'P1'
_symmetry_Int_Tables_number	1
_symmetry_cell_setting	triclinic
loop_
_symmetry_equiv_pos_as_xyz
  x,y,z
_cell_length_a	11.792241
_cell_length_b	10.654550
_cell_length_c	10.868271
_cell_angle_alpha	89.999758
_cell_angle_beta	89.999412
_cell_angle_gamma	95.660841
loop_
_atom_site_label
_atom_site_type_symbol
_atom_site_fract_x
_atom_site_fract_y
_atom_site_fract_z
O1	O	1.507308	-0.172128	-0.102199
O2	O	1.177007	-0.189869	-0.102228
O3	O	1.349752	0.001762	-0.102208
O4	O	1.334563	-0.363759	-0.102219
O5	O	1.349734	0.001754	0.102436
O6	O	1.176990	-0.189877	0.102417
O7	O	1.507290	-0.172136	0.102445
Zn8	Zn	1.342137	-0.181008	0.134923
Zn9	Zn	1.342160	-0.180997	-0.134705
O10	O	1.334546	-0.363767	0.102426
C11	C	1.134705	-0.188758	0.000091
C12	C	1.008684	-0.185423	0.000080
C13	C	1.348628	0.048553	0.000112
C14	C	1.345291	0.187987	0.000108
N15	N	1.342130	-0.181014	0.318937
C16	C	0.777957	-0.179290	0.000116
C17	C	0.906351	-0.182697	0.000096
C18	C	1.549592	-0.173247	0.000124
C19	C	1.675614	-0.176582	0.000127
C20	C	1.335670	-0.410558	0.000102
C21	C	1.339006	-0.549992	0.000099
C22	C	1.447000	0.267760	0.000120
C23	C	1.443858	0.398772	0.000111
C24	C	1.237290	0.370224	0.000083
C25	C	1.240433	0.239215	0.000083
C26	C	1.551859	0.216532	0.000145
C27	C	1.653577	0.296307	0.000159
C28	C	1.650435	0.427319	0.000150
C29	C	1.545575	0.478556	0.000128
C30	C	1.342138	-0.181016	0.430275
C31	C	1.342152	-0.181006	0.569952
N32	N	1.342169	-0.180990	0.681281
H33	H	1.554429	0.109857	0.000156
Br34	Br	1.094990	0.439761	0.000052
H35	H	1.543025	0.585236	0.000107
H36	H	1.738949	0.254580	0.000147
H37	H	1.733258	0.492268	0.000149
Br38	Br	1.102397	0.130942	0.000061
