data_functionalizedCrystal
_audit_creation_method	'MofGen! by Chris Wilmer'
_symmetry_space_group_name_H-M	'P1'
_symmetry_Int_Tables_number	1
_symmetry_cell_setting	triclinic
loop_
_symmetry_equiv_pos_as_xyz
  x,y,z
_cell_length_a	13.339070
_cell_length_b	9.065215
_cell_length_c	8.140239
_cell_angle_alpha	90.001198
_cell_angle_beta	89.997160
_cell_angle_gamma	79.678004
loop_
_atom_site_label
_atom_site_type_symbol
_atom_site_fract_x
_atom_site_fract_y
_atom_site_fract_z
O1	O	1.349076	-0.742382	-0.136660
O2	O	1.053657	-0.644939	-0.136652
O3	O	1.207474	-0.481399	-0.136649
O4	O	1.195259	-0.905921	-0.136663
O5	O	1.207468	-0.481400	0.136578
O6	O	1.053650	-0.644939	0.136575
O7	O	1.349070	-0.742382	0.136567
Zn8	Zn	1.201359	-0.693661	0.179952
Zn9	Zn	1.201367	-0.693660	-0.180037
O10	O	1.195252	-0.905922	0.136564
C11	C	1.015814	-0.628479	-0.000038
C12	C	0.903063	-0.579416	-0.000034
C13	C	0.541762	-0.960906	-0.000073
C14	C	0.647697	-1.007009	-0.000081
C15	C	0.711544	-0.900114	-0.000069
C16	C	0.669445	-0.747110	-0.000050
C17	C	0.563500	-0.701003	-0.000054
C18	C	0.733281	-0.640211	-0.000050
C19	C	0.691183	-0.487207	-0.000031
C20	C	0.585248	-0.441108	-0.000035
C21	C	0.521401	-0.548002	-0.000047
C22	C	0.839226	-0.686318	-0.000045
C23	C	0.860964	-0.426414	-0.000027
C24	C	0.755029	-0.380312	-0.000019
C25	C	1.206298	-0.425955	-0.000038
C26	C	1.202789	-0.260744	-0.000042
C27	C	1.386913	-0.758842	-0.000051
C28	C	1.499664	-0.807905	-0.000065
C29	C	1.196429	-0.961366	-0.000052
C30	C	1.199937	-1.126577	-0.000057
N31	N	1.201360	-0.693663	0.425634
N32	N	1.201368	-0.693664	0.574280
H33	H	0.681966	-1.131584	-0.000109
O34	O	0.418500	-0.503138	0.000244
C35	C	0.389067	-0.416418	0.141730
H36	H	0.449921	-0.445278	0.240637
H37	H	0.313506	-0.441560	0.189226
H38	H	0.379973	-0.292296	0.109737
O39	O	0.479598	-1.064533	-0.000016
C40	C	0.377069	-0.991025	-0.000065
H41	H	0.371944	-0.873051	0.051672
H42	H	0.329852	-1.056490	0.079247
H43	H	0.346500	-0.984094	-0.131150
O44	O	0.544473	-0.292439	-0.000247
C45	C	0.576963	-0.224655	-0.141767
H46	H	0.650792	-0.295080	-0.188943
H47	H	0.590533	-0.107355	-0.109932
H48	H	0.515837	-0.216717	-0.240859
O49	O	0.879993	-0.834978	-0.000275
C50	C	0.847516	-0.902750	-0.141810
H51	H	0.773694	-0.832316	-0.188988
H52	H	0.833936	-1.020049	-0.109993
H53	H	0.908653	-0.910690	-0.240894
O54	O	0.814427	-0.945149	0.000007
C55	C	0.837894	-1.103113	-0.000051
H56	H	0.770683	-1.150134	0.051658
H57	H	0.908101	-1.141857	0.079281
H58	H	0.853876	-1.145083	-0.131135
O59	O	0.923119	-0.322761	0.000058
C60	C	1.025650	-0.396262	0.000020
H61	H	1.030772	-0.514237	0.051747
H62	H	1.072854	-0.330794	0.079348
H63	H	1.056236	-0.403191	-0.131059
H64	H	0.720737	-0.255733	-0.000017
