data_functionalizedCrystal
_audit_creation_method	'MofGen! by Chris Wilmer'
_symmetry_space_group_name_H-M	'P1'
_symmetry_Int_Tables_number	1
_symmetry_cell_setting	triclinic
loop_
_symmetry_equiv_pos_as_xyz
  x,y,z
_cell_length_a	13.339070
_cell_length_b	16.992695
_cell_length_c	15.455313
_cell_angle_alpha	87.152573
_cell_angle_beta	93.405976
_cell_angle_gamma	103.148759
loop_
_atom_site_label
_atom_site_type_symbol
_atom_site_fract_x
_atom_site_fract_y
_atom_site_fract_z
O1	O	-1.378864	-0.397618	-0.072167
O2	O	-0.878864	0.102382	0.427833
O3	O	-1.080091	-0.345099	-0.072161
O4	O	-0.580091	0.154901	0.427839
O5	O	-1.228279	-0.256955	-0.072157
O6	O	-0.728279	0.243045	0.427843
O7	O	-1.230676	-0.485761	-0.072171
O8	O	-0.730676	0.014239	0.427829
O9	O	-1.219803	-0.261967	0.072105
O10	O	-0.719803	0.238033	0.572105
O11	O	-1.071614	-0.350110	0.072101
O12	O	-0.571614	0.149890	0.572101
O13	O	-1.370388	-0.402629	0.072095
O14	O	-0.870388	0.097371	0.572095
Cu15	Cu	-1.220227	-0.376827	0.085270
Cu16	Cu	-0.720227	0.123173	0.585270
Cu17	Cu	-1.230251	-0.370900	-0.085336
Cu18	Cu	-0.730251	0.129100	0.414664
O19	O	-1.222199	-0.490773	0.072091
O20	O	-0.722199	0.009227	0.572091
C21	C	-1.037446	-0.338733	-0.000030
C22	C	-0.537446	0.161267	0.499970
C23	C	-0.923006	-0.312289	-0.000027
C24	C	-0.423006	0.187711	0.499973
C25	C	-1.220960	-0.229578	-0.000026
C26	C	-0.720960	0.270422	0.499974
C27	C	-1.211765	-0.140533	-0.000026
C28	C	-0.711765	0.359467	0.499974
C29	C	-1.413032	-0.408995	-0.000039
C30	C	-0.913032	0.091005	0.499961
C31	C	-1.527473	-0.435438	-0.000047
C32	C	-1.027473	0.064562	0.499953
C33	C	-0.574838	-0.517902	-0.000053
C34	C	-0.074838	-0.017902	0.499947
C35	C	-0.682360	-0.542749	-0.000058
C36	C	-0.182360	-0.042749	0.499942
C37	C	-0.742526	-0.485136	-0.000050
C38	C	-0.242526	0.014864	0.499950
C39	C	-0.695161	-0.402672	-0.000038
C40	C	-0.195161	0.097328	0.499962
C41	C	-0.587629	-0.377821	-0.000040
C42	C	-0.087629	0.122179	0.499960
C43	C	-0.755318	-0.345056	-0.000036
C44	C	-0.255318	0.154944	0.499964
C45	C	-0.707953	-0.262591	-0.000024
C46	C	-0.207953	0.237409	0.499976
C47	C	-0.600431	-0.237745	-0.000025
C48	C	-0.100431	0.262255	0.499975
C49	C	-0.540264	-0.295358	-0.000033
C50	C	-0.040264	0.204642	0.499967
C51	C	-0.862850	-0.369906	-0.000035
C52	C	-0.362850	0.130094	0.499965
C53	C	-0.875641	-0.229826	-0.000021
C54	C	-0.375641	0.270174	0.499979
C55	C	-0.768119	-0.204978	-0.000016
C56	C	-0.268119	0.295022	0.499984
C57	C	-1.229519	-0.518150	-0.000042
C58	C	-0.729519	-0.018150	0.499958
C59	C	-1.238714	-0.607194	-0.000048
C60	C	-0.738714	-0.107194	0.499952
N61	N	-1.213184	-0.380997	0.205265
N62	N	-0.713184	0.119003	0.705265
C63	C	-1.300479	-0.109593	-0.000027
C64	C	-0.800479	0.390407	0.499973
C65	C	-1.291834	-0.025925	-0.000035
C66	C	-0.791834	0.474075	0.499965
C67	C	-1.194474	0.026800	-0.000036
C68	C	-0.694474	0.526800	0.499964
C69	C	-1.105754	-0.004145	-0.000038
C70	C	-0.605754	0.495855	0.499962
C71	C	-1.114400	-0.087811	-0.000036
C72	C	-0.614400	0.412189	0.499964
C73	C	-1.158640	0.278195	-0.000048
C74	C	-0.658640	0.778195	0.499952
C75	C	-1.150000	0.361866	-0.000047
C76	C	-0.650000	0.861866	0.499953
C77	C	-1.336081	0.340079	-0.000046
C78	C	-0.836081	0.840079	0.499954
C79	C	-1.344718	0.256413	-0.000039
C80	C	-0.844718	0.756413	0.499961
C81	C	-1.255998	0.225475	-0.000045
C82	C	-0.755998	0.725475	0.499955
N83	N	-1.185636	0.112322	-0.000042
N84	N	-0.685636	0.612322	0.499958
N85	N	-1.264839	0.139954	-0.000046
N86	N	-0.764839	0.639954	0.499954
N87	N	-1.237302	-0.366726	-0.205332
N88	N	-0.737302	0.133274	0.294668
C89	C	-1.276165	-0.343575	0.250661
C90	C	-0.776165	0.156425	0.750661
C91	C	-1.270848	-0.346737	0.341469
C92	C	-0.770848	0.153263	0.841469
C93	C	-1.202556	-0.387328	0.386879
C94	C	-0.702556	0.112672	0.886879
C95	C	-1.139568	-0.424751	0.341477
C96	C	-0.639568	0.075249	0.841477
C97	C	-1.144880	-0.421583	0.250671
C98	C	-0.644880	0.078417	0.750671
C99	C	-1.179627	-0.400981	0.658460
C100	C	-0.679627	0.099019	1.158460
C101	C	-1.174322	-0.404148	0.749272
C102	C	-0.674322	0.095852	1.249272
C103	C	-1.305601	-0.326133	0.749258
C104	C	-0.805601	0.173867	1.249258
C105	C	-1.310911	-0.322973	0.658450
C106	C	-0.810911	0.177027	1.158450
C107	C	-1.247920	-0.360392	0.613056
C108	C	-0.747920	0.139608	1.113056
N109	N	-1.197122	-0.390564	0.479699
N110	N	-0.697122	0.109436	0.979699
N111	N	-1.253349	-0.357151	0.520238
N112	N	-0.753349	0.142849	1.020238
H113	H	-0.901404	-0.437050	-0.000041
H114	H	-0.401404	0.062950	0.499959
H115	H	-1.128338	-0.431451	0.621507
H116	H	-0.628338	0.068549	1.121507
H117	H	-1.093593	-0.452055	0.213710
H118	H	-0.593593	0.047945	0.713710
H119	H	-1.322131	-0.316265	0.378430
H120	H	-0.822131	0.183735	0.878430
H121	H	-1.364074	-0.000739	-0.000034
H122	H	-0.864074	0.499261	0.499966
F123	F	-1.019979	-0.120739	-0.000038
F124	F	-0.519979	0.379261	0.499962
F125	F	-0.510800	-0.579207	-0.000074
F126	F	-0.010800	-0.079207	0.499926
F127	F	-1.383596	-0.279774	0.610122
F128	F	-0.883596	0.220226	1.110122
H129	H	-0.561870	-0.170596	-0.000025
H130	H	-0.061870	0.329404	0.499975
F131	F	-0.856961	-0.511584	-0.000054
F132	F	-0.356961	-0.011584	0.499946
H133	H	-1.423999	0.213488	-0.000038
H134	H	-0.923999	0.713488	0.499962
H135	H	-1.331780	-0.310526	0.213694
H136	H	-0.831780	0.189474	0.713694
F137	F	-1.372634	-0.286309	0.797575
F138	F	-0.872634	0.213691	1.297575
F139	F	-1.101632	-0.447355	0.797596
F140	F	-0.601632	0.052645	1.297596
H141	H	-1.026482	0.038792	-0.000044
H142	H	-0.526482	0.538792	0.499956
H143	H	-1.408311	0.365279	-0.000042
H144	H	-0.908311	0.865279	0.499958
F145	F	-0.939670	-0.168505	-0.000018
F146	F	-0.439670	0.331495	0.499982
F147	F	-1.404103	-0.165702	-0.000018
F148	F	-0.904103	0.334298	0.499982
F149	F	-1.066880	-0.467946	0.389807
F150	F	-0.566880	0.032054	0.889807
H151	H	-0.452710	-0.275131	-0.000029
H152	H	0.047290	0.224869	0.499971
F153	F	-0.732762	-0.630510	-0.000075
F154	F	-0.232762	-0.130510	0.499925
H155	H	-0.729540	-0.137833	-0.000013
H156	H	-0.229540	0.362167	0.499987
F157	F	-1.046372	0.417980	-0.000044
F158	F	-0.546372	0.917980	0.499956
F159	F	-1.064215	0.245279	-0.000057
F160	F	-0.564215	0.745279	0.499943
