data_functionalizedCrystal
_audit_creation_method	'MofGen! by Chris Wilmer'
_symmetry_space_group_name_H-M	'P1'
_symmetry_Int_Tables_number	1
_symmetry_cell_setting	triclinic
loop_
_symmetry_equiv_pos_as_xyz
  x,y,z
_cell_length_a	12.594517
_cell_length_b	18.050589
_cell_length_c	12.594509
_cell_angle_alpha	89.966791
_cell_angle_beta	89.978673
_cell_angle_gamma	90.020334
loop_
_atom_site_label
_atom_site_type_symbol
_atom_site_fract_x
_atom_site_fract_y
_atom_site_fract_z
Zn1	Zn	1.627234	-0.295641	-0.601823
Zn2	Zn	1.627111	-0.419845	-0.423829
Zn3	Zn	1.449238	-0.295673	-0.423852
Zn4	Zn	1.449206	-0.419793	-0.601759
O5	O	1.538197	-0.357738	-0.512816
O6	O	1.776163	-0.312125	-0.578229
O7	O	1.603477	-0.403408	-0.274886
O8	O	1.472914	-0.191744	-0.447497
O9	O	1.776073	-0.403377	-0.447458
O10	O	1.603687	-0.191721	-0.578251
O11	O	1.472795	-0.312179	-0.274903
O12	O	1.300288	-0.312129	-0.447435
O13	O	1.472860	-0.403289	-0.750714
O14	O	1.300264	-0.403320	-0.578142
O15	O	1.603656	-0.312075	-0.750761
O16	O	1.603446	-0.523763	-0.447396
O17	O	1.472741	-0.523725	-0.578120
C18	C	1.261656	-0.357723	-0.512785
C19	C	1.143351	-0.357735	-0.512796
C20	C	1.074079	-0.308068	-0.441840
C21	C	1.003261	-0.375810	-0.415652
C22	C	1.003370	-0.290026	-0.539003
C23	C	1.074090	-0.425512	-0.486557
C24	C	1.074206	-0.339682	-0.609954
C25	C	1.003419	-0.407471	-0.583802
C26	C	1.538106	-0.550690	-0.512772
C27	C	1.538164	-0.633236	-0.512788
C28	C	1.609427	-0.882055	-0.441818
C29	C	1.512313	-0.832725	-0.415675
C30	C	1.538298	-0.930356	-0.512870
C31	C	1.635339	-0.832604	-0.538923
C32	C	1.538237	-0.784371	-0.512827
C33	C	1.441133	-0.882114	-0.486677
C34	C	1.564225	-0.881997	-0.609970
C35	C	1.467044	-0.832690	-0.583864
C36	C	1.538334	-1.014455	-0.512892
C37	C	1.538190	-0.700275	-0.512806
C38	C	1.815818	-0.357753	-0.512848
C39	C	1.934123	-0.357760	-0.512862
C40	C	1.538268	-0.357673	-0.790437
C41	C	1.538299	-0.357645	-0.908743
C42	C	1.538318	-0.164032	-0.512884
C43	C	1.538369	-0.081487	-0.512913
C44	C	1.467181	-0.407228	-0.977970
C45	C	1.564300	-0.425374	-1.048758
C46	C	1.441256	-0.339455	-1.048753
C47	C	1.635468	-0.375826	-0.977972
C48	C	1.512359	-0.289876	-0.977961
C49	C	1.609545	-0.307996	-1.048718
C50	C	1.538187	-0.357749	-0.236275
C51	C	1.538363	-0.357568	-0.117970
H52	H	0.972100	-0.391096	-0.333516
N53	N	1.483216	-0.214030	-0.936720
H54	H	1.409832	-0.200363	-0.962416
H55	H	1.484158	-0.214572	-0.856539
N56	N	1.115533	-0.319415	-0.718716
H57	H	1.088710	-0.356400	-0.772552
H58	H	1.089849	-0.268208	-0.738333
H59	H	1.490351	-0.811080	-0.333541
H60	H	1.717587	-0.391245	-0.947012
N61	N	1.115049	-0.501396	-0.457089
H62	H	1.088744	-0.538967	-0.510346
H63	H	1.195236	-0.500848	-0.457196
N64	N	1.593413	-0.501237	-1.089973
H65	H	1.666212	-0.515335	-1.063119
H66	H	1.539564	-0.538638	-1.064240
H67	H	1.359161	-0.324101	-1.079845
H68	H	1.717431	-0.810858	-0.560975
H69	H	1.359017	-0.903768	-0.464531
H70	H	1.586215	-0.903658	-0.692080
N71	N	0.962212	-0.214168	-0.568334
H72	H	0.987914	-0.176686	-0.514657
H73	H	0.989134	-0.200201	-0.641193
N74	N	1.689331	-0.252417	-1.089635
H75	H	1.762595	-0.266226	-1.063754
H76	H	1.688381	-0.252421	-1.169819
N77	N	0.962565	-0.463175	-0.663326
H78	H	1.024504	-0.488657	-0.698812
H79	H	0.917348	-0.501199	-0.625623
H80	H	1.105105	-0.266108	-0.381761
H81	H	1.669529	-0.903730	-0.381704
H82	H	1.406797	-0.811151	-0.643932
H83	H	1.407086	-0.449224	-0.946907
