data_functionalizedCrystal
_audit_creation_method	'MofGen! by Chris Wilmer'
_symmetry_space_group_name_H-M	'P1'
_symmetry_Int_Tables_number	1
_symmetry_cell_setting	triclinic
loop_
_symmetry_equiv_pos_as_xyz
  x,y,z
_cell_length_a	13.897449
_cell_length_b	12.645330
_cell_length_c	13.897441
_cell_angle_alpha	89.972699
_cell_angle_beta	89.976606
_cell_angle_gamma	90.018519
loop_
_atom_site_label
_atom_site_type_symbol
_atom_site_fract_x
_atom_site_fract_y
_atom_site_fract_z
Zn1	Zn	1.474703	-0.421982	-0.545472
Zn2	Zn	1.474597	-0.599278	-0.384182
Zn3	Zn	1.313392	-0.422031	-0.384183
Zn4	Zn	1.313374	-0.599207	-0.545428
O5	O	1.394016	-0.510624	-0.464816
O6	O	1.609670	-0.445510	-0.524095
O7	O	1.453176	-0.575816	-0.249201
O8	O	1.334842	-0.273677	-0.405597
O9	O	1.609592	-0.575768	-0.405596
O10	O	1.453356	-0.273641	-0.524095
O11	O	1.334739	-0.445594	-0.249201
O12	O	1.178408	-0.445525	-0.405554
O13	O	1.334811	-0.575647	-0.680415
O14	O	1.178394	-0.575695	-0.524020
O15	O	1.453339	-0.445441	-0.680448
O16	O	1.453158	-0.747615	-0.405553
O17	O	1.334708	-0.747563	-0.524019
C18	C	1.143402	-0.510608	-0.464782
C19	C	1.036188	-0.510627	-0.464791
C20	C	0.949118	-0.510630	-0.464807
C21	C	0.839886	-0.510638	-0.464836
C22	C	1.393946	-0.786054	-0.464803
C23	C	1.394004	-0.903884	-0.464829
C24	C	1.319794	-1.071459	-0.539586
C25	C	1.319415	-0.948900	-0.539346
C26	C	1.366485	-0.948483	-0.363172
C27	C	1.366032	-1.071082	-0.363626
C28	C	1.496187	-1.070971	-0.490905
C29	C	1.495561	-0.948364	-0.493127
C30	C	1.645609	-0.510642	-0.464850
C31	C	1.752823	-0.510649	-0.464865
C32	C	1.394085	-0.510531	-0.716409
C33	C	1.394114	-0.510491	-0.823623
C34	C	1.394113	-0.234119	-0.464851
C35	C	1.394154	-0.116289	-0.464866
C36	C	1.394140	-0.510419	-1.019918
C37	C	1.394122	-0.510462	-0.910686
C38	C	1.394003	-0.510641	-0.214202
C39	C	1.394161	-0.510383	-0.106988
H40	H	1.336632	-0.918742	-0.614723
H41	H	1.551587	-1.099960	-0.436483
C42	C	1.272649	-1.171551	-0.250505
C43	C	1.265343	-1.109827	-0.333857
H44	H	1.210484	-1.195460	-0.232128
H45	H	1.312914	-1.230709	-0.262778
H46	H	1.299490	-1.130335	-0.200075
H47	H	1.238508	-1.151045	-0.384289
H48	H	1.225063	-1.050659	-0.321589
C49	C	1.424124	-1.176442	-0.638731
C50	C	1.342808	-1.111169	-0.641680
H51	H	1.438326	-1.200969	-0.701761
H52	H	1.477346	-1.137500	-0.614602
H53	H	1.411839	-1.235137	-0.597841
H54	H	1.355096	-1.052470	-0.682564
H55	H	1.289574	-1.150113	-0.665822
H56	H	1.243773	-0.919667	-0.522094
H57	H	1.244625	-1.102362	-0.522555
H58	H	1.417842	-1.100741	-0.306055
H59	H	1.418928	-0.919327	-0.305978
H60	H	1.553880	-0.917715	-0.442668
H61	H	1.292676	-0.917874	-0.340715
C62	C	1.614192	-0.949139	-0.618776
C63	C	1.523561	-0.909061	-0.594146
H64	H	1.631463	-0.924892	-0.681151
H65	H	1.660508	-0.925485	-0.573383
H66	H	1.612062	-1.024226	-0.618514
H67	H	1.525693	-0.833974	-0.594401
H68	H	1.477234	-0.932710	-0.639552
H69	H	1.521290	-1.101811	-0.563773
