data_functionalizedCrystal
_audit_creation_method	'MofGen! by Chris Wilmer'
_symmetry_space_group_name_H-M	'P1'
_symmetry_Int_Tables_number	1
_symmetry_cell_setting	triclinic
loop_
_symmetry_equiv_pos_as_xyz
  x,y,z
_cell_length_a	12.811438
_cell_length_b	14.971486
_cell_length_c	13.448316
_cell_angle_alpha	90.006811
_cell_angle_beta	95.425923
_cell_angle_gamma	96.168919
loop_
_atom_site_label
_atom_site_type_symbol
_atom_site_fract_x
_atom_site_fract_y
_atom_site_fract_z
O1	O	1.392808	-0.120491	0.042928
O2	O	1.087245	-0.133589	0.015367
O3	O	1.248217	0.003137	0.029893
O4	O	1.231837	-0.257217	0.028402
O5	O	1.248196	0.003146	0.195275
O6	O	1.087225	-0.133580	0.180749
O7	O	1.392788	-0.120483	0.208310
Cu8	Cu	1.240005	-0.127031	0.209630
Cu9	Cu	1.240028	-0.127041	0.014047
O10	O	1.231817	-0.257208	0.193784
C11	C	1.048130	-0.132850	0.094531
C12	C	0.931612	-0.130651	0.084021
C13	C	1.247474	0.036468	0.112518
C14	C	1.245279	0.135771	0.112319
N15	N	1.239995	-0.127023	0.347194
C16	C	0.767392	-0.127555	-0.020931
C17	C	0.876872	-0.129621	-0.011064
C18	C	0.876864	-0.129612	0.169246
C19	C	0.767384	-0.127546	0.159379
C20	C	0.712652	-0.126519	0.064288
C21	C	0.603169	-0.124460	0.054422
C22	C	0.603164	-0.124444	0.234731
C23	C	0.712644	-0.126510	0.244598
C24	C	1.431903	-0.121221	0.129144
C25	C	1.548421	-0.123421	0.139647
C26	C	1.232559	-0.290539	0.111157
C27	C	1.234754	-0.389843	0.111349
C28	C	1.339845	0.192730	0.120849
C29	C	1.337776	0.286035	0.120653
C30	C	1.241140	0.322380	0.111933
C31	C	1.146566	0.265414	0.103399
C32	C	1.148636	0.172111	0.103588
C33	C	1.142258	0.459889	0.103006
C34	C	1.140188	0.553199	0.102819
C35	C	1.331398	0.573814	0.120071
C36	C	1.333468	0.480510	0.120261
C37	C	1.238894	0.423550	0.111728
N38	N	1.240046	-0.127041	-0.123516
C39	C	1.311296	-0.066506	0.405668
C40	C	1.311302	-0.066505	0.509772
C41	C	1.240013	-0.127027	0.555400
C42	C	1.168705	-0.187547	0.496917
C43	C	1.168694	-0.187542	0.392815
C44	C	1.168734	-0.187553	0.713900
C45	C	1.168746	-0.187558	0.818009
C46	C	1.311342	-0.066516	0.830857
C47	C	1.311331	-0.066511	0.726755
C48	C	1.240024	-0.127033	0.668279
H49	H	0.722826	-0.126729	-0.098358
H50	H	0.921448	-0.130437	0.246665
H51	H	0.558606	-0.123628	-0.023006
H52	H	0.921437	-0.130465	-0.080458
O53	O	1.056803	0.116740	0.095131
C54	C	0.948215	-0.000616	-0.000319
C55	C	1.052246	0.062052	0.009133
H56	H	0.944507	-0.044861	-0.069831
H57	H	0.878748	0.041340	-0.006650
H58	H	0.944408	-0.044767	0.068582
H59	H	1.056157	0.106215	-0.059746
H60	H	1.121664	0.020043	0.015512
O61	O	1.380588	-0.007628	0.361508
C62	C	1.522061	0.112396	0.385254
C63	C	1.443630	0.045776	0.435389
H64	H	1.573067	0.155579	0.444965
H65	H	1.476745	0.157337	0.332475
H66	H	1.574487	0.073542	0.341200
H67	H	1.391184	0.084557	0.479496
H68	H	1.489012	0.000836	0.488111
O69	O	0.765972	-0.127552	0.336889
C70	C	0.934635	-0.130678	0.432003
C71	C	0.874374	-0.129517	0.327422
H72	H	1.022292	-0.132248	0.424384
H73	H	0.903659	-0.192811	0.473674
H74	H	0.922567	-0.067765	0.475381
H75	H	0.886417	-0.192388	0.283961
H76	H	0.905362	-0.067344	0.285827
O77	O	1.099380	-0.246368	0.862169
C78	C	0.957950	-0.366432	0.838447
C79	C	1.036439	-0.299870	0.788307
H80	H	0.907057	-0.409718	0.778754
H81	H	0.905422	-0.327620	0.882434
H82	H	1.003324	-0.411278	0.891292
H83	H	0.991151	-0.255007	0.735416
H84	H	1.088966	-0.338738	0.744383
O85	O	1.099612	-0.246381	0.656998
C86	C	1.077412	-0.368476	0.537488
C87	C	1.155799	-0.301890	0.601860
H88	H	1.122809	-0.413385	0.492908
H89	H	1.024944	-0.329683	0.483968
H90	H	1.026442	-0.411696	0.587995
H91	H	1.206839	-0.258653	0.551431
H92	H	1.208194	-0.340738	0.655388
H93	H	0.558583	-0.123604	0.304123
O94	O	1.433811	0.157577	0.129282
C95	C	1.623246	0.187883	0.146419
C96	C	1.516901	0.227809	0.136858
H97	H	1.690453	0.244646	0.152568
H98	H	1.629073	0.144741	0.077716
H99	H	1.628935	0.144693	0.216129
H100	H	1.511141	0.271039	0.067189
H101	H	1.511120	0.270899	0.205612
O102	O	1.380426	-0.007632	0.566601
C103	C	1.402662	0.114402	0.686190
C104	C	1.324258	0.047789	0.621870
H105	H	1.357281	0.159215	0.730907
H106	H	1.453599	0.157716	0.635734
H107	H	1.455160	0.075541	0.739601
H108	H	1.271691	0.086579	0.568452
H109	H	1.273395	0.004476	0.672386
H110	H	1.110654	-0.236821	0.534072
H111	H	1.414782	0.332408	0.127601
O112	O	1.427430	0.445351	0.128700
C113	C	1.616867	0.475639	0.145854
C114	C	1.510529	0.515575	0.136282
H115	H	1.684081	0.532396	0.152008
H116	H	1.622696	0.432495	0.077153
H117	H	1.622543	0.432449	0.215565
H118	H	1.504782	0.558806	0.066612
H119	H	1.504746	0.558668	0.205033
H120	H	1.065246	0.413514	0.096056
H121	H	1.408404	0.620195	0.127015
O122	O	1.046226	0.588358	0.094280
C123	C	0.856789	0.558070	0.077211
C124	C	0.963127	0.518133	0.086857
H125	H	0.789576	0.501313	0.071227
H126	H	0.850998	0.601196	0.007455
H127	H	0.851076	0.601277	0.145888
H128	H	0.968912	0.474886	0.018233
H129	H	0.968872	0.475058	0.156654
H130	H	1.067883	0.295013	0.096292
O131	O	1.380568	-0.007600	0.887538
C132	C	1.441869	0.147669	0.924969
C133	C	1.363424	0.081055	0.860692
H134	H	1.428021	0.219360	0.903302
H135	H	1.525961	0.135723	0.912043
H136	H	1.429650	0.137232	1.007209
H137	H	1.375547	0.091452	0.778431
H138	H	1.279361	0.093018	0.873703
H139	H	1.369386	-0.017235	0.689606
H140	H	1.110633	-0.236820	0.345205
