data_functionalizedCrystal
_audit_creation_method	'MofGen! by Chris Wilmer'
_symmetry_space_group_name_H-M	'P1'
_symmetry_Int_Tables_number	1
_symmetry_cell_setting	triclinic
loop_
_symmetry_equiv_pos_as_xyz
  x,y,z
_cell_length_a	19.077312
_cell_length_b	14.909042
_cell_length_c	19.076919
_cell_angle_alpha	90.890210
_cell_angle_beta	85.331053
_cell_angle_gamma	84.564347
loop_
_atom_site_label
_atom_site_type_symbol
_atom_site_fract_x
_atom_site_fract_y
_atom_site_fract_z
Zn1	Zn	1.081956	-0.432047	0.335033
Zn2	Zn	1.581956	0.067953	0.835033
Zn3	Zn	1.093427	-0.577079	0.210359
Zn4	Zn	1.593427	-0.077079	0.710359
Zn5	Zn	0.968268	-0.420430	0.222445
Zn6	Zn	1.468268	0.079570	0.722445
Zn7	Zn	0.970857	-0.577041	0.332943
Zn8	Zn	1.470857	-0.077041	0.832943
O9	O	1.028627	-0.501649	0.275195
O10	O	1.528627	-0.001649	0.775195
O11	O	1.182353	-0.456163	0.314311
O12	O	1.682353	0.043837	0.814311
O13	O	1.080542	-0.551452	0.113541
O14	O	1.580542	-0.051452	0.613541
O15	O	0.977465	-0.295732	0.243312
O16	O	1.477465	0.204268	0.743312
O17	O	1.190781	-0.562717	0.222714
O18	O	1.690781	-0.062717	0.722714
O19	O	1.060991	-0.304267	0.326030
O20	O	1.560991	0.195733	0.826030
O21	O	0.988588	-0.436363	0.122421
O22	O	1.488588	0.063637	0.622421
O23	O	0.869736	-0.436327	0.241286
O24	O	1.369736	0.063673	0.741286
O25	O	0.981877	-0.562654	0.431641
O26	O	1.481877	-0.062654	0.931641
O27	O	0.871638	-0.551389	0.322469
O28	O	1.371638	-0.051389	0.822469
O29	O	1.063502	-0.456127	0.433176
O30	O	1.563502	0.043873	0.933176
O31	O	1.083052	-0.703313	0.220688
O32	O	1.583052	-0.203313	0.720688
O33	O	0.993000	-0.703285	0.310750
O34	O	1.493000	-0.203285	0.810750
C35	C	0.845050	-0.492594	0.282963
C36	C	1.345050	0.007406	0.782963
C37	C	0.766515	-0.488743	0.286301
C38	C	1.266515	0.011257	0.786301
C39	C	0.323974	-0.461049	0.310258
C40	C	0.823974	0.038951	0.810258
C41	C	0.397766	-0.464684	0.307116
C42	C	0.897766	0.035316	0.807116
C43	C	0.439040	-0.521880	0.257787
C44	C	0.939040	-0.021880	0.757787
C45	C	0.406517	-0.575452	0.211601
C46	C	0.906517	-0.075452	0.711601
C47	C	0.332726	-0.571820	0.214747
C48	C	0.832726	-0.071820	0.714747
C49	C	0.660202	-0.538683	0.243261
C50	C	1.160202	-0.038683	0.743261
C51	C	0.733998	-0.542308	0.240118
C52	C	1.233998	-0.042308	0.740118
C53	C	0.725242	-0.431541	0.335634
C54	C	1.225242	0.068459	0.835634
C55	C	0.651449	-0.427911	0.338772
C56	C	1.151449	0.072089	0.838772
C57	C	0.618933	-0.481486	0.292589
C58	C	1.118933	0.018514	0.792589
N59	N	0.514468	-0.525595	0.254573
N60	N	1.014468	-0.025595	0.754573
N61	N	0.543507	-0.477775	0.295807
N62	N	1.043507	0.022225	0.795807
C63	C	1.039571	-0.736033	0.264195
C64	C	1.539571	-0.236033	0.764195
C65	C	1.044316	-0.836308	0.259510
C66	C	1.544316	-0.336308	0.759510
C67	C	0.959378	-1.024763	0.344414
C68	C	1.459378	-0.524763	0.844414
C69	C	0.963835	-1.118980	0.340015
C70	C	1.463835	-0.618980	0.840015
C71	C	1.057682	-1.118960	0.246309
C72	C	1.557682	-0.618960	0.746309
C73	C	1.053225	-1.024743	0.250708
C74	C	1.553225	-0.524743	0.750708
C75	C	1.004073	-0.977648	0.299763
C76	C	1.504073	-0.477648	0.799763
C77	C	0.999620	-0.883429	0.304166
C78	C	1.499620	-0.383429	0.804166
C79	C	1.093463	-0.883411	0.210457
C80	C	1.593463	-0.383411	0.710457
C81	C	1.097919	-0.977628	0.206057
C82	C	1.597919	-0.477628	0.706057
C83	C	1.212921	-0.510740	0.267397
C84	C	1.712921	-0.010740	0.767397
C85	C	1.291456	-0.514614	0.264074
C86	C	1.791456	-0.014614	0.764074
C87	C	1.021699	-0.510682	0.458642
C88	C	1.521699	-0.010682	0.958642
C89	C	1.018746	-0.514531	0.536816
C90	C	1.518746	-0.014531	1.036816
C91	C	1.017659	-0.266352	0.286252
C92	C	1.517659	0.233648	0.786252
C93	C	1.012986	-0.166082	0.290964
C94	C	1.512986	0.333918	0.790964
C95	C	1.035566	-0.492588	0.092463
C96	C	1.535566	0.007412	0.592463
C97	C	1.038643	-0.488491	0.014296
C98	C	1.538643	0.011509	0.514296
C99	C	1.059854	-0.460879	0.574343
C100	C	1.559854	0.039121	1.074343
C101	C	1.057071	-0.464492	0.647796
C102	C	1.557071	0.035508	1.147796
C103	C	1.013184	-0.521763	0.683721
C104	C	1.513184	-0.021763	1.183721
C105	C	0.972071	-0.575417	0.646189
C106	C	1.472071	-0.075417	1.146189
C107	C	0.974851	-0.571798	0.572737
C108	C	1.474851	-0.071798	1.072737
C109	C	1.000310	-0.538527	0.903312
C110	C	1.500310	-0.038527	1.403312
C111	C	0.997535	-0.542143	0.976769
C112	C	1.497535	-0.042143	1.476769
C113	C	1.082535	-0.431217	0.978371
C114	C	1.582535	0.068783	1.478371
C115	C	1.085314	-0.427608	0.904917
C116	C	1.585314	0.072392	1.404917
C117	C	1.044198	-0.481259	0.867392
C118	C	1.544198	0.018741	1.367392
N119	N	1.010340	-0.525459	0.758802
N120	N	1.510340	-0.025459	1.258802
N121	N	1.047039	-0.477557	0.792313
N122	N	1.547039	0.022443	1.292313
H123	H	0.633736	-0.582305	0.205654
H124	H	1.133736	-0.082305	0.705654
H125	H	0.919361	-0.986417	0.384361
H126	H	1.419361	-0.486417	0.884361
H127	H	1.129858	-0.845040	0.174101
H128	H	1.629858	-0.345040	0.674101
H129	H	1.121054	-0.380975	0.875672
H130	H	1.621054	0.119025	1.375672
H131	H	1.095595	-0.414247	0.545098
H132	H	1.595595	0.085753	1.045098
H133	H	0.927442	-1.157337	0.376376
H134	H	1.427442	-0.657337	0.876376
H135	H	0.424239	-0.421069	0.344726
H136	H	0.924239	0.078931	0.844726
H137	H	0.290374	-0.414468	0.350423
H138	H	0.790374	0.085532	0.850423
H139	H	1.137936	-1.015986	0.166116
H140	H	1.637936	-0.515986	0.666116
H141	H	1.090548	-0.420806	0.678347
H142	H	1.590548	0.079194	1.178347
H143	H	0.941368	-0.615478	0.542185
H144	H	1.441368	-0.115478	1.042185
H145	H	1.097693	-1.157321	0.206364
H146	H	1.597693	-0.657321	0.706364
H147	H	0.959599	-0.845085	0.344110
H148	H	1.459599	-0.345085	0.844110
H149	H	1.116008	-0.387537	1.008932
H150	H	1.616008	0.112463	1.508932
H151	H	0.961795	-0.588782	1.006017
H152	H	1.461795	-0.088782	1.506017
H153	H	0.966842	-0.582227	0.872767
H154	H	1.466842	-0.082227	1.372767
H155	H	0.751724	-0.387925	0.373234
H156	H	1.251724	0.112075	0.873234
H157	H	0.936334	-0.622044	0.675445
H158	H	1.436334	-0.122044	1.175445
H159	H	0.306251	-0.615441	0.177141
H160	H	0.806251	-0.115441	0.677141
H161	H	0.617849	-0.381340	0.378944
H162	H	1.117849	0.118660	0.878944
H163	H	0.440128	-0.622026	0.171439
H164	H	0.940128	-0.122026	0.671439
H165	H	0.767601	-0.588887	0.199946
H166	H	1.267601	-0.088887	0.699946
