data_functionalizedCrystal
_audit_creation_method	'MofGen! by Chris Wilmer'
_symmetry_space_group_name_H-M	'P1'
_symmetry_Int_Tables_number	1
_symmetry_cell_setting	triclinic
loop_
_symmetry_equiv_pos_as_xyz
  x,y,z
_cell_length_a	14.519709
_cell_length_b	8.140239
_cell_length_c	9.065215
_cell_angle_alpha	90.000105
_cell_angle_beta	95.652545
_cell_angle_gamma	90.002892
loop_
_atom_site_label
_atom_site_type_symbol
_atom_site_fract_x
_atom_site_fract_y
_atom_site_fract_z
O1	O	1.225280	-0.136387	-0.193392
O2	O	1.558613	0.196947	0.139941
O3	O	1.891947	0.530280	0.473274
O4	O	0.956970	-0.136435	-0.216167
O5	O	1.290303	0.196898	0.117166
O6	O	1.623636	0.530231	0.450500
O7	O	1.096672	-0.136413	0.009967
O8	O	1.430006	0.196920	0.343300
O9	O	1.763339	0.530254	0.676634
O10	O	1.085578	-0.136409	-0.419526
O11	O	1.418911	0.196925	-0.086193
O12	O	1.752244	0.530258	0.247140
O13	O	1.096664	0.136814	0.009970
O14	O	1.429998	0.470147	0.343303
O15	O	1.763331	0.803481	0.676636
O16	O	0.956962	0.136792	-0.216164
O17	O	1.290295	0.470125	0.117169
O18	O	1.623629	0.803458	0.450502
O19	O	1.225272	0.136841	-0.193390
O20	O	1.558606	0.470174	0.139944
O21	O	1.891939	0.803507	0.473277
Zn22	Zn	1.091116	0.180197	-0.204777
Zn23	Zn	1.424449	0.513530	0.128557
Zn24	Zn	1.757783	0.846864	0.461890
Zn25	Zn	1.091126	-0.179792	-0.204780
Zn26	Zn	1.424460	0.153542	0.128553
Zn27	Zn	1.757793	0.486875	0.461887
O28	O	1.085570	0.136818	-0.419524
O29	O	1.418903	0.470152	-0.086190
O30	O	1.752237	0.803485	0.247143
C31	C	0.922598	0.000172	-0.215104
C32	C	1.255932	0.333505	0.118229
C33	C	1.589265	0.666839	0.451562
C34	C	0.820194	0.000153	-0.211924
C35	C	1.153527	0.333486	0.121410
C36	C	1.486861	0.666819	0.454743
C37	C	1.095603	0.000196	0.064935
C38	C	1.428936	0.333529	0.398268
C39	C	1.762269	0.666863	0.731602
C40	C	1.092416	0.000182	0.228718
C41	C	1.425750	0.333516	0.562052
C42	C	1.759083	0.666849	0.895385
C43	C	0.445212	0.000227	-0.200214
C44	C	0.778546	0.333561	0.133119
C45	C	1.111879	0.666894	0.466452
C46	C	0.549544	0.000206	-0.203466
C47	C	0.882877	0.333539	0.129867
C48	C	1.216211	0.666873	0.463201
C49	C	0.632700	0.000188	-0.206069
C50	C	0.966033	0.333522	0.127265
C51	C	1.299366	0.666855	0.460598
C52	C	0.737038	0.000170	-0.209321
C53	C	1.070371	0.333504	0.124012
C54	C	1.403705	0.666837	0.457346
C55	C	1.259644	0.000230	-0.194452
C56	C	1.592977	0.333563	0.138881
C57	C	1.926310	0.666896	0.472214
C58	C	1.362048	0.000238	-0.197633
C59	C	1.695382	0.333571	0.135700
C60	C	2.028715	0.666905	0.469034
N61	N	1.091116	0.425879	-0.204773
N62	N	1.424449	0.759213	0.128560
N63	N	1.757782	1.092546	0.461893
N64	N	1.091134	-0.425474	-0.204772
N65	N	1.424467	-0.092141	0.128562
N66	N	1.757800	0.241192	0.461895
C67	C	1.086639	0.000194	0.525508
C68	C	1.419973	0.333527	0.858842
C69	C	1.753306	0.666860	1.192175
C70	C	1.089825	0.000161	0.361725
C71	C	1.423159	0.333494	0.695058
C72	C	1.756492	0.666827	1.028392
