data_functionalizedCrystal
_audit_creation_method	'MofGen! by Chris Wilmer'
_symmetry_space_group_name_H-M	'P1'
_symmetry_Int_Tables_number	1
_symmetry_cell_setting	triclinic
loop_
_symmetry_equiv_pos_as_xyz
  x,y,z
_cell_length_a	12.827892
_cell_length_b	12.827893
_cell_length_c	12.827885
_cell_angle_alpha	90.021379
_cell_angle_beta	89.970214
_cell_angle_gamma	89.986589
loop_
_atom_site_label
_atom_site_type_symbol
_atom_site_fract_x
_atom_site_fract_y
_atom_site_fract_z
Zn1	Zn	-0.416038	-1.597672	-0.590902
Zn2	Zn	-0.590815	-1.597565	-0.416162
Zn3	Zn	-0.416083	-1.422912	-0.416170
Zn4	Zn	-0.590731	-1.422898	-0.590857
O5	O	-0.503417	-1.510262	-0.503523
O6	O	-0.439238	-1.743893	-0.567738
O7	O	-0.567690	-1.574358	-0.269927
O8	O	-0.269841	-1.446145	-0.439371
O9	O	-0.567647	-1.743815	-0.439358
O10	O	-0.269808	-1.574540	-0.567746
O11	O	-0.439315	-1.446042	-0.269933
O12	O	-0.439234	-1.276674	-0.439327
O13	O	-0.567504	-1.446121	-0.737099
O14	O	-0.567548	-1.276664	-0.567668
O15	O	-0.439157	-1.574526	-0.737132
O16	O	-0.737040	-1.574345	-0.439314
O17	O	-0.736978	-1.446018	-0.567661
C18	C	-0.503387	-1.238752	-0.503494
C19	C	-0.503400	-1.122599	-0.503506
C20	C	-0.774927	-1.510196	-0.503504
C21	C	-0.891080	-1.510264	-0.503531
C22	C	-0.566991	-1.070837	-0.566914
C23	C	-0.567005	-0.950786	-0.566928
C24	C	-0.942860	-1.573840	-0.440092
C25	C	-1.062910	-1.573911	-0.440118
C26	C	-0.230846	-1.510356	-0.503564
C27	C	-0.114693	-1.510396	-0.503582
C28	C	-0.503316	-1.510334	-0.776093
C29	C	-0.503274	-1.510365	-0.892246
C30	C	-0.503438	-0.782832	-0.503544
C31	C	-0.503426	-0.898985	-0.503532
C32	C	-0.439737	-1.446890	-0.944034
C33	C	-0.439691	-1.446920	-1.064084
C34	C	-0.503441	-1.510250	-0.232013
C35	C	-0.503190	-1.510422	-0.115860
H36	H	-0.621419	-1.115398	-0.621193
H37	H	-0.557584	-1.564772	-1.071331
H38	H	-1.107441	-1.628338	-0.385802
H39	H	-0.621451	-0.906272	-0.621211
H40	H	-0.448984	-0.943493	-0.449239
H41	H	-0.385379	-1.392520	-0.899494
H42	H	-0.448964	-1.078038	-0.449235
H43	H	-1.070171	-1.455959	-0.557894
H44	H	-0.935625	-1.455892	-0.557868
H45	H	-0.898317	-1.628221	-0.385762
H46	H	-0.385291	-1.392581	-1.108620
H47	H	-0.557637	-1.564729	-0.936786
