data_functionalizedCrystal
_audit_creation_method	'MofGen! by Chris Wilmer'
_symmetry_space_group_name_H-M	'P1'
_symmetry_Int_Tables_number	1
_symmetry_cell_setting	triclinic
loop_
_symmetry_equiv_pos_as_xyz
  x,y,z
_cell_length_a	10.723024
_cell_length_b	15.995350
_cell_length_c	9.798715
_cell_angle_alpha	89.999084
_cell_angle_beta	89.996609
_cell_angle_gamma	83.980122
loop_
_atom_site_label
_atom_site_type_symbol
_atom_site_fract_x
_atom_site_fract_y
_atom_site_fract_z
O1	O	1.655689	0.117435	-0.113475
O2	O	2.155689	0.617435	0.386525
O3	O	1.292393	0.128675	-0.113479
O4	O	1.792393	0.628675	0.386521
O5	O	1.483972	0.001224	-0.113475
O6	O	1.983972	0.501224	0.386525
O7	O	1.464110	0.244886	-0.113478
O8	O	1.964110	0.744886	0.386522
O9	O	1.483958	0.001224	0.113507
O10	O	1.983958	0.501224	0.613507
O11	O	1.292379	0.128675	0.113503
O12	O	1.792379	0.628675	0.613503
O13	O	1.655675	0.117434	0.113507
O14	O	2.155675	0.617434	0.613507
Zn15	Zn	1.474025	0.123055	0.149544
Zn16	Zn	1.974025	0.623055	0.649544
Zn17	Zn	1.474044	0.123055	-0.149515
Zn18	Zn	1.974044	0.623055	0.350485
O19	O	1.464096	0.244885	0.113504
O20	O	1.964096	0.744885	0.613504
C21	C	1.245897	0.127857	0.000012
C22	C	1.745897	0.627857	0.500012
C23	C	1.107374	0.125410	0.000010
C24	C	1.607374	0.625410	0.500010
C25	C	1.031482	0.196725	0.000008
C26	C	1.531482	0.696725	0.500008
C27	C	0.888310	0.194197	0.000007
C28	C	1.388310	0.694197	0.500007
C29	C	1.483144	-0.029975	0.000013
C30	C	1.983144	0.470025	0.500013
C31	C	1.480682	-0.122940	0.000005
C32	C	1.980682	0.377060	0.500005
C33	C	1.471842	-0.460738	0.000010
C34	C	1.971842	0.039262	0.500010
C35	C	1.335403	-0.414088	-0.000501
C36	C	1.835403	0.085912	0.499499
C37	C	1.337865	-0.317383	0.000011
C38	C	1.837865	0.182617	0.500011
C39	C	1.476227	-0.293152	0.000007
C40	C	1.976227	0.206848	0.500007
C41	C	1.543515	-0.333843	0.129623
C42	C	2.043515	0.166157	0.629623
C43	C	1.540088	-0.430499	0.129732
C44	C	2.040088	0.069501	0.629732
C45	C	1.542922	-0.430840	-0.128390
C46	C	2.042922	0.069160	0.371610
C47	C	1.542890	-0.333895	-0.130103
C48	C	2.042890	0.166105	0.369897
C49	C	1.478712	-0.198441	0.000010
C50	C	1.978712	0.301559	0.500010
C51	C	1.469360	-0.555450	0.000016
C52	C	1.969360	-0.055450	0.500016
C53	C	1.702171	0.118252	0.000014
C54	C	2.202171	0.618252	0.500014
C55	C	1.840694	0.120700	0.000007
C56	C	2.340694	0.620700	0.500007
C57	C	1.464924	0.276085	0.000013
C58	C	1.964924	0.776085	0.500013
C59	C	1.467386	0.369049	0.000011
C60	C	1.967386	0.869049	0.500011
N61	N	1.474021	0.123054	0.353643
N62	N	1.974021	0.623054	0.853643
N63	N	1.474057	0.123049	-0.353615
N64	N	1.974057	0.623049	0.146385
C65	C	1.554463	0.069305	0.421422
C66	C	2.054463	0.569305	0.921422
C67	C	1.554483	0.069302	0.578584
C68	C	2.054483	0.569302	1.078584
H69	H	1.284971	-0.289265	-0.092903
H70	H	1.784971	0.210735	0.407097
H71	H	1.623314	0.023287	0.363100
H72	H	2.123314	0.523287	0.863100
H73	H	1.405162	0.169065	0.411967
H74	H	1.905162	0.669065	0.911967
H75	H	0.905898	0.059646	-0.000001
H76	H	1.405898	0.559646	0.499999
H77	H	1.072501	0.259651	0.000015
H78	H	1.572501	0.759651	0.500015
H79	H	1.066355	0.062483	-0.000024
H80	H	1.566355	0.562483	0.499976
H81	H	1.280875	-0.432932	-0.093451
H82	H	1.780875	0.067068	0.406549
H83	H	1.281106	-0.433994	0.091931
H84	H	1.781106	0.066006	0.591931
H85	H	1.623357	0.023288	0.636871
H86	H	2.123357	0.523288	1.136871
H87	H	0.823099	0.255248	-0.000000
H88	H	1.323099	0.755248	0.500000
H89	H	1.284604	-0.289825	0.093082
H90	H	1.784604	0.210175	0.593082
H91	H	1.491009	-0.449082	0.226625
H92	H	1.991009	0.050918	0.726625
H93	H	1.640259	-0.462172	0.135610
H94	H	2.140259	0.037828	0.635610
H95	H	1.496768	-0.305731	0.226082
H96	H	1.996768	0.194269	0.726082
H97	H	1.645166	-0.319134	0.134441
H98	H	2.145166	0.180866	0.634441
H99	H	1.498320	-0.451636	-0.226631
H100	H	1.998320	0.048364	0.273369
H101	H	1.643790	-0.317954	-0.137932
H102	H	2.143790	0.182046	0.362068
H103	H	1.405188	0.169072	0.588108
H104	H	1.905188	0.669072	1.088108
H105	H	1.643518	-0.462023	-0.129264
H106	H	2.143518	0.037977	0.370736
H107	H	1.493694	-0.306929	-0.225989
H108	H	1.993694	0.193071	0.274011
