data_functionalizedCrystal
_audit_creation_method	'MofGen! by Chris Wilmer'
_symmetry_space_group_name_H-M	'P1'
_symmetry_Int_Tables_number	1
_symmetry_cell_setting	triclinic
loop_
_symmetry_equiv_pos_as_xyz
  x,y,z
_cell_length_a	10.654541
_cell_length_b	14.519709
_cell_length_c	9.730217
_cell_angle_alpha	90.010448
_cell_angle_beta	90.002044
_cell_angle_gamma	84.082037
loop_
_atom_site_label
_atom_site_type_symbol
_atom_site_fract_x
_atom_site_fract_y
_atom_site_fract_z
O1	O	1.666596	0.129528	0.114251
O2	O	1.300998	0.141872	0.114263
O3	O	1.493490	0.001512	0.114245
O4	O	1.474103	0.269888	0.114270
O5	O	1.493479	0.001494	-0.114335
O6	O	1.300987	0.141854	-0.114317
O7	O	1.666585	0.129511	-0.114329
Zn8	Zn	1.483784	0.135680	-0.150615
Zn9	Zn	1.483798	0.135703	0.150549
O10	O	1.474093	0.269871	-0.114310
C11	C	1.254203	0.140957	-0.000025
C12	C	1.114786	0.138247	-0.000021
C13	C	1.085201	0.306085	0.000012
C14	C	1.004912	0.388727	0.000034
C15	C	0.873919	0.386175	0.000035
C16	C	0.823213	0.300972	0.000010
C17	C	0.903502	0.218330	-0.000012
C18	C	1.034496	0.220891	-0.000009
C19	C	0.933086	0.050493	-0.000055
C20	C	1.064080	0.053043	-0.000046
C21	C	0.882380	-0.034710	-0.000080
C22	C	0.962669	-0.117354	-0.000092
C23	C	1.093670	-0.114798	-0.000091
C24	C	1.144369	-0.029599	-0.000068
C25	C	1.492581	-0.032862	-0.000046
C26	C	1.489874	-0.135257	-0.000046
C27	C	1.479906	-0.510204	-0.000010
C28	C	1.482674	-0.405882	-0.000021
C29	C	1.484890	-0.322734	-0.000030
C30	C	1.487658	-0.218405	-0.000037
C31	C	1.713380	0.130425	-0.000037
C32	C	1.852797	0.133135	-0.000033
C33	C	1.475002	0.304244	-0.000017
C34	C	1.477709	0.406639	-0.000007
N35	N	1.483809	0.135712	0.356086
N36	N	1.483784	0.135663	-0.356151
C37	C	1.654571	0.011608	0.643794
C38	C	1.739977	-0.050404	0.571826
C39	C	1.739997	-0.050379	0.427946
C40	C	1.654600	0.011663	0.356031
C41	C	1.569194	0.073675	0.427998
C42	C	1.569185	0.073645	0.571881
C43	C	1.398403	0.197724	0.428053
C44	C	1.398387	0.197705	0.571933
C45	C	1.313006	0.259766	0.356138
C46	C	1.227604	0.321784	0.428105
C47	C	1.227588	0.321757	0.571993
C48	C	1.312981	0.259717	0.643900
H49	H	1.159035	-0.182096	-0.000114
Br50	Br	1.322145	-0.026124	-0.000055
Br51	Br	1.855861	-0.134607	0.669426
H52	H	1.654611	0.011672	0.238876
Br53	Br	1.855895	-0.134546	0.330272
Br54	Br	1.313020	0.259796	0.160871
Br55	Br	1.111709	0.405967	0.330503
H56	H	1.158036	0.372251	0.630582
H57	H	0.808546	0.453470	0.000043
H58	H	1.654573	0.011589	0.760948
Br59	Br	1.073732	0.504355	0.000064
Br60	Br	1.262978	0.309555	0.000044
Br61	Br	0.704602	-0.038176	-0.000090
Br62	Br	0.645434	0.297510	-0.000019
Br63	Br	0.893848	-0.232975	-0.000143
Br64	Br	1.312975	0.259681	0.839167
