data_functionalizedCrystal
_audit_creation_method	'MofGen! by Chris Wilmer'
_symmetry_space_group_name_H-M	'P1'
_symmetry_Int_Tables_number	1
_symmetry_cell_setting	triclinic
loop_
_symmetry_equiv_pos_as_xyz
  x,y,z
_cell_length_a	9.065215
_cell_length_b	10.654550
_cell_length_c	9.130313
_cell_angle_alpha	89.995631
_cell_angle_beta	89.997021
_cell_angle_gamma	84.749814
loop_
_atom_site_label
_atom_site_type_symbol
_atom_site_fract_x
_atom_site_fract_y
_atom_site_fract_z
O1	O	1.959395	0.184142	-0.121782
O2	O	2.459395	0.684142	0.378218
O3	O	1.530027	0.199251	-0.121789
O4	O	2.030027	0.699251	0.378211
O5	O	1.754583	0.008996	-0.121776
O6	O	2.254583	0.508996	0.378224
O7	O	1.734839	0.374397	-0.121795
O8	O	2.234839	0.874397	0.378205
O9	O	1.754568	0.008991	0.121823
O10	O	2.254568	0.508991	0.621823
O11	O	1.530012	0.199245	0.121810
O12	O	2.030012	0.699245	0.621810
O13	O	1.959380	0.184136	0.121817
O14	O	2.459380	0.684136	0.621817
Cu15	Cu	1.744694	0.191690	0.144056
Cu16	Cu	2.244694	0.691690	0.644056
Cu17	Cu	1.744713	0.191697	-0.144028
Cu18	Cu	2.244713	0.691697	0.355972
O19	O	1.734824	0.374391	0.121804
O20	O	2.234824	0.874391	0.621804
C21	C	1.753126	-0.037810	0.000023
C22	C	2.253126	0.462190	0.500023
C23	C	1.748788	-0.177271	0.000020
C24	C	2.248788	0.322729	0.500020
C25	C	1.475041	0.197797	0.000010
C26	C	1.975041	0.697797	0.500010
C27	C	1.311221	0.193458	0.000008
C28	C	1.811221	0.693458	0.500008
C29	C	1.881003	-0.256234	0.000022
C30	C	2.381003	0.243766	0.500022
C31	C	1.876919	-0.387271	0.000004
C32	C	2.376919	0.112729	0.500004
C33	C	1.608394	-0.360369	-0.000011
C34	C	2.108394	0.139631	0.499989
C35	C	1.612479	-0.229334	-0.000003
C36	C	2.112479	0.270666	0.499997
C37	C	2.014366	0.185590	0.000015
C38	C	2.514366	0.685590	0.500015
C39	C	2.178186	0.189930	0.000008
C40	C	2.678186	0.689930	0.500008
C41	C	1.736281	0.421198	0.000002
C42	C	2.236281	0.921198	0.500002
C43	C	1.740619	0.560658	-0.000005
C44	C	2.240619	1.060658	0.499995
N45	N	1.744692	0.191685	0.346679
N46	N	2.244692	0.691685	0.846679
N47	N	1.744726	0.191693	-0.346651
N48	N	2.244726	0.691693	0.153349
C49	C	1.844160	0.107476	0.423336
C50	C	2.344160	0.607476	0.923336
C51	C	1.844174	0.107476	0.576673
C52	C	2.344174	0.607476	1.076673
C53	C	1.645249	0.275905	0.576681
C54	C	2.145249	0.775905	1.076681
C55	C	1.645228	0.275898	0.423347
C56	C	2.145228	0.775898	0.923347
H57	H	1.991995	-0.213848	0.000038
H58	H	2.491995	0.286152	0.500038
Cl59	Cl	1.969220	0.001607	0.673038
Cl60	Cl	2.469220	0.501607	1.173038
H61	H	1.925147	0.038903	0.360916
H62	H	2.425147	0.538903	0.860916
H63	H	1.984582	-0.451558	0.000002
H64	H	2.484582	0.048442	0.500002
Cl65	Cl	1.446252	-0.130059	-0.000018
Cl66	Cl	1.946252	0.369941	0.499982
Cl67	Cl	1.520220	0.381773	0.673071
Cl68	Cl	2.020220	0.881773	1.173071
H69	H	1.564223	0.344471	0.360929
H70	H	2.064223	0.844471	0.860929
H71	H	1.497415	-0.402775	-0.000027
H72	H	1.997415	0.097225	0.499973
