data_functionalizedCrystal
_audit_creation_method	'MofGen! by Chris Wilmer'
_symmetry_space_group_name_H-M	'P1'
_symmetry_Int_Tables_number	1
_symmetry_cell_setting	triclinic
loop_
_symmetry_equiv_pos_as_xyz
  x,y,z
_cell_length_a	14.908783
_cell_length_b	16.959454
_cell_length_c	14.908308
_cell_angle_alpha	86.730321
_cell_angle_beta	90.211273
_cell_angle_gamma	93.311155
loop_
_atom_site_label
_atom_site_type_symbol
_atom_site_fract_x
_atom_site_fract_y
_atom_site_fract_z
Zn1	Zn	1.345315	-0.276463	0.587848
Zn2	Zn	1.353896	-0.400620	0.437496
Zn3	Zn	1.203629	-0.275608	0.428819
Zn4	Zn	1.194922	-0.415756	0.579118
O5	O	1.274441	-0.342112	0.508320
O6	O	1.472282	-0.286957	0.575188
O7	O	1.341198	-0.377345	0.310521
O8	O	1.222476	-0.165109	0.449936
O9	O	1.478586	-0.378174	0.464725
O10	O	1.326573	-0.165738	0.566774
O11	O	1.230797	-0.285499	0.304146
O12	O	1.076646	-0.300175	0.441472
O13	O	1.207637	-0.403971	0.706100
O14	O	1.070249	-0.403141	0.551896
O15	O	1.318131	-0.301633	0.712513
O16	O	1.332756	-0.513240	0.456260
O17	O	1.215958	-0.524361	0.560310
C18	C	1.040822	-0.353209	0.494796
C19	C	0.940878	-0.357976	0.489031
C20	C	0.746495	-0.272097	0.593400
C21	C	0.652588	-0.276574	0.587987
C22	C	0.659156	-0.371402	0.472788
C23	C	0.753062	-0.366925	0.478201
C24	C	0.796728	-0.317272	0.538510
C25	C	0.890637	-0.312800	0.543927
C26	C	0.897203	-0.407623	0.428724
C27	C	0.803296	-0.412099	0.423311
C28	C	1.274366	-0.547481	0.508301
C29	C	1.274415	-0.635336	0.508327
C30	C	1.213708	-1.012626	0.562497
C31	C	1.335419	-1.000987	0.454249
C32	C	1.335388	-0.918443	0.454239
C33	C	1.274515	-0.882986	0.508358
C34	C	1.213673	-0.930074	0.562487
C35	C	1.396222	-0.871348	0.400104
C36	C	1.396193	-0.788798	0.400091
C37	C	1.335324	-0.753340	0.454215
C38	C	1.274480	-0.800434	0.508347
C39	C	1.213608	-0.764977	0.562466
C40	C	1.152768	-0.812069	0.616604
C41	C	1.152804	-0.894616	0.616611
C42	C	1.335288	-0.670793	0.454208
C43	C	1.213573	-0.682425	0.562456
C44	C	1.508972	-0.330973	0.521898
C45	C	1.608915	-0.326226	0.527684
C46	C	1.260955	-0.354586	0.742844
C47	C	1.255209	-0.359902	0.842783
C48	C	1.274539	-0.135941	0.508361
C49	C	1.274581	-0.048083	0.508378
C50	C	1.287925	-0.329627	0.274712
C51	C	1.293846	-0.324080	0.174783
C52	C	1.359464	-0.263308	1.037261
C53	C	1.354068	-0.268299	1.131163
C54	C	1.239015	-0.374872	1.124493
C55	C	1.244412	-0.369880	1.030590
C56	C	1.304639	-0.314097	0.986978
C57	C	1.310040	-0.309110	0.893074
C58	C	1.194983	-0.415678	0.886404
C59	C	1.189586	-0.420670	0.980307
H60	H	0.938113	-0.444414	0.384036
H61	H	1.150343	-0.457037	0.845454
Cl62	Cl	1.385756	-0.238985	0.838248
H63	H	1.164006	-0.653561	0.606530
Cl64	Cl	0.589439	-0.219779	0.656993
H65	H	0.782048	-0.231672	0.642510
H66	H	1.140549	-0.466086	1.015829
Cl67	Cl	1.435187	-0.193191	0.982431
Cl68	Cl	1.422993	-0.204446	1.194374
H69	H	1.103201	-0.783191	0.660664
Cl70	Cl	1.411941	-1.045563	0.386218
H71	H	1.164176	-1.050972	0.606577
Cl72	Cl	0.945530	-0.250382	0.619745
H73	H	0.767731	-0.452523	0.374206
Cl74	Cl	0.604246	-0.433807	0.396967
Cl75	Cl	1.076325	-0.953821	0.684661
H76	H	1.445775	-0.900223	0.356036
H77	H	1.445733	-0.750461	0.356011
H78	H	1.384819	-0.632455	0.410126
H79	H	1.189980	-0.420288	1.160018
