data_functionalizedCrystal
_audit_creation_method	'MofGen! by Chris Wilmer'
_symmetry_space_group_name_H-M	'P1'
_symmetry_Int_Tables_number	1
_symmetry_cell_setting	triclinic
loop_
_symmetry_equiv_pos_as_xyz
  x,y,z
_cell_length_a	16.120297
_cell_length_b	17.640112
_cell_length_c	17.640280
_cell_angle_alpha	92.184069
_cell_angle_beta	82.201685
_cell_angle_gamma	103.420241
loop_
_atom_site_label
_atom_site_type_symbol
_atom_site_fract_x
_atom_site_fract_y
_atom_site_fract_z
Zn1	Zn	-0.196107	1.214742	-0.078272
Zn2	Zn	-0.024883	1.246652	-0.195756
Zn3	Zn	-0.078732	1.092096	-0.097471
Zn4	Zn	-0.185169	1.113825	-0.230301
O5	O	-0.121223	1.166829	-0.150450
O6	O	-0.155435	1.325892	-0.071364
O7	O	0.084176	1.230411	-0.176296
O8	O	-0.121416	1.085918	0.009833
O9	O	-0.029637	1.349336	-0.157679
O10	O	-0.207651	1.176025	0.023939
O11	O	0.044613	1.116859	-0.104087
O12	O	-0.110810	0.988062	-0.137584
O13	O	-0.302822	1.122951	-0.216556
O14	O	-0.189008	1.004026	-0.235173
O15	O	-0.310858	1.197095	-0.104861
O16	O	-0.019031	1.251480	-0.305096
O17	O	-0.136792	1.153893	-0.330476
C18	C	-0.154566	0.968322	-0.192211
C19	C	-0.168845	0.883403	-0.210096
C20	C	-0.012754	0.562361	-0.014569
C21	C	-0.026179	0.482570	-0.031390
C22	C	-0.107390	0.499283	-0.133132
C23	C	-0.093975	0.579076	-0.116316
C24	C	-0.046656	0.610609	-0.057035
C25	C	-0.127877	0.627325	-0.158782
C26	C	-0.114459	0.707112	-0.141971
C27	C	-0.067140	0.738652	-0.082694
C28	C	-0.033238	0.690397	-0.040223
C29	C	-0.175191	0.595791	-0.218067
C30	C	-0.209093	0.644039	-0.260533
C31	C	-0.195681	0.723827	-0.243719
C32	C	-0.148361	0.755367	-0.184441
C33	C	-0.229582	0.772082	-0.286189
C34	C	-0.216165	0.851870	-0.269377
C35	C	-0.134944	0.835155	-0.167630
C36	C	-0.337813	1.158887	-0.162420
C37	C	-0.430110	1.155503	-0.167521
C38	C	-0.599109	1.149293	-0.176823
C39	C	-0.644221	1.184467	-0.123821
C40	C	-0.738258	1.181012	-0.128996
C41	C	-0.505064	1.152747	-0.171649
C42	C	0.094518	1.174772	-0.138463
C43	C	0.186785	1.178259	-0.133120
C44	C	-0.087750	1.366111	-0.108526
C45	C	-0.073485	1.451034	-0.090661
C46	C	-0.070896	1.208527	-0.344945
C47	C	-0.049382	1.226434	-0.428137
C48	C	-0.284912	1.031090	-0.767981
C49	C	-0.264669	1.047919	-0.846152
C50	C	-0.142141	1.149594	-0.819651
C51	C	-0.162376	1.132776	-0.741477
C52	C	-0.233762	1.073522	-0.715648
C53	C	-0.111226	1.175208	-0.689144
C54	C	-0.131456	1.158388	-0.610976
C55	C	-0.202837	1.099136	-0.585142
C56	C	-0.253992	1.056703	-0.637481
C57	C	-0.039837	1.234458	-0.714974
C58	C	0.011313	1.276890	-0.662641
C59	C	-0.008921	1.260074	-0.584472
C60	C	-0.080301	1.200822	-0.558637
C61	C	0.042234	1.302508	-0.532133
C62	C	0.022004	1.285688	-0.453965
C63	C	-0.100532	1.184002	-0.480470
C64	C	-0.171761	1.124988	0.044808
C65	C	-0.193297	1.107158	0.128015
H66	H	-0.186114	0.530822	-0.231753
O67	O	-0.606106	1.223601	-0.065070
C68	C	-0.610191	1.302500	-0.066562
H69	H	-0.665494	1.307985	-0.098398
H70	H	-0.621264	1.325083	-0.005482
H71	H	-0.547119	1.338233	-0.097012
H72	H	-0.343047	0.982845	-0.746951
O73	O	-0.020306	1.250867	-0.790897
C74	C	-0.089878	1.273111	-0.817266
H75	H	-0.130312	1.295429	-0.767080
H76	H	-0.064282	1.321220	-0.861490
H77	H	-0.131297	1.220674	-0.844552
H78	H	-0.219303	1.085437	-0.521494
O79	O	0.080753	1.334362	-0.687705
C80	C	0.155792	1.316667	-0.667531
H81	H	0.144239	1.251175	-0.658703
H82	H	0.211234	1.335848	-0.715273
H83	H	0.172584	1.348667	-0.612305
O84	O	0.006605	0.435608	0.009893
C85	C	-0.061024	0.377389	0.045854
H86	H	-0.119051	0.368824	0.013364
H87	H	-0.039269	0.320350	0.045997
H88	H	-0.079439	0.395914	0.107277
O89	O	0.111485	1.360139	-0.557255
C90	C	0.084151	1.417425	-0.594691
H91	H	0.013432	1.414638	-0.573753
H92	H	0.124241	1.477525	-0.581514
H93	H	0.092677	1.406434	-0.659077
H94	H	-0.631108	1.116587	-0.226084
O95	O	-0.169971	1.126502	-0.455449
C96	C	-0.245018	1.144226	-0.475575
H97	H	-0.227149	1.185730	-0.526229
H98	H	-0.290781	1.088281	-0.491937
H99	H	-0.277807	1.172999	-0.424834
H100	H	-0.312127	1.008458	-0.616451
H101	H	-0.306336	1.013370	-0.888759
H102	H	0.063657	1.320240	-0.411354
H103	H	-0.096427	0.860827	-0.119346
O104	O	-0.054059	0.816187	-0.066498
C105	C	-0.009541	0.859015	-0.131402
H106	H	-0.020225	0.821782	-0.185007
H107	H	-0.034530	0.913902	-0.135576
H108	H	0.062126	0.875995	-0.126106
H109	H	0.005279	0.716070	0.008060
O110	O	-0.072702	1.207066	-0.844715
C111	C	0.002338	1.189371	-0.824541
H112	H	-0.009216	1.123879	-0.815713
H113	H	0.057779	1.208552	-0.872283
H114	H	0.019129	1.221371	-0.769315
H115	H	-0.145914	0.473598	-0.181401
O116	O	0.033269	0.592880	0.043019
C117	C	0.060297	0.533183	0.076913
H118	H	0.061591	0.482988	0.034441
H119	H	0.127496	0.556889	0.093451
H120	H	0.013663	0.511402	0.130255
O121	O	-0.255070	0.613272	-0.318069
C122	C	-0.259624	0.532507	-0.323816
H123	H	-0.249320	0.510191	-0.266812
H124	H	-0.325576	0.501024	-0.338800
H125	H	-0.207660	0.520997	-0.370484
H126	H	-0.268102	0.746397	-0.334461
H127	H	-0.243772	0.891155	-0.303957
