data_functionalizedCrystal
_audit_creation_method	'MofGen! by Chris Wilmer'
_symmetry_space_group_name_H-M	'P1'
_symmetry_Int_Tables_number	1
_symmetry_cell_setting	triclinic
loop_
_symmetry_equiv_pos_as_xyz
  x,y,z
_cell_length_a	14.628931
_cell_length_b	14.628931
_cell_length_c	14.628931
_cell_angle_alpha	90.000000
_cell_angle_beta	120.000000
_cell_angle_gamma	60.000193
loop_
_atom_site_label
_atom_site_type_symbol
_atom_site_fract_x
_atom_site_fract_y
_atom_site_fract_z
Zr1	Zr	1.000581	0.880618	0.119963
O2	O	1.191285	0.734658	0.265924
O3	O	0.809875	0.925362	0.075218
O4	O	1.000580	0.925363	0.265924
O5	O	1.000581	0.734657	-0.075213
O6	O	1.000581	1.075795	0.265924
O7	O	1.000580	0.734657	0.075218
O8	O	0.659444	1.075794	-0.075213
O9	O	1.341717	0.734658	0.265924
O10	O	0.888316	1.056711	0.056136
O11	O	0.888316	0.944445	-0.056130
O12	O	1.112846	0.944446	0.168401
O13	O	1.112846	0.832181	0.056136
Zr14	Zr	1.000582	1.120539	-0.119957
Zr15	Zr	1.000581	1.120539	0.119964
Zr16	Zr	1.000581	0.880618	-0.119958
Zr17	Zr	1.240502	0.880618	0.119964
Zr18	Zr	0.760661	1.120539	-0.119958
O19	O	1.191287	1.075794	-0.075213
O20	O	1.191286	1.075795	0.265924
O21	O	1.191286	0.734657	-0.075213
O22	O	0.809877	1.266499	-0.265918
O23	O	0.809876	1.266499	0.075219
O24	O	0.809876	0.925362	-0.265919
O25	O	1.000582	1.266500	0.075219
O26	O	1.000582	1.075794	-0.265918
O27	O	1.000582	0.925362	-0.265918
O28	O	1.000582	1.266500	-0.075213
O29	O	1.341718	0.925364	0.265924
O30	O	0.659445	1.075793	-0.265919
O31	O	0.659445	1.266499	-0.265918
O32	O	0.659445	1.266499	-0.075213
O33	O	1.341718	0.734658	0.075219
O34	O	1.341718	0.925363	0.075219
O35	O	0.888316	1.056711	-0.168395
O36	O	0.888316	1.168976	-0.056130
O37	O	1.112847	1.056711	0.056136
O38	O	1.112847	0.944446	-0.056130
C39	C	0.700476	1.000578	0.000002
C40	C	0.598623	1.000578	0.000002
C41	C	0.553214	1.056269	0.055694
C42	C	0.447944	1.056270	0.055695
C43	C	1.000581	0.700474	0.000002
C44	C	1.000580	0.598621	0.000002
C45	C	1.111962	0.497521	0.055694
C46	C	1.111965	0.392249	0.055695
C47	C	1.300687	1.000579	0.000003
C48	C	1.402540	1.000579	0.000003
C49	C	1.000581	1.000579	0.300108
C50	C	1.000580	1.000579	0.401961
C51	C	1.000582	1.300683	0.000003
C52	C	1.000583	1.402536	0.000003
C53	C	1.111962	0.944888	0.503061
C54	C	1.111965	0.944887	0.608333
C55	C	1.000582	1.000578	0.699898
C56	C	1.000583	1.000578	0.598045
C57	C	0.700477	1.300683	0.000003
C58	C	0.598624	1.402536	0.000003
C59	C	0.700477	1.000578	-0.300102
C60	C	0.598624	1.000577	-0.401955
C61	C	0.700478	1.300682	-0.300102
C62	C	0.598626	1.402535	-0.401955
C63	C	1.300685	0.700475	0.300108
C64	C	1.402537	0.598622	0.401961
C65	C	1.300686	0.700474	0.000003
C66	C	1.402538	0.598621	0.000003
C67	C	1.300686	1.000579	0.300108
C68	C	1.402538	1.000580	0.401961
C69	C	0.553215	1.392253	0.055694
C70	C	0.447945	1.497522	0.055695
C71	C	0.553216	1.056268	-0.503056
C72	C	0.447946	1.056269	-0.608327
C73	C	0.553217	1.503635	-0.391673
C74	C	0.447947	1.608907	-0.496941
H75	H	0.441590	0.952892	-0.047673
C76	C	0.545852	0.936184	-0.064432
H77	H	0.587980	0.901256	-0.099384
H78	H	0.561515	0.880762	-0.013833
H79	H	0.455493	0.986825	-0.119857
C80	C	0.605964	1.515298	-0.274508
H81	H	0.563829	1.592379	-0.281708
H82	H	0.590283	1.480361	-0.234769
H83	H	0.696325	1.480366	-0.234769
C84	C	1.240786	0.880474	0.514718
H85	H	1.223885	0.888918	0.442434
H86	H	1.288978	0.909394	0.554453
H87	H	1.288967	0.803356	0.554448
C88	C	0.545879	1.390872	-0.519119
H89	H	0.588027	1.313791	-0.511920
H90	H	0.455523	1.425808	-0.558865
H91	H	0.561576	1.425805	-0.558851
H92	H	0.408899	1.103945	0.103379
H93	H	0.592278	1.305517	0.103377
H94	H	1.207319	0.488901	0.103377
H95	H	0.592265	1.103953	0.103368
H96	H	0.559571	1.489272	-0.047671
C97	C	0.871753	0.610283	-0.064411
H98	H	0.801872	0.687364	-0.099345
H99	H	0.866948	0.575346	-0.119830
H100	H	0.866950	0.575351	-0.013785
H101	H	0.408892	1.695636	-0.488312
C102	C	1.240791	0.275089	0.120108
H103	H	1.223892	0.219705	0.111665
H104	H	1.288980	0.266636	0.091186
H105	H	1.288973	0.266638	0.197226
H106	H	0.905224	1.048260	0.393340
H107	H	0.905219	0.489263	-0.047683
H108	H	1.207323	0.897201	0.695063
C109	C	0.871748	1.064993	0.480891
H110	H	0.801869	1.099925	0.488094
H111	H	0.866940	1.120413	0.441147
H112	H	0.866945	1.014367	0.441156
H113	H	0.441580	0.952902	-0.511314
C114	C	0.605969	1.120683	-0.514712
H115	H	0.669795	1.112239	-0.442428
H116	H	0.643346	1.091762	-0.554448
H117	H	0.537302	1.197800	-0.554442
C118	C	0.395198	1.485856	0.120109
H119	H	0.331371	1.558138	0.111666
H120	H	0.357823	1.446120	0.091187
H121	H	0.463865	1.446125	0.197227
C122	C	0.455277	1.610298	-0.064415
H123	H	0.413129	1.687379	-0.099360
H124	H	0.545633	1.575362	-0.013802
H125	H	0.439583	1.575366	-0.119844
H126	H	0.408894	1.103950	-0.695057
H127	H	0.559571	0.952894	-0.393335
H128	H	0.441581	1.511892	-0.606674
