data_functionalizedCrystal
_audit_creation_method	'MofGen! by Chris Wilmer'
_symmetry_space_group_name_H-M	'P1'
_symmetry_Int_Tables_number	1
_symmetry_cell_setting	triclinic
loop_
_symmetry_equiv_pos_as_xyz
  x,y,z
_cell_length_a	12.759401
_cell_length_b	12.759400
_cell_length_c	12.759393
_cell_angle_alpha	90.030447
_cell_angle_beta	90.018496
_cell_angle_gamma	90.013326
loop_
_atom_site_label
_atom_site_type_symbol
_atom_site_fract_x
_atom_site_fract_y
_atom_site_fract_z
Zn1	Zn	1.606267	-0.418200	0.593990
Zn2	Zn	1.606166	-0.593919	0.418313
Zn3	Zn	1.430569	-0.418255	0.418329
Zn4	Zn	1.430562	-0.593838	0.593955
O5	O	1.518391	-0.506053	0.506147
O6	O	1.753274	-0.441520	0.570694
O7	O	1.582833	-0.570673	0.271294
O8	O	1.453920	-0.271226	0.441652
O9	O	1.753200	-0.570620	0.441625
O10	O	1.583005	-0.271186	0.570709
O11	O	1.453822	-0.441614	0.271306
O12	O	1.283547	-0.441535	0.441618
O13	O	1.453909	-0.570482	0.740980
O14	O	1.283542	-0.570536	0.570649
O15	O	1.582998	-0.441442	0.741006
O16	O	1.582826	-0.740929	0.441591
O17	O	1.453811	-0.740870	0.570634
C18	C	1.245423	-0.506033	0.506132
C19	C	1.128647	-0.506050	0.506151
C20	C	1.073810	-0.573328	0.573227
C21	C	0.964086	-0.573342	0.573238
C22	C	0.964045	-0.438796	0.439089
C23	C	1.073767	-0.438778	0.439084
C24	C	1.073832	-0.651010	0.650673
C25	C	0.964108	-0.651024	0.650685
C26	C	1.518336	-0.779020	0.506130
C27	C	1.518408	-0.895797	0.506158
C28	C	1.585589	-0.950558	0.573413
C29	C	1.585638	-1.060282	0.573439
C30	C	1.451322	-1.060474	0.438945
C31	C	1.451269	-0.950752	0.438926
C32	C	1.652728	-0.895603	0.640645
C33	C	1.719915	-0.950364	0.707905
C34	C	1.719964	-1.060088	0.707931
C35	C	1.652826	-1.115051	0.640697
C36	C	1.792424	-0.506073	0.506161
C37	C	1.909201	-0.506082	0.506168
C38	C	1.518464	-0.505947	0.780180
C39	C	1.518496	-0.505902	0.896957
C40	C	1.518475	-0.232019	0.506186
C41	C	1.518510	-0.115243	0.506203
C42	C	1.518378	-0.506083	0.233179
C43	C	1.518550	-0.505832	0.116403
C44	C	1.585722	-0.438704	0.951834
C45	C	1.585747	-0.438666	1.061558
C46	C	1.451316	-0.573033	1.061518
C47	C	1.451287	-0.573064	0.951796
C48	C	1.663337	-0.361131	0.951858
C49	C	1.663362	-0.361093	1.061582
H50	H	1.118412	-0.383987	0.384472
C51	C	1.633913	-0.251226	0.911650
H52	H	1.621821	-0.206005	0.969571
H53	H	1.689595	-0.224204	0.870297
H54	H	1.572148	-0.255667	0.870286
H55	H	1.103640	-0.629311	0.732079
C56	C	1.377376	-0.890505	0.364947
H57	H	1.386953	-0.817289	0.374574
H58	H	1.392793	-0.908522	0.294371
H59	H	1.306782	-0.908526	0.380275
H60	H	0.919349	-0.384025	0.384487
C61	C	1.652673	-0.774911	0.640625
H62	H	1.702273	-0.750023	0.690302
H63	H	1.670857	-0.750125	0.572836
H64	H	1.584850	-0.750126	0.658743
C65	C	1.773274	-0.390557	1.101819
H66	H	1.818457	-0.402709	1.043909
H67	H	1.800351	-0.334866	1.143196
H68	H	1.768818	-0.452295	1.143163
H69	H	1.396595	-0.627712	1.106182
C70	C	1.767726	-0.400520	0.905870
H71	H	1.814234	-0.418034	0.961318
H72	H	1.755212	-0.460787	0.863948
H73	H	1.798141	-0.347027	0.863985
C74	C	1.624049	-0.256655	1.107584
H75	H	1.606531	-0.210169	1.052144
H76	H	1.563798	-0.269114	1.149482
H77	H	1.677580	-0.226243	1.149497
C78	C	1.119798	-0.755368	0.611128
H79	H	1.194160	-0.751796	0.612467
H80	H	1.096821	-0.810856	0.655096
H81	H	1.096786	-0.767824	0.541407
C82	C	0.918170	-0.611790	0.755173
H83	H	0.973639	-0.594315	0.801700
H84	H	0.876267	-0.551523	0.742797
H85	H	0.876274	-0.665339	0.785492
C86	C	0.923846	-0.760909	0.621050
H87	H	0.849388	-0.760915	0.621070
H88	H	0.948625	-0.778998	0.553216
H89	H	0.948675	-0.810602	0.670601
C90	C	1.377319	-0.646962	0.891434
H91	H	1.337302	-0.686957	0.939812
H92	H	1.331553	-0.606765	0.848645
H93	H	1.417471	-0.692768	0.848618
H94	H	1.652859	-1.204396	0.640735
C95	C	1.793759	-0.889911	0.781858
H96	H	1.784116	-0.816721	0.772205
H97	H	1.778358	-0.907849	0.852440
H98	H	1.864368	-0.907858	0.766536
C99	C	1.793863	-1.120323	0.781912
H100	H	1.833844	-1.071876	0.821942
H101	H	1.753676	-1.163122	0.827667
H102	H	1.839683	-1.163121	0.741759
H103	H	1.396662	-1.105233	0.384206
