data_functionalizedCrystal
_audit_creation_method	'MofGen! by Chris Wilmer'
_symmetry_space_group_name_H-M	'P1'
_symmetry_Int_Tables_number	1
_symmetry_cell_setting	triclinic
loop_
_symmetry_equiv_pos_as_xyz
  x,y,z
_cell_length_a	10.489746
_cell_length_b	10.489741
_cell_length_c	9.565339
_cell_angle_alpha	90.001269
_cell_angle_beta	89.999085
_cell_angle_gamma	84.540238
loop_
_atom_site_label
_atom_site_type_symbol
_atom_site_fract_x
_atom_site_fract_y
_atom_site_fract_z
O1	O	1.694050	0.179989	-0.116165
O2	O	1.322855	0.196875	-0.116188
O3	O	1.516899	0.002834	-0.116168
O4	O	1.500006	0.374030	-0.116186
O5	O	1.516882	0.002849	0.116352
O6	O	1.322838	0.196890	0.116332
O7	O	1.694033	0.180004	0.116355
Zn8	Zn	1.508433	0.188449	0.153261
Zn9	Zn	1.508455	0.188430	-0.153094
O10	O	1.499989	0.374045	0.116334
C11	C	1.275315	0.195606	0.000069
C12	C	1.133686	0.191786	0.000060
C13	C	0.980828	0.066062	0.000086
C14	C	1.058214	0.128926	0.114723
C15	C	1.058186	0.128941	-0.114523
C16	C	0.958722	0.247908	0.114827
C17	C	0.958689	0.247905	-0.114523
C18	C	1.036025	0.310856	0.000143
C19	C	1.515614	-0.044690	0.000091
C20	C	1.511797	-0.186320	0.000088
C21	C	1.388333	-0.254462	0.000070
C22	C	1.446648	-0.346576	0.114719
C23	C	1.446694	-0.346565	-0.114528
C24	C	1.570163	-0.276568	0.114831
C25	C	1.570192	-0.276548	-0.114518
C26	C	1.628597	-0.368635	0.000158
C27	C	1.741573	0.181273	0.000095
C28	C	1.883202	0.185093	0.000094
C29	C	1.501273	0.421569	0.000072
C30	C	1.505091	0.563198	0.000066
N31	N	1.508427	0.188462	0.362340
N32	N	1.508470	0.188407	-0.362174
C33	C	1.419435	0.278899	0.546704
C34	C	1.392580	0.163755	0.453481
C35	C	1.535226	0.303597	0.453493
C36	C	1.481557	0.073204	0.546655
C37	C	1.624254	0.213121	0.546676
C38	C	1.597446	0.097894	0.453496
H39	H	1.101683	0.078684	0.211649
H40	H	1.286821	-0.204813	0.000180
N41	N	1.565225	0.432599	0.399282
H42	H	1.578040	0.491402	0.480651
H43	H	1.645902	0.421850	0.341141
N44	N	0.901400	0.314433	0.243357
H45	H	0.805452	0.311416	0.242599
H46	H	0.938612	0.269804	0.329771
N47	N	1.068436	0.448061	0.000193
H48	H	1.031895	0.492862	0.086821
H49	H	1.164532	0.449800	-0.000693
H50	H	1.394401	-0.377582	0.211639
H51	H	0.956107	-0.037439	0.000206
H52	H	0.915195	0.298102	-0.211452
N53	N	1.763170	-0.434122	0.000253
H54	H	1.776833	-0.488816	-0.086339
H55	H	1.826507	-0.367389	0.001173
N56	N	1.451409	-0.055835	0.600618
H57	H	1.451574	-0.055049	0.706203
H58	H	1.364247	-0.074616	0.565792
N59	N	1.319669	0.380124	0.600922
H60	H	1.232220	0.361301	0.567020
H61	H	1.321056	0.379886	0.706496
N62	N	1.115749	0.062354	-0.242904
H63	H	1.096077	-0.030047	-0.242788
H64	H	1.078109	0.106445	-0.329425
N65	N	1.639299	-0.235735	0.243365
H66	H	1.641419	-0.139678	0.242602
H67	H	1.592966	-0.261883	0.329777
H68	H	1.672725	0.021308	0.412829
H69	H	1.394444	-0.377536	-0.211463
N70	N	1.639352	-0.235431	-0.242899
H71	H	1.592643	-0.260620	-0.329462
H72	H	1.642133	-0.139466	-0.241323
H73	H	1.294647	0.142870	0.412535
H74	H	1.722157	0.234049	0.587647
