data_functionalizedCrystal
_audit_creation_method	'MofGen! by Chris Wilmer'
_symmetry_space_group_name_H-M	'P1'
_symmetry_Int_Tables_number	1
_symmetry_cell_setting	triclinic
loop_
_symmetry_equiv_pos_as_xyz
  x,y,z
_cell_length_a	10.654550
_cell_length_b	17.019294
_cell_length_c	9.130313
_cell_angle_alpha	86.119786
_cell_angle_beta	89.996220
_cell_angle_gamma	83.938066
loop_
_atom_site_label
_atom_site_type_symbol
_atom_site_fract_x
_atom_site_fract_y
_atom_site_fract_z
O1	O	1.666099	0.110791	-0.135891
O2	O	2.166099	0.610791	0.364109
O3	O	1.300455	0.121346	-0.137198
O4	O	1.800455	0.621346	0.362802
O5	O	1.493478	0.001292	-0.122062
O6	O	1.993478	0.501292	0.377938
O7	O	1.473076	0.230845	-0.151027
O8	O	1.973076	0.730845	0.348973
O9	O	1.493475	0.001295	0.121536
O10	O	1.993475	0.501295	0.621536
O11	O	1.300452	0.121350	0.106400
O12	O	1.800452	0.621350	0.606400
O13	O	1.666096	0.110794	0.107708
O14	O	2.166096	0.610794	0.607708
Cu15	Cu	1.483274	0.116072	0.129297
Cu16	Cu	1.983274	0.616072	0.629297
Cu17	Cu	1.483277	0.116068	-0.158787
Cu18	Cu	1.983277	0.616068	0.341213
O19	O	1.473073	0.230848	0.092572
O20	O	1.973073	0.730848	0.592572
C21	C	1.253668	0.120573	-0.015298
C22	C	1.753668	0.620573	0.484702
C23	C	1.114261	0.118254	-0.014997
C24	C	1.614261	0.618254	0.485003
C25	C	1.033668	0.188940	-0.023937
C26	C	1.533668	0.688940	0.476063
C27	C	0.902681	0.186757	-0.023687
C28	C	1.402681	0.686757	0.476313
C29	C	0.932893	0.043195	-0.005561
C30	C	1.432893	0.543195	0.494439
C31	C	1.063877	0.045379	-0.005801
C32	C	1.563877	0.545379	0.494199
C33	C	1.016224	0.271825	-0.034408
C34	C	1.516224	0.771825	0.465592
C35	C	0.885237	0.269641	-0.034158
C36	C	1.385237	0.769641	0.465842
C37	C	1.492703	-0.028100	0.003443
C38	C	1.992703	0.471900	0.503443
C39	C	1.490383	-0.115683	0.014486
C40	C	1.990383	0.384317	0.514486
C41	C	1.489297	-0.156827	-0.113111
C42	C	1.989297	0.343173	0.386889
C43	C	1.487109	-0.239119	-0.102731
C44	C	1.987109	0.260881	0.397269
C45	C	1.486016	-0.280267	0.035247
C46	C	1.986016	0.219733	0.535247
C47	C	1.487098	-0.239117	0.162854
C48	C	1.987098	0.260883	0.662854
C49	C	1.489277	-0.156825	0.152472
C50	C	1.989277	0.343175	0.652472
C51	C	1.479429	-0.528735	0.073236
C52	C	1.979429	-0.028735	0.573236
C53	C	1.477254	-0.611033	0.083608
C54	C	1.977254	-0.111033	0.583608
C55	C	1.477263	-0.611029	-0.181978
C56	C	1.977263	-0.111029	0.318022
C57	C	1.479449	-0.528736	-0.192347
C58	C	1.979449	-0.028736	0.307653
C59	C	1.480524	-0.487593	-0.064741
C60	C	1.980524	0.012407	0.435259
C61	C	1.483784	-0.364384	0.045861
C62	C	1.983784	0.135616	0.545861
C63	C	1.482748	-0.403477	-0.075356
C64	C	1.982748	0.096523	0.424644
C65	C	1.712883	0.111567	-0.014195
C66	C	2.212883	0.611567	0.485805
C67	C	1.852290	0.113886	-0.014507
C68	C	2.352290	0.613886	0.485493
C69	C	1.473848	0.260240	-0.032937
C70	C	1.973848	0.760240	0.467063
C71	C	1.476168	0.347823	-0.043989
C72	C	1.976168	0.847823	0.456011
N73	N	1.483281	0.116074	0.331919
N74	N	1.983281	0.616074	0.831919
N75	N	1.483280	0.116060	-0.361408
N76	N	1.983280	0.616060	0.138592
C77	C	1.568773	0.062932	0.415271
C78	C	2.068773	0.562932	0.915271
C79	C	1.568770	0.062923	0.568609
C80	C	2.068770	0.562923	1.068609
C81	C	1.397778	0.169204	0.555229
C82	C	1.897778	0.669204	1.055229
C83	C	1.397777	0.169209	0.401894
C84	C	1.897777	0.669209	0.901894
C85	C	1.667498	0.001574	0.422997
C86	C	2.167498	0.501574	0.922997
C87	C	1.667495	0.001564	0.576335
C88	C	2.167495	0.501564	1.076335
H89	H	1.051467	0.298215	-0.142910
H90	H	1.551467	0.798215	0.357090
H91	H	0.843016	0.300869	-0.140052
H92	H	1.343016	0.800869	0.359948
H93	H	1.647005	-0.059057	0.389029
H94	H	2.147005	0.440943	0.889029
H95	H	0.839173	0.294691	0.067849
H96	H	1.339173	0.794691	0.567849
F97	F	1.306772	0.225759	0.313186
F98	F	1.806772	0.725759	0.813186
H99	H	1.490194	-0.123330	-0.225468
H100	H	1.990194	0.376670	0.274532
F101	F	1.306782	0.225751	0.629713
F102	F	1.806782	0.725751	1.129713
H103	H	1.758381	0.020786	0.373008
H104	H	2.258381	0.520786	0.873008
F105	F	1.793365	0.019224	0.628501
F106	F	2.293365	0.519224	1.128501
F107	F	1.149647	-0.029855	0.003744
F108	F	1.649647	0.470145	0.503744
F109	F	0.879260	-0.034360	0.004226
F110	F	1.379260	0.465640	0.504226
F111	F	1.053903	0.314199	0.093496
F112	F	1.553903	0.814199	0.593496
H113	H	1.476385	-0.644537	-0.285867
H114	H	1.976385	-0.144537	0.214133
F115	F	1.480615	-0.484950	-0.339203
F116	F	1.980615	0.015050	0.160797
F117	F	1.485955	-0.282904	-0.238538
F118	F	1.985955	0.217096	0.261462
F119	F	1.476097	-0.654825	0.230470
F120	F	1.976097	-0.154825	0.730470
H121	H	1.480330	-0.495248	0.177143
H122	H	1.980330	0.004752	0.677143
F123	F	1.485921	-0.282911	0.309701
F124	F	1.985921	0.217089	0.809701
F125	F	1.490431	-0.113037	0.288278
F126	F	1.990431	0.386963	0.788278
H127	H	1.483629	-0.369970	-0.187697
H128	H	1.983629	0.130030	0.312303
H129	H	1.637879	-0.055732	0.631114
H130	H	2.137879	0.444268	1.131114
F131	F	1.482615	-0.408184	0.192704
F132	F	1.982615	0.091816	0.692704
