data_functionalizedCrystal
_audit_creation_method	'MofGen! by Chris Wilmer'
_symmetry_space_group_name_H-M	'P1'
_symmetry_Int_Tables_number	1
_symmetry_cell_setting	triclinic
loop_
_symmetry_equiv_pos_as_xyz
  x,y,z
_cell_length_a	16.120490
_cell_length_b	16.120531
_cell_length_c	19.076919
_cell_angle_alpha	95.042833
_cell_angle_beta	90.498645
_cell_angle_gamma	89.829344
loop_
_atom_site_label
_atom_site_type_symbol
_atom_site_fract_x
_atom_site_fract_y
_atom_site_fract_z
Zn1	Zn	1.231038	0.416792	0.468362
Zn2	Zn	1.229460	0.550799	0.356325
Zn3	Zn	1.098166	0.404165	0.344463
Zn4	Zn	1.084906	0.548707	0.467713
O5	O	1.160892	0.480116	0.409216
O6	O	1.346932	0.440728	0.458736
O7	O	1.216932	0.526938	0.256283
O8	O	1.122001	0.289266	0.356206
O9	O	1.345773	0.539182	0.376422
O10	O	1.219621	0.298543	0.447234
O11	O	1.120471	0.419207	0.247568
O12	O	0.980303	0.417179	0.355577
O13	O	1.099402	0.535617	0.566268
O14	O	0.970562	0.523373	0.446128
O15	O	1.206764	0.438700	0.566744
O16	O	1.204075	0.667095	0.375793
O17	O	1.097872	0.665558	0.457630
C18	C	0.945328	0.468679	0.399496
C19	C	0.853107	0.463808	0.395355
C20	C	0.638367	0.505379	0.430696
C21	C	0.684262	0.454921	0.387794
C22	C	0.778216	0.459867	0.392002
C23	C	0.544405	0.500434	0.426489
C24	C	1.149386	0.696555	0.417945
C25	C	1.144538	0.789153	0.421706
C26	C	1.135691	0.958693	0.428588
C27	C	1.186127	1.000698	0.389806
C28	C	1.181205	1.095035	0.393635
C29	C	1.140612	0.864347	0.424760
C30	C	1.377298	0.491597	0.418975
C31	C	1.469518	0.496490	0.423133
C32	C	1.151780	0.488334	0.592752
C33	C	1.147897	0.491836	0.670964
C34	C	1.172437	1.262831	0.400455
C35	C	1.177283	1.170232	0.396685
C36	C	1.170020	0.471872	0.226394
C37	C	1.174076	0.468144	0.148180
C38	C	1.201968	0.443024	0.707957
C39	C	1.198309	0.446310	0.781445
C40	C	1.140584	0.498414	0.817939
C41	C	1.086508	0.547228	0.780940
C42	C	1.090163	0.543937	0.707453
C43	C	1.123655	0.513666	1.037694
C44	C	1.120005	0.516956	1.111186
C45	C	1.231807	0.416036	1.111686
C46	C	1.235460	0.412753	1.038198
C47	C	1.181381	0.461564	1.001206
N48	N	1.136845	0.501777	0.893055
N49	N	1.185117	0.458196	0.926090
H50	H	1.233004	0.965808	0.353727
H51	H	0.669636	0.552290	0.470582
H52	H	1.088817	0.993580	0.464662
N53	N	0.642856	0.392779	0.334948
H54	H	0.607522	0.353651	0.360459
H55	H	0.606764	0.423322	0.302092
N56	N	1.264235	0.386831	0.668599
H57	H	1.297931	0.356407	0.703188
H58	H	1.234034	0.345122	0.635032
H59	H	1.079631	0.553424	1.007585
H60	H	1.242341	0.406564	0.811562
H61	H	1.282468	0.370327	1.008491
H62	H	1.275834	0.376297	1.141814
N63	N	1.057744	0.573159	1.150550
H64	H	1.024039	0.603581	1.115965
H65	H	1.019644	0.538577	1.177946
H66	H	1.039503	0.589649	0.810659
H67	H	1.046125	0.583676	0.677333
