data_functionalizedCrystal
_audit_creation_method	'MofGen! by Chris Wilmer'
_symmetry_space_group_name_H-M	'P1'
_symmetry_Int_Tables_number	1
_symmetry_cell_setting	triclinic
loop_
_symmetry_equiv_pos_as_xyz
  x,y,z
_cell_length_a	18.101398
_cell_length_b	18.101396
_cell_length_c	18.101389
_cell_angle_alpha	89.983791
_cell_angle_beta	90.024327
_cell_angle_gamma	89.967710
loop_
_atom_site_label
_atom_site_type_symbol
_atom_site_fract_x
_atom_site_fract_y
_atom_site_fract_z
Zn1	Zn	1.132091	0.295001	0.418850
Zn2	Zn	1.632091	0.795001	0.918850
Zn3	Zn	1.131974	0.418826	0.295013
Zn4	Zn	1.631974	0.918826	0.795013
Zn5	Zn	1.008249	0.294993	0.295011
Zn6	Zn	1.508249	0.794993	0.795011
Zn7	Zn	1.008187	0.418795	0.418802
Zn8	Zn	1.508187	0.918795	0.918802
O9	O	1.070125	0.356904	0.356919
O10	O	1.570125	0.856904	0.856919
O11	O	1.235708	0.311443	0.402444
O12	O	1.735708	0.811443	0.902444
O13	O	1.115538	0.402410	0.191380
O14	O	1.615538	0.902410	0.691380
O15	O	1.024752	0.191361	0.311458
O16	O	1.524752	0.691361	0.811458
O17	O	1.235622	0.402417	0.311462
O18	O	1.735622	0.902417	0.811462
O19	O	1.115738	0.191367	0.402442
O20	O	1.615738	0.691367	0.902442
O21	O	1.024639	0.311430	0.191379
O22	O	1.524639	0.811430	0.691379
O23	O	0.904608	0.311399	0.311411
O24	O	1.404608	0.811399	0.811411
O25	O	1.024646	0.402363	0.522441
O26	O	1.524646	0.902363	1.022441
O27	O	0.904563	0.402356	0.402360
O28	O	1.404563	0.902356	0.902360
O29	O	1.115677	0.311412	0.522477
O30	O	1.615677	0.811412	1.022477
O31	O	1.115478	0.522455	0.311415
O32	O	1.615478	1.022455	0.811415
O33	O	1.024533	0.522432	0.402362
O34	O	1.524533	1.022432	0.902362
C35	C	0.877715	0.356874	0.356880
C36	C	1.377715	0.856874	0.856880
C37	C	0.795401	0.356879	0.356882
C38	C	1.295401	0.856879	0.856882
C39	C	1.070006	0.549314	0.356899
C40	C	1.570006	1.049314	0.856899
C41	C	1.070023	0.631628	0.356916
C42	C	1.570023	1.131628	0.856916
C43	C	0.496310	0.356925	0.356944
C44	C	0.996310	0.856925	0.856944
C45	C	0.527639	0.299412	0.300001
C46	C	1.027639	0.799412	0.800001
C47	C	0.613257	0.299566	0.299758
C48	C	1.113257	0.799566	0.799758
C49	C	0.644692	0.356901	0.356913
C50	C	1.144692	0.856901	0.856913
C51	C	0.613566	0.434909	0.335591
C52	C	1.113566	0.934909	0.835591
C53	C	0.527921	0.434590	0.335195
C54	C	1.027921	0.934590	0.835195
C55	C	0.527926	0.337109	0.435342
C56	C	1.027926	0.837109	0.935342
C57	C	0.613577	0.335371	0.434914
C58	C	1.113577	0.835371	0.934914
C59	C	0.728552	0.356893	0.356897
C60	C	1.228552	0.856893	0.856897
C61	C	0.412450	0.356939	0.356958
C62	C	0.912450	0.856939	0.856958
C63	C	1.070155	0.930719	0.356959
C64	C	1.570155	1.430719	0.856959
C65	C	1.013070	0.899410	0.414322
C66	C	1.513070	1.399410	0.914322
C67	C	1.012808	0.813792	0.414142
C68	C	1.512808	1.313792	0.914142
C69	C	1.070089	0.782337	0.356938
C70	C	1.570089	1.282337	0.856938
C71	C	1.048957	0.813472	0.278887
C72	C	1.548957	1.313472	0.778887
C73	C	1.048580	0.899117	0.279231
C74	C	1.548580	1.399117	0.779231
C75	C	1.148500	0.899073	0.376960
C76	C	1.648500	1.399073	0.876960
C77	C	1.148048	0.813422	0.378670
C78	C	1.648048	1.313422	0.878670
C79	C	1.070054	0.698477	0.356922
C80	C	1.570054	1.198477	0.856922
C81	C	1.070189	1.014579	0.356970
C82	C	1.570189	1.514579	0.856970
C83	C	1.263287	0.356934	0.356958
C84	C	1.763287	0.856934	0.856958
C85	C	1.345601	0.356948	0.356975
C86	C	1.845601	0.856948	0.856975
C87	C	1.070168	0.356885	0.550081
C88	C	1.570168	0.856885	1.050081
C89	C	1.070186	0.356877	0.632395
C90	C	1.570186	0.856877	1.132395
C91	C	1.070239	1.163742	0.356958
C92	C	1.570239	1.663742	0.856958
C93	C	1.070221	1.081428	0.356981
C94	C	1.570221	1.581428	0.856981
C95	C	1.070125	0.356869	0.164509
C96	C	1.570125	0.856869	0.664509
C97	C	1.070251	0.356668	0.082195
C98	C	1.570251	0.856668	0.582195
C99	C	1.070229	0.356738	0.931486
C100	C	1.570229	0.856738	1.431486
C101	C	1.012758	0.413780	0.900139
C102	C	1.512758	0.913780	1.400139
C103	C	1.012913	0.414045	0.814521
C104	C	1.512913	0.914045	1.314521
C105	C	1.070207	0.356807	0.783104
C106	C	1.570207	0.856807	1.283104
C107	C	1.148231	0.377998	0.814210
C108	C	1.648231	0.877998	1.314210
C109	C	1.147910	0.378372	0.899855
C110	C	1.647910	0.878372	1.399855
C111	C	1.050356	0.278379	0.899908
C112	C	1.550356	0.778379	1.399908
C113	C	1.048620	0.278832	0.814257
C114	C	1.548620	0.778832	1.314257
C115	C	1.070200	0.356845	0.699244
C116	C	1.570200	0.856845	1.199244
C117	C	1.070242	0.356702	1.015346
C118	C	1.570242	0.856702	1.515346
H119	H	0.634304	0.241719	0.313122
H120	H	1.134304	0.741719	0.813122
H121	H	0.507665	0.378999	0.477770
H122	H	1.007665	0.878999	0.977770
H123	H	0.994451	0.259074	0.921493
H124	H	1.494451	0.759074	1.421493
H125	H	1.163984	0.793071	0.436112
H126	H	1.663984	1.293071	0.936112
H127	H	1.026033	0.472127	0.794040
H128	H	1.526033	0.972127	1.294040
H129	H	1.087426	0.234076	0.792871
H130	H	1.587426	0.734076	1.292871
Cl131	Cl	0.961478	0.780450	0.252260
Cl132	Cl	1.461478	1.280450	0.752260
H133	H	0.991311	0.919153	0.262290
H134	H	1.491311	1.419153	0.762290
Cl135	Cl	1.216121	0.315871	0.782798
Cl136	Cl	1.716121	0.815871	1.282798
Cl137	Cl	1.032768	0.502898	0.933429
Cl138	Cl	1.532768	1.002898	1.433429
H139	H	0.506360	0.281216	0.454728
H140	H	1.006360	0.781216	0.954728
Cl141	Cl	1.033217	0.781286	0.503495
Cl142	Cl	1.533217	1.281286	1.003495
H143	H	1.164759	0.435654	0.919841
H144	H	1.664759	0.935654	1.419841
Cl145	Cl	1.114983	0.212763	0.931208
Cl146	Cl	1.614983	0.712763	1.431208
Cl147	Cl	0.646621	0.461310	0.248059
Cl148	Cl	1.146621	0.961310	0.748059
H149	H	0.955352	0.920990	0.401240
H150	H	1.455352	1.420990	0.901240
Cl151	Cl	0.644839	0.319786	0.210066
Cl152	Cl	1.144839	0.819786	0.710066
Cl153	Cl	0.645009	0.246749	0.459748
Cl154	Cl	1.145009	0.746749	0.959748
H155	H	1.089231	0.793097	0.234981
H156	H	1.589231	1.293097	0.734981
H157	H	1.165370	0.434671	0.792770
H158	H	1.665370	0.934671	1.292770
Cl159	Cl	1.033268	0.931155	0.503968
Cl160	Cl	1.533268	1.431155	1.003968
Cl161	Cl	0.495890	0.209824	0.320403
Cl162	Cl	0.995890	0.709824	0.820403
Cl163	Cl	1.216222	0.316972	0.931878
Cl164	Cl	1.716222	0.816972	1.431878
H165	H	0.955056	0.400784	0.793487
H166	H	1.455056	0.900784	1.293487
Cl167	Cl	0.959966	0.254161	0.782875
Cl168	Cl	1.459966	0.754161	1.282875
Cl169	Cl	1.178238	0.932358	0.463337
Cl170	Cl	1.678238	1.432358	0.963337
H171	H	1.192833	0.792007	0.339935
H172	H	1.692833	1.292007	0.839935
Cl173	Cl	1.214167	0.930346	0.312468
Cl174	Cl	1.714167	1.430346	0.812468
H175	H	0.954741	0.793362	0.400892
H176	H	1.454741	1.293362	0.900892
Cl177	Cl	0.644989	0.502843	0.397625
Cl178	Cl	1.144989	1.002843	0.897625
H179	H	0.954726	0.400655	0.920724
H180	H	1.454726	0.900655	1.420724
H181	H	1.088354	0.919830	0.235034
H182	H	1.588354	1.419830	0.735034
H183	H	0.506088	0.312363	0.242246
H184	H	1.006088	0.812363	0.742246
H185	H	0.634978	0.374209	0.479615
H186	H	1.134978	0.874209	0.979615
H187	H	0.507907	0.451397	0.277882
H188	H	1.007907	0.951397	0.777882
H189	H	0.507194	0.478892	0.374862
H190	H	1.007194	0.978892	0.874862
