data_functionalizedCrystal
_audit_creation_method	'MofGen! by Chris Wilmer'
_symmetry_space_group_name_H-M	'P1'
_symmetry_Int_Tables_number	1
_symmetry_cell_setting	triclinic
loop_
_symmetry_equiv_pos_as_xyz
  x,y,z
_cell_length_a	6.817900
_cell_length_b	17.110477
_cell_length_c	17.110486
_cell_angle_alpha	96.939211
_cell_angle_beta	99.060439
_cell_angle_gamma	99.060298
loop_
_atom_site_label
_atom_site_type_symbol
_atom_site_fract_x
_atom_site_fract_y
_atom_site_fract_z
V1	V	-3.954938	-0.109247	-0.246618
O2	O	-3.966477	0.005492	-0.242029
O3	O	-3.885154	-0.216852	-0.244831
O4	O	-3.885155	-0.107460	-0.354223
O5	O	-3.966476	-0.104657	-0.131879
V6	V	-4.444108	-0.095536	-0.232907
O7	O	-4.203810	-0.139325	-0.276696
O8	O	-4.645433	-0.065458	-0.202830
O9	O	-4.290685	0.012069	-0.234695
O10	O	-4.549965	-0.210275	-0.237496
O11	O	-4.549966	-0.100126	-0.347646
O12	O	-4.290684	-0.097322	-0.125302
C13	C	-3.725645	-0.243087	-0.240914
C14	C	-3.749732	-0.331054	-0.240170
C15	C	-3.941549	-0.376408	-0.243763
C16	C	-3.964171	-0.459064	-0.243069
C17	C	-3.794973	-0.496363	-0.238775
C18	C	-3.603142	-0.451003	-0.235183
C19	C	-3.580524	-0.368350	-0.235884
C20	C	-3.854236	-0.745721	-0.236467
C21	C	-3.876869	-0.828379	-0.235765
C22	C	-4.237899	-0.836434	-0.243652
C23	C	-4.215261	-0.753779	-0.244347
C24	C	-4.023435	-0.708427	-0.240760
C25	C	-3.818092	-0.580849	-0.238062
C26	C	-4.000321	-0.623943	-0.241478
C27	C	-3.725645	-0.103546	-0.380454
C28	C	-3.749732	-0.102797	-0.468421
C29	C	-3.941550	-0.106395	-0.513775
C30	C	-3.964170	-0.105690	-0.596429
C31	C	-3.794972	-0.101394	-0.633728
C32	C	-3.603137	-0.097794	-0.588367
C33	C	-3.580518	-0.098493	-0.505714
C34	C	-3.854235	-0.099083	-0.883085
C35	C	-3.876871	-0.098387	-0.965745
C36	C	-4.237903	-0.106281	-0.973801
C37	C	-4.215268	-0.106984	-0.891147
C38	C	-4.023435	-0.103380	-0.845792
C39	C	-3.818089	-0.100677	-0.718214
C40	C	-4.000318	-0.104092	-0.761307
C41	C	-4.113536	0.038300	-0.238609
C42	C	-4.068686	0.126267	-0.239358
C43	C	-4.113536	-0.101239	-0.099067
C44	C	-4.068689	-0.101984	-0.011099
H45	H	-4.138081	-0.593571	-0.244979
H46	H	-3.465373	-0.094292	-0.618742
Br47	Br	-3.588474	-0.631476	-0.232233
H48	H	-3.698041	-0.708804	-0.233542
Br49	Br	-4.444888	-0.703159	-0.250138
Br50	Br	-3.320180	-0.093599	-0.444158
H51	H	-4.394077	-0.873368	-0.246572
H52	H	-3.739083	-0.858748	-0.232287
Br53	Br	-3.588475	-0.094858	-0.768842
Br54	Br	-4.229936	-0.109919	-0.710686
H55	H	-4.079336	-0.109898	-0.483414
H56	H	-3.465381	-0.481379	-0.231692
H57	H	-4.079330	-0.346045	-0.247252
Br58	Br	-3.320194	-0.306798	-0.231015
H59	H	-4.120366	-0.495988	-0.245996
Br60	Br	-4.444908	-0.112821	-0.840534
Br61	Br	-4.498234	-0.111171	-1.035357
H62	H	-4.120364	-0.108615	-0.633353
H63	H	-3.739078	-0.094886	-0.996110
H64	H	-3.698046	-0.096176	-0.846172
