data_functionalizedCrystal
_audit_creation_method	'MofGen! by Chris Wilmer'
_symmetry_space_group_name_H-M	'P1'
_symmetry_Int_Tables_number	1
_symmetry_cell_setting	triclinic
loop_
_symmetry_equiv_pos_as_xyz
  x,y,z
_cell_length_a	13.339070
_cell_length_b	15.995350
_cell_length_c	12.376457
_cell_angle_alpha	101.278656
_cell_angle_beta	75.589755
_cell_angle_gamma	99.560835
loop_
_atom_site_label
_atom_site_type_symbol
_atom_site_fract_x
_atom_site_fract_y
_atom_site_fract_z
O1	O	1.361687	0.408219	-0.094025
O2	O	1.067160	0.353123	-0.094021
O3	O	1.222474	0.260654	-0.094022
O4	O	1.206373	0.500688	-0.094024
O5	O	1.183660	0.283730	0.093990
O6	O	1.028345	0.376200	0.093991
O7	O	1.322873	0.431295	0.093987
Zn8	Zn	1.169446	0.407411	0.123840
Zn9	Zn	1.220586	0.377007	-0.123874
O10	O	1.167558	0.523765	0.093988
C11	C	1.010063	0.355354	-0.000015
C12	C	0.897761	0.327613	-0.000013
C13	C	0.532972	0.543314	-0.000033
C14	C	0.638486	0.569381	-0.000038
C15	C	0.703309	0.508941	-0.000031
C16	C	0.662609	0.422430	-0.000021
C17	C	0.557087	0.396360	-0.000025
C18	C	0.727425	0.361987	-0.000023
C19	C	0.686725	0.275476	-0.000013
C20	C	0.581212	0.249410	-0.000016
C21	C	0.516389	0.309850	-0.000023
C22	C	0.832947	0.388057	-0.000019
C23	C	0.857062	0.241103	-0.000011
C24	C	0.751549	0.215036	-0.000006
C25	C	1.202402	0.240842	-0.000018
C26	C	1.200407	0.147428	-0.000025
C27	C	1.193239	-0.191985	-0.000021
C28	C	1.082714	-0.170299	-0.000441
C29	C	1.084622	-0.073093	-0.000017
C30	C	1.196795	-0.023598	-0.000023
C31	C	1.229188	-0.038823	0.107338
C32	C	1.226391	-0.136094	0.107428
C33	C	1.272816	-0.162164	-0.106377
C34	C	1.273082	-0.065398	-0.107796
C35	C	1.198810	0.071568	-0.000021
C36	C	1.191226	-0.287149	-0.000015
C37	C	1.379970	0.429064	-0.000022
C38	C	1.492273	0.456804	-0.000031
C39	C	1.187631	0.543576	-0.000018
C40	C	1.189627	0.636990	-0.000019
N41	N	1.134551	0.428163	0.292899
N42	N	1.255489	0.356251	-0.292933
C43	C	1.336490	0.308063	0.647882
C44	C	1.360907	0.293538	0.529542
C45	C	1.304320	0.327193	0.470376
C46	C	1.223312	0.375376	0.529561
C47	C	1.198898	0.389908	0.647912
C48	C	1.166728	0.409038	0.470405
C49	C	1.085720	0.457221	0.529590
C50	C	1.061310	0.471751	0.647930
C51	C	1.117897	0.438096	0.707097
C52	C	1.191142	0.394505	0.352054
C53	C	1.053550	0.476350	0.352084
C54	C	1.029133	0.490876	0.470424
H55	H	0.671618	0.639816	-0.000055
H56	H	1.253451	-0.201093	-0.187751
Br57	Br	1.138541	0.010151	0.240513
Br58	Br	1.411656	-0.009444	-0.118620
H59	H	0.963175	0.530108	0.518627
H60	H	0.866073	0.458495	-0.000023
Br61	Br	0.445000	0.625326	-0.000066
Br62	Br	0.945032	0.159070	-0.000016
H63	H	0.718397	0.144597	-0.000007
Br64	Br	1.413291	0.262405	0.728179
H65	H	0.430470	0.288631	-0.000018
Br66	Br	1.039626	-0.058067	-0.128291
Br67	Br	0.525988	0.131997	-0.000048
H68	H	1.054398	-0.208552	-0.077432
Br69	Br	1.360063	-0.157406	0.115554
H70	H	1.354519	-0.175067	-0.107103
Br71	Br	0.982876	-0.204833	0.126779
Br72	Br	0.846509	0.544318	-0.000036
H73	H	1.310774	-0.005063	0.111327
Br74	Br	0.986129	-0.027590	0.128473
Br75	Br	1.132463	-0.165589	0.241195
H76	H	1.249590	-0.057165	-0.187219
H77	H	1.257099	0.355275	0.303876
H78	H	1.007473	0.503757	0.303911
H79	H	0.995356	0.510992	0.696119
Br80	Br	1.337457	0.307478	0.309769
H81	H	1.426864	0.254309	0.481358
H82	H	1.098014	0.449919	0.803459
