data_functionalizedCrystal
_audit_creation_method	'MofGen! by Chris Wilmer'
_symmetry_space_group_name_H-M	'P1'
_symmetry_Int_Tables_number	1
_symmetry_cell_setting	triclinic
loop_
_symmetry_equiv_pos_as_xyz
  x,y,z
_cell_length_a	10.723024
_cell_length_b	11.026607
_cell_length_c	9.198806
_cell_angle_alpha	90.001089
_cell_angle_beta	90.003648
_cell_angle_gamma	96.526943
loop_
_atom_site_label
_atom_site_type_symbol
_atom_site_fract_x
_atom_site_fract_y
_atom_site_fract_z
O1	O	1.693992	0.170518	0.120878
O2	O	1.334363	0.186840	0.120883
O3	O	1.484372	0.001778	0.120876
O4	O	1.543983	0.355580	0.120886
O5	O	1.484357	0.001777	-0.120909
O6	O	1.334348	0.186840	-0.120902
O7	O	1.693977	0.170518	-0.120907
Cu8	Cu	1.514161	0.178679	-0.142981
Cu9	Cu	1.514179	0.178679	0.142958
O10	O	1.543968	0.355580	-0.120899
C11	C	1.287599	0.185652	-0.000009
C12	C	1.148278	0.182098	-0.000007
C13	C	1.473367	-0.043525	-0.000015
C14	C	1.440584	-0.178512	-0.000009
C15	C	1.095646	0.285649	-0.000003
C16	C	0.951650	0.281979	-0.000001
C17	C	1.531104	-0.251564	-0.000008
C18	C	1.497223	-0.391080	-0.000003
C19	C	1.740741	0.171706	-0.000011
C20	C	1.880062	0.175259	-0.000004
C21	C	1.554973	0.400883	-0.000006
C22	C	1.587756	0.535869	-0.000002
N23	N	1.514157	0.178677	-0.344095
C24	C	1.577068	0.100633	-0.416295
C25	C	1.577086	0.100628	-0.583707
N26	N	1.514191	0.178671	0.344072
H27	H	1.157190	0.377021	-0.000009
N28	N	1.066768	0.061061	0.000001
H29	H	1.121675	-0.007540	-0.000000
H30	H	1.012014	0.054923	-0.089631
N31	N	0.891662	0.399412	0.000016
H32	H	0.797300	0.380144	0.000018
H33	H	0.918832	0.448335	-0.089616
N34	N	1.666988	-0.197609	-0.000027
H35	H	1.671930	-0.105591	-0.000038
H36	H	1.709936	-0.225644	-0.089669
N37	N	1.361332	-0.445029	0.000014
H38	H	1.356390	-0.537047	0.000018
H39	H	1.318353	-0.417010	-0.089620
N40	N	1.723648	-0.410184	0.000008
H41	H	1.728593	-0.318166	0.000006
H42	H	1.766614	-0.438213	-0.089625
H43	H	1.630952	0.033815	-0.645796
N44	N	1.304700	-0.232466	0.000007
H45	H	1.299758	-0.324485	0.000012
H46	H	1.261720	-0.204448	-0.089626
H47	H	1.630909	0.033813	-0.354172
N48	N	0.940047	0.057824	-0.000025
H49	H	0.872482	-0.013898	-0.000029
H50	H	0.993944	0.054452	0.089605
N51	N	1.442837	0.267191	-0.573718
H52	H	1.502871	0.321255	-0.510554
H53	H	1.376966	0.220269	-0.510664
N54	N	1.442826	0.267180	-0.426380
H55	H	1.476817	0.353556	-0.399966
H56	H	1.350931	0.252546	-0.399952
