data_functionalizedCrystal
_audit_creation_method	'MofGen! by Chris Wilmer'
_symmetry_space_group_name_H-M	'P1'
_symmetry_Int_Tables_number	1
_symmetry_cell_setting	triclinic
loop_
_symmetry_equiv_pos_as_xyz
  x,y,z
_cell_length_a	16.120530
_cell_length_b	16.120484
_cell_length_c	19.805399
_cell_angle_alpha	87.128957
_cell_angle_beta	92.915522
_cell_angle_gamma	90.167327
loop_
_atom_site_label
_atom_site_type_symbol
_atom_site_fract_x
_atom_site_fract_y
_atom_site_fract_z
Zn1	Zn	1.254461	-0.395626	0.450560
Zn2	Zn	1.754461	0.104374	0.950560
Zn3	Zn	1.247307	-0.534681	0.342799
Zn4	Zn	1.747307	-0.034681	0.842799
Zn5	Zn	1.115404	-0.388588	0.331379
Zn6	Zn	1.615404	0.111412	0.831379
Zn7	Zn	1.108313	-0.527579	0.449941
Zn8	Zn	1.608313	-0.027579	0.949941
O9	O	1.181372	-0.461619	0.393670
O10	O	1.681372	0.038381	0.893670
O11	O	1.369878	-0.419990	0.441304
O12	O	1.869878	0.080010	0.941304
O13	O	1.229784	-0.515328	0.246568
O14	O	1.729784	-0.015328	0.746568
O15	O	1.139812	-0.273158	0.342669
O16	O	1.639812	0.226842	0.842669
O17	O	1.364622	-0.522153	0.362132
O18	O	1.864622	-0.022153	0.862132
O19	O	1.241976	-0.278329	0.430230
O20	O	1.741976	0.221671	0.930230
O21	O	1.132875	-0.407994	0.238178
O22	O	1.632875	0.092006	0.738178
O23	O	0.998098	-0.401108	0.342068
O24	O	1.498098	0.098892	0.842068
O25	O	1.127727	-0.510048	0.544739
O26	O	1.627727	-0.010048	1.044739
O27	O	0.992889	-0.503224	0.429175
O28	O	1.492889	-0.003224	0.929175
O29	O	1.235101	-0.413103	0.545194
O30	O	1.735101	0.086897	1.045194
O31	O	1.222908	-0.650102	0.361532
O32	O	1.722908	-0.150102	0.861532
O33	O	1.120790	-0.644885	0.440248
O34	O	1.620790	-0.144885	0.940248
C35	C	0.965321	-0.450632	0.384316
C36	C	1.465321	0.049368	0.884316
C37	C	0.872893	-0.445952	0.380331
C38	C	1.372893	0.054048	0.880331
C39	C	1.170326	-0.677666	0.402078
C40	C	1.670326	-0.177666	0.902078
C41	C	1.165677	-0.770096	0.405701
C42	C	1.665677	-0.270096	0.905701
C43	C	0.703666	-0.437388	0.373060
C44	C	1.203666	0.062612	0.873060
C45	C	0.659915	-0.485910	0.414331
C46	C	1.159915	0.014090	0.914331
C47	C	0.565751	-0.481145	0.410286
C48	C	1.065751	0.018855	0.910286
C49	C	0.797838	-0.442152	0.377105
C50	C	1.297838	0.057848	0.877105
C51	C	1.157193	-0.939328	0.412329
C52	C	1.657193	-0.439328	0.912329
C53	C	1.205699	-0.983077	0.375028
C54	C	1.705699	-0.483077	0.875028
C55	C	1.200979	-1.077243	0.378716
C56	C	1.700979	-0.577243	0.878716
C57	C	1.161912	-0.845153	0.408642
C58	C	1.661912	-0.345153	0.908642
C59	C	1.398266	-0.472649	0.403061
C60	C	1.898266	0.027351	0.903061
C61	C	1.490693	-0.477349	0.407063
C62	C	1.990693	0.022651	0.907063
C63	C	1.181421	-0.461569	0.570213
C64	C	1.681421	0.038431	1.070213
C65	C	1.181442	-0.461547	0.645445
C66	C	1.681442	0.038453	1.145445
C67	C	1.192483	-0.244728	0.385245
C68	C	1.692483	0.255272	0.885245
C69	C	1.197218	-0.152303	0.381655
C70	C	1.697218	0.347697	0.881655
C71	C	1.181373	-0.461611	0.217814
C72	C	1.681373	0.038389	0.717814
C73	C	1.181525	-0.461406	0.142580
C74	C	1.681525	0.038594	0.642580
C75	C	1.237353	-0.411065	0.681027
C76	C	1.737353	0.088935	1.181027
C77	C	1.237363	-0.411041	0.751715
C78	C	1.737363	0.088959	1.251715
C79	C	1.181465	-0.461505	0.786819
C80	C	1.681465	0.038495	1.286819
C81	C	1.125548	-0.511989	0.751232
C82	C	1.625548	-0.011989	1.251232
C83	C	1.125535	-0.512008	0.680545
C84	C	1.625535	-0.012008	1.180545
C85	C	1.125599	-0.511914	1.036305
C86	C	1.625599	-0.011914	1.536305
C87	C	1.125618	-0.511893	1.106997
C88	C	1.625618	-0.011893	1.606997
C89	C	1.237427	-0.410948	1.107474
C90	C	1.737427	0.089052	1.607474
C91	C	1.237414	-0.410966	1.036787
C92	C	1.737414	0.089034	1.536787
C93	C	1.181494	-0.461447	1.001206
C94	C	1.681494	0.038553	1.501206
C95	C	1.181483	-0.461471	0.924558
C96	C	1.681483	0.038529	1.424558
C97	C	1.181479	-0.461486	0.863466
C98	C	1.681479	0.038514	1.363466
H99	H	0.693177	-0.531029	0.452703
H100	H	1.193177	-0.031029	0.952703
H101	H	1.282956	-0.369841	1.136453
H102	H	1.782956	0.130159	1.636453
H103	H	1.080095	-0.552988	1.135577
H104	H	1.580095	-0.052988	1.635577
H105	H	1.079998	-0.553106	0.651575
H106	H	1.579998	-0.053106	1.151575
H107	H	0.670405	-0.392273	0.334692
H108	H	1.170405	0.107727	0.834692
H109	H	1.250771	-0.949810	0.340323
H110	H	1.750771	-0.449810	0.840323
H111	H	1.112124	-0.972592	0.447030
H112	H	1.612124	-0.472592	0.947030
H113	H	1.282874	-0.369975	0.652450
H114	H	1.782874	0.130025	1.152450
H115	H	1.282893	-0.369936	0.780683
H116	H	1.782893	0.130064	1.280683
H117	H	1.282934	-0.369877	1.008208
H118	H	1.782934	0.130123	1.508208
H119	H	1.080077	-0.553031	1.007344
H120	H	1.580077	-0.053031	1.507344
H121	H	1.080032	-0.553074	0.779820
H122	H	1.580032	-0.053074	1.279820
