data_functionalizedCrystal
_audit_creation_method	'MofGen! by Chris Wilmer'
_symmetry_space_group_name_H-M	'P1'
_symmetry_Int_Tables_number	1
_symmetry_cell_setting	triclinic
loop_
_symmetry_equiv_pos_as_xyz
  x,y,z
_cell_length_a	27.731993
_cell_length_b	14.519709
_cell_length_c	13.596369
_cell_angle_alpha	90.006934
_cell_angle_beta	90.006205
_cell_angle_gamma	96.849731
loop_
_atom_site_label
_atom_site_type_symbol
_atom_site_fract_x
_atom_site_fract_y
_atom_site_fract_z
O1	O	0.641468	-0.109493	-0.081529
O2	O	1.141468	0.390507	0.418471
O3	O	0.500751	-0.126230	-0.081589
O4	O	1.000751	0.373770	0.418411
O5	O	0.574841	0.016443	-0.081549
O6	O	1.074841	0.516443	0.418451
O7	O	0.567379	-0.252166	-0.081570
O8	O	1.067379	0.247834	0.418430
O9	O	0.574833	0.016450	0.082034
O10	O	1.074833	0.516450	0.582034
O11	O	0.500744	-0.126223	0.081994
O12	O	1.000744	0.373777	0.581994
O13	O	0.641461	-0.109486	0.082054
O14	O	1.141461	0.390514	0.582054
Zn15	Zn	0.571101	-0.117853	0.107996
Zn16	Zn	1.071101	0.382147	0.607996
Zn17	Zn	0.571111	-0.117863	-0.107531
Zn18	Zn	1.071111	0.382137	0.392469
O19	O	0.567371	-0.252159	0.082013
O20	O	1.067371	0.247841	0.582013
C21	C	0.482738	-0.125883	0.000195
C22	C	0.982738	0.374117	0.500195
C23	C	0.429077	-0.124849	0.000172
C24	C	0.929077	0.375151	0.500172
C25	C	0.574489	0.050800	0.000243
C26	C	1.074489	0.550800	0.500243
C27	C	0.573447	0.153163	0.000243
C28	C	1.073447	0.653163	0.500243
N29	N	0.571098	-0.117846	0.255088
N30	N	1.071098	0.382154	0.755088
C31	C	0.045885	-0.117354	-0.088949
C32	C	0.545885	0.382646	0.411051
C33	C	0.247561	-0.121297	-0.088976
C34	C	0.747561	0.378703	0.411024
O35	O	0.273640	-0.121773	-0.164813
O36	O	0.773640	0.378227	0.335187
N37	N	0.272780	-0.121787	0.000191
N38	N	0.772780	0.378213	0.500191
C39	C	0.247577	-0.121284	0.089371
C40	C	0.747577	0.378716	0.589371
O41	O	0.273655	-0.121781	0.165213
O42	O	0.773655	0.378219	0.665213
C43	C	0.045902	-0.117334	0.089397
C44	C	0.545902	0.382666	0.589397
C45	C	0.020685	-0.116854	0.000224
C46	C	0.520685	0.383146	0.500224
C47	C	0.020668	-0.116873	-0.178114
C48	C	0.520668	0.383127	0.321886
C49	C	-0.029748	-0.115892	-0.178107
C50	C	0.470252	0.384108	0.321893
C51	C	-0.054948	-0.115392	-0.088934
C52	C	0.445052	0.384608	0.411066
C53	C	-0.029731	-0.115873	0.000232
C54	C	0.470269	0.384127	0.500232
C55	C	0.020700	-0.116825	0.178576
C56	C	0.520700	0.383175	0.678576
C57	C	-0.029722	-0.115835	0.178575
C58	C	0.470278	0.384165	0.678575
C59	C	-0.054938	-0.115355	0.089402
C60	C	0.445062	0.384645	0.589402
C61	C	-0.105347	-0.114393	0.089413
C62	C	0.394653	0.385607	0.589413
N63	N	-0.130566	-0.113903	0.000246
N64	N	0.369434	0.386097	0.500246
C65	C	-0.105366	-0.114403	-0.088927
C66	C	0.394634	0.385597	0.411073
C67	C	0.353459	-0.123360	0.089351
C68	C	0.853459	0.376640	0.589351
C69	C	0.403877	-0.124349	0.089345
C70	C	0.903877	0.375651	0.589345
C71	C	0.403858	-0.124360	-0.089002
C72	C	0.903858	0.375640	0.410998
C73	C	0.353439	-0.123378	-0.088995
C74	C	0.853439	0.376622	0.411005
C75	C	0.328240	-0.122870	0.000184
C76	C	0.828240	0.377130	0.500184
C77	C	-0.211244	-0.112344	-0.088905
C78	C	0.288756	0.387656	0.411095
C79	C	-0.261665	-0.111367	-0.088889
C80	C	0.238335	0.388633	0.411111
C81	C	-0.261642	-0.111351	0.089458
C82	C	0.238358	0.388649	0.589458
C83	C	-0.211225	-0.112333	0.089443
C84	C	0.288775	0.387667	0.589443
C85	C	-0.186028	-0.112826	0.000254
C86	C	0.313972	0.387174	0.500254
O87	O	-0.131456	-0.113905	0.165210
O88	O	0.368544	0.386095	0.665210
O89	O	-0.131452	-0.113885	-0.164757
O90	O	0.368548	0.386115	0.335243
C91	C	0.096301	-0.118334	-0.088957
C92	C	0.596301	0.381666	0.411043
C93	C	0.121518	-0.118815	0.000209
C94	C	0.621518	0.381185	0.500209
C95	C	0.096318	-0.118316	0.089382
C96	C	0.596318	0.381684	0.589382
C97	C	0.171936	-0.119805	0.000203
C98	C	0.671936	0.380195	0.500203
C99	C	0.197136	-0.120304	-0.088970
C100	C	0.697136	0.379696	0.411030
C101	C	0.171918	-0.119815	-0.178137
C102	C	0.671918	0.380185	0.321863
C103	C	0.121501	-0.118834	-0.178130
C104	C	0.621501	0.381166	0.321870
C105	C	0.121537	-0.118805	0.178549
C106	C	0.621537	0.381195	0.678549
C107	C	0.171953	-0.119787	0.178534
C108	C	0.671953	0.380213	0.678534
C109	C	0.197153	-0.120287	0.089361
C110	C	0.697153	0.379713	0.589361
C111	C	0.659474	-0.109833	0.000268
C112	C	1.159474	0.390167	0.500268
C113	C	0.713135	-0.110867	0.000284
C114	C	1.213135	0.389133	0.500284
C115	C	0.567723	-0.286516	0.000220
C116	C	1.067723	0.213484	0.500220
C117	C	0.568765	-0.388879	0.000213
C118	C	1.068765	0.111121	0.500213
C119	C	0.569611	0.527991	0.000216
C120	C	1.069611	1.027991	0.500216
C121	C	0.570676	0.423702	0.000224
C122	C	1.070676	0.923702	0.500224
C123	C	0.571529	0.340580	0.000230
C124	C	1.071529	0.840580	0.500230
C125	C	0.572594	0.236285	0.000236
C126	C	1.072594	0.736285	0.500236
N127	N	0.571118	-0.117863	-0.254623
N128	N	1.071118	0.382137	0.245377
C129	C	0.571110	-0.117864	0.656379
C130	C	1.071110	0.382136	1.156379
C131	C	0.571105	-0.117862	0.544728
C132	C	1.071105	0.382138	1.044728
C133	C	0.571104	-0.117856	0.455737
C134	C	1.071104	0.382144	0.955737
C135	C	0.571099	-0.117852	0.344079
C136	C	1.071099	0.382148	0.844079
H137	H	-0.282195	-0.110979	-0.161507
H138	H	0.217805	0.389021	0.338493
H139	H	-0.190734	-0.112747	-0.161531
H140	H	0.309266	0.387253	0.338469
H141	H	-0.190694	-0.112742	0.162055
H142	H	0.309306	0.387258	0.662055
F143	F	0.094670	-0.118323	-0.273041
F144	F	0.594670	0.381677	0.226959
H145	H	-0.050275	-0.115497	-0.250721
H146	H	0.449725	0.384503	0.249279
F147	F	0.047481	-0.117402	-0.273033
F148	F	0.547481	0.382598	0.226967
F149	F	0.430708	-0.124877	0.184255
F150	F	0.930708	0.375123	0.684255
F151	F	0.430686	-0.124895	-0.183908
F152	F	0.930686	0.375105	0.316092
H153	H	0.041223	-0.117213	0.251190
H154	H	0.541223	0.382787	0.751190
H155	H	0.332911	-0.122987	-0.161608
H156	H	0.832911	0.377013	0.338392
F157	F	-0.056536	-0.115289	0.273495
F158	F	0.443464	0.384711	0.773495
F159	F	0.326646	-0.122829	0.184275
F160	F	0.826646	0.377171	0.684275
F161	F	-0.288470	-0.110823	0.184357
F162	F	0.211530	0.389177	0.684357
H163	H	0.192444	-0.120227	-0.250745
H164	H	0.692444	0.379773	0.249255
H165	H	0.192480	-0.120185	0.251155
H166	H	0.692480	0.379815	0.751155
H167	H	0.101025	-0.118393	0.251166
H168	H	0.601025	0.381607	0.751166
