data_functionalizedCrystal
_audit_creation_method	'MofGen! by Chris Wilmer'
_symmetry_space_group_name_H-M	'P1'
_symmetry_Int_Tables_number	1
_symmetry_cell_setting	triclinic
loop_
_symmetry_equiv_pos_as_xyz
  x,y,z
_cell_length_a	19.077399
_cell_length_b	21.295417
_cell_length_c	19.076919
_cell_angle_alpha	92.267699
_cell_angle_beta	94.479523
_cell_angle_gamma	92.329336
loop_
_atom_site_label
_atom_site_type_symbol
_atom_site_fract_x
_atom_site_fract_y
_atom_site_fract_z
Zn1	Zn	1.061654	-0.225250	-0.355379
Zn2	Zn	1.561654	0.274750	0.144621
Zn3	Zn	1.066299	-0.326116	-0.237492
Zn4	Zn	1.566299	0.173884	0.262508
Zn5	Zn	0.948509	-0.225267	-0.242234
Zn6	Zn	1.448509	0.274733	0.257766
Zn7	Zn	0.943726	-0.334890	-0.360060
Zn8	Zn	1.443726	0.165110	0.139940
O9	O	1.005047	-0.277881	-0.298791
O10	O	1.505047	0.222119	0.201209
O11	O	1.160919	-0.234951	-0.335798
O12	O	1.660919	0.265049	0.164202
O13	O	1.054619	-0.309073	-0.139474
O14	O	1.554619	0.190927	0.360526
O15	O	0.963575	-0.137174	-0.257268
O16	O	1.463575	0.362826	0.242732
O17	O	1.164331	-0.309057	-0.249187
O18	O	1.664331	0.190943	0.250813
O19	O	1.046702	-0.137161	-0.340395
O20	O	1.546702	0.362839	0.159605
O21	O	0.968079	-0.234980	-0.142958
O22	O	1.468079	0.265020	0.357042
O23	O	0.849226	-0.243488	-0.261807
O24	O	1.349226	0.256512	0.238193
O25	O	0.955424	-0.324011	-0.458086
O26	O	1.455424	0.175989	0.041914
O27	O	0.845712	-0.324027	-0.348374
O28	O	1.345712	0.175973	0.151626
O29	O	1.042065	-0.243459	-0.454647
O30	O	1.542065	0.256541	0.045353
O31	O	1.049982	-0.415370	-0.253726
O32	O	1.549982	0.084630	0.246274
O33	O	0.959928	-0.421817	-0.343776
O34	O	1.459928	0.078183	0.156224
C35	C	0.821890	-0.284712	-0.306113
C36	C	1.321890	0.215288	0.193887
C37	C	0.743535	-0.287650	-0.309262
C38	C	1.243535	0.212350	0.190738
C39	C	1.004958	-0.441434	-0.298759
C40	C	1.504958	0.058566	0.201241
C41	C	1.004984	-0.511402	-0.298767
C42	C	1.504984	-0.011402	0.201233
C43	C	0.708529	-0.247040	-0.265745
C44	C	1.208529	0.252960	0.234255
C45	C	0.634905	-0.249806	-0.268703
C46	C	1.134905	0.250194	0.231297
C47	C	0.596288	-0.293180	-0.315183
C48	C	1.096288	0.206820	0.184817
C49	C	0.631300	-0.333795	-0.358702
C50	C	1.131300	0.166205	0.141298
C51	C	0.704922	-0.331031	-0.355740
C52	C	1.204922	0.168969	0.144260
C53	C	0.375907	-0.305951	-0.328866
C54	C	0.875907	0.194049	0.171134
C55	C	0.302280	-0.308711	-0.331827
C56	C	0.802280	0.191289	0.168173
C57	C	0.305890	-0.224723	-0.241826
C58	C	0.805890	0.275277	0.258174
C59	C	0.379514	-0.221960	-0.238871
C60	C	0.879514	0.278040	0.261129
C61	C	0.414519	-0.262577	-0.282387
C62	C	0.914519	0.237423	0.217613
N63	N	0.521033	-0.296008	-0.318210
N64	N	1.021033	0.203992	0.181790
N65	N	0.489773	-0.259752	-0.279356
N66	N	0.989773	0.240248	0.220644
C67	C	1.048241	-0.544207	-0.342084
C68	C	1.548241	-0.044207	0.157916
C69	C	1.048266	-0.609949	-0.342101
C70	C	1.548266	-0.109949	0.157899
C71	C	1.005040	-0.642883	-0.298786
C72	C	1.505040	-0.142883	0.201214
C73	C	0.961775	-0.610070	-0.255466
C74	C	1.461775	-0.110070	0.244534
C75	C	0.961746	-0.544329	-0.255456
C76	C	1.461746	-0.044329	0.244544
N77	N	1.002197	-0.744037	-0.237306
N78	N	1.502197	-0.244037	0.262694
N79	N	1.002228	-0.806488	-0.237317
N80	N	1.502228	-0.306488	0.262683
C81	C	1.005122	-0.840956	-0.298815
C82	C	1.505122	-0.340956	0.201185
N83	N	1.007997	-0.810613	-0.360302
N84	N	1.507997	-0.310613	0.139698
N85	N	1.007969	-0.748156	-0.360290
N86	N	1.507969	-0.248156	0.139710
C87	C	1.005066	-0.714167	-0.298793
C88	C	1.505066	-0.214167	0.201207
C89	C	1.048407	-0.945046	-0.342154
C90	C	1.548407	-0.445046	0.157846
C91	C	1.048426	-1.010790	-0.342172
C92	C	1.548426	-0.510790	0.157828
C93	C	0.961939	-1.010909	-0.255531
C94	C	1.461939	-0.510909	0.244469
C95	C	0.961916	-0.945167	-0.255519
C96	C	1.461916	-0.445167	0.244481
C97	C	1.005154	-0.912239	-0.298830
C98	C	1.505154	-0.412239	0.201170
C99	C	1.188919	-0.271023	-0.291441
C100	C	1.688919	0.228977	0.208559
C101	C	1.267274	-0.268101	-0.288309
C102	C	1.767274	0.231899	0.211691
C103	C	0.997693	-0.284712	-0.482660
C104	C	1.497693	0.215288	0.017340
C105	C	0.994559	-0.287622	-0.561014
C106	C	1.494559	0.212378	-0.061014
C107	C	1.005154	-0.113688	-0.298838
C108	C	1.505154	0.386312	0.201162
C109	C	1.005200	-0.043719	-0.298858
C110	C	1.505200	0.456281	0.201142
C111	C	1.038194	-0.247053	-0.596035
C112	C	1.538194	0.252947	-0.096035
C113	C	1.035241	-0.249786	-0.669657
C114	C	1.535241	0.250214	-0.169657
C115	C	0.988656	-0.293092	-0.708256
C116	C	1.488656	0.206908	-0.208256
C117	C	0.945017	-0.333664	-0.673230
C118	C	1.445017	0.166336	-0.173230
C119	C	0.947967	-0.330927	-0.599609
C120	C	1.447967	0.169073	-0.099609
C121	C	0.974993	-0.305771	-0.928631
C122	C	1.474993	0.194229	-0.428631
C123	C	0.972048	-0.308506	-1.002256
C124	C	1.472048	0.191494	-0.502256
C125	C	1.062272	-0.224627	-0.998678
C126	C	1.562272	0.275373	-0.498678
C127	C	1.065221	-0.221896	-0.925056
C128	C	1.565221	0.278104	-0.425056
C129	C	1.021579	-0.262466	-0.890036
C130	C	1.521579	0.237534	-0.390036
N131	N	0.985638	-0.295888	-0.783510
N132	N	1.485638	0.204112	-0.283510
N133	N	1.024594	-0.259666	-0.814784
N134	N	1.524594	0.240334	-0.314784
C135	C	1.012413	-0.271029	-0.115636
C136	C	1.512413	0.228971	0.384364
C137	C	1.015683	-0.267936	-0.037278
C138	C	1.515683	0.232064	0.462722
H139	H	0.739965	-0.211716	-0.227901
H140	H	1.239965	0.288284	0.272099
C141	C	0.899975	-0.375558	-0.561080
C142	C	1.399975	0.124442	-0.061080
C143	C	0.846675	-0.348465	-0.512683
C144	C	1.346675	0.151535	-0.012683
C145	C	0.798681	-0.393096	-0.474153
C146	C	1.298681	0.106904	0.025847
C147	C	0.803986	-0.464820	-0.484020
C148	C	1.303986	0.035180	0.015980
C149	C	0.857288	-0.491916	-0.532419
C150	C	1.357288	0.008084	-0.032419
C151	C	0.905282	-0.447286	-0.570949
C152	C	1.405282	0.052714	-0.070949
H153	H	0.842746	-0.295367	-0.505376
H154	H	1.342746	0.204633	-0.005376
H155	H	0.759224	-0.373037	-0.438324
H156	H	1.259224	0.126963	0.061676
H157	H	0.768458	-0.497858	-0.455498
H158	H	1.268458	0.002142	0.044502
H159	H	0.861217	-0.545014	-0.539726
H160	H	1.361217	-0.045014	-0.039726
H161	H	0.944739	-0.467345	-0.606778
H162	H	1.444739	0.032655	-0.106778
C163	C	0.596406	-0.205137	-0.220823
C164	C	1.096406	0.294863	0.279177
C165	C	0.606320	-0.133421	-0.226305
C166	C	1.106320	0.366579	0.273695
C167	C	0.567826	-0.088753	-0.178415
C168	C	1.067826	0.411247	0.321585
C169	C	0.519418	-0.115801	-0.125042
C170	C	1.019418	0.384199	0.374958
C171	C	0.509502	-0.187521	-0.119558
C172	C	1.009502	0.312479	0.380442
C173	C	0.547996	-0.232189	-0.167448
C174	C	1.047996	0.267811	0.332552
H175	H	0.642157	-0.113395	-0.265817
H176	H	1.142157	0.386605	0.234183
H177	H	0.575167	-0.035661	-0.182476
H178	H	1.075167	0.464339	0.317524
H179	H	0.490922	-0.082735	-0.089591
H180	H	0.990922	0.417265	0.410409
H181	H	0.473665	-0.207547	-0.080046
H182	H	0.973665	0.292453	0.419954
H183	H	0.540655	-0.285281	-0.163387
H184	H	1.040655	0.214719	0.336613
C185	C	0.914388	-1.047127	-0.207884
C186	C	1.414388	-0.547127	0.292116
C187	C	0.947207	-1.089120	-0.151347
C188	C	1.447207	-0.589120	0.348653
C189	C	0.899651	-1.125341	-0.103701
C190	C	1.399651	-0.625341	0.396299
C191	C	0.819276	-1.119567	-0.112593
C192	C	1.319276	-0.619567	0.387407
C193	C	0.786453	-1.077571	-0.169133
C194	C	1.286453	-0.577571	0.330867
C195	C	0.834009	-1.041351	-0.216779
C196	C	1.334009	-0.541351	0.283221
H197	H	1.006709	-1.093396	-0.144762
H198	H	1.506709	-0.593396	0.355238
H199	H	0.923949	-1.156429	-0.061847
H200	H	1.423949	-0.656429	0.438153
H201	H	0.784072	-1.146380	-0.077323
H202	H	1.284072	-0.646380	0.422677
H203	H	0.726950	-1.073296	-0.175718
H204	H	1.226950	-0.573296	0.324282
H205	H	0.809710	-1.010263	-0.258633
H206	H	1.309710	-0.510263	0.241367
H207	H	0.926695	-0.918455	-0.220243
H208	H	1.426695	-0.418455	0.279757
H209	H	0.934111	-0.343772	-1.033682
H210	H	1.434111	0.156228	-0.533682
C211	C	0.588822	-0.381506	-0.409832
C212	C	1.088822	0.118494	0.090168
C213	C	0.539403	-0.431645	-0.381225
C214	C	1.039403	0.068355	0.118775
C215	C	0.496927	-0.479355	-0.432358
C216	C	0.996927	0.020645	0.067642
C217	C	0.503871	-0.476926	-0.512098
C218	C	1.003871	0.023074	-0.012098
C219	C	0.553292	-0.426785	-0.540709
C220	C	1.053292	0.073215	-0.040709
C221	C	0.595768	-0.379075	-0.489576
C222	C	1.095768	0.120925	0.010424
H223	H	0.534261	-0.433445	-0.322193
H224	H	1.034261	0.066555	0.177807
H225	H	0.460342	-0.516473	-0.411177
H226	H	0.960342	-0.016473	0.088823
H227	H	0.472427	-0.512244	-0.549949
H228	H	0.972427	-0.012244	-0.049949
H229	H	0.558434	-0.424985	-0.599741
H230	H	1.058434	0.075015	-0.099741
H231	H	0.632353	-0.341957	-0.510756
H232	H	1.132353	0.158043	-0.010756
C233	C	1.110270	-0.179997	-1.037201
C234	C	1.610270	0.320003	-0.537201
C235	C	1.107028	-0.183001	-1.118181
C236	C	1.607028	0.316999	-0.618181
C237	C	1.155026	-0.138368	-1.156703
C238	C	1.655026	0.361632	-0.656703
C239	C	1.206266	-0.090730	-1.114246
C240	C	1.706266	0.409270	-0.614246
C241	C	1.209510	-0.087725	-1.033262
C242	C	1.709510	0.412275	-0.533262
C243	C	1.161512	-0.132358	-0.994740
C244	C	1.661512	0.367642	-0.494740
H245	H	1.069095	-0.218267	-1.149615
H246	H	1.569095	0.281733	-0.649615
H247	H	1.152624	-0.140593	-1.216654
H248	H	1.652624	0.359407	-0.716654
H249	H	1.241797	-0.057690	-1.142763
H250	H	1.741797	0.442310	-0.642763
H251	H	1.247443	-0.052459	-1.001828
H252	H	1.747443	0.447541	-0.501828
H253	H	1.163914	-0.130133	-0.934789
H254	H	1.663914	0.369867	-0.434789
H255	H	0.410951	-0.186645	-0.201017
H256	H	0.910951	0.313355	0.298983
C257	C	1.083245	-0.205159	-0.708177
C258	C	1.583245	0.294841	-0.208177
C259	C	1.136543	-0.232254	-0.756575
C260	C	1.636543	0.267746	-0.256575
C261	C	1.184549	-0.187625	-0.795092
C262	C	1.684549	0.312375	-0.295092
C263	C	1.179258	-0.115900	-0.785213
C264	C	1.679258	0.384100	-0.285213
C265	C	1.125957	-0.088802	-0.736814
C266	C	1.625957	0.411198	-0.236814
C267	C	1.077951	-0.133431	-0.698296
C268	C	1.577951	0.366569	-0.198296
H269	H	1.140462	-0.285352	-0.763890
H270	H	1.640462	0.214648	-0.263890
H271	H	1.224006	-0.207685	-0.830921
H272	H	1.724006	0.292315	-0.330921
H273	H	1.214795	-0.082863	-0.813726
H274	H	1.714795	0.417137	-0.313726
H275	H	1.122038	-0.035704	-0.729498
H276	H	1.622038	0.464296	-0.229498
H277	H	1.038495	-0.113371	-0.662467
H278	H	1.538495	0.386629	-0.162467
C279	C	0.926980	-0.350401	-0.890130
C280	C	1.426980	0.149599	-0.390130
C281	C	0.846442	-0.348621	-0.903480
C282	C	1.346442	0.151379	-0.403480
C283	C	0.798421	-0.393255	-0.864984
C284	C	1.298421	0.106745	-0.364984
C285	C	0.830938	-0.439670	-0.813138
C286	C	1.330938	0.060330	-0.313138
C287	C	0.911481	-0.441452	-0.799786
C288	C	1.411481	0.058548	-0.299786
C289	C	0.959502	-0.396817	-0.838282
C290	C	1.459502	0.103183	-0.338282
H291	H	0.822367	-0.314261	-0.941862
H292	H	1.322367	0.185739	-0.441862
H293	H	0.738798	-0.391936	-0.874869
H294	H	1.238798	0.108064	-0.374869
H295	H	0.795390	-0.472710	-0.784641
H296	H	1.295390	0.027290	-0.284641
H297	H	0.935556	-0.475812	-0.761404
H298	H	1.435556	0.024188	-0.261404
H299	H	1.019125	-0.398137	-0.828397
H300	H	1.519125	0.101863	-0.328397
C301	C	0.914166	-0.508239	-0.207798
C302	C	1.414166	-0.008239	0.292202
C303	C	0.914138	-0.435927	-0.207783
C304	C	1.414138	0.064073	0.292217
C305	C	0.866559	-0.399835	-0.160123
C306	C	1.366559	0.100165	0.339877
C307	C	0.819008	-0.436056	-0.112478
C308	C	1.319008	0.063944	0.387522
C309	C	0.819034	-0.508372	-0.112491
C310	C	1.319034	-0.008372	0.387509
C311	C	0.866613	-0.544464	-0.160152
C312	C	1.366613	-0.044464	0.339848
H313	H	0.949339	-0.409111	-0.243054
H314	H	1.449339	0.090889	0.256946
H315	H	0.866539	-0.346302	-0.160113
H316	H	1.366539	0.153698	0.339887
H317	H	0.783787	-0.409338	-0.077197
H318	H	1.283787	0.090662	0.422803
H319	H	0.783833	-0.535188	-0.077220
H320	H	1.283833	-0.035188	0.422780
H321	H	0.866633	-0.597997	-0.160161
H322	H	1.366633	-0.097997	0.339839
C323	C	0.259800	-0.356429	-0.382953
C324	C	0.759800	0.143571	0.117047
C325	C	0.298301	-0.401109	-0.430817
C326	C	0.798301	0.098891	0.069183
C327	C	0.255821	-0.448824	-0.481941
C328	C	0.755821	0.051176	0.018059
C329	C	0.174840	-0.451859	-0.485200
C330	C	0.674840	0.048141	0.014800
C331	C	0.136333	-0.407178	-0.437334
C332	C	0.636333	0.092822	0.062666
C333	C	0.178813	-0.359463	-0.386211
C334	C	0.678813	0.140537	0.113789
H335	H	0.358253	-0.398864	-0.428406
H336	H	0.858253	0.101136	0.071594
H337	H	0.284327	-0.481900	-0.517374
H338	H	0.784327	0.018100	-0.017374
H339	H	0.143393	-0.487181	-0.523045
H340	H	0.643393	0.012819	-0.023045
H341	H	0.076382	-0.409423	-0.439746
H342	H	0.576382	0.090577	0.060254
H343	H	0.150308	-0.326387	-0.350777
H344	H	0.650308	0.173613	0.149223
H345	H	0.277381	-0.191656	-0.206397
H346	H	0.777381	0.308344	0.293603
H347	H	0.404399	-0.339025	-0.364300
H348	H	0.904399	0.160975	0.135700
H349	H	0.733423	-0.364100	-0.391176
H350	H	1.233423	0.135900	0.108824
H351	H	1.083612	-0.918235	-0.377423
H352	H	1.583612	-0.418235	0.122577
H353	H	1.103157	-0.186633	-0.893634
H354	H	1.603157	0.313367	-0.393634
H355	H	1.083446	-0.517399	-0.377352
H356	H	1.583446	-0.017399	0.122648
H357	H	1.083485	-0.636665	-0.377384
H358	H	1.583485	-0.136665	0.122616
C359	C	0.914228	-0.646295	-0.207818
C360	C	1.414228	-0.146295	0.292182
C361	C	0.947052	-0.688285	-0.151280
C362	C	1.447052	-0.188285	0.348720
C363	C	0.899501	-0.724509	-0.103634
C364	C	1.399501	-0.224509	0.396366
C365	C	0.819125	-0.718743	-0.112525
C366	C	1.319125	-0.218743	0.387475
C367	C	0.786296	-0.676751	-0.169066
C368	C	1.286296	-0.176751	0.330934
C369	C	0.833847	-0.640527	-0.216712
C370	C	1.333847	-0.140527	0.283288
H371	H	1.006555	-0.692555	-0.144696
H372	H	1.506555	-0.192555	0.355304
H373	H	0.923803	-0.755594	-0.061778
H374	H	1.423803	-0.255594	0.438222
H375	H	0.783924	-0.745558	-0.077255
H376	H	1.283924	-0.245558	0.422745
H377	H	0.726793	-0.672481	-0.175650
H378	H	1.226793	-0.172481	0.324350
H379	H	0.809545	-0.609441	-0.258568
H380	H	1.309545	-0.109441	0.241432
C381	C	1.096014	-1.046880	-0.389822
C382	C	1.596014	-0.546880	0.110178
C383	C	1.063235	-1.095275	-0.446377
C384	C	1.563235	-0.595275	0.053623
C385	C	1.110825	-1.131367	-0.494026
C386	C	1.610825	-0.631367	0.005974
C387	C	1.191193	-1.119064	-0.485120
C388	C	1.691193	-0.619064	0.014880
C389	C	1.223976	-1.070667	-0.428563
C390	C	1.723976	-0.570667	0.071437
C391	C	1.176386	-1.034575	-0.380914
C392	C	1.676386	-0.534575	0.119086
H393	H	1.003738	-1.104384	-0.452971
H394	H	1.503738	-0.604384	0.047029
H395	H	1.086556	-1.167194	-0.535893
H396	H	1.586556	-0.667194	-0.035893
H397	H	1.226421	-1.145781	-0.520393
H398	H	1.726421	-0.645781	-0.020393
H399	H	1.283473	-1.061557	-0.421969
H400	H	1.783473	-0.561557	0.078031
H401	H	1.200655	-0.998748	-0.339047
H402	H	1.700655	-0.498748	0.160953
H403	H	1.076131	-0.211790	-0.564613
H404	H	1.576131	0.288210	-0.064613
H405	H	0.907084	-0.368922	-0.704663
H406	H	1.407084	0.131078	-0.204663
