data_functionalizedCrystal
_audit_creation_method	'MofGen! by Chris Wilmer'
_symmetry_space_group_name_H-M	'P1'
_symmetry_Int_Tables_number	1
_symmetry_cell_setting	triclinic
loop_
_symmetry_equiv_pos_as_xyz
  x,y,z
_cell_length_a	14.044220
_cell_length_b	15.995343
_cell_length_c	12.503572
_cell_angle_alpha	93.518504
_cell_angle_beta	86.164750
_cell_angle_gamma	88.339031
loop_
_atom_site_label
_atom_site_type_symbol
_atom_site_fract_x
_atom_site_fract_y
_atom_site_fract_z
O1	O	1.263161	0.197432	-0.089227
O2	O	1.763161	0.697432	0.410773
O3	O	0.987193	0.190147	-0.089253
O4	O	1.487193	0.690147	0.410747
O5	O	1.132723	0.072466	-0.089220
O6	O	1.632723	0.572466	0.410780
O7	O	1.117631	0.315113	-0.089261
O8	O	1.617631	0.815113	0.410739
O9	O	1.121779	0.081333	0.089420
O10	O	1.621779	0.581333	0.589420
O11	O	0.976249	0.199013	0.089386
O12	O	1.476249	0.699013	0.589386
O13	O	1.252216	0.206299	0.089412
O14	O	1.752216	0.706299	0.589412
Cu15	Cu	1.113233	0.203465	0.105710
Cu16	Cu	1.613233	0.703465	0.605710
Cu17	Cu	1.126176	0.192980	-0.105551
Cu18	Cu	1.626176	0.692980	0.394449
O19	O	1.106686	0.323979	0.089378
O20	O	1.606686	0.823979	0.589378
C21	C	0.946407	0.191391	0.000063
C22	C	1.446407	0.691391	0.500063
C23	C	0.841182	0.181880	0.000054
C24	C	1.341182	0.681880	0.500054
C25	C	1.126628	0.045658	0.000103
C26	C	1.626628	0.545658	0.500103
C27	C	1.124761	-0.047432	0.000111
C28	C	1.624761	0.452568	0.500111
C29	C	0.648520	0.164493	0.000078
C30	C	1.148520	0.664493	0.500078
C31	C	0.590885	0.231949	0.000071
C32	C	1.090885	0.731949	0.500071
C33	C	0.483681	0.222274	0.000085
C34	C	0.983681	0.722274	0.500085
C35	C	0.755734	0.174166	0.000065
C36	C	1.255734	0.674166	0.500065
C37	C	1.121373	-0.217872	0.000086
C38	C	1.621373	0.282128	0.500086
C39	C	1.016322	-0.249065	0.000074
C40	C	1.516322	0.250935	0.500074
C41	C	1.014371	-0.345911	-0.000344
C42	C	1.514371	0.154089	0.499656
C43	C	1.118037	-0.385683	0.000063
C44	C	1.618037	0.114317	0.500063
C45	C	1.177096	-0.357691	-0.101738
C46	C	1.677096	0.142309	0.398262
C47	C	1.178346	-0.260809	-0.101812
C48	C	1.678346	0.239191	0.398188
C49	C	1.167437	-0.250716	0.101342
C50	C	1.667437	0.249284	0.601342
C51	C	1.163478	-0.347435	0.102668
C52	C	1.663478	0.152565	0.602668
C53	C	1.116157	-0.480522	0.000046
C54	C	1.616157	0.019478	0.500046
C55	C	1.123257	-0.123033	0.000096
C56	C	1.623257	0.376967	0.500096
C57	C	1.293003	0.205054	0.000093
C58	C	1.793003	0.705054	0.500093
C59	C	1.398228	0.214565	0.000096
C60	C	1.898228	0.714565	0.500096
C61	C	1.112781	0.350787	0.000054
C62	C	1.612781	0.850787	0.500054
C63	C	1.114649	0.443877	0.000038
C64	C	1.614649	0.943877	0.500038
N65	N	1.104136	0.210840	0.254300
N66	N	1.604136	0.710840	0.754300
N67	N	1.135281	0.185599	-0.254142
N68	N	1.635281	0.685599	0.245858
C69	C	1.090754	0.221696	0.473413
C70	C	1.590754	0.721696	0.973413
C71	C	1.148659	0.174746	0.526753
C72	C	1.648659	0.674746	1.026753
C73	C	1.141214	0.180786	0.648675
C74	C	1.641214	0.680786	1.148675
C75	C	1.098199	0.215657	0.351480
C76	C	1.598199	0.715657	0.851480
H77	H	0.622055	0.296965	0.000055
H78	H	1.122055	0.796965	0.500055
Cl79	Cl	0.600398	0.064118	0.000097
Cl80	Cl	1.100398	0.564118	0.500097
H81	H	0.968544	-0.364403	0.072611
H82	H	1.468544	0.135597	0.572611
Cl83	Cl	1.279714	-0.389036	0.112604
Cl84	Cl	1.779714	0.110964	0.612604
Cl85	Cl	1.005589	0.290758	0.544272
Cl86	Cl	1.505589	0.790758	1.044272
H87	H	0.971131	-0.220480	0.073068
H88	H	1.471131	0.279520	0.573068
H89	H	0.977718	-0.371060	-0.073759
H90	H	1.477718	0.128940	0.426241
Cl91	Cl	0.961371	-0.214517	-0.112482
Cl92	Cl	1.461371	0.285483	0.387518
Cl93	Cl	1.129754	-0.229465	-0.219759
Cl94	Cl	1.629754	0.270535	0.280241
H95	H	1.203826	0.130015	0.480853
H96	H	1.703826	0.630015	0.980853
Cl97	Cl	1.297692	-0.229751	-0.108466
Cl98	Cl	1.797692	0.270249	0.391534
H99	H	1.253623	-0.384011	-0.105232
H100	H	1.753623	0.115989	0.394768
H101	H	1.145512	-0.384258	-0.177797
H102	H	1.645512	0.115742	0.322203
Cl103	Cl	1.108962	-0.204988	0.220519
Cl104	Cl	1.608962	0.295012	0.720519
H105	H	1.120398	-0.365135	0.177982
H106	H	1.620398	0.134865	0.677982
H107	H	1.244698	-0.230871	0.102338
H108	H	1.744698	0.269129	0.602338
