data_functionalizedCrystal
_audit_creation_method	'MofGen! by Chris Wilmer'
_symmetry_space_group_name_H-M	'P1'
_symmetry_Int_Tables_number	1
_symmetry_cell_setting	triclinic
loop_
_symmetry_equiv_pos_as_xyz
  x,y,z
_cell_length_a	19.077068
_cell_length_b	19.077142
_cell_length_c	19.076919
_cell_angle_alpha	90.074357
_cell_angle_beta	85.529249
_cell_angle_gamma	89.885450
loop_
_atom_site_label
_atom_site_type_symbol
_atom_site_fract_x
_atom_site_fract_y
_atom_site_fract_z
Zn1	Zn	-0.340467	-1.044046	0.453535
Zn2	Zn	-0.453617	-1.043960	0.340376
Zn3	Zn	-0.331038	-0.931658	0.330962
Zn4	Zn	-0.453191	-0.921799	0.453108
O5	O	-0.394578	-0.985366	0.394495
O6	O	-0.359601	-1.142194	0.442642
O7	O	-0.433589	-1.033152	0.240651
O8	O	-0.233814	-0.950729	0.343461
O9	O	-0.442732	-1.142130	0.359505
O10	O	-0.240742	-1.033300	0.433514
O11	O	-0.343531	-0.950645	0.233735
O12	O	-0.343117	-0.832191	0.343047
O13	O	-0.442005	-0.933926	0.551640
O14	O	-0.432862	-0.824948	0.432787
O15	O	-0.359188	-1.023740	0.551954
O16	O	-0.552035	-1.023592	0.359091
O17	O	-0.551722	-0.933842	0.441915
C18	C	-0.577413	-0.977656	0.401494
C19	C	-0.655634	-0.974421	0.404515
C20	C	-0.386921	-0.803118	0.386849
C21	C	-0.383663	-0.725150	0.383596
C22	C	-0.692526	-1.019663	0.362850
C23	C	-0.766023	-1.016624	0.365696
C24	C	-0.802628	-0.968340	0.410202
C25	C	-0.765732	-0.923096	0.451871
C26	C	-0.692236	-0.926139	0.449029
C27	C	-1.022422	-0.954229	0.423325
C28	C	-1.095922	-0.951188	0.426162
C29	C	-1.096209	-1.044718	0.339988
C30	C	-1.022711	-1.047753	0.337147
C31	C	-0.985822	-1.002512	0.378818
N32	N	-0.877754	-0.965231	0.413109
N33	N	-0.910697	-1.005625	0.375914
C34	C	-0.428922	-0.684768	0.428722
C35	C	-0.425852	-0.611509	0.425668
C36	C	-0.377525	-0.578633	0.377484
C37	C	-0.332260	-0.619021	0.332356
C38	C	-0.335328	-0.692278	0.335414
C39	C	-0.363329	-0.359939	0.363338
C40	C	-0.360266	-0.286676	0.360282
C41	C	-0.453858	-0.279169	0.453596
C42	C	-0.456924	-0.352428	0.456647
C43	C	-0.411657	-0.392810	0.411521
N44	N	-0.374386	-0.503751	0.374359
N45	N	-0.414792	-0.467691	0.414650
C46	C	-0.211031	-0.993124	0.387485
C47	C	-0.132814	-0.996430	0.384498
C48	C	-0.401601	-0.977743	0.578045
C49	C	-0.404593	-0.974495	0.656263
C50	C	-0.402262	-0.168326	0.402163
C51	C	-0.405526	-0.246294	0.405409
C52	C	-0.387534	-0.993001	0.211659
C53	C	-0.384349	-0.996394	0.133440
C54	C	-0.362883	-1.019728	0.693174
C55	C	-0.365691	-1.016667	0.766668
C56	C	-0.410215	-0.968376	0.803249
C57	C	-0.451927	-0.923138	0.766332
C58	C	-0.449114	-0.926196	0.692840
C59	C	-0.423248	-0.954214	1.023031
C60	C	-0.426060	-0.951161	1.096528
C61	C	-0.339822	-1.044689	1.096859
C62	C	-0.337016	-1.047745	1.023365
C63	C	-0.378726	-1.002505	0.986454
N64	N	-0.413089	-0.965248	0.878372
N65	N	-0.375848	-1.005630	0.911333
H66	H	-0.796056	-1.053465	0.331768
C67	C	-0.510108	-0.388590	0.509623
H68	H	-0.505465	-0.438003	0.504968
H69	H	-0.501220	-0.375075	0.556041
H70	H	-0.556465	-0.375008	0.500521
H71	H	-0.326629	-1.059053	0.663395
C72	C	-0.319813	-1.066427	0.807268
H73	H	-0.292901	-1.095631	0.774956
H74	H	-0.289118	-1.039702	0.833639
H75	H	-0.349120	-1.094659	0.838249
C76	C	-1.136786	-1.094484	0.294156
H77	H	-1.104458	-1.123672	0.267240
H78	H	-1.167732	-1.122721	0.323487
H79	H	-1.163191	-1.067758	0.263454
H80	H	-0.305864	-1.081520	1.126919
C81	C	-0.313542	-0.404352	0.313701
H82	H	-0.322281	-0.452691	0.322425
H83	H	-0.321453	-0.393871	0.266292
H84	H	-0.266169	-0.393905	0.321773
H85	H	-1.125725	-0.911877	0.462417
H86	H	-0.292908	-0.592248	0.293126
H87	H	-0.298469	-0.725157	0.298671
C88	C	-0.503640	-0.234749	0.503236
H89	H	-0.494890	-0.186411	0.494520
H90	H	-0.551013	-0.245191	0.495174
H91	H	-0.495719	-0.245234	0.550646
C92	C	-0.500903	-0.870020	0.806570
H93	H	-0.496611	-0.874682	0.855627
H94	H	-0.488165	-0.823826	0.792153
H95	H	-0.548157	-0.878794	0.796760
C96	C	-0.981851	-0.904454	0.469149
H97	H	-1.014179	-0.875256	0.496052
H98	H	-0.955440	-0.931166	0.499851
H99	H	-0.950909	-0.876216	0.439806
H100	H	-0.992909	-1.087070	0.300906
H101	H	-0.483072	-0.889356	0.662787
H102	H	-0.320904	-0.259912	0.321049
H103	H	-0.795541	-0.883785	0.488112
H104	H	-0.662727	-1.058978	0.326606
H105	H	-0.662200	-0.889299	0.482957
H106	H	-0.462318	-0.911834	1.126311
H107	H	-0.300762	-1.087071	0.993586
H108	H	-0.468278	-0.711529	0.467956
C109	C	-0.475679	-0.567091	0.475265
H110	H	-0.504918	-0.597163	0.504381
H111	H	-0.448827	-0.538354	0.503767
H112	H	-0.504056	-0.538361	0.448231
H113	H	-0.457222	-0.917386	0.992988
