data_functionalizedCrystal
_audit_creation_method	'MofGen! by Chris Wilmer'
_symmetry_space_group_name_H-M	'P1'
_symmetry_Int_Tables_number	1
_symmetry_cell_setting	triclinic
loop_
_symmetry_equiv_pos_as_xyz
  x,y,z
_cell_length_a	19.188929
_cell_length_b	17.699097
_cell_length_c	16.176319
_cell_angle_alpha	90.004855
_cell_angle_beta	89.970652
_cell_angle_gamma	96.783395
loop_
_atom_site_label
_atom_site_type_symbol
_atom_site_fract_x
_atom_site_fract_y
_atom_site_fract_z
O1	O	-0.088340	1.003949	0.068855
O2	O	0.411660	1.503949	0.568855
O3	O	-0.099818	0.783557	0.068847
O4	O	0.400182	1.283557	0.568847
O5	O	0.007569	0.900113	0.068800
O6	O	0.507569	1.400113	0.568800
O7	O	-0.195727	0.887393	0.068902
O8	O	0.304273	1.387393	0.568902
O9	O	0.007579	0.900111	-0.068693
O10	O	0.507579	1.400111	0.431307
O11	O	-0.099808	0.783555	-0.068646
O12	O	0.400192	1.283555	0.431354
O13	O	-0.088330	1.003947	-0.068638
O14	O	0.411670	1.503947	0.431362
Cu15	Cu	-0.094068	0.893751	-0.081197
Cu16	Cu	0.405932	1.393751	0.418803
Cu17	Cu	-0.094080	0.893753	0.081405
Cu18	Cu	0.405920	1.393753	0.581405
O19	O	-0.195717	0.887391	-0.068591
O20	O	0.304283	1.387391	0.431409
C21	C	-0.099400	0.755360	0.000098
C22	C	0.400600	1.255360	0.500098
C23	C	-0.098161	0.671344	0.000092
C24	C	0.401839	1.171344	0.500092
C25	C	-0.090575	0.155637	0.075070
C26	C	0.409425	0.655637	0.575070
C27	C	-0.091734	0.234579	0.075066
C28	C	0.408266	0.734579	0.575066
C29	C	-0.092309	0.274043	0.000115
C30	C	0.407691	0.774043	0.500115
C31	C	-0.091719	0.234562	-0.074837
C32	C	0.408281	0.734562	0.425163
C33	C	-0.090555	0.155621	-0.074832
C34	C	0.409445	0.655621	0.425168
C35	C	-0.096412	0.552920	-0.074856
C36	C	0.403588	1.052920	0.425144
C37	C	-0.097578	0.631865	-0.074855
C38	C	0.402422	1.131865	0.425145
C39	C	-0.097591	0.631878	0.075042
C40	C	0.402409	1.131878	0.575042
C41	C	-0.096427	0.552937	0.075047
C42	C	0.403573	1.052937	0.575047
C43	C	-0.095833	0.513463	0.000095
C44	C	0.404167	1.013463	0.500095
C45	C	-0.094575	0.427865	0.000100
C46	C	0.405425	0.927865	0.500100
C47	C	-0.093572	0.359639	0.000110
C48	C	0.406428	0.859639	0.500110
C49	C	-0.221734	0.887804	0.000168
C50	C	0.278266	1.387804	0.500168
C51	C	-0.299240	0.889040	0.000208
C52	C	0.200760	1.389040	0.500208
C53	C	-0.344084	0.820649	0.000188
C54	C	0.155916	1.320649	0.500188
C55	C	-0.416909	0.821811	0.000170
C56	C	0.083091	1.321811	0.500170
C57	C	-0.444887	0.891368	0.000154
C58	C	0.055113	1.391368	0.500154
C59	C	-0.400033	0.959768	0.000178
C60	C	0.099967	1.459768	0.500178
C61	C	-0.327209	0.958604	0.000205
C62	C	0.172791	1.458604	0.500205
N63	N	-0.552914	0.944534	-0.046688
N64	N	-0.052914	1.444534	0.453312
N65	N	-0.622094	0.945635	-0.046716
N66	N	-0.122094	1.445635	0.453284
C67	C	-0.664299	0.894878	0.000075
C68	C	-0.164299	1.394878	0.500075
N69	N	-0.634713	0.842967	0.046883
N70	N	-0.134713	1.342967	0.546883
N71	N	-0.565527	0.841864	0.046906
N72	N	-0.065527	1.341864	0.546906
C73	C	-0.523851	0.892637	0.000125
C74	C	-0.023851	1.392637	0.500125
C75	C	-0.788110	0.827742	0.000036
C76	C	-0.288110	1.327742	0.500036
C77	C	-0.860936	0.828906	0.000023
C78	C	-0.360936	1.328906	0.500023
C79	C	-0.844058	0.966865	0.000022
C80	C	-0.344058	1.466865	0.500022
C81	C	-0.771233	0.965699	0.000044
C82	C	-0.271233	1.465699	0.500044
C83	C	-0.743264	0.896135	0.000047
C84	C	-0.243264	1.396135	0.500047
C85	C	0.033586	0.899700	0.000042
C86	C	0.533586	1.399700	0.500042
C87	C	0.111092	0.898464	0.000008
C88	C	0.611092	1.398464	0.500008
C89	C	-0.088748	1.032144	0.000112
C90	C	0.411252	1.532144	0.500112
C91	C	-0.089987	1.116160	0.000123
C92	C	0.410013	1.616160	0.500123
N93	N	-0.094083	0.893756	0.195770
N94	N	0.405917	1.393756	0.695770
N95	N	-0.094059	0.893755	-0.195562
N96	N	0.405941	1.393755	0.304438
C97	C	-0.046625	0.945462	0.239014
C98	C	0.453375	1.445462	0.739014
C99	C	-0.046624	0.945465	0.325561
C100	C	0.453376	1.445465	0.825561
C101	C	-0.094077	0.893757	0.368863
C102	C	0.405923	1.393757	0.868863
C103	C	-0.141540	0.842048	0.325613
C104	C	0.358460	1.342048	0.825613
C105	C	-0.141544	0.842050	0.239068
C106	C	0.358456	1.342050	0.739068
C107	C	-0.141524	0.842043	0.674642
C108	C	0.358476	1.342043	1.174642
C109	C	-0.141514	0.842044	0.761193
C110	C	0.358486	1.342044	1.261193
C111	C	-0.046604	0.945458	0.761135
C112	C	0.453396	1.445458	1.261135
C113	C	-0.046608	0.945459	0.674589
C114	C	0.453392	1.445459	1.174589
C115	C	-0.094073	0.893754	0.631347
C116	C	0.405927	1.393754	1.131347
C117	C	-0.094075	0.893752	0.537503
C118	C	0.405925	1.393752	1.037503
C119	C	-0.094072	0.893755	0.462706
C120	C	0.405928	1.393755	0.962706
H121	H	-0.092209	0.266718	0.136095
H122	H	0.407791	0.766718	0.636095
C123	C	-0.094653	0.431932	0.141610
C124	C	0.405347	0.931932	0.641610
C125	C	-0.095797	0.509558	0.157434
C126	C	0.404203	1.009558	0.657434
H127	H	-0.094267	0.405154	0.192474
H128	H	0.405733	0.905154	0.692474
H129	H	-0.053764	0.424903	0.110801
H130	H	0.446236	0.924903	0.610801
H131	H	-0.135163	0.413094	0.110834
H132	H	0.364837	0.913094	0.610834
H133	H	-0.055284	0.528398	0.188205
H134	H	0.444716	1.028398	0.688205
H135	H	-0.136690	0.516592	0.188256
H136	H	0.363310	1.016592	0.688256
C137	C	0.047221	1.047681	0.752382
C138	C	0.547221	1.547681	1.252382
C139	C	0.005568	1.002301	0.808668
C140	C	0.505568	1.502301	1.308668
H141	H	0.079432	1.082767	0.781727
H142	H	0.579432	1.582767	1.281727
H143	H	0.018134	1.074740	0.718651
H144	H	0.518134	1.574740	1.218651
H145	H	0.072355	1.016309	0.718605
H146	H	0.572355	1.516309	1.218605
H147	H	-0.019570	1.033673	0.842441
H148	H	0.480430	1.533673	1.342441
H149	H	0.034660	0.975240	0.842414
H150	H	0.534660	1.475240	1.342414
H151	H	-0.422817	1.016402	0.000180
H152	H	0.077183	1.516402	0.500180
H153	H	-0.321316	0.764005	0.000198
H154	H	0.178684	1.264005	0.500198
H155	H	-0.453428	0.766117	0.000152
H156	H	0.046572	1.266117	0.500152
H157	H	-0.098072	0.664027	0.136071
H158	H	0.401928	1.164027	0.636071
C159	C	0.048423	0.962398	0.577200
C160	C	0.548423	1.462398	1.077200
C161	C	0.005555	1.002298	0.626994
C162	C	0.505555	1.502298	1.126994
H163	H	0.080628	0.997491	0.547822
H164	H	0.580628	1.497491	1.047822
H165	H	0.020159	0.931610	0.539062
H166	H	0.520159	1.431610	1.039062
H167	H	0.073565	0.931041	0.610950
H168	H	0.573565	1.431041	1.110950
H169	H	-0.019591	1.033651	0.593243
H170	H	0.480409	1.533651	1.093243
H171	H	0.033822	1.033099	0.665136
H172	H	0.533822	1.533099	1.165136
H173	H	-0.734720	1.021391	0.000055
H174	H	-0.234720	1.521391	0.500055
C175	C	-0.149231	0.058123	-0.161760
C176	C	0.350769	0.558123	0.338240
C177	C	-0.089908	0.112223	-0.157214
C178	C	0.410092	0.612223	0.342786
H179	H	-0.148825	0.031330	-0.212619
H180	H	0.351175	0.531330	0.287381
H181	H	-0.190378	0.083013	-0.158633
H182	H	0.309622	0.583013	0.341367
H183	H	-0.148714	0.023329	-0.117117
H184	H	0.351286	0.523329	0.382883
H185	H	-0.090428	0.147021	-0.201854
H186	H	0.409572	0.647021	0.298146
H187	H	-0.048750	0.087333	-0.160349
H188	H	0.451250	0.587333	0.339651
H189	H	-0.098046	0.663995	-0.135892
H190	H	0.401954	1.163995	0.364108
H191	H	-0.180180	0.799949	0.360875
H192	H	0.319820	1.299949	0.860875
H193	H	-0.180159	0.799936	0.796448
H194	H	0.319841	1.299936	1.296448
C195	C	-0.317842	1.095086	0.000201
C196	C	0.182158	1.595086	0.500201
C197	C	-0.277911	1.033786	0.000217
C198	C	0.222089	1.533786	0.500217
H199	H	-0.287405	1.141500	0.000202
H200	H	0.212595	1.641500	0.500202
H201	H	-0.346625	1.092674	0.048137
H202	H	0.153375	1.592674	0.548137
H203	H	-0.346569	1.092665	-0.047757
H204	H	0.153431	1.592665	0.452243
H205	H	-0.249188	1.036204	0.048179
H206	H	0.250812	1.536204	0.548179
H207	H	-0.249116	1.036200	-0.047723
H208	H	0.250884	1.536200	0.452277
H209	H	-0.180170	0.799941	0.639441
H210	H	0.319830	1.299941	1.139441
C211	C	-0.812105	0.691493	0.000051
C212	C	-0.312105	1.191493	0.500051
C213	C	-0.757360	0.751279	0.000057
C214	C	-0.257360	1.251279	0.500057
H215	H	-0.793121	0.644289	0.000071
H216	H	-0.293121	1.144289	0.500071
H217	H	-0.840124	0.694809	-0.047903
H218	H	-0.340124	1.194809	0.452097
H219	H	-0.840190	0.694828	0.047991
H220	H	-0.340190	1.194828	0.547991
H221	H	-0.729277	0.747947	-0.047886
H222	H	-0.229277	1.247947	0.452114
H223	H	-0.729329	0.747962	0.048017
H224	H	-0.229329	1.247962	0.548017
H225	H	-0.007981	0.987565	0.203763
H226	H	0.492019	1.487565	0.703763
C227	C	-0.235353	0.739816	0.247813
C228	C	0.264647	1.239816	0.747813
C229	C	-0.193706	0.785207	0.191531
C230	C	0.306294	1.285207	0.691531
H231	H	-0.267554	0.704721	0.218464
H232	H	0.232446	1.204721	0.718464
H233	H	-0.260493	0.771174	0.281586
H234	H	0.239507	1.271174	0.781586
H235	H	-0.206255	0.712760	0.281548
H236	H	0.293745	1.212760	0.781548
H237	H	-0.222803	0.812267	0.157799
H238	H	0.277197	1.312267	0.657799
H239	H	-0.168564	0.753844	0.157743
H240	H	0.331436	1.253844	0.657743
C241	C	-0.096528	0.560846	-0.223025
C242	C	0.403472	1.060846	0.276975
C243	C	-0.095769	0.509535	-0.157242
C244	C	0.404231	1.009535	0.342758
H245	H	-0.096137	0.534057	-0.273888
H246	H	0.403863	1.034057	0.226112
H247	H	-0.056285	0.597539	-0.219931
H248	H	0.443715	1.097539	0.280069
H249	H	-0.137684	0.585731	-0.219876
H250	H	0.362316	1.085731	0.280124
H251	H	-0.054611	0.484654	-0.160387
H252	H	0.445389	0.984654	0.339613
H253	H	-0.136016	0.472828	-0.160338
H254	H	0.363984	0.972828	0.339662
H255	H	-0.090112	0.123510	0.136103
H256	H	0.409888	0.623510	0.636103
C257	C	-0.093505	0.355564	-0.141404
C258	C	0.406495	0.855564	0.358596
C259	C	-0.092353	0.277939	-0.157225
C260	C	0.407647	0.777939	0.342775
H261	H	-0.093903	0.382339	-0.192269
H262	H	0.406097	0.882339	0.307731
H263	H	-0.053001	0.374408	-0.110637
H264	H	0.446999	0.874408	0.389363
H265	H	-0.134400	0.362588	-0.110587
H266	H	0.365600	0.862588	0.389413
H267	H	-0.051456	0.270914	-0.188037
H268	H	0.448544	0.770914	0.311963
H269	H	-0.132861	0.259088	-0.188005
H270	H	0.367139	0.759088	0.311995
C271	C	-0.952660	0.750173	0.070676
C272	C	-0.452660	1.250173	0.570676
C273	C	-0.910230	0.753723	0.000007
C274	C	-0.410230	1.253723	0.500007
H275	H	-0.983089	0.703755	0.070667
H276	H	-0.483089	1.203755	0.570667
H277	H	-0.979742	0.791759	0.070664
H278	H	-0.479742	1.291759	0.570664
H279	H	-0.923923	0.752587	0.118625
H280	H	-0.423923	1.252587	0.618625
H281	H	-0.938968	0.751315	-0.047943
H282	H	-0.438968	1.251315	0.452057
H283	H	-0.883146	0.712125	0.000011
H284	H	-0.383146	1.212125	0.500011
H285	H	-0.866836	1.023500	0.000070
H286	H	-0.366836	1.523500	0.500070
H287	H	-0.007981	0.987569	0.360769
H288	H	0.492019	1.487569	0.860769
