data_functionalizedCrystal
_audit_creation_method	'MofGen! by Chris Wilmer'
_symmetry_space_group_name_H-M	'P1'
_symmetry_Int_Tables_number	1
_symmetry_cell_setting	triclinic
loop_
_symmetry_equiv_pos_as_xyz
  x,y,z
_cell_length_a	12.759401
_cell_length_b	16.120484
_cell_length_c	12.759393
_cell_angle_alpha	92.862533
_cell_angle_beta	89.981665
_cell_angle_gamma	92.925560
loop_
_atom_site_label
_atom_site_type_symbol
_atom_site_fract_x
_atom_site_fract_y
_atom_site_fract_z
Zn1	Zn	1.584970	-0.331850	-0.615146
Zn2	Zn	2.084970	0.168150	-0.115146
Zn3	Zn	1.575922	-0.471289	-0.448359
Zn4	Zn	2.075922	0.028711	0.051641
Zn5	Zn	1.409270	-0.331895	-0.439488
Zn6	Zn	1.909270	0.168105	0.060512
Zn7	Zn	1.400322	-0.471224	-0.623996
Zn8	Zn	1.900322	0.028776	-0.123996
O9	O	1.492621	-0.401564	-0.531747
O10	O	1.992621	0.098436	-0.031747
O11	O	1.730790	-0.350355	-0.593029
O12	O	2.230790	0.149645	-0.093029
O13	O	1.553773	-0.452843	-0.300164
O14	O	2.053773	0.047157	0.199836
O15	O	1.440108	-0.215223	-0.455373
O16	O	1.940108	0.284777	0.044627
O17	O	1.724143	-0.452800	-0.470492
O18	O	2.224143	0.047200	0.029508
O19	O	1.569195	-0.215191	-0.584428
O20	O	2.069195	0.284809	-0.084428
O21	O	1.431335	-0.350431	-0.293646
O22	O	1.931335	0.149569	0.206354
O23	O	1.261062	-0.350368	-0.463955
O24	O	1.761062	0.149632	0.036045
O25	O	1.424858	-0.452690	-0.769840
O26	O	1.924858	0.047310	-0.269840
O27	O	1.254489	-0.452733	-0.599512
O28	O	1.754489	0.047267	-0.099512
O29	O	1.560518	-0.350292	-0.763338
O30	O	2.060518	0.149708	-0.263338
O31	O	1.545097	-0.587945	-0.479074
O32	O	2.045097	-0.087945	0.020926
O33	O	1.416084	-0.587897	-0.608113
O34	O	1.916084	-0.087897	-0.108113
C35	C	1.219655	-0.401549	-0.531732
C36	C	1.719655	0.098451	-0.031732
C37	C	1.102877	-0.401562	-0.531751
C38	C	1.602877	0.098438	-0.031751
C39	C	1.044614	-0.454949	-0.602230
C40	C	1.544614	0.045051	-0.102230
C41	C	0.934889	-0.454959	-0.602242
C42	C	1.434889	0.045041	-0.102242
C43	C	0.941701	-0.348195	-0.461287
C44	C	1.441701	0.151805	0.038713
C45	C	1.051424	-0.348181	-0.461281
C46	C	1.551424	0.151819	0.038719
C47	C	1.040681	-0.516591	-0.683607
C48	C	1.540681	-0.016591	-0.183607
C49	C	0.930956	-0.516602	-0.683619
C50	C	1.430956	-0.016602	-0.183619
C51	C	1.478666	-0.618171	-0.545539
C52	C	1.978666	-0.118171	-0.045539
C53	C	1.472793	-0.710837	-0.551475
C54	C	1.972793	-0.210837	-0.051475
C55	C	1.462075	-0.880497	-0.562333
C56	C	1.962075	-0.380497	-0.062333
C57	C	1.523356	-0.921791	-0.501178
C58	C	2.023356	-0.421791	-0.001178
C59	C	1.517392	-1.016196	-0.507219
C60	C	2.017392	-0.516196	-0.007219
C61	C	1.468037	-0.786084	-0.556293
C62	C	1.968037	-0.286084	-0.056293
C63	C	1.766653	-0.401580	-0.531763
C64	C	2.266653	0.098420	-0.031763
C65	C	1.883429	-0.401587	-0.531770
C66	C	2.383429	0.098413	-0.031770
C67	C	1.492699	-0.401479	-0.805775
C68	C	1.992699	0.098521	-0.305775
C69	C	1.492733	-0.401442	-0.922549
C70	C	1.992733	0.098558	-0.422549
C71	C	1.506659	-0.184111	-0.517924
C72	C	2.006659	0.315889	-0.017924
C73	C	1.512641	-0.091446	-0.512033
C74	C	2.012641	0.408554	-0.012033
C75	C	1.429029	-0.348085	-1.083748
C76	C	1.929029	0.151915	-0.583748
C77	C	1.429001	-0.348109	-0.974026
C78	C	1.929001	0.151891	-0.474026
C79	C	1.556504	-0.454750	-0.980801
C80	C	2.056504	0.045250	-0.480801
C81	C	1.556536	-0.454722	-1.090522
C82	C	2.056536	0.045278	-0.590522
C83	C	1.355413	-0.286520	-1.079836
C84	C	1.855413	0.213480	-0.579836
C85	C	1.355385	-0.286543	-0.970113
C86	C	1.855385	0.213457	-0.470113
C87	C	1.492607	-0.401589	-0.258781
C88	C	1.992607	0.098411	0.241219
C89	C	1.492793	-0.401391	-0.141992
C90	C	1.992793	0.098609	0.358008
H91	H	0.899794	-0.304732	-0.403914
H92	H	1.399794	0.195268	0.096086
H93	H	1.098858	-0.304703	-0.403897
H94	H	1.598858	0.195297	0.096103
H95	H	1.071593	-0.499372	-0.763915
H96	H	1.571593	0.000628	-0.263915
H97	H	1.405136	-0.916043	-0.619223
H98	H	1.905136	-0.416043	-0.119223
F99	F	1.080005	-0.596739	-0.650520
F100	F	1.580005	-0.096739	-0.150520
H101	H	1.608469	-0.498121	-1.137940
H102	H	2.108469	0.001879	-0.637940
H103	H	1.608402	-0.498170	-0.938880
H104	H	2.108402	0.001830	-0.438880
F105	F	1.389371	-0.202120	-1.113403
F106	F	1.889371	0.297880	-0.613403
H107	H	1.272888	-0.303834	-0.941428
H108	H	1.772888	0.196166	-0.441428
H109	H	0.898436	-0.493554	-0.759501
H110	H	1.398436	0.006446	-0.259501
H111	H	1.276638	-0.309637	-1.115333
H112	H	1.776638	0.190363	-0.615333
H113	H	0.897020	-0.581155	-0.665803
H114	H	1.397020	-0.081155	-0.165803
F115	F	1.597782	-0.875329	-0.426809
F116	F	2.097782	-0.375329	0.073191
F117	F	1.398640	-0.206385	-0.920541
F118	F	1.898640	0.293615	-0.420541
