data_functionalizedCrystal
_audit_creation_method	'MofGen! by Chris Wilmer'
_symmetry_space_group_name_H-M	'P1'
_symmetry_Int_Tables_number	1
_symmetry_cell_setting	triclinic
loop_
_symmetry_equiv_pos_as_xyz
  x,y,z
_cell_length_a	12.759401
_cell_length_b	29.839131
_cell_length_c	12.759393
_cell_angle_alpha	89.962110
_cell_angle_beta	89.981504
_cell_angle_gamma	90.041581
loop_
_atom_site_label
_atom_site_type_symbol
_atom_site_fract_x
_atom_site_fract_y
_atom_site_fract_z
Zn1	Zn	1.606060	-0.178825	-0.593935
Zn2	Zn	1.605873	-0.253963	-0.418236
Zn3	Zn	1.430362	-0.178848	-0.418275
Zn4	Zn	1.430269	-0.253929	-0.593877
O5	O	1.518141	-0.216391	-0.506081
O6	O	1.753056	-0.188797	-0.570636
O7	O	1.582551	-0.244024	-0.271220
O8	O	1.453787	-0.115978	-0.441617
O9	O	1.752919	-0.244001	-0.441551
O10	O	1.582871	-0.115961	-0.570674
O11	O	1.453605	-0.188837	-0.271248
O12	O	1.283329	-0.188803	-0.441561
O13	O	1.453628	-0.243942	-0.740906
O14	O	1.283260	-0.243965	-0.570575
O15	O	1.582781	-0.188763	-0.740949
O16	O	1.582461	-0.316826	-0.441495
O17	O	1.453446	-0.316801	-0.570538
C18	C	1.245174	-0.216383	-0.506066
C19	C	1.128397	-0.216390	-0.506085
C20	C	1.073527	-0.245159	-0.573152
C21	C	0.963803	-0.245165	-0.573163
C22	C	0.963829	-0.187632	-0.439032
C23	C	1.073551	-0.187624	-0.439027
C24	C	1.073511	-0.278376	-0.650588
C25	C	0.963787	-0.278382	-0.650600
C26	C	1.517951	-0.333114	-0.506029
C27	C	1.517966	-0.383048	-0.506041
C28	C	1.585441	-0.692692	-0.438986
C29	C	1.585571	-0.880365	-0.439027
O30	O	1.642790	-0.904631	-0.381974
N31	N	1.518359	-0.903833	-0.506160
C32	C	1.451114	-0.880380	-0.573292
O33	O	1.393957	-0.904648	-0.630402
C34	C	1.450991	-0.692708	-0.573256
C35	C	1.518200	-0.669243	-0.506111
C36	C	1.652646	-0.669227	-0.371848
C37	C	1.652609	-0.622311	-0.371834
C38	C	1.585367	-0.598861	-0.438959
C39	C	1.518163	-0.622327	-0.506098
C40	C	1.383752	-0.669256	-0.640393
C41	C	1.383729	-0.622335	-0.640380
C42	C	1.450938	-0.598869	-0.573235
C43	C	1.450884	-0.551962	-0.573209
N44	N	1.518096	-0.528494	-0.506076
C45	C	1.585338	-0.551944	-0.438951
C46	C	1.451183	-0.978911	-0.573305
C47	C	1.451212	-1.025829	-0.573313
C48	C	1.585670	-1.025811	-0.439049
C49	C	1.585635	-0.978892	-0.439036
C50	C	1.518395	-0.955443	-0.506172
C51	C	1.585254	-0.453418	-0.438927
C52	C	1.585208	-0.406498	-0.438916
C53	C	1.450754	-0.406521	-0.573184
C54	C	1.450796	-0.453436	-0.573191
C55	C	1.518054	-0.476884	-0.506059
O56	O	1.393703	-0.527668	-0.630240
O57	O	1.642503	-0.527668	-0.381867
C58	C	1.585479	-0.739608	-0.439000
C59	C	1.518274	-0.763073	-0.506138
C60	C	1.451033	-0.739624	-0.573263
C61	C	1.518304	-0.809991	-0.506146
C62	C	1.585545	-0.833441	-0.439021
C63	C	1.652757	-0.809973	-0.371888
C64	C	1.652720	-0.763058	-0.371875
C65	C	1.383820	-0.763092	-0.640396
C66	C	1.383862	-0.810007	-0.640404
C67	C	1.451104	-0.833457	-0.573279
C68	C	1.792174	-0.216400	-0.506096
C69	C	1.908951	-0.216404	-0.506102
C70	C	1.518215	-0.216346	-0.780114
C71	C	1.518246	-0.216327	-0.896891
C72	C	1.518360	-0.099213	-0.506156
C73	C	1.518454	-0.049279	-0.506188
C74	C	1.585505	-0.187593	-0.951777
C75	C	1.585530	-0.187576	-1.061501
C76	C	1.451034	-0.245032	-1.061444
C77	C	1.451004	-0.245046	-0.951722
C78	C	1.663159	-0.154422	-0.951811
C79	C	1.663184	-0.154406	-1.061535
C80	C	1.518128	-0.216404	-0.233113
C81	C	1.518301	-0.216297	-0.116337
H82	H	0.933953	-0.313167	-0.628659
C83	C	1.309828	-0.695058	-0.714261
H84	H	1.269795	-0.674366	-0.754241
H85	H	1.264076	-0.713396	-0.674054
H86	H	1.350016	-0.713325	-0.760083
C87	C	1.113801	-0.265839	-0.760557
H88	H	1.055913	-0.260683	-0.805785
H89	H	1.155141	-0.289662	-0.787487
H90	H	1.155195	-0.239428	-0.756239
H91	H	1.641428	-0.119630	-0.922064
C92	C	1.767528	-0.171265	-0.905818
H93	H	1.814028	-0.178754	-0.961263
H94	H	1.754985	-0.197035	-0.863888
H95	H	1.797970	-0.148391	-0.863940
H96	H	1.634107	-0.121348	-1.095591
H97	H	1.640422	-1.044911	-0.384393
C98	C	1.133910	-0.155975	-0.365267
H99	H	1.207112	-0.160087	-0.374874
H100	H	1.115896	-0.162510	-0.294646
H101	H	1.115971	-0.125799	-0.380794
H102	H	1.707448	-0.743955	-0.317199
C103	C	0.903500	-0.155993	-0.365270
H104	H	0.951896	-0.138856	-0.325331
H105	H	0.860652	-0.173155	-0.319422
H106	H	0.860744	-0.136439	-0.405557
C107	C	1.659146	-0.380689	-0.365059
H108	H	1.699204	-0.401377	-0.325094
H109	H	1.618973	-0.362419	-0.319239
H110	H	1.704892	-0.362353	-0.405291
C111	C	1.773082	-0.167005	-1.101768
H112	H	1.818259	-0.172201	-1.043856
H113	H	1.800186	-0.143191	-1.143152
H114	H	1.768595	-0.193404	-1.143104
H115	H	1.107489	-0.311410	-0.621295
H116	H	1.328975	-0.603245	-0.695053
H117	H	1.396232	-0.268443	-0.907038
H118	H	0.929803	-0.265962	-0.727955
H119	H	1.640025	-0.472503	-0.384264
C120	C	1.376867	-0.479249	-0.647047
H121	H	1.336819	-0.458562	-0.687025
H122	H	1.331126	-0.497590	-0.606833
H123	H	1.417059	-0.497514	-0.692870
C124	C	1.377276	-1.051636	-0.647166
H125	H	1.337236	-1.030946	-0.687146
H126	H	1.331528	-1.069972	-0.606949
H127	H	1.417459	-1.069905	-0.692988
C128	C	1.726552	-0.596505	-0.297987
H129	H	1.766607	-0.617196	-0.258026
H130	H	1.686390	-0.578233	-0.252163
H131	H	1.772301	-0.578172	-0.338222
H132	H	1.707408	-0.688315	-0.317186
H133	H	1.396003	-0.387420	-0.627834
C134	C	1.659572	-0.953084	-0.365186
H135	H	1.699624	-0.973773	-0.325218
H136	H	1.619404	-0.934811	-0.319369
H137	H	1.705324	-0.934752	-0.405419
H138	H	1.396425	-0.959822	-0.627977
H139	H	1.707505	-0.829074	-0.317230
C140	C	1.309929	-0.835814	-0.714270
H141	H	1.269889	-0.815125	-0.754250
H142	H	1.264182	-0.854154	-0.674061
H143	H	1.350120	-0.854080	-0.760092
C144	C	1.377082	-0.276624	-1.121761
H145	H	1.386736	-0.272503	-1.194968
H146	H	1.306499	-0.270051	-1.103779
H147	H	1.392406	-0.306814	-1.103754
H148	H	1.329065	-0.744003	-0.695059
