data_functionalizedCrystal
_audit_creation_method	'MofGen! by Chris Wilmer'
_symmetry_space_group_name_H-M	'P1'
_symmetry_Int_Tables_number	1
_symmetry_cell_setting	triclinic
loop_
_symmetry_equiv_pos_as_xyz
  x,y,z
_cell_length_a	6.817900
_cell_length_b	17.982959
_cell_length_c	10.992410
_cell_angle_alpha	94.193478
_cell_angle_beta	108.764651
_cell_angle_gamma	102.451857
loop_
_atom_site_label
_atom_site_type_symbol
_atom_site_fract_x
_atom_site_fract_y
_atom_site_fract_z
V1	V	-4.082291	-0.105413	-0.401130
O2	O	-4.073912	0.005065	-0.392942
O3	O	-4.028461	-0.209015	-0.398917
O4	O	-4.060375	-0.103791	-0.575834
O5	O	-4.041777	-0.100887	-0.214800
V6	V	-4.563191	-0.092198	-0.378779
O7	O	-4.349303	-0.134400	-0.450158
O8	O	-4.746375	-0.063211	-0.329750
O9	O	-4.393814	0.011405	-0.380991
O10	O	-4.688967	-0.202676	-0.386967
O11	O	-4.721101	-0.096723	-0.565108
O12	O	-4.361900	-0.093820	-0.204074
C13	C	-3.871284	-0.234271	-0.392726
C14	C	-3.908735	-0.318968	-0.392082
C15	C	-4.109221	-0.362639	-0.398207
C16	C	-4.144402	-0.442221	-0.397609
C17	C	-3.979090	-0.478130	-0.390877
C18	C	-3.778590	-0.434453	-0.384754
C19	C	-3.743416	-0.354873	-0.385362
C20	C	-3.920439	-0.755389	-0.382307
C21	C	-3.955627	-0.834974	-0.381696
C22	C	-4.321425	-0.842736	-0.394555
C23	C	-4.286251	-0.763157	-0.395162
C24	C	-4.085759	-0.719488	-0.389047
C25	C	-4.047615	-0.633196	-0.389698
C26	C	-4.017227	-0.564419	-0.390216
C27	C	-3.911992	-0.100046	-0.618399
C28	C	-3.975320	-0.099406	-0.761224
C29	C	-3.844212	-0.093573	-0.956318
C30	C	-3.778364	-0.094555	-0.807840
C31	C	-4.150562	-0.174528	-0.838711
C32	C	-4.215077	-0.173864	-0.987274
C33	C	-4.136942	-0.028401	-0.948502
C34	C	-4.066341	-0.028045	-0.799487
C35	C	-4.214332	0.036657	-0.387179
C36	C	-4.156121	0.121353	-0.387831
C37	C	-4.173624	-0.097567	-0.161502
C38	C	-4.089534	-0.098203	-0.018676
H39	H	-3.643996	-0.463697	-0.379280
C40	C	-3.600125	-0.021518	-0.735485
C41	C	-3.386259	-0.005571	-0.760397
C42	C	-3.208111	0.067501	-0.688090
C43	C	-3.243828	0.124626	-0.590872
C44	C	-3.457704	0.108680	-0.565955
C45	C	-3.635852	0.035608	-0.638262
H46	H	-3.359811	-0.047859	-0.832368
H47	H	-3.049786	0.079305	-0.706535
H48	H	-3.111952	0.178718	-0.537346
H49	H	-3.484152	0.150969	-0.493984
H50	H	-3.794177	0.023805	-0.619816
H51	H	-3.743496	-0.039186	-0.974870
H52	H	-3.804069	-0.143726	-1.004566
C53	C	-3.680299	-0.163251	-0.774649
C54	C	-3.448415	-0.149200	-0.680482
C55	C	-3.350356	-0.217901	-0.647291
C56	C	-3.484180	-0.300653	-0.708266
C57	C	-3.716078	-0.314707	-0.802439
C58	C	-3.814138	-0.246006	-0.835630
H59	H	-3.349338	-0.087939	-0.635339
H60	H	-3.178689	-0.207497	-0.577577
H61	H	-3.411591	-0.351509	-0.683696
H62	H	-3.815155	-0.375968	-0.847582
H63	H	-3.985804	-0.256410	-0.905343
C64	C	-4.172401	-0.245261	-1.050151
C65	C	-4.286939	-0.326599	-1.037895
C66	C	-4.244252	-0.397998	-1.100762
C67	C	-4.087028	-0.388059	-1.175886
C68	C	-3.972480	-0.306718	-1.188145
C69	C	-4.015166	-0.235319	-1.125278
H70	H	-4.403335	-0.333960	-0.982282
H71	H	-4.329049	-0.458213	-1.091687
H72	H	-4.055429	-0.440913	-1.222424
H73	H	-3.856084	-0.299357	-1.243759
H74	H	-3.930369	-0.175104	-1.134353
H75	H	-4.307656	-0.477775	-0.402600
H76	H	-3.580164	-0.319317	-0.380379
H77	H	-4.395098	-0.180396	-1.029939
C78	C	-4.021231	0.048668	-0.975576
C79	C	-3.882213	0.049201	-1.061772
C80	C	-3.766460	0.126266	-1.088836
C81	C	-3.789726	0.202797	-1.029704
C82	C	-3.928751	0.202266	-0.943503
C83	C	-4.044503	0.125202	-0.916439
H84	H	-3.864984	-0.007454	-1.105551
H85	H	-3.663545	0.126658	-1.152649
H86	H	-3.704039	0.259845	-1.049738
H87	H	-3.945979	0.258921	-0.899725
H88	H	-4.147419	0.124809	-0.852627
H89	H	-4.243836	-0.333408	-0.403678
H90	H	-4.315098	-0.031131	-0.989356
H91	H	-4.420866	-0.733924	-0.400638
H92	H	-3.821003	-0.864208	-0.376222
H93	H	-4.299039	-0.180791	-0.809939
H94	H	-4.484681	-0.878302	-0.399536
H95	H	-4.088738	-0.227511	-0.813375
H96	H	-3.939934	0.027527	-0.746846
H97	H	-3.757187	-0.719842	-0.377320
H98	H	-4.208721	-0.027163	-0.766971
