data_functionalizedCrystal
_audit_creation_method	'MofGen! by Chris Wilmer'
_symmetry_space_group_name_H-M	'P1'
_symmetry_Int_Tables_number	1
_symmetry_cell_setting	triclinic
loop_
_symmetry_equiv_pos_as_xyz
  x,y,z
_cell_length_a	12.759395
_cell_length_b	12.759394
_cell_length_c	12.759387
_cell_angle_alpha	89.968340
_cell_angle_beta	89.979491
_cell_angle_gamma	90.016374
loop_
_atom_site_label
_atom_site_type_symbol
_atom_site_fract_x
_atom_site_fract_y
_atom_site_fract_z
Zn1	Zn	1.606268	-0.418168	-0.593999
Zn2	Zn	1.606158	-0.593885	-0.418317
Zn3	Zn	1.430566	-0.418225	-0.418336
Zn4	Zn	1.430558	-0.593810	-0.593956
O5	O	1.518387	-0.506022	-0.506152
O6	O	1.753274	-0.441485	-0.570704
O7	O	1.582823	-0.570639	-0.271298
O8	O	1.453922	-0.271197	-0.441664
O9	O	1.753194	-0.570583	-0.441631
O10	O	1.583010	-0.271155	-0.570723
O11	O	1.453816	-0.441582	-0.271312
O12	O	1.283544	-0.441510	-0.441622
O13	O	1.453909	-0.570456	-0.740983
O14	O	1.283538	-0.570511	-0.570649
O15	O	1.583002	-0.441412	-0.741014
O16	O	1.582815	-0.740896	-0.441590
O17	O	1.453802	-0.740841	-0.570631
C18	C	1.245420	-0.506009	-0.506134
C19	C	1.128643	-0.506029	-0.506151
C20	C	1.128676	-0.640576	-0.640290
C21	C	1.073831	-0.707857	-0.707362
C22	C	0.964109	-0.707870	-0.707375
C23	C	0.909230	-0.640592	-0.640310
C24	C	0.964074	-0.573310	-0.573238
C25	C	1.073799	-0.573307	-0.573230
C26	C	0.964042	-0.438760	-0.439106
C27	C	1.073764	-0.438751	-0.439086
C28	C	0.909162	-0.371482	-0.372042
C29	C	0.964007	-0.304204	-0.304962
C30	C	1.073735	-0.304195	-0.304951
C31	C	1.128608	-0.371469	-0.372014
C32	C	1.518324	-0.778990	-0.506126
C33	C	1.518393	-0.895766	-0.506151
C34	C	1.652835	-0.895770	-0.371881
C35	C	1.720083	-0.950633	-0.304758
C36	C	1.720145	-1.060354	-0.304786
C37	C	1.652953	-1.115216	-0.371947
C38	C	1.585705	-1.060353	-0.439070
C39	C	1.585648	-0.950629	-0.439032
C40	C	1.451270	-1.060349	-0.573343
C41	C	1.451202	-0.950628	-0.573311
C42	C	1.384079	-1.115211	-0.640504
C43	C	1.316823	-1.060348	-0.707623
C44	C	1.316764	-0.950620	-0.707591
C45	C	1.383954	-0.895765	-0.640434
C46	C	1.792421	-0.506036	-0.506170
C47	C	1.909197	-0.506042	-0.506178
C48	C	1.518467	-0.505919	-0.780185
C49	C	1.518500	-0.505875	-0.896962
C50	C	1.518479	-0.231989	-0.506200
C51	C	1.518518	-0.115212	-0.506221
C52	C	1.652934	-0.371511	-0.897015
C53	C	1.720166	-0.304313	-0.951902
C54	C	1.720192	-0.304275	-1.061624
C55	C	1.652976	-0.371439	-1.116461
C56	C	1.585744	-0.438637	-1.061574
C57	C	1.585728	-0.438671	-0.951849
C58	C	1.451307	-0.572995	-1.061521
C59	C	1.451285	-0.573040	-0.951799
C60	C	1.384091	-0.640159	-1.116358
C61	C	1.316863	-0.707364	-1.061471
C62	C	1.316841	-0.707400	-0.951742
C63	C	1.384053	-0.640238	-0.896912
C64	C	1.518369	-0.506049	-0.233184
C65	C	1.518538	-0.505797	-0.116408
H66	H	0.819821	-0.371492	-0.372061
H67	H	1.774931	-0.249550	-1.106313
H68	H	1.118526	-0.762632	-0.761966
H69	H	0.819889	-0.640599	-0.640336
H70	H	1.653018	-1.204557	-0.371973
C71	C	1.302231	-0.848634	-1.184833
C72	C	1.242987	-0.781187	-1.121745
H73	H	1.256621	-0.894214	-1.222040
H74	H	1.342259	-0.808602	-1.233217
H75	H	1.347979	-0.888841	-1.142020
H76	H	1.197245	-0.740974	-1.164558
H77	H	1.202941	-0.821224	-1.073355
H78	H	1.262006	-0.905956	-0.762254
C79	C	0.795796	-0.244477	-0.245429
C80	C	0.903683	-0.230261	-0.231249
H81	H	0.758554	-0.198832	-0.199914
H82	H	0.777863	-0.229184	-0.316042
H83	H	0.777802	-0.315053	-0.229931
H84	H	0.921678	-0.159686	-0.246755
H85	H	0.921624	-0.245546	-0.160620
C86	C	1.284193	-0.613308	-1.273527
C87	C	1.384116	-0.640119	-1.236966
H88	H	1.284213	-0.613282	-1.347986
H89	H	1.234544	-0.662938	-1.248687
H90	H	1.266064	-0.545512	-1.248715
H91	H	1.402242	-0.707920	-1.261771
H92	H	1.433780	-0.590488	-1.261816
C93	C	1.483971	-0.667074	-0.739756
C94	C	1.384041	-0.640270	-0.776304
H95	H	1.483965	-0.667082	-0.665297
H96	H	1.502096	-0.734865	-0.764556
H97	H	1.533619	-0.617439	-0.764616
H98	H	1.334394	-0.689910	-0.751451
H99	H	1.365903	-0.572470	-0.751493
C100	C	1.357138	-0.738697	-0.540418
C101	C	1.383893	-0.775157	-0.640395
H102	H	1.357111	-0.664238	-0.540394
H103	H	1.289363	-0.763581	-0.522219
H104	H	1.406807	-0.763532	-0.490840
H105	H	1.334219	-0.750329	-0.689972
H106	H	1.451677	-0.750262	-0.658606
H107	H	1.218017	-0.640580	-0.640278
C108	C	1.285771	-0.298201	-0.298970
C109	C	1.249216	-0.371461	-0.372001
H110	H	1.360230	-0.298203	-0.298963
H111	H	1.260976	-0.230438	-0.317270
H112	H	1.260911	-0.316290	-0.231143
H113	H	1.274069	-0.353367	-0.439830
H114	H	1.274022	-0.439239	-0.353707
H115	H	1.652930	-0.371545	-0.807674
H116	H	1.262082	-0.762110	-0.907060
C117	C	1.552806	-0.738707	-0.344971
C118	C	1.652761	-0.775163	-0.371840
H119	H	1.552765	-0.664248	-0.344939
H120	H	1.503182	-0.763524	-0.394575
H121	H	1.534691	-0.763612	-0.277166
H122	H	1.670873	-0.750263	-0.439648
H123	H	1.702401	-0.750334	-0.322233
C124	C	0.930385	-0.759269	-0.885190
C125	C	0.903815	-0.781820	-0.781105
H126	H	0.893165	-0.804925	-0.930706
H127	H	0.912425	-0.688705	-0.900681
H128	H	1.003586	-0.768900	-0.894773
H129	H	0.830616	-0.772181	-0.771519
H130	H	0.921768	-0.852400	-0.765608
C131	C	1.062672	-0.171201	-0.172358
C132	C	1.134017	-0.230241	-0.231216
H133	H	1.099886	-0.125551	-0.126831
H134	H	1.019913	-0.131074	-0.218213
H135	H	1.019841	-0.216941	-0.132100
H136	H	1.176842	-0.184501	-0.271480
H137	H	1.176793	-0.270370	-0.185355
C138	C	1.779681	-0.782435	-0.245073
C139	C	1.793935	-0.890328	-0.230933
H140	H	1.825271	-0.745211	-0.199493
H141	H	1.795022	-0.764386	-0.315661
H142	H	1.709083	-0.764537	-0.229637
H143	H	1.864531	-0.908227	-0.246377
H144	H	1.778601	-0.908384	-0.160329
C145	C	1.410919	-1.272278	-0.740515
C146	C	1.384153	-1.235818	-0.640540
H147	H	1.410969	-1.346736	-0.740533
H148	H	1.361252	-1.247461	-0.790090
H149	H	1.478697	-1.247374	-0.758714
H150	H	1.316372	-1.260716	-0.622345
H151	H	1.433822	-1.260646	-0.590949
H152	H	1.774909	-1.105023	-0.250135
C153	C	1.779849	-0.244723	-0.783726
C154	C	1.794057	-0.230497	-0.891624
H155	H	1.825471	-0.199156	-0.746518
H156	H	1.709272	-0.229332	-0.765738
H157	H	1.795184	-0.315327	-0.765746
H158	H	1.778713	-0.159894	-0.909605
H159	H	1.864649	-0.245881	-0.909619
C160	C	1.265596	-1.094024	-0.885498
C161	C	1.242978	-1.120654	-0.781442
H162	H	1.220009	-1.131264	-0.931070
H163	H	1.255922	-1.020837	-0.895076
H164	H	1.336195	-1.111930	-0.900921
H165	H	1.172381	-1.102741	-0.766017
H166	H	1.252644	-1.193858	-0.771859
H167	H	1.652994	-0.371393	-1.205802
