data_functionalizedCrystal
_audit_creation_method	'MofGen! by Chris Wilmer'
_symmetry_space_group_name_H-M	'P1'
_symmetry_Int_Tables_number	1
_symmetry_cell_setting	triclinic
loop_
_symmetry_equiv_pos_as_xyz
  x,y,z
_cell_length_a	19.188905
_cell_length_b	19.188924
_cell_length_c	18.266242
_cell_angle_alpha	89.991576
_cell_angle_beta	89.983837
_cell_angle_gamma	83.138260
loop_
_atom_site_label
_atom_site_type_symbol
_atom_site_fract_x
_atom_site_fract_y
_atom_site_fract_z
O1	O	0.926158	0.087086	-0.061005
O2	O	1.426158	0.587086	0.438995
O3	O	0.722844	0.098838	-0.060980
O4	O	1.222844	0.598838	0.439020
O5	O	0.830371	-0.008694	-0.060985
O6	O	1.330371	0.491306	0.439015
O7	O	0.818632	0.194619	-0.061001
O8	O	1.318632	0.694619	0.438999
O9	O	0.830353	-0.008700	0.060777
O10	O	1.330353	0.491300	0.560777
O11	O	0.722826	0.098833	0.060782
O12	O	1.222826	0.598833	0.560782
O13	O	0.926140	0.087080	0.060757
O14	O	1.426140	0.587080	0.560757
Zn15	Zn	0.824480	0.092956	0.080102
Zn16	Zn	1.324480	0.592956	0.580102
Zn17	Zn	0.824504	0.092963	-0.080325
Zn18	Zn	1.324504	0.592963	0.419675
O19	O	0.818613	0.194613	0.060761
O20	O	1.318613	0.694613	0.560761
C21	C	0.696824	0.098458	-0.000096
C22	C	1.196824	0.598458	0.499904
C23	C	0.619318	0.097324	-0.000086
C24	C	1.119318	0.597324	0.499914
C25	C	0.582937	0.096783	-0.066461
C26	C	1.082937	0.596783	0.433539
C27	C	0.510113	0.095710	-0.066470
C28	C	1.010113	0.595710	0.433530
C29	C	0.473676	0.095164	-0.000101
C30	C	0.973676	0.595164	0.499899
C31	C	0.510066	0.095710	0.066282
C32	C	1.010066	0.595710	0.566282
C33	C	0.582887	0.096790	0.066290
C34	C	1.082887	0.596790	0.566290
N35	N	0.364649	0.053733	0.049295
N36	N	0.864649	0.553733	0.549295
N37	N	0.295472	0.052706	0.049283
N38	N	0.795472	0.552706	0.549283
C39	C	0.254269	0.091911	-0.000118
C40	C	0.754269	0.591911	0.499882
N41	N	0.284858	0.132175	-0.049519
N42	N	0.784858	0.632175	0.450481
N43	N	0.354041	0.133199	-0.049510
N44	N	0.854041	0.633199	0.450490
C45	C	0.394713	0.093993	-0.000101
C46	C	0.894713	0.593993	0.499899
C47	C	0.138924	0.090207	-0.066507
C48	C	0.638924	0.590207	0.433493
C49	C	0.066098	0.089139	-0.066513
C50	C	0.566098	0.589139	0.433487
C51	C	0.066054	0.089132	0.066241
C52	C	0.566054	0.589132	0.566241
C53	C	0.138877	0.090208	0.066245
C54	C	0.638877	0.590208	0.566245
C55	C	0.175308	0.090742	-0.000131
C56	C	0.675308	0.590742	0.499869
C57	C	0.829982	-0.034708	-0.000103
C58	C	1.329982	0.465292	0.499897
C59	C	0.828844	-0.112213	-0.000101
C60	C	1.328844	0.387787	0.499899
C61	C	0.828322	-0.148609	-0.066473
C62	C	1.328322	0.351391	0.433527
C63	C	0.827242	-0.221431	-0.066479
C64	C	1.327242	0.278569	0.433521
C65	C	0.826698	-0.257857	-0.000108
C66	C	1.326698	0.242143	0.499892
C67	C	0.827216	-0.221452	0.066273
C68	C	1.327216	0.278548	0.566273
C69	C	0.828289	-0.148630	0.066277
C70	C	1.328289	0.351370	0.566277
N71	N	0.864739	-0.377526	0.049286
N72	N	1.364739	0.122474	0.549286
N73	N	0.863721	-0.446704	0.049278
N74	N	1.363721	0.053296	0.549278
C75	C	0.823464	-0.477266	-0.000115
C76	C	1.323464	0.022734	0.499885
N77	N	0.784271	-0.436038	-0.049510
N78	N	1.284271	0.063962	0.450490
N79	N	0.785292	-0.366853	-0.049504
N80	N	1.285292	0.133147	0.450496
C81	C	0.825534	-0.336821	-0.000104
C82	C	1.325534	0.163179	0.499896
C83	C	0.821770	-0.592624	-0.066498
C84	C	1.321770	-0.092624	0.433502
C85	C	0.820686	-0.665448	-0.066500
C86	C	1.320686	-0.165448	0.433500
C87	C	0.820666	-0.665468	0.066254
C88	C	1.320666	-0.165468	0.566254
C89	C	0.821744	-0.592645	0.066255
C90	C	1.321744	-0.092645	0.566255
C91	C	0.822299	-0.556228	-0.000123
C92	C	1.322299	-0.056228	0.499877
C93	C	0.952160	0.087461	-0.000129
C94	C	1.452160	0.587461	0.499871
C95	C	1.029666	0.088594	-0.000143
C96	C	1.529666	0.588594	0.499857
C97	C	0.819002	0.220627	-0.000122
C98	C	1.319002	0.720627	0.499878
C99	C	0.820141	0.298132	-0.000129
C100	C	1.320141	0.798132	0.499871
N101	N	0.824469	0.092950	0.189589
N102	N	1.324469	0.592950	0.689589
N103	N	0.824521	0.092963	-0.189812
N104	N	1.324521	0.592963	0.310188
C105	C	0.872097	0.045358	0.227896
C106	C	1.372097	0.545358	0.727896
C107	C	0.872102	0.045355	0.304541
C108	C	1.372102	0.545355	0.804541
C109	C	0.824484	0.092956	0.342876
C110	C	1.324484	0.592956	0.842876
C111	C	0.776847	0.140552	0.304559
C112	C	1.276847	0.640552	0.804559
C113	C	0.776839	0.140549	0.227916
C114	C	1.276839	0.640549	0.727916
N115	N	0.815407	0.154764	0.463204
N116	N	1.315407	0.654764	0.963204
N117	N	0.815419	0.154765	0.536012
N118	N	1.315419	0.654765	1.036012
C119	C	0.824504	0.092966	0.573798
C120	C	1.324504	0.592966	1.073798
N121	N	0.833591	0.031165	0.536025
N122	N	1.333591	0.531165	1.036025
N123	N	0.833583	0.031165	0.463211
N124	N	1.333583	0.531165	0.963211
C125	C	0.824487	0.092964	0.425983
C126	C	1.324487	0.592964	0.925983
C127	C	0.872140	0.045366	0.695212
C128	C	1.372140	0.545366	1.195212
C129	C	0.872139	0.045362	0.771858
C130	C	1.372139	0.545362	1.271858
C131	C	0.776888	0.140565	0.771876
C132	C	1.276888	0.640565	1.271876
C133	C	0.776885	0.140563	0.695231
C134	C	1.276885	0.640563	1.195231
C135	C	0.824515	0.092964	0.656904
C136	C	1.324515	0.592964	1.156904
H137	H	0.480394	0.095267	0.120321
H138	H	0.980394	0.595267	0.620321
H139	H	0.826813	-0.251070	-0.120529
H140	H	1.326813	0.248930	0.379471
H141	H	0.738075	0.179308	0.335776
H142	H	1.238075	0.679308	0.835776
H143	H	0.820218	-0.695124	0.120294
H144	H	1.320218	-0.195124	0.620294
O145	O	0.470866	0.095111	-0.138065
O146	O	0.970866	0.595111	0.361935
H147	H	0.478476	0.142889	-0.169909
H148	H	0.978476	0.642889	0.330091
O149	O	0.828861	-0.109376	0.137871
O150	O	1.328861	0.390624	0.637871
H151	H	0.781771	-0.069825	0.141059
H152	H	1.281771	0.430175	0.641059
O153	O	0.178120	0.090786	0.137839
O154	O	0.678120	0.590786	0.637839
H155	H	0.234877	0.091634	0.126694
H156	H	0.734877	0.591634	0.626694
H157	H	0.826770	-0.251114	0.120313
H158	H	1.326770	0.248886	0.620313
H159	H	0.168586	0.090650	-0.120554
H160	H	0.668586	0.590650	0.379446
O161	O	0.725542	0.191930	0.813203
O162	O	1.225542	0.691930	1.313203
H163	H	0.671136	0.183186	0.798524
H164	H	1.171136	0.683186	1.298524
O165	O	0.622225	0.097364	-0.138052
O166	O	1.122225	0.597364	0.361948
H167	H	0.678977	0.098201	-0.126899
H168	H	1.178977	0.598201	0.373101
H169	H	0.910888	0.006598	0.335736
H170	H	1.410888	0.506598	0.835736
H171	H	0.738054	0.179305	0.196726
H172	H	1.238054	0.679305	0.696726
H173	H	0.910922	0.006603	0.803048
H174	H	1.410922	0.506603	1.303048
H175	H	0.910921	0.006606	0.664005
H176	H	1.410921	0.506606	1.164005
O177	O	0.725523	0.191903	0.653906
O178	O	1.225523	0.691903	1.153906
H179	H	0.692415	0.225008	0.693437
H180	H	1.192415	0.725008	1.193437
O181	O	0.822355	-0.553336	-0.138085
O182	O	1.322355	-0.053336	0.361915
H183	H	0.821798	-0.590880	-0.184241
H184	H	1.321798	-0.090880	0.315759
O185	O	0.026759	0.088549	0.137825
O186	O	0.526759	0.588549	0.637825
H187	H	0.064296	0.089110	0.183983
H188	H	0.564296	0.589110	0.683983
O189	O	0.828903	-0.109326	-0.138063
O190	O	1.328903	0.390674	0.361937
H191	H	0.828350	-0.146873	-0.184217
H192	H	1.328350	0.353127	0.315783
O193	O	0.822324	-0.553389	0.137845
O194	O	1.322324	-0.053389	0.637845
H195	H	0.774541	-0.561001	0.169685
H196	H	1.274541	-0.061001	0.669685
O197	O	0.820116	-0.704712	-0.138089
O198	O	1.320116	-0.204712	0.361911
H199	H	0.772042	-0.731504	-0.141255
H200	H	1.272042	-0.231504	0.358745
O201	O	0.923458	-0.005987	0.186555
O202	O	1.423458	0.494013	0.686555
H203	H	0.956572	-0.039087	0.226074
H204	H	1.456572	0.460913	0.726074
H205	H	0.612509	0.097231	0.120341
H206	H	1.112509	0.597231	0.620341
H207	H	0.036477	0.088702	-0.120565
H208	H	0.536477	0.588702	0.379435
