data_functionalizedCrystal
_audit_creation_method	'MofGen! by Chris Wilmer'
_symmetry_space_group_name_H-M	'P1'
_symmetry_Int_Tables_number	1
_symmetry_cell_setting	triclinic
loop_
_symmetry_equiv_pos_as_xyz
  x,y,z
_cell_length_a	12.827893
_cell_length_b	18.050589
_cell_length_c	18.050571
_cell_angle_alpha	89.916898
_cell_angle_beta	89.938298
_cell_angle_gamma	90.028191
loop_
_atom_site_label
_atom_site_type_symbol
_atom_site_fract_x
_atom_site_fract_y
_atom_site_fract_z
Zn1	Zn	1.598014	-0.295231	-0.419896
Zn2	Zn	1.597740	-0.419555	-0.295716
Zn3	Zn	1.423126	-0.295384	-0.295725
Zn4	Zn	1.423202	-0.419384	-0.419869
O5	O	1.510521	-0.357389	-0.357801
O6	O	1.744214	-0.311731	-0.403431
O7	O	1.574430	-0.403219	-0.191792
O8	O	1.446409	-0.191439	-0.312212
O9	O	1.744012	-0.403072	-0.312196
O10	O	1.574898	-0.191327	-0.403440
O11	O	1.446143	-0.311991	-0.191799
O12	O	1.276900	-0.311825	-0.312185
O13	O	1.446538	-0.402780	-0.523797
O14	O	1.276956	-0.402927	-0.403393
O15	O	1.574972	-0.311565	-0.523818
O16	O	1.574504	-0.523457	-0.312169
O17	O	1.446271	-0.523331	-0.403384
C18	C	1.239011	-0.357374	-0.357787
C19	C	1.122857	-0.357386	-0.357799
C20	C	1.071128	-0.402537	-0.402862
C21	C	0.951077	-0.402550	-0.402875
C22	C	1.510394	-0.550341	-0.357789
C23	C	1.510436	-0.632887	-0.357809
C24	C	1.440772	-0.832296	-0.407394
C25	C	1.415224	-0.881807	-0.339627
C26	C	1.510539	-0.784017	-0.357818
C27	C	1.536137	-0.881588	-0.425593
C28	C	1.510636	-0.930002	-0.357834
C29	C	1.484941	-0.832441	-0.290016
C30	C	1.605898	-0.832217	-0.376027
C31	C	1.580387	-0.881706	-0.308214
C32	C	1.510480	-0.699919	-0.357810
C33	C	1.510695	-1.014098	-0.357834
C34	C	1.783091	-0.357404	-0.357816
C35	C	1.899244	-0.357410	-0.357822
C36	C	1.510794	-0.357136	-0.551507
C37	C	1.510910	-0.357029	-0.634053
C38	C	1.510676	-0.163683	-0.357830
C39	C	1.510742	-0.081137	-0.357842
C40	C	1.510309	-0.357587	-0.164849
C41	C	1.510395	-0.357485	-0.082303
C42	C	1.440344	-0.308026	0.117106
C43	C	1.535567	-0.289322	0.166321
C44	C	1.510571	-0.357331	0.068827
C45	C	1.415521	-0.375850	0.166693
C46	C	1.510732	-0.357181	0.214812
C47	C	1.605843	-0.338593	0.116955
C48	C	1.485732	-0.425152	0.117322
C49	C	1.581021	-0.406474	0.166515
C50	C	1.510476	-0.357415	-0.015271
C51	C	1.510838	-0.357096	0.298908
H52	H	0.906591	-0.441208	-0.441453
C53	C	1.360124	-0.251749	0.087787
H54	H	1.309259	-0.276825	0.058957
H55	H	1.394542	-0.215865	0.057969
H56	H	1.327071	-0.227846	0.128352
H57	H	0.943724	-0.318755	-0.319237
C58	C	1.455615	-0.803404	-0.212572
H59	H	1.443446	-0.844092	-0.180253
H60	H	1.394269	-0.774145	-0.215954
H61	H	1.511053	-0.774069	-0.193728
H62	H	1.078269	-0.318738	-0.319231
H63	H	1.115717	-0.441180	-0.441435
H64	H	1.556653	-0.231903	0.187850
C65	C	1.306847	-0.397102	0.196200
H66	H	1.312019	-0.440867	0.225261
H67	H	1.261148	-0.405604	0.155716
H68	H	1.280335	-0.357942	0.225840
H69	H	1.686314	-0.322800	0.095204
C70	C	1.360958	-0.802981	-0.463947
H71	H	1.293269	-0.819964	-0.450891
H72	H	1.378443	-0.820531	-0.511965
H73	H	1.361910	-0.750355	-0.463862
C74	C	1.306344	-0.911234	-0.318824
H75	H	1.256817	-0.894321	-0.354090
H76	H	1.287712	-0.893683	-0.271024
H77	H	1.307327	-0.963859	-0.318541
C78	C	1.660143	-0.910837	-0.251525
H79	H	1.641822	-0.893920	-0.203430
H80	H	1.727645	-0.893108	-0.264044
H81	H	1.660145	-0.963462	-0.252120
H82	H	1.686477	-0.810422	-0.391447
C83	C	1.661429	-0.462711	0.195646
H84	H	1.728944	-0.449380	0.178519
H85	H	1.644304	-0.510795	0.178125
H86	H	1.660658	-0.462637	0.248274
H87	H	1.557750	-0.903179	-0.482903
H88	H	1.464619	-0.482555	0.095776
