data_functionalizedCrystal
_audit_creation_method	'MofGen! by Chris Wilmer'
_symmetry_space_group_name_H-M	'P1'
_symmetry_Int_Tables_number	1
_symmetry_cell_setting	triclinic
loop_
_symmetry_equiv_pos_as_xyz
  x,y,z
_cell_length_a	14.908520
_cell_length_b	12.759401
_cell_length_c	12.759393
_cell_angle_alpha	89.980324
_cell_angle_beta	93.263606
_cell_angle_gamma	93.320968
loop_
_atom_site_label
_atom_site_type_symbol
_atom_site_fract_x
_atom_site_fract_y
_atom_site_fract_z
Zn1	Zn	-0.359104	1.582078	-0.618086
Zn2	Zn	-0.509988	1.571807	-0.452533
Zn3	Zn	-0.359149	1.406374	-0.442428
Zn4	Zn	-0.509922	1.396211	-0.628170
O5	O	-0.434541	1.489117	-0.535304
O6	O	-0.379128	1.727736	-0.596134
O7	O	-0.490025	1.549816	-0.304175
O8	O	-0.232899	1.438234	-0.457281
O9	O	-0.489981	1.720190	-0.474503
O10	O	-0.232866	1.567323	-0.586336
O11	O	-0.379204	1.428274	-0.296751
O12	O	-0.379141	1.258006	-0.467058
O13	O	-0.489869	1.420912	-0.773850
O14	O	-0.489913	1.250538	-0.603522
O15	O	-0.379064	1.557468	-0.766442
O16	O	-0.636223	1.539961	-0.484280
O17	O	-0.636175	1.410951	-0.613320
C18	C	-0.434525	1.216151	-0.535288
C19	C	-0.434540	1.099374	-0.535308
C20	C	-0.668933	1.473267	-0.551014
C21	C	-0.769207	1.466583	-0.557769
C22	C	-0.376923	1.048435	-0.598752
C23	C	-0.376932	0.938710	-0.598760
C24	C	-0.492183	0.930872	-0.471877
C25	C	-0.492169	1.040595	-0.471864
C26	C	-0.957621	1.588497	-0.436204
C27	C	-1.051838	1.582220	-0.442548
C28	C	-1.051857	1.447757	-0.576806
C29	C	-0.957641	1.454034	-0.570462
C30	C	-0.910526	1.524406	-0.500157
C31	C	-0.816308	1.530677	-0.493809
C32	C	-0.816330	1.396220	-0.628072
C33	C	-0.910546	1.389942	-0.634416
C34	C	-0.199233	1.505058	-0.519556
C35	C	-0.098959	1.511851	-0.512846
C36	C	-0.434454	1.489202	-0.809332
C37	C	-0.434417	1.489238	-0.926106
C38	C	-0.434557	1.763150	-0.535321
C39	C	-0.434564	1.879926	-0.535328
C40	C	-0.376712	1.560348	-0.977112
C41	C	-0.376673	1.560369	-1.086833
C42	C	-0.492053	1.418165	-1.094535
C43	C	-0.492086	1.418140	-0.984815
C44	C	-0.434562	1.489098	-0.262338
C45	C	-0.434344	1.489283	-0.145548
H46	H	-0.329995	1.096289	-0.650408
C47	C	-0.765314	1.326677	-0.697690
C48	C	-0.788164	1.347947	-0.803201
C49	C	-0.741196	1.283892	-0.867357
H50	H	-0.702440	1.340421	-0.683986
H51	H	-0.780844	1.255046	-0.683352
H52	H	-0.772627	1.419561	-0.817534
H53	H	-0.851030	1.334197	-0.816938
H54	H	-0.756726	1.212261	-0.853018
H55	H	-0.678324	1.297640	-0.853643
H56	H	-0.756699	1.298307	-0.938952
C57	C	-0.313996	1.637576	-0.913552
C58	C	-0.263434	1.699836	-0.981710
C59	C	-0.205638	1.770979	-0.923200
H60	H	-0.348419	1.681107	-0.873055
H61	H	-0.274650	1.600066	-0.868134
H62	H	-0.302774	1.737344	-1.027109
H63	H	-0.228992	1.656334	-1.022208
H64	H	-0.166293	1.733469	-0.877782
H65	H	-0.240069	1.814503	-0.882705
H66	H	-0.171320	1.813224	-0.969435
C67	C	-1.103105	1.651646	-0.373096
C68	C	-1.157321	1.588617	-0.309367
C69	C	-1.204578	1.652549	-0.245403
H70	H	-1.061667	1.694490	-0.330227
H71	H	-1.139838	1.694915	-0.415813
H72	H	-1.120591	1.545367	-0.266655
H73	H	-1.198775	1.545774	-0.352209
H74	H	-1.241311	1.695818	-0.288119
H75	H	-1.163134	1.695390	-0.202540
H76	H	-1.241375	1.609794	-0.202162
H77	H	-0.539076	1.360226	-0.943285
C78	C	-0.554779	1.341151	-1.158342
C79	C	-0.612604	1.396735	-1.225189
C80	C	-0.670410	1.325826	-1.283972
H81	H	-0.520358	1.297696	-1.198923
H82	H	-0.589204	1.298809	-1.112286
H83	H	-0.578183	1.439059	-1.271240
H84	H	-0.647045	1.440186	-1.184636
H85	H	-0.704835	1.283484	-1.237915
H86	H	-0.635981	1.282375	-1.324546
H87	H	-0.709656	1.363529	-1.329327
H88	H	-0.539104	0.883001	-0.420224
C89	C	-0.314490	0.883454	-0.667830
C90	C	-0.334260	0.908834	-0.773064
C91	C	-0.276762	0.857942	-0.836724
H92	H	-0.253825	0.905482	-0.648647
H93	H	-0.322755	0.809677	-0.658824
H94	H	-0.325987	0.982595	-0.782065
H95	H	-0.394915	0.886804	-0.792279
H96	H	-0.285026	0.784166	-0.827718
H97	H	-0.216100	0.879974	-0.817532
H98	H	-0.290173	0.875148	-0.908132
H99	H	-0.539089	1.082070	-0.420195
C100	C	-0.961587	1.313379	-0.710675
C101	C	-0.938746	1.210966	-0.686176
C102	C	-0.985735	1.140407	-0.756412
H103	H	-1.024458	1.318674	-0.705366
H104	H	-0.946068	1.329682	-0.780253
H105	H	-0.954271	1.194668	-0.616616
H106	H	-0.875883	1.205637	-0.691492
H107	H	-0.970216	1.156710	-0.825989
H108	H	-1.048604	1.145711	-0.751097
H109	H	-0.970238	1.070913	-0.739805
H110	H	-1.090234	1.390471	-0.634052
C111	C	-0.765267	1.607009	-0.417319
C112	C	-0.788286	1.582681	-0.314899
C113	C	-0.741296	1.652987	-0.244411
H114	H	-0.702396	1.601636	-0.422553
H115	H	-0.780663	1.676582	-0.433737
H116	H	-0.772884	1.513125	-0.298485
H117	H	-0.851149	1.588061	-0.309631
H118	H	-0.756693	1.722560	-0.260829
H119	H	-0.678428	1.647609	-0.249654
H120	H	-0.756915	1.636496	-0.174912
H121	H	-0.919260	1.645789	-0.378951
H122	H	-0.329682	1.618273	-1.128357
