data_functionalizedCrystal
_audit_creation_method	'MofGen! by Chris Wilmer'
_symmetry_space_group_name_H-M	'P1'
_symmetry_Int_Tables_number	1
_symmetry_cell_setting	triclinic
loop_
_symmetry_equiv_pos_as_xyz
  x,y,z
_cell_length_a	14.044220
_cell_length_b	16.109301
_cell_length_c	15.186229
_cell_angle_alpha	90.005167
_cell_angle_beta	89.998463
_cell_angle_gamma	88.325179
loop_
_atom_site_label
_atom_site_type_symbol
_atom_site_fract_x
_atom_site_fract_y
_atom_site_fract_z
O1	O	-1.257643	-0.200436	-0.073140
O2	O	-0.981676	-0.193203	-0.073163
O3	O	-1.127241	-0.076352	-0.073142
O4	O	-1.112079	-0.317286	-0.073161
O5	O	-1.127231	-0.076350	0.073315
O6	O	-0.981667	-0.193200	0.073295
O7	O	-1.257634	-0.200433	0.073317
Zn8	Zn	-1.119649	-0.196816	0.096559
Zn9	Zn	-1.119661	-0.196820	-0.096405
O10	O	-1.112069	-0.317284	0.073296
C11	C	-1.126622	-0.045330	0.000087
C12	C	-1.124781	0.047102	0.000088
C13	C	-0.946358	-0.190036	0.000063
C14	C	-0.841135	-0.180592	0.000055
C15	C	-1.292952	-0.203600	0.000089
C16	C	-1.398175	-0.213044	0.000091
C17	C	-0.648479	-0.163326	0.000074
C18	C	-0.590825	-0.230306	0.000072
C19	C	-0.483625	-0.220699	0.000083
C20	C	-0.755690	-0.172932	0.000064
C21	C	-1.112688	-0.348306	0.000065
C22	C	-1.114529	-0.440738	0.000058
N23	N	-1.119647	-0.196814	0.228252
C24	C	-1.206874	0.263266	0.000081
C25	C	-1.205137	0.350116	0.000073
C26	C	-1.032429	0.343091	0.000063
C27	C	-1.034168	0.256243	0.000064
C28	C	-1.121393	0.216333	0.000078
C29	C	-1.117917	0.390031	0.000069
C30	C	-1.116032	0.484197	0.000061
C31	C	-1.123278	0.122161	0.000084
N32	N	-1.119671	-0.196816	-0.228097
C33	C	-1.184125	-0.145093	0.453984
C34	C	-1.184128	-0.145092	0.546173
C35	C	-1.055186	-0.248539	0.546164
C36	C	-1.055179	-0.248536	0.453976
C37	C	-1.119654	-0.196814	0.407888
C38	C	-1.119664	-0.196816	0.592266
C39	C	-1.119666	-0.196814	0.692222
C40	C	-1.119650	-0.196814	0.307926
H41	H	-0.621976	-0.294863	0.000063
O42	O	-0.611278	-0.086331	-0.000078
C43	C	-0.554720	-0.076816	-0.075916
H44	H	-0.578172	-0.121964	-0.128932
H45	H	-0.476773	-0.090325	-0.058762
C46	C	-0.537747	0.068267	-0.045199
C47	C	-0.566557	0.012820	-0.110316
H48	H	-0.545045	0.123558	-0.066417
H49	H	-0.575849	0.061856	0.005896
H50	H	-0.472793	0.056998	-0.030909
H51	H	-0.631512	0.024081	-0.124596
H52	H	-0.528466	0.019234	-0.161415
H53	H	-1.277898	0.230774	0.000090
H54	H	-0.964554	0.218029	0.000059
H55	H	-1.236624	-0.102975	0.583702
H56	H	-1.274744	0.388326	0.000074
O57	O	-0.992600	-0.298899	0.590836
C58	C	-1.007991	-0.382351	0.568312
H59	H	-1.044523	-0.384972	0.501377
H60	H	-1.055161	-0.411588	0.620192
C61	C	-0.866864	-0.427254	0.646256
C62	C	-0.911727	-0.430474	0.564041
H63	H	-0.807485	-0.456940	0.643625
H64	H	-0.856496	-0.371031	0.661434
H65	H	-0.906183	-0.451616	0.689480
H66	H	-0.872414	-0.406102	0.520821
H67	H	-0.922086	-0.486694	0.548856
O68	O	-0.947786	0.381994	0.000098
C69	C	-0.964579	0.468713	0.000078
H70	H	-1.038554	0.483595	0.027808
H71	H	-0.959992	0.493188	-0.070184
C72	C	-0.798333	0.491996	0.023455
C73	C	-0.889187	0.510275	0.057520
H74	H	-0.751826	0.517635	0.058883
H75	H	-0.787018	0.433572	0.023464
H76	H	-0.794524	0.512393	-0.035097
H77	H	-0.892999	0.489870	0.116066
H78	H	-0.900501	0.568697	0.057521
H79	H	-1.236623	-0.102977	0.416461
O80	O	-0.992680	-0.298828	0.409098
C81	C	-1.043422	-0.353919	0.355780
H82	H	-1.117599	-0.326340	0.341972
H83	H	-1.049845	-0.415847	0.391299
C84	C	-0.898870	-0.401569	0.285168
C85	C	-0.989972	-0.367692	0.268203
H86	H	-0.865898	-0.410068	0.231148
H87	H	-0.864683	-0.364456	0.321091
H88	H	-0.904234	-0.453172	0.314769
H89	H	-0.984606	-0.316085	0.238613
H90	H	-1.024157	-0.404797	0.232272
