data_functionalizedCrystal
_audit_creation_method	'MofGen! by Chris Wilmer'
_symmetry_space_group_name_H-M	'P1'
_symmetry_Int_Tables_number	1
_symmetry_cell_setting	triclinic
loop_
_symmetry_equiv_pos_as_xyz
  x,y,z
_cell_length_a	17.038275
_cell_length_b	17.666332
_cell_length_c	17.038272
_cell_angle_alpha	90.006380
_cell_angle_beta	88.889085
_cell_angle_gamma	89.990175
loop_
_atom_site_label
_atom_site_type_symbol
_atom_site_fract_x
_atom_site_fract_y
_atom_site_fract_z
O1	O	-1.048760	0.062965	0.170527
O2	O	-0.820948	0.062963	0.167821
O3	O	-0.933500	0.062958	0.055268
O4	O	-0.936208	0.062970	0.283080
O5	O	-0.933478	-0.062939	0.055260
O6	O	-0.820927	-0.062934	0.167814
O7	O	-1.048738	-0.062932	0.170519
Cu8	Cu	-0.934830	-0.074428	0.169166
Cu9	Cu	-0.934856	0.074459	0.169175
O10	O	-0.936186	-0.062927	0.283072
C11	C	-0.791645	0.000014	0.165355
C12	C	-0.704361	0.000014	0.158008
N13	N	-0.934818	-0.179148	0.169159
C14	C	-0.210935	0.000010	0.112871
C15	C	-0.292947	0.000006	0.119781
C16	C	-0.329347	0.000014	0.194154
C17	C	-0.283730	0.000017	0.261622
C18	C	-0.201720	0.000015	0.254712
C19	C	-0.576734	0.000015	0.218566
C20	C	-0.658751	0.000019	0.225471
C21	C	-0.667962	0.000007	0.083629
C22	C	-0.585949	0.000009	0.076725
C23	C	-0.540340	0.000009	0.144193
C24	C	-0.413176	0.000013	0.201218
C25	C	-0.456513	0.000005	0.137128
C26	C	-0.984675	-0.218760	0.119348
C27	C	-0.984679	-0.298007	0.119344
C28	C	-0.934835	-0.337640	0.169166
C29	C	-0.884968	-0.298018	0.218981
C30	C	-0.884960	-0.218772	0.218977
N31	N	-0.929461	-0.462055	0.237990
N32	N	-0.929473	-0.537335	0.237992
C33	C	-0.934857	-0.576404	0.169178
N34	N	-0.940242	-0.537348	0.100363
N35	N	-0.940233	-0.462061	0.100362
C36	C	-0.934838	-0.423569	0.169175
C37	C	-0.984721	-0.701945	0.119359
C38	C	-0.984720	-0.781194	0.119354
C39	C	-0.885013	-0.781204	0.218998
C40	C	-0.885010	-0.701956	0.218996
C41	C	-0.934868	-0.662332	0.169177
C42	C	-0.078041	0.000016	0.172986
C43	C	-0.165325	0.000016	0.180334
C44	C	-0.931026	0.000010	0.025972
C45	C	-0.923678	0.000010	-0.061312
N46	N	-0.934874	0.179179	0.169176
C47	C	-0.991142	0.000009	-0.106922
C48	C	-0.984233	0.000017	-0.188934
C49	C	-0.909860	0.000019	-0.225334
C50	C	-0.842391	0.000021	-0.179718
C51	C	-0.849301	0.000019	-0.097708
C52	C	-0.885449	0.000029	-0.472722
C53	C	-0.878544	0.000028	-0.554738
C54	C	-1.020387	0.000025	-0.563948
C55	C	-1.027290	0.000019	-0.481936
C56	C	-0.959821	0.000025	-0.436327
C57	C	-0.902796	0.000023	-0.309163
C58	C	-0.966886	0.000026	-0.352499
C59	C	-0.938660	0.000023	0.312369
C60	C	-0.946008	0.000028	0.399652
H61	H	-0.181305	0.000008	0.052308
H62	H	-0.842241	0.000023	-0.338809
H63	H	-0.330080	-0.000002	0.064844
Br64	Br	-0.536555	0.000032	-0.024214
H65	H	-0.844383	-0.330291	0.259545
H66	H	-0.705105	0.000006	0.028700
Br67	Br	-0.757739	0.000026	-0.035807
H68	H	-1.039169	0.000015	-0.226066
Br69	Br	-0.708150	0.000031	0.326413
Br70	Br	-0.793883	0.000042	-0.410834
H71	H	-1.075316	0.000021	-0.601091
Br72	Br	-1.092082	-0.000004	-0.057530
Br73	Br	-0.777603	0.000023	-0.604138
H74	H	-0.781834	0.000028	-0.209361
H75	H	-0.539609	0.000018	0.273504
Br76	Br	-0.139819	0.000015	0.346273
H77	H	-0.313374	0.000019	0.322179
H78	H	-1.025280	-0.330265	0.078780
Br79	Br	-0.407112	-0.000012	0.036196
H80	H	-0.442822	0.000021	0.261774
Br81	Br	-1.067818	0.000030	-0.303098
Br82	Br	-1.128229	0.000040	-0.432541
Br83	Br	-1.052381	-0.834958	0.051741
H84	H	-1.025271	-0.186500	0.078781
Br85	Br	-0.817291	-0.165008	0.286582
H86	H	-1.025316	-0.669682	0.078792
H87	H	-0.844425	-0.813472	0.259560
H88	H	-0.844415	-0.669702	0.259560
