data_functionalizedCrystal
_audit_creation_method	'MofGen! by Chris Wilmer'
_symmetry_space_group_name_H-M	'P1'
_symmetry_Int_Tables_number	1
_symmetry_cell_setting	triclinic
loop_
_symmetry_equiv_pos_as_xyz
  x,y,z
_cell_length_a	12.837942
_cell_length_b	11.026607
_cell_length_c	9.482900
_cell_angle_alpha	101.363848
_cell_angle_beta	100.328050
_cell_angle_gamma	78.292522
loop_
_atom_site_label
_atom_site_type_symbol
_atom_site_fract_x
_atom_site_fract_y
_atom_site_fract_z
O1	O	0.430677	-1.678880	-0.120903
O2	O	0.380157	-1.319732	-0.120904
O3	O	0.253029	-1.491341	-0.120894
O4	O	0.557805	-1.507271	-0.120912
O5	O	0.278984	-1.456499	0.120896
O6	O	0.406113	-1.284890	0.120887
O7	O	0.456632	-1.644038	0.120888
Cu8	Cu	0.433742	-1.461282	0.142965
Cu9	Cu	0.403047	-1.502487	-0.142981
O10	O	0.583760	-1.472429	0.120878
C11	C	0.383815	-1.256022	-0.000009
C12	C	0.356032	-1.118096	-0.000009
C13	C	0.226382	-1.468539	0.000000
C14	C	0.108310	-1.452492	-0.000002
C15	C	0.452974	-1.707748	-0.000011
C16	C	0.480756	-1.845676	-0.000020
C17	C	-0.096652	-1.645414	-0.000032
C18	C	-0.207590	-1.630343	-0.000035
C19	C	-0.224509	-1.407280	-0.000020
C20	C	-0.113570	-1.422352	-0.000018
C21	C	-0.049645	-1.541422	-0.000021
C22	C	0.061297	-1.556492	-0.000009
C23	C	0.044375	-1.333431	-0.000005
C24	C	-0.066563	-1.318360	-0.000007
C25	C	0.610407	-1.495231	-0.000019
C26	C	0.728478	-1.511279	-0.000026
N27	N	0.455332	-1.432310	0.344083
C28	C	0.432745	-1.053162	-0.000014
C29	C	0.404032	-0.910607	-0.000015
N30	N	0.381450	-1.531469	-0.344099
C31	C	0.409408	-1.493932	0.416286
C32	C	0.427381	-1.469837	0.583702
H33	H	0.113344	-1.653444	-0.000006
H34	H	0.567697	-0.895613	-0.000015
H35	H	-0.044601	-1.742364	-0.000021
N36	N	0.095081	-1.221265	0.000003
H37	H	0.062461	-1.182793	-0.089625
H38	H	0.081682	-1.157059	0.089698
N39	N	0.240876	-1.051952	0.000016
H40	H	0.236688	-0.959490	0.000018
H41	H	0.194832	-1.089036	-0.089615
N42	N	0.288870	-0.844468	0.000010
H43	H	0.284682	-0.752007	0.000013
H44	H	0.242826	-0.881552	-0.089620
N45	N	-0.258293	-1.742504	-0.000049
H46	H	-0.200960	-1.820217	-0.000051
H47	H	-0.294335	-1.728197	0.089585
H48	H	0.328818	-1.602065	0.593780
N49	N	0.547905	-1.119296	-0.000019
H50	H	0.572481	-1.159996	0.089612
H51	H	0.553155	-1.185768	-0.089711
N52	N	0.339668	-1.587414	0.334010
H53	H	0.336700	-1.591362	0.226076
H54	H	0.370975	-1.673074	0.360498
N55	N	0.497085	-1.376308	0.665972
H56	H	0.500042	-1.372349	0.773906
H57	H	0.572081	-1.403364	0.639439
N58	N	0.525041	-1.338794	0.426357
H59	H	0.493750	-1.253094	0.399964
H60	H	0.527976	-1.334943	0.534265
H61	H	-0.118627	-1.221416	-0.000010
N62	N	-0.293466	-1.278865	-0.000032
H63	H	-0.370878	-1.285104	-0.000041
H64	H	-0.268159	-1.219880	0.089607
