data_functionalizedCrystal
_audit_creation_method	'MofGen! by Chris Wilmer'
_symmetry_space_group_name_H-M	'P1'
_symmetry_Int_Tables_number	1
_symmetry_cell_setting	triclinic
loop_
_symmetry_equiv_pos_as_xyz
  x,y,z
_cell_length_a	17.699083
_cell_length_b	10.654550
_cell_length_c	9.730223
_cell_angle_alpha	90.003749
_cell_angle_beta	89.997786
_cell_angle_gamma	96.116042
loop_
_atom_site_label
_atom_site_type_symbol
_atom_site_fract_x
_atom_site_fract_y
_atom_site_fract_z
O1	O	0.106299	-1.665973	-0.114406
O2	O	0.116427	-1.300318	-0.114384
O3	O	0.001240	-1.493476	-0.114384
O4	O	0.221487	-1.472815	-0.114407
O5	O	0.001243	-1.493474	0.114196
O6	O	0.116430	-1.300315	0.114196
O7	O	0.106302	-1.665971	0.114174
Zn8	Zn	0.111366	-1.483143	0.150477
Zn9	Zn	0.111363	-1.483146	-0.150687
O10	O	0.221490	-1.472813	0.114173
C11	C	0.115685	-1.253531	-0.000091
C12	C	0.113460	-1.114127	-0.000083
C13	C	-0.026961	-1.492735	-0.000093
C14	C	-0.110993	-1.490514	-0.000093
C15	C	0.107044	-1.712757	-0.000122
C16	C	0.109269	-1.852161	-0.000140
C17	C	-0.158893	-1.603894	-0.000097
C18	C	-0.237850	-1.601799	-0.000109
C19	C	-0.268905	-1.486324	-0.000107
C20	C	-0.220998	-1.372935	-0.000106
C21	C	-0.142043	-1.375031	-0.000104
C22	C	-0.539415	-1.364481	-0.000117
C23	C	-0.618376	-1.362394	-0.000115
C24	C	-0.635222	-1.591249	-0.000122
C25	C	-0.556266	-1.593345	-0.000120
C26	C	-0.508367	-1.479957	-0.000127
C27	C	-0.422753	-1.482229	-0.000116
C28	C	-0.354517	-1.484050	-0.000107
C29	C	0.249690	-1.473554	-0.000120
C30	C	0.333722	-1.475775	-0.000130
N31	N	0.111369	-1.483150	0.356013
C32	C	0.181281	-1.033454	-0.000110
C33	C	0.179185	-0.902470	-0.000133
C34	C	0.041443	-0.932845	-0.000108
C35	C	0.043539	-1.063826	-0.000075
C36	C	0.260805	-1.015917	-0.000130
C37	C	0.258710	-0.884933	-0.000154
N38	N	0.111355	-1.483149	-0.356223
C39	C	0.060381	-1.568702	0.427940
C40	C	0.060372	-1.568699	0.571823
C41	C	0.162345	-1.397587	0.571840
C42	C	0.162349	-1.397585	0.427960
C43	C	0.001510	-1.667496	0.427931
C44	C	0.001501	-1.667493	0.571814
H45	H	-0.276847	-1.694125	-0.000110
O46	O	-0.522769	-1.717892	-0.000142
H47	H	-0.569343	-1.796383	-0.000167
H48	H	0.203851	-1.327922	0.630435
H49	H	0.203861	-1.327911	0.369399
O50	O	-0.075539	-1.640429	0.376188
H51	H	-0.113264	-1.627165	0.464963
H52	H	0.019944	-1.758357	0.383297
O53	O	0.298402	-0.828948	-0.126869
H54	H	0.269201	-0.870168	-0.219955
O55	O	-0.071331	-1.628397	0.630913
H56	H	-0.079097	-1.531540	0.595632
O57	O	-0.125403	-1.728447	-0.000116
H58	H	-0.144606	-1.782927	0.093036
O59	O	0.294352	-1.062578	-0.130841
H60	H	0.310446	-0.981389	-0.200165
H61	H	-0.011687	-1.129507	-0.000033
O62	O	0.301956	-1.054021	0.126650
H63	H	0.360834	-1.006252	0.126628
H64	H	-0.500424	-1.272153	-0.000122
H65	H	0.014468	-1.763777	0.610857
O66	O	-0.254487	-1.248380	-0.000089
H67	H	-0.317437	-1.265968	-0.000071
H68	H	-0.015484	-0.891873	-0.000123
O69	O	-0.686883	-1.713555	-0.000127
H70	H	-0.747004	-1.692706	-0.000142
H71	H	-0.643658	-1.268354	-0.000110
H72	H	-0.103043	-1.282705	-0.000100
H73	H	0.282744	-0.838840	0.098528
