data_functionalizedCrystal
_audit_creation_method	'MofGen! by Chris Wilmer'
_symmetry_space_group_name_H-M	'P1'
_symmetry_Int_Tables_number	1
_symmetry_cell_setting	triclinic
loop_
_symmetry_equiv_pos_as_xyz
  x,y,z
_cell_length_a	12.759401
_cell_length_b	12.759400
_cell_length_c	19.805399
_cell_angle_alpha	89.983370
_cell_angle_beta	90.016449
_cell_angle_gamma	89.998346
loop_
_atom_site_label
_atom_site_type_symbol
_atom_site_fract_x
_atom_site_fract_y
_atom_site_fract_z
Zn1	Zn	-1.606306	-0.418341	-0.382715
Zn2	Zn	-1.106306	0.081659	0.117285
Zn3	Zn	-1.606244	-0.594034	-0.269548
Zn4	Zn	-1.106244	-0.094034	0.230452
Zn5	Zn	-1.430617	-0.418364	-0.269546
Zn6	Zn	-0.930617	0.081636	0.230454
Zn7	Zn	-1.430631	-0.593973	-0.382701
Zn8	Zn	-0.930631	-0.093973	0.117299
O9	O	-1.518450	-0.506178	-0.326127
O10	O	-1.018450	-0.006178	0.173873
O11	O	-1.753319	-0.441663	-0.367710
O12	O	-1.253319	0.058337	0.132290
O13	O	-1.582915	-0.570767	-0.174831
O14	O	-1.082915	-0.070767	0.325169
O15	O	-1.453943	-0.271340	-0.284562
O16	O	-0.953943	0.228660	0.215438
O17	O	-1.753273	-0.570744	-0.284567
O18	O	-1.253273	-0.070744	0.215433
O19	O	-1.583020	-0.271323	-0.367707
O20	O	-1.083020	0.228677	0.132293
O21	O	-1.453883	-0.441703	-0.174829
O22	O	-0.953883	0.058297	0.325171
O23	O	-1.283598	-0.441643	-0.284549
O24	O	-0.783598	0.058357	0.215451
O25	O	-1.453966	-0.570639	-0.477419
O26	O	-0.953966	-0.070639	0.022581
O27	O	-1.283608	-0.570662	-0.367684
O28	O	-0.783608	-0.070662	0.132316
O29	O	-1.583034	-0.441603	-0.477430
O30	O	-1.083034	0.058397	0.022570
O31	O	-1.582929	-0.741047	-0.284554
O32	O	-1.082929	-0.241047	0.215446
O33	O	-1.453906	-0.741002	-0.367686
O34	O	-0.953906	-0.241002	0.132314
C35	C	-1.245482	-0.506149	-0.326115
C36	C	-0.745482	-0.006149	0.173885
C37	C	-1.128706	-0.506162	-0.326126
C38	C	-0.628706	-0.006162	0.173874
C39	C	-1.518441	-0.779145	-0.326134
C40	C	-1.018441	-0.279145	0.173866
C41	C	-1.518533	-0.895922	-0.326159
C42	C	-1.018533	-0.395922	0.173841
C43	C	-1.073868	-0.439069	-0.369485
C44	C	-0.573868	0.060931	0.130515
C45	C	-0.964144	-0.439076	-0.369488
C46	C	-0.464144	0.060924	0.130512
C47	C	-0.964105	-0.573278	-0.282772
C48	C	-0.464105	-0.073278	0.217228
C49	C	-1.073827	-0.573265	-0.282766
C50	C	-0.573827	-0.073265	0.217234
C51	C	-1.518508	-0.506112	-0.502670
C52	C	-1.018508	-0.006112	-0.002670
C53	C	-1.518534	-0.506084	-0.577902
C54	C	-1.018534	-0.006084	-0.077902
C55	C	-0.792483	-0.506198	-0.326138
C56	C	-0.292483	-0.006198	0.173862
C57	C	-0.909259	-0.506181	-0.326136
C58	C	-0.409259	-0.006181	0.173864
C59	C	-1.518487	-0.232145	-0.326136
C60	C	-1.018487	0.267855	0.173864
C61	C	-1.518503	-0.115368	-0.326140
C62	C	-1.018503	0.384632	0.173860
C63	C	-1.451310	-0.060513	-0.282854
C64	C	-0.951310	0.439487	0.217146
C65	C	-1.451322	0.049211	-0.282865
C66	C	-0.951322	0.549211	0.217135
C67	C	-1.585729	0.049216	-0.369449
C68	C	-1.085729	0.549216	0.130551
C69	C	-1.585711	-0.060506	-0.369441
C70	C	-1.085711	0.439494	0.130559
C71	C	-1.585741	-0.438891	-0.613253
C72	C	-1.085741	0.061109	-0.113253
C73	C	-1.585751	-0.438861	-0.683941
C74	C	-1.085751	0.061139	-0.183941
C75	C	-1.518560	-0.506029	-0.719278
C76	C	-1.018560	-0.006029	-0.219278
C77	C	-1.451345	-0.573224	-0.683922
C78	C	-0.951345	-0.073224	-0.183922
C79	C	-1.451330	-0.573249	-0.613235
C80	C	-0.951330	-0.073249	-0.113235
C81	C	-1.451404	-0.573126	-0.968996
C82	C	-0.951404	-0.073126	-0.468996
C83	C	-1.451427	-0.573099	-1.039688
C84	C	-0.951427	-0.073099	-0.539688
C85	C	-1.585826	-0.438738	-1.039702
C86	C	-1.085826	0.061262	-0.539702
C87	C	-1.585811	-0.438763	-0.969015
C88	C	-1.085811	0.061237	-0.469015
C89	C	-1.518593	-0.505954	-0.933665
C90	C	-1.018593	-0.005954	-0.433665
C91	C	-1.518580	-0.505985	-0.857017
C92	C	-1.018580	-0.005985	-0.357017
C93	C	-1.518576	-0.506004	-0.795925
C94	C	-1.018576	-0.006004	-0.295925
C95	C	-1.518451	-0.506168	-0.150271
C96	C	-1.018451	-0.006168	0.349729
C97	C	-1.518630	-0.505900	-0.075040
C98	C	-1.018630	-0.005900	0.424960
H99	H	-1.118547	-0.384427	-0.404789
H100	H	-0.618547	0.115573	0.095211
H101	H	-0.919500	-0.384440	-0.404794
H102	H	-0.419500	0.115560	0.095206
H103	H	-1.640480	-0.384148	-0.712720
H104	H	-1.140480	0.115852	-0.212720
H105	H	-1.640459	-0.384198	-0.584487
H106	H	-1.140459	0.115802	-0.084487
C107	C	-0.903735	-0.647094	-0.235086
C108	C	-0.403735	-0.147094	0.264914
H109	H	-0.830534	-0.637501	-0.241304
H110	H	-0.330534	-0.137501	0.258696
H111	H	-0.921686	-0.631626	-0.189623
H112	H	-0.421686	-0.131626	0.310377
H113	H	-0.921732	-0.717705	-0.244923
H114	H	-0.421732	-0.217705	0.255077
C115	C	-1.377434	-0.647109	-0.722788
C116	C	-0.877434	-0.147109	-0.222788
H117	H	-1.337399	-0.687124	-0.691608
H118	H	-0.837399	-0.187124	-0.191608
H119	H	-1.417622	-0.692882	-0.750364
H120	H	-0.917622	-0.192882	-0.250364
H121	H	-1.331665	-0.606899	-0.750360
H122	H	-0.831665	-0.106899	-0.250360
H123	H	-1.118477	-0.627901	-0.247454
H124	H	-0.618477	-0.127901	0.252546
H125	H	-1.640450	0.093895	-0.404703
H126	H	-1.140450	0.593895	0.095297
C127	C	-1.377374	-0.120858	-0.235232
C128	C	-0.877374	0.379142	0.264768
H129	H	-1.337351	-0.072470	-0.209460
H130	H	-0.837351	0.427530	0.290540
H131	H	-1.417541	-0.163677	-0.205738
H132	H	-0.917541	0.336323	0.294262
H133	H	-1.331595	-0.163644	-0.261125
H134	H	-0.831595	0.336356	0.238875
H135	H	-1.640554	-0.384025	-1.068492
H136	H	-1.140554	0.115975	-0.568492
C137	C	-1.377415	0.109546	-0.235248
C138	C	-0.877415	0.609546	0.264752
H139	H	-1.337394	0.061155	-0.209457
H140	H	-0.837394	0.561155	0.290543
H141	H	-1.331649	0.152362	-0.261137
H142	H	-0.831649	0.652362	0.238863
H143	H	-1.417611	0.152335	-0.205762
H144	H	-0.917611	0.652335	0.294238
H145	H	-1.640529	-0.384071	-0.940247
H146	H	-1.140529	0.115929	-0.440247
C147	C	-1.377514	-0.646984	-1.078560
C148	C	-0.877514	-0.146984	-0.578560
H149	H	-1.387162	-0.637353	-1.125722
H150	H	-0.887162	-0.137353	-0.625722
H151	H	-1.306921	-0.631604	-1.066975
H152	H	-0.806921	-0.131604	-0.566975
H153	H	-1.392880	-0.717584	-1.066973
H154	H	-0.892880	-0.217584	-0.566973
H155	H	-1.640427	-0.105170	-0.404694
H156	H	-1.140427	0.394830	0.095306
H157	H	-1.396687	-0.627853	-0.940223
H158	H	-0.896687	-0.127853	-0.440223
C159	C	-1.377428	-0.647186	-0.574350
C160	C	-0.877428	-0.147186	-0.074350
H161	H	-1.337427	-0.687200	-0.605518
H162	H	-0.837427	-0.187200	-0.105518
H163	H	-1.331644	-0.607023	-0.546764
H164	H	-0.831644	-0.107023	-0.046764
H165	H	-1.417633	-0.692973	-0.546785
H166	H	-0.917633	-0.192973	-0.046785
