data_functionalizedCrystal
_audit_creation_method	'MofGen! by Chris Wilmer'
_symmetry_space_group_name_H-M	'P1'
_symmetry_Int_Tables_number	1
_symmetry_cell_setting	triclinic
loop_
_symmetry_equiv_pos_as_xyz
  x,y,z
_cell_length_a	15.625136
_cell_length_b	13.596369
_cell_length_c	15.538191
_cell_angle_alpha	89.996877
_cell_angle_beta	66.739147
_cell_angle_gamma	71.909920
loop_
_atom_site_label
_atom_site_type_symbol
_atom_site_fract_x
_atom_site_fract_y
_atom_site_fract_z
O1	O	-1.156053	0.494196	-0.122930
O2	O	-0.656053	0.994196	0.377070
O3	O	-0.888769	0.398845	-0.137576
O4	O	-0.388769	0.898845	0.362424
O5	O	-1.074441	0.465086	0.006809
O6	O	-0.574441	0.965086	0.506809
O7	O	-0.970382	0.427955	-0.267315
O8	O	-0.470382	0.927955	0.232685
O9	O	-1.074429	0.301499	0.006816
O10	O	-0.574429	0.801499	0.506816
O11	O	-0.888758	0.235258	-0.137568
O12	O	-0.388758	0.735258	0.362432
O13	O	-1.156042	0.330609	-0.122922
O14	O	-0.656042	0.830609	0.377078
Zn15	Zn	-1.022398	0.256960	-0.130244
Zn16	Zn	-0.522398	0.756960	0.369756
Zn17	Zn	-1.022413	0.472493	-0.130254
Zn18	Zn	-0.522413	0.972493	0.369746
O19	O	-0.970371	0.264368	-0.267307
O20	O	-0.470371	0.764368	0.232693
C21	C	-0.855391	0.305146	-0.136909
C22	C	-0.355391	0.805146	0.363091
C23	C	-0.755955	0.269674	-0.134921
C24	C	-0.255955	0.769674	0.365079
C25	C	-0.615797	0.130512	-0.132114
C26	C	-0.115797	0.630512	0.367886
C27	C	-0.709232	0.163854	-0.133982
C28	C	-0.209232	0.663854	0.366018
C29	C	-0.709256	0.342194	-0.133987
C30	C	-0.209256	0.842194	0.366013
C31	C	-0.615821	0.308867	-0.132113
C32	C	-0.115821	0.808867	0.367887
C33	C	-0.569098	0.203025	-0.131178
C34	C	-0.069098	0.703025	0.368822
C35	C	-0.569122	0.381381	-0.131178
C36	C	-0.069122	0.881381	0.368822
C37	C	-0.475693	0.348056	-0.129310
C38	C	0.024307	0.848056	0.370690
C39	C	-0.428962	0.242218	-0.128378
C40	C	0.071038	0.742218	0.371622
C41	C	-0.475669	0.169700	-0.129310
C42	C	0.024331	0.669700	0.370690
C43	C	-0.615843	0.487221	-0.132120
C44	C	-0.115843	0.987221	0.367880
C45	C	-0.569144	0.559735	-0.131185
C46	C	-0.069144	1.059735	0.368815
C47	C	-0.475716	0.526411	-0.129310
C48	C	0.024284	1.026411	0.370690
C49	C	-0.428986	0.420573	-0.128378
C50	C	0.071014	0.920573	0.371622
C51	C	-0.429009	0.598929	-0.128377
C52	C	0.070991	1.098929	0.371623
C53	C	-0.335580	0.565604	-0.126510
C54	C	0.164420	1.065604	0.373490
C55	C	-0.335557	0.387248	-0.126510
C56	C	0.164443	0.887248	0.373490
N57	N	-1.022395	0.109867	-0.130237
N58	N	-0.522395	0.609867	0.369763
C59	C	-1.022412	-0.291418	-0.130255
C60	C	-0.522412	0.208582	0.369745
C61	C	-1.022403	-0.179769	-0.130253
C62	C	-0.522403	0.320231	0.369747
C63	C	-1.022404	-0.090779	-0.130247
C64	C	-0.522404	0.409221	0.369753
C65	C	-1.022395	0.020877	-0.130243
C66	C	-0.522395	0.520877	0.369757
C67	C	-0.189421	0.424303	-0.123589
C68	C	0.310579	0.924303	0.376411
C69	C	-0.288858	0.459761	-0.125574
C70	C	0.211142	0.959761	0.374426
C71	C	-1.085322	0.387179	0.041894
C72	C	-0.585322	0.887179	0.541894
C73	C	-1.117752	0.398758	0.146425
C74	C	-0.617752	0.898758	0.646425
N75	N	-1.022426	0.619589	-0.130254
N76	N	-0.522426	1.119589	0.369746
C77	C	-0.959490	0.342276	-0.302392
C78	C	-0.459490	0.842276	0.197608
C79	C	-0.927060	0.330704	-0.406924
C80	C	-0.427060	0.830704	0.093076
C81	C	-0.795574	0.283803	0.434636
C82	C	-0.295574	0.783803	0.934636
C83	C	-0.826069	0.294680	0.532862
C84	C	-0.326069	0.794680	1.032862
C85	C	-0.997597	0.355871	0.555081
C86	C	-0.497597	0.855871	1.055081
C87	C	-0.967116	0.345004	0.456855
C88	C	-0.467116	0.845004	0.956855
C89	C	-0.866103	0.308969	0.396639
C90	C	-0.366103	0.808969	0.896639
C91	C	-1.037645	0.370170	0.418859
C92	C	-0.537645	0.870170	0.918859
C93	C	-1.007167	0.359299	0.320641
C94	C	-0.507167	0.859299	0.820641
C95	C	-0.906158	0.323262	0.260420
C96	C	-0.406158	0.823262	0.760420
C97	C	-0.835624	0.298098	0.298422
C98	C	-0.335624	0.798098	0.798422
C99	C	-1.138658	0.406198	0.479076
C100	C	-0.638658	0.906198	0.979076
C101	C	-1.209187	0.431364	0.441080
C102	C	-0.709187	0.931364	0.941080
C103	C	-1.178709	0.420500	0.342861
C104	C	-0.678709	0.920500	0.842861
C105	C	-1.077701	0.384463	0.282639
C106	C	-0.577701	0.884463	0.782639
C107	C	-1.249243	0.445665	0.304858
C108	C	-0.749243	0.945665	0.804858
C109	C	-1.218764	0.434793	0.206641
C110	C	-0.718764	0.934793	0.706641
C111	C	-1.047222	0.373592	0.184421
C112	C	-0.547222	0.873592	0.684421
H113	H	-0.577748	0.044323	-0.131364
H114	H	-0.077748	0.544323	0.368636
H115	H	-0.297507	0.301059	-0.125760
H116	H	0.202493	0.801059	0.374240
H117	H	-0.881344	0.314406	0.180445
H118	H	-0.381344	0.814406	0.680445
H119	H	-0.768627	0.274170	0.563793
H120	H	-0.268627	0.774170	1.063793
H121	H	-1.331487	0.474995	0.353900
H122	H	-0.831487	0.974995	0.853900
F123	F	-1.293830	0.461563	0.166200
F124	F	-0.793830	0.961563	0.666200
F125	F	-0.758991	0.454836	-0.134981
F126	F	-0.258991	0.954836	0.365019
F127	F	-0.329523	0.206749	-0.126395
F128	F	0.170477	0.706749	0.373605
H129	H	-0.691916	0.514350	-0.133648
H130	H	-0.191916	1.014350	0.366352
H131	H	-0.964967	0.344256	0.135390
H132	H	-0.464967	0.844256	0.635390
F133	F	-1.316689	0.469707	0.505175
F134	F	-0.816689	0.969707	1.005175
F135	F	-0.478742	0.711568	-0.129382
F136	F	0.021258	1.211568	0.370618
H137	H	-0.437620	0.083511	-0.128561
H138	H	0.062380	0.583511	0.371439
H139	H	-0.747248	0.104796	-0.134750
H140	H	-0.247248	0.604796	0.365250
F141	F	-0.618879	0.672377	-0.132179
F142	F	-0.118879	1.172377	0.367821
H143	H	-0.297556	0.624651	-0.125750
H144	H	0.202444	1.124651	0.374250
F145	F	-0.728114	0.259754	0.234330
F146	F	-0.228114	0.759754	0.734330
F147	F	-0.688064	0.245459	0.370544
F148	F	-0.188064	0.745459	0.870544
F149	F	-1.105098	0.394214	0.619176
F150	F	-0.605098	0.894214	1.119176
F151	F	-1.171094	0.417761	0.583609
F152	F	-0.671094	0.917761	1.083609
