data_functionalizedCrystal
_audit_creation_method	'MofGen! by Chris Wilmer'
_symmetry_space_group_name_H-M	'P1'
_symmetry_Int_Tables_number	1
_symmetry_cell_setting	triclinic
loop_
_symmetry_equiv_pos_as_xyz
  x,y,z
_cell_length_a	19.077105
_cell_length_b	19.077068
_cell_length_c	19.076919
_cell_angle_alpha	85.529249
_cell_angle_beta	90.076224
_cell_angle_gamma	89.884684
loop_
_atom_site_label
_atom_site_type_symbol
_atom_site_fract_x
_atom_site_fract_y
_atom_site_fract_z
Zn1	Zn	1.044048	0.340450	-0.453500
Zn2	Zn	1.377382	0.673784	-0.120166
Zn3	Zn	1.710715	1.007117	0.213167
Zn4	Zn	1.043962	0.453600	-0.340340
Zn5	Zn	1.377295	0.786934	-0.007007
Zn6	Zn	1.710628	1.120267	0.326326
Zn7	Zn	0.931660	0.331023	-0.330931
Zn8	Zn	1.264993	0.664357	0.002403
Zn9	Zn	1.598327	0.997690	0.335736
Zn10	Zn	0.921801	0.453176	-0.453077
Zn11	Zn	1.255134	0.786509	-0.119743
Zn12	Zn	1.588468	1.119842	0.213590
O13	O	0.985368	0.394562	-0.394462
O14	O	1.318701	0.727896	-0.061129
O15	O	1.652034	1.061229	0.272205
O16	O	1.142196	0.359583	-0.442604
O17	O	1.475530	0.692916	-0.109270
O18	O	1.808863	1.026250	0.224063
O19	O	1.033154	0.433572	-0.240616
O20	O	1.366488	0.766906	0.092717
O21	O	1.699821	1.100239	0.426050
O22	O	0.950731	0.233799	-0.343429
O23	O	1.284064	0.567132	-0.010095
O24	O	1.617398	0.900466	0.323238
O25	O	1.142133	0.442714	-0.359466
O26	O	1.475466	0.776047	-0.026133
O27	O	1.808799	1.109380	0.307200
O28	O	1.033302	0.240725	-0.433479
O29	O	1.366636	0.574058	-0.100146
O30	O	1.699969	0.907392	0.233187
O31	O	0.950647	0.343516	-0.233703
O32	O	1.283980	0.676849	0.099630
O33	O	1.617313	1.010182	0.432964
O34	O	0.832193	0.343104	-0.343019
O35	O	1.165526	0.676437	-0.009685
O36	O	1.498859	1.009771	0.323648
O37	O	0.933928	0.441990	-0.551609
O38	O	1.267261	0.775324	-0.218276
O39	O	1.600594	1.108657	0.115058
O40	O	0.824949	0.432849	-0.432759
O41	O	1.158283	0.766182	-0.099426
O42	O	1.491616	1.099516	0.233908
O43	O	1.023742	0.359171	-0.551919
O44	O	1.357076	0.692505	-0.218586
O45	O	1.690409	1.025838	0.114747
O46	O	1.023594	0.552019	-0.359056
O47	O	1.356928	0.885352	-0.025723
O48	O	1.690261	1.218685	0.307610
O49	O	0.933844	0.551707	-0.441883
O50	O	1.267177	0.885040	-0.108550
O51	O	1.600510	1.218374	0.224783
C52	C	0.803119	0.386908	-0.386822
C53	C	1.136453	0.720241	-0.053489
C54	C	1.469786	1.053575	0.279844
C55	C	0.725151	0.383651	-0.383571
C56	C	1.058485	0.716984	-0.050238
C57	C	1.391818	1.050318	0.283095
C58	C	0.977658	0.577398	-0.401461
C59	C	1.310992	0.910731	-0.068128
C60	C	1.644325	1.244064	0.265206
C61	C	0.974423	0.655619	-0.404482
C62	C	1.307756	0.988952	-0.071148
C63	C	1.641090	1.322285	0.262185
C64	C	0.977745	0.401585	-0.578012
C65	C	1.311078	0.734918	-0.244679
C66	C	1.644412	1.068252	0.088655
C67	C	0.974497	0.404578	-0.656230
C68	C	1.307830	0.737911	-0.322897
C69	C	1.641163	1.071244	0.010437
C70	C	0.684769	0.428912	-0.428699
C71	C	1.018102	0.762245	-0.095365
C72	C	1.351436	1.095578	0.237968
C73	C	0.611510	0.425842	-0.425647
C74	C	0.944843	0.759175	-0.092314
C75	C	1.278176	1.092509	0.241019
C76	C	0.578634	0.377515	-0.377464
C77	C	0.911968	0.710849	-0.044131
C78	C	1.245301	1.044182	0.289202
C79	C	0.619022	0.332250	-0.332335
C80	C	0.952355	0.665583	0.000999
C81	C	1.285689	0.998917	0.334332
C82	C	0.692280	0.335317	-0.335390
C83	C	1.025613	0.668650	-0.002057
C84	C	1.358946	1.001983	0.331276
C85	C	0.359940	0.363323	-0.363326
C86	C	0.693273	0.696657	-0.029993
C87	C	1.026607	1.029990	0.303340
C88	C	0.286677	0.360262	-0.360273
C89	C	0.620010	0.693595	-0.026939
C90	C	0.953344	1.026928	0.306394
C91	C	0.279170	0.453853	-0.453586
C92	C	0.612503	0.787187	-0.120253
C93	C	0.945836	1.120520	0.213080
C94	C	0.352429	0.456918	-0.456635
C95	C	0.685762	0.790252	-0.123301
C96	C	1.019096	1.123585	0.210032
C97	C	0.392810	0.411651	-0.411508
C98	C	0.726144	0.744984	-0.078175
C99	C	1.059477	1.078317	0.255159
N100	N	0.503752	0.374378	-0.374342
N101	N	0.837085	0.707711	-0.041009
N102	N	1.170419	1.041045	0.292324
N103	N	0.467691	0.414785	-0.414634
N104	N	0.801025	0.748118	-0.081300
N105	N	1.134358	1.081451	0.252033
C106	C	1.168328	0.402247	-0.402132
C107	C	1.501661	0.735581	-0.068798
C108	C	1.834995	1.068914	0.264535
C109	C	1.246295	0.405522	-0.405400
C110	C	1.579628	0.738855	-0.072067
C111	C	1.912961	1.072189	0.261266
C112	C	0.993126	0.211015	-0.387451
C113	C	1.326459	0.544348	-0.054118
C114	C	1.659793	0.877681	0.279215
C115	C	0.996432	0.132798	-0.384464
C116	C	1.329765	0.466131	-0.051131
C117	C	1.663099	0.799464	0.282203
C118	C	1.019665	0.692509	-0.362816
C119	C	1.352998	1.025843	-0.029483
C120	C	1.686332	1.359176	0.303851
C121	C	1.016626	0.766007	-0.365661
C122	C	1.349960	1.099340	-0.032328
C123	C	1.683293	1.432673	0.301005
C124	C	0.968342	0.802612	-0.410169
C125	C	1.301675	1.135945	-0.076836
C126	C	1.635009	1.469279	0.256498
C127	C	0.923098	0.765717	-0.451839
C128	C	1.256431	1.099050	-0.118506
C129	C	1.589765	1.432383	0.214827
C130	C	0.926141	0.692221	-0.448997
C131	C	1.259474	1.025554	-0.115664
C132	C	1.592807	1.358888	0.217669
C133	C	0.954231	1.022406	-0.423292
C134	C	1.287564	1.355740	-0.089959
C135	C	1.620897	1.689073	0.243374
C136	C	0.951190	1.095907	-0.426130
C137	C	1.284523	1.429241	-0.092796
C138	C	1.617857	1.762574	0.240537
C139	C	1.044720	1.096192	-0.339952
C140	C	1.378053	1.429526	-0.006619
C141	C	1.711386	1.762859	0.326714
C142	C	1.047755	1.022695	-0.337111
C143	C	1.381089	1.356028	-0.003778
C144	C	1.714422	1.689361	0.329556
C145	C	1.002514	0.985806	-0.378784
C146	C	1.335847	1.319139	-0.045451
C147	C	1.669181	1.652473	0.287883
N148	N	0.965233	0.877738	-0.413077
N149	N	1.298566	1.211072	-0.079743
N150	N	1.631900	1.544405	0.253590
N151	N	1.005627	0.910681	-0.375880
N152	N	1.338960	1.244015	-0.042546
N153	N	1.672293	1.577348	0.290787
C154	C	1.019730	0.362866	-0.693140
C155	C	1.353063	0.696200	-0.359806
C156	C	1.686396	1.029533	-0.026473
C157	C	1.016669	0.365675	-0.766634
C158	C	1.350002	0.699008	-0.433300
C159	C	1.683336	1.032342	-0.099967
C160	C	0.968378	0.410200	-0.803216
C161	C	1.301712	0.743533	-0.469883
C162	C	1.635045	1.076866	-0.136550
C163	C	0.923140	0.451913	-0.766301
C164	C	1.256474	0.785246	-0.432968
C165	C	1.589807	1.118579	-0.099635
C166	C	0.926198	0.449100	-0.692809
C167	C	1.259531	0.782433	-0.359475
C168	C	1.592865	1.115766	-0.026142
C169	C	0.954216	0.423233	-1.022998
C170	C	1.287549	0.756566	-0.689665
C171	C	1.620882	1.089900	-0.356332
C172	C	0.951163	0.426044	-1.096496
C173	C	1.284496	0.759378	-0.763163
C174	C	1.617830	1.092711	-0.429830
C175	C	1.044691	0.339805	-1.096823
C176	C	1.378025	0.673139	-0.763490
C177	C	1.711358	1.006472	-0.430157
C178	C	1.047748	0.337000	-1.023329
C179	C	1.381081	0.670333	-0.689996
C180	C	1.714414	1.003666	-0.356663
C181	C	1.002507	0.378710	-0.986421
C182	C	1.335840	0.712043	-0.653087
C183	C	1.669174	1.045376	-0.319754
N184	N	0.965250	0.413073	-0.878339
N185	N	1.298583	0.746407	-0.545006
N186	N	1.631917	1.079740	-0.211672
N187	N	1.005632	0.375832	-0.911299
N188	N	1.338966	0.709165	-0.577966
N189	N	1.672299	1.042498	-0.244632
C190	C	0.993003	0.387518	-0.211626
C191	C	1.326337	0.720851	0.121708
C192	C	1.659670	1.054185	0.455041
C193	C	0.996396	0.384333	-0.133406
C194	C	1.329729	0.717666	0.199927
C195	C	1.663063	1.051000	0.533261
H196	H	0.578633	0.462699	-0.462394
H197	H	0.911967	0.796032	-0.129061
H198	H	1.245300	1.129365	0.204272
O199	O	0.905435	0.982616	-0.468229
O200	O	1.238768	1.315950	-0.134896
O201	O	1.572102	1.649283	0.198437
H202	H	0.872475	0.946469	-0.433910
H203	H	1.205809	1.279802	-0.100577
H204	H	1.539142	1.613136	0.232757
H205	H	0.883787	0.795527	-0.488082
H206	H	1.217120	1.128860	-0.154748
H207	H	1.550453	1.462194	0.178585
H208	H	1.053504	0.331711	-0.796682
H209	H	1.386838	0.665044	-0.463349
H210	H	1.720171	0.998378	-0.130016
O211	O	0.877337	0.652426	-0.493927
O212	O	1.210670	0.985759	-0.160594
O213	O	1.544004	1.319092	0.172739
H214	H	0.843244	0.690225	-0.525347
H215	H	1.176577	1.023558	-0.192014
H216	H	1.509910	1.356892	0.141319
O217	O	1.099840	0.983213	-0.289113
O218	O	1.433173	1.316546	0.044220
O219	O	1.766506	1.649879	0.377553
H220	H	1.130795	1.021214	-0.260623
H221	H	1.464128	1.354547	0.072710
H222	H	1.797462	1.687880	0.406043
H223	H	0.911879	1.125710	-0.462386
H224	H	1.245212	1.459044	-0.129053
H225	H	1.578546	1.792377	0.204281
H226	H	1.081523	0.305846	-1.126882
H227	H	1.414856	0.639180	-0.793549
H228	H	1.748189	0.972513	-0.460216
O229	O	1.071815	0.314843	-0.653683
O230	O	1.405149	0.648177	-0.320350
O231	O	1.738482	0.981510	0.012984
H232	H	1.102749	0.286306	-0.691699
H233	H	1.436083	0.619640	-0.358365
H234	H	1.769416	0.952973	-0.025032
H235	H	0.911836	0.462303	-1.126280
H236	H	1.245170	0.795636	-0.792947
H237	H	1.578503	1.128970	-0.459613
O238	O	0.403491	0.314523	-0.314635
O239	O	0.736824	0.647856	0.018698
O240	O	1.070157	0.981189	0.352032
H241	H	0.368320	0.280416	-0.280607
H242	H	0.701654	0.613750	0.052726
H243	H	1.034987	0.947083	0.386060
O244	O	0.583569	0.280141	-0.280347
O245	O	0.916902	0.613474	0.052987
O246	O	1.250236	0.946808	0.386320
H247	H	0.525844	0.285623	-0.285791
H248	H	0.859177	0.618956	0.047542
H249	H	1.192510	0.952289	0.380876
H250	H	0.917388	0.457207	-0.992957
H251	H	1.250721	0.790540	-0.659623
H252	H	1.584054	1.123874	-0.326290
H253	H	0.379191	0.496273	-0.495869
H254	H	0.712524	0.829606	-0.162536
H255	H	1.045858	1.162939	0.170798
H256	H	1.081554	1.126235	-0.306026
H257	H	1.414887	1.459568	0.027308
H258	H	1.748220	1.792902	0.360641
O259	O	1.071754	0.653029	-0.314822
O260	O	1.405087	0.986363	0.018512
O261	O	1.738421	1.319696	0.351845
H262	H	1.043269	0.616899	-0.276378
H263	H	1.376603	0.950232	0.056955
H264	H	1.709936	1.283566	0.390288
H265	H	0.246283	0.490707	-0.490327
H266	H	0.579617	0.824040	-0.156994
H267	H	0.912950	1.157373	0.176340
H268	H	1.087073	0.300745	-0.993549
H269	H	1.420406	0.634078	-0.660216
H270	H	1.753740	0.967412	-0.326882
O271	O	0.735841	0.286509	-0.286710
O272	O	1.069174	0.619842	0.046623
O273	O	1.402507	0.953175	0.379957
H274	H	0.700674	0.252395	-0.252685
H275	H	1.034008	0.585728	0.080648
H276	H	1.367341	0.919062	0.413982
H277	H	0.883818	0.488163	-0.796093
H278	H	1.217152	0.821496	-0.462759
H279	H	1.550485	1.154829	-0.129426
H280	H	0.889357	0.483058	-0.662757
H281	H	1.222691	0.816391	-0.329424
H282	H	1.556024	1.149725	0.003910
H283	H	0.711530	0.468267	-0.467932
H284	H	1.044864	0.801600	-0.134599
H285	H	1.378197	1.134933	0.198734
O286	O	1.065421	0.805797	-0.320720
O287	O	1.398754	1.139131	0.012613
O288	O	1.732088	1.472464	0.345947
H289	H	1.056302	0.789114	-0.264434
H290	H	1.389635	1.122447	0.068899
H291	H	1.722968	1.455780	0.402233
O292	O	0.251214	0.308131	-0.308307
O293	O	0.584547	0.641464	0.025027
O294	O	0.917881	0.974797	0.358360
H295	H	0.291600	0.277162	-0.277445
H296	H	0.624934	0.610496	0.055888
H297	H	0.958267	0.943829	0.389221
