data_functionalizedCrystal
_audit_creation_method	'MofGen! by Chris Wilmer'
_symmetry_space_group_name_H-M	'P1'
_symmetry_Int_Tables_number	1
_symmetry_cell_setting	triclinic
loop_
_symmetry_equiv_pos_as_xyz
  x,y,z
_cell_length_a	16.109295
_cell_length_b	12.996460
_cell_length_c	16.109301
_cell_angle_alpha	90.007568
_cell_angle_beta	96.539666
_cell_angle_gamma	89.997345
loop_
_atom_site_label
_atom_site_type_symbol
_atom_site_fract_x
_atom_site_fract_y
_atom_site_fract_z
O1	O	-1.103136	0.085500	0.106846
O2	O	-0.603136	0.585500	0.606846
O3	O	-0.861073	0.085518	0.120151
O4	O	-0.361073	0.585518	0.620151
O5	O	-0.988754	0.085498	-0.007533
O6	O	-0.488754	0.585498	0.492467
O7	O	-0.975455	0.085520	0.234530
O8	O	-0.475455	0.585520	0.734530
O9	O	-0.988741	-0.085636	-0.007540
O10	O	-0.488741	0.414364	0.492460
O11	O	-0.861060	-0.085616	0.120144
O12	O	-0.361060	0.414384	0.620144
O13	O	-1.103123	-0.085634	0.106839
O14	O	-0.603123	0.414366	0.606839
Cu15	Cu	-0.982090	-0.101251	0.113491
Cu16	Cu	-0.482090	0.398749	0.613491
Cu17	Cu	-0.982106	0.101135	0.113499
Cu18	Cu	-0.482106	0.601135	0.613499
O19	O	-0.975442	-0.085614	0.234523
O20	O	-0.475442	0.414386	0.734523
C21	C	-0.830092	-0.000047	0.119609
C22	C	-0.330092	0.499953	0.619609
C23	C	-0.737796	-0.000040	0.117996
C24	C	-0.237796	0.499960	0.617996
C25	C	-0.515523	-0.000045	0.190008
C26	C	-0.015523	0.499955	0.690008
C27	C	-0.428803	-0.000051	0.188486
C28	C	0.071197	0.499949	0.688486
C29	C	-0.448677	-0.000061	0.036996
C30	C	0.051323	0.499939	0.536996
C31	C	-0.535396	-0.000062	0.038520
C32	C	-0.035396	0.499938	0.538520
C33	C	-0.568816	-0.000048	0.115028
C34	C	-0.068816	0.499952	0.615028
C35	C	-0.395377	-0.000054	0.111982
C36	C	0.104623	0.499946	0.611982
C37	C	-0.301351	-0.000061	0.110331
C38	C	0.198649	0.499939	0.610331
C39	C	-0.662849	-0.000044	0.116679
C40	C	-0.162849	0.499956	0.616679
N41	N	-0.982085	-0.243598	0.113484
N42	N	-0.482085	0.256402	0.613484
C43	C	-0.982105	-0.663412	0.113500
C44	C	-0.482105	-0.163412	0.613500
C45	C	-0.982097	-0.546607	0.113499
C46	C	-0.482097	-0.046607	0.613499
C47	C	-0.982095	-0.453509	0.113493
C48	C	-0.482095	0.046491	0.613493
C49	C	-0.982087	-0.336696	0.113490
C50	C	-0.482087	0.163304	0.613490
C51	C	-0.134104	-0.000066	0.107386
C52	C	0.365896	0.499934	0.607386
C53	C	-0.226397	-0.000062	0.109014
C54	C	0.273603	0.499938	0.609014
C55	C	-0.988209	-0.000069	-0.038511
C56	C	-0.488209	0.499931	0.461489
C57	C	-0.986594	-0.000071	-0.130806
C58	C	-0.486594	0.499929	0.369194
N59	N	-0.982117	0.243482	0.113499
N60	N	-0.482117	0.743482	0.613499
C61	C	-1.058602	-0.000060	-0.353080
C62	C	-0.558602	0.499940	0.146920
C63	C	-1.057078	-0.000051	-0.439800
C64	C	-0.557078	0.499949	0.060200
C65	C	-0.905588	-0.000044	-0.419923
C66	C	-0.405588	0.499956	0.080077
C67	C	-0.907113	-0.000045	-0.333204
C68	C	-0.407113	0.499955	0.166796
C69	C	-0.983622	-0.000058	-0.299785
C70	C	-0.483622	0.499942	0.200215
C71	C	-0.980573	-0.000049	-0.473225
C72	C	-0.480573	0.499951	0.026775
C73	C	-0.978920	-0.000039	-0.567251
C74	C	-0.478920	0.499961	-0.067251
C75	C	-0.985276	-0.000066	-0.205754
C76	C	-0.485276	0.499934	0.294246
C77	C	-0.975987	-0.000044	0.265501
C78	C	-0.475987	0.499956	0.765501
C79	C	-0.977602	-0.000036	0.357796
C80	C	-0.477602	0.499964	0.857796
H81	H	-0.542731	-0.000042	0.252306
H82	H	-0.042731	0.499958	0.752306
O83	O	-1.129968	0.000081	-0.491485
O84	O	-0.629968	0.500081	0.008515
C85	C	-1.176416	0.088721	-0.476340
C86	C	-0.676416	0.588721	0.023660
H87	H	-1.155986	0.118267	-0.410547
H88	H	-0.655986	0.618267	0.089453
H89	H	-1.245758	0.068781	-0.482465
H90	H	-0.745758	0.568781	0.017535
H91	H	-1.165065	0.150788	-0.523761
H92	H	-0.665065	0.650788	-0.023761
O93	O	-0.376950	0.000096	0.261267
O94	O	0.123050	0.500096	0.761267
C95	C	-0.326210	0.088740	0.264932
C96	C	0.173790	0.588740	0.764932
H97	H	-0.321844	0.118280	0.198942
H98	H	0.178156	0.618280	0.698942
H99	H	-0.261024	0.068809	0.295921
H100	H	0.238976	0.568809	0.795921
H101	H	-0.354731	0.150809	0.302897
H102	H	0.145269	0.650809	0.802897
H103	H	-1.120900	-0.000068	-0.325874
H104	H	-0.620900	0.499932	0.174126
H105	H	-0.843297	-0.000035	-0.447144
H106	H	-0.343297	0.499965	0.052856
O107	O	-0.834219	0.000092	-0.281513
O108	O	-0.334219	0.500092	0.218487
C109	C	-0.787781	0.088739	-0.296632
C110	C	-0.287781	0.588739	0.203368
H111	H	-0.808210	0.118286	-0.362420
H112	H	-0.308210	0.618286	0.137580
H113	H	-0.718436	0.068810	-0.290506
H114	H	-0.218436	0.568810	0.209494
H115	H	-0.799146	0.150803	-0.249199
H116	H	-0.299146	0.650803	0.250801
O117	O	-0.416072	-0.000019	-0.037247
O118	O	0.083928	0.499981	0.462753
C119	C	-0.328103	-0.000041	-0.022516
C120	C	0.171897	0.499959	0.477484
H121	H	-0.307721	0.032362	0.042374
H122	H	0.192279	0.532362	0.542374
H123	H	-0.301495	0.049643	-0.071464
H124	H	0.198505	0.549643	0.428536
H125	H	-0.303961	-0.082141	-0.026545
H126	H	0.196039	0.417859	0.473455
H127	H	-0.578790	-0.000068	-0.022542
H128	H	-0.078790	0.499932	0.477458
