data_functionalizedCrystal
_audit_creation_method	'MofGen! by Chris Wilmer'
_symmetry_space_group_name_H-M	'P1'
_symmetry_Int_Tables_number	1
_symmetry_cell_setting	triclinic
loop_
_symmetry_equiv_pos_as_xyz
  x,y,z
_cell_length_a	14.519709
_cell_length_b	10.654550
_cell_length_c	9.730223
_cell_angle_alpha	90.004253
_cell_angle_beta	89.997675
_cell_angle_gamma	84.082538
loop_
_atom_site_label
_atom_site_type_symbol
_atom_site_fract_x
_atom_site_fract_y
_atom_site_fract_z
O1	O	-1.224719	-0.164623	-0.114110
O2	O	-0.724719	0.335377	0.385890
O3	O	-0.956343	-0.184009	-0.114152
O4	O	-0.456343	0.315991	0.385848
O5	O	-1.096702	0.008483	-0.114122
O6	O	-0.596702	0.508483	0.385878
O7	O	-1.084361	-0.357114	-0.114141
O8	O	-0.584361	0.142886	0.385859
O9	O	-1.096693	0.008488	0.114458
O10	O	-0.596693	0.508488	0.614458
O11	O	-0.956334	-0.184004	0.114428
O12	O	-0.456334	0.315996	0.614428
O13	O	-1.224710	-0.164617	0.114470
O14	O	-0.724710	0.335383	0.614470
Zn15	Zn	-1.090521	-0.174310	0.150741
Zn16	Zn	-0.590521	0.325690	0.650741
Zn17	Zn	-1.090533	-0.174317	-0.150423
Zn18	Zn	-0.590533	0.325683	0.349577
O19	O	-1.084352	-0.357109	0.114439
O20	O	-0.584352	0.142891	0.614439
C21	C	-0.921974	-0.183103	0.000132
C22	C	-0.421974	0.316897	0.500132
C23	C	-0.819579	-0.180396	0.000116
C24	C	-0.319579	0.319604	0.500116
C25	C	-1.095791	0.055275	0.000167
C26	C	-0.595791	0.555275	0.500167
C27	C	-1.093080	0.194692	0.000165
C28	C	-0.593080	0.694692	0.500165
C29	C	-1.259079	-0.165524	0.000182
C30	C	-0.759079	0.334476	0.500182
C31	C	-1.361475	-0.168231	0.000189
C32	C	-0.861475	0.331769	0.500189
C33	C	-0.444631	-0.170428	0.000179
C34	C	0.055369	0.329572	0.500179
C35	C	-0.548954	-0.173196	0.000162
C36	C	-0.048954	0.326804	0.500162
C37	C	-0.632102	-0.175412	0.000147
C38	C	-0.132102	0.324588	0.500147
C39	C	-0.736431	-0.178180	0.000131
C40	C	-0.236431	0.321820	0.500131
C41	C	-1.085262	-0.403901	0.000147
C42	C	-0.585262	0.096099	0.500147
C43	C	-1.087973	-0.543318	0.000140
C44	C	-0.587973	-0.043318	0.500140
N45	N	-1.090519	-0.174304	0.356277
N46	N	-0.590519	0.325696	0.856277
C47	C	-1.175721	0.274972	0.000177
C48	C	-0.675721	0.774972	0.500177
C49	C	-1.173168	0.405968	0.000160
C50	C	-0.673168	0.905968	0.500160
C51	C	-1.005326	0.376391	0.000124
C52	C	-0.505326	0.876391	0.500124
C53	C	-1.007880	0.245397	0.000131
C54	C	-0.507880	0.745397	0.500131
N55	N	-1.090541	-0.174312	-0.355960
N56	N	-0.590541	0.325688	0.144040
C57	C	-1.152691	-0.089105	0.428216
C58	C	-0.652691	0.410895	0.928216
C59	C	-1.152701	-0.089105	0.572099
C60	C	-0.652701	0.410895	1.072099
C61	C	-1.028363	-0.259516	0.572091
C62	C	-0.528363	0.240484	1.072091
C63	C	-1.028350	-0.259508	0.428210
C64	C	-0.528350	0.240492	0.928210
H65	H	-1.240463	0.471328	0.000167
H66	H	-0.740463	0.971328	0.500167
H67	H	-0.935959	0.417692	0.000099
H68	H	-0.435959	0.917692	0.500099
H69	H	-0.940579	0.180029	0.000117
H70	H	-0.440579	0.680029	0.500117
H71	H	-1.203313	-0.019725	0.369652
H72	H	-0.703313	0.480275	0.869652
H73	H	-0.977747	-0.328889	0.630673
H74	H	-0.477747	0.171111	1.130673
N75	N	-1.267612	0.220283	0.000202
N76	N	-0.767612	0.720283	0.500202
H77	H	-1.256694	0.125117	0.000212
H78	H	-0.756694	0.625117	0.500212
H79	H	-1.303803	0.249653	0.084947
H80	H	-0.803803	0.749653	0.584947
N81	N	-1.219770	0.002777	0.649685
N82	N	-0.719770	0.502777	1.149685
H83	H	-1.184194	0.058502	0.709394
H84	H	-0.684194	0.558502	1.209394
H85	H	-1.259132	0.056657	0.582185
H86	H	-0.759132	0.556657	1.082185
N87	N	-0.961282	-0.351396	0.350606
N88	N	-0.461282	0.148604	0.850606
H89	H	-0.921903	-0.405378	0.418005
H90	H	-0.421903	0.094622	0.918005
H91	H	-0.996929	-0.407022	0.290888
H92	H	-0.496929	0.092978	0.790888
