data_functionalizedCrystal
_audit_creation_method	'MofGen! by Chris Wilmer'
_symmetry_space_group_name_H-M	'P1'
_symmetry_Int_Tables_number	1
_symmetry_cell_setting	triclinic
loop_
_symmetry_equiv_pos_as_xyz
  x,y,z
_cell_length_a	6.817900
_cell_length_b	11.102183
_cell_length_c	17.110486
_cell_angle_alpha	95.183856
_cell_angle_beta	99.060439
_cell_angle_gamma	108.603876
loop_
_atom_site_label
_atom_site_type_symbol
_atom_site_fract_x
_atom_site_fract_y
_atom_site_fract_z
V1	V	-4.002954	-0.175460	-0.246719
O2	O	-3.964064	0.008821	-0.242024
O3	O	-3.980463	-0.348282	-0.245030
O4	O	-3.932385	-0.172590	-0.354322
O5	O	-4.012474	-0.168087	-0.131975
V6	V	-4.486097	-0.153438	-0.232995
O7	O	-4.265045	-0.223767	-0.276824
O8	O	-4.674202	-0.105131	-0.202890
O9	O	-4.285381	0.019384	-0.234683
O10	O	-4.642384	-0.337719	-0.237690
O11	O	-4.593973	-0.160811	-0.347738
O12	O	-4.333459	-0.156308	-0.125391
C13	C	-3.832484	-0.390418	-0.241138
C14	C	-3.895234	-0.531702	-0.240474
C15	C	-3.838655	-0.495646	-0.095540
C16	C	-3.839842	-0.543993	-0.022763
C17	C	-3.898808	-0.676742	-0.022144
C18	C	-3.956597	-0.761149	-0.094309
C19	C	-3.955411	-0.712803	-0.167085
C20	C	-3.896435	-0.580048	-0.167697
C21	C	-4.012004	-0.748858	-0.312018
C22	C	-3.953024	-0.616109	-0.312639
C23	C	-4.069793	-0.833265	-0.384183
C24	C	-4.068593	-0.784918	-0.456961
C25	C	-4.009620	-0.652160	-0.457577
C26	C	-3.951838	-0.567762	-0.385415
C27	C	-3.771155	-0.166304	-0.380549
C28	C	-3.794913	-0.165101	-0.468515
C29	C	-3.988312	-0.170879	-0.513873
C30	C	-4.010622	-0.169748	-0.596527
C31	C	-3.839536	-0.162848	-0.633821
C32	C	-3.646119	-0.157066	-0.588457
C33	C	-3.623807	-0.158188	-0.505804
C34	C	-3.897783	-0.159135	-0.883176
C35	C	-3.920113	-0.158017	-0.965835
C36	C	-4.284615	-0.170697	-0.973899
C37	C	-4.262288	-0.171826	-0.891245
C38	C	-4.068872	-0.166037	-0.845887
C39	C	-3.862338	-0.161696	-0.718307
C40	C	-4.046068	-0.167180	-0.761403
C41	C	-4.096703	0.061513	-0.238574
C42	C	-4.013190	0.202795	-0.239242
C43	C	-4.158032	-0.162599	-0.099160
C44	C	-4.113512	-0.163795	-0.011193
H45	H	-3.790580	-0.387551	-0.096035
Cl46	Cl	-4.203413	-0.179562	-0.466998
H47	H	-3.903786	-0.459667	-0.385909
Cl48	Cl	-3.900312	-0.737525	0.069346
Cl49	Cl	-3.654650	-0.151892	-0.826169
Cl50	Cl	-4.141258	-0.891033	-0.547672
Cl51	Cl	-4.253771	-0.177029	-0.653546
H52	H	-3.792790	-0.475255	0.035992
Cl53	Cl	-3.431037	-0.148393	-0.635342
Cl54	Cl	-4.477384	-0.180505	-0.844367
Cl55	Cl	-4.527751	-0.177968	-1.030924
Cl56	Cl	-4.030766	-0.928036	-0.093529
H57	H	-3.780781	-0.152395	-0.996197
H58	H	-3.466308	-0.153451	-0.468872
Cl59	Cl	-4.261139	-0.175853	-0.714517
H60	H	-4.117817	-0.941355	-0.383674
Cl61	Cl	-4.008153	-0.591395	-0.549073
Cl62	Cl	-3.647277	-0.153042	-0.765200
