data_functionalizedCrystal
_audit_creation_method	'MofGen! by Chris Wilmer'
_symmetry_space_group_name_H-M	'P1'
_symmetry_Int_Tables_number	1
_symmetry_cell_setting	triclinic
loop_
_symmetry_equiv_pos_as_xyz
  x,y,z
_cell_length_a	10.654550
_cell_length_b	10.654551
_cell_length_c	9.730223
_cell_angle_alpha	89.998425
_cell_angle_beta	89.993189
_cell_angle_gamma	84.485132
loop_
_atom_site_label
_atom_site_type_symbol
_atom_site_fract_x
_atom_site_fract_y
_atom_site_fract_z
O1	O	1.667840	0.176398	-0.114394
O2	O	1.302361	0.193204	-0.114371
O3	O	1.493503	0.002062	-0.114383
O4	O	1.476698	0.367540	-0.114381
O5	O	1.493491	0.002057	0.114197
O6	O	1.302349	0.193199	0.114209
O7	O	1.667827	0.176393	0.114186
Zn8	Zn	1.485086	0.184795	0.150490
Zn9	Zn	1.485103	0.184802	-0.150674
O10	O	1.476686	0.367535	0.114199
C11	C	1.255557	0.191968	-0.000078
C12	C	1.116114	0.188276	-0.000069
C13	C	1.036629	0.300817	-0.000089
C14	C	0.905608	0.297341	-0.000113
C15	C	0.933570	0.068771	-0.000104
C16	C	1.064589	0.072249	-0.000070
C17	C	1.020484	0.432780	-0.000100
C18	C	0.889463	0.429304	-0.000124
C19	C	1.492263	-0.044739	-0.000096
C20	C	1.488570	-0.184182	-0.000105
C21	C	1.486845	-0.249691	-0.124702
C22	C	1.483364	-0.380711	-0.124695
C23	C	1.483341	-0.380702	0.124515
C24	C	1.486812	-0.249683	0.124507
C25	C	1.486864	-0.249698	-0.268582
C26	C	1.483384	-0.380718	-0.268575
C27	C	1.714632	0.177629	-0.000109
C28	C	1.854075	0.181321	-0.000127
C29	C	1.477926	0.414336	-0.000091
C30	C	1.481619	0.553779	-0.000091
N31	N	1.485084	0.184790	0.356026
N32	N	1.485114	0.184798	-0.356211
C33	C	1.569751	0.100188	0.427946
C34	C	1.569763	0.100188	0.571829
C35	C	1.400439	0.269403	0.571859
C36	C	1.400421	0.269396	0.427979
H37	H	1.129302	-0.019393	-0.000034
H38	H	1.400077	-0.203415	-0.323826
N39	N	0.878003	-0.056370	-0.000119
H40	H	0.906895	-0.105725	0.084623
H41	H	0.782952	-0.041400	-0.000192
H42	H	1.049810	0.484388	0.095566
H43	H	0.847736	0.479027	-0.095791
N44	N	1.608198	-0.210530	-0.327721
H45	H	1.617756	-0.240960	-0.425812
H46	H	1.606252	-0.115594	-0.325475
N47	N	1.488657	-0.179022	0.258892
H48	H	1.487021	-0.240402	0.337829
H49	H	1.567817	-0.134167	0.264320
H50	H	1.056145	0.474801	-0.098787
N51	N	1.481457	-0.451352	0.258913
H52	H	1.478997	-0.544294	0.240015
H53	H	1.559783	-0.437952	0.313312
N54	N	1.309094	0.360657	0.350410
H55	H	1.357555	0.416709	0.290691
H56	H	1.253087	0.312049	0.290818
H57	H	1.391790	-0.410284	-0.313227
H58	H	0.843786	0.469182	0.098561
H59	H	1.570178	-0.427008	-0.323824
H60	H	1.638687	0.031295	0.369366
N61	N	1.661099	0.008957	0.649402
H62	H	1.714733	-0.044631	0.581984
H63	H	1.717029	0.057582	0.709069
N64	N	1.309128	0.360654	0.649465
H65	H	1.321986	0.347825	0.751527
H66	H	1.324399	0.449886	0.624300
