data_functionalizedCrystal
_audit_creation_method	'MofGen! by Chris Wilmer'
_symmetry_space_group_name_H-M	'P1'
_symmetry_Int_Tables_number	1
_symmetry_cell_setting	triclinic
loop_
_symmetry_equiv_pos_as_xyz
  x,y,z
_cell_length_a	14.519709
_cell_length_b	17.699083
_cell_length_c	16.776229
_cell_angle_alpha	89.995692
_cell_angle_beta	89.999854
_cell_angle_gamma	83.481580
loop_
_atom_site_label
_atom_site_type_symbol
_atom_site_fract_x
_atom_site_fract_y
_atom_site_fract_z
O1	O	-1.223448	-0.099212	0.066186
O2	O	-0.954921	-0.110896	0.066211
O3	O	-1.096771	0.005114	0.066191
O4	O	-1.081598	-0.215221	0.066206
O5	O	-1.096755	0.005114	-0.066386
O6	O	-0.954905	-0.110895	-0.066366
O7	O	-1.223432	-0.099212	-0.066390
Zn8	Zn	-1.089166	-0.105053	-0.087428
Zn9	Zn	-1.089187	-0.105054	0.087248
O10	O	-1.081582	-0.215221	-0.066370
C11	C	-1.096219	0.033312	-0.000098
C12	C	-1.094588	0.117335	-0.000098
C13	C	-0.920556	-0.110351	-0.000075
C14	C	-0.818181	-0.108719	-0.000065
C15	C	-1.257797	-0.099756	-0.000104
C16	C	-1.360171	-0.101388	-0.000107
C17	C	-0.443311	-0.102712	-0.000102
C18	C	-0.547612	-0.104380	-0.000092
C19	C	-0.630743	-0.105716	-0.000083
C20	C	-0.735050	-0.107384	-0.000074
C21	C	-1.082134	-0.243420	-0.000080
C22	C	-1.083765	-0.327442	-0.000075
N23	N	-1.089158	-0.105053	-0.206639
C24	C	-1.177851	0.165718	-0.000107
C25	C	-1.176313	0.244665	-0.000099
C26	C	-1.091511	0.275229	-0.000089
C27	C	-1.008242	0.226840	-0.000078
C28	C	-1.009781	0.147894	-0.000080
C29	C	-1.002033	0.545221	-0.000071
C30	C	-1.000501	0.624173	-0.000072
C31	C	-1.168566	0.641992	-0.000091
C32	C	-1.170105	0.563046	-0.000092
C33	C	-1.086836	0.514664	-0.000077
C34	C	-1.088505	0.429060	-0.000083
C35	C	-1.089841	0.360831	-0.000089
C36	C	-1.144983	-0.151061	-0.248354
C37	C	-1.144993	-0.151058	-0.331807
C38	C	-1.089173	-0.105050	-0.373542
C39	C	-1.033346	-0.059037	-0.331820
C40	C	-1.033342	-0.059036	-0.248370
C41	C	-1.033365	-0.059038	-0.668367
C42	C	-1.033372	-0.059044	-0.751824
C43	C	-1.145016	-0.151060	-0.751804
C44	C	-1.145012	-0.151059	-0.668354
C45	C	-1.089189	-0.105043	-0.626640
C46	C	-1.089180	-0.105045	-0.536151
C47	C	-1.089177	-0.105051	-0.464028
N48	N	-1.089202	-0.105049	0.206459
H49	H	-1.246907	0.140840	-0.000120
H50	H	-0.987914	-0.021576	-0.785802
H51	H	-1.244114	0.284056	-0.000108
C52	C	-0.916143	0.259980	0.000100
C53	C	-0.865839	0.235412	0.068324
C54	C	-0.780998	0.265932	0.068518
H55	H	-0.881747	0.243404	-0.046074
H56	H	-0.927112	0.313930	0.000141
H57	H	-0.854867	0.181474	0.068276
H58	H	-0.900207	0.251987	0.114509
H59	H	-0.791967	0.319882	0.068559
H60	H	-0.746610	0.249353	0.022342
H61	H	-0.746860	0.249273	0.114811
C62	C	-0.919409	0.095324	0.000093
C63	C	-0.915385	0.049491	0.068312
C64	C	-0.832141	0.001062	0.068507
H65	H	-0.916420	0.064086	-0.046084
H66	H	-0.868656	0.124804	0.000141
H67	H	-0.966124	0.020013	0.068256
H68	H	-0.918358	0.080708	0.114500
H69	H	-0.781388	0.030542	0.068556
H70	H	-0.829159	-0.030170	0.022327
H71	H	-0.829395	-0.030036	0.114796
C72	C	-1.262270	0.530010	-0.000062
C73	C	-1.334862	0.589281	-0.000046
C74	C	-1.419779	0.558878	-0.000003
H75	H	-1.266491	0.499598	-0.046282
H76	H	-1.266416	0.499603	0.046189
H77	H	-1.330718	0.619675	-0.046292
H78	H	-1.330671	0.619698	0.046171
H79	H	-1.423925	0.528471	0.046248
H80	H	-1.423990	0.528466	-0.046224
H81	H	-1.469042	0.599088	0.000015
C82	C	-0.972652	-0.009060	-0.623229
C83	C	-0.923750	0.031211	-0.677643
C84	C	-0.867799	0.077252	-0.636087
H85	H	-1.010420	0.025770	-0.590674
H86	H	-0.930089	-0.039982	-0.590690
H87	H	-0.966308	0.062131	-0.710168
H88	H	-0.885965	-0.003599	-0.710199
H89	H	-0.825236	0.046329	-0.603549
H90	H	-0.905574	0.112077	-0.603534
H91	H	-0.834606	0.104576	-0.673001
H92	H	-1.190453	-0.188522	-0.365768
H93	H	-1.236367	0.681395	-0.000099
C94	C	-0.911656	0.492666	0.000104
C95	C	-0.907619	0.446833	0.068324
C96	C	-0.824367	0.398415	0.068518
H97	H	-0.908662	0.461428	-0.046072
H98	H	-0.860910	0.522154	0.000151
H99	H	-0.958352	0.417347	0.068270
H100	H	-0.910598	0.478051	0.114512
H101	H	-0.773621	0.427903	0.068564
H102	H	-0.821381	0.367182	0.022338
H103	H	-0.821614	0.367317	0.114808
C104	C	-1.205688	-0.201039	-0.203190
C105	C	-1.254597	-0.241315	-0.257589
C106	C	-1.310540	-0.287353	-0.216015
H107	H	-1.167915	-0.235866	-0.170631
H108	H	-1.248247	-0.170115	-0.170654
H109	H	-1.212043	-0.272236	-0.290111
H110	H	-1.292387	-0.206507	-0.290149
H111	H	-1.353100	-0.256430	-0.183479
H112	H	-1.272761	-0.322176	-0.183458
H113	H	-1.343739	-0.314680	-0.252918
H114	H	-0.931441	0.649055	-0.000065
H115	H	-1.190463	-0.188526	-0.634377
H116	H	-0.987901	-0.021573	-0.365808
H117	H	-1.190472	-0.188527	-0.785778
H118	H	-0.987883	-0.021571	-0.214406
