data_functionalizedCrystal
_audit_creation_method	'MofGen! by Chris Wilmer'
_symmetry_space_group_name_H-M	'P1'
_symmetry_Int_Tables_number	1
_symmetry_cell_setting	triclinic
loop_
_symmetry_equiv_pos_as_xyz
  x,y,z
_cell_length_a	27.732048
_cell_length_b	19.288865
_cell_length_c	26.210047
_cell_angle_alpha	90.009860
_cell_angle_beta	90.010925
_cell_angle_gamma	82.889452
loop_
_atom_site_label
_atom_site_type_symbol
_atom_site_fract_x
_atom_site_fract_y
_atom_site_fract_z
O1	O	-0.641185	-0.082647	-0.042369
O2	O	-0.500430	-0.095213	-0.042385
O3	O	-0.574875	0.012226	-0.042367
O4	O	-0.566740	-0.190086	-0.042388
O5	O	-0.574851	0.012226	0.042492
O6	O	-0.500406	-0.095213	0.042473
O7	O	-0.641162	-0.082647	0.042489
Cu8	Cu	-0.570782	-0.088930	0.050229
Cu9	Cu	-0.570810	-0.088930	-0.050125
O10	O	-0.566717	-0.190086	0.042470
C11	C	-0.574601	0.038100	0.000064
C12	C	-0.573816	0.115199	0.000068
C13	C	-0.482410	-0.094950	0.000042
C14	C	-0.428753	-0.094155	0.000036
C15	C	-0.659181	-0.082910	0.000061
C16	C	-0.712839	-0.083705	0.000063
C17	C	-0.090115	-0.152644	0.000052
C18	C	0.111554	-0.149697	0.000057
O19	O	0.142648	-0.203181	0.000073
N20	N	0.130870	-0.085990	0.000063
C21	C	0.099766	-0.023015	0.000071
O22	O	0.120823	0.031239	0.000081
C23	C	-0.101902	-0.025963	0.000069
C24	C	-0.121215	-0.089674	0.000058
C25	C	-0.109428	-0.216350	0.000042
C26	C	-0.159843	-0.217086	0.000038
C27	C	-0.190943	-0.154116	0.000044
C28	C	-0.171629	-0.090410	0.000054
C29	C	-0.133005	0.037011	0.000081
C30	C	-0.183425	0.036268	0.000082
C31	C	-0.202738	-0.027443	0.000071
C32	C	-0.253144	-0.028177	0.000057
N33	N	-0.272460	-0.091884	0.000051
C34	C	-0.241360	-0.154853	0.000045
C35	C	0.205644	-0.021472	0.000070
C36	C	0.256061	-0.020735	0.000070
C37	C	0.267846	-0.147417	0.000057
C38	C	0.217428	-0.148153	0.000054
C39	C	0.186328	-0.085179	0.000064
C40	C	-0.347234	-0.156395	0.000036
C41	C	-0.397653	-0.157125	0.000030
C42	C	-0.409433	-0.030444	0.000045
C43	C	-0.359018	-0.029713	0.000049
C44	C	-0.327919	-0.092694	0.000046
O45	O	-0.284266	0.025278	0.000046
O46	O	-0.262426	-0.209100	0.000046
C47	C	-0.039701	-0.151908	0.000056
C48	C	-0.020387	-0.088202	0.000066
C49	C	-0.051487	-0.025232	0.000073
C50	C	0.030030	-0.087465	0.000066
C51	C	0.061130	-0.150435	0.000059
C52	C	0.041814	-0.214142	0.000054
C53	C	-0.008600	-0.214878	0.000050
C54	C	-0.032171	0.038475	0.000079
C55	C	0.018244	0.039206	0.000082
C56	C	0.049344	-0.023764	0.000076
C57	C	-0.566990	-0.215961	0.000039
C58	C	-0.567776	-0.293059	0.000031
N59	N	-0.570766	-0.088930	0.120813
C60	C	-0.617496	0.160168	0.000076
C61	C	-0.616758	0.232610	0.000068
C62	C	-0.572337	0.260081	0.000062
C63	C	-0.528650	0.215102	0.000052
C64	C	-0.529390	0.142661	0.000055
C65	C	-0.537408	0.368150	0.029782
C66	C	-0.536671	0.440590	0.029782
C67	C	-0.570054	0.483512	0.000051
C68	C	-0.604184	0.453987	-0.029675
C69	C	-0.604924	0.381546	-0.029672
C70	C	-0.571530	0.338630	0.000059
C71	C	-0.612938	0.607032	0.000049
C72	C	-0.612198	0.679475	0.000037
C73	C	-0.524089	0.661966	0.000027
C74	C	-0.524830	0.589524	0.000033
C75	C	-0.569256	0.562062	0.000046
N76	N	-0.570829	-0.088925	-0.120709
C77	C	-0.600028	-0.130760	0.473326
C78	C	-0.600042	-0.130760	0.686985
O79	O	-0.624911	-0.166318	0.714606
N80	N	-0.570821	-0.088923	0.713707
C81	C	-0.541597	-0.047080	0.687011
O82	O	-0.516746	-0.011490	0.714643
C83	C	-0.541585	-0.047077	0.473354
C84	C	-0.570805	-0.088922	0.446634
C85	C	-0.629245	-0.172601	0.446607
C86	C	-0.629240	-0.172604	0.393195
C87	C	-0.600016	-0.130766	0.366503
C88	C	-0.570799	-0.088925	0.393223
C89	C	-0.512364	-0.005231	0.446659
C90	C	-0.512365	-0.005232	0.393241
C91	C	-0.541584	-0.047077	0.366522
C92	C	-0.541570	-0.047089	0.313119
N93	N	-0.570791	-0.088926	0.286397
C94	C	-0.600014	-0.130764	0.313089
C95	C	-0.541604	-0.047085	0.799185
C96	C	-0.541606	-0.047087	0.852599
C97	C	-0.600053	-0.130766	0.852569
C98	C	-0.600047	-0.130768	0.799153
C99	C	-0.570825	-0.088922	0.772462
C100	C	-0.599999	-0.130767	0.200921
C101	C	-0.599989	-0.130768	0.147505
C102	C	-0.541545	-0.047086	0.147540
C103	C	-0.541553	-0.047088	0.200951
C104	C	-0.570784	-0.088930	0.227641
O105	O	-0.516719	-0.011543	0.285465
O106	O	-0.624869	-0.166337	0.285448
C107	C	-0.600034	-0.130758	0.526738
C108	C	-0.570816	-0.088917	0.553457
C109	C	-0.541593	-0.047079	0.526765
C110	C	-0.570819	-0.088918	0.606871
C111	C	-0.600042	-0.130757	0.633563
C112	C	-0.629263	-0.172593	0.606841
C113	C	-0.629257	-0.172596	0.553429
C114	C	-0.512372	-0.005242	0.553488
C115	C	-0.512380	-0.005243	0.606899
C116	C	-0.541603	-0.047081	0.633591
H117	H	-0.413374	-0.209008	0.000021
H118	H	-0.632712	0.357510	-0.053876
C119	C	-0.664809	0.282085	0.000080
H120	H	-0.691373	0.255354	0.000091
H121	H	-0.666363	0.310704	-0.029511
H122	H	-0.666338	0.310711	0.029676
H123	H	-0.117290	0.088891	0.000090
C124	C	-0.509402	-0.001066	0.118174
H125	H	-0.491997	0.023854	0.141735
H126	H	-0.529282	0.031093	0.097336
H127	H	-0.487091	-0.029755	0.097341
H128	H	-0.488571	0.028845	0.468405
C129	C	-0.661403	-0.218620	0.524045
H130	H	-0.678809	-0.243528	0.547598
H131	H	-0.641528	-0.250787	0.503208
H132	H	-0.683713	-0.189931	0.503208
H133	H	-0.488568	0.028845	0.371512
H134	H	0.201707	-0.200032	0.000048
H135	H	0.067145	-0.265414	0.000046
C136	C	-0.640906	0.501191	-0.062385
H137	H	-0.635575	0.548562	-0.058136
H138	H	-0.673006	0.495680	-0.051930
H139	H	-0.636784	0.488459	-0.097272
C140	C	-0.661386	-0.218627	0.363810
H141	H	-0.678792	-0.243535	0.387363
H142	H	-0.641512	-0.250794	0.342973
H143	H	-0.683696	-0.189937	0.342974
H144	H	-0.175562	-0.268966	0.000029
H145	H	-0.487920	0.684331	0.000020
H146	H	-0.488581	0.028830	0.628649
H147	H	-0.321918	-0.207680	0.000035
H148	H	-0.623845	-0.164835	0.874310
H149	H	-0.647770	0.716089	0.000041
H150	H	-0.488575	0.028830	0.531760
H151	H	-0.343293	0.022166	0.000050
H152	H	-0.489260	0.552909	0.000029
C153	C	-0.443647	0.038819	0.000049
H154	H	-0.424927	0.076871	0.000051
H155	H	-0.463557	0.041161	0.029640
H156	H	-0.463562	0.041161	-0.029548
H157	H	-0.517754	-0.013023	0.222708
H158	H	-0.649112	0.584671	0.000057
H159	H	-0.024320	-0.266758	0.000042
C160	C	0.039485	0.109291	0.000091
H161	H	0.073966	0.100718	0.000089
H162	H	0.028801	0.135193	0.029685
H163	H	0.028796	0.135193	-0.029503
C164	C	0.277303	0.049345	0.000072
H165	H	0.311783	0.040772	0.000067
H166	H	0.266622	0.075251	0.029666
H167	H	0.266611	0.075244	-0.029521
C168	C	-0.661409	-0.218613	0.636209
H169	H	-0.657226	-0.212610	0.671846
H170	H	-0.652326	-0.266230	0.627456
H171	H	-0.694510	-0.205374	0.627449
H172	H	-0.510222	0.333208	0.053996
C173	C	-0.066375	0.107745	0.000081
H174	H	-0.047646	0.145787	0.000081
H175	H	-0.086287	0.110101	0.029670
H176	H	-0.086288	0.110091	-0.029517
H177	H	0.293177	-0.198689	0.000052
C178	C	-0.499131	0.473062	0.062478
H179	H	-0.479348	0.437125	0.080179
H180	H	-0.515544	0.504647	0.086387
H181	H	-0.479331	0.497438	0.041036
C182	C	-0.217632	0.105541	0.000088
H183	H	-0.198906	0.143586	0.000090
H184	H	-0.237543	0.107892	0.029677
H185	H	-0.237546	0.107887	-0.029510
H186	H	-0.492482	0.237473	0.000046
C187	C	-0.481340	0.093191	0.000048
H188	H	-0.488143	0.046114	0.000048
H189	H	-0.463107	0.101473	0.029635
H190	H	-0.463129	0.101457	-0.029553
H191	H	-0.623783	-0.164846	0.125752
H192	H	-0.623802	-0.164838	0.222645
C193	C	-0.632194	-0.176788	0.769767
H194	H	-0.649599	-0.201700	0.793318
H195	H	-0.612320	-0.208953	0.748927
H196	H	-0.654505	-0.148097	0.748932
H197	H	-0.653672	0.137813	0.000085
C198	C	-0.509460	-0.001064	0.881985
H199	H	-0.492060	0.023855	0.858433
H200	H	-0.487152	-0.029746	0.902824
H201	H	-0.529341	0.031104	0.902820
C202	C	-0.509453	-0.001059	0.769831
H203	H	-0.492049	0.023848	0.793400
H204	H	-0.529324	0.031110	0.748992
H205	H	-0.487141	-0.029748	0.748998
H206	H	-0.653045	-0.206671	0.468333
H207	H	-0.084111	-0.267630	0.000038
H208	H	0.180326	0.029812	0.000079
