data_functionalizedCrystal
_audit_creation_method	'MofGen! by Chris Wilmer'
_symmetry_space_group_name_H-M	'P1'
_symmetry_Int_Tables_number	1
_symmetry_cell_setting	triclinic
loop_
_symmetry_equiv_pos_as_xyz
  x,y,z
_cell_length_a	16.992694
_cell_length_b	16.992695
_cell_length_c	16.053802
_cell_angle_alpha	92.741074
_cell_angle_beta	87.249047
_cell_angle_gamma	90.668223
loop_
_atom_site_label
_atom_site_type_symbol
_atom_site_fract_x
_atom_site_fract_y
_atom_site_fract_z
O1	O	1.053959	0.163815	-0.069325
O2	O	0.825560	0.161983	-0.069350
O3	O	0.938844	0.048699	-0.069331
O4	O	0.940676	0.277099	-0.069344
O5	O	0.932607	0.054907	0.069527
O6	O	0.819323	0.168191	0.069508
O7	O	1.047722	0.170023	0.069533
Zn8	Zn	0.932532	0.170093	0.091567
Zn9	Zn	0.940750	0.161913	-0.091384
O10	O	0.934438	0.283307	0.069514
C11	C	0.793082	0.162731	0.000076
C12	C	0.705597	0.155702	0.000067
C13	C	0.659607	0.223520	0.000064
C14	C	0.577405	0.216911	0.000076
C15	C	0.541197	0.142484	0.000085
C16	C	0.587193	0.074661	0.000091
C17	C	0.669393	0.081270	0.000085
C18	C	0.295881	0.115090	0.000109
C19	C	0.213676	0.108486	0.000112
C20	C	0.203893	0.250737	0.000099
C21	C	0.286095	0.257339	0.000088
C22	C	0.332084	0.189517	0.000098
N23	N	0.457174	0.135727	0.000094
N24	N	0.416105	0.196275	0.000094
C25	C	0.933370	0.022443	0.000098
C26	C	0.926341	-0.065042	0.000097
C27	C	0.994158	-0.111032	0.000105
C28	C	0.987550	-0.193233	0.000096
C29	C	0.913123	-0.229442	0.000086
C30	C	0.845300	-0.183446	0.000075
C31	C	0.851910	-0.101246	0.000078
C32	C	0.885729	-0.474757	0.000071
C33	C	0.879124	-0.556962	0.000071
C34	C	1.021375	-0.566745	0.000091
C35	C	1.027978	-0.484543	0.000099
C36	C	0.960155	-0.438554	0.000083
N37	N	0.906366	-0.313465	0.000079
N38	N	0.966913	-0.354533	0.000084
C39	C	1.080201	0.169275	0.000105
C40	C	1.167685	0.176304	0.000109
C41	C	0.939913	0.309563	0.000084
C42	C	0.946942	0.397047	0.000079
N43	N	0.926930	0.175675	0.216427
N44	N	0.946358	0.156325	-0.216243
C45	C	0.975152	0.127492	0.260129
C46	C	0.971241	0.131404	0.347535
C47	C	0.919110	0.183504	0.391237
C48	C	0.870883	0.231689	0.347529
C49	C	0.874791	0.227772	0.260125
C50	C	0.902039	0.200593	0.652644
C51	C	0.898136	0.204508	0.740055
C52	C	0.998493	0.104222	0.740054
C53	C	1.002400	0.100313	0.652648
C54	C	0.954169	0.148494	0.608948
N55	N	0.915113	0.187507	0.480580
N56	N	0.958163	0.144487	0.519606
H57	H	0.315571	0.317945	0.000071
O58	O	1.052809	0.049624	0.609974
C59	C	1.106287	0.092286	0.559118
H60	H	1.110832	0.155593	0.585444
H61	H	1.166723	0.063699	0.557770
H62	H	1.084551	0.092062	0.493018
O63	O	0.786062	-0.056541	-0.000076
C64	C	0.788872	-0.011898	-0.071982
H65	H	0.829500	-0.041692	-0.122241
H66	H	0.727127	-0.007714	-0.096131
H67	H	0.812260	0.049810	-0.055720
H68	H	0.784700	-0.212933	0.000061
H69	H	0.166440	0.305954	0.000092
O70	O	0.820200	0.282192	0.390073
C71	C	0.766726	0.239227	0.440632
H72	H	0.793637	0.180198	0.453732
H73	H	0.753585	0.274050	0.502092
H74	H	0.709718	0.228689	0.406959
H75	H	0.706838	0.026046	0.000087
O76	O	1.018173	0.084578	0.389857
C77	C	1.065016	0.037748	0.332542
H78	H	1.070700	0.067285	0.270229
H79	H	1.126003	0.030862	0.357785
H80	H	1.036224	-0.022770	0.323264
H81	H	0.830503	-0.437322	0.000059
H82	H	0.862769	0.239826	0.617070
H83	H	1.042774	-0.230676	0.000105
O84	O	1.045256	0.057447	0.782635
C85	C	1.030646	0.072087	0.869151
H86	H	0.969372	0.098087	0.881095
H87	H	1.034185	0.014513	0.902377
H88	H	1.076567	0.115496	0.893942
O89	O	1.025667	0.076806	0.217606
C90	C	0.982698	0.023300	0.167105
H91	H	0.923669	0.050200	0.153994
H92	H	1.017519	0.010119	0.105649
H93	H	0.972162	-0.033684	0.200836
O94	O	0.847417	0.255131	0.782380
C95	C	0.805695	0.296829	0.725067
H96	H	0.805575	0.261710	0.662765
H97	H	0.742452	0.305979	0.750331
H98	H	0.835318	0.356514	0.715761
O99	O	0.340579	0.049241	0.000256
C100	C	0.385215	0.052028	0.072157
H101	H	0.355417	0.092641	0.122425
H102	H	0.389396	-0.009725	0.096296
H103	H	0.446926	0.075418	0.055893
O104	O	0.532849	0.282868	0.000034
C105	C	0.582433	0.349976	0.000041
H106	H	0.643638	0.332658	-0.026253
H107	H	0.557064	0.396007	-0.040275
H108	H	0.586693	0.375530	0.066655
H109	H	0.835522	0.267007	0.224543
H110	H	1.088584	-0.455068	0.000108
O111	O	1.087237	-0.611460	-0.000050
C112	C	1.090889	-0.662522	-0.071958
H113	H	1.054775	-0.637218	-0.122224
H114	H	1.154803	-0.668859	-0.096093
H115	H	1.066044	-0.722780	-0.055703
O116	O	0.694905	0.295757	0.000015
C117	C	0.777318	0.287053	0.000029
H118	H	0.793928	0.225655	-0.026255
H119	H	0.807235	0.333185	-0.040293
H120	H	0.797432	0.295281	0.066643
O121	O	0.178626	0.036124	0.000157
C122	C	0.236844	-0.022323	0.000143
H123	H	0.292827	0.004410	0.026432
H124	H	0.214704	-0.072172	0.040460
H125	H	0.250077	-0.046468	-0.066473
O126	O	0.552054	0.002350	0.000246
C127	C	0.571912	-0.036097	0.072152
H128	H	0.589391	0.009583	0.122415
H129	H	0.518994	-0.071628	0.096293
H130	H	0.623406	-0.077333	0.055893
O131	O	1.066520	-0.075991	0.000076
C132	C	1.124959	-0.134213	0.000100
H133	H	1.100574	-0.192547	-0.026191
H134	H	1.178421	-0.115688	-0.040212
H135	H	1.143135	-0.141486	0.066718
O136	O	0.806763	-0.592012	0.000014
C137	C	0.748317	-0.533795	0.000019
H138	H	0.775059	-0.477807	-0.026263
H139	H	0.698482	-0.555927	-0.040310
H140	H	0.724147	-0.520576	0.066630
