data_functionalizedCrystal
_audit_creation_method	'MofGen! by Chris Wilmer'
_symmetry_space_group_name_H-M	'P1'
_symmetry_Int_Tables_number	1
_symmetry_cell_setting	triclinic
loop_
_symmetry_equiv_pos_as_xyz
  x,y,z
_cell_length_a	15.297327
_cell_length_b	15.298093
_cell_length_c	15.296720
_cell_angle_alpha	69.231252
_cell_angle_beta	72.680778
_cell_angle_gamma	88.412518
loop_
_atom_site_label
_atom_site_type_symbol
_atom_site_fract_x
_atom_site_fract_y
_atom_site_fract_z
Zn1	Zn	-0.637848	1.197076	0.413071
Zn2	Zn	-0.766454	1.196974	0.284480
Zn3	Zn	-0.593378	1.077803	0.275201
Zn4	Zn	-0.766393	1.014634	0.466849
O5	O	-0.691018	1.121622	0.359900
O6	O	-0.673544	1.323289	0.377390
O7	O	-0.724910	1.207560	0.149228
O8	O	-0.473047	1.120105	0.267099
O9	O	-0.768031	1.323214	0.282915
O10	O	-0.505719	1.207734	0.368392
O11	O	-0.597751	1.120005	0.142410
O12	O	-0.597692	0.943198	0.319246
O13	O	-0.767927	1.012441	0.593737
O14	O	-0.724806	0.896787	0.460049
O15	O	-0.673485	1.146481	0.554226
O16	O	-0.892676	1.146306	0.335062
O17	O	-0.892631	1.012342	0.469048
C18	C	-0.656417	0.887263	0.394477
C19	C	-0.641640	0.786994	0.409297
C20	C	-0.925390	1.072479	0.408915
C21	C	-1.025672	1.051531	0.429903
C22	C	-1.308371	1.271644	0.210165
C23	C	-1.214150	1.291326	0.190440
C24	C	-1.167026	1.231379	0.250304
C25	C	-1.214132	1.151747	0.329896
C26	C	-1.308360	1.132059	0.349618
C27	C	-1.167015	1.091794	0.389758
C28	C	-1.214121	1.012162	0.469349
C29	C	-1.308340	0.992478	0.489068
C30	C	-1.355464	1.052425	0.429204
C31	C	-1.072787	1.111482	0.370036
C32	C	-1.072776	0.971897	0.509489
C33	C	-1.166997	0.952215	0.529213
C34	C	-0.725660	1.072426	0.609703
C35	C	-0.740422	1.051462	0.716154
C36	C	-0.455738	1.170977	0.310712
C37	C	-0.355475	1.192010	0.289751
C38	C	-0.725755	1.356896	0.325189
C39	C	-0.740558	1.457155	0.310397
C40	C	-0.585490	1.739934	0.465435
C41	C	-0.571579	1.645736	0.479333
C42	C	-0.613823	1.598586	0.437101
C43	C	-0.669979	1.645644	0.380967
C44	C	-0.683885	1.739854	0.367061
C45	C	-0.712218	1.598506	0.338727
C46	C	-0.768375	1.645564	0.282593
C47	C	-0.782279	1.739764	0.268690
C48	C	-0.740035	1.786914	0.310923
C49	C	-0.698312	1.504296	0.352633
C50	C	-0.796708	1.504215	0.254259
C51	C	-0.810618	1.598414	0.240361
C52	C	-0.656454	1.170692	0.111048
C53	C	-0.641464	1.191884	0.004518
C54	C	-0.585358	1.271523	0.933939
C55	C	-0.571491	1.291226	0.833922
C56	C	-0.613722	1.231286	0.804475
C57	C	-0.669824	1.151641	0.875055
C58	C	-0.683698	1.131941	0.975082
C59	C	-0.712062	1.091704	0.845618
C60	C	-0.768163	1.012059	0.916198
C61	C	-0.782035	0.992362	1.016214
C62	C	-0.739804	1.052302	1.045661
C63	C	-0.698187	1.111405	0.745591
C64	C	-0.796527	0.971822	0.786734
C65	C	-0.810394	0.952120	0.886751
H66	H	-1.034442	1.176319	0.305231
Br67	Br	-0.594944	1.470742	0.455965
H68	H	-0.856073	0.887272	0.944230
Br69	Br	-1.150230	1.399399	0.082435
H70	H	-0.827997	1.778080	0.222973
H71	H	-1.346746	1.320440	0.161427
Br72	Br	-1.039234	1.258306	0.223784
H73	H	-0.652508	1.176252	0.688134
Br74	Br	-1.483220	1.025397	0.455600
H75	H	-0.751372	1.863613	0.299624
Br76	Br	-1.372266	0.884401	0.597079
H77	H	-1.205364	0.887378	0.594017
H78	H	-0.652587	1.465991	0.398336
Br79	Br	-0.528157	1.803929	0.522734
Br80	Br	-1.008828	0.890529	0.590730
Br81	Br	-0.495371	1.581877	0.555512
H82	H	-0.856342	1.636742	0.194656
H83	H	-0.751092	1.036264	1.127101
Br84	Br	-0.854035	1.440237	0.196932
Br85	Br	-0.594900	1.258025	0.668735
H86	H	-0.525816	1.356074	0.776463
H87	H	-0.550986	1.320321	0.957926
Br88	Br	-0.858194	0.884288	1.112001
H89	H	-0.830917	0.923016	0.762760
