data_functionalizedCrystal
_audit_creation_method	'MofGen! by Chris Wilmer'
_symmetry_space_group_name_H-M	'P1'
_symmetry_Int_Tables_number	1
_symmetry_cell_setting	triclinic
loop_
_symmetry_equiv_pos_as_xyz
  x,y,z
_cell_length_a	10.967874
_cell_length_b	10.654550
_cell_length_c	9.730223
_cell_angle_alpha	90.004253
_cell_angle_beta	77.868017
_cell_angle_gamma	95.400623
loop_
_atom_site_label
_atom_site_type_symbol
_atom_site_fract_x
_atom_site_fract_y
_atom_site_fract_z
O1	O	1.657228	-0.176153	-0.506777
O2	O	1.294075	-0.193013	-0.420773
O3	O	1.484001	-0.001843	-0.465744
O4	O	1.467302	-0.367324	-0.461806
O5	O	1.483989	-0.001838	-0.237161
O6	O	1.294063	-0.193008	-0.192190
O7	O	1.657216	-0.176148	-0.278194
Zn8	Zn	1.475638	-0.184577	-0.198900
Zn9	Zn	1.475654	-0.184584	-0.500068
O10	O	1.467290	-0.367318	-0.233223
C11	C	1.247569	-0.191783	-0.295469
C12	C	1.109013	-0.188112	-0.262655
C13	C	1.047247	-0.186478	-0.366438
C14	C	0.904042	-0.182683	-0.332526
C15	C	1.482769	0.044958	-0.351163
C16	C	1.479101	0.184400	-0.350296
C17	C	1.703723	-0.177378	-0.403501
C18	C	1.842279	-0.181049	-0.436324
C19	C	1.468522	-0.414119	-0.347808
C20	C	1.472191	-0.553562	-0.348683
N21	N	1.475636	-0.184572	0.006637
C22	C	1.590926	0.263902	-0.376780
C23	C	1.587472	0.394923	-0.375978
C24	C	1.360357	0.366926	-0.322202
C25	C	1.363812	0.235908	-0.323013
N26	N	1.475666	-0.184580	-0.705607
C27	C	1.559764	-0.099957	0.058643
C28	C	1.559776	-0.099958	0.202523
C29	C	1.391528	-0.269198	0.242379
C30	C	1.391511	-0.269190	0.098503
H31	H	0.895410	-0.182468	-0.550291
N32	N	1.708083	0.480673	-0.404544
H33	H	1.781637	0.428157	-0.421949
H34	H	1.711586	0.535654	-0.320640
N35	N	1.038847	-0.186110	-0.111626
H36	H	1.071060	-0.108948	-0.064912
H37	H	1.052086	-0.264433	-0.060322
N38	N	1.650463	-0.008661	-0.040431
H39	H	1.637686	-0.021488	-0.139468
H40	H	1.739123	-0.023965	-0.036310
H41	H	1.266492	0.408880	-0.299986
H42	H	1.684801	0.221970	-0.398998
N43	N	1.300764	-0.360465	0.042415
H44	H	1.348917	-0.416510	-0.028708
H45	H	1.245114	-0.311865	-0.003999
H46	H	1.100384	-0.187895	-0.480397
H47	H	0.850907	-0.181280	-0.218560
H48	H	1.272745	0.171174	-0.301450
N49	N	1.650531	-0.008713	0.258613
H50	H	1.703824	0.044883	0.178579
H51	H	1.706106	-0.057330	0.305119
H52	H	1.323037	-0.338094	0.317190
