data_functionalizedCrystal
_audit_creation_method	'MofGen! by Chris Wilmer'
_symmetry_space_group_name_H-M	'P1'
_symmetry_Int_Tables_number	1
_symmetry_cell_setting	triclinic
loop_
_symmetry_equiv_pos_as_xyz
  x,y,z
_cell_length_a	12.837943
_cell_length_b	15.944551
_cell_length_c	11.892095
_cell_angle_alpha	93.888509
_cell_angle_beta	85.689438
_cell_angle_gamma	89.163839
loop_
_atom_site_label
_atom_site_type_symbol
_atom_site_fract_x
_atom_site_fract_y
_atom_site_fract_z
O1	O	1.382096	0.213524	-0.093988
O2	O	1.080290	0.202737	-0.093995
O3	O	1.239434	0.086515	-0.093981
O4	O	1.222952	0.329745	-0.094002
O5	O	1.226164	0.096189	0.094025
O6	O	1.067021	0.212411	0.094012
O7	O	1.368826	0.223198	0.094018
Zn8	Zn	1.215817	0.219340	0.123865
Zn9	Zn	1.233299	0.206594	-0.123842
O10	O	1.209683	0.339419	0.094005
C11	C	1.035034	0.203930	0.000008
C12	C	0.919957	0.193062	0.000006
C13	C	0.679007	0.323714	0.000011
C14	C	0.570881	0.313507	0.000010
C15	C	0.595575	0.162440	0.000010
C16	C	0.703701	0.172648	0.000012
C17	C	0.745413	0.253287	0.000010
C18	C	0.853542	0.263494	0.000003
C19	C	0.878234	0.112428	0.000012
C20	C	0.770107	0.102221	0.000011
C21	C	1.232115	0.060004	0.000022
C22	C	1.230063	-0.033407	0.000023
C23	C	1.126515	-0.256548	0.000005
C24	C	1.168058	-0.308949	0.092705
C25	C	1.226352	-0.204430	0.000014
C26	C	1.181163	-0.318468	-0.092655
C27	C	1.222761	-0.369631	0.000001
C28	C	1.267917	-0.255596	0.092790
C29	C	1.281014	-0.265115	-0.092653
C30	C	1.322628	-0.317491	0.000069
C31	C	1.228418	-0.109262	0.000023
C32	C	1.220702	-0.464796	0.000000
C33	C	1.414082	0.222005	0.000013
C34	C	1.529160	0.232872	0.000008
C35	C	1.217002	0.365931	-0.000001
C36	C	1.219054	0.459340	-0.000009
N37	N	1.203893	0.228039	0.292918
N38	N	1.245231	0.197890	-0.292895
C39	C	1.328203	0.137313	0.529576
C40	C	1.319876	0.143400	0.647918
C41	C	1.178907	0.246295	0.647944
C42	C	1.187234	0.240208	0.529603
C43	C	1.261886	0.185716	0.470423
C44	C	1.270217	0.179634	0.352080
C45	C	1.129244	0.282524	0.352108
C46	C	1.120917	0.288611	0.470449
H47	H	0.736129	0.036567	0.000025
H48	H	1.120299	-0.328402	0.171073
H49	H	1.304571	-0.228194	0.171246
H50	H	0.932315	0.055081	0.000004
H51	H	0.516815	0.370856	0.000013
C52	C	0.899430	0.352194	0.000005
C53	C	0.867491	0.418119	0.097637
C54	C	0.913375	0.506821	0.097642
C55	C	0.991200	0.529598	0.000016
C56	C	1.023143	0.463672	-0.097623
C57	C	0.977259	0.374970	-0.097629
H58	H	0.809877	0.401259	0.169912
H59	H	0.889728	0.555624	0.169922
H60	H	1.025166	0.595261	0.000020
H61	H	1.080757	0.480532	-0.169898
H62	H	1.000906	0.326167	-0.169908
C63	C	1.434670	-0.353325	0.000134
C64	C	1.502017	-0.327916	0.098268
C65	C	1.614057	-0.363750	0.098337
C66	C	1.658750	-0.424993	0.000271
C67	C	1.591402	-0.450406	-0.097870
C68	C	1.479361	-0.414572	-0.097939
H69	H	1.468934	-0.282577	0.170868
H70	H	1.663913	-0.344937	0.170988
H71	H	1.741689	-0.451520	0.000322
H72	H	1.624485	-0.495745	-0.170470
H73	H	1.429506	-0.433385	-0.170590
H74	H	0.712969	0.389374	0.000008
C75	C	0.549672	0.073745	0.000020
C76	C	0.471843	0.050988	0.097653
C77	C	0.425937	-0.037707	0.097664
C78	C	0.457860	-0.103643	0.000041
C79	C	0.535693	-0.080887	-0.097600
C80	C	0.581599	0.007807	-0.097610
H81	H	0.448209	0.099799	0.169926
H82	H	0.368320	-0.054552	0.169944
H83	H	0.423878	-0.169300	0.000049
H84	H	0.559327	-0.129699	-0.169872
H85	H	0.639216	0.024652	-0.169891
C86	C	1.014560	-0.220493	0.000121
C87	C	0.933357	-0.235625	0.098325
C88	C	0.821406	-0.199568	0.098447
C89	C	0.790657	-0.148380	0.000364
C90	C	0.871862	-0.133246	-0.097847
C91	C	0.983814	-0.169302	-0.097969
H92	H	0.956118	-0.273519	0.170938
H93	H	0.761293	-0.210772	0.171150
H94	H	0.707784	-0.121688	0.000455
H95	H	0.849102	-0.095351	-0.170460
H96	H	1.043927	-0.158099	-0.170672
C97	C	1.131573	-0.355615	-0.198528
C98	C	1.180684	-0.339440	-0.317059
C99	C	1.131085	-0.376582	-0.422926
C100	C	1.032374	-0.429899	-0.410262
C101	C	0.983258	-0.446077	-0.291727
C102	C	1.032857	-0.408935	-0.185860
H103	H	1.253760	-0.299969	-0.326438
H104	H	1.167444	-0.364606	-0.510674
H105	H	0.995658	-0.457394	-0.488631
H106	H	0.910182	-0.485548	-0.282348
H107	H	0.996498	-0.420911	-0.098112
C108	C	1.345484	-0.238799	-0.198525
C109	C	1.395426	-0.306332	-0.285589
C110	C	1.459886	-0.280014	-0.391473
C111	C	1.474405	-0.186163	-0.410293
C112	C	1.424463	-0.118624	-0.323227
C113	C	1.360002	-0.144941	-0.217343
H114	H	1.384679	-0.375812	-0.271660
H115	H	1.496857	-0.330012	-0.455925
H116	H	1.522123	-0.166681	-0.488674
H117	H	1.435209	-0.049144	-0.337156
H118	H	1.323031	-0.094944	-0.152891
H119	H	1.331005	0.135266	0.303897
C120	C	1.410320	0.077378	0.464473
C121	C	1.407440	-0.017577	0.480747
C122	C	1.489559	-0.077512	0.415647
C123	C	1.574560	-0.042492	0.334272
C124	C	1.577444	0.052468	0.317994
C125	C	1.495324	0.112404	0.383095
H126	H	1.344514	-0.043506	0.540989
H127	H	1.487424	-0.147809	0.427697
H128	H	1.635350	-0.086859	0.286080
H129	H	1.640370	0.078397	0.257752
H130	H	1.497460	0.182700	0.371044
H131	H	1.373877	0.103984	0.696077
H132	H	1.118121	0.290655	0.696143
H133	H	1.060134	0.332975	0.518647
H134	H	1.075247	0.321940	0.303932
