data_functionalizedCrystal
_audit_creation_method	'MofGen! by Chris Wilmer'
_symmetry_space_group_name_H-M	'P1'
_symmetry_Int_Tables_number	1
_symmetry_cell_setting	triclinic
loop_
_symmetry_equiv_pos_as_xyz
  x,y,z
_cell_length_a	10.654549
_cell_length_b	23.532407
_cell_length_c	9.730223
_cell_angle_alpha	90.009040
_cell_angle_beta	90.002269
_cell_angle_gamma	83.666727
loop_
_atom_site_label
_atom_site_type_symbol
_atom_site_fract_x
_atom_site_fract_y
_atom_site_fract_z
O1	O	1.665305	0.079984	0.114274
O2	O	1.299585	0.087604	0.114285
O3	O	1.493473	0.000934	0.114254
O4	O	1.471417	0.166654	0.114305
O5	O	1.493461	0.000932	-0.114326
O6	O	1.299573	0.087602	-0.114295
O7	O	1.665293	0.079981	-0.114306
Zn8	Zn	1.482431	0.083791	-0.150592
Zn9	Zn	1.482447	0.083794	0.150572
O10	O	1.471405	0.166652	-0.114275
C11	C	1.252799	0.087044	-0.000004
C12	C	1.113409	0.085370	-0.000001
C13	C	1.492906	-0.020287	-0.000039
C14	C	1.491217	-0.083515	-0.000050
C15	C	0.901327	0.134823	0.000009
C16	C	1.032298	0.136400	0.000018
C17	C	1.063543	0.032759	-0.000014
C18	C	0.932575	0.031183	-0.000013
C19	C	1.595364	-0.481939	0.000022
C20	C	1.593795	-0.541350	0.000033
O21	O	1.690341	-0.577465	0.000080
N22	N	1.478529	-0.564727	0.000035
C23	C	1.364824	-0.528690	0.000041
O24	O	1.266637	-0.554029	0.000046
C25	C	1.366394	-0.469281	0.000041
C26	C	1.481668	-0.445907	0.000024
C27	C	1.710629	-0.458565	0.000007
C28	C	1.712197	-0.399159	-0.000006
C29	C	1.598501	-0.363127	-0.000004
C30	C	1.483236	-0.386501	0.000011
C31	C	1.252690	-0.433245	0.000056
C32	C	1.254270	-0.373832	0.000057
C33	C	1.369544	-0.350459	0.000040
C34	C	1.371108	-0.291062	-0.000000
N35	N	1.486374	-0.267685	-0.000003
C36	C	1.600071	-0.303717	-0.000005
C37	C	1.361535	-0.653454	0.000045
C38	C	1.359964	-0.712862	0.000036
C39	C	1.588936	-0.725518	0.000030
C40	C	1.590506	-0.666108	0.000029
C41	C	1.476802	-0.630077	0.000042
C42	C	1.603355	-0.178959	-0.000033
C43	C	1.604913	-0.119547	-0.000052
C44	C	1.375942	-0.106896	-0.000039
C45	C	1.374383	-0.166303	-0.000027
C46	C	1.488100	-0.202334	-0.000020
O47	O	1.274613	-0.254912	-0.000042
O48	O	1.698242	-0.278370	0.000009
C49	C	1.712079	0.080542	-0.000014
C50	C	1.851469	0.082216	-0.000008
C51	C	1.471972	0.187872	0.000022
C52	C	1.473661	0.251100	0.000041
N53	N	1.482429	0.083789	-0.356129
C54	C	1.568311	0.045428	-0.428068
C55	C	1.568324	0.045428	-0.571951
C56	C	1.396568	0.122155	-0.571942
C57	C	1.396550	0.122152	-0.428062
N58	N	1.482459	0.083792	0.356108
H59	H	0.835294	0.176378	0.000014
O60	O	1.651874	0.008144	-0.641620
C61	C	1.822184	-0.067981	-0.626435
C62	C	1.727649	-0.025776	-0.547366
H63	H	1.883455	-0.095425	-0.550266
H64	H	1.884695	-0.043157	-0.693737
H65	H	1.768315	-0.096635	-0.693856
H66	H	1.781415	0.002888	-0.479871
H67	H	1.665140	-0.050636	-0.480151
H68	H	1.266096	-0.731887	0.000025
H69	H	1.638237	0.014189	-0.369504
H70	H	1.326648	0.153391	-0.630525
H71	H	1.161676	-0.344497	0.000070
H72	H	1.283373	-0.077548	-0.000042
O73	O	1.313072	0.159474	-0.358384
C74	C	1.142663	0.235554	-0.373546
C75	C	1.237150	0.193332	-0.452627
H76	H	1.081238	0.262931	-0.449707
H77	H	1.196442	0.264269	-0.306193
H78	H	1.080297	0.210687	-0.306175
H79	H	1.299540	0.218153	-0.520073
H80	H	1.183292	0.164617	-0.519893
O81	O	1.713736	-0.214011	-0.000215
C82	C	1.844898	-0.288409	-0.118685
C83	C	1.719836	-0.248755	-0.118621
H84	H	1.849883	-0.316500	-0.214420
H85	H	1.849929	-0.316571	-0.023086
H86	H	1.927519	-0.261477	-0.118633
H87	H	1.637145	-0.275642	-0.118722
H88	H	1.714916	-0.220590	-0.214212
H89	H	1.072884	0.179237	0.000033
H90	H	1.806065	-0.380134	-0.000014
O91	O	1.821166	-0.493503	0.000184
C92	C	2.016380	-0.522499	0.118616
C93	C	1.891247	-0.482896	0.118585
H94	H	2.073064	-0.513945	0.214347
H95	H	2.073212	-0.513930	0.023013
H96	H	1.995456	-0.568974	0.118548
H97	H	1.912056	-0.436406	0.118701
H98	H	1.834452	-0.491514	0.214179
O99	O	1.142281	-0.016827	0.000216
C100	C	1.209018	-0.104939	0.118567
C101	C	1.119799	-0.048798	0.118497
H102	H	1.190855	-0.130809	0.214172
H103	H	1.311214	-0.094809	0.118654
H104	H	1.190975	-0.130781	0.022856
H105	H	1.137729	-0.022930	0.214192
H106	H	1.017633	-0.058968	0.118338
H107	H	0.891982	-0.011659	-0.000022
H108	H	1.698787	-0.100520	-0.000069
H109	H	1.684372	-0.647082	0.000017
O110	O	1.699468	-0.760467	0.000224
C111	C	1.894648	-0.789486	0.118699
C112	C	1.769541	-0.749864	0.118634
H113	H	1.951324	-0.780936	0.214438
H114	H	1.951504	-0.780933	0.023104
H115	H	1.873686	-0.835957	0.118642
H116	H	1.790388	-0.703380	0.118740
H117	H	1.712721	-0.758467	0.214221
H118	H	1.268937	-0.624120	0.000044
O119	O	1.140745	-0.455969	-0.000156
C120	C	1.006067	-0.515726	-0.118478
C121	C	1.132883	-0.490019	-0.118433
H122	H	0.999680	-0.543270	-0.214081
H123	H	0.925034	-0.479783	-0.118553
H124	H	0.999639	-0.543188	-0.022765
H125	H	1.139433	-0.462563	-0.214131
H126	H	1.213854	-0.525989	-0.118287
O127	O	1.262490	-0.189081	0.000160
C128	C	1.127811	-0.248766	0.118658
C129	C	1.254585	-0.223024	0.118585
H130	H	1.121367	-0.276205	0.214409
H131	H	1.121326	-0.276314	0.023075
H132	H	1.046837	-0.212797	0.118584
H133	H	1.335631	-0.258956	0.118708
H134	H	1.260960	-0.195462	0.214159
