data_functionalizedCrystal
_audit_creation_method	'MofGen! by Chris Wilmer'
_symmetry_space_group_name_H-M	'P1'
_symmetry_Int_Tables_number	1
_symmetry_cell_setting	triclinic
loop_
_symmetry_equiv_pos_as_xyz
  x,y,z
_cell_length_a	8.559649
_cell_length_b	8.559649
_cell_length_c	7.681481
_cell_angle_alpha	85.069100
_cell_angle_beta	94.912730
_cell_angle_gamma	69.778664
loop_
_atom_site_label
_atom_site_type_symbol
_atom_site_fract_x
_atom_site_fract_y
_atom_site_fract_z
O1	O	2.109659	-0.037794	-0.146423
O2	O	1.634173	0.045987	-0.146425
O3	O	1.913807	-0.233646	-0.146422
O4	O	1.830025	0.241839	-0.146426
O5	O	1.948234	-0.268134	0.146436
O6	O	1.668600	0.011499	0.146433
O7	O	2.144085	-0.072282	0.146435
Zn8	Zn	1.911809	-0.035867	0.192932
Zn9	Zn	1.866450	0.009572	-0.192921
O10	O	1.864452	0.207351	0.146432
C11	C	1.591078	0.035092	0.000004
C12	C	1.411378	0.053992	0.000003
C13	C	1.937369	-0.311199	0.000004
C14	C	1.956267	-0.490897	-0.000006
C15	C	2.187180	-0.061387	0.000003
C16	C	2.366879	-0.080285	-0.000008
C17	C	1.840889	0.284904	0.000003
C18	C	1.821990	0.464604	0.000001
N19	N	1.942777	-0.066880	0.456266
N20	N	1.835496	0.040571	-0.456256
H21	H	1.466267	-0.209713	-0.000008
C22	C	2.128921	-0.623198	-0.000273
C23	C	2.197562	-0.587099	-0.150925
C24	C	2.356613	-0.708923	-0.151221
H25	H	2.119349	-0.730493	-0.000353
H26	H	2.199839	-0.623006	0.101796
H27	H	2.126662	-0.587309	-0.252968
H28	H	2.207177	-0.479827	-0.150877
H29	H	2.427531	-0.708731	-0.049151
H30	H	2.347024	-0.816210	-0.151296
H31	H	2.403213	-0.684439	-0.253427
C32	C	1.649280	-0.403038	-0.000285
C33	C	1.545221	-0.403673	-0.150931
C34	C	1.386101	-0.281773	-0.151243
H35	H	1.658836	-0.295725	-0.000385
H36	H	1.602358	-0.427254	0.101789
H37	H	1.592132	-0.379446	-0.252978
H38	H	1.535615	-0.510957	-0.150863
H39	H	1.339178	-0.305988	-0.049169
H40	H	1.395674	-0.174468	-0.151338
H41	H	1.315473	-0.282197	-0.253445
H42	H	1.311998	0.183413	-0.000016
C43	C	1.689242	0.186738	0.443711
C44	C	1.538209	0.174931	0.488488
C45	C	1.403445	0.309565	0.396378
H46	H	1.692363	0.183503	0.320724
H47	H	1.697144	0.289322	0.473871
H48	H	1.530309	0.072374	0.458315
H49	H	1.535032	0.178187	0.611459
H50	H	1.411346	0.412148	0.426539
H51	H	1.406582	0.306318	0.273395
H52	H	1.300954	0.301580	0.426758
H53	H	2.052305	-0.176554	0.531473
