data_functionalizedCrystal
_audit_creation_method	'MofGen! by Chris Wilmer'
_symmetry_space_group_name_H-M	'P1'
_symmetry_Int_Tables_number	1
_symmetry_cell_setting	triclinic
loop_
_symmetry_equiv_pos_as_xyz
  x,y,z
_cell_length_a	21.395362
_cell_length_b	19.805404
_cell_length_c	21.395356
_cell_angle_alpha	89.970424
_cell_angle_beta	89.957023
_cell_angle_gamma	90.045228
loop_
_atom_site_label
_atom_site_type_symbol
_atom_site_fract_x
_atom_site_fract_y
_atom_site_fract_z
Zn1	Zn	0.957859	-0.269193	-0.354577
Zn2	Zn	1.291193	0.064140	-0.021244
Zn3	Zn	1.624526	0.397473	0.312089
Zn4	Zn	0.957766	-0.382381	-0.249796
Zn5	Zn	1.291100	-0.049048	0.083537
Zn6	Zn	1.624433	0.284285	0.416870
Zn7	Zn	0.853076	-0.269243	-0.249779
Zn8	Zn	1.186410	0.064090	0.083555
Zn9	Zn	1.519743	0.397424	0.416888
Zn10	Zn	0.853046	-0.382377	-0.354501
Zn11	Zn	1.186379	-0.049044	-0.021168
Zn12	Zn	1.519713	0.284289	0.312166
O13	O	0.905437	-0.325799	-0.302163
O14	O	1.238770	0.007535	0.031170
O15	O	1.572104	0.340868	0.364503
O16	O	1.045525	-0.284189	-0.340717
O17	O	1.378858	0.049144	-0.007384
O18	O	1.712192	0.382478	0.325949
O19	O	0.943852	-0.367396	-0.162116
O20	O	1.277186	-0.034063	0.171217
O21	O	1.610519	0.299271	0.504551
O22	O	0.867028	-0.174520	-0.263705
O23	O	1.200361	0.158813	0.069628
O24	O	1.533694	0.492147	0.402962
O25	O	1.045456	-0.367348	-0.263735
O26	O	1.378790	-0.034014	0.069598
O27	O	1.712123	0.299319	0.402931
O28	O	0.944011	-0.174483	-0.340700
O29	O	1.277345	0.158850	-0.007367
O30	O	1.610678	0.492183	0.325967
O31	O	0.866937	-0.284274	-0.162103
O32	O	1.200270	0.049060	0.171230
O33	O	1.533604	0.382393	0.504564
O34	O	0.765394	-0.284270	-0.263631
O35	O	1.098728	0.049064	0.069702
O36	O	1.432061	0.382397	0.403036
O37	O	0.866976	-0.367341	-0.442189
O38	O	1.200310	-0.034007	-0.108856
O39	O	1.533643	0.299326	0.224477
O40	O	0.765372	-0.367389	-0.340570
O41	O	1.098705	-0.034055	-0.007237
O42	O	1.432039	0.299278	0.326097
O43	O	0.943982	-0.284185	-0.442245
O44	O	1.277316	0.049148	-0.108912
O45	O	1.610649	0.382482	0.224421
O46	O	0.943823	-0.477097	-0.263661
O47	O	1.277157	-0.143764	0.069672
O48	O	1.610490	0.189569	0.403005
O49	O	0.866886	-0.477094	-0.340587
O50	O	1.200219	-0.143761	-0.007254
O51	O	1.533552	0.189572	0.326079
C52	C	0.742649	-0.325835	-0.302091
C53	C	1.075983	0.007499	0.031243
C54	C	1.409316	0.340832	0.364576
C55	C	0.673008	-0.325866	-0.302074
C56	C	1.006341	0.007467	0.031259
C57	C	1.339675	0.340800	0.364592
C58	C	0.640300	-0.369204	-0.342077
C59	C	0.973633	-0.035870	-0.008743
C60	C	1.306966	0.297463	0.324590
C61	C	0.574864	-0.369187	-0.342105
C62	C	0.908198	-0.035854	-0.008771
C63	C	1.241531	0.297480	0.324562
C64	C	0.542140	-0.325840	-0.302119
C65	C	0.875473	0.007493	0.031214
C66	C	1.208806	0.340827	0.364548
C67	C	0.574856	-0.282494	-0.262114
C68	C	0.908189	0.050839	0.071219
C69	C	1.241523	0.384172	0.404553
C70	C	0.640290	-0.282507	-0.262092
C71	C	0.973623	0.050826	0.071242
C72	C	1.306957	0.384159	0.404575
C73	C	0.438416	-0.320397	-0.245714
C74	C	0.771749	0.012936	0.087619
C75	C	1.105083	0.346269	0.420953
C76	C	0.372983	-0.320389	-0.245735
C77	C	0.706316	0.012944	0.087598
C78	C	1.039650	0.346278	0.420931
C79	C	0.340319	-0.325796	-0.302188
C80	C	0.673652	0.007537	0.031145
C81	C	1.006986	0.340871	0.364478
C82	C	0.373096	-0.331226	-0.358622
C83	C	0.706430	0.002108	-0.025288
C84	C	1.039763	0.335441	0.308045
C85	C	0.438530	-0.331239	-0.358599
C86	C	0.771864	0.002095	-0.025266
C87	C	1.105197	0.335428	0.308067
C88	C	0.471187	-0.325821	-0.302139
C89	C	0.804521	0.007512	0.031194
C90	C	1.137854	0.340846	0.364528
C91	C	0.236658	-0.369118	-0.342224
C92	C	0.569992	-0.035784	-0.008891
C93	C	0.903325	0.297549	0.324442
C94	C	0.171222	-0.369096	-0.342253
C95	C	0.504555	-0.035763	-0.008920
C96	C	0.837888	0.297570	0.324414
C97	C	0.171214	-0.282407	-0.262257
C98	C	0.504548	0.050926	0.071076
C99	C	0.837881	0.384260	0.404410
C100	C	0.236650	-0.282425	-0.262234
C101	C	0.569983	0.050908	0.071100
C102	C	0.903316	0.384242	0.404433
C103	C	0.269368	-0.325784	-0.302216
C104	C	0.602701	0.007550	0.031117
C105	C	0.936034	0.340883	0.364450
C106	C	0.905358	-0.501655	-0.302132
C107	C	1.238691	-0.168322	0.031202
C108	C	1.572025	0.165012	0.364535
C109	C	0.905382	-0.576887	-0.302139
C110	C	1.238715	-0.243554	0.031194
C111	C	1.572048	0.089780	0.364528
C112	C	0.945608	-1.038600	-0.342343
C113	C	1.278941	-0.705266	-0.009010
C114	C	1.612274	-0.371933	0.324324
C115	C	0.945583	-0.967911	-0.342329
C116	C	1.278916	-0.634578	-0.008995
C117	C	1.612249	-0.301245	0.324338
C118	C	0.905521	-0.932648	-0.302202
C119	C	1.238854	-0.599315	0.031131
C120	C	1.572188	-0.265982	0.364464
C121	C	0.865486	-0.968078	-0.262083
C122	C	1.198819	-0.634744	0.071250
C123	C	1.532153	-0.301411	0.404583
C124	C	0.865514	-1.038765	-0.262095
C125	C	1.198848	-0.705431	0.071238
C126	C	1.532181	-0.372098	0.404572
C127	C	0.865371	-0.683004	-0.262035
C128	C	1.198705	-0.349671	0.071299
C129	C	1.532038	-0.016338	0.404632
C130	C	0.865345	-0.612312	-0.262027
C131	C	1.198678	-0.278979	0.071306
C132	C	1.532011	0.054354	0.404639
C133	C	0.945440	-0.612151	-0.342268
C134	C	1.278773	-0.278818	-0.008935
C135	C	1.612106	0.054516	0.324399
C136	C	0.945468	-0.682838	-0.342280
C137	C	1.278801	-0.349505	-0.008946
C138	C	1.612135	-0.016172	0.324387
C139	C	0.905436	-0.718261	-0.302159
C140	C	1.238769	-0.384928	0.031175
C141	C	1.572102	-0.051594	0.364508
C142	C	0.905464	-0.794910	-0.302174
C143	C	1.238797	-0.461576	0.031159
C144	C	1.572130	-0.128243	0.364493
C145	C	0.905489	-0.856001	-0.302190
C146	C	1.238823	-0.522668	0.031144
C147	C	1.572156	-0.189335	0.364477
C148	C	1.068860	-0.325763	-0.302237
C149	C	1.402194	0.007570	0.031097
C150	C	1.735527	0.340903	0.364430
C151	C	1.138502	-0.325748	-0.302268
C152	C	1.471835	0.007585	0.031065
C153	C	1.805168	0.340918	0.364399
C154	C	0.905486	-0.325757	-0.465587
C155	C	1.238820	0.007577	-0.132253
C156	C	1.572153	0.340910	0.201080
C157	C	0.905507	-0.325739	-0.535228
C158	C	1.238841	0.007594	-0.201895
C159	C	1.572174	0.340928	0.131439
C160	C	0.905533	-0.149256	-0.302209
C161	C	1.238867	0.184077	0.031124
C162	C	1.572200	0.517411	0.364458
C163	C	0.905574	-0.074024	-0.302228
C164	C	1.238908	0.259309	0.031105
C165	C	1.572241	0.592643	0.364438
C166	C	0.865468	-0.282452	-0.567925
C167	C	1.198802	0.050881	-0.234591
C168	C	1.532135	0.384214	0.098742
C169	C	0.865466	-0.282440	-0.633360
C170	C	1.198799	0.050894	-0.300027
C171	C	1.532133	0.384227	0.033307
C172	C	0.905514	-0.325707	-0.666096
C173	C	1.238848	0.007627	-0.332763
C174	C	1.572181	0.340960	0.000570
C175	C	0.945556	-0.369002	-0.633392
C176	C	1.278889	-0.035668	-0.300059
C177	C	1.612223	0.297665	0.033275
C178	C	0.945553	-0.369018	-0.567958
C179	C	1.278886	-0.035685	-0.234625
C180	C	1.612219	0.297649	0.098709
C181	C	0.961966	-0.331011	-0.769802
C182	C	1.295300	0.002322	-0.436468
C183	C	1.628633	0.335655	-0.103135
C184	C	0.961971	-0.330990	-0.835235
C185	C	1.295304	0.002343	-0.501901
C186	C	1.628638	0.335676	-0.168568
C187	C	0.905525	-0.325661	-0.867917
C188	C	1.238858	0.007672	-0.534584
C189	C	1.572191	0.341006	-0.201251
C190	C	0.849072	-0.320338	-0.835159
C191	C	1.182405	0.012995	-0.501826
C192	C	1.515739	0.346328	-0.168492
C193	C	0.849069	-0.320354	-0.769725
C194	C	1.182402	0.012979	-0.436391
C195	C	1.515735	0.346312	-0.103058
C196	C	0.905522	-0.325694	-0.737049
C197	C	1.238855	0.007639	-0.403716
C198	C	1.572189	0.340972	-0.070382
C199	C	0.865480	-0.282358	-0.971566
C200	C	1.198813	0.050975	-0.638233
C201	C	1.532146	0.384308	-0.304900
C202	C	0.865477	-0.282351	-1.037003
C203	C	1.198810	0.050983	-0.703670
C204	C	1.532143	0.384316	-0.370336
C205	C	0.945572	-0.368909	-1.037034
C206	C	1.278906	-0.035576	-0.703701
C207	C	1.612239	0.297758	-0.370367
C208	C	0.945570	-0.368921	-0.971598
C209	C	1.278903	-0.035587	-0.638265
C210	C	1.612236	0.297746	-0.304932
C211	C	0.905524	-0.325642	-0.938869
C212	C	1.238858	0.007692	-0.605535
C213	C	1.572191	0.341025	-0.272202
C214	C	0.905424	-0.325792	-0.139376
C215	C	1.238757	0.007542	0.193957
C216	C	1.572091	0.340875	0.527291
C217	C	0.905524	-0.325619	-0.069735
C218	C	1.238858	0.007714	0.263598
C219	C	1.572191	0.341048	0.596932
H220	H	0.548207	-0.247200	-0.229559
H221	H	0.881541	0.086134	0.103775
H222	H	1.214874	0.419467	0.437108
H223	H	0.263299	-0.404420	-0.374784
H224	H	0.596632	-0.071086	-0.041450
H225	H	0.929965	0.262247	0.291883
H226	H	0.144571	-0.247110	-0.229703
H227	H	0.477904	0.086223	0.103630
H228	H	0.811237	0.419557	0.436964
O229	O	0.675575	-0.235776	-0.218933
O230	O	1.008908	0.097557	0.114400
O231	O	1.342241	0.430891	0.447733
H232	H	0.641829	-0.205635	-0.191127
H233	H	0.975162	0.127699	0.142206
H234	H	1.308496	0.461032	0.475539
H235	H	0.832867	-0.247104	-1.063623
H236	H	1.166201	0.086230	-0.730290
H237	H	1.499534	0.419563	-0.396957
H238	H	0.978039	-0.583302	-0.374935
H239	H	1.311372	-0.249969	-0.041602
H240	H	1.644705	0.083364	0.291732
H241	H	0.144592	-0.404386	-0.374832
H242	H	0.477925	-0.071052	-0.041498
H243	H	0.811258	0.262281	0.291835
H244	H	0.978088	-0.711546	-0.374957
H245	H	1.311421	-0.378212	-0.041624
H246	H	1.644755	-0.044879	0.291710
O247	O	0.822142	-0.574274	-0.218738
O248	O	1.155476	-0.240941	0.114595
O249	O	1.488809	0.092393	0.447929
H250	H	0.794316	-0.610781	-0.190835
H251	H	1.127649	-0.277447	0.142499
H252	H	1.460982	0.055886	0.475832
H253	H	0.548228	-0.404477	-0.374682
H254	H	0.881561	-0.071144	-0.041348
H255	H	1.214895	0.262189	0.291985
H256	H	1.007938	-0.335321	-0.861902
H257	H	1.341271	-0.001988	-0.528568
H258	H	1.674605	0.331345	-0.195235
H259	H	0.263281	-0.247138	-0.229656
H260	H	0.596614	0.086195	0.103677
H261	H	0.929948	0.419529	0.437010
H262	H	1.007935	-0.335345	-0.743197
H263	H	1.341269	-0.002012	-0.409864
H264	H	1.674602	0.331321	-0.076530
O265	O	0.988771	-0.415597	-0.936332
O266	O	1.322104	-0.082263	-0.602999
O267	O	1.655437	0.251070	-0.269666
H268	H	0.978006	-0.468720	-0.948872
H269	H	1.311339	-0.135386	-0.615539
H270	H	1.644673	0.197947	-0.282205
O271	O	0.822189	-0.721202	-0.218766
O272	O	1.155523	-0.387868	0.114567
O273	O	1.488856	-0.054535	0.447901
H274	H	0.828941	-0.776280	-0.225507
H275	H	1.162274	-0.442946	0.107827
H276	H	1.495607	-0.109613	0.441160
H277	H	0.832869	-0.939362	-0.229408
H278	H	1.166203	-0.606029	0.103925
H279	H	1.499536	-0.272696	0.437258
H280	H	0.465005	-0.315991	-0.199740
H281	H	0.798339	0.017342	0.133593
H282	H	1.131672	0.350675	0.466927
O283	O	0.337631	-0.314530	-0.184873
O284	O	0.670964	0.018804	0.148461
O285	O	1.004298	0.352137	0.481794
H286	H	0.371336	-0.310756	-0.145615
H287	H	0.704669	0.022577	0.187719
H288	H	1.038002	0.355910	0.521052
H289	H	0.978163	-0.404230	-0.660050
H290	H	1.311497	-0.070897	-0.326717
H291	H	1.644830	0.262436	0.006616
O292	O	0.988818	-1.076633	-0.385621
O293	O	1.322151	-0.743300	-0.052288
O294	O	1.655485	-0.409966	0.281045
H295	H	1.016656	-1.040122	-0.413508
H296	H	1.349989	-0.706788	-0.080175
H297	H	1.683322	-0.373455	0.253158
O298	O	0.822333	-1.076978	-0.218832
O299	O	1.155667	-0.743644	0.114501
O300	O	1.489000	-0.410311	0.447835
H301	H	0.794466	-1.040583	-0.190932
H302	H	1.127799	-0.707250	0.142402
H303	H	1.461133	-0.373916	0.475735
H304	H	0.978181	-0.939069	-0.374992
H305	H	1.311515	-0.605736	-0.041659
H306	H	1.644848	-0.272403	0.291674
O307	O	0.473886	-0.337080	-0.419462
O308	O	0.807219	-0.003747	-0.086128
O309	O	1.140553	0.329586	0.247205
H310	H	0.440185	-0.340832	-0.458724
H311	H	0.773518	-0.007498	-0.125391
H312	H	1.106852	0.325835	0.207942
O313	O	0.822283	-0.235771	-0.532621
O314	O	1.155616	0.097563	-0.199288
O315	O	1.488950	0.430896	0.134045
H316	H	0.794440	-0.205669	-0.566355
H317	H	1.127773	0.127665	-0.233022
H318	H	1.461107	0.460998	0.100312
H319	H	0.832862	-0.247187	-0.659987
H320	H	1.166196	0.086146	-0.326653
H321	H	1.499529	0.419479	0.006680
O322	O	0.788187	-0.314609	-0.734389
O323	O	1.121521	0.018724	-0.401056
O324	O	1.454854	0.352058	-0.067723
H325	H	0.748934	-0.310900	-0.768103
H326	H	1.082268	0.022433	-0.434770
H327	H	1.415601	0.355767	-0.101437
H328	H	0.666935	-0.404509	-0.374635
H329	H	1.000268	-0.071176	-0.041301
H330	H	1.333601	0.262158	0.292032
O331	O	0.788183	-0.314596	-0.870397
O332	O	1.121516	0.018737	-0.537064
O333	O	1.454849	0.352071	-0.203731
H334	H	0.797665	-0.315489	-0.921401
H335	H	1.130998	0.017844	-0.588068
H336	H	1.464332	0.351178	-0.254734
H337	H	0.832872	-0.247119	-0.944916
H338	H	1.166205	0.086215	-0.611583
H339	H	1.499539	0.419548	-0.278250
O340	O	0.988770	-0.415577	-1.072332
O341	O	1.322104	-0.082244	-0.738998
O342	O	1.655437	0.251090	-0.405665
H343	H	0.982049	-0.408292	-1.123326
H344	H	1.315383	-0.074959	-0.789993
H345	H	1.648716	0.258375	-0.456659
O346	O	0.988749	-0.415696	-0.532686
O347	O	1.322082	-0.082363	-0.199353
O348	O	1.655416	0.250970	0.133981
H349	H	1.016602	-0.445778	-0.566440
H350	H	1.349935	-0.112445	-0.233107
H351	H	1.683269	0.220889	0.100227
H352	H	0.346503	-0.335627	-0.404591
H353	H	0.679836	-0.002294	-0.071258
H354	H	1.013169	0.331039	0.262075
