data_functionalizedCrystal
_audit_creation_method	'MofGen! by Chris Wilmer'
_symmetry_space_group_name_H-M	'P1'
_symmetry_Int_Tables_number	1
_symmetry_cell_setting	triclinic
loop_
_symmetry_equiv_pos_as_xyz
  x,y,z
_cell_length_a	16.120490
_cell_length_b	16.120484
_cell_length_c	13.032268
_cell_angle_alpha	99.642751
_cell_angle_beta	94.644414
_cell_angle_gamma	90.164100
loop_
_atom_site_label
_atom_site_type_symbol
_atom_site_fract_x
_atom_site_fract_y
_atom_site_fract_z
Zn1	Zn	1.180629	-0.462311	-0.695115
Zn2	Zn	1.680629	0.037689	-0.195115
Zn3	Zn	1.191135	-0.585432	-0.528856
Zn4	Zn	1.691135	-0.085432	-0.028856
Zn5	Zn	1.061103	-0.437644	-0.511240
Zn6	Zn	1.561103	0.062356	-0.011240
Zn7	Zn	1.034582	-0.594165	-0.694163
Zn8	Zn	1.534582	-0.094165	-0.194163
O9	O	1.116862	-0.519888	-0.607343
O10	O	1.616862	-0.019888	-0.107343
O11	O	1.297563	-0.485312	-0.680830
O12	O	1.797563	0.014688	-0.180830
O13	O	1.189382	-0.551850	-0.380385
O14	O	1.689382	-0.051850	0.119615
O15	O	1.083660	-0.323885	-0.528657
O16	O	1.583660	0.176115	-0.028657
O17	O	1.305282	-0.575769	-0.558681
O18	O	1.805282	-0.075769	-0.058681
O19	O	1.171476	-0.342007	-0.663749
O20	O	1.671476	0.157993	-0.163749
O21	O	1.093847	-0.443270	-0.367443
O22	O	1.593847	0.056730	0.132557
O23	O	0.942045	-0.451738	-0.527735
O24	O	1.442045	0.048262	-0.027735
O25	O	1.038460	-0.590652	-0.840423
O26	O	1.538460	-0.090652	-0.340423
O27	O	0.922560	-0.566733	-0.662128
O28	O	1.422560	-0.066733	-0.162128
O29	O	1.145760	-0.493779	-0.841122
O30	O	1.645760	0.006221	-0.341122
O31	O	1.163666	-0.703622	-0.557758
O32	O	1.663666	-0.203622	-0.057758
O33	O	1.048647	-0.710038	-0.679209
O34	O	1.548647	-0.210038	-0.179209
C35	C	0.902344	-0.507507	-0.592917
C36	C	1.402344	-0.007507	-0.092917
C37	C	0.810568	-0.502233	-0.586771
C38	C	1.310568	-0.002233	-0.086771
C39	C	0.592026	-0.547239	-0.639223
C40	C	1.092026	-0.047239	-0.139223
C41	C	0.642537	-0.492611	-0.575550
C42	C	1.142537	0.007389	-0.075550
C43	C	0.736038	-0.497966	-0.581795
C44	C	1.236038	0.002034	-0.081795
C45	C	0.498516	-0.541885	-0.632979
C46	C	0.998516	-0.041885	-0.132979
C47	C	1.104439	-0.737178	-0.620316
C48	C	1.604439	-0.237178	-0.120316
C49	C	1.099196	-0.830144	-0.625906
C50	C	1.599196	-0.330144	-0.125906
C51	C	1.089626	-1.000355	-0.636133
C52	C	1.589626	-0.500355	-0.136133
C53	C	1.144245	-1.038591	-0.578581
C54	C	1.644245	-0.538591	-0.078581
C55	C	1.138920	-1.133302	-0.584271
C56	C	1.638920	-0.633302	-0.084271
C57	C	1.094949	-0.905635	-0.630444
C58	C	1.594949	-0.405635	-0.130444
C59	C	1.332218	-0.532318	-0.621827
C60	C	1.832218	-0.032318	-0.121827
C61	C	1.423990	-0.537615	-0.627999
C62	C	1.923990	-0.037615	-0.127999
C63	C	1.087980	-0.545941	-0.879723
C64	C	1.587980	-0.045941	-0.379723
C65	C	1.075672	-0.557044	-0.995795
C66	C	1.575672	-0.057044	-0.495795
C67	C	1.129354	-0.301753	-0.594344
C68	C	1.629354	0.198247	-0.094344
C69	C	1.134678	-0.208796	-0.588805
C70	C	1.634678	0.291204	-0.088805
C71	C	1.123275	-0.514063	-1.047890
C72	C	1.623275	-0.014063	-0.547890
C73	C	1.110555	-0.525537	-1.167856
C74	C	1.610555	-0.025537	-0.667856
C75	C	1.145683	-0.493878	-0.336023
C76	C	1.645683	0.006122	0.163977
C77	C	1.158164	-0.482550	-0.219948
C78	C	1.658164	0.017450	0.280052
H79	H	1.195004	-1.000195	-0.525035
H80	H	1.695004	-0.500195	-0.025035
H81	H	0.619003	-0.598026	-0.698421
H82	H	1.119003	-0.098026	-0.198421
C83	C	0.606103	-0.424000	-0.495563
C84	C	1.106103	0.076000	0.004437
H85	H	0.650092	-0.390427	-0.456437
H86	H	1.150092	0.109573	0.043563
H87	H	0.575455	-0.449692	-0.449705
H88	H	1.075455	0.050308	0.050295
H89	H	0.570290	-0.389544	-0.531210
H90	H	1.070290	0.110456	-0.031210
H91	H	1.173443	-0.468768	-1.003675
H92	H	1.673443	0.031232	-0.503675
H93	H	1.038870	-1.038747	-0.689673
H94	H	1.538870	-0.538747	-0.189673
H95	H	1.060376	-0.570826	-1.212066
H96	H	1.560376	-0.070826	-0.712066
C97	C	1.225946	-0.421359	-1.160234
C98	C	1.725946	0.078641	-0.660234
H99	H	1.225609	-0.421677	-1.087437
H100	H	1.725609	0.078323	-0.587437
H101	H	1.215206	-0.366164	-1.173899
H102	H	1.715206	0.133836	-0.673899
H103	H	1.278847	-0.438500	-1.182518
H104	H	1.778847	0.061500	-0.682518
H105	H	1.025496	-0.602330	-1.040009
H106	H	1.525496	-0.102330	-0.540009
