data_functionalizedCrystal
_audit_creation_method	'MofGen! by Chris Wilmer'
_symmetry_space_group_name_H-M	'P1'
_symmetry_Int_Tables_number	1
_symmetry_cell_setting	triclinic
loop_
_symmetry_equiv_pos_as_xyz
  x,y,z
_cell_length_a	9.065218
_cell_length_b	19.288865
_cell_length_c	18.366186
_cell_angle_alpha	89.993214
_cell_angle_beta	90.006491
_cell_angle_gamma	95.923934
loop_
_atom_site_label
_atom_site_type_symbol
_atom_site_fract_x
_atom_site_fract_y
_atom_site_fract_z
O1	O	1.956839	-0.101837	0.060561
O2	O	2.456839	0.398163	0.560561
O3	O	1.527261	-0.110191	0.060563
O4	O	2.027261	0.389809	0.560563
O5	O	1.754463	-0.004980	0.060548
O6	O	2.254463	0.495020	0.560548
O7	O	1.729637	-0.207048	0.060577
O8	O	2.229637	0.292952	0.560577
O9	O	1.754433	-0.004984	-0.060552
O10	O	2.254433	0.495016	0.439448
O11	O	1.527232	-0.110194	-0.060536
O12	O	2.027232	0.389806	0.439464
O13	O	1.956809	-0.101841	-0.060538
O14	O	2.456809	0.398159	0.439462
Zn15	Zn	1.742016	-0.106018	-0.079764
Zn16	Zn	2.242016	0.393982	0.420236
Zn17	Zn	1.742055	-0.106014	0.079789
Zn18	Zn	2.242055	0.393986	0.579789
O19	O	1.729608	-0.207052	-0.060523
O20	O	2.229608	0.292948	0.439477
C21	C	1.472288	-0.109390	0.000014
C22	C	1.972288	0.390610	0.500014
C23	C	1.308529	-0.106989	0.000014
C24	C	1.808529	0.393011	0.500014
C25	C	1.753649	0.020901	-0.000004
C26	C	2.253649	0.520901	0.499996
C27	C	1.751251	0.098023	-0.000010
C28	C	2.251251	0.598023	0.499990
N29	N	1.742000	-0.106021	-0.188655
N30	N	2.242000	0.393979	0.311345
C31	C	2.011782	-0.102642	0.000013
C32	C	2.511782	0.397358	0.500013
C33	C	2.175541	-0.105043	0.000018
C34	C	2.675541	0.394957	0.500018
C35	C	1.730421	-0.232933	0.000031
C36	C	2.230421	0.267067	0.500031
C37	C	1.732819	-0.310055	0.000042
C38	C	2.232819	0.189945	0.500042
C39	C	1.884563	0.141684	-0.000015
C40	C	2.384563	0.641684	0.499985
C41	C	1.882310	0.214149	-0.000003
C42	C	2.382310	0.714149	0.499997
C43	C	1.746738	0.242949	-0.000002
C44	C	2.246738	0.742949	0.499998
C45	C	1.613409	0.199278	0.000006
C46	C	2.113409	0.699278	0.500006
C47	C	1.615666	0.126815	0.000002
C48	C	2.115666	0.626815	0.500002
C49	C	1.640153	0.352062	-0.042420
C50	C	2.140153	0.852062	0.457580
C51	C	1.637902	0.424524	-0.042420
C52	C	2.137902	0.924524	0.457580
C53	C	1.739773	0.466448	0.000014
C54	C	2.239773	0.966448	0.500014
C55	C	1.843920	0.435903	0.042440
C56	C	2.343920	0.935903	0.542440
C57	C	1.846176	0.363440	0.042436
C58	C	2.346176	0.863440	0.542436
C59	C	1.744276	0.321522	0.000003
C60	C	2.244276	0.821522	0.500003
C61	C	1.870651	0.588685	0.000024
C62	C	2.370651	1.088685	0.500024
C63	C	1.868392	0.661150	0.000040
C64	C	2.368392	1.161150	0.500040
C65	C	1.599488	0.646278	0.000042
C66	C	2.099488	1.146278	0.500042
C67	C	1.601750	0.573814	0.000033
C68	C	2.101750	1.073814	0.500033
C69	C	1.737335	0.545022	0.000021
C70	C	2.237335	1.045022	0.500021
C71	C	1.831269	-0.148712	-0.773199
C72	C	2.331269	0.351288	-0.273199
C73	C	1.831254	-0.148719	-0.696971
C74	C	2.331254	0.351281	-0.196971
C75	C	1.742068	-0.106006	-0.658867
C76	C	2.242068	0.393994	-0.158867
C77	C	1.652863	-0.063297	-0.696996
C78	C	2.152863	0.436703	-0.196996
C79	C	1.652870	-0.063297	-0.773223
C80	C	2.152870	0.436703	-0.273223
C81	C	1.738401	-0.043353	-0.538109
C82	C	2.238401	0.456647	-0.038109
C83	C	1.738405	-0.043352	-0.461884
C84	C	2.238405	0.456648	0.038116
C85	C	1.742039	-0.106008	-0.423759
C86	C	2.242039	0.393992	0.076241
C87	C	1.745701	-0.168666	-0.461868
C88	C	2.245701	0.331334	0.038132
C89	C	1.745707	-0.168665	-0.538095
C90	C	2.245707	0.331335	-0.038095
C91	C	1.742051	-0.106002	-0.576212
C92	C	2.242051	0.393998	-0.076212
C93	C	1.831214	-0.148725	-0.302984
C94	C	2.331214	0.351275	0.197016
C95	C	1.831189	-0.148733	-0.226755
C96	C	2.331189	0.351267	0.273245
C97	C	1.652806	-0.063305	-0.226781
C98	C	2.152806	0.436695	0.273219
C99	C	1.652824	-0.063303	-0.303009
C100	C	2.152824	0.436697	0.196991
C101	C	1.742036	-0.106012	-0.341106
C102	C	2.242036	0.393988	0.158894
N103	N	1.742082	-0.106005	0.188681
N104	N	2.242082	0.393995	0.688681
H105	H	1.994967	0.118247	-0.000022
H106	H	2.494967	0.618247	0.499978
H107	H	1.503025	0.222732	0.000009
H108	H	2.003025	0.722732	0.500009
H109	H	1.926873	0.470037	0.076995
H110	H	2.426873	0.970037	0.576995
C111	C	2.015054	0.709178	0.000031
C112	C	2.515054	1.209178	0.500031
N113	N	2.125522	0.745354	0.000022
N114	N	2.625522	1.245354	0.500022
H115	H	1.580244	-0.028522	-0.665967
H116	H	2.080244	0.471478	-0.165967
H117	H	1.990872	0.249704	-0.000004
H118	H	2.490872	0.749704	0.499996
H119	H	1.748685	-0.219683	-0.569120
H120	H	2.248685	0.280317	-0.069120
H121	H	1.748661	-0.219686	-0.430828
H122	H	2.248661	0.280314	0.069172
H123	H	1.489102	0.669726	0.000046
H124	H	1.989102	1.169726	0.500046
H125	H	1.735434	0.007668	-0.430862
H126	H	2.235434	0.507668	0.069138
H127	H	1.903849	-0.183504	-0.334004
H128	H	2.403849	0.316496	0.165996
C129	C	1.929308	-0.195716	-0.184822
C130	C	2.429308	0.304284	0.315178
N131	N	2.003217	-0.231103	-0.153238
N132	N	2.503217	0.268897	0.346762
C133	C	1.469006	0.078785	0.000004
C134	C	1.969006	0.578785	0.500004
N135	N	1.358539	0.042608	0.000005
N136	N	1.858539	0.542608	0.500005
C137	C	1.554656	-0.016341	-0.184871
C138	C	2.054656	0.483659	0.315129
N139	N	1.480709	0.019025	-0.153300
N140	N	1.980709	0.519025	0.346700
H141	H	1.735428	0.007671	-0.569145
H142	H	2.235428	0.507671	-0.069145
H143	H	1.903879	-0.183498	-0.665928
H144	H	2.403879	0.316502	-0.165928
H145	H	1.580204	-0.028524	-0.334047
H146	H	2.080204	0.471476	0.165953
H147	H	1.580240	-0.028519	-0.804260
H148	H	2.080240	0.471481	-0.304260
H149	H	1.981053	0.565241	0.000017
H150	H	2.481053	1.065241	0.500017
C151	C	1.960725	0.329842	0.089108
C152	C	2.460725	0.829842	0.589108
N153	N	2.047000	0.304536	0.124266
N154	N	2.547000	0.804536	0.624266
H155	H	1.493193	0.538264	0.000032
H156	H	1.993193	1.038264	0.500032
C157	C	1.523339	0.458117	-0.089089
C158	C	2.023339	0.958117	0.410911
N159	N	1.437044	0.483418	-0.124240
N160	N	1.937044	0.983418	0.375760
H161	H	1.557193	0.317933	-0.076979
H162	H	2.057193	0.817933	0.423021
H163	H	1.903910	-0.183490	-0.804213
H164	H	2.403910	0.316510	-0.304213
