data_functionalizedCrystal
_audit_creation_method	'MofGen! by Chris Wilmer'
_symmetry_space_group_name_H-M	'P1'
_symmetry_Int_Tables_number	1
_symmetry_cell_setting	triclinic
loop_
_symmetry_equiv_pos_as_xyz
  x,y,z
_cell_length_a	21.295417
_cell_length_b	13.033293
_cell_length_c	13.032268
_cell_angle_alpha	89.079182
_cell_angle_beta	97.140648
_cell_angle_gamma	97.199348
loop_
_atom_site_label
_atom_site_type_symbol
_atom_site_fract_x
_atom_site_fract_y
_atom_site_fract_z
Zn1	Zn	-0.195846	1.498395	-0.781439
Zn2	Zn	0.304154	1.998395	-0.281439
Zn3	Zn	-0.286309	1.520106	-0.609445
Zn4	Zn	0.213691	2.020106	-0.109445
Zn5	Zn	-0.192522	1.348256	-0.587615
Zn6	Zn	0.307478	1.848256	-0.087615
Zn7	Zn	-0.312551	1.326348	-0.759479
Zn8	Zn	0.187449	1.826348	-0.259479
O9	O	-0.246807	1.423276	-0.684495
O10	O	0.253193	1.923276	-0.184495
O11	O	-0.198255	1.645197	-0.776949
O12	O	0.301745	2.145197	-0.276949
O13	O	-0.261495	1.515565	-0.462644
O14	O	0.238505	2.015565	0.037356
O15	O	-0.104872	1.368254	-0.613380
O16	O	0.395128	1.868254	-0.113380
O17	O	-0.264718	1.661148	-0.650587
O18	O	0.235282	2.161148	-0.150587
O19	O	-0.107314	1.478561	-0.755781
O20	O	0.392686	1.978561	-0.255781
O21	O	-0.192590	1.389307	-0.446605
O22	O	0.307410	1.889307	0.053395
O23	O	-0.218035	1.201428	-0.592087
O24	O	0.281965	1.701428	-0.092087
O25	O	-0.309443	1.330915	-0.906298
O26	O	0.190557	1.830915	-0.406298
O27	O	-0.306220	1.185332	-0.718355
O28	O	0.193780	1.685332	-0.218355
O29	O	-0.223701	1.457317	-0.922431
O30	O	0.276299	1.957317	-0.422431
O31	O	-0.377882	1.494322	-0.629294
O32	O	0.122118	1.994322	-0.129294
O33	O	-0.397162	1.351968	-0.739523
O34	O	0.102838	1.851968	-0.239523
C35	C	-0.264615	1.156062	-0.650470
C36	C	0.235385	1.656062	-0.150470
C37	C	-0.272251	1.041744	-0.635939
C38	C	0.227749	1.541744	-0.135939
C39	C	-0.242838	0.982873	-0.692079
C40	C	0.257162	1.482873	-0.192079
C41	C	-0.250729	0.864718	-0.677061
C42	C	0.249271	1.364718	-0.177061
C43	C	-0.410363	1.423149	-0.684420
C44	C	0.089637	1.923149	-0.184420
C45	C	-0.480330	1.423184	-0.684435
C46	C	0.019670	1.923184	-0.184435
C47	C	-0.503138	1.497357	-0.627113
C48	C	-0.003138	1.997357	-0.127113
C49	C	-0.568880	1.497402	-0.627143
C50	C	-0.068880	1.997402	-0.127143
C51	C	-0.611810	1.423257	-0.684481
C52	C	-0.111810	1.923257	-0.184481
C53	C	-0.588995	1.349078	-0.741814
C54	C	-0.088995	1.849078	-0.241814
C55	C	-0.523254	1.349041	-0.741792
C56	C	-0.023254	1.849041	-0.241792
N57	N	-0.721751	1.332291	-0.680864
N58	N	-0.221751	1.832291	-0.180864
N59	N	-0.784201	1.332329	-0.680880
N60	N	-0.284201	1.832329	-0.180880
C61	C	-0.809882	1.423365	-0.684554
C62	C	-0.309882	1.923365	-0.184554
N63	N	-0.770752	1.514365	-0.688192
N64	N	-0.270752	2.014365	-0.188192
N65	N	-0.708297	1.514326	-0.688171
N66	N	-0.208297	2.014326	-0.188171
C67	C	-0.683095	1.423289	-0.684512
C68	C	-0.183095	1.923289	-0.184512
C69	C	-0.903974	1.497593	-0.627261
C70	C	-0.403974	1.997593	-0.127261
C71	C	-0.969717	1.497639	-0.627298
C72	C	-0.469717	1.997639	-0.127298
C73	C	-0.989831	1.349306	-0.741963
C74	C	-0.489831	1.849306	-0.241963
C75	C	-0.924089	1.349269	-0.741933
C76	C	-0.424089	1.849269	-0.241933
C77	C	-0.881164	1.423412	-0.684577
C78	C	-0.381164	1.923412	-0.184577
C79	C	-0.082613	1.423429	-0.684595
C80	C	0.417387	1.923429	-0.184595
C81	C	-0.012643	1.423495	-0.684638
C82	C	0.487357	1.923495	-0.184638
C83	C	-0.269870	1.389251	-0.952721
C84	C	0.230130	1.889251	-0.452721
C85	C	-0.279698	1.374751	-1.067023
C86	C	0.220302	1.874751	-0.567023
C87	C	-0.228930	1.691533	-0.718653
C88	C	0.271070	2.191533	-0.218653
C89	C	-0.221312	1.805848	-0.733209
C90	C	0.278688	2.305848	-0.233209
C91	C	-0.241656	1.430828	-1.125965
C92	C	0.258344	1.930828	-0.625965
C93	C	-0.251813	1.415843	-1.244103
C94	C	0.248187	1.915843	-0.744103
C95	C	-0.223785	1.457229	-0.417319
C96	C	0.276215	1.957229	0.082681
C97	C	-0.213766	1.471928	-0.303043
C98	C	0.286234	1.971928	0.196957
H99	H	-0.190283	0.842914	-0.792389
H100	H	0.309717	1.342914	-0.292389
H101	H	-0.623953	1.288710	-0.788501
H102	H	-0.123953	1.788710	-0.288501
H103	H	-0.173671	1.531029	-1.266050
H104	H	0.326329	2.031029	-0.766050
H105	H	-0.869023	1.557968	-0.580562
H106	H	-0.369023	2.057968	-0.080562
C107	C	-0.333141	1.296034	-1.116545
C108	C	0.166859	1.796034	-0.616545
C109	C	-0.332605	1.296848	-1.223878
C110	C	0.167395	1.796848	-0.723878
C111	C	-0.381835	1.224358	-1.269529
C112	C	0.118165	1.724358	-0.769529
H113	H	-0.327093	1.229090	-1.090318
H114	H	0.172907	1.729090	-0.590318
H115	H	-0.372953	1.313265	-1.100942
H116	H	0.127047	1.813265	-0.600942
H117	H	-0.292803	1.279610	-1.239473
H118	H	0.207197	1.779610	-0.739473
H119	H	-0.338662	1.363774	-1.250134
H120	H	0.161338	1.863774	-0.750134
H121	H	-0.421647	1.241590	-1.253927
H122	H	0.078353	1.741590	-0.753927
H123	H	-0.375782	1.157420	-1.243295
H124	H	0.124218	1.657420	-0.743295
H125	H	-0.381482	1.224908	-1.342360
H126	H	0.118518	1.724908	-0.842360
H127	H	-0.291901	1.356729	-1.281096
H128	H	0.208099	1.856729	-0.781096
C129	C	-0.201360	1.032249	-0.770865
C130	C	0.298640	1.532249	-0.270865
C131	C	-0.138869	1.009063	-0.745368
C132	C	0.361131	1.509063	-0.245368
C133	C	-0.100640	1.054538	-0.817917
C134	C	0.399360	1.554538	-0.317917
H135	H	-0.217660	1.005979	-0.837758
H136	H	0.282340	1.505979	-0.337758
H137	H	-0.201510	1.105105	-0.770465
H138	H	0.298490	1.605105	-0.270465
H139	H	-0.138721	0.936222	-0.745778
H140	H	0.361279	1.436222	-0.245778
H141	H	-0.122550	1.035335	-0.678486
H142	H	0.377450	1.535335	-0.178486
H143	H	-0.100790	1.127394	-0.817518
H144	H	0.399210	1.627394	-0.317518
H145	H	-0.116945	1.028264	-0.884807
H146	H	0.383055	1.528264	-0.384807
H147	H	-0.058234	1.038821	-0.800623
H148	H	0.441766	1.538821	-0.300623
H149	H	-0.201566	1.489927	-1.088967
H150	H	0.298434	1.989927	-0.588967
C151	C	-0.292196	0.815229	-0.598307
C152	C	0.207804	1.315229	-0.098307
C153	C	-0.341694	0.746185	-0.648633
C154	C	0.158306	1.246185	-0.148633
C155	C	-0.379910	0.700587	-0.576123
C156	C	0.120090	1.200587	-0.076123
H157	H	-0.267084	0.778917	-0.548252
H158	H	0.232916	1.278917	-0.048252
H159	H	-0.309667	0.867452	-0.565047
H160	H	0.190333	1.367452	-0.065047
H161	H	-0.324223	0.693970	-0.681876
H162	H	0.175777	1.193970	-0.181876
H163	H	-0.366822	0.782472	-0.698682
H164	H	0.133178	1.282472	-0.198682
H165	H	-0.397381	0.752809	-0.542864
H166	H	0.102619	1.252809	-0.042864
H167	H	-0.354792	0.664280	-0.526073
H168	H	0.145208	1.164280	-0.026073
H169	H	-0.413501	0.653742	-0.610260
H170	H	0.086499	1.153742	-0.110260
H171	H	-0.504684	1.288639	-0.788471
H172	H	-0.004684	1.788639	-0.288471
H173	H	-0.303272	1.004674	-0.576755
H174	H	0.196728	1.504674	-0.076755
H175	H	-0.468190	1.557731	-0.580413
H176	H	0.031810	2.057731	-0.080413
H177	H	-0.587454	1.557807	-0.580465
H178	H	-0.087454	2.057807	-0.080465
H179	H	-1.024785	1.288940	-0.788654
H180	H	-0.524785	1.788940	-0.288654
C181	C	-0.994357	1.578230	-0.564952
C182	C	-0.494357	2.078230	-0.064952
C183	C	-0.942691	1.643131	-0.514699
C184	C	-0.442691	2.143131	-0.014699
C185	C	-0.965365	1.717374	-0.457245
C186	C	-0.465365	2.217374	0.042755
H187	H	-1.020350	1.618141	-0.609932
H188	H	-0.520350	2.118141	-0.109932
H189	H	-1.018785	1.544652	-0.515070
H190	H	-0.518785	2.044652	-0.015070
H191	H	-0.918274	1.676707	-0.564575
H192	H	-0.418274	2.176707	-0.064575
H193	H	-0.916694	1.603249	-0.469701
H194	H	-0.416694	2.103249	0.030299
H195	H	-0.989794	1.683796	-0.407362
H196	H	-0.489794	2.183796	0.092638
H197	H	-0.991358	1.757278	-0.502232
H198	H	-0.491358	2.257278	-0.002232
H199	H	-0.930314	1.761412	-0.423133
H200	H	-0.430314	2.261412	0.076867
C201	C	-0.899446	1.268608	-0.804181
C202	C	-0.399446	1.768608	-0.304181
C203	C	-0.951110	1.203665	-0.854381
C204	C	-0.451110	1.703665	-0.354381
C205	C	-0.928434	1.129338	-0.911726
C206	C	-0.428434	1.629338	-0.411726
H207	H	-0.875012	1.302082	-0.854093
H208	H	-0.375012	1.802082	-0.354093
H209	H	-0.873457	1.228752	-0.759107
H210	H	-0.373457	1.728752	-0.259107
H211	H	-0.977088	1.243516	-0.899451
H212	H	-0.477088	1.743516	-0.399451
H213	H	-0.975549	1.170167	-0.804494
H214	H	-0.475549	1.670167	-0.304494
H215	H	-0.902445	1.089482	-0.866653
H216	H	-0.402445	1.589482	-0.366653
H217	H	-0.904001	1.162821	-0.961632
H218	H	-0.404001	1.662821	-0.461632
H219	H	-0.963484	1.085260	-0.945786
H220	H	-0.463484	1.585260	-0.445786
