data_functionalizedCrystal
_audit_creation_method	'MofGen! by Chris Wilmer'
_symmetry_space_group_name_H-M	'P1'
_symmetry_Int_Tables_number	1
_symmetry_cell_setting	triclinic
loop_
_symmetry_equiv_pos_as_xyz
  x,y,z
_cell_length_a	10.489741
_cell_length_b	10.654550
_cell_length_c	9.130313
_cell_angle_alpha	90.003780
_cell_angle_beta	89.999004
_cell_angle_gamma	95.487962
loop_
_atom_site_label
_atom_site_type_symbol
_atom_site_fract_x
_atom_site_fract_y
_atom_site_fract_z
O1	O	0.179156	-1.667918	-0.121919
O2	O	0.196226	-1.302447	-0.121895
O3	O	0.002089	-1.493499	-0.121899
O4	O	0.373293	-1.476867	-0.121915
O5	O	0.002094	-1.493497	0.121700
O6	O	0.196231	-1.302445	0.121703
O7	O	0.179161	-1.667916	0.121680
Cu8	Cu	0.187697	-1.485180	0.143934
Cu9	Cu	0.187690	-1.485183	-0.144150
O10	O	0.373298	-1.476864	0.121683
C11	C	0.194975	-1.255648	-0.000093
C12	C	0.191225	-1.116203	-0.000084
C13	C	-0.045439	-1.492241	-0.000100
C14	C	-0.187067	-1.488483	-0.000103
C15	C	0.180412	-1.714715	-0.000126
C16	C	0.184162	-1.854160	-0.000145
C17	C	-0.255148	-1.366923	-0.000106
C18	C	-0.347296	-1.424346	0.119997
C19	C	-0.347276	-1.424377	-0.120172
C20	C	-0.277349	-1.545956	0.120099
C21	C	-0.277320	-1.545970	-0.120178
C22	C	-0.369440	-1.603481	-0.000045
C23	C	0.420826	-1.478122	-0.000118
C24	C	0.562454	-1.481880	-0.000126
N25	N	0.187700	-1.485187	0.346557
C26	C	0.305530	-1.036771	-0.000110
C27	C	0.301999	-0.905748	-0.000135
C28	C	0.069849	-0.933603	-0.000114
C29	C	0.073381	-1.064623	-0.000078
C30	C	0.439560	-1.020688	-0.000129
C31	C	0.436029	-0.889665	-0.000154
N32	N	0.187677	-1.485186	-0.346772
C33	C	0.101766	-1.569807	0.423207
C34	C	0.101751	-1.569803	0.576544
C35	C	0.273615	-1.400557	0.576567
C36	C	0.273623	-1.400555	0.423232
C37	C	0.002545	-1.667524	0.423195
C38	C	0.002530	-1.667520	0.576532
H39	H	-0.205449	-1.266977	0.000022
H40	H	-0.019697	-1.129293	-0.000036
C41	C	0.368255	-1.307564	0.338922
N42	N	0.439576	-1.237559	0.275421
C43	C	-0.059773	-0.876852	-0.000116
N44	N	-0.157408	-0.834108	-0.000120
H45	H	-0.378281	-1.372910	0.221542
H46	H	-0.246540	-1.597345	0.221751
C47	C	0.368123	-1.307465	0.660924
N48	N	0.439309	-1.237346	0.724461
H49	H	-0.418912	-1.703518	0.000015
C50	C	0.490779	-0.827980	0.141903
N51	N	0.532025	-0.781516	0.248894
C52	C	-0.235410	-1.615398	-0.257369
N53	N	-0.203841	-1.667682	-0.360714
C54	C	0.504237	-0.833315	-0.137895
N55	N	0.555607	-0.790874	-0.241640
C56	C	0.044507	-1.790730	0.358929
N57	N	0.076113	-1.883531	0.310522
C58	C	0.032153	-1.797883	0.632751
N59	N	0.054502	-1.896058	0.675094
H60	H	-0.090122	-1.636964	0.624085
H61	H	0.482235	-1.056364	-0.105303
H62	H	-0.378217	-1.372927	-0.221719
H63	H	0.491981	-1.050043	0.101820
H64	H	-0.095500	-1.646035	0.381581
