data_functionalizedCrystal
_audit_creation_method	'MofGen! by Chris Wilmer'
_symmetry_space_group_name_H-M	'P1'
_symmetry_Int_Tables_number	1
_symmetry_cell_setting	triclinic
loop_
_symmetry_equiv_pos_as_xyz
  x,y,z
_cell_length_a	19.288864
_cell_length_b	15.021413
_cell_length_c	19.288857
_cell_angle_alpha	89.998145
_cell_angle_beta	83.134677
_cell_angle_gamma	90.021132
loop_
_atom_site_label
_atom_site_type_symbol
_atom_site_fract_x
_atom_site_fract_y
_atom_site_fract_z
O1	O	0.921350	0.074322	0.086639
O2	O	0.719089	0.074261	0.098327
O3	O	0.826067	0.074283	-0.008648
O4	O	0.814372	0.074300	0.193614
O5	O	0.826049	-0.073782	-0.008632
O6	O	0.719072	-0.073803	0.098343
O7	O	0.921333	-0.073743	0.086654
Zn8	Zn	0.820200	-0.097281	0.092501
Zn9	Zn	0.820222	0.097800	0.092481
O10	O	0.814355	-0.073764	0.193629
C11	C	0.693204	0.000221	0.097959
C12	C	0.616100	0.000198	0.096830
N13	N	0.820189	-0.230419	0.092514
C14	C	0.571402	0.000218	0.159598
C15	C	0.498955	0.000227	0.158537
C16	C	0.471210	0.000235	0.094705
C17	C	0.515917	0.000211	0.031929
C18	C	0.588363	0.000192	0.032991
C19	C	0.362955	0.052134	0.044520
C20	C	0.290510	0.052158	0.043461
C21	C	0.247764	0.000289	0.091425
C22	C	0.277469	-0.051593	0.140462
C23	C	0.349915	-0.051612	0.141524
C24	C	0.392656	0.000255	0.093546
C25	C	0.124510	0.000318	0.153048
C26	C	0.052062	0.000322	0.151984
C27	C	0.069026	0.000315	0.025374
C28	C	0.141472	0.000301	0.026439
C29	C	0.169210	0.000307	0.090278
C30	C	0.770715	-0.470112	0.141956
C31	C	0.833436	-0.529426	0.155241
C32	C	0.820207	-0.412026	0.092497
C33	C	0.757503	-0.529453	0.079227
C34	C	0.820219	-0.587450	0.092481
C35	C	0.882960	-0.470033	0.105813
C36	C	0.806985	-0.470055	0.029772
C37	C	0.869752	-0.529343	0.043030
C38	C	0.820200	-0.310968	0.092507
C39	C	0.820234	-0.688505	0.092470
C40	C	0.947218	0.000299	0.087022
C41	C	1.024321	0.000329	0.088151
C42	C	0.825683	0.000250	-0.034517
C43	C	0.824556	0.000247	-0.111620
N44	N	0.820238	0.230938	0.092462
C45	C	0.824039	0.080956	-0.147839
C46	C	0.822970	0.080963	-0.220285
C47	C	0.822432	0.000255	-0.256512
C48	C	0.822945	-0.080466	-0.220283
C49	C	0.824007	-0.080470	-0.147838
C50	C	0.861427	-0.061561	-0.376737
C51	C	0.860369	-0.061553	-0.449181
C52	C	0.819155	0.000264	-0.479957
C53	C	0.779006	0.062089	-0.438281
C54	C	0.780068	0.062085	-0.365835
C55	C	0.821281	0.000250	-0.335067
C56	C	0.817478	0.080986	-0.594730
C57	C	0.816405	0.080989	-0.667177
C58	C	0.816387	-0.080442	-0.667175
C59	C	0.817453	-0.080443	-0.594728
C60	C	0.818002	0.000274	-0.558511
C61	C	0.814739	0.000271	0.219498
C62	C	0.815866	0.000280	0.296602
H63	H	0.593981	0.000224	0.211581
H64	H	0.397754	0.094378	0.005460
N65	N	0.485997	0.000209	-0.036920
H66	H	0.433320	0.000225	-0.028069
H67	H	0.502389	0.055090	-0.064388
H68	H	0.266330	0.094408	0.003535
N69	N	0.792138	-0.435469	-0.040459
H70	H	0.829026	-0.457954	-0.077933
H71	H	0.744714	-0.457051	-0.050372
N72	N	0.848258	-0.563977	0.225495
H73	H	0.848603	-0.631208	0.224825
H74	H	0.895250	-0.541371	0.235860
N75	N	0.815906	0.168044	-0.706254
H76	H	0.816437	0.219173	-0.672317
H77	H	0.858535	0.171512	-0.742058
N78	N	0.903674	-0.128227	-0.494130
H79	H	0.929938	-0.167396	-0.463641
H80	H	0.872020	-0.166204	-0.520009
H81	H	0.704471	-0.555556	0.068011
N82	N	0.715331	-0.435665	0.197404
H83	H	0.737875	-0.397730	0.231701
H84	H	0.680521	-0.398717	0.174760
N85	N	0.953226	-0.435617	0.120751
H86	H	0.952782	-0.368383	0.120685
H87	H	0.963291	-0.457802	0.167953
N88	N	0.925252	-0.563585	-0.012387
H89	H	0.972573	-0.541852	-0.002277
H90	H	0.924623	-0.630815	-0.012334
N91	N	0.636578	0.000167	-0.034711
H92	H	0.608012	0.000169	-0.075312
H93	H	0.667030	0.055049	-0.037036
H94	H	0.824484	0.146682	-0.118355
N95	N	0.822408	0.168017	-0.259361
H96	H	0.822915	0.219148	-0.225424
H97	H	0.865018	0.171541	-0.295187
H98	H	0.462555	0.000241	0.209652
H99	H	0.374098	-0.093859	0.181450
N100	N	0.736768	0.128758	-0.320883
H101	H	0.710495	0.167923	-0.351367
H102	H	0.702455	0.096154	-0.286171
N103	N	0.734552	0.128773	-0.471463
H104	H	0.739967	0.119395	-0.523680
H105	H	0.683990	0.120479	-0.451998
H106	H	0.817921	0.146710	-0.565240
N107	N	0.815810	-0.167496	-0.706234
H108	H	0.772943	-0.202795	-0.687858
H109	H	0.815085	-0.155178	-0.757616
H110	H	0.817879	-0.146165	-0.565239
N111	N	0.905881	-0.128241	-0.343546
H112	H	0.931157	-0.167399	-0.380939
H113	H	0.941075	-0.095642	-0.318143
H114	H	0.242666	-0.093831	0.179519
N115	N	0.154428	0.000312	0.221901
H116	H	0.184086	-0.054580	0.225168
H117	H	0.184095	0.055231	0.225119
N118	N	0.003869	0.000290	0.219702
H119	H	0.012786	0.055165	0.247572
H120	H	-0.046221	0.000246	0.209309
N121	N	0.822371	-0.167517	-0.259351
H122	H	0.778886	-0.171128	-0.283647
H123	H	0.865012	-0.171044	-0.295135
N124	N	0.039111	0.000313	-0.043476
H125	H	-0.013566	0.000325	-0.034626
H126	H	0.055501	0.055196	-0.070941
N127	N	0.189688	0.000280	-0.041261
H128	H	0.161120	0.000285	-0.081861
H129	H	0.220142	0.055160	-0.043586
N130	N	0.824566	-0.167524	-0.108768
H131	H	0.824061	-0.218654	-0.142707
H132	H	0.868058	-0.171028	-0.084480
