data_functionalizedCrystal
_audit_creation_method	'MofGen! by Chris Wilmer'
_symmetry_space_group_name_H-M	'P1'
_symmetry_Int_Tables_number	1
_symmetry_cell_setting	triclinic
loop_
_symmetry_equiv_pos_as_xyz
  x,y,z
_cell_length_a	16.625547
_cell_length_b	16.625547
_cell_length_c	16.625539
_cell_angle_alpha	90.019469
_cell_angle_beta	89.972942
_cell_angle_gamma	89.996613
loop_
_atom_site_label
_atom_site_type_symbol
_atom_site_fract_x
_atom_site_fract_y
_atom_site_fract_z
Zn1	Zn	-1.232783	-0.321018	0.456099
Zn2	Zn	-0.899450	0.012316	0.789432
Zn3	Zn	-0.566116	0.345649	1.122765
Zn4	Zn	-1.232729	-0.455861	0.321287
Zn5	Zn	-0.899396	-0.122527	0.654620
Zn6	Zn	-0.566062	0.210806	0.987953
Zn7	Zn	-1.097945	-0.321044	0.321264
Zn8	Zn	-0.764611	0.012289	0.654597
Zn9	Zn	-0.431278	0.345623	0.987930
Zn10	Zn	-1.097958	-0.455810	0.456061
Zn11	Zn	-0.764625	-0.122477	0.789394
Zn12	Zn	-0.431291	0.210857	1.122728
O13	O	-1.165354	-0.388433	0.388677
O14	O	-0.832020	-0.055100	0.722011
O15	O	-0.498687	0.278234	1.055344
O16	O	-1.345608	-0.338915	0.438241
O17	O	-1.012275	-0.005582	0.771574
O18	O	-0.678941	0.327752	1.104907
O19	O	-1.214822	-0.438009	0.208451
O20	O	-0.881488	-0.104676	0.541784
O21	O	-0.548155	0.228658	0.875118
O22	O	-1.115848	-0.208208	0.339156
O23	O	-0.782515	0.125125	0.672489
O24	O	-0.449182	0.458459	1.005823
O25	O	-1.345569	-0.437984	0.339195
O26	O	-1.012235	-0.104650	0.672528
O27	O	-0.678902	0.228683	1.005861
O28	O	-1.214913	-0.208189	0.438219
O29	O	-0.881580	0.125145	0.771552
O30	O	-0.548247	0.458478	1.104885
O31	O	-1.115796	-0.338960	0.208434
O32	O	-0.782463	-0.005626	0.541768
O33	O	-0.449129	0.327707	0.875101
O34	O	-0.985114	-0.338911	0.339120
O35	O	-0.651781	-0.005577	0.672453
O36	O	-0.318447	0.327756	1.005786
O37	O	-1.115871	-0.437897	0.568899
O38	O	-0.782538	-0.104564	0.902232
O39	O	-0.449204	0.228769	1.235565
O40	O	-0.985124	-0.437923	0.438155
O41	O	-0.651791	-0.104589	0.771488
O42	O	-0.318457	0.228744	1.104821
O43	O	-1.214926	-0.338866	0.568926
O44	O	-0.881593	-0.005532	0.902259
O45	O	-0.548260	0.327801	1.235593
O46	O	-1.214835	-0.568686	0.339159
O47	O	-0.881501	-0.235353	0.672492
O48	O	-0.548168	0.097980	1.005825
O49	O	-1.115819	-0.568649	0.438177
O50	O	-0.782486	-0.235316	0.771510
O51	O	-0.449152	0.098018	1.104844
C52	C	-0.955863	-0.388415	0.388631
C53	C	-0.622530	-0.055081	0.721965
C54	C	-0.289196	0.278252	1.055298
C55	C	-0.866242	-0.388426	0.388631
C56	C	-0.532908	-0.055093	0.721964
C57	C	-0.199575	0.278241	1.055297
C58	C	-0.793459	-0.388427	0.388638
C59	C	-0.460126	-0.055093	0.721971
C60	C	-0.126793	0.278240	1.055304
C61	C	-0.702151	-0.388430	0.388654
C62	C	-0.368818	-0.055096	0.721988
C63	C	-0.035484	0.278237	1.055321
C64	C	-0.629374	-0.388436	0.388672
C65	C	-0.296041	-0.055103	0.722005
C66	C	0.037292	0.278230	1.055339
C67	C	-0.538060	-0.388441	0.388688
C68	C	-0.204727	-0.055107	0.722021
C69	C	0.128607	0.278226	1.055354
C70	C	-1.165344	-0.597924	0.388684
C71	C	-0.832011	-0.264590	0.722017
C72	C	-0.498678	0.068743	1.055350
C73	C	-1.165414	-0.687545	0.388713
C74	C	-0.832081	-0.354212	0.722047
C75	C	-0.498747	-0.020878	1.055380
C76	C	-0.375663	-0.388449	0.388715
C77	C	-0.042329	-0.055115	0.722048
C78	C	0.291004	0.278218	1.055381
C79	C	-0.465284	-0.388447	0.388705
C80	C	-0.131950	-0.055114	0.722039
C81	C	0.201383	0.278220	1.055372
C82	C	-1.165385	-0.178124	0.388689
C83	C	-0.832052	0.155209	0.722022
C84	C	-0.498719	0.488543	1.055356
C85	C	-1.165399	-0.088503	0.388694
C86	C	-0.832065	0.244830	0.722027
C87	C	-0.498732	0.578164	1.055360
C88	C	-1.165406	-0.388373	0.598986
C89	C	-0.832073	-0.055040	0.932320
C90	C	-0.498739	0.278294	1.265653
C91	C	-1.165428	-0.388347	0.688608
C92	C	-0.832095	-0.055014	1.021941
C93	C	-0.498762	0.278319	1.355274
C94	C	-1.165408	-0.015721	0.388700
C95	C	-0.832075	0.317613	0.722034
C96	C	-0.498741	0.650946	1.055367
C97	C	-1.165412	0.075588	0.388707
C98	C	-0.832078	0.408921	0.722040
C99	C	-0.498745	0.742255	1.055373
C100	C	-1.165410	0.148364	0.388708
C101	C	-0.832077	0.481698	0.722041
C102	C	-0.498744	0.815031	1.055374
C103	C	-1.165415	0.239679	0.388712
C104	C	-0.832082	0.573012	0.722046
C105	C	-0.498749	0.906345	1.055379
C106	C	-1.165348	-0.388435	0.179187
C107	C	-0.832015	-0.055101	0.512520
C108	C	-0.498681	0.278232	0.845853
C109	C	-1.165482	-0.388233	0.089566
C110	C	-0.832148	-0.054900	0.422899
C111	C	-0.498815	0.278434	0.756233
C112	C	-1.165466	-0.388257	1.016783
C113	C	-0.832132	-0.054924	1.350117
C114	C	-0.498799	0.278410	1.683450
C115	C	-1.165453	-0.388285	0.925475
C116	C	-0.832120	-0.054951	1.258808
C117	C	-0.498786	0.278382	1.592142
C118	C	-1.165447	-0.388303	0.852698
C119	C	-0.832114	-0.054969	1.186032
C120	C	-0.498781	0.278364	1.519365
C121	C	-1.165434	-0.388329	0.761384
C122	C	-0.832101	-0.054996	1.094717
C123	C	-0.498767	0.278337	1.428051
