data_functionalizedCrystal
_audit_creation_method	'MofGen! by Chris Wilmer'
_symmetry_space_group_name_H-M	'P1'
_symmetry_Int_Tables_number	1
_symmetry_cell_setting	triclinic
loop_
_symmetry_equiv_pos_as_xyz
  x,y,z
_cell_length_a	14.044220
_cell_length_b	14.044191
_cell_length_c	13.596369
_cell_angle_alpha	89.997249
_cell_angle_beta	89.993157
_cell_angle_gamma	93.190327
loop_
_atom_site_label
_atom_site_type_symbol
_atom_site_fract_x
_atom_site_fract_y
_atom_site_fract_z
O1	O	0.230202	1.277174	-0.081748
O2	O	0.480202	1.527174	0.168252
O3	O	0.730202	1.777174	0.418252
O4	O	0.980202	2.027174	0.668252
O5	O	0.221889	1.000501	-0.081761
O6	O	0.471889	1.250501	0.168239
O7	O	0.721889	1.500501	0.418239
O8	O	0.971889	1.750501	0.668239
O9	O	0.087709	1.134685	-0.081745
O10	O	0.337709	1.384685	0.168255
O11	O	0.587709	1.634685	0.418255
O12	O	0.837709	1.884685	0.668255
O13	O	0.364381	1.142990	-0.081764
O14	O	0.614381	1.392990	0.168236
O15	O	0.864381	1.642990	0.418236
O16	O	1.114381	1.892990	0.668236
O17	O	0.087700	1.134669	0.081838
O18	O	0.337700	1.384669	0.331838
O19	O	0.587700	1.634669	0.581838
O20	O	0.837700	1.884669	0.831838
O21	O	0.221880	1.000486	0.081822
O22	O	0.471880	1.250486	0.331822
O23	O	0.721880	1.500486	0.581822
O24	O	0.971880	1.750486	0.831822
O25	O	0.230193	1.277158	0.081835
O26	O	0.480193	1.527158	0.331835
O27	O	0.730193	1.777158	0.581835
O28	O	0.980193	2.027158	0.831835
Zn29	Zn	0.226035	1.138820	0.107801
Zn30	Zn	0.476035	1.388820	0.357801
Zn31	Zn	0.726035	1.638820	0.607801
Zn32	Zn	0.976035	1.888820	0.857801
Zn33	Zn	0.226047	1.138840	-0.107727
Zn34	Zn	0.476047	1.388840	0.142273
Zn35	Zn	0.726047	1.638840	0.392273
Zn36	Zn	0.976047	1.888840	0.642273
O37	O	0.364372	1.142975	0.081819
O38	O	0.614372	1.392975	0.331819
O39	O	0.864372	1.642975	0.581819
O40	O	1.114372	1.892975	0.831819
C41	C	0.218248	0.964872	0.000029
C42	C	0.468248	1.214872	0.250029
C43	C	0.718248	1.464872	0.500029
C44	C	0.968248	1.714872	0.750029
C45	C	0.207401	0.858728	0.000025
C46	C	0.457401	1.108728	0.250025
C47	C	0.707401	1.358728	0.500025
C48	C	0.957401	1.608728	0.750025
C49	C	0.264501	0.613270	0.000031
C50	C	0.514501	0.863270	0.250031
C51	C	0.764501	1.113270	0.500031
C52	C	1.014501	1.363270	0.750031
C53	C	0.187585	0.664395	0.000035
C54	C	0.437585	0.914395	0.250035
C55	C	0.687585	1.164395	0.500035
C56	C	0.937585	1.414395	0.750035
C57	C	0.198613	0.772532	0.000029
C58	C	0.448613	1.022532	0.250029
C59	C	0.698613	1.272532	0.500029
C60	C	0.948613	1.522532	0.750029
C61	C	0.253474	0.505123	0.000036
C62	C	0.503474	0.755123	0.250036
C63	C	0.753474	1.005123	0.500036
C64	C	1.003474	1.255123	0.750036
C65	C	0.052083	1.131041	0.000047
C66	C	0.302083	1.381041	0.250047
C67	C	0.552083	1.631041	0.500047
C68	C	0.802083	1.881041	0.750047
C69	C	-0.054060	1.120197	0.000048
C70	C	0.195940	1.370197	0.250048
C71	C	0.445940	1.620197	0.500048
C72	C	0.695940	1.870197	0.750048
C73	C	-0.248398	1.100370	0.000033
C74	C	0.001602	1.350370	0.250033
C75	C	0.251602	1.600370	0.500033
C76	C	0.501602	1.850370	0.750033
C77	C	-0.299526	1.177285	0.000033
C78	C	-0.049526	1.427285	0.250033
C79	C	0.200474	1.677285	0.500033
C80	C	0.450474	1.927285	0.750033
C81	C	-0.407663	1.166253	0.000025
C82	C	-0.157663	1.416253	0.250025
C83	C	0.092337	1.666253	0.500025
C84	C	0.342337	1.916253	0.750025
C85	C	-0.140252	1.111400	0.000041
C86	C	0.109748	1.361400	0.250041
C87	C	0.359748	1.611400	0.500041
C88	C	0.609748	1.861400	0.750041
C89	C	0.399998	1.146618	0.000025
C90	C	0.649998	1.396618	0.250025
C91	C	0.899998	1.646618	0.500025
C92	C	1.149998	1.896618	0.750025
C93	C	0.506142	1.157463	0.000018
C94	C	0.756142	1.407463	0.250018
C95	C	1.006142	1.657463	0.500018
C96	C	1.256142	1.907463	0.750018
C97	C	0.233834	1.312788	0.000043
C98	C	0.483834	1.562788	0.250043
C99	C	0.733834	1.812788	0.500043
C100	C	0.983834	2.062788	0.750043
C101	C	0.244681	1.418931	0.000040
C102	C	0.494681	1.668931	0.250040
C103	C	0.744681	1.918931	0.500040
C104	C	0.994681	2.168931	0.750040
N105	N	0.226027	1.138813	0.254893
N106	N	0.476027	1.388813	0.504893
N107	N	0.726027	1.638813	0.754893
N108	N	0.976027	1.888813	1.004893
N109	N	0.226048	1.138853	-0.254819
N110	N	0.476048	1.388853	-0.004819
N111	N	0.726048	1.638853	0.245181
N112	N	0.976048	1.888853	0.495181
C113	C	0.226048	1.138839	0.656184
C114	C	0.476048	1.388839	0.906184
C115	C	0.726048	1.638839	1.156184
C116	C	0.976048	1.888839	1.406184
C117	C	0.226045	1.138829	0.544532
C118	C	0.476045	1.388829	0.794532
C119	C	0.726045	1.638829	1.044532
C120	C	0.976045	1.888829	1.294532
C121	C	0.226038	1.138826	0.455542
C122	C	0.476038	1.388826	0.705542
C123	C	0.726038	1.638826	0.955542
C124	C	0.976038	1.888826	1.205542
C125	C	0.226034	1.138816	0.343883
C126	C	0.476034	1.388816	0.593883
C127	C	0.726034	1.638816	0.843883
C128	C	0.976034	1.888816	1.093883
H129	H	0.338628	0.650711	0.000023
H130	H	0.588628	0.900711	0.250023
H131	H	0.838628	1.150711	0.500023
H132	H	1.088628	1.400711	0.750023
C133	C	-0.298971	1.000229	0.000036
C134	C	-0.048971	1.250229	0.250036
C135	C	0.201029	1.500229	0.500036
C136	C	0.451029	1.750229	0.750036
H137	H	-0.366070	1.005860	0.000042
H138	H	-0.116070	1.255860	0.250042
H139	H	0.133930	1.505860	0.500042
H140	H	0.383930	1.755860	0.750042
H141	H	-0.281023	0.966521	-0.057004
H142	H	-0.031023	1.216521	0.192996
H143	H	0.218977	1.466521	0.442996
H144	H	0.468977	1.716521	0.692996
H145	H	-0.281039	0.966530	0.057093
H146	H	-0.031039	1.216530	0.307093
H147	H	0.218961	1.466530	0.557093
H148	H	0.468961	1.716530	0.807093
H149	H	-0.262085	1.251419	-0.000030
H150	H	-0.012085	1.501419	0.249970
H151	H	0.237915	1.751419	0.499970
H152	H	0.487915	2.001419	0.749970
H153	H	0.113452	0.626952	-0.000030
H154	H	0.363452	0.876952	0.249970
H155	H	0.613452	1.126952	0.499970
H156	H	0.863452	1.376952	0.749970
