data_functionalizedCrystal
_audit_creation_method	'MofGen! by Chris Wilmer'
_symmetry_space_group_name_H-M	'P1'
_symmetry_Int_Tables_number	1
_symmetry_cell_setting	triclinic
loop_
_symmetry_equiv_pos_as_xyz
  x,y,z
_cell_length_a	9.065215
_cell_length_b	16.992695
_cell_length_c	7.540329
_cell_angle_alpha	89.996072
_cell_angle_beta	89.997574
_cell_angle_gamma	87.841460
loop_
_atom_site_label
_atom_site_type_symbol
_atom_site_fract_x
_atom_site_fract_y
_atom_site_fract_z
O1	O	1.971075	0.115055	-0.147464
O2	O	1.542665	0.124495	-0.147472
O3	O	1.755153	0.005620	-0.147454
O4	O	1.758588	0.233930	-0.147482
O5	O	1.755139	0.005618	0.147511
O6	O	1.542652	0.124494	0.147493
O7	O	1.971061	0.115053	0.147501
Cu8	Cu	1.756855	0.119773	0.174429
Cu9	Cu	1.756871	0.119775	-0.174401
O10	O	1.758574	0.233928	0.147483
C11	C	1.487588	0.123588	0.000009
C12	C	1.323493	0.120876	0.000006
C13	C	1.750727	-0.023625	0.000028
C14	C	1.737544	-0.110762	0.000027
C15	C	1.864750	-0.160100	0.000031
C16	C	1.852353	-0.241975	0.000014
C17	C	1.712749	-0.274510	0.000006
C18	C	1.585534	-0.225166	-0.000004
C19	C	1.597932	-0.143293	0.000001
C20	C	1.661366	-0.518472	-0.000020
C21	C	1.648977	-0.600352	-0.000019
C22	C	1.915798	-0.617155	-0.000004
C23	C	1.928183	-0.535280	0.000011
C24	C	1.800968	-0.485943	-0.000008
N25	N	1.700075	-0.358199	-0.000006
N26	N	1.813644	-0.402256	-0.000008
C27	C	2.026139	0.115961	0.000015
C28	C	2.190234	0.118672	0.000006
C29	C	1.762999	0.263173	-0.000003
C30	C	1.776183	0.350311	-0.000014
N31	N	1.756855	0.119771	0.419778
N32	N	1.756883	0.119771	-0.419749
H33	H	1.955938	-0.282143	0.000022
H34	H	2.019369	-0.657334	0.000008
O35	O	1.434956	-0.260252	-0.000019
H36	H	1.373357	-0.240503	0.120195
O37	O	1.498398	-0.635448	-0.000048
H38	H	1.412019	-0.587387	-0.000081
H39	H	1.557777	-0.478311	-0.000035
H40	H	2.041863	-0.508796	0.000019
O41	O	1.460729	-0.090075	0.000019
H42	H	1.394375	-0.101759	-0.120196
O43	O	2.015323	-0.125009	0.000024
H44	H	2.101693	-0.173075	0.000001
