data_functionalizedCrystal
_audit_creation_method	'MofGen! by Chris Wilmer'
_symmetry_space_group_name_H-M	'P1'
_symmetry_Int_Tables_number	1
_symmetry_cell_setting	triclinic
loop_
_symmetry_equiv_pos_as_xyz
  x,y,z
_cell_length_a	21.395364
_cell_length_b	21.395363
_cell_length_c	21.395355
_cell_angle_alpha	89.996048
_cell_angle_beta	90.025600
_cell_angle_gamma	90.000356
loop_
_atom_site_label
_atom_site_type_symbol
_atom_site_fract_x
_atom_site_fract_y
_atom_site_fract_z
Zn1	Zn	-0.957983	-0.249553	-0.354342
Zn2	Zn	-0.957938	-0.354313	-0.249592
Zn3	Zn	-0.853198	-0.249548	-0.249577
Zn4	Zn	-0.853220	-0.354292	-0.354330
O5	O	-0.905585	-0.301926	-0.301960
O6	O	-1.045655	-0.263460	-0.340458
O7	O	-0.944016	-0.340422	-0.161912
O8	O	-0.867108	-0.161871	-0.263474
O9	O	-1.045622	-0.340427	-0.263498
O10	O	-0.944093	-0.161874	-0.340444
O11	O	-0.867065	-0.263452	-0.161901
O12	O	-0.765523	-0.263432	-0.263462
O13	O	-0.867145	-0.340391	-0.442009
O14	O	-0.765539	-0.340387	-0.340423
O15	O	-0.944114	-0.263440	-0.442019
O16	O	-0.944037	-0.441988	-0.263486
O17	O	-0.867101	-0.441973	-0.340437
C18	C	-0.742797	-0.301907	-0.301940
C19	C	-0.673156	-0.301914	-0.301946
C20	C	-0.171385	-0.342059	-0.341984
C21	C	-0.236820	-0.342060	-0.341979
C22	C	-0.269518	-0.301931	-0.301970
C23	C	-0.236775	-0.261809	-0.261954
C24	C	-0.171341	-0.261813	-0.261956
C25	C	-0.373178	-0.245467	-0.297106
C26	C	-0.438611	-0.245462	-0.297108
C27	C	-0.471339	-0.301917	-0.301960
C28	C	-0.438625	-0.358380	-0.306822
C29	C	-0.373191	-0.358385	-0.306824
C30	C	-0.340470	-0.301922	-0.301963
C31	C	-0.575026	-0.342041	-0.341965
C32	C	-0.640463	-0.342044	-0.341955
C33	C	-0.640416	-0.261786	-0.261933
C34	C	-0.574981	-0.261789	-0.261940
C35	C	-0.542290	-0.301916	-0.301959
C36	C	-0.905583	-0.464714	-0.301975
C37	C	-0.905640	-0.534355	-0.302003
C38	C	-0.905637	-0.301914	-0.465384
C39	C	-0.905659	-0.301908	-0.535025
C40	C	-0.069008	-0.301942	-0.301977
C41	C	-0.138650	-0.301940	-0.301975
C42	C	-0.905604	-0.138503	-0.301959
C43	C	-0.905612	-0.068862	-0.301958
C44	C	-0.865537	-0.036146	-0.261885
C45	C	-0.865536	0.029289	-0.261892
C46	C	-0.905621	0.062006	-0.301967
C47	C	-0.945699	0.029283	-0.342048
C48	C	-0.945694	-0.036151	-0.342044
C49	C	-0.962080	0.165669	-0.306926
C50	C	-0.962086	0.231102	-0.306925
C51	C	-0.905636	0.263827	-0.301983
C52	C	-0.849178	0.231111	-0.297028
C53	C	-0.849173	0.165677	-0.297024
C54	C	-0.905631	0.132959	-0.301976
C55	C	-0.865557	0.367496	-0.261915
C56	C	-0.865555	0.432932	-0.261927
C57	C	-0.945724	0.432924	-0.342080
C58	C	-0.945720	0.367489	-0.342071
C59	C	-0.905637	0.334778	-0.301986
C60	C	-0.945735	-0.261838	-0.567744
C61	C	-0.945735	-0.261811	-0.633179
C62	C	-0.905664	-0.301866	-0.665893
C63	C	-0.865580	-0.341939	-0.633166
C64	C	-0.865578	-0.341960	-0.567732
C65	C	-0.900716	-0.358281	-0.769573
C66	C	-0.900723	-0.358260	-0.835006
C67	C	-0.905668	-0.301799	-0.867714
C68	C	-0.910619	-0.245357	-0.834981
C69	C	-0.910617	-0.245378	-0.769547
C70	C	-0.905662	-0.301847	-0.736846
C71	C	-0.945745	-0.261697	-0.971386
C72	C	-0.945740	-0.261669	-1.036822
C73	C	-0.865589	-0.341802	-1.036808
C74	C	-0.865591	-0.341824	-0.971373
C75	C	-0.905672	-0.301772	-0.938665
C76	C	-0.905569	-0.301894	-0.139173
C77	C	-0.905668	-0.301723	-0.069532
H78	H	-0.465242	-0.199486	-0.293157
H79	H	-0.832960	-0.374458	-0.944733
C80	C	-0.787071	0.129692	-0.291580
N81	N	-0.740294	0.102588	-0.287484
H82	H	-0.346537	-0.199492	-0.293145
C83	C	-0.272744	-0.217662	-0.217948
N84	N	-0.299835	-0.184409	-0.184802
H85	H	-0.144688	-0.229141	-0.229375
H86	H	-0.978356	0.340851	-0.374700
C87	C	-0.989827	-0.217733	-0.669177
N88	N	-1.023039	-0.184534	-0.696289
H89	H	-0.832940	-0.374589	-0.541093
H90	H	-0.803212	0.257755	-0.293002
C91	C	-0.821456	0.065284	-0.217800
N92	N	-0.788257	0.092393	-0.184587
H93	H	-0.667115	-0.374718	-0.374534
H94	H	-0.914646	-0.199421	-0.742898
C95	C	-0.676380	-0.217644	-0.217922
N96	N	-0.703471	-0.184397	-0.184770
C97	C	-0.538971	-0.217646	-0.217934
N98	N	-0.511849	-0.184395	-0.184787
C99	C	-0.821500	-0.385996	-0.669153
N100	N	-0.788294	-0.419179	-0.696258
C101	C	-0.474620	-0.420487	-0.312158
N102	N	-0.501734	-0.467264	-0.316179
H103	H	-0.832917	0.340861	-0.229278
C104	C	-0.135428	-0.386214	-0.385993
N105	N	-0.108345	-0.419476	-0.419136
H106	H	-0.832918	0.459570	-0.229297
H107	H	-0.832956	-0.374409	-1.063443
H108	H	-0.978359	0.459562	-0.374711
H109	H	-0.914647	-0.199381	-0.861611
H110	H	-0.896695	-0.404219	-0.861652
C111	C	-0.989830	-0.217634	-0.935405
N112	N	-1.023034	-0.184444	-0.908307
C113	C	-0.337208	-0.420494	-0.312161
N114	N	-0.310106	-0.467275	-0.316175
C115	C	-0.895288	-0.420397	-0.733601
N116	N	-0.891205	-0.467183	-0.706507
C117	C	-1.024192	0.267083	-0.312359
N118	N	-1.070972	0.294183	-0.316447
H119	H	-0.978336	0.055924	-0.374678
H120	H	-1.008051	0.139030	-0.310958
C121	C	-0.989828	-0.217584	-1.072813
N122	N	-1.023037	-0.184380	-1.099922
H123	H	-0.978372	-0.229224	-0.541118
C124	C	-0.272836	-0.386192	-0.385998
N125	N	-0.299961	-0.419431	-0.419155
C126	C	-0.539064	-0.386186	-0.385982
N127	N	-0.511979	-0.419436	-0.419136
C128	C	-0.989787	-0.072140	-0.386124
N129	N	-1.023001	-0.099247	-0.419324
C130	C	-0.821439	-0.072124	-0.217795
N131	N	-0.788222	-0.099223	-0.184588
