data_functionalizedCrystal
_audit_creation_method	'MofGen! by Chris Wilmer'
_symmetry_space_group_name_H-M	'P1'
_symmetry_Int_Tables_number	1
_symmetry_cell_setting	triclinic
loop_
_symmetry_equiv_pos_as_xyz
  x,y,z
_cell_length_a	10.654562
_cell_length_b	15.995292
_cell_length_c	9.130313
_cell_angle_alpha	90.001944
_cell_angle_beta	89.996930
_cell_angle_gamma	83.979360
loop_
_atom_site_label
_atom_site_type_symbol
_atom_site_fract_x
_atom_site_fract_y
_atom_site_fract_z
O1	O	1.666251	0.117652	-0.121884
O2	O	1.300625	0.128846	-0.121865
O3	O	1.493471	0.001417	-0.121877
O4	O	1.473405	0.245082	-0.121872
O5	O	1.493468	0.001420	0.121722
O6	O	1.300622	0.128849	0.121734
O7	O	1.666249	0.117656	0.121715
Cu8	Cu	1.483435	0.123253	0.143967
Cu9	Cu	1.483438	0.123249	-0.144117
O10	O	1.473403	0.245085	0.121727
C11	C	1.253837	0.128024	-0.000063
C12	C	1.114427	0.125558	-0.000056
C13	C	1.048911	0.124410	0.132718
C14	C	0.917920	0.122100	0.132693
C15	C	0.917972	0.122090	-0.132891
C16	C	1.048962	0.124394	-0.132865
C17	C	1.048879	0.124419	0.286052
C18	C	0.917887	0.122109	0.286027
C19	C	1.492653	-0.029782	-0.000082
C20	C	1.490204	-0.122749	-0.000092
C21	C	1.481204	-0.460540	-0.000079
C22	C	1.620395	-0.436415	0.000458
C23	C	1.623040	-0.339724	-0.000096
C24	C	1.485670	-0.292958	-0.000085
C25	C	1.416082	-0.322467	-0.139183
C26	C	1.414407	-0.419268	-0.139294
C27	C	1.411562	-0.419137	0.137723
C28	C	1.416720	-0.322615	0.139556
C29	C	1.488187	-0.198247	-0.000093
C30	C	1.478683	-0.555251	-0.000080
C31	C	1.713037	0.118478	-0.000090
C32	C	1.852446	0.120944	-0.000107
C33	C	1.474221	0.276284	-0.000072
C34	C	1.476669	0.369251	-0.000071
N35	N	1.483442	0.123255	0.346589
N36	N	1.483441	0.123240	-0.346740
C37	C	1.568856	0.066849	0.423236
C38	C	1.568853	0.066839	0.576573
C39	C	1.398018	0.179649	0.576603
C40	C	1.398016	0.179654	0.423269
C41	C	1.667490	0.001721	0.423220
C42	C	1.667487	0.001711	0.576556
H43	H	1.095912	0.066554	0.344933
H44	H	1.763806	0.016061	0.618168
H45	H	1.328466	0.225567	0.639052
H46	H	0.889115	0.061044	0.333605
H47	H	1.646908	-0.062638	0.381599
H48	H	1.316453	-0.290231	0.147965
H49	H	0.864655	0.121142	-0.241020
N50	N	1.086983	0.205300	0.349099
H51	H	1.181938	0.204041	0.346818
H52	H	1.048009	0.254336	0.289044
N53	N	1.787905	0.028736	0.360199
H54	H	1.846088	0.041784	0.442529
H55	H	1.830629	-0.018080	0.297895
N56	N	1.279231	-0.439340	-0.147666
H57	H	1.220995	-0.385325	-0.151274
H58	H	1.267342	-0.473381	-0.238846
H59	H	0.870827	0.179977	0.344893
N60	N	1.695194	-0.314088	0.131999
H61	H	1.725568	-0.365642	0.191111
H62	H	1.770076	-0.285192	0.098689
N63	N	1.628189	-0.078856	0.639557
H64	H	1.609199	-0.117777	0.557218
H65	H	1.698838	-0.106874	0.701828
H66	H	1.102304	0.125316	-0.240983
H67	H	1.674044	-0.464098	0.100212
H68	H	1.309107	-0.433726	0.138669
H69	H	1.673748	-0.465123	-0.098741
H70	H	1.677863	-0.321001	-0.099987
N71	N	1.478263	-0.454428	-0.277019
H72	H	1.507233	-0.407024	-0.337087
H73	H	1.553508	-0.495225	-0.249927
N74	N	1.305868	0.240483	0.340613
H75	H	1.320291	0.300004	0.367305
H76	H	1.318863	0.231859	0.231865
N77	N	1.282179	-0.281045	-0.146035
H78	H	1.265298	-0.242658	-0.058829
H79	H	1.269976	-0.247186	-0.239263
H80	H	1.464408	-0.302126	-0.242708
H81	H	1.455395	-0.446969	0.243160
N82	N	1.483822	-0.297627	0.275874
H83	H	1.558573	-0.267222	0.247311
H84	H	1.423743	-0.259341	0.337591
