data_functionalizedCrystal
_audit_creation_method	'MofGen! by Chris Wilmer'
_symmetry_space_group_name_H-M	'P1'
_symmetry_Int_Tables_number	1
_symmetry_cell_setting	triclinic
loop_
_symmetry_equiv_pos_as_xyz
  x,y,z
_cell_length_a	18.215407
_cell_length_b	12.594516
_cell_length_c	18.215407
_cell_angle_alpha	90.006371
_cell_angle_beta	90.010236
_cell_angle_gamma	90.016501
loop_
_atom_site_label
_atom_site_type_symbol
_atom_site_fract_x
_atom_site_fract_y
_atom_site_fract_z
Zn1	Zn	1.125047	-0.423906	0.416146
Zn2	Zn	1.124995	-0.601854	0.293092
Zn3	Zn	1.002001	-0.423892	0.293093
Zn4	Zn	1.001965	-0.601844	0.416117
O5	O	1.063502	-0.512874	0.354612
O6	O	1.228025	-0.447521	0.399834
O7	O	1.108673	-0.578246	0.190108
O8	O	1.018360	-0.274948	0.309429
O9	O	1.227987	-0.578259	0.309427
O10	O	1.108762	-0.274958	0.399835
O11	O	1.018309	-0.447497	0.190109
O12	O	0.899012	-0.447487	0.309401
O13	O	1.018299	-0.578242	0.519105
O14	O	0.898985	-0.578228	0.399786
O15	O	1.108727	-0.447511	0.519126
O16	O	1.108638	-0.750799	0.309399
O17	O	1.018248	-0.750791	0.399785
C18	C	0.872296	-0.512856	0.354591
C19	C	0.790497	-0.512873	0.354599
C20	C	0.602309	-0.581057	0.401603
C21	C	0.525450	-0.581061	0.401613
C22	C	0.525448	-0.444710	0.307636
C23	C	0.602305	-0.444702	0.307631
C24	C	0.640733	-0.512882	0.354614
C25	C	0.487017	-0.512893	0.354628
C26	C	0.403684	-0.512896	0.354637
C27	C	0.724072	-0.512877	0.354605
C28	C	1.063454	-0.789415	0.354605
C29	C	1.063501	-0.907720	0.354626
C30	C	1.014333	-0.977008	0.403752
C31	C	0.996415	-1.047840	0.336599
C32	C	1.081486	-1.047687	0.421790
C33	C	1.045547	-0.976994	0.287438
C34	C	1.130649	-0.976835	0.372674
C35	C	1.112757	-1.047635	0.305475
C36	C	1.255455	-0.512893	0.354633
C37	C	1.337254	-0.512901	0.354643
C38	C	1.063515	-0.512877	0.546565
C39	C	1.063520	-0.512878	0.628364
C40	C	1.063571	-0.235253	0.354635
C41	C	1.063600	-0.116948	0.354645
C42	C	1.110591	-0.444818	0.816570
C43	C	1.110587	-0.444817	0.893428
C44	C	1.016425	-0.580954	0.893395
C45	C	1.016426	-0.580948	0.816538
C46	C	1.063513	-0.512882	0.778127
C47	C	1.063508	-0.512887	0.931843
C48	C	1.063503	-0.512887	1.015177
C49	C	1.063517	-0.512880	0.694788
C50	C	1.063490	-0.512894	1.163405
C51	C	1.063501	-0.512890	1.081607
H52	H	0.494150	-0.389202	0.269383
H53	H	1.096657	-1.078739	0.478583
H54	H	0.978084	-0.636373	0.785237
H55	H	0.633595	-0.636571	0.439862
H56	H	0.978089	-0.636373	0.924678
F57	F	0.643202	-0.372131	0.257619
H58	H	1.030310	-0.946070	0.230630
F59	F	0.959890	-0.936469	0.457976
H60	H	1.148931	-0.389391	0.785298
H61	H	0.494168	-0.636574	0.439877
F62	F	0.922247	-1.088603	0.316650
H63	H	1.187377	-0.945626	0.387956
H64	H	1.148922	-0.389391	0.924725
F65	F	1.167162	-1.087915	0.251123
