data_functionalizedCrystal
_audit_creation_method	'MofGen! by Chris Wilmer'
_symmetry_space_group_name_H-M	'P1'
_symmetry_Int_Tables_number	1
_symmetry_cell_setting	triclinic
loop_
_symmetry_equiv_pos_as_xyz
  x,y,z
_cell_length_a	13.635800
_cell_length_b	19.551823
_cell_length_c	19.551749
_cell_angle_alpha	83.659929
_cell_angle_beta	78.338087
_cell_angle_gamma	101.663376
loop_
_atom_site_label
_atom_site_type_symbol
_atom_site_fract_x
_atom_site_fract_y
_atom_site_fract_z
V1	V	-1.998622	-0.097408	0.218187
O2	O	-1.997296	0.003928	0.213697
O3	O	-1.970023	-0.192419	0.217018
O4	O	-1.970020	-0.096240	0.313198
O5	O	-1.997299	-0.092917	0.116851
V6	V	-2.241577	-0.085248	0.206027
O7	O	-2.126635	-0.124082	0.244860
O8	O	-2.338663	-0.058574	0.179353
O9	O	-2.158573	0.009763	0.207196
O10	O	-2.301602	-0.186583	0.210516
O11	O	-2.301598	-0.089738	0.307362
O12	O	-2.158576	-0.086416	0.111016
V13	V	-1.498622	-0.097408	0.218187
O14	O	-1.497296	0.003928	0.213697
O15	O	-1.470023	-0.192419	0.217018
O16	O	-1.470020	-0.096240	0.313198
O17	O	-1.497299	-0.092917	0.116851
V18	V	-1.741577	-0.085248	0.206027
O19	O	-1.626635	-0.124082	0.244860
O20	O	-1.838663	-0.058574	0.179353
O21	O	-1.658573	0.009763	0.207196
O22	O	-1.801602	-0.186583	0.210516
O23	O	-1.801598	-0.089738	0.307362
O24	O	-1.658576	-0.086416	0.111016
C25	C	-1.891596	-0.215570	0.213659
C26	C	-1.908826	-0.293245	0.213337
C27	C	-2.007642	-0.333302	0.216680
C28	C	-2.023834	-0.406287	0.216384
C29	C	-1.941201	-0.439210	0.212731
C30	C	-1.842372	-0.399145	0.209392
C31	C	-1.826185	-0.326162	0.209695
C32	C	-1.886640	-0.545549	0.168423
C33	C	-1.902829	-0.618530	0.168116
C34	C	-1.991125	-0.664313	0.211799
C35	C	-2.063244	-0.637106	0.255782
C36	C	-2.047056	-0.564123	0.256085
C37	C	-1.958743	-0.518347	0.212402
C38	C	-2.107505	-0.783509	0.214823
C39	C	-2.123695	-0.856496	0.214531
C40	C	-1.942228	-0.849351	0.207532
C41	C	-1.926043	-0.776367	0.207831
C42	C	-2.008684	-0.743450	0.211473
C43	C	-1.891591	-0.092883	0.336346
C44	C	-1.908818	-0.092557	0.414020
C45	C	-2.068671	0.032911	0.210552
C46	C	-2.041060	0.110585	0.210879
C47	C	-2.068676	-0.089774	0.087864
C48	C	-2.041069	-0.090097	0.010189
C49	C	-1.391596	-0.215570	0.213659
C50	C	-1.408826	-0.293245	0.213337
C51	C	-1.933551	-0.156427	0.460698
C52	C	-1.949749	-0.156128	0.533683
C53	C	-1.941192	-0.091955	0.559986
C54	C	-1.916460	-0.028077	0.513298
C55	C	-1.900273	-0.028378	0.440315
C56	C	-1.895772	-0.040179	0.665509
C57	C	-1.911954	-0.039880	0.738491
C58	C	-1.991122	-0.091023	0.785088
C59	C	-2.054098	-0.142475	0.758697
C60	C	-2.037911	-0.142777	0.685714
C61	C	-1.958743	-0.091621	0.639122
C62	C	-2.033422	-0.154573	0.910905
C63	C	-2.049626	-0.154271	0.983891
C64	C	-2.016326	-0.026218	0.963505
C65	C	-2.000133	-0.026521	0.890521
C66	C	-2.008678	-0.090701	0.864226
C67	C	-1.391591	-0.092883	0.336346
C68	C	-1.408818	-0.092557	0.414020
C69	C	-1.568671	0.032911	0.210552
C70	C	-1.541060	0.110585	0.210879
C71	C	-1.568676	-0.089774	0.087864
C72	C	-1.541069	-0.090097	0.010189
C73	C	-1.507654	-0.333297	0.216689
C74	C	-1.523861	-0.406283	0.216396
C75	C	-1.441237	-0.439215	0.212747
C76	C	-1.342402	-0.399159	0.209397
C77	C	-1.326198	-0.326175	0.209695
C78	C	-1.507642	-0.095900	0.454070
C79	C	-1.523840	-0.095584	0.527052
C80	C	-1.441214	-0.091931	0.559984
C81	C	-1.342381	-0.088586	0.519928
C82	C	-1.326183	-0.088897	0.446947
C83	C	-1.614726	0.150637	0.207530
C84	C	-1.588791	0.223622	0.207825
C85	C	-1.489191	0.256554	0.211476
C86	C	-1.415519	0.216498	0.214824
C87	C	-1.441453	0.143515	0.214523
C88	C	-1.441464	-0.093742	-0.022724
C89	C	-1.415507	-0.094037	-0.095709
C90	C	-1.489158	-0.090692	-0.135778
C91	C	-1.588771	-0.087044	-0.102860
C92	C	-1.614724	-0.086744	-0.029877
H93	H	-2.074938	-0.306507	0.219650
Cl94	Cl	-1.238522	-0.084004	0.561341
H95	H	-1.695830	0.123833	0.204558
Cl96	Cl	-1.611543	-0.291914	0.221283
Cl97	Cl	-1.681353	-0.082848	-0.153241
H98	H	-1.454418	-0.091679	0.619411
Cl99	Cl	-1.681421	0.273963	0.203618
H100	H	-1.468087	0.315983	0.211720
Cl101	Cl	-1.348854	-0.097947	0.027633
H102	H	-1.381462	0.110909	0.217257
Cl103	Cl	-1.869164	0.051923	0.381630
Cl104	Cl	-2.044165	-0.235253	0.877845
H105	H	-1.245720	-0.293569	0.206962
H106	H	-2.069773	-0.206284	1.021897
Cl107	Cl	-1.290310	0.257910	0.219409
H108	H	-1.844109	-0.640676	0.132298
H109	H	-1.845576	-0.743751	0.205104
H110	H	-1.334393	-0.097007	-0.122500
Cl111	Cl	-1.739955	-0.082173	0.011492
H112	H	-1.814732	-0.508278	0.132853
Cl113	Cl	-1.461626	-0.530968	0.212372
H114	H	-1.275135	-0.425984	0.206427
H115	H	-1.775093	-0.425956	0.206419
H116	H	-1.745716	-0.293548	0.206973
Cl117	Cl	-1.838345	-0.890735	0.202948
H118	H	-2.135047	-0.674393	0.291450
Cl119	Cl	-1.201940	-0.084704	0.396608
H120	H	-1.574933	-0.098876	0.427267
H121	H	-1.468015	-0.090945	-0.195203
Cl122	Cl	-1.648094	-0.099795	0.577394
H123	H	-2.105777	-0.541975	0.291898
Cl124	Cl	-2.148071	-0.456655	0.220586
H125	H	-1.831300	0.001469	0.627574
H126	H	-2.174796	-0.756707	0.217787
H127	H	-1.604343	-0.438887	0.219123
H128	H	-1.940516	-0.208687	0.439294
Cl129	Cl	-1.980845	-0.236427	0.592374
Cl130	Cl	-2.117081	-0.207452	0.652537
Cl131	Cl	-2.247933	-0.906856	0.218739
H132	H	-2.118561	-0.184122	0.796636
Cl133	Cl	-1.905707	0.052598	0.546363
H134	H	-1.979987	0.025489	0.852514
Cl135	Cl	-2.005581	0.054458	0.996565
Cl136	Cl	-1.832777	0.024797	0.771663
