data_functionalizedCrystal
_audit_creation_method	'MofGen! by Chris Wilmer'
_symmetry_space_group_name_H-M	'P1'
_symmetry_Int_Tables_number	1
_symmetry_cell_setting	triclinic
loop_
_symmetry_equiv_pos_as_xyz
  x,y,z
_cell_length_a	19.077220
_cell_length_b	19.077244
_cell_length_c	19.076919
_cell_angle_alpha	90.077080
_cell_angle_beta	90.116798
_cell_angle_gamma	90.098310
loop_
_atom_site_label
_atom_site_type_symbol
_atom_site_fract_x
_atom_site_fract_y
_atom_site_fract_z
Zn1	Zn	-1.069014	-0.254709	-0.430872
Zn2	Zn	-1.078387	-0.367139	-0.309063
Zn3	Zn	-0.956214	-0.254337	-0.308658
Zn4	Zn	-0.956601	-0.376494	-0.421434
O5	O	-1.015054	-0.313170	-0.367507
O6	O	-1.168433	-0.265863	-0.418833
O7	O	-1.065942	-0.348105	-0.210835
O8	O	-0.967093	-0.156210	-0.328650
O9	O	-1.175319	-0.348465	-0.329341
O10	O	-1.049966	-0.156483	-0.418440
O11	O	-0.976182	-0.265229	-0.210537
O12	O	-0.858090	-0.274300	-0.319499
O13	O	-0.967751	-0.364410	-0.520861
O14	O	-0.858374	-0.364049	-0.402355
O15	O	-1.050341	-0.274935	-0.527795
O16	O	-1.066317	-0.466556	-0.320189
O17	O	-0.976840	-0.473429	-0.402748
C18	C	-0.832776	-0.320150	-0.359859
C19	C	-0.754797	-0.323154	-0.356604
C20	C	-0.316240	-0.344672	-0.333291
C21	C	-0.389510	-0.341846	-0.336345
C22	C	-0.422562	-0.297502	-0.384536
C23	C	-0.382339	-0.255978	-0.429671
C24	C	-0.309071	-0.258801	-0.426613
C25	C	-0.641306	-0.284452	-0.398681
C26	C	-0.714580	-0.281634	-0.401737
C27	C	-0.721745	-0.367501	-0.308409
C28	C	-0.648475	-0.370323	-0.305358
C29	C	-0.608260	-0.328796	-0.350491
N30	N	-0.497455	-0.294614	-0.387660
N31	N	-0.533368	-0.331681	-0.347363
C32	C	-1.022656	-0.495448	-0.360504
C33	C	-1.025972	-0.573426	-0.357535
C34	C	-0.198044	-0.306156	-0.375177
C35	C	-0.276023	-0.303152	-0.378424
C36	C	-1.008044	-0.320757	-0.550495
C37	C	-1.005057	-0.323991	-0.628474
C38	C	-1.007441	-0.130179	-0.374553
C39	C	-1.004196	-0.052200	-0.377555
C40	C	-1.049256	-0.011982	-0.335987
C41	C	-1.046200	0.061288	-0.338812
C42	C	-0.998088	0.094338	-0.383209
C43	C	-0.953024	0.054116	-0.424779
C44	C	-0.956077	-0.019153	-0.421950
C45	C	-0.983960	0.313083	-0.396275
C46	C	-0.980912	0.386357	-0.399103
C47	C	-1.074088	0.393523	-0.313135
C48	C	-1.077139	0.320253	-0.310313
C49	C	-1.032073	0.280037	-0.351880
N50	N	-0.994965	0.169232	-0.386099
N51	N	-1.035193	0.205145	-0.348986
C52	C	-1.046651	-0.278927	-0.668720
C53	C	-1.043835	-0.281963	-0.741989
C54	C	-0.999429	-0.330066	-0.775011
C55	C	-0.957830	-0.375132	-0.734760
C56	C	-0.960642	-0.372092	-0.661492
C57	C	-0.986403	-0.344149	-0.993750
C58	C	-0.983596	-0.347187	-1.067023
C59	C	-1.069601	-0.254016	-1.074247
C60	C	-1.072412	-0.250984	-1.000978
C61	C	-1.030811	-0.296047	-0.960733
N62	N	-0.996551	-0.333172	-0.849903
N63	N	-1.033685	-0.292937	-0.885842
C64	C	-1.022075	-0.305559	-0.185234
C65	C	-1.025190	-0.302123	-0.107269
H66	H	-0.741488	-0.245519	-0.440979
C67	C	-0.265317	-0.213842	-0.475650
C68	C	-0.223194	-0.257119	-0.517252
C69	C	-0.182873	-0.215724	-0.562425
H70	H	-0.295409	-0.187019	-0.504855
H71	H	-0.236435	-0.183236	-0.448863
H72	H	-0.252074	-0.287713	-0.544037
H73	H	-0.193088	-0.283942	-0.488066
H74	H	-0.153990	-0.185117	-0.535638
H75	H	-0.212970	-0.188902	-0.591625
H76	H	-0.154283	-0.245080	-0.590653
C77	C	-1.094772	-0.226585	-0.632910
C78	C	-1.075908	-0.158496	-0.652752
C79	C	-1.120214	-0.110257	-0.619775
H80	H	-1.141898	-0.235449	-0.646479
H81	H	-1.090485	-0.231179	-0.583505
H82	H	-1.080201	-0.153905	-0.702147
H83	H	-1.028789	-0.149610	-0.639183
H84	H	-1.115928	-0.114851	-0.570369
H85	H	-1.167338	-0.119127	-0.633346
H86	H	-1.107418	-0.064053	-0.633228
C87	C	-0.280321	-0.392911	-0.281080
C88	C	-0.238646	-0.441220	-0.317242
C89	C	-0.205557	-0.485674	-0.269167
H90	H	-0.251722	-0.365945	-0.250377
H91	H	-0.314748	-0.417276	-0.254647
H92	H	-0.204224	-0.416858	-0.343663
H93	H	-0.267228	-0.468202	-0.347941
H94	H	-0.239984	-0.510038	-0.242734
H95	H	-0.176962	-0.458701	-0.238467
H96	H	-0.177283	-0.518460	-0.293696
C97	C	-1.114638	-0.205007	-1.117977
C98	C	-1.071427	-0.163293	-1.160088
C99	C	-1.112889	-0.118127	-1.200374
H100	H	-1.145235	-0.231777	-1.146872
H101	H	-1.141471	-0.175883	-1.087840
H102	H	-1.044605	-0.192414	-1.190223
H103	H	-1.040830	-0.136509	-1.131211
H104	H	-1.139723	-0.089003	-1.170236
H105	H	-1.143485	-0.144902	-1.229265
H106	H	-1.083577	-0.089814	-1.228946
H107	H	-0.913847	0.081030	-0.460925
H108	H	-1.077708	-0.245268	-0.774754
C109	C	-0.433136	-0.387050	-0.287422
C110	C	-0.417654	-0.457804	-0.299187
C111	C	-0.457833	-0.499468	-0.254136
H112	H	-0.422520	-0.375309	-0.240170
H113	H	-0.481514	-0.379066	-0.296143
H114	H	-0.369286	-0.465784	-0.290461
H115	H	-0.428272	-0.469566	-0.346430
H116	H	-0.506212	-0.491484	-0.262857
H117	H	-0.447214	-0.487720	-0.206887
H118	H	-0.447339	-0.547478	-0.262117
C119	C	-1.129587	0.284410	-0.262310
C120	C	-1.174781	0.242519	-0.302404
C121	C	-1.223170	0.209532	-0.258248
H122	H	-1.105335	0.255972	-0.229435
H123	H	-1.156017	0.318893	-0.238042
H124	H	-1.148353	0.208040	-0.326661
H125	H	-1.199048	0.270941	-0.335277
H126	H	-1.249601	0.244015	-0.233980
H127	H	-1.198913	0.181097	-0.225376
H128	H	-1.253844	0.181110	-0.285446
H129	H	-0.621570	-0.406432	-0.266115
C130	C	-0.935440	-0.399383	-1.103008
C131	C	-0.941897	-0.392409	-1.175786
C132	C	-0.897555	-0.440482	-1.208959
H133	H	-0.888308	-0.390462	-1.089498
H134	H	-0.948124	-0.445650	-1.089659
H135	H	-0.929208	-0.346152	-1.189130
H136	H	-0.989020	-0.401337	-1.189317
H137	H	-0.910239	-0.486749	-1.195610
H138	H	-0.850425	-0.431556	-1.195443
H139	H	-0.901935	-0.435761	-1.258342
H140	H	-0.952539	-0.380853	-0.960992
C141	C	-0.765375	-0.412703	-0.259488
C142	C	-0.749892	-0.483458	-0.271248
C143	C	-0.790076	-0.525119	-0.226197
H144	H	-0.754763	-0.400960	-0.212236
H145	H	-0.813753	-0.404720	-0.268214
H146	H	-0.701525	-0.491437	-0.262516
H147	H	-0.760506	-0.495223	-0.318491
H148	H	-0.838454	-0.517135	-0.234923
H149	H	-0.779461	-0.513369	-0.178948
H150	H	-0.779581	-0.573130	-0.234175
H151	H	-0.921670	-0.414296	-0.761652
C152	C	-0.597772	-0.239341	-0.447767
C153	C	-0.642403	-0.199921	-0.490638
C154	C	-0.602321	-0.158362	-0.535873
H155	H	-0.568923	-0.208660	-0.421046
H156	H	-0.569164	-0.268577	-0.476105
H157	H	-0.670999	-0.170687	-0.462304
H158	H	-0.671252	-0.230584	-0.517374
H159	H	-0.573713	-0.187598	-0.564210
H160	H	-0.573474	-0.127685	-0.509146
H161	H	-0.632597	-0.131615	-0.564970
H162	H	-0.409256	-0.219869	-0.468907
H163	H	-1.088438	-0.038887	-0.299839
H164	H	-1.082891	0.094032	-0.304964
H165	H	-1.110778	0.426274	-0.279293
H166	H	-0.919388	-0.051897	-0.455802
H167	H	-0.926764	-0.408781	-0.628725
C168	C	-1.120642	-0.198682	-0.965258
C169	C	-1.156454	-0.159853	-1.016186
C170	C	-1.200885	-0.111661	-0.983308
H171	H	-1.153482	-0.223083	-0.936930
H172	H	-1.093643	-0.167918	-0.936743
H173	H	-1.183451	-0.190612	-1.044690
H174	H	-1.123632	-0.135436	-1.044517
H175	H	-1.173886	-0.080897	-0.954792
H176	H	-1.233720	-0.136068	-0.954981
H177	H	-1.225184	-0.085305	-1.017857
C178	C	-0.928608	0.422111	-0.447334
C179	C	-0.889784	0.371211	-0.483122
C180	C	-0.841597	0.404122	-0.527555
H181	H	-0.953013	0.450442	-0.480189
H182	H	-0.897840	0.450627	-0.420338
H183	H	-0.920548	0.342707	-0.510117
H184	H	-0.865364	0.342877	-0.450286
H185	H	-0.810830	0.432638	-0.500559
H186	H	-0.866008	0.432452	-0.560405
H187	H	-0.815245	0.369591	-0.551838
H188	H	-0.947258	0.280347	-0.430117
