data_functionalizedCrystal
_audit_creation_method	'MofGen! by Chris Wilmer'
_symmetry_space_group_name_H-M	'P1'
_symmetry_Int_Tables_number	1
_symmetry_cell_setting	triclinic
loop_
_symmetry_equiv_pos_as_xyz
  x,y,z
_cell_length_a	12.759401
_cell_length_b	19.805405
_cell_length_c	12.759393
_cell_angle_alpha	89.962322
_cell_angle_beta	89.980163
_cell_angle_gamma	90.027935
loop_
_atom_site_label
_atom_site_type_symbol
_atom_site_fract_x
_atom_site_fract_y
_atom_site_fract_z
Zn1	Zn	1.606169	-0.269395	-0.593976
Zn2	Zn	1.606028	-0.382600	-0.418277
Zn3	Zn	1.430472	-0.269434	-0.418311
Zn4	Zn	1.430424	-0.382551	-0.593915
O5	O	1.518273	-0.325995	-0.506120
O6	O	1.753172	-0.284417	-0.570681
O7	O	1.582701	-0.367625	-0.271261
O8	O	1.453857	-0.174712	-0.441653
O9	O	1.753068	-0.367588	-0.441596
O10	O	1.582942	-0.174684	-0.570713
O11	O	1.453720	-0.284482	-0.271285
O12	O	1.283444	-0.284434	-0.441594
O13	O	1.453777	-0.367504	-0.740944
O14	O	1.283409	-0.367541	-0.570609
O15	O	1.582896	-0.284369	-0.740989
O16	O	1.582655	-0.477310	-0.441536
O17	O	1.453639	-0.477274	-0.570576
C18	C	1.245306	-0.325987	-0.506099
C19	C	1.128529	-0.326000	-0.506115
C20	C	1.073677	-0.369339	-0.573187
C21	C	0.963953	-0.369342	-0.573208
C22	C	0.963943	-0.282663	-0.439075
C23	C	1.073666	-0.282658	-0.439060
C24	C	1.518155	-0.501851	-0.506069
C25	C	1.518201	-0.577083	-0.506082
C26	C	1.585444	-0.612424	-0.438962
C27	C	1.585489	-0.683112	-0.438985
C28	C	1.518284	-0.718459	-0.506124
C29	C	1.451037	-0.683113	-0.573252
C30	C	1.450999	-0.612426	-0.573234
C31	C	1.451192	-0.968186	-0.573330
C32	C	1.451234	-1.038878	-0.573342
C33	C	1.585682	-1.038872	-0.439081
C34	C	1.585644	-0.968185	-0.439063
C35	C	1.518402	-0.932846	-0.506194
C36	C	1.518355	-0.856198	-0.506170
C37	C	1.518324	-0.795106	-0.506144
C38	C	1.792307	-0.326004	-0.506141
C39	C	1.909083	-0.326008	-0.506150
C40	C	1.518347	-0.325927	-0.780153
C41	C	1.518378	-0.325897	-0.896930
C42	C	1.518421	-0.149452	-0.506194
C43	C	1.518483	-0.074220	-0.506225
C44	C	1.451242	-0.282597	-0.951804
C45	C	1.451266	-0.282576	-1.061528
C46	C	1.585572	-0.369158	-1.061494
C47	C	1.585541	-0.369182	-0.951772
C48	C	1.518261	-0.326014	-0.233152
C49	C	1.518433	-0.325853	-0.116376
H50	H	1.118328	-0.247361	-0.384442
C51	C	0.904316	-0.235725	-0.366143
C52	C	0.841287	-0.274000	-0.298684
C53	C	0.786355	-0.230784	-0.231474
H54	H	0.861465	-0.206255	-0.406304
H55	H	0.952666	-0.209921	-0.326134
H56	H	0.792943	-0.299792	-0.338688
H57	H	0.884112	-0.303468	-0.258500
H58	H	0.834706	-0.204980	-0.191465
H59	H	0.743511	-0.201316	-0.271644
H60	H	0.743592	-0.256747	-0.185689
H61	H	1.640166	-0.583649	-0.384284
H62	H	1.396322	-0.711898	-0.627923
C63	C	1.658368	-0.416259	-1.120983
C64	C	1.635409	-0.483233	-1.094280
C65	C	1.702442	-0.526641	-1.149067
H66	H	1.728999	-0.406449	-1.103053
H67	H	1.648767	-0.410089	-1.194199
H68	H	1.645019	-0.489400	-1.021080
H69	H	1.564790	-0.493064	-1.112213
H70	H	1.692840	-0.520471	-1.222284
H71	H	1.773068	-0.516825	-1.131133
H72	H	1.686866	-0.572088	-1.130965
H73	H	1.640214	-0.404445	-0.907092
C74	C	0.904209	-0.416325	-0.645989
C75	C	0.796375	-0.407042	-0.631676
C76	C	0.741308	-0.450305	-0.698718
H77	H	0.922026	-0.461817	-0.630544
H78	H	0.922175	-0.406467	-0.716628
H79	H	0.778417	-0.416904	-0.561054
H80	H	0.778528	-0.361559	-0.647129
H81	H	0.759274	-0.440447	-0.769357
H82	H	0.759133	-0.495794	-0.683267
H83	H	0.668138	-0.444008	-0.689023
H84	H	1.640244	-0.711883	-0.384328
H85	H	1.640365	-0.939408	-0.384388
C86	C	1.658880	-1.077149	-0.366263
C87	C	1.762800	-1.059860	-0.389215
C88	C	1.830257	-1.095095	-0.322148
H89	H	1.649437	-1.124322	-0.375815
H90	H	1.643597	-1.065593	-0.295639
H91	H	1.778078	-1.071420	-0.459822
H92	H	1.772276	-1.012693	-0.379657
H93	H	1.814974	-1.083539	-0.251524
H94	H	1.820805	-1.142266	-0.331705
H95	H	1.900773	-1.083365	-0.337705
H96	H	1.396509	-1.067656	-0.628022
H97	H	1.396439	-0.939418	-0.627989
H98	H	1.118344	-0.404629	-0.627790
H99	H	1.396244	-0.583652	-0.627892
H100	H	1.396553	-0.247352	-0.907155
C101	C	1.378338	-0.235488	-1.120917
C102	C	1.319535	-0.197577	-1.049399
C103	C	1.252348	-0.154185	-1.104069
H104	H	1.332453	-0.261291	-1.163705
H105	H	1.418542	-0.205954	-1.163717
H106	H	1.279333	-0.227107	-1.006618
H107	H	1.365391	-0.171760	-1.006609
H108	H	1.292553	-0.124651	-1.146869
H109	H	1.206471	-0.179994	-1.146855
H110	H	1.212449	-0.128453	-1.055553
