data_functionalizedCrystal
_audit_creation_method	'MofGen! by Chris Wilmer'
_symmetry_space_group_name_H-M	'P1'
_symmetry_Int_Tables_number	1
_symmetry_cell_setting	triclinic
loop_
_symmetry_equiv_pos_as_xyz
  x,y,z
_cell_length_a	6.817900
_cell_length_b	16.305597
_cell_length_c	16.305550
_cell_angle_alpha	95.371930
_cell_angle_beta	103.455250
_cell_angle_gamma	103.455834
loop_
_atom_site_label
_atom_site_type_symbol
_atom_site_fract_x
_atom_site_fract_y
_atom_site_fract_z
V1	V	-4.026184	-0.117429	-0.263322
O2	O	-4.013844	0.004910	-0.258012
O3	O	-3.977574	-0.232137	-0.261808
O4	O	-3.977591	-0.115944	-0.378036
O5	O	-4.013827	-0.112087	-0.140980
V6	V	-4.509864	-0.102758	-0.248654
O7	O	-4.287097	-0.149611	-0.295498
O8	O	-4.699147	-0.070575	-0.216479
O9	O	-4.335267	0.011951	-0.250169
O10	O	-4.639601	-0.225097	-0.253965
O11	O	-4.639617	-0.108099	-0.370997
O12	O	-4.335250	-0.104243	-0.133941
C13	C	-3.822530	-0.260091	-0.257728
C14	C	-3.864072	-0.353868	-0.257254
C15	C	-4.015199	-0.694622	-0.255573
C16	C	-3.779480	-0.653779	-0.250966
C17	C	-3.735942	-0.556181	-0.251124
C18	C	-3.940222	-0.525570	-0.256407
C19	C	-4.023196	-0.550725	-0.177802
C20	C	-4.065002	-0.648256	-0.177220
C21	C	-4.153223	-0.674025	-0.338559
C22	C	-4.106392	-0.576516	-0.340014
C23	C	-3.897858	-0.430029	-0.256876
C24	C	-4.057566	-0.790162	-0.255098
C25	C	-3.822550	-0.111874	-0.405987
C26	C	-3.864102	-0.111419	-0.499768
C27	C	-4.015190	-0.109655	-0.840509
C28	C	-3.779145	-0.104421	-0.799567
C29	C	-3.735951	-0.105243	-0.702074
C30	C	-3.940232	-0.110530	-0.671463
C31	C	-4.107221	-0.193843	-0.722296
C32	C	-4.149085	-0.193372	-0.819844
C33	C	-4.069986	-0.032242	-0.794473
C34	C	-4.022057	-0.031583	-0.696629
C35	C	-3.897882	-0.111027	-0.575926
C36	C	-4.057549	-0.109164	-0.936046
C37	C	-4.153653	0.039900	-0.254247
C38	C	-4.091350	0.133676	-0.254726
C39	C	-4.153633	-0.108316	-0.105985
C40	C	-4.091320	-0.108767	-0.012204
H41	H	-4.258737	-0.556706	-0.348751
C42	C	-3.646433	-0.533528	-0.327000
C43	C	-3.440696	-0.553769	-0.333924
C44	C	-3.351175	-0.531123	-0.409800
C45	C	-3.467392	-0.488237	-0.478752
C46	C	-3.673141	-0.467994	-0.471831
C47	C	-3.762661	-0.490639	-0.395954
H48	H	-3.354655	-0.585518	-0.282879
H49	H	-3.198866	-0.546109	-0.414923
H50	H	-3.401123	-0.471473	-0.534920
H51	H	-3.759182	-0.436245	-0.522875
H52	H	-3.914971	-0.475654	-0.390831
C53	C	-3.858587	0.051671	-0.649982
C54	C	-3.651756	0.048025	-0.589320
C55	C	-3.488283	0.131277	-0.542665
C56	C	-3.531642	0.218176	-0.556673
C57	C	-3.738483	0.221826	-0.617339
C58	C	-3.901956	0.138574	-0.663993
H59	H	-3.619650	-0.016306	-0.578947
H60	H	-3.335166	0.128575	-0.497757
H61	H	-3.410630	0.279804	-0.522137
H62	H	-3.770589	0.286157	-0.627711
H63	H	-4.055073	0.141276	-0.708902
C64	C	-3.637568	-0.671793	-0.170114
C65	C	-3.734799	-0.723385	-0.108344
C66	C	-3.592893	-0.741404	-0.027493
C67	C	-3.353756	-0.707830	-0.008411
C68	C	-3.256512	-0.656235	-0.070182
C69	C	-3.398418	-0.638217	-0.151034
H70	H	-3.911834	-0.748241	-0.122469
H71	H	-3.664881	-0.779598	0.018234
H72	H	-3.248709	-0.721168	0.051440
H73	H	-3.079477	-0.631379	-0.056058
H74	H	-3.326430	-0.600023	-0.196761
C75	C	-3.564836	-0.509431	-0.169985
C76	C	-3.491218	-0.411216	-0.153959
C77	C	-3.320195	-0.364465	-0.072790
C78	C	-3.222790	-0.415929	-0.007649
C79	C	-3.296406	-0.514150	-0.023673
C80	C	-3.467429	-0.560901	-0.104842
H81	H	-3.563324	-0.373115	-0.202182
H82	H	-3.265700	-0.291755	-0.060928
H83	H	-3.096188	-0.381321	0.052437
H84	H	-3.224300	-0.552251	0.024550
H85	H	-3.521925	-0.633610	-0.116704
C86	C	-4.302421	-0.036409	-0.830715
C87	C	-4.441889	-0.109659	-0.901721
C88	C	-4.674320	-0.113833	-0.937969
C89	C	-4.767283	-0.044757	-0.903211
C90	C	-4.627813	0.028498	-0.832201
C91	C	-4.395382	0.032672	-0.795953
H92	H	-4.373075	-0.160798	-0.927454
H93	H	-4.777564	-0.168062	-0.990535
H94	H	-4.939342	-0.047847	-0.930044
H95	H	-4.696627	0.079637	-0.806467
H96	H	-4.292138	0.086901	-0.743386
H97	H	-4.125534	-0.706698	-0.398171
H98	H	-4.325854	-0.701034	-0.342754
H99	H	-3.978618	0.030884	-0.807685
H100	H	-4.235016	-0.675100	-0.177167
H101	H	-4.260373	-0.200725	-0.703400
H102	H	-4.047529	-0.560983	-0.398178
H103	H	-3.733628	-0.684409	-0.306909
C104	C	-3.863800	-0.502398	-0.094186
C105	C	-3.766593	-0.552372	-0.027380
C106	C	-3.607187	-0.504047	0.056234
C107	C	-3.544987	-0.405747	0.073043
C108	C	-3.642196	-0.355766	0.006236
C109	C	-3.801602	-0.404092	-0.077378
H110	H	-3.812636	-0.625145	-0.039822
H111	H	-3.535227	-0.541046	0.105689
H112	H	-3.426985	-0.369973	0.134939
H113	H	-3.596153	-0.282993	0.018677
H114	H	-3.873562	-0.367092	-0.126833
C115	C	-3.565142	-0.024287	-0.654612
C116	C	-3.359195	-0.032068	-0.596519
C117	C	-3.188401	0.048909	-0.549091
C118	C	-3.223554	0.137667	-0.559755
C119	C	-3.429510	0.145452	-0.617851
C120	C	-3.600304	0.064475	-0.665280
H121	H	-3.333165	-0.097775	-0.588622
H122	H	-3.035939	0.043146	-0.506084
H123	H	-3.097122	0.197611	-0.524646
H124	H	-3.455540	0.211160	-0.625749
H125	H	-3.752766	0.070239	-0.708286
C126	C	-3.646171	-0.181246	-0.680242
C127	C	-3.613614	-0.241383	-0.751571
C128	C	-3.523834	-0.317390	-0.729740
C129	C	-3.466610	-0.333259	-0.636580
C130	C	-3.499165	-0.273120	-0.565245
C131	C	-3.588946	-0.197114	-0.587076
H132	H	-3.655976	-0.229637	-0.820539
H133	H	-3.499734	-0.361908	-0.782547
H134	H	-3.400149	-0.389524	-0.620419
H135	H	-3.456804	-0.284866	-0.496277
H136	H	-3.613046	-0.152595	-0.534268
C137	C	-4.032303	-0.273039	-0.699788
C138	C	-3.987779	-0.290297	-0.606890
C139	C	-3.912847	-0.369490	-0.584384
C140	C	-3.882439	-0.431425	-0.654775
C141	C	-3.926963	-0.414170	-0.747679
C142	C	-4.001895	-0.334976	-0.770186
H143	H	-4.010288	-0.244447	-0.554777
H144	H	-3.879887	-0.382264	-0.515609
H145	H	-3.826969	-0.490049	-0.638114
H146	H	-3.904453	-0.460019	-0.799793
H147	H	-4.034855	-0.322203	-0.838960
H148	H	-4.112909	-0.251976	-0.850371
H149	H	-4.169345	-0.030546	-0.675279
H150	H	-4.173224	-0.530875	-0.178660
H151	H	-3.966022	-0.659587	-0.114785
H152	H	-3.673038	-0.044236	-0.811782
H153	H	-3.734025	-0.160039	-0.831217
H154	H	-4.322917	-0.200679	-0.847854
