data_functionalizedCrystal
_audit_creation_method	'MofGen! by Chris Wilmer'
_symmetry_space_group_name_H-M	'P1'
_symmetry_Int_Tables_number	1
_symmetry_cell_setting	triclinic
loop_
_symmetry_equiv_pos_as_xyz
  x,y,z
_cell_length_a	19.851628
_cell_length_b	16.704494
_cell_length_c	16.704495
_cell_angle_alpha	54.476441
_cell_angle_beta	85.840391
_cell_angle_gamma	63.425226
loop_
_atom_site_label
_atom_site_type_symbol
_atom_site_fract_x
_atom_site_fract_y
_atom_site_fract_z
Zr1	Zr	0.696123	0.878468	-0.150440
O2	O	0.604149	1.045932	-0.287235
O3	O	0.718936	0.711015	-0.102530
O4	O	0.736927	0.878463	-0.278597
O5	O	0.578089	0.878484	0.020920
O6	O	0.847787	0.878448	-0.278580
O7	O	0.586158	0.878484	-0.111168
O8	O	0.815605	0.578913	0.036371
O9	O	0.610271	1.178019	-0.294031
O10	O	0.817902	0.779875	-0.089303
O11	O	0.729146	0.779887	0.009260
O12	O	0.750328	0.977037	-0.198036
O13	O	0.661572	0.977049	-0.099473
Zr14	Zr	0.860063	0.878444	0.060252
Zr15	Zr	0.872932	0.878444	-0.150413
Zr16	Zr	0.683254	0.878469	0.060225
Zr17	Zr	0.705888	1.089132	-0.161280
Zr18	Zr	0.850298	0.667781	0.071092
O19	O	0.837250	1.045898	0.012342
O20	O	0.855549	1.045897	-0.287196
O21	O	0.585850	1.045933	0.012304
O22	O	0.952037	0.710981	0.197047
O23	O	0.970336	0.710979	-0.102492
O24	O	0.700637	0.711016	0.197008
O25	O	0.978097	0.878429	-0.111108
O26	O	0.819259	0.878450	0.188409
O27	O	0.708399	0.878465	0.188392
O28	O	0.970028	0.878429	0.020980
O29	O	0.750811	1.178000	-0.294010
O30	O	0.805375	0.578913	0.203822
O31	O	0.945915	0.578894	0.203843
O32	O	0.956144	0.578893	0.036392
O33	O	0.600042	1.178020	-0.126580
O34	O	0.740581	1.178000	-0.126559
O35	O	0.805858	0.779876	0.107848
O36	O	0.894613	0.779864	0.009285
O37	O	0.827040	0.977025	-0.099448
O38	O	0.738284	0.977037	-0.000885
C39	C	0.765879	0.614949	-0.031535
C40	C	0.761734	0.525516	-0.026934
C41	C	0.846625	0.357435	-0.121180
C42	C	0.842733	0.273406	-0.116859
C43	C	0.750062	0.273420	-0.013965
C44	C	0.753954	0.357450	-0.018286
C45	C	0.802236	0.399456	-0.071897
C46	C	0.806124	0.483492	-0.076223
C47	C	0.713458	0.483500	0.026677
C48	C	0.709566	0.399470	0.030998
C49	C	0.556932	0.878487	-0.045128
C50	C	0.481872	0.878498	-0.045139
C51	C	0.263680	0.985973	-0.104390
C52	C	0.241207	0.932237	-0.140575
C53	C	0.344462	0.878468	-0.045109
C54	C	0.233195	0.932212	-0.008943
C55	C	0.211727	0.878448	-0.045082
C56	C	0.322981	0.824731	-0.081348
C57	C	0.314965	0.824722	0.050334
C58	C	0.292540	0.770907	0.014177
C59	C	0.420926	0.878483	-0.045128
C60	C	0.135268	0.878425	-0.045064
C61	C	0.999254	0.878425	-0.045060
C62	C	1.074314	0.878415	-0.045049
C63	C	0.794191	0.878455	-0.308604
C64	C	0.799654	0.878455	-0.398037
C65	C	0.790307	1.141964	-0.058653
C66	C	0.794452	1.231396	-0.063254
C67	C	0.868425	0.878448	-0.524080
C68	C	0.863295	0.878448	-0.440050
C69	C	0.741139	0.878466	-0.440063
C70	C	0.746269	0.878466	-0.524093
C71	C	0.809915	0.878455	-0.566098
C72	C	0.815047	0.878447	-0.650125
C73	C	0.692889	0.878473	-0.650141
C74	C	0.687759	0.878473	-0.566111
C75	C	0.761995	0.878458	0.218416
C76	C	0.756532	0.878458	0.307849
C77	C	0.987041	0.614918	-0.031502
C78	C	1.057955	0.525475	-0.026889
C79	C	0.749781	0.614950	0.231975
C80	C	0.740173	0.525518	0.326009
C81	C	0.970943	0.614919	0.232008
C82	C	1.036394	0.525476	0.326055
C83	C	0.585243	1.141994	-0.322196
C84	C	0.519792	1.231436	-0.416243
C85	C	0.569145	1.141995	-0.058686
C86	C	0.498231	1.231438	-0.063300
C87	C	0.806404	1.141963	-0.322163
C88	C	0.816013	1.231395	-0.416198
C89	C	1.051216	0.483477	-0.076193
C90	C	1.117843	0.399448	-0.071879
C91	C	1.191208	0.357412	-0.018253
C92	C	1.197947	0.399418	0.031052
C93	C	1.131321	0.483451	0.026731
C94	C	0.775703	0.483514	0.421640
C95	C	0.766671	0.399495	0.510003
C96	C	0.722114	0.357476	0.502734
C97	C	0.686580	0.399488	0.407093
C98	C	0.695607	0.483511	0.318732
C99	C	1.113468	0.483467	0.318771
C100	C	1.174974	0.399438	0.407128
C101	C	1.159405	0.357414	0.502769
C102	C	1.082323	0.399432	0.510051
C103	C	1.020819	0.483465	0.421694
C104	C	0.442719	1.273456	-0.408959
C105	C	0.381214	1.357511	-0.497318
C106	C	0.396783	1.399539	-0.592959
C107	C	0.473864	1.357516	-0.600240
C108	C	0.535368	1.273468	-0.511883
C109	C	0.504971	1.273444	-0.014004
C110	C	0.438347	1.357497	-0.018343
C111	C	0.364982	1.399536	-0.071971
C112	C	0.358243	1.357526	-0.121273
C113	C	0.424867	1.273481	-0.116940
C114	C	0.860575	1.273388	-0.408895
C115	C	0.869619	1.357407	-0.497242
C116	C	0.834095	1.399438	-0.592891
C117	C	0.789531	1.357437	-0.600191
C118	C	0.780493	1.273414	-0.511845
H119	H	0.710762	0.239192	0.029696
H120	H	0.346882	0.779325	0.131020
N121	N	0.883686	0.878451	-0.695440
H122	H	0.878060	0.878451	-0.755048
H123	H	0.933451	0.808459	-0.642151
H124	H	0.905905	1.391595	-0.491278
H125	H	1.245453	0.288986	-0.014742
H126	H	0.714770	0.289059	0.574691
H127	H	0.650301	0.365263	0.401189
N128	N	0.293130	1.490172	-0.076621
H129	H	0.256041	1.460933	-0.045829
H130	H	0.266729	1.559886	-0.149918
N131	N	1.130271	0.528773	0.215623
H132	H	1.188433	0.489400	0.224431
H133	H	1.109064	0.613131	0.174165
H134	H	0.635939	0.878486	-0.531903
N135	N	0.890604	0.228079	-0.170015
H136	H	0.947754	0.193207	-0.141218
H137	H	0.875258	0.292243	-0.245291
N138	N	0.330445	1.490177	-0.688257
H139	H	0.336105	1.559913	-0.732296
H140	H	0.279290	1.510316	-0.669040
H141	H	0.991485	0.517702	-0.119873
N142	N	0.751215	1.402778	-0.703356
H143	H	0.792419	1.388152	-0.739753
H144	H	0.713938	1.487122	-0.744770
N145	N	0.298080	1.402812	-0.489457
H146	H	0.272785	1.487164	-0.526354
H147	H	0.297615	1.363340	-0.415439
H148	H	0.811985	0.517717	0.427579
N149	N	0.618494	1.228131	-0.519749
H150	H	0.655102	1.168504	-0.449268
H151	H	0.630277	1.292300	-0.560211
N152	N	0.584095	1.228113	0.043841
H153	H	0.578245	1.267492	0.074401
H154	H	0.618801	1.242731	-0.004158
N155	N	1.138600	0.528739	0.079917
H156	H	1.118064	0.613092	0.028386
H157	H	1.195201	0.489268	0.114538
H158	H	0.443848	1.391687	0.021809
H159	H	1.237732	0.365236	0.401181
N160	N	1.277078	0.354075	0.088888
H161	H	1.318256	0.294465	0.084141
H162	H	1.277608	0.319260	0.162643
N163	N	0.279109	1.402854	-0.179093
H164	H	0.237931	1.462459	-0.174341
H165	H	0.267958	1.338671	-0.148753
H166	H	1.209493	0.288989	0.574707
N167	N	0.490654	1.402844	-0.703397
H168	H	0.469494	1.487199	-0.744896
H169	H	0.464901	1.388148	-0.739714
H170	H	0.419367	1.239282	-0.157080
H171	H	0.889505	1.239179	-0.331021
H172	H	1.069658	0.365204	0.587933
N173	N	0.937690	0.528766	0.429558
H174	H	0.937167	0.489384	0.503555
H175	H	0.907864	0.514134	0.397693
H176	H	0.920251	0.878428	-0.558275
N177	N	0.732416	1.228138	-0.519724
H178	H	0.766113	1.143781	-0.482813
H179	H	0.711289	1.267601	-0.593745
H180	H	0.670259	0.365255	0.074650
N181	N	0.425915	1.228132	-0.305810
H182	H	0.367753	1.267518	-0.314619
H183	H	0.451711	1.242744	-0.269448
N184	N	0.657268	0.528782	0.215608
H185	H	0.698452	0.514150	0.179190
H186	H	0.619970	0.613123	0.174170
N187	N	0.843835	1.490073	-0.688180
H188	H	0.869530	1.460830	-0.727120
H189	H	0.877435	1.510266	-0.668959
H190	H	0.252222	1.076874	-0.154587
N191	N	0.926398	0.878434	-0.394717
H192	H	0.930008	0.948418	-0.447932
H193	H	0.977944	0.808393	-0.370729
N194	N	0.858193	0.528807	-0.134048
H195	H	0.885723	0.489431	-0.164611
H196	H	0.898042	0.514179	-0.086039
H197	H	0.885932	0.391645	-0.164841
N198	N	0.672498	0.878483	-0.394750
H199	H	0.670673	0.808498	-0.370773
H200	H	0.622741	0.948523	-0.448020
H201	H	0.677311	0.517726	0.066803
H202	H	0.209290	0.977672	-0.221279
H203	H	1.112341	0.365257	-0.112030
N204	N	0.374112	0.764588	-0.121973
H205	H	0.424821	0.764996	-0.121762
H206	H	0.346525	0.804913	-0.193825
N207	N	0.181928	0.992414	0.031565
H208	H	0.170415	1.073620	-0.013283
H209	H	0.209614	0.952552	0.103222
N210	N	0.307917	0.650405	0.080595
H211	H	0.341245	0.609952	0.053165
H212	H	0.256762	0.651143	0.080693
H213	H	0.795612	0.365299	0.587869
H214	H	0.645248	0.878474	-0.684359
