data_functionalizedCrystal
_audit_creation_method	'MofGen! by Chris Wilmer'
_symmetry_space_group_name_H-M	'P1'
_symmetry_Int_Tables_number	1
_symmetry_cell_setting	triclinic
loop_
_symmetry_equiv_pos_as_xyz
  x,y,z
_cell_length_a	10.967926
_cell_length_b	14.853567
_cell_length_c	10.065875
_cell_angle_alpha	98.805381
_cell_angle_beta	93.120479
_cell_angle_gamma	84.184248
loop_
_atom_site_label
_atom_site_type_symbol
_atom_site_fract_x
_atom_site_fract_y
_atom_site_fract_z
O1	O	1.613150	0.157222	0.265925
O2	O	1.263110	0.159797	0.183596
O3	O	1.447481	0.027585	0.226956
O4	O	1.428779	0.289434	0.222565
O5	O	1.412324	0.052902	0.445676
O6	O	1.227954	0.185114	0.402316
O7	O	1.577993	0.182539	0.484646
Zn8	Zn	1.397392	0.187846	0.478208
Zn9	Zn	1.443712	0.154490	0.190034
O10	O	1.393623	0.314751	0.441286
C11	C	1.200735	0.170355	0.282419
C12	C	1.067254	0.164086	0.251024
C13	C	0.989532	0.174406	0.350331
C14	C	0.851572	0.167927	0.317885
C15	C	1.429056	0.006627	0.336113
C16	C	1.426519	-0.093541	0.335504
C17	C	1.306261	-0.510005	0.307246
C18	C	1.525297	-0.524123	0.358763
C19	C	1.527686	-0.430012	0.359317
C20	C	1.419360	-0.375893	0.333836
C21	C	1.308646	-0.415884	0.307802
C22	C	1.638396	-0.390012	0.385363
C23	C	1.640789	-0.295895	0.385920
C24	C	1.532464	-0.241775	0.360430
C25	C	1.421745	-0.281772	0.334393
C26	C	1.313420	-0.227653	0.308913
C27	C	1.202701	-0.267650	0.282867
C28	C	1.200321	-0.361765	0.282313
C29	C	1.534844	-0.147660	0.360984
C30	C	1.315804	-0.133533	0.309470
C31	C	1.640369	0.171981	0.385819
C32	C	1.773851	0.178249	0.417206
C33	C	1.412048	0.335709	0.332126
C34	C	1.414587	0.435876	0.332726
N35	N	1.365788	0.210611	0.674881
N36	N	1.475325	0.131719	-0.006637
C37	C	1.432709	0.162405	0.758398
C38	C	1.408395	0.179932	0.909847
H39	H	0.809438	0.191878	0.526254
H40	H	1.031660	0.150452	0.141984
H41	H	1.216118	-0.542575	0.286034
O42	O	1.198964	-0.075160	0.281999
H43	H	1.121580	-0.118784	0.263809
H44	H	1.730942	-0.263338	0.407126
O45	O	1.085862	-0.209276	0.255396
H46	H	1.096037	-0.176379	0.165272
O47	O	1.266058	0.282482	0.728658
H48	H	1.197376	0.249903	0.777632
O49	O	1.642124	-0.582491	0.386259
H50	H	1.709435	-0.578137	0.309578
H51	H	1.025128	0.188033	0.459372
O52	O	1.080905	-0.404897	0.254250
H53	H	1.097445	-0.479430	0.258167
H54	H	0.815984	0.154292	0.208837
O55	O	1.755226	-0.448375	0.412863
H56	H	1.734966	-0.520539	0.408089
O57	O	1.575067	0.059855	0.939580
H58	H	1.555149	-0.007872	0.962242
H59	H	1.624988	-0.115098	0.382199
O60	O	1.308654	0.251799	0.963626
H61	H	1.305216	0.254294	1.074142
O62	O	1.532414	0.090518	0.704605
H63	H	1.535852	0.088022	0.594089
