data_functionalizedCrystal
_audit_creation_method	'MofGen! by Chris Wilmer'
_symmetry_space_group_name_H-M	'P1'
_symmetry_Int_Tables_number	1
_symmetry_cell_setting	triclinic
loop_
_symmetry_equiv_pos_as_xyz
  x,y,z
_cell_length_a	18.050591
_cell_length_b	19.120786
_cell_length_c	18.050582
_cell_angle_alpha	87.534997
_cell_angle_beta	89.989456
_cell_angle_gamma	92.464148
loop_
_atom_site_label
_atom_site_type_symbol
_atom_site_fract_x
_atom_site_fract_y
_atom_site_fract_z
Zn1	Zn	1.122692	-0.279695	-0.407197
Zn2	Zn	1.117311	-0.397145	-0.277704
Zn3	Zn	0.998510	-0.279704	-0.283030
Zn4	Zn	0.993169	-0.397114	-0.401864
O5	O	1.057920	-0.338415	-0.342449
O6	O	1.225902	-0.295285	-0.390023
O7	O	1.101535	-0.381583	-0.174485
O8	O	1.019471	-0.181413	-0.303963
O9	O	1.221949	-0.381575	-0.294885
O10	O	1.110706	-0.181407	-0.395187
O11	O	1.014253	-0.295299	-0.178399
O12	O	0.893878	-0.295269	-0.298791
O13	O	1.010367	-0.381521	-0.506497
O14	O	0.889953	-0.381530	-0.386097
O15	O	1.105526	-0.295254	-0.510415
O16	O	1.096356	-0.495431	-0.289713
O17	O	1.005149	-0.495408	-0.380933
C18	C	0.864969	-0.338398	-0.342444
C19	C	0.782423	-0.338407	-0.342458
C20	C	0.531480	-0.385413	-0.389863
C21	C	0.580080	-0.402504	-0.321306
C22	C	0.485301	-0.338429	-0.342456
C23	C	0.583782	-0.321360	-0.411009
C24	C	0.631287	-0.338420	-0.342461
C25	C	0.532813	-0.355553	-0.273861
C26	C	0.536512	-0.274380	-0.363611
C27	C	0.585090	-0.291447	-0.295008
C28	C	0.401203	-0.338436	-0.342454
C29	C	0.715384	-0.338413	-0.342455
C30	C	1.049609	-0.520905	-0.334182
C31	C	1.046122	-0.598975	-0.330671
C32	C	1.091949	-0.635589	-0.376555
C33	C	1.088669	-0.708944	-0.373257
C34	C	1.039565	-0.745684	-0.324070
C35	C	0.993732	-0.709065	-0.278183
C36	C	0.997009	-0.635711	-0.281486
C37	C	1.027293	-0.967169	-0.311724
C38	C	1.024021	-1.040528	-0.308423
C39	C	1.118957	-1.040402	-0.403498
C40	C	1.122233	-0.967046	-0.406793
C41	C	1.076398	-0.930434	-0.360909
C42	C	1.036212	-0.820665	-0.320696
C43	C	1.079747	-0.855454	-0.364288
C44	C	1.251625	-0.338432	-0.342455
C45	C	1.334171	-0.338440	-0.342457
C46	C	1.057951	-0.338383	-0.536156
C47	C	1.057964	-0.338370	-0.618702
C48	C	1.066284	-0.155212	-0.350764
C49	C	1.069849	-0.077142	-0.354308
C50	C	1.006257	-0.385218	-0.816025
C51	C	1.073239	-0.402389	-0.864636
C52	C	1.058003	-0.338317	-0.769835
C53	C	0.991059	-0.321127	-0.868307
C54	C	1.058035	-0.338266	-0.915823
C55	C	1.125019	-0.355521	-0.817357
C56	C	1.042795	-0.274229	-0.821025
C57	C	1.109825	-0.291375	-0.869615
C58	C	1.057984	-0.338347	-0.685736
C59	C	1.058062	-0.338235	-0.999921
C60	C	1.057935	-0.338395	-0.149498
C61	C	1.058075	-0.338210	-0.066961
H62	H	0.608424	-0.251710	-0.254871
O63	O	0.916052	-0.301891	-0.897915
H64	H	0.922240	-0.253458	-0.933928
O65	O	0.948348	-0.437827	-0.784937
H66	H	0.892910	-0.424069	-0.806198
H67	H	0.508009	-0.425179	-0.429899
H68	H	1.156273	-1.070219	-0.440855
H69	H	1.131938	-0.605680	-0.416606
O70	O	0.503314	-0.374759	-0.197043
H71	H	0.525299	-0.335972	-0.157698
O72	O	1.138097	-0.748438	-0.422745
H73	H	1.172799	-0.710566	-0.457496
H74	H	1.086121	-0.456565	-0.883888
H75	H	0.599313	-0.456665	-0.303409
H76	H	0.517261	-0.220234	-0.381527
O77	O	1.167870	-0.238810	-0.900517
H78	H	1.155664	-0.185818	-0.882239
H79	H	1.029893	-0.220068	-0.801757
O80	O	0.613398	-0.302228	-0.487799
H81	H	0.591850	-0.341308	-0.527039
O82	O	1.175219	-0.927419	-0.459821
H83	H	1.206541	-0.965203	-0.491169
H84	H	0.984031	-1.070439	-0.268368
H85	H	0.959691	-0.605901	-0.244123
O86	O	1.200164	-0.374481	-0.787892
H87	H	1.199595	-0.374247	-0.726415
H88	H	1.119725	-0.825538	-0.404339
H89	H	0.989973	-0.937364	-0.274362
O90	O	0.940777	-0.748687	-0.225119
H91	H	0.946206	-0.805846	-0.230521
H92	H	0.996234	-0.850587	-0.280645
