data_functionalizedCrystal
_audit_creation_method	'MofGen! by Chris Wilmer'
_symmetry_space_group_name_H-M	'P1'
_symmetry_Int_Tables_number	1
_symmetry_cell_setting	triclinic
loop_
_symmetry_equiv_pos_as_xyz
  x,y,z
_cell_length_a	10.967926
_cell_length_b	13.596369
_cell_length_c	11.026607
_cell_angle_alpha	89.996407
_cell_angle_beta	83.619246
_cell_angle_gamma	77.876068
loop_
_atom_site_label
_atom_site_type_symbol
_atom_site_fract_x
_atom_site_fract_y
_atom_site_fract_z
O1	O	1.693950	-0.205332	-0.170501
O2	O	1.334330	-0.144375	-0.186827
O3	O	1.484335	-0.169805	-0.001763
O4	O	1.543945	-0.179902	-0.355565
O5	O	1.484314	-0.333384	-0.001753
O6	O	1.334309	-0.307955	-0.186817
O7	O	1.693929	-0.368911	-0.170490
Zn8	Zn	1.514116	-0.364405	-0.178652
Zn9	Zn	1.514144	-0.148882	-0.178665
O10	O	1.543924	-0.343481	-0.355555
C11	C	1.287565	-0.218240	-0.185635
C12	C	1.148247	-0.194625	-0.182083
C13	C	1.086124	-0.268836	-0.180494
C14	C	0.942132	-0.244431	-0.176823
N15	N	1.514105	-0.511495	-0.178643
C16	C	1.514142	-0.912792	-0.178667
C17	C	1.514129	-0.801138	-0.178664
C18	C	1.514125	-0.712147	-0.178656
C19	C	1.514110	-0.600486	-0.178651
C20	C	1.740694	-0.295044	-0.171683
C21	C	1.880012	-0.318652	-0.175235
C22	C	1.473328	-0.249730	0.043544
C23	C	1.440545	-0.244169	0.178531
N24	N	1.514162	-0.001793	-0.178666
C25	C	1.554932	-0.263555	-0.400862
C26	C	1.587714	-0.269108	-0.535848
C27	C	1.531063	-0.259511	0.251584
C28	C	1.497183	-0.253765	0.391100
H29	H	1.094832	-0.113023	-0.180722
N30	N	1.659743	-0.281312	0.200464
N31	N	1.687083	-0.285944	0.087203
H32	H	1.777966	-0.301339	0.051100
N33	N	0.946982	-0.421036	-0.176920
N34	N	0.924729	-0.476984	-0.090993
H35	H	0.972025	-0.549293	-0.092181
N36	N	1.153104	-0.371215	-0.182237
N37	N	1.094774	-0.440998	-0.180769
H38	H	1.142076	-0.513307	-0.182011
N39	N	1.368496	-0.231939	0.442214
N40	N	1.341157	-0.227298	0.555475
H41	H	1.250273	-0.211883	0.591578
H42	H	1.690299	-0.286423	0.423415
N43	N	1.311865	-0.222345	0.229650
N44	N	1.284526	-0.217704	0.342911
H45	H	1.193642	-0.202289	0.379014
H46	H	0.888721	-0.162823	-0.175463
