data_functionalizedCrystal
_audit_creation_method	'MofGen! by Chris Wilmer'
_symmetry_space_group_name_H-M	'P1'
_symmetry_Int_Tables_number	1
_symmetry_cell_setting	triclinic
loop_
_symmetry_equiv_pos_as_xyz
  x,y,z
_cell_length_a	11.792254
_cell_length_b	14.853567
_cell_length_c	13.330367
_cell_angle_alpha	90.001398
_cell_angle_beta	90.007649
_cell_angle_gamma	96.083236
loop_
_atom_site_label
_atom_site_type_symbol
_atom_site_fract_x
_atom_site_fract_y
_atom_site_fract_z
O1	O	1.506143	-0.123619	0.083414
O2	O	1.175725	-0.136342	0.083415
O3	O	1.349760	0.001215	0.083417
O4	O	1.332108	-0.261175	0.083411
O5	O	1.349734	0.001212	-0.083430
O6	O	1.175699	-0.136345	-0.083432
O7	O	1.506117	-0.123622	-0.083434
Cu8	Cu	1.340905	-0.129983	-0.098667
Cu9	Cu	1.340937	-0.129980	0.098649
O10	O	1.332082	-0.261178	-0.083436
C11	C	1.133426	-0.135542	-0.000008
C12	C	1.007428	-0.133143	-0.000008
C13	C	0.905104	-0.131194	-0.000003
C14	C	0.776732	-0.128756	-0.000003
C15	C	1.348947	0.034805	-0.000003
C16	C	1.346550	0.134898	0.000005
C17	C	1.548416	-0.124422	-0.000008
C18	C	1.674414	-0.126821	-0.000002
C19	C	1.332895	-0.294769	-0.000013
C20	C	1.335292	-0.394862	-0.000015
N21	N	1.340891	-0.129985	-0.237449
C22	C	1.233038	0.547878	-0.000013
C23	C	1.439796	0.568347	-0.000014
C24	C	1.442049	0.474304	-0.000008
C25	C	1.339796	0.417044	-0.000006
C26	C	1.235289	0.453827	-0.000011
C27	C	1.546554	0.437514	-0.000014
C28	C	1.548812	0.343467	-0.000010
C29	C	1.446557	0.286205	-0.000001
C30	C	1.342046	0.322993	-0.000004
C31	C	1.239793	0.265732	-0.000002
C32	C	1.135280	0.302519	0.000002
C33	C	1.133034	0.396565	-0.000002
C34	C	1.448804	0.192158	0.000003
C35	C	1.242043	0.171681	0.000001
C36	C	1.271977	-0.074935	-0.289972
C37	C	1.409820	-0.185031	-0.289953
C38	C	1.409833	-0.185031	-0.394972
C39	C	1.340919	-0.129980	-0.447495
C40	C	1.271991	-0.074930	-0.395000
C41	C	1.478768	-0.240072	-0.447475
C42	C	1.478785	-0.240073	-0.552499
C43	C	1.409864	-0.185027	-0.605025
C44	C	1.340932	-0.129976	-0.552523
C45	C	1.272018	-0.074926	-0.605047
C46	C	1.203080	-0.019879	-0.552548
C47	C	1.203070	-0.019884	-0.447526
C48	C	1.409874	-0.185021	-0.710046
C49	C	1.272032	-0.074921	-0.710075
N50	N	1.340959	-0.129971	0.237430
H51	H	1.052026	0.255885	-0.000003
C52	C	1.659022	0.500499	-0.000023
H53	H	1.642711	0.561777	-0.000014
H54	H	1.701854	0.489291	-0.058209
H55	H	1.701880	0.489296	0.058165
C56	C	1.018084	0.437032	-0.000011
H57	H	1.031392	0.501243	-0.000027
H58	H	0.975977	0.417423	0.058170
H59	H	0.975975	0.417407	-0.058204
C60	C	1.196224	-0.014368	-0.767848
H61	H	1.206099	-0.022251	-0.837914
H62	H	1.217204	0.047204	-0.750625
H63	H	1.118592	-0.030716	-0.750656
H64	H	1.533896	0.162211	-0.000007
C65	C	1.129562	0.108702	0.000002
H66	H	1.067003	0.144082	-0.000003
H67	H	1.126151	0.071588	0.058183
H68	H	1.126132	0.071590	-0.058191
C69	C	1.127252	0.040667	-0.389780
H70	H	1.086201	0.073448	-0.436100
H71	H	1.173691	0.081908	-0.348800
H72	H	1.075071	0.003994	-0.348823
C73	C	1.663768	0.303009	-0.000001
H74	H	1.724342	0.350582	0.000006
H75	H	1.668942	0.266738	-0.058177
H76	H	1.668947	0.266757	0.058196
C77	C	1.118084	0.588338	-0.000013
H78	H	1.131382	0.652549	-0.000020
H79	H	1.075983	0.568719	0.058168
H80	H	1.075972	0.568716	-0.058205
C81	C	1.554601	-0.300630	-0.610240
H82	H	1.595635	-0.333420	-0.563916
H83	H	1.606779	-0.263969	-0.651202
H84	H	1.508151	-0.341876	-0.651214
C85	C	1.554563	-0.300624	-0.389700
H86	H	1.544669	-0.292750	-0.319634
H87	H	1.632194	-0.284290	-0.406885
H88	H	1.533568	-0.362199	-0.406923
H89	H	1.466007	-0.229837	-0.752787
H90	H	1.215846	-0.030119	-0.247223
C91	C	1.127278	0.040672	-0.610330
H92	H	1.137162	0.032785	-0.680395
H93	H	1.148256	0.102246	-0.593111
H94	H	1.049643	0.024326	-0.593145
C95	C	1.485617	-0.245582	-0.232181
H96	H	1.475732	-0.237704	-0.162115
H97	H	1.563246	-0.229252	-0.249375
H98	H	1.464617	-0.307158	-0.249398
H99	H	1.523045	0.614973	-0.000024
