data_functionalizedCrystal
_audit_creation_method	'MofGen! by Chris Wilmer'
_symmetry_space_group_name_H-M	'P1'
_symmetry_Int_Tables_number	1
_symmetry_cell_setting	triclinic
loop_
_symmetry_equiv_pos_as_xyz
  x,y,z
_cell_length_a	15.995292
_cell_length_b	15.995350
_cell_length_c	15.186229
_cell_angle_alpha	89.998487
_cell_angle_beta	89.995469
_cell_angle_gamma	83.480495
loop_
_atom_site_label
_atom_site_type_symbol
_atom_site_fract_x
_atom_site_fract_y
_atom_site_fract_z
O1	O	1.111015	0.107694	-0.073248
O2	O	1.444348	0.441027	0.260085
O3	O	1.777681	0.774360	0.593419
O4	O	0.867233	0.121072	-0.073244
O5	O	1.200566	0.454405	0.260089
O6	O	1.533899	0.787739	0.593423
O7	O	0.995788	-0.007506	-0.073245
O8	O	1.329121	0.325827	0.260088
O9	O	1.662454	0.659161	0.593421
O10	O	0.982460	0.236272	-0.073247
O11	O	1.315793	0.569605	0.260087
O12	O	1.649126	0.902939	0.593420
O13	O	0.995779	-0.007508	0.073212
O14	O	1.329112	0.325825	0.406545
O15	O	1.662446	0.659159	0.739879
O16	O	0.867224	0.121070	0.073213
O17	O	1.200557	0.454404	0.406547
O18	O	1.533891	0.787737	0.739880
O19	O	1.111006	0.107692	0.073209
O20	O	1.444339	0.441025	0.406543
O21	O	1.777673	0.774359	0.739876
Zn22	Zn	0.989114	0.114381	0.096465
Zn23	Zn	1.322447	0.447714	0.429798
Zn24	Zn	1.655780	0.781047	0.763131
Zn25	Zn	0.989125	0.114383	-0.096499
Zn26	Zn	1.322458	0.447716	0.236834
Zn27	Zn	1.655792	0.781050	0.570167
O28	O	0.982451	0.236270	0.073211
O29	O	1.315784	0.569603	0.406544
O30	O	1.649118	0.902937	0.739877
C31	C	0.836033	0.120527	-0.000015
C32	C	1.169366	0.453860	0.333318
C33	C	1.502699	0.787193	0.666652
C34	C	0.743080	0.118894	-0.000014
C35	C	1.076413	0.452228	0.333320
C36	C	1.409747	0.785561	0.666653
C37	C	0.405341	0.112893	-0.000023
C38	C	0.738675	0.446226	0.333310
C39	C	1.072008	0.779560	0.666643
C40	C	0.428654	0.205697	-0.000351
C41	C	0.761987	0.539031	0.332982
C42	C	1.095320	0.872364	0.666316
C43	C	0.525329	0.207461	-0.000017
C44	C	0.858663	0.540795	0.333316
C45	C	1.191996	0.874128	0.666650
C46	C	0.572897	0.115871	-0.000019
C47	C	0.906231	0.449204	0.333314
C48	C	1.239564	0.782538	0.666648
C49	C	0.543791	0.069472	0.083613
C50	C	0.877124	0.402805	0.416946
C51	C	1.210457	0.736139	0.750279
C52	C	0.447000	0.068355	0.083679
C53	C	0.780333	0.401688	0.417012
C54	C	1.113667	0.735022	0.750346
C55	C	0.447154	0.066462	-0.082870
C56	C	0.780488	0.399795	0.250463
C57	C	1.113821	0.733128	0.583796
C58	C	0.543647	0.069901	-0.083972
C59	C	0.876980	0.403234	0.249361
C60	C	1.210314	0.736568	0.582695
C61	C	0.667593	0.117549	-0.000014
C62	C	1.000927	0.450882	0.333320
C63	C	1.334260	0.784216	0.666653
C64	C	0.310646	0.111212	-0.000023
C65	C	0.643979	0.444546	0.333310
C66	C	0.977312	0.777879	0.666644
C67	C	0.995232	-0.038702	-0.000018
C68	C	1.328566	0.294632	0.333315
C69	C	1.661899	0.627965	0.666648
C70	C	0.993580	-0.131652	-0.000023
C71	C	1.326914	0.201682	0.333310
C72	C	1.660247	0.535015	0.666643
C73	C	0.987648	-0.469398	-0.000020
C74	C	1.320981	-0.136065	0.333313
C75	C	1.654315	0.197269	0.666646
C76	C	0.896094	-0.421945	-0.000347
C77	C	1.229427	-0.088612	0.332986
C78	C	1.562760	0.244722	0.666319
C79	C	0.897746	-0.325255	-0.000017
C80	C	1.231079	0.008078	0.333316
C81	C	1.564413	0.341412	0.666650
C82	C	0.990591	-0.301838	-0.000022
C83	C	1.323924	0.031495	0.333311
C84	C	1.657257	0.364829	0.666644
C85	C	1.035744	-0.342926	0.083610
C86	C	1.369077	-0.009593	0.416943
C87	C	1.702410	0.323741	0.750276
C88	C	1.033444	-0.439561	0.083680
C89	C	1.366777	-0.106228	0.417013
C90	C	1.700110	0.227105	0.750347
C91	C	1.035345	-0.439918	-0.082870
C92	C	1.368678	-0.106584	0.250464
C93	C	1.702011	0.226749	0.583797
C94	C	1.035323	-0.342972	-0.083975
C95	C	1.368656	-0.009639	0.249359
C96	C	1.701990	0.323694	0.582692
C97	C	0.992259	-0.207141	-0.000020
C98	C	1.325592	0.126192	0.333313
C99	C	1.658925	0.459526	0.666646
C100	C	0.985983	-0.564095	-0.000016
C101	C	1.319316	-0.230762	0.333317
C102	C	1.652650	0.102571	0.666651
C103	C	1.142206	0.108237	-0.000022
C104	C	1.475539	0.441571	0.333312
C105	C	1.808873	0.774904	0.666645
C106	C	1.235159	0.109870	-0.000029
C107	C	1.568492	0.443203	0.333304
C108	C	1.901826	0.776536	0.666638
C109	C	0.983006	0.267466	-0.000018
C110	C	1.316340	0.600799	0.333315
C111	C	1.649673	0.934132	0.666648
C112	C	0.984658	0.360416	-0.000019
C113	C	1.317992	0.693749	0.333314
C114	C	1.651325	1.027082	0.666647
N115	N	0.989112	0.114379	0.228157
N116	N	1.322445	0.447712	0.561491
N117	N	1.655779	0.781045	0.894824
N118	N	0.989133	0.114379	-0.228192
N119	N	1.322467	0.447712	0.105141
N120	N	1.655800	0.781045	0.438475
C121	C	1.046056	0.057463	0.453879
C122	C	1.379389	0.390797	0.787213
C123	C	1.712722	0.724130	1.120546
C124	C	1.046058	0.057461	0.546069
C125	C	1.379392	0.390795	0.879402
C126	C	1.712725	0.724128	1.212736
C127	C	0.932184	0.171297	0.546079
C128	C	1.265517	0.504630	0.879413
C129	C	1.598850	0.837963	1.212746
C130	C	0.932178	0.171294	0.453891
C131	C	1.265511	0.504627	0.787225
C132	C	1.598844	0.837961	1.120558
C133	C	0.989118	0.114378	0.407794
C134	C	1.322452	0.447712	0.741127
C135	C	1.655785	0.781045	1.074460
C136	C	0.989127	0.114379	0.592171
C137	C	1.322460	0.447712	0.925505
C138	C	1.655794	0.781046	1.258838
C139	C	0.989129	0.114377	0.692128
C140	C	1.322463	0.447711	1.025461
C141	C	1.655796	0.781044	1.358794
C142	C	0.989115	0.114379	0.307831
C143	C	1.322448	0.447712	0.641165
C144	C	1.655782	0.781045	0.974498
H145	H	0.543729	0.244017	0.060035
H146	H	0.877063	0.577350	0.393368
H147	H	1.210396	0.910683	0.726702
H148	H	1.092419	0.011118	0.416349
H149	H	1.425752	0.344451	0.749682
H150	H	1.759086	0.677785	1.083016
F151	F	0.851029	-0.288821	0.078476
F152	F	1.184363	0.044513	0.411810
F153	F	1.517696	0.377846	0.745143
H154	H	1.102847	-0.471693	-0.083435
H155	H	1.436181	-0.138359	0.249898
H156	H	1.769514	0.194974	0.583231
F157	F	1.106657	-0.003117	0.595114
F158	F	1.439990	0.330217	0.928447
F159	F	1.773323	0.663550	1.261781
F160	F	0.871588	0.231870	0.595146
F161	F	1.204922	0.565203	0.928479
F162	F	1.538255	0.898536	1.261812
H163	H	0.433161	-0.001848	-0.083437
H164	H	0.766495	0.331485	0.249896
H165	H	1.099828	0.664818	0.583229
F166	F	0.848265	-0.446154	-0.078738
F167	F	1.181598	-0.112820	0.254595
F168	F	1.514932	0.220513	0.587928
H169	H	0.418831	0.095470	-0.146258
H170	H	0.752164	0.428803	0.187075
H171	H	1.085498	0.762137	0.520408
H172	H	0.859659	-0.441532	0.059294
H173	H	1.192993	-0.108199	0.392627
H174	H	1.526326	0.225135	0.725961
H175	H	1.100661	-0.471823	0.087471
H176	H	1.433995	-0.138490	0.420804
H177	H	1.767328	0.194843	0.754137
F178	F	0.871571	0.231870	0.404840
F179	F	1.204904	0.565204	0.738173
F180	F	1.538238	0.898537	1.071506
F181	F	1.124900	-0.324483	0.087673
F182	F	1.458234	0.008850	0.421007
F183	F	1.791567	0.342184	0.754340
F184	F	0.990395	-0.463477	0.165395
F185	F	1.323728	-0.130143	0.498729
F186	F	1.657062	0.203190	0.832062
F187	F	0.411941	0.110357	0.165392
F188	F	0.745274	0.443690	0.498725
F189	F	1.078607	0.777024	0.832058
F190	F	0.994744	-0.305825	0.164963
F191	F	1.328078	0.027509	0.498297
F192	F	1.661411	0.360842	0.831630
F193	F	0.992505	-0.306958	-0.164854
F194	F	1.325839	0.026376	0.168479
F195	F	1.659172	0.359709	0.501813
F196	F	0.427978	-0.020580	0.088682
F197	F	0.761311	0.312753	0.422016
F198	F	1.094645	0.646086	0.755349
F199	F	0.585436	-0.018626	0.087674
F200	F	0.918770	0.314708	0.421007
F201	F	1.252103	0.648041	0.754341
F202	F	0.550205	0.254955	-0.078377
F203	F	0.883538	0.588288	0.254957
F204	F	1.216872	0.921621	0.588290
F205	F	0.392066	0.252457	-0.078745
F206	F	0.725399	0.585790	0.254589
F207	F	1.058733	0.919124	0.587922
F208	F	1.123820	-0.322908	-0.090586
F209	F	1.457153	0.010425	0.242748
F210	F	1.790487	0.343759	0.576081
F211	F	0.390719	0.252196	0.077599
F212	F	0.724053	0.585529	0.410932
F213	F	1.057386	0.918862	0.744266
H214	H	0.563846	0.101692	0.145852
H215	H	0.897179	0.435025	0.479186
H216	H	1.230513	0.768358	0.812519
H217	H	0.862252	-0.296825	-0.059968
H218	H	1.195586	0.036509	0.273366
H219	H	1.528919	0.369842	0.606699
H220	H	1.005415	-0.460450	-0.146258
H221	H	1.338748	-0.127117	0.187076
H222	H	1.672082	0.206216	0.520409
H223	H	0.576617	0.003049	-0.089025
H224	H	0.909951	0.336383	0.244309
H225	H	1.243284	0.669716	0.577642
F226	F	0.567953	0.114036	-0.164844
F227	F	0.901286	0.447370	0.168490
F228	F	1.234619	0.780703	0.501823
