data_functionalizedCrystal
_audit_creation_method	'MofGen! by Chris Wilmer'
_symmetry_space_group_name_H-M	'P1'
_symmetry_Int_Tables_number	1
_symmetry_cell_setting	triclinic
loop_
_symmetry_equiv_pos_as_xyz
  x,y,z
_cell_length_a	16.625547
_cell_length_b	18.050590
_cell_length_c	18.050591
_cell_angle_alpha	90.005734
_cell_angle_beta	90.006494
_cell_angle_gamma	90.018489
loop_
_atom_site_label
_atom_site_type_symbol
_atom_site_fract_x
_atom_site_fract_y
_atom_site_fract_z
Zn1	Zn	1.232557	-0.295837	0.419992
Zn2	Zn	1.565890	0.037496	0.753325
Zn3	Zn	1.899223	0.370830	1.086659
Zn4	Zn	1.232512	-0.419982	0.295800
Zn5	Zn	1.565845	-0.086649	0.629134
Zn6	Zn	1.899179	0.246685	0.962467
Zn7	Zn	1.097761	-0.295810	0.295807
Zn8	Zn	1.431095	0.037523	0.629140
Zn9	Zn	1.764428	0.370856	0.962474
Zn10	Zn	1.097698	-0.419989	0.419940
Zn11	Zn	1.431031	-0.086656	0.753273
Zn12	Zn	1.764365	0.246677	1.086606
O13	O	1.165132	-0.357905	0.357885
O14	O	1.498465	-0.024571	0.691218
O15	O	1.831799	0.308762	1.024552
O16	O	1.345383	-0.312313	0.403537
O17	O	1.678716	0.021020	0.736870
O18	O	2.012050	0.354354	1.070204
O19	O	1.214645	-0.403496	0.191877
O20	O	1.547978	-0.070163	0.525210
O21	O	1.881312	0.263171	0.858543
O22	O	1.115687	-0.191889	0.312305
O23	O	1.449021	0.141444	0.645638
O24	O	1.782354	0.474777	0.978972
O25	O	1.345350	-0.403522	0.312294
O26	O	1.678684	-0.070189	0.645627
O27	O	2.012017	0.263145	0.978961
O28	O	1.214721	-0.191909	0.403543
O29	O	1.548054	0.141425	0.736877
O30	O	1.881387	0.474758	1.070210
O31	O	1.115644	-0.312268	0.191882
O32	O	1.448978	0.021066	0.525215
O33	O	1.782311	0.354399	0.858548
O34	O	0.984921	-0.312275	0.312254
O35	O	1.318254	0.021059	0.645588
O36	O	1.651587	0.354392	0.978921
O37	O	1.115579	-0.403535	0.523871
O38	O	1.448913	-0.070201	0.857205
O39	O	1.782246	0.263132	1.190538
O40	O	0.984874	-0.403509	0.403454
O41	O	1.318207	-0.070175	0.736787
O42	O	1.651541	0.263158	1.070121
O43	O	1.214659	-0.312320	0.523910
O44	O	1.547993	0.021013	0.857243
O45	O	1.881326	0.354346	1.190576
O46	O	1.214584	-0.523908	0.312243
O47	O	1.547917	-0.190574	0.645576
O48	O	1.881250	0.142759	0.978910
O49	O	1.115536	-0.523913	0.403448
O50	O	1.448870	-0.190580	0.736781
O51	O	1.782203	0.142754	1.070114
C52	C	0.955641	-0.357890	0.357850
C53	C	1.288974	-0.024557	0.691183
C54	C	1.622308	0.308776	1.024516
C55	C	0.866020	-0.357902	0.357852
C56	C	1.199353	-0.024569	0.691186
C57	C	1.532687	0.308765	1.024519
C58	C	0.793238	-0.357903	0.357862
C59	C	1.126571	-0.024570	0.691195
C60	C	1.459904	0.308763	1.024528
C61	C	0.701929	-0.357907	0.357880
C62	C	1.035262	-0.024574	0.691213
C63	C	1.368596	0.308759	1.024547
C64	C	0.629153	-0.357914	0.357899
C65	C	0.962486	-0.024581	0.691232
C66	C	1.295819	0.308753	1.024566
C67	C	0.537838	-0.357919	0.357917
C68	C	0.871172	-0.024586	0.691250
C69	C	1.204505	0.308747	1.024583
C70	C	1.165070	-0.550857	0.357855
C71	C	1.498403	-0.217523	0.691189
C72	C	1.831737	0.115810	1.024522
C73	C	1.165117	-0.633403	0.357867
C74	C	1.498451	-0.300069	0.691201
C75	C	1.831784	0.033264	1.024534
C76	C	1.219091	-0.832823	0.308340
C77	C	1.552425	-0.499490	0.641673
C78	C	1.885758	-0.166157	0.975006
C79	C	1.238765	-0.882183	0.376121
C80	C	1.572098	-0.548849	0.709454
C81	C	1.905432	-0.215516	1.042788
C82	C	1.165163	-0.784533	0.357897
C83	C	1.498496	-0.451200	0.691230
C84	C	1.831830	-0.117866	1.024564
C85	C	1.145571	-0.882255	0.290146
C86	C	1.478905	-0.548922	0.623479
C87	C	1.812238	-0.215588	0.956813
C88	C	1.165209	-0.930518	0.357920
C89	C	1.498542	-0.597185	0.691253
C90	C	1.831875	-0.263851	1.024586
C91	C	1.184874	-0.832805	0.425714
C92	C	1.518208	-0.499472	0.759047
C93	C	1.851541	-0.166138	1.092381
C94	C	1.091647	-0.832873	0.339693
C95	C	1.424980	-0.499540	0.673027
C96	C	1.758313	-0.166206	1.006360
C97	C	1.111292	-0.882210	0.407522
C98	C	1.444626	-0.548877	0.740855
C99	C	1.777959	-0.215544	1.074188
C100	C	1.165139	-0.700435	0.357883
C101	C	1.498472	-0.367101	0.691216
C102	C	1.831805	-0.033768	1.024550
C103	C	1.165233	-1.014615	0.357941
C104	C	1.498566	-0.681281	0.691275
C105	C	1.831900	-0.347948	1.024608
C106	C	1.375441	-0.357920	0.357920
C107	C	1.708774	-0.024586	0.691254
C108	C	2.042108	0.308747	1.024587
C109	C	1.465062	-0.357926	0.357936
C110	C	1.798395	-0.024593	0.691269
C111	C	2.131729	0.308741	1.024602
C112	C	1.165117	-0.357931	0.551590
C113	C	1.498450	-0.024598	0.884924
C114	C	1.831784	0.308735	1.218257
C115	C	1.165111	-0.357943	0.634136
C116	C	1.498444	-0.024609	0.967470
C117	C	1.831777	0.308724	1.300803
C118	C	1.165216	-0.164199	0.357931
C119	C	1.498550	0.169134	0.691264
C120	C	1.831883	0.502468	1.024597
C121	C	1.165252	-0.081653	0.357950
C122	C	1.498585	0.251680	0.691284
C123	C	1.831919	0.585013	1.024617
C124	C	1.111224	-0.407538	0.833566
C125	C	1.444558	-0.074205	1.166899
C126	C	1.777891	0.259128	1.500233
C127	C	1.184779	-0.425707	0.882962
C128	C	1.518112	-0.092374	1.216295
C129	C	1.851445	0.240959	1.549629
C130	C	1.165114	-0.357932	0.785267
C131	C	1.498448	-0.024599	1.118600
C132	C	1.831781	0.308734	1.451933
C133	C	1.091565	-0.339788	0.882952
C134	C	1.424898	-0.006455	1.216285
C135	C	1.758232	0.326878	1.549619
C136	C	1.165111	-0.357924	0.931252
C137	C	1.498445	-0.024591	1.264585
C138	C	1.831778	0.308743	1.597918
C139	C	1.238707	-0.376136	0.833575
C140	C	1.572041	-0.042803	1.166909
C141	C	1.905374	0.290530	1.500242
C142	C	1.145444	-0.290186	0.833561
C143	C	1.478778	0.043148	1.166895
C144	C	1.812111	0.376481	1.500228
C145	C	1.219049	-0.308329	0.882935
C146	C	1.552383	0.025005	1.216268
C147	C	1.885716	0.358338	1.549602
C148	C	1.165115	-0.357939	0.701168
C149	C	1.498448	-0.024606	1.034502
C150	C	1.831782	0.308728	1.367835
C151	C	1.165119	-0.357917	1.015348
C152	C	1.498452	-0.024584	1.348681
C153	C	1.831785	0.308750	1.682015
C154	C	1.165133	-0.357902	1.164933
C155	C	1.498466	-0.024568	1.498266
C156	C	1.831800	0.308765	1.831599
C157	C	1.165116	-0.357911	1.082387
C158	C	1.498449	-0.024578	1.415720
C159	C	1.831783	0.308755	1.749054
H160	H	1.264712	-0.811138	0.266474
H161	H	1.598045	-0.477805	0.599807
H162	H	1.931379	-0.144472	0.933140
H163	H	1.065709	-0.449524	0.811890
H164	H	1.399043	-0.116191	1.145223
H165	H	1.732376	0.217142	1.478556
H166	H	1.201402	-0.811176	0.483069
H167	H	1.534736	-0.477842	0.816402
H168	H	1.868069	-0.144509	1.149736
H169	H	1.128781	-0.232914	0.811845
H170	H	1.462115	0.100419	1.145179
H171	H	1.795448	0.433753	1.478512
H172	H	1.128982	-0.903976	0.232841
H173	H	1.462315	-0.570643	0.566174
H174	H	1.795649	-0.237310	0.899507
H175	H	1.300924	-0.391544	0.811977
H176	H	1.634257	-0.058211	1.145310
H177	H	1.967591	0.275123	1.478644
H178	H	1.029367	-0.324445	0.904642
H179	H	1.362700	0.008888	1.237975
H180	H	1.696033	0.342221	1.571309
H181	H	1.264673	-0.266375	0.904475
H182	H	1.598007	0.066959	1.237808
H183	H	1.931340	0.400292	1.571141
H184	H	1.201420	-0.482996	0.904661
H185	H	1.534754	-0.149662	1.237995
H186	H	1.868087	0.183671	1.571328
H187	H	1.065707	-0.903758	0.449489
H188	H	1.399040	-0.570425	0.782822
H189	H	1.732373	-0.237091	1.116156
H190	H	1.029474	-0.811196	0.324262
H191	H	1.362807	-0.477863	0.657595
H192	H	1.696141	-0.144529	0.990929
H193	H	1.300956	-0.903844	0.391532
H194	H	1.634289	-0.570511	0.724866
H195	H	1.967622	-0.237177	1.058199
