data_functionalizedCrystal
_audit_creation_method	'MofGen! by Chris Wilmer'
_symmetry_space_group_name_H-M	'P1'
_symmetry_Int_Tables_number	1
_symmetry_cell_setting	triclinic
loop_
_symmetry_equiv_pos_as_xyz
  x,y,z
_cell_length_a	19.188905
_cell_length_b	19.188930
_cell_length_c	15.072220
_cell_angle_alpha	89.993728
_cell_angle_beta	89.980393
_cell_angle_gamma	83.139668
loop_
_atom_site_label
_atom_site_type_symbol
_atom_site_fract_x
_atom_site_fract_y
_atom_site_fract_z
O1	O	0.926165	0.087080	-0.073939
O2	O	0.722851	0.098832	-0.073910
O3	O	0.830375	-0.008700	-0.073908
O4	O	0.818641	0.194612	-0.073941
O5	O	0.830348	-0.008694	0.073658
O6	O	0.722824	0.098838	0.073656
O7	O	0.926138	0.087086	0.073627
Zn8	Zn	0.824477	0.092963	0.097070
Zn9	Zn	0.824512	0.092955	-0.097353
O10	O	0.818614	0.194618	0.073625
C11	C	0.696826	0.098458	-0.000123
C12	C	0.619321	0.097324	-0.000111
C13	C	0.582943	0.096776	-0.080551
C14	C	0.510120	0.095703	-0.080562
C15	C	0.473678	0.095164	-0.000128
C16	C	0.510064	0.095716	0.080322
C17	C	0.582885	0.096796	0.080331
N18	N	0.364647	0.053738	0.059737
N19	N	0.295470	0.052710	0.059724
C20	C	0.254272	0.091911	-0.000149
N21	N	0.284864	0.132170	-0.060022
N22	N	0.354048	0.133194	-0.060011
C23	C	0.394716	0.093993	-0.000129
C24	C	0.138930	0.090201	-0.080607
C25	C	0.066105	0.089132	-0.080614
C26	C	0.066051	0.089138	0.080273
C27	C	0.138874	0.090214	0.080278
C28	C	0.175310	0.090742	-0.000164
C29	C	0.829982	-0.034708	-0.000122
C30	C	0.828841	-0.112213	-0.000115
C31	C	0.891933	-0.157142	-0.000119
C32	C	0.890861	-0.229966	-0.000133
C33	C	0.826694	-0.257857	-0.000125
C34	C	0.763594	-0.212917	-0.000125
C35	C	0.764668	-0.140095	-0.000120
N36	N	0.777637	-0.365855	0.050101
N37	N	0.776622	-0.435034	0.050098
C38	C	0.823456	-0.477265	-0.000142
N39	N	0.871355	-0.447706	-0.050369
N40	N	0.872372	-0.378521	-0.050362
C41	C	0.825523	-0.336819	-0.000131
C42	C	0.885390	-0.601159	-0.000164
C43	C	0.884315	-0.673984	-0.000183
C44	C	0.757047	-0.656933	-0.000166
C45	C	0.758123	-0.584110	-0.000155
C46	C	0.822296	-0.556228	-0.000150
C47	C	0.952163	0.087460	-0.000162
C48	C	1.029668	0.088594	-0.000180
C49	C	0.819007	0.220626	-0.000163
C50	C	0.820148	0.298131	-0.000176
N51	N	0.824458	0.092968	0.229759
N52	N	0.824536	0.092944	-0.230042
C53	C	0.824511	0.092952	0.588961
C54	C	0.766784	0.150299	0.551353
C55	C	0.766916	0.150507	0.448527
C56	C	0.824484	0.092960	0.410756
C57	C	0.897287	0.108643	0.448034
C58	C	0.896964	0.109050	0.550892
C59	C	0.810083	0.019751	0.551076
C60	C	0.808410	0.020245	0.448212
C61	C	0.824474	0.092963	0.310043
C62	C	0.824526	0.092951	0.689674
H63	H	0.942239	-0.266555	-0.000141
C64	C	0.956980	0.054628	0.677382
C65	C	0.956679	0.054799	0.584481
H66	H	0.993845	0.021135	0.698113
H67	H	0.963993	0.099917	0.698445
H68	H	0.913309	0.042704	0.698590
H69	H	1.000349	0.066728	0.563273
H70	H	0.949672	0.009500	0.563409
C71	C	0.495645	0.035380	0.217459
C72	C	0.470013	0.095121	0.168739
H73	H	0.470922	0.035019	0.272048
H74	H	0.489176	-0.005498	0.184414
H75	H	0.544222	0.036111	0.228969
H76	H	0.421437	0.094387	0.157223
H77	H	0.476476	0.136010	0.201791
H78	H	0.910345	0.161411	0.422254
C79	C	0.672788	0.038004	0.173678
C80	C	0.622878	0.097391	0.168756
H81	H	0.697481	0.038374	0.228267
H82	H	0.649832	-0.003114	0.170342
H83	H	0.704907	0.038484	0.125770
H84	H	0.590756	0.096909	0.216661
H85	H	0.645835	0.138520	0.172101
H86	H	0.706747	-0.547527	-0.000147
H87	H	0.775846	0.204319	0.577180
H88	H	0.713289	-0.103513	-0.000116
H89	H	0.711349	-0.235631	-0.000120
C90	C	0.436298	0.034469	-0.173884
C91	C	0.470123	0.095097	-0.168988
H92	H	0.411605	0.034097	-0.228472
H93	H	0.470163	-0.005807	-0.170530
H94	H	0.404177	0.034005	-0.125975
H95	H	0.502248	0.095557	-0.216893
H96	H	0.436255	0.135383	-0.172350
C97	C	0.959098	0.055211	0.322175
C98	C	0.956655	0.053752	0.415001
H99	H	0.995752	0.021326	0.301783
H100	H	0.915559	0.044737	0.298868
H101	H	0.967653	0.100560	0.302925
H102	H	0.948095	0.008405	0.434251
H103	H	1.000205	0.064221	0.438317
C104	C	0.035537	0.148816	0.217387
C105	C	0.025999	0.088546	0.168686
H106	H	0.010803	0.148453	0.271967
H107	H	0.084108	0.149530	0.228907
H108	H	0.018157	0.189340	0.184317
H109	H	0.043384	0.048023	0.201753
H110	H	-0.022582	0.087826	0.157168
H111	H	0.712793	0.141197	0.423326
C112	C	0.779495	0.224398	0.322375
C113	C	0.779320	0.223844	0.415274
H114	H	0.787150	0.269677	0.301849
H115	H	0.815898	0.190606	0.301178
H116	H	0.735551	0.213298	0.301097
H117	H	0.823266	0.234940	0.436552
H118	H	0.742915	0.257647	0.436480
H119	H	0.168597	0.090638	-0.146107
C120	C	0.169293	0.030536	0.217411
C121	C	0.178867	0.090804	0.168701
H122	H	0.193986	0.030902	0.272000
H123	H	0.120713	0.029823	0.228915
H124	H	0.186697	-0.009989	0.184356
H125	H	0.161458	0.131329	0.201754
H126	H	0.227456	0.091524	0.157199
C127	C	0.708805	0.052279	0.642276
C128	C	0.739973	-0.000670	0.586137
H129	H	0.665518	0.039678	0.663915
H130	H	0.739230	0.057973	0.690751
H131	H	0.700519	0.095095	0.610226
H132	H	0.748263	-0.043486	0.618188
H133	H	0.709540	-0.006372	0.537654
H134	H	0.937644	-0.578456	-0.000163
C135	C	0.597361	0.157108	-0.217690
C136	C	0.622991	0.097365	-0.168973
H137	H	0.622089	0.157473	-0.272275
H138	H	0.548790	0.156380	-0.229202
H139	H	0.603832	0.197989	-0.184636
H140	H	0.616514	0.056484	-0.202024
H141	H	0.671573	0.098086	-0.157464
C142	C	0.073480	0.089214	-0.239640
C143	C	0.026116	0.088527	-0.169041
H144	H	0.048791	0.088835	-0.294231
H145	H	0.096425	0.130339	-0.236305
H146	H	0.107339	0.048926	-0.236270
H147	H	-0.007740	0.128819	-0.172408
H148	H	0.003160	0.047398	-0.172378
H149	H	0.754856	0.008338	0.423850
C150	C	0.858208	-0.042212	0.320767
C151	C	0.861509	-0.040040	0.413516
H152	H	0.890998	-0.079425	0.299350
H153	H	0.812224	-0.049737	0.302952
H154	H	0.869176	0.001053	0.297098
H155	H	0.850537	-0.083303	0.437185
H156	H	0.907503	-0.032519	0.431339
H157	H	0.852183	-0.022921	0.575395
H158	H	0.712486	0.141146	0.576124
H159	H	0.944187	-0.134445	-0.000118
C160	C	1.010221	-0.683518	-0.000175
C161	C	0.953672	-0.723374	-0.000186
H162	H	1.053038	-0.714011	-0.000171
H163	H	1.008008	-0.654755	-0.051628
H164	H	1.007973	-0.654764	0.051291
H165	H	0.955917	-0.752124	-0.051656
H166	H	0.955886	-0.752149	0.051272
H167	H	0.704801	-0.679641	-0.000164
C168	C	0.924665	0.223507	0.509995
C169	C	0.914164	0.181109	0.583258
H170	H	0.935278	0.267996	0.529976
H171	H	0.962572	0.201770	0.475407
H172	H	0.883258	0.229519	0.474924
H173	H	0.955573	0.175093	0.618326
H174	H	0.876254	0.202851	0.617860
