data_functionalizedCrystal
_audit_creation_method	'MofGen! by Chris Wilmer'
_symmetry_space_group_name_H-M	'P1'
_symmetry_Int_Tables_number	1
_symmetry_cell_setting	triclinic
loop_
_symmetry_equiv_pos_as_xyz
  x,y,z
_cell_length_a	12.837932
_cell_length_b	12.811415
_cell_length_c	14.586319
_cell_angle_alpha	84.565349
_cell_angle_beta	89.996731
_cell_angle_gamma	89.412215
loop_
_atom_site_label
_atom_site_type_symbol
_atom_site_fract_x
_atom_site_fract_y
_atom_site_fract_z
O1	O	1.376631	0.272985	-0.098935
O2	O	1.074767	0.259499	-0.097816
O3	O	1.233294	0.114209	-0.085731
O4	O	1.218105	0.418275	-0.111020
O5	O	1.233282	0.114206	0.066750
O6	O	1.074756	0.259495	0.054665
O7	O	1.376620	0.272982	0.053546
Cu8	Cu	1.225687	0.266238	0.068028
Cu9	Cu	1.225700	0.266242	-0.112298
O10	O	1.218094	0.418271	0.041461
C11	C	1.036122	0.254941	-0.021197
C12	C	0.920986	0.241354	-0.020067
C13	C	0.770653	0.127793	-0.010621
C14	C	0.878834	0.140553	-0.011683
C15	C	0.854948	0.329403	-0.027389
C16	C	0.746767	0.316644	-0.026327
C17	C	0.704623	0.215836	-0.017944
C18	C	0.596440	0.203077	-0.016890
C19	C	0.572556	0.391927	-0.032589
C20	C	0.680737	0.404686	-0.033650
C21	C	1.232437	0.075018	-0.006233
C22	C	1.229888	-0.041755	0.003473
C23	C	1.225092	-0.261171	-0.144543
C24	C	1.222697	-0.370890	-0.135428
C25	C	1.222696	-0.370913	0.030817
C26	C	1.225090	-0.261194	0.021702
C27	C	1.226290	-0.206327	-0.065981
C28	C	1.228692	-0.096607	-0.075095
C29	C	1.228684	-0.096632	0.091149
C30	C	1.226289	-0.206351	0.100264
C31	C	1.415266	0.277539	-0.023075
C32	C	1.530402	0.291126	-0.024211
C33	C	1.218951	0.457462	-0.038039
C34	C	1.221500	0.574235	-0.047751
N35	N	1.225686	0.266235	0.194860
N36	N	1.225710	0.266237	-0.239130
C37	C	1.295905	0.201927	0.435215
C38	C	1.295908	0.201925	0.531197
C39	C	1.155484	0.330548	0.520508
C40	C	1.155477	0.330544	0.424529
C41	C	1.225693	0.266235	0.381885
C42	C	1.225703	0.266237	0.573846
C43	C	1.225706	0.266235	0.677913
C44	C	1.225689	0.266236	0.277811
H45	H	0.736340	0.045711	-0.003805
O46	O	1.229984	-0.037424	-0.169663
H47	H	1.160479	0.014862	-0.177972
H48	H	1.221710	-0.415605	0.102204
H49	H	1.229664	-0.051967	0.155120
H50	H	1.353079	0.149558	0.574617
O51	O	1.079745	0.399902	0.366992
H52	H	1.093312	0.483095	0.378474
O53	O	0.950057	0.045595	-0.003786
H54	H	0.902573	-0.026642	0.002215
H55	H	1.353077	0.149562	0.400497
O56	O	0.900409	0.438126	-0.036420
H57	H	0.986728	0.432201	-0.035928
O58	O	0.726192	0.513412	-0.042694
H59	H	0.812511	0.507495	-0.042207
O60	O	1.079764	0.399921	0.566500
H61	H	1.091572	0.389132	0.642200
H62	H	0.562129	0.120994	-0.010068
H63	H	1.226077	-0.216497	-0.215938
O64	O	0.501340	0.486898	-0.040483
H65	H	0.419033	0.461094	-0.038332
H66	H	1.221717	-0.415539	-0.199401
O67	O	1.225018	-0.265530	0.194834
H68	H	1.223165	-0.351039	0.187976
