data_functionalizedCrystal
_audit_creation_method	'MofGen! by Chris Wilmer'
_symmetry_space_group_name_H-M	'P1'
_symmetry_Int_Tables_number	1
_symmetry_cell_setting	triclinic
loop_
_symmetry_equiv_pos_as_xyz
  x,y,z
_cell_length_a	27.731994
_cell_length_b	27.732048
_cell_length_c	13.596369
_cell_angle_alpha	89.989067
_cell_angle_beta	90.000755
_cell_angle_gamma	82.631595
loop_
_atom_site_label
_atom_site_type_symbol
_atom_site_fract_x
_atom_site_fract_y
_atom_site_fract_z
O1	O	0.640945	0.057393	-0.081662
O2	O	1.140945	0.557393	0.418338
O3	O	0.500148	0.066166	-0.081696
O4	O	1.000148	0.566166	0.418304
O5	O	0.574919	-0.008618	-0.081659
O6	O	1.074919	0.491382	0.418341
O7	O	0.566173	0.132177	-0.081699
O8	O	1.066173	0.632177	0.418301
O9	O	0.574912	-0.008622	0.081924
O10	O	1.074912	0.491378	0.581924
O11	O	0.500140	0.066162	0.081887
O12	O	1.000140	0.566162	0.581887
O13	O	0.640937	0.057389	0.081921
O14	O	1.140937	0.557389	0.581921
Zn15	Zn	0.570538	0.061775	0.107877
Zn16	Zn	1.070538	0.561775	0.607877
Zn17	Zn	0.570547	0.061780	-0.107651
Zn18	Zn	1.070547	0.561780	0.392349
O19	O	0.566166	0.132173	0.081884
O20	O	1.066166	0.632173	0.581884
C21	C	0.482137	0.065984	0.000092
C22	C	0.982137	0.565984	0.500092
C23	C	0.428480	0.065442	0.000079
C24	C	0.928480	0.565442	0.500079
C25	C	0.095758	0.062024	0.089287
C26	C	0.595758	0.562024	0.589287
C27	C	-0.105900	0.059962	0.089299
C28	C	0.394100	0.559962	0.589299
O29	O	-0.131976	0.059673	0.165134
O30	O	0.368024	0.559673	0.665134
N31	N	-0.131111	0.059708	0.000130
N32	N	0.368889	0.559708	0.500130
C33	C	-0.105904	0.059966	-0.089048
C34	C	0.394096	0.559966	0.410952
O35	O	-0.131974	0.059698	-0.164891
O36	O	0.368026	0.559698	0.335109
C37	C	0.095754	0.062025	-0.089059
C38	C	0.595754	0.562025	0.410941
C39	C	0.120961	0.062283	0.000116
C40	C	0.620961	0.562283	0.500116
C41	C	0.120965	0.062282	0.178455
C42	C	0.620965	0.562282	0.678455
C43	C	0.171377	0.062800	0.178451
C44	C	0.671377	0.562800	0.678451
C45	C	0.196580	0.063060	0.089280
C46	C	0.696580	0.563060	0.589280
C47	C	0.171372	0.062801	0.000112
C48	C	0.671372	0.562801	0.500112
C49	C	0.120961	0.062279	-0.178236
C50	C	0.620961	0.562279	0.321764
C51	C	0.171378	0.062793	-0.178231
C52	C	0.671378	0.562793	0.321769
C53	C	0.196586	0.063052	-0.089056
C54	C	0.696586	0.563052	0.410944
C55	C	0.246987	0.063579	-0.089063
C56	C	0.746987	0.563579	0.410937
N57	N	0.272198	0.063833	0.000106
N58	N	0.772198	0.563833	0.500106
C59	C	0.246994	0.063573	0.089277
C60	C	0.746994	0.563573	0.589277
C61	C	-0.211777	0.058887	-0.089036
C62	C	0.288223	0.558887	0.410964
C63	C	-0.262192	0.058373	-0.089034
C64	C	0.237808	0.558373	0.410966
C65	C	-0.262184	0.058368	0.089314
C66	C	0.237816	0.558368	0.589314
C67	C	-0.211770	0.058885	0.089310
C68	C	0.288230	0.558885	0.589310
C69	C	-0.186566	0.059141	0.000133
C70	C	0.313434	0.559141	0.500133
C71	C	0.352861	0.064662	0.089262
C72	C	0.852861	0.564662	0.589262
C73	C	0.403277	0.065182	0.089251
C74	C	0.903277	0.565182	0.589251
C75	C	0.403265	0.065185	-0.089096
C76	C	0.903265	0.565185	0.410904
C77	C	0.352854	0.064667	-0.089085
C78	C	0.852854	0.564667	0.410915
C79	C	0.327654	0.064404	0.000102
C80	C	0.827654	0.564404	0.500102
O81	O	0.273095	0.063863	-0.164858
O82	O	0.773095	0.563863	0.335142
O83	O	0.273074	0.063831	0.165109
O84	O	0.773074	0.563831	0.665109
C85	C	0.045347	0.061506	0.089291
C86	C	0.545347	0.561506	0.589291
C87	C	0.020139	0.061247	0.000124
C88	C	0.520139	0.561247	0.500124
C89	C	0.045342	0.061507	-0.089048
C90	C	0.545342	0.561507	0.410952
C91	C	-0.030275	0.060734	0.000126
C92	C	0.469725	0.560734	0.500126
C93	C	-0.055479	0.060474	0.089297
C94	C	0.444521	0.560474	0.589297
C95	C	-0.030268	0.060728	0.178466
C96	C	0.469732	0.560728	0.678466
C97	C	0.020143	0.061246	0.178462
C98	C	0.520143	0.561246	0.678462
C99	C	0.020132	0.061253	-0.178217
C100	C	0.520132	0.561253	0.321783
C101	C	-0.030280	0.060736	-0.178205
C102	C	0.469720	0.560736	0.321795
C103	C	-0.055483	0.060476	-0.089034
C104	C	0.444517	0.560476	0.410966
C105	C	0.574732	-0.026627	0.000135
C106	C	1.074732	0.473373	0.500135
C107	C	0.574179	-0.080282	0.000143
C108	C	1.074179	0.419718	0.500143
C109	C	0.614884	-0.419105	0.000103
C110	C	1.114884	0.080895	0.500103
C111	C	0.612833	-0.620764	0.000088
C112	C	1.112833	-0.120764	0.500088
O113	O	0.650055	-0.652027	0.000054
O114	O	1.150055	-0.152027	0.500054
N115	N	0.568496	-0.639879	0.000078
N116	N	1.068496	-0.139879	0.500078
C117	C	0.524670	-0.608576	0.000066
C118	C	1.024670	-0.108576	0.500066
O119	O	0.486912	-0.629462	0.000047
O120	O	0.986912	-0.129462	0.500047
C121	C	0.526721	-0.406918	0.000073
C122	C	1.026721	0.093082	0.500073
C123	C	0.571061	-0.387805	0.000093
C124	C	1.071061	0.112195	0.500093
C125	C	0.659220	-0.399992	0.000121
C126	C	1.159220	0.100008	0.500121
C127	C	0.659732	-0.349580	0.000130
C128	C	1.159732	0.150420	0.500130
C129	C	0.615908	-0.318281	0.000120
C130	C	1.115908	0.181719	0.500120
C131	C	0.571573	-0.337394	0.000102
C132	C	1.071573	0.162606	0.500102
C133	C	0.482895	-0.375615	0.000053
C134	C	0.982895	0.124385	0.500053
C135	C	0.483412	-0.325198	0.000052
C136	C	0.983412	0.174802	0.500052
C137	C	0.527751	-0.306086	0.000072
C138	C	1.027751	0.193914	0.500072
C139	C	0.528262	-0.255683	0.000101
C140	C	1.028262	0.244317	0.500101
N141	N	0.572598	-0.236567	0.000111
N142	N	1.072598	0.263433	0.500111
C143	C	0.616421	-0.267867	0.000120
C144	C	1.116421	0.232133	0.500120
C145	C	0.523596	-0.714450	0.000064
C146	C	1.023596	-0.214450	0.500064
C147	C	0.523083	-0.764864	0.000064
C148	C	1.023083	-0.264864	0.500064
C149	C	0.611246	-0.777049	0.000085
C150	C	1.111246	-0.277049	0.500085
C151	C	0.611759	-0.726633	0.000092
C152	C	1.111759	-0.226633	0.500092
C153	C	0.567932	-0.695335	0.000074
C154	C	1.067932	-0.195335	0.500074
C155	C	0.617494	-0.161998	0.000140
C156	C	1.117494	0.338002	0.500140
C157	C	0.618002	-0.111581	0.000153
C158	C	1.118002	0.388419	0.500153
C159	C	0.529839	-0.099401	0.000127
C160	C	1.029839	0.400599	0.500127
C161	C	0.529331	-0.149813	0.000119
C162	C	1.029331	0.350187	0.500119
C163	C	0.573162	-0.181111	0.000122
C164	C	1.073162	0.318889	0.500122
O165	O	0.491060	-0.224391	0.000124
O166	O	0.991060	0.275609	0.500124
O167	O	0.654174	-0.246971	0.000117
O168	O	1.154174	0.253029	0.500117
C169	C	0.614372	-0.469517	0.000094
C170	C	1.114372	0.030483	0.500094
C171	C	0.570036	-0.488629	0.000075
C172	C	1.070036	0.011371	0.500075
C173	C	0.526213	-0.457330	0.000065
C174	C	1.026213	0.042670	0.500065
C175	C	0.569523	-0.539043	0.000075
C176	C	1.069523	-0.039043	0.500075
C177	C	0.613346	-0.570343	0.000085
C178	C	1.113346	-0.070343	0.500085
C179	C	0.657683	-0.551228	0.000095
C180	C	1.157683	-0.051228	0.500095
C181	C	0.658195	-0.500816	0.000103
C182	C	1.158195	-0.000816	0.500103
C183	C	0.481876	-0.476445	0.000055
C184	C	0.981876	0.023555	0.500055
C185	C	0.481367	-0.526857	0.000047
C186	C	0.981367	-0.026857	0.500047
C187	C	0.525191	-0.558157	0.000057
C188	C	1.025191	-0.058157	0.500057
C189	C	0.658949	0.057571	0.000132
C190	C	1.158949	0.557571	0.500132
C191	C	0.712605	0.058114	0.000138
C192	C	1.212605	0.558114	0.500138
C193	C	0.566353	0.150182	0.000088
C194	C	1.066353	0.650182	0.500088
C195	C	0.566906	0.203837	0.000074
C196	C	1.066906	0.703837	0.500074
N197	N	0.570535	0.061771	0.254968
N198	N	1.070535	0.561771	0.754968
N199	N	0.570554	0.061780	-0.254743
N200	N	1.070554	0.561780	0.245257
C201	C	0.570547	0.061781	0.656259
C202	C	1.070547	0.561781	1.156259
C203	C	0.570542	0.061780	0.544608
C204	C	1.070542	0.561780	1.044608
C205	C	0.570541	0.061776	0.455617
C206	C	1.070541	0.561776	0.955617
C207	C	0.570536	0.061775	0.343959
C208	C	1.070536	0.561775	0.843959
H209	H	0.332348	0.064452	0.161887
H210	H	0.832348	0.564452	0.661887
H211	H	0.191896	0.063001	-0.250852
H212	H	0.691896	0.563001	0.249148
Cl213	Cl	0.203059	0.063122	0.290563
Cl214	Cl	0.703059	0.563122	0.790563
H215	H	0.332328	0.064464	-0.161698
H216	H	0.832328	0.564464	0.338302
Cl217	Cl	-0.180101	0.059210	-0.201157
Cl218	Cl	0.319899	0.559210	0.298843
H219	H	0.486977	-0.780420	0.000065
H220	H	0.986977	-0.280420	0.500065
H221	H	0.100450	0.062069	0.251073
H222	H	0.600450	0.562069	0.751073
H223	H	0.446789	-0.391167	0.000031
H224	H	0.946789	0.108833	0.500031
Cl225	Cl	0.473589	-0.173841	0.000113
Cl226	Cl	0.973589	0.326159	0.500113
Cl227	Cl	0.714320	-0.439332	0.000135
Cl228	Cl	1.214320	0.060668	0.500135
Cl229	Cl	0.434960	0.065508	-0.201191
Cl230	Cl	0.934960	0.565508	0.298809
H231	H	0.693365	-0.576720	0.000107
H232	H	1.193365	-0.076720	0.500107
H233	H	-0.282714	0.058158	0.161921
H234	H	0.217286	0.558158	0.661921
Cl235	Cl	0.468494	-0.675109	0.000042
Cl236	Cl	0.968494	-0.175109	0.500042
Cl237	Cl	0.428312	-0.285854	0.000029
Cl238	Cl	0.928312	0.214146	0.500029
Cl239	Cl	0.426778	-0.437104	0.000041
Cl240	Cl	0.926778	0.062896	0.500041
Cl241	Cl	-0.180085	0.059209	0.201419
Cl242	Cl	0.319915	0.559209	0.701419
H243	H	0.647863	-0.711076	0.000107
H244	H	1.147863	-0.211076	0.500107
H245	H	0.040663	0.061457	0.251078
H246	H	0.540663	0.561457	0.751078
Cl247	Cl	0.474750	-0.060044	0.000113
Cl248	Cl	0.974750	0.439956	0.500113
Cl249	Cl	-0.293876	0.058058	-0.201144
Cl250	Cl	0.206124	0.558058	0.298856
H251	H	0.654110	-0.096023	0.000172
H252	H	1.154110	0.403977	0.500172
Cl253	Cl	-0.061963	0.060413	-0.290323
Cl254	Cl	0.438037	0.560413	0.209677
Cl255	Cl	0.713939	-0.476797	0.000120
Cl256	Cl	1.213939	0.023203	0.500120
Cl257	Cl	-0.061962	0.060403	0.290566
Cl258	Cl	0.438038	0.560403	0.790566
Cl259	Cl	0.089284	0.061952	-0.290349
Cl260	Cl	0.589284	0.561952	0.209651
H261	H	0.040647	0.061463	-0.250832
H262	H	0.540647	0.561463	0.249168
H263	H	0.653186	-0.187475	0.000139
H264	H	1.153186	0.312525	0.500139
Cl265	Cl	0.715476	-0.325562	0.000127
Cl266	Cl	1.215476	0.174438	0.500127
H267	H	0.423798	0.065394	0.161871
H268	H	0.923798	0.565394	0.661871
Cl269	Cl	0.666338	-0.816405	0.000092
Cl270	Cl	1.166338	-0.316405	0.500092
Cl271	Cl	0.425621	-0.550877	0.000027
Cl272	Cl	0.925621	-0.050877	0.500027
