data_functionalizedCrystal
_audit_creation_method	'MofGen! by Chris Wilmer'
_symmetry_space_group_name_H-M	'P1'
_symmetry_Int_Tables_number	1
_symmetry_cell_setting	triclinic
loop_
_symmetry_equiv_pos_as_xyz
  x,y,z
_cell_length_a	16.959455
_cell_length_b	12.645330
_cell_length_c	12.645323
_cell_angle_alpha	89.975130
_cell_angle_beta	89.978641
_cell_angle_gamma	90.014639
loop_
_atom_site_label
_atom_site_type_symbol
_atom_site_fract_x
_atom_site_fract_y
_atom_site_fract_z
Zn1	Zn	1.208452	-0.422117	-0.599409
Zn2	Zn	1.208364	-0.599405	-0.422149
Zn3	Zn	1.076264	-0.422147	-0.422157
Zn4	Zn	1.076250	-0.599330	-0.599369
O5	O	1.142332	-0.510750	-0.510771
O6	O	1.319051	-0.445654	-0.575909
O7	O	1.190809	-0.575936	-0.273803
O8	O	1.093842	-0.273796	-0.445691
O9	O	1.318986	-0.575907	-0.445676
O10	O	1.190959	-0.273774	-0.575917
O11	O	1.093756	-0.445705	-0.273809
O12	O	0.965651	-0.445631	-0.445651
O13	O	1.093818	-0.575778	-0.747721
O14	O	0.965641	-0.575807	-0.575848
O15	O	1.190946	-0.445581	-0.747751
O16	O	1.190796	-0.747743	-0.445637
O17	O	1.093733	-0.747687	-0.575840
C18	C	0.936966	-0.510715	-0.510747
C19	C	0.849110	-0.510725	-0.510761
C20	C	0.477615	-0.442912	-0.443119
C21	C	0.477653	-0.578675	-0.578483
C22	C	0.560199	-0.578660	-0.578477
C23	C	0.601457	-0.510771	-0.510789
C24	C	0.560168	-0.442897	-0.443109
C25	C	0.601494	-0.646540	-0.646149
C26	C	0.684044	-0.646528	-0.646144
C27	C	0.725304	-0.578633	-0.578461
C28	C	0.684010	-0.510756	-0.510779
C29	C	0.725268	-0.442867	-0.443091
C30	C	0.683976	-0.374983	-0.375413
C31	C	0.601427	-0.375002	-0.375426
C32	C	0.807852	-0.578614	-0.578449
C33	C	0.807821	-0.442852	-0.443081
C34	C	1.142275	-0.786180	-0.510756
C35	C	1.142322	-0.904010	-0.510785
C36	C	1.081512	-1.071583	-0.592948
C37	C	1.081201	-0.949023	-0.592684
C38	C	1.119771	-0.948602	-0.399064
C39	C	1.119400	-1.071200	-0.399563
C40	C	1.226056	-1.071105	-0.539438
C41	C	1.225543	-0.948498	-0.541881
C42	C	1.348501	-0.510786	-0.510796
C43	C	1.436357	-0.510801	-0.510807
C44	C	1.142391	-0.510668	-0.787276
C45	C	1.142415	-0.510633	-0.905107
C46	C	1.142412	-0.234245	-0.510809
C47	C	1.142446	-0.116414	-0.510825
C48	C	1.081124	-0.592154	-1.072652
C49	C	1.081284	-0.592558	-0.950092
C50	C	1.225701	-0.540957	-0.949624
C51	C	1.225365	-0.541469	-1.072222
C52	C	1.121209	-0.398332	-1.072305
C53	C	1.119351	-0.399004	-0.949699
C54	C	1.142320	-0.510755	-0.235341
C55	C	1.142448	-0.510491	-0.117512
H56	H	1.095311	-0.918870	-0.675525
H57	H	0.717578	-0.319712	-0.320297
C58	C	1.038059	-0.907263	-0.365730
H59	H	1.017579	-0.862841	-0.419739
H60	H	1.042776	-0.868138	-0.301934
H61	H	1.003404	-0.965318	-0.354976
C62	C	0.998297	-1.113318	-0.567682
H63	H	0.961847	-1.085859	-0.617675
H64	H	0.983467	-1.091493	-0.498612
H65	H	0.998238	-1.188361	-0.571193
C66	C	1.253847	-1.112765	-0.647623
H67	H	1.214712	-1.158185	-0.676356
H68	H	1.301673	-1.150895	-0.639042
H69	H	1.262281	-1.054909	-0.694226
H70	H	1.019182	-0.573360	-1.102127
C71	C	1.100388	-1.111314	-0.705230
H72	H	1.062943	-1.083364	-0.753601
H73	H	1.098095	-1.186362	-0.706489
H74	H	1.151772	-1.088713	-0.724879
C75	C	0.853202	-0.368172	-0.368627
H76	H	0.908279	-0.377878	-0.378315
H77	H	0.839645	-0.383592	-0.297375
H78	H	0.839687	-0.296963	-0.384277
C79	C	0.997469	-0.909516	-0.567062
H80	H	0.963513	-0.968394	-0.556765
H81	H	0.978477	-0.867788	-0.624103
H82	H	0.998758	-0.868004	-0.504488
H83	H	0.444056	-0.633953	-0.633585
C84	C	0.556111	-0.721210	-0.720597
H85	H	0.501034	-0.711486	-0.710919
H86	H	0.569622	-0.792417	-0.704962
H87	H	0.569667	-0.705777	-0.791853
C88	C	1.036832	-1.109960	-0.366830
H89	H	1.003831	-1.050779	-0.353358
H90	H	1.040882	-1.151836	-0.304684
H91	H	1.014837	-1.151162	-0.422270
C92	C	1.099873	-0.703782	-1.114276
H93	H	1.062543	-0.752632	-1.086798
H94	H	1.151348	-0.723707	-1.092397
H95	H	1.097281	-0.703876	-1.189321
H96	H	0.717657	-0.701803	-0.701253
H97	H	0.841468	-0.633887	-0.633548
H98	H	1.161855	-1.100861	-0.336288
H99	H	1.242550	-0.919349	-0.624102
C100	C	0.997858	-0.566909	-0.909423
H101	H	0.963561	-0.556155	-0.967830
H102	H	0.999542	-0.504607	-0.867539
H103	H	0.978994	-0.624157	-0.867827
C104	C	0.556006	-0.300353	-0.300974
H105	H	0.500934	-0.310099	-0.310665
H106	H	0.569538	-0.229138	-0.316596
H107	H	0.569512	-0.315792	-0.229718
C108	C	1.177817	-0.909213	-0.314140
H109	H	1.216411	-0.865113	-0.346140
H110	H	1.202955	-0.968064	-0.281846
H111	H	1.149892	-0.870140	-0.262047
H112	H	1.058060	-0.376135	-0.920601
C113	C	1.290104	-0.907119	-0.466951
H114	H	1.267045	-0.861973	-0.415489
H115	H	1.328219	-0.868756	-0.506475
H116	H	1.314866	-0.965114	-0.432635
C117	C	0.432199	-0.368249	-0.368676
H118	H	0.377126	-0.377981	-0.378369
H119	H	0.445743	-0.297040	-0.384306
H120	H	0.445701	-0.383682	-0.297417
H121	H	1.271454	-1.100096	-0.479624
H122	H	1.095305	-0.675706	-0.920778
C123	C	1.249677	-0.652230	-1.110878
H124	H	1.259662	-0.696493	-1.051655
H125	H	1.296031	-0.646845	-1.152729
H126	H	1.208323	-0.681698	-1.152082
C127	C	1.289192	-0.464628	-1.112320
H128	H	1.315216	-0.433244	-1.053679
H129	H	1.265325	-0.410989	-1.154050
H130	H	1.326426	-0.502263	-1.153951
C131	C	1.250443	-0.650561	-0.908182
H132	H	1.300924	-0.668209	-0.935560
H133	H	1.213055	-0.701940	-0.930285
H134	H	1.252624	-0.649147	-0.833127
C135	C	1.289086	-0.463160	-0.910259
H136	H	1.265262	-0.411373	-0.866215
H137	H	1.313214	-0.429473	-0.969122
H138	H	1.327879	-0.500641	-0.871132
H139	H	1.061535	-0.370691	-1.103211
C140	C	1.175284	-0.312461	-0.908343
H141	H	1.213610	-0.343415	-0.863145
H142	H	1.145845	-0.261320	-0.870039
H143	H	1.200923	-0.279272	-0.966341
C144	C	1.181536	-0.316134	-1.111512
H145	H	1.219485	-0.349946	-1.155218
H146	H	1.207227	-0.284836	-1.052573
H147	H	1.155110	-0.262921	-1.150959
