data_functionalizedCrystal
_audit_creation_method	'MofGen! by Chris Wilmer'
_symmetry_space_group_name_H-M	'P1'
_symmetry_Int_Tables_number	1
_symmetry_cell_setting	triclinic
loop_
_symmetry_equiv_pos_as_xyz
  x,y,z
_cell_length_a	24.447405
_cell_length_b	24.446649
_cell_length_c	24.443239
_cell_angle_alpha	60.006064
_cell_angle_beta	60.011844
_cell_angle_gamma	59.992812
loop_
_atom_site_label
_atom_site_type_symbol
_atom_site_fract_x
_atom_site_fract_y
_atom_site_fract_z
O1	O	0.075907	-0.799232	0.668277
O2	O	0.575907	-0.299232	1.168277
O3	O	0.028634	-0.622262	0.538455
O4	O	0.528634	-0.122262	1.038455
O5	O	0.140702	-0.734230	0.538349
O6	O	0.640702	-0.234230	1.038349
O7	O	-0.036160	-0.687265	0.668384
O8	O	0.463840	-0.187265	1.168384
O9	O	0.177886	-0.697056	0.575424
O10	O	0.677886	-0.197056	1.075424
O11	O	0.065818	-0.585088	0.575530
O12	O	0.565818	-0.085088	1.075530
O13	O	0.113091	-0.762059	0.705353
O14	O	0.613091	-0.262059	1.205353
Cu15	Cu	0.092850	-0.670179	0.643827
Cu16	Cu	0.592850	-0.170179	1.143827
Cu17	Cu	0.048876	-0.714142	0.599981
Cu18	Cu	0.548876	-0.214142	1.099981
O19	O	0.001024	-0.650091	0.705459
O20	O	0.501024	-0.150091	1.205459
N21	N	0.123780	-0.639263	0.674669
N22	N	0.623780	-0.139263	1.174669
N23	N	0.017951	-0.745064	0.569139
N24	N	0.517951	-0.245064	1.069139
C25	C	0.170236	-0.489965	0.721065
C26	C	0.670236	0.010035	1.221065
C27	C	0.170249	-0.592837	0.721058
C28	C	0.670249	-0.092837	1.221058
C29	C	0.195989	-0.567121	0.746758
C30	C	0.695989	-0.067121	1.246758
C31	C	0.308182	-0.547773	0.687664
C32	C	0.808182	-0.047773	1.187664
C33	C	0.378316	-0.571143	0.664253
C34	C	0.878316	-0.071143	1.164253
C35	C	0.378353	-0.684626	0.707525
C36	C	0.878353	-0.184626	1.207525
C37	C	0.308220	-0.661254	0.730938
C38	C	0.808220	-0.161254	1.230938
C39	C	0.187125	-0.454882	0.652117
C40	C	0.687125	0.045118	1.152117
C41	C	0.163710	-0.384741	0.628763
C42	C	0.663710	0.115259	1.128763
C43	C	0.106523	-0.384772	0.743308
C44	C	0.606523	0.115228	1.243308
C45	C	0.129938	-0.454913	0.766662
C46	C	0.629938	0.045087	1.266662
C47	C	0.101291	-0.575906	0.738041
C48	C	0.601291	-0.075906	1.238041
C49	C	0.077897	-0.599283	0.714670
C50	C	0.577897	-0.099283	1.214670
C51	C	0.192412	-0.656523	0.657348
C52	C	0.692412	-0.156523	1.157348
C53	C	0.215809	-0.633146	0.680711
C54	C	0.715809	-0.133146	1.180711
C55	C	0.101393	-0.575928	0.859014
C56	C	0.601393	-0.075928	1.359014
C57	C	0.078071	-0.599328	0.929152
C58	C	0.578071	-0.099328	1.429152
C59	C	0.192636	-0.656582	0.929078
C60	C	0.692636	-0.156582	1.429078
C61	C	0.215955	-0.633184	0.858938
C62	C	0.715955	-0.133184	1.358938
C63	C	0.170332	-0.592855	0.823908
C64	C	0.670332	-0.092855	1.323908
C65	C	0.273137	-0.592827	0.721004
C66	C	0.773137	-0.092827	1.221004
C67	C	-0.131205	-0.791294	0.522327
C68	C	0.368795	-0.291294	1.022327
C69	C	-0.028388	-0.791420	0.522551
C70	C	0.471612	-0.291420	1.022551
C71	C	-0.054056	-0.817099	0.496741
C72	C	0.445944	-0.317099	0.996741
C73	C	-0.073479	-0.929255	0.555734
C74	C	0.426521	-0.429255	1.055734
C75	C	-0.050156	-0.999396	0.579142
C76	C	0.449844	-0.499396	1.079142
C77	C	0.063326	-0.999525	0.536064
C78	C	0.563326	-0.499525	1.036064
C79	C	0.040001	-0.929386	0.512654
C80	C	0.540001	-0.429386	1.012654
C81	C	-0.166365	-0.808188	0.591256
C82	C	0.333635	-0.308188	1.091256
C83	C	-0.236499	-0.784726	0.614512
C84	C	0.263501	-0.284726	1.114512
C85	C	-0.236309	-0.727482	0.499907
C86	C	0.263691	-0.227482	0.999907
C87	C	-0.166175	-0.750944	0.476651
C88	C	0.333825	-0.250944	0.976651
C89	C	-0.045285	-0.722468	0.505590
C90	C	0.454715	-0.222468	1.005590
C91	C	-0.021951	-0.699130	0.529061
C92	C	0.478049	-0.199130	1.029061
C93	C	0.035176	-0.813691	0.586439
C94	C	0.535176	-0.313691	1.086439
C95	C	0.011842	-0.837031	0.562976
C96	C	0.511842	-0.337031	1.062976
C97	C	-0.045097	-0.722476	0.384488
C98	C	0.454903	-0.222476	0.884488
C99	C	-0.021613	-0.699140	0.314350
C100	C	0.478387	-0.199140	0.814350
C101	C	0.035607	-0.813706	0.314419
C102	C	0.535607	-0.313706	0.814419
C103	C	0.012124	-0.837041	0.384558
C104	C	0.512124	-0.337041	0.884558
C105	C	-0.028229	-0.791425	0.419591
C106	C	0.471771	-0.291425	0.919591
C107	C	-0.028402	-0.894253	0.522492
C108	C	0.471598	-0.394253	1.022492
N109	N	0.412405	-0.639229	0.674505
N110	N	0.912405	-0.139229	1.174505
O111	O	0.626552	-0.645384	0.514503
O112	O	1.126552	-0.145384	1.014503
O113	O	0.626802	-0.775625	0.691288
O114	O	1.126802	-0.275625	1.191288
O115	O	0.626698	-0.775326	0.579168
O116	O	1.126698	-0.275326	1.079168
O117	O	0.626656	-0.645683	0.626623
O118	O	1.126656	-0.145683	1.126623
O119	O	0.515277	-0.738265	0.616407
O120	O	1.015277	-0.238265	1.116407
O121	O	0.515382	-0.738564	0.728527
O122	O	1.015382	-0.238564	1.228527
O123	O	0.515131	-0.608323	0.551742
O124	O	1.015131	-0.108323	1.051742
Cu125	Cu	0.505083	-0.670059	0.643535
Cu126	Cu	1.005083	-0.170059	1.143535
Cu127	Cu	0.636850	-0.713889	0.599495
Cu128	Cu	1.136850	-0.213889	1.099495
O129	O	0.515236	-0.608622	0.663862
O130	O	1.015236	-0.108622	1.163862
N131	N	0.729529	-0.744719	0.568518
N132	N	1.229529	-0.244719	1.068518
N133	N	0.123755	-0.350686	0.674680
N134	N	0.623755	0.149314	1.174680
O135	O	-0.036153	-0.136410	0.668391
O136	O	0.463847	0.363590	1.168391
O137	O	0.140633	-0.136380	0.538141
O138	O	0.640633	0.363620	1.038141
O139	O	0.028472	-0.136412	0.538488
O140	O	0.528472	0.363588	1.038488
O141	O	0.076007	-0.136377	0.668044
O142	O	0.576007	0.363623	1.168044
O143	O	0.065663	-0.247842	0.575621
O144	O	0.565663	0.252158	1.075621
O145	O	0.177823	-0.247810	0.575274
O146	O	0.677823	0.252190	1.075274
O147	O	0.001037	-0.247840	0.705524
O148	O	0.501037	0.252160	1.205524
Cu149	Cu	0.092826	-0.258000	0.643789
Cu150	Cu	0.592826	0.242000	1.143789
Cu151	Cu	0.048844	-0.126220	0.599875
Cu152	Cu	0.548844	0.373780	1.099875
O153	O	0.113198	-0.247808	0.705177
O154	O	0.613198	0.252192	1.205177
N155	N	0.017907	-0.033534	0.568986
N156	N	0.517907	0.466466	1.068986
N157	N	0.124013	-0.639306	0.963182
N158	N	0.624013	-0.139306	1.463182
O159	O	0.117754	-0.799195	1.177439
O160	O	0.617754	-0.299195	1.677439
O161	O	-0.012458	-0.622342	1.177485
O162	O	0.487542	-0.122342	1.677485
O163	O	-0.012155	-0.734480	1.177444
O164	O	0.487845	-0.234480	1.677444
O165	O	0.117450	-0.687057	1.177480
O166	O	0.617450	-0.187057	1.677480
O167	O	0.024954	-0.697317	1.066020
O168	O	0.524954	-0.197317	1.566020
O169	O	0.024650	-0.585179	1.066061
O170	O	0.524650	-0.085179	1.566061
O171	O	0.154862	-0.762032	1.066014
O172	O	0.654862	-0.262032	1.566014
Cu173	Cu	0.093145	-0.670212	1.055863
Cu174	Cu	0.593145	-0.170212	1.555863
Cu175	Cu	0.049259	-0.714162	1.187636
Cu176	Cu	0.549259	-0.214162	1.687636
O177	O	0.154559	-0.649894	1.066055
O178	O	0.654559	-0.149894	1.566055
N179	N	0.018389	-0.745075	1.280318
N180	N	0.518389	-0.245075	1.780318
C181	C	0.042795	-0.581375	0.539107
C182	C	0.542795	-0.081375	1.039107
C183	C	0.181576	-0.720034	0.538975
C184	C	0.681576	-0.220034	1.038975
C185	C	0.098930	-0.802946	0.704700
C186	C	0.598930	-0.302946	1.204700
C187	C	-0.039851	-0.664287	0.704832
C188	C	0.460149	-0.164287	1.204832
C189	C	0.571122	-0.775030	0.732180
C190	C	1.071122	-0.275030	1.232180
C191	C	0.570995	-0.774660	0.593332
C192	C	1.070995	-0.274660	1.093332
C193	C	0.570808	-0.608917	0.510851
C194	C	1.070808	-0.108917	1.010851
C195	C	0.570939	-0.609288	0.649698
C196	C	1.070939	-0.109288	1.149698
C197	C	0.181453	-0.191954	0.538725
C198	C	0.681453	0.308046	1.038725
C199	C	0.042602	-0.192131	0.539201
C200	C	0.542602	0.307869	1.039201
C201	C	-0.039829	-0.192128	0.704893
C202	C	0.460171	0.307872	1.204893
C203	C	0.099069	-0.192090	0.704464
C204	C	0.599069	0.307910	1.204464
C205	C	-0.011836	-0.581480	1.121779
C206	C	0.488164	-0.081480	1.621779
C207	C	-0.011453	-0.720342	1.121706
C208	C	0.488547	-0.220342	1.621706
C209	C	0.154240	-0.802894	1.121720
C210	C	0.654240	-0.302894	1.621720
C211	C	0.153865	-0.664024	1.121769
C212	C	0.653865	-0.164024	1.621769
H213	H	0.064236	-0.543084	0.830495
H214	H	0.564236	-0.043084	1.330495
C215	C	-0.123132	-0.521575	1.179071
C216	C	0.376868	-0.021575	1.679071
C217	C	-0.067028	-0.512914	1.121794
C218	C	0.432972	-0.012914	1.621794
H219	H	-0.157205	-0.479245	1.179076
H220	H	0.342795	0.020755	1.679076
H221	H	-0.110947	-0.541619	1.217920
H222	H	0.389053	-0.041619	1.717920
H223	H	-0.139298	-0.549727	1.179052
H224	H	0.360702	-0.049727	1.679052
H225	H	-0.050859	-0.484766	1.121815
H226	H	0.449141	0.015234	1.621815
H227	H	-0.079214	-0.492860	1.082934
H228	H	0.420786	0.007140	1.582934
H229	H	0.194582	-0.653876	1.121771
H230	H	0.694582	-0.153876	1.621771
H231	H	0.032420	-0.192135	0.498498
H232	H	0.532420	0.307865	0.998498
H233	H	0.232119	-0.191636	0.497733
H234	H	0.732119	0.308364	0.997733
C235	C	0.232580	-0.762786	0.644536
C236	C	0.732580	-0.262786	1.144536
C237	C	0.242484	-0.700815	0.612985
C238	C	0.742484	-0.200815	1.112985
H239	H	0.263494	-0.790124	0.617140
H240	H	0.763494	-0.290124	1.117140
H241	H	0.188166	-0.756045	0.651308
H242	H	0.688166	-0.256045	1.151308
H243	H	0.239374	-0.784222	0.686554
H244	H	0.739374	-0.284222	1.186554
H245	H	0.235685	-0.679377	0.570969
H246	H	0.735685	-0.179377	1.070969
H247	H	0.286909	-0.707555	0.606205
H248	H	0.786909	-0.207555	1.106205
H249	H	0.109248	-0.192079	0.745165
H250	H	0.609248	0.307921	1.245165
H251	H	0.109031	-0.853782	0.745475
H252	H	0.609031	-0.353782	1.245475
H253	H	0.571013	-0.815386	0.583175
H254	H	1.071013	-0.315386	1.083175
H255	H	0.232372	-0.730046	0.498140
H256	H	0.732372	-0.230046	0.998140
C257	C	-0.024700	-0.500785	0.468677
C258	C	0.475300	-0.000785	0.968677
C259	C	0.029166	-0.512752	0.484056
C260	C	0.529166	-0.012752	0.984056
H261	H	-0.033110	-0.458421	0.434688
H262	H	0.466890	0.041579	0.934688
H263	H	-0.063431	-0.500970	0.507641
H264	H	0.436569	-0.000970	1.007641
H265	H	-0.014083	-0.534844	0.453261
H266	H	0.485917	-0.034844	0.953261
H267	H	0.018547	-0.478695	0.499477
H268	H	0.518547	0.021305	0.999477
H269	H	0.067906	-0.512561	0.445085
H270	H	0.567906	-0.012561	0.945085
H271	H	0.571186	-0.815915	0.782955
H272	H	1.071186	-0.315915	1.282955
H273	H	-0.090599	-0.192138	0.745784
H274	H	0.409401	0.307862	1.245784
C275	C	0.570679	-0.577571	0.400832
C276	C	1.070679	-0.077571	0.900832
C277	C	0.570703	-0.553712	0.442315
C278	C	1.070703	-0.053712	0.942315
H279	H	0.570617	-0.543490	0.358520
H280	H	1.070617	-0.043490	0.858520
H281	H	0.531850	-0.589775	0.420903
H282	H	1.031850	-0.089775	0.920903
H283	H	0.609560	-0.615624	0.394930
H284	H	1.109560	-0.115624	0.894930
H285	H	0.531818	-0.515662	0.448221
H286	H	1.031818	-0.015662	0.948221
H287	H	0.609535	-0.541499	0.422239
H288	H	1.109535	-0.041499	0.922239
C289	C	-0.084355	-0.688418	1.064336
C290	C	0.415645	-0.188418	1.564336
C291	C	-0.066401	-0.734007	1.121629
C292	C	0.433599	-0.234007	1.621629
H293	H	-0.118281	-0.696853	1.064292
H294	H	0.381719	-0.196853	1.564292
H295	H	-0.046245	-0.693417	1.025497
H296	H	0.453755	-0.193417	1.525497
H297	H	-0.100726	-0.644064	1.064369
H298	H	0.399274	-0.144064	1.564369
H299	H	-0.050025	-0.778361	1.121593
H300	H	0.449975	-0.278361	1.621593
H301	H	-0.104518	-0.729013	1.160477
H302	H	0.395482	-0.229013	1.660477
H303	H	0.195123	-0.853684	1.121698
H304	H	0.695123	-0.353684	1.621698
H305	H	0.021932	-0.585534	0.957726
H306	H	0.521932	-0.085534	1.457726
H307	H	0.229790	-0.689406	0.957592
H308	H	0.729790	-0.189406	1.457592
C309	C	0.513601	-0.498170	0.656082
C310	C	1.013601	0.001830	1.156082
C311	C	0.570923	-0.554305	0.663396
C312	C	1.070923	-0.054305	1.163396
H313	H	0.513596	-0.464225	0.664534
H314	H	1.013596	0.035775	1.164534
H315	H	0.474785	-0.510404	0.687015
H316	H	0.974785	-0.010404	1.187015
H317	H	0.513553	-0.481805	0.611733
H318	H	1.013553	0.018195	1.111733
H319	H	0.570968	-0.570673	0.707747
H320	H	1.070968	-0.070673	1.207747
H321	H	0.609749	-0.542070	0.632462
H322	H	1.109749	-0.042070	1.132462
H323	H	-0.090650	-0.654278	0.745664
H324	H	0.409350	-0.154278	1.245664
H325	H	0.272095	-0.646975	0.830359
H326	H	0.772095	-0.146975	1.330359
H327	H	0.064189	-0.543085	0.770891
H328	H	0.564189	-0.043085	1.270891
C329	C	-0.032953	-0.540374	0.773696
C330	C	0.467047	-0.040374	1.273696
C331	C	0.002098	-0.580684	0.733341
C332	C	0.502098	-0.080684	1.233341
H333	H	-0.079748	-0.528898	0.785227
H334	H	0.420252	-0.028898	1.285227
H335	H	-0.021486	-0.500710	0.749903
H336	H	0.478514	-0.000710	1.249903
H337	H	-0.021405	-0.564184	0.813333
H338	H	0.478595	-0.064184	1.313333
H339	H	-0.009446	-0.556872	0.693702
H340	H	0.490554	-0.056872	1.193702
H341	H	-0.009374	-0.620355	0.757134
H342	H	0.490626	-0.120355	1.257134
H343	H	0.271959	-0.646925	0.666876
H344	H	0.771959	-0.146925	1.166876
H345	H	0.279688	-0.697946	0.758086
H346	H	0.779688	-0.197946	1.258086
H347	H	0.406848	-0.534453	0.637104
H348	H	0.906848	-0.034453	1.137104
C349	C	0.399945	-0.781216	0.687203
C350	C	0.899945	-0.281216	1.187203
C351	C	0.416925	-0.759843	0.718434
C352	C	0.916925	-0.259843	1.218434
H353	H	0.423754	-0.827652	0.693942
H354	H	0.923754	-0.327652	1.193942
H355	H	0.411404	-0.756756	0.640571
H356	H	0.911404	-0.256756	1.140571
H357	H	0.353159	-0.773745	0.705924
H358	H	0.853159	-0.273745	1.205924
H359	H	0.463710	-0.767310	0.699709
H360	H	0.963710	-0.267310	1.199709
H361	H	0.405469	-0.784310	0.765076
H362	H	0.905469	-0.284310	1.265076
C363	C	0.315197	-0.437949	0.642538
C364	C	0.815197	0.062051	1.142538
C365	C	0.269621	-0.472556	0.676747
C366	C	0.769621	0.027444	1.176747
H367	H	0.291388	-0.391514	0.635802
H368	H	0.791388	0.108486	1.135802
H369	H	0.342523	-0.444452	0.600398
H370	H	0.842523	0.055548	1.100398
H371	H	0.342581	-0.454406	0.668223
H372	H	0.842581	0.045594	1.168223
H373	H	0.242240	-0.456103	0.651060
H374	H	0.742240	0.043897	1.151060
H375	H	0.242282	-0.466050	0.718893
H376	H	0.742282	0.033950	1.218893
H377	H	0.177459	-0.356175	0.572617
H378	H	0.677459	0.143825	1.072617
C379	C	0.241282	-0.447805	0.536546
C380	C	0.741282	0.052195	1.036546
C381	C	0.231413	-0.493413	0.601999
C382	C	0.731413	0.006587	1.101999
H383	H	0.268620	-0.471594	0.505605
H384	H	0.768620	0.028406	1.005605
H385	H	0.262695	-0.420446	0.529797
H386	H	0.762695	0.079554	1.029797
H387	H	0.199221	-0.420451	0.529847
H388	H	0.699221	0.079549	1.029847
H389	H	0.273473	-0.520764	0.608700
H390	H	0.773473	-0.020764	1.108700
H391	H	0.210001	-0.520784	0.608751
H392	H	0.710001	-0.020784	1.108751
C393	C	0.071062	-0.447902	0.877546
C394	C	0.571062	0.052098	1.377546
C395	C	0.111378	-0.493481	0.842456
C396	C	0.611378	0.006519	1.342456
H397	H	0.059607	-0.471714	0.924337
H398	H	0.559607	0.028286	1.424337
H399	H	0.031390	-0.420552	0.866072
H400	H	0.531390	0.079448	1.366072
H401	H	0.094854	-0.420537	0.866033
H402	H	0.594854	0.079463	1.366033
H403	H	0.087584	-0.520843	0.853965
H404	H	0.587584	-0.020843	1.353965
H405	H	0.151056	-0.520843	0.853935
H406	H	0.651056	-0.020843	1.353935
H407	H	0.073721	-0.356231	0.780438
H408	H	0.573721	0.143769	1.280438
H409	H	-0.077958	-0.685325	0.413008
H410	H	0.422042	-0.185325	0.913008
C411	C	-0.109914	-0.594258	0.292606
C412	C	0.390086	-0.094258	0.792606
C413	C	-0.040170	-0.623345	0.275772
C414	C	0.459830	-0.123345	0.775772
H415	H	-0.121369	-0.547467	0.268785
H416	H	0.378631	-0.047467	0.768785
H417	H	-0.129664	-0.601631	0.339386
H418	H	0.370336	-0.101631	0.839386
H419	H	-0.126007	-0.613943	0.281054
H420	H	0.373993	-0.113943	0.781054
H421	H	-0.024078	-0.603664	0.287329
H422	H	0.475922	-0.103664	0.787329
H423	H	-0.020413	-0.615967	0.228982
H424	H	0.479587	-0.115967	0.728982
C425	C	0.089795	-0.929296	0.321543
C426	C	0.589795	-0.429296	0.821543
C427	C	0.079953	-0.863851	0.275916
C428	C	0.579953	-0.363851	0.775916
H429	H	0.117177	-0.960253	0.297772
H430	H	0.617177	-0.460253	0.797772
H431	H	0.047737	-0.935972	0.348826
H432	H	0.547737	-0.435972	0.848826
H433	H	0.111156	-0.936050	0.348968
H434	H	0.611156	-0.436050	0.848968
H435	H	0.058588	-0.857095	0.248495
H436	H	0.558588	-0.357095	0.748495
H437	H	0.122019	-0.857173	0.248622
H438	H	0.622019	-0.357173	0.748622
H439	H	-0.078038	-0.685325	0.472673
H440	H	0.421962	-0.185325	0.972673
C441	C	-0.080725	-0.588229	0.469950
C442	C	0.419275	-0.088229	0.969950
C443	C	-0.040499	-0.623337	0.510400
C444	C	0.459501	-0.123337	1.010400
H445	H	-0.092165	-0.541438	0.458421
H446	H	0.407835	-0.041438	0.958421
H447	H	-0.120408	-0.599653	0.493673
H448	H	0.379592	-0.099653	0.993673
H449	H	-0.056875	-0.599778	0.430316
H450	H	0.443125	-0.099778	0.930316
H451	H	-0.064351	-0.611791	0.550037
H452	H	0.435649	-0.111791	1.050037
H453	H	-0.000810	-0.611908	0.486677
H454	H	0.499190	-0.111908	0.986677
C455	C	-0.027833	-0.929693	0.463375
C456	C	0.472167	-0.429693	0.963375
C457	C	0.030666	-0.912835	0.423146
C458	C	0.530666	-0.412835	0.923146
H459	H	-0.016386	-0.976483	0.487199
H460	H	0.483614	-0.476483	0.987199
H461	H	-0.051565	-0.918173	0.435943
H462	H	0.448435	-0.418173	0.935943
H463	H	-0.055219	-0.905862	0.494274
H464	H	0.444781	-0.405862	0.994274
H465	H	0.058049	-0.936662	0.392243
H466	H	0.558049	-0.436662	0.892243
H467	H	0.054407	-0.924361	0.450580
H468	H	0.554407	-0.424361	0.950580
H469	H	0.025599	-0.893178	0.576787
H470	H	0.525599	-0.393178	1.076787
C471	C	0.137871	-0.904215	0.595857
C472	C	0.637871	-0.404215	1.095857
C473	C	0.079400	-0.863832	0.630868
C474	C	0.579400	-0.363832	1.130868
H475	H	0.165170	-0.935173	0.623290
H476	H	0.665170	-0.435173	1.123290
H477	H	0.161714	-0.876892	0.556239
H478	H	0.661714	-0.376892	1.056239
H479	H	0.126382	-0.927975	0.584308
H480	H	0.626382	-0.427975	1.084308
H481	H	0.090889	-0.840067	0.642413
H482	H	0.590889	-0.340067	1.142413
H483	H	0.055553	-0.891158	0.670498
H484	H	0.555553	-0.391158	1.170498
C485	C	0.154517	-0.936562	0.472432
C486	C	0.654517	-0.436562	0.972432
C487	C	0.089554	-0.890910	0.476115
C488	C	0.589554	-0.390910	0.976115
H489	H	0.185107	-0.912807	0.449876
H490	H	0.685107	-0.412807	0.949876
H491	H	0.166274	-0.963922	0.448523
H492	H	0.666274	-0.463922	0.948523
H493	H	0.156230	-0.963910	0.516401
H494	H	0.656230	-0.463910	1.016401
H495	H	0.087840	-0.863564	0.432145
H496	H	0.587840	-0.363564	0.932145
H497	H	0.077794	-0.863538	0.500023
H498	H	0.577794	-0.363538	1.000023
C499	C	-0.144419	-0.756137	0.371778
C500	C	0.355581	-0.256137	0.871778
C501	C	-0.127518	-0.732383	0.400879
C502	C	0.372482	-0.232383	0.900879
H503	H	-0.120550	-0.744681	0.325001
H504	H	0.379450	-0.244681	0.825001
H505	H	-0.191186	-0.736385	0.379088
H506	H	0.308814	-0.236385	0.879088
H507	H	-0.132971	-0.803456	0.391502
H508	H	0.367029	-0.303456	0.891502
H509	H	-0.138971	-0.685063	0.381158
H510	H	0.361029	-0.185063	0.881158
H511	H	-0.080741	-0.752132	0.393564
H512	H	0.419259	-0.252132	0.893564
C513	C	-0.164691	-0.992223	0.619517
C514	C	0.335309	-0.492223	1.119517
C515	C	-0.099719	-1.037873	0.615780
C516	C	0.400281	-0.537873	1.115780
H517	H	-0.195294	-1.015980	0.642168
H518	H	0.304706	-0.515980	1.142168
H519	H	-0.166461	-0.964916	0.575566
H520	H	0.333539	-0.464916	1.075566
H521	H	-0.176387	-0.964822	0.643362
H522	H	0.323613	-0.464822	1.143362
H523	H	-0.088022	-1.065271	0.591931
H524	H	0.411978	-0.565271	1.091931
H525	H	-0.097947	-1.065192	0.659738
H526	H	0.402053	-0.565192	1.159738
C527	C	-0.158128	-0.850305	0.504355
C528	C	0.341872	-0.350305	1.004355
C529	C	-0.148665	-0.890627	0.566534
C530	C	0.351335	-0.390627	1.066534
H531	H	-0.204544	-0.826452	0.511020
H532	H	0.295456	-0.326452	1.011020
H533	H	-0.141656	-0.877681	0.478665
H534	H	0.358344	-0.377681	0.978665
H535	H	-0.134608	-0.819430	0.481214
H536	H	0.365392	-0.319430	0.981214
H537	H	-0.172180	-0.921506	0.589673
H538	H	0.327820	-0.421506	1.089673
H539	H	-0.165145	-0.863250	0.592233
H540	H	0.334855	-0.363250	1.092233
C541	C	0.147995	-1.078469	0.587428
C542	C	0.647995	-0.578469	1.087428
C543	C	0.138517	-1.038147	0.525255
C544	C	0.638517	-0.538147	1.025255
H545	H	0.194415	-1.102307	0.580753
H546	H	0.694415	-0.602307	1.080753
H547	H	0.124492	-1.109352	0.610569
H548	H	0.624492	-0.609352	1.110569
H549	H	0.131516	-1.051090	0.613123
H550	H	0.631516	-0.551090	1.113123
H551	H	0.154992	-1.065526	0.499563
H552	H	0.654992	-0.565526	0.999563
H553	H	0.162030	-1.007261	0.502104
H554	H	0.662030	-0.507261	1.002104
H555	H	-0.137894	-0.841050	0.628449
H556	H	0.362106	-0.341050	1.128449
H557	H	-0.264783	-0.694634	0.462714
H558	H	0.235217	-0.194634	0.962714
C559	C	-0.229646	-0.843679	0.725464
C560	C	0.270354	-0.343679	1.225464
C561	C	-0.275151	-0.803302	0.690285
C562	C	0.224849	-0.303302	1.190285
H563	H	-0.253509	-0.855152	0.772242
H564	H	0.246491	-0.355152	1.272242
H565	H	-0.202288	-0.819924	0.714037
H566	H	0.297712	-0.319924	1.214037
H567	H	-0.202287	-0.883348	0.713979
H568	H	0.297713	-0.383348	1.213979
H569	H	-0.302507	-0.763630	0.701767
H570	H	0.197493	-0.263630	1.201767
H571	H	-0.302521	-0.827057	0.701717
H572	H	0.197479	-0.327057	1.201717
