data_functionalizedCrystal
_audit_creation_method	'MofGen! by Chris Wilmer'
_symmetry_space_group_name_H-M	'P1'
_symmetry_Int_Tables_number	1
_symmetry_cell_setting	triclinic
loop_
_symmetry_equiv_pos_as_xyz
  x,y,z
_cell_length_a	13.033293
_cell_length_b	13.897447
_cell_length_c	13.033109
_cell_angle_alpha	97.154634
_cell_angle_beta	74.800007
_cell_angle_gamma	97.189355
loop_
_atom_site_label
_atom_site_type_symbol
_atom_site_fract_x
_atom_site_fract_y
_atom_site_fract_z
Zn1	Zn	1.700275	-0.279490	-0.807182
Zn2	Zn	1.677599	-0.422643	-0.629556
Zn3	Zn	1.500079	-0.279508	-0.606985
Zn4	Zn	1.522598	-0.458897	-0.784530
O5	O	1.600138	-0.360135	-0.707063
O6	O	1.845918	-0.283300	-0.802546
O7	O	1.635137	-0.388491	-0.477921
O8	O	1.526700	-0.144520	-0.633575
O9	O	1.829259	-0.388474	-0.672045
O10	O	1.673783	-0.144507	-0.780659
O11	O	1.504713	-0.283330	-0.461338
O12	O	1.354414	-0.318484	-0.611610
O13	O	1.565081	-0.450263	-0.936176
O14	O	1.370959	-0.450281	-0.742052
O15	O	1.695619	-0.318454	-0.952818
O16	O	1.656973	-0.562438	-0.650080
O17	O	1.543094	-0.589073	-0.763939
C18	C	1.324143	-0.388319	-0.671924
C19	C	1.206075	-0.400402	-0.656917
C20	C	1.161691	-0.353852	-0.714896
C21	C	1.039661	-0.366340	-0.699386
C22	C	1.600048	-0.610755	-0.707028
C23	C	1.600111	-0.717965	-0.707060
C24	C	1.600166	-0.805032	-0.707091
C25	C	1.600244	-0.914260	-0.707128
C26	C	1.877210	-0.331841	-0.742340
C27	C	1.995282	-0.319784	-0.757373
C28	C	1.635391	-0.388401	-0.984115
C29	C	1.650414	-0.400446	-1.102178
C30	C	1.600259	-0.108535	-0.707126
C31	C	1.600311	-0.001318	-0.707153
C32	C	1.592581	-0.353784	-1.146609
C33	C	1.608106	-0.366233	-1.268633
C34	C	1.565082	-0.331903	-0.431097
C35	C	1.550265	-0.319565	-0.313061
H36	H	1.047620	-0.270677	-0.818492
N37	N	1.511770	-0.288652	-1.077351
H38	H	1.438296	-0.313332	-1.086933
H39	H	1.512226	-0.289012	-1.000029
H40	H	1.153730	-0.449498	-0.595795
H41	H	0.987321	-0.415439	-0.638260
N42	N	1.688916	-0.431372	-1.337891
H43	H	1.688549	-0.431035	-1.415243
H44	H	1.762349	-0.406657	-1.328225
H45	H	1.489251	-0.270399	-1.260766
N46	N	1.731219	-0.465578	-1.171448
H47	H	1.786280	-0.426014	-1.223753
H48	H	1.767603	-0.494998	-1.124961
H49	H	1.214034	-0.304751	-0.776011
