data_functionalizedCrystal
_audit_creation_method	'MofGen! by Chris Wilmer'
_symmetry_space_group_name_H-M	'P1'
_symmetry_Int_Tables_number	1
_symmetry_cell_setting	triclinic
loop_
_symmetry_equiv_pos_as_xyz
  x,y,z
_cell_length_a	18.215407
_cell_length_b	25.639240
_cell_length_c	18.215399
_cell_angle_alpha	90.037217
_cell_angle_beta	90.019833
_cell_angle_gamma	90.033205
loop_
_atom_site_label
_atom_site_type_symbol
_atom_site_fract_x
_atom_site_fract_y
_atom_site_fract_z
Zn1	Zn	1.125032	-0.208150	0.416068
Zn2	Zn	1.625032	0.291850	0.916068
Zn3	Zn	1.124923	-0.295586	0.292982
Zn4	Zn	1.624923	0.204414	0.792982
Zn5	Zn	1.001964	-0.208167	0.293016
Zn6	Zn	1.501964	0.291833	0.793016
Zn7	Zn	1.001913	-0.295557	0.416007
Zn8	Zn	1.501913	0.204443	0.916007
O9	O	1.063458	-0.251865	0.354518
O10	O	1.563458	0.248135	0.854518
O11	O	1.228002	-0.219754	0.399752
O12	O	1.728002	0.280246	0.899752
O13	O	1.108588	-0.284009	0.190002
O14	O	1.608588	0.215991	0.690002
O15	O	1.018356	-0.135000	0.309379
O16	O	1.518356	0.365000	0.809379
O17	O	1.227922	-0.283992	0.309322
O18	O	1.727922	0.216008	0.809322
O19	O	1.108773	-0.134987	0.399785
O20	O	1.608773	0.365013	0.899785
O21	O	1.018251	-0.219783	0.190027
O22	O	1.518251	0.280217	0.690027
O23	O	0.898973	-0.219754	0.309319
O24	O	1.398973	0.280246	0.809319
O25	O	1.018269	-0.283943	0.519000
O26	O	1.518269	0.216057	1.019000
O27	O	0.898936	-0.283959	0.399681
O28	O	1.398936	0.216041	0.899681
O29	O	1.108724	-0.219725	0.519045
O30	O	1.608724	0.280275	1.019045
O31	O	1.108539	-0.368747	0.309262
O32	O	1.608539	0.131253	0.809262
O33	O	1.018164	-0.368726	0.399648
O34	O	1.518164	0.131274	0.899648
C35	C	0.872252	-0.251856	0.354497
C36	C	1.372252	0.248144	0.854497
C37	C	0.790453	-0.251865	0.354506
C38	C	1.290453	0.248135	0.854506
C39	C	0.602259	-0.285349	0.401498
C40	C	1.102259	0.214651	0.901498
C41	C	0.525400	-0.285350	0.401507
C42	C	1.025400	0.214650	0.901507
C43	C	0.525409	-0.218391	0.307555
C44	C	1.025409	0.281609	0.807555
C45	C	0.602267	-0.218387	0.307550
C46	C	1.102267	0.281613	0.807550
C47	C	0.640689	-0.251869	0.354520
C48	C	1.140689	0.248131	0.854520
C49	C	0.486973	-0.251874	0.354535
C50	C	0.986973	0.248126	0.854535
C51	C	0.403640	-0.251876	0.354544
C52	C	0.903640	0.248124	0.854544
C53	C	0.724028	-0.251867	0.354512
C54	C	1.224028	0.248133	0.854512
C55	C	1.063354	-0.387708	0.354461
C56	C	1.563354	0.112292	0.854461
C57	C	1.063377	-0.445822	0.354461
C58	C	1.563377	0.054178	0.854461
C59	C	1.110562	-0.806140	0.401678
C60	C	1.610562	-0.306140	0.901678
C61	C	1.110583	-0.860744	0.401693
C62	C	1.610583	-0.360744	0.901693
O63	O	1.150578	-0.888942	0.441779
O64	O	1.650578	-0.388942	0.941779
N65	N	1.063560	-0.888104	0.354590
N66	N	1.563560	-0.388104	0.854590
C67	C	1.016507	-0.860857	0.307474
C68	C	1.516507	-0.360857	0.807474
O69	O	0.976512	-0.889143	0.267410
O70	O	1.476512	-0.389143	0.767410
C71	C	1.016482	-0.806254	0.307463
C72	C	1.516482	-0.306254	0.807463
C73	C	1.063514	-0.778896	0.354564
C74	C	1.563514	-0.278896	0.854564
C75	C	1.157589	-0.778782	0.448776
C76	C	1.657589	-0.278782	0.948776
C77	C	1.157568	-0.724182	0.448760
C78	C	1.657568	-0.224182	0.948760
C79	C	1.110520	-0.696938	0.401646
C80	C	1.610520	-0.196938	0.901646
C81	C	1.063493	-0.724296	0.354548
C82	C	1.563493	-0.224296	0.854548
C83	C	0.969426	-0.779008	0.260351
C84	C	1.469426	-0.279008	0.760351
C85	C	0.969405	-0.724401	0.260345
C86	C	1.469405	-0.224401	0.760345
C87	C	1.016436	-0.697043	0.307446
C88	C	1.516436	-0.197043	0.807446
C89	C	1.016424	-0.642452	0.307418
C90	C	1.516424	-0.142452	0.807418
N91	N	1.063447	-0.615092	0.354521
N92	N	1.563447	-0.115092	0.854521
C93	C	1.110495	-0.642335	0.401635
C94	C	1.610495	-0.142335	0.901635
C95	C	1.016562	-0.975528	0.307500
C96	C	1.516562	-0.475528	0.807500
C97	C	1.016590	-1.030130	0.307507
C98	C	1.516590	-0.530130	0.807507
C99	C	1.110666	-1.030013	0.401727
C100	C	1.610666	-0.530013	0.901727
C101	C	1.110641	-0.975410	0.401717
C102	C	1.610641	-0.475410	0.901717
C103	C	1.063585	-0.948167	0.354604
C104	C	1.563585	-0.448167	0.854604
C105	C	1.110448	-0.527670	0.401597
C106	C	1.610448	-0.027670	0.901597
C107	C	1.110425	-0.473065	0.401575
C108	C	1.610425	0.026935	0.901575
C109	C	1.016347	-0.473186	0.307357
C110	C	1.516347	0.026814	0.807357
C111	C	1.016372	-0.527787	0.307377
C112	C	1.516372	-0.027787	0.807377
C113	C	1.063425	-0.555027	0.354503
C114	C	1.563425	-0.055027	0.854503
O115	O	0.976448	-0.614219	0.267354
O116	O	1.476448	-0.114219	0.767354
O117	O	1.150477	-0.614043	0.441698
O118	O	1.650477	-0.114043	0.941698
C119	C	1.255411	-0.251874	0.354540
C120	C	1.755411	0.248126	0.854540
C121	C	1.337210	-0.251878	0.354549
C122	C	1.837210	0.248122	0.854549
C123	C	1.063503	-0.251829	0.546471
C124	C	1.563503	0.248171	1.046471
C125	C	1.063522	-0.251814	0.628270
C126	C	1.563522	0.248186	1.128270
C127	C	1.063583	-0.115492	0.354592
C128	C	1.563583	0.384508	0.854592
C129	C	1.063636	-0.057378	0.354624
C130	C	1.563636	0.442622	0.854624
C131	C	1.063456	-0.251863	0.163312
C132	C	1.563456	0.248137	0.663312
C133	C	1.063579	-0.251731	0.081514
C134	C	1.563579	0.248269	0.581514
C135	C	1.110639	-0.218344	0.816489
C136	C	1.610639	0.281656	1.316489
C137	C	1.110647	-0.218329	0.893348
C138	C	1.610647	0.281671	1.393348
C139	C	1.016457	-0.285202	0.893290
C140	C	1.516457	0.214798	1.393290
C141	C	1.016446	-0.285214	0.816432
C142	C	1.516446	0.214786	1.316432
C143	C	1.063540	-0.251786	0.778034
C144	C	1.563540	0.248214	1.278034
C145	C	1.063561	-0.251759	0.931750
C146	C	1.563561	0.248241	1.431750
C147	C	1.063570	-0.251742	1.015084
C148	C	1.563570	0.248258	1.515084
C149	C	1.063530	-0.251801	0.694695
C150	C	1.563530	0.248199	1.194695
H151	H	0.494113	-0.312613	0.439762
H152	H	0.994113	0.187387	0.939762
O153	O	0.965623	-0.321270	0.774947
O154	O	1.465623	0.178730	1.274947
H155	H	0.932877	-0.344512	0.814558
H156	H	1.432877	0.155488	1.314558
H157	H	1.195863	-0.701911	0.487115
H158	H	1.695863	-0.201911	0.987115
O159	O	0.643704	-0.321453	0.452164
O160	O	1.143704	0.178547	0.952164
H161	H	0.604065	-0.344730	0.484838
H162	H	1.104065	0.155270	0.984838
O163	O	0.483969	-0.182296	0.256871
O164	O	0.983969	0.317704	0.756871
H165	H	0.424068	-0.187931	0.264753
H166	H	0.924068	0.312069	0.764753
H167	H	0.931128	-0.801273	0.221996
H168	H	1.431128	-0.301273	0.721996
O169	O	0.643726	-0.182282	0.256869
O170	O	1.143726	0.317718	0.756869
H171	H	0.604098	-0.159009	0.224197
H172	H	1.104098	0.340991	0.724197
O173	O	0.965666	-0.321254	0.934709
O174	O	1.465666	0.178746	1.434709
H175	H	0.978243	-0.362292	0.919932
H176	H	1.478243	0.137708	1.419932
H177	H	1.148726	-0.450792	0.439930
H178	H	1.648726	0.049208	0.939930
H179	H	1.148999	-0.191096	0.924655
H180	H	1.648999	0.308904	1.424655
H181	H	0.978043	-0.450996	0.268995
H182	H	1.478043	0.049004	0.768995
O183	O	0.918657	-0.695020	0.209520
O184	O	1.418657	-0.195020	0.709520
H185	H	0.860895	-0.705531	0.222087
H186	H	1.360895	-0.205531	0.722087
O187	O	1.161196	-0.557049	0.452422
O188	O	1.661196	-0.057049	0.952422
H189	H	1.218956	-0.546542	0.439842
H190	H	1.718956	-0.046542	0.939842
O191	O	1.208340	-0.808162	0.499593
O192	O	1.708340	-0.308162	0.999593
H193	H	1.241035	-0.779957	0.532332
H194	H	1.741035	-0.279957	1.032332
H195	H	0.978081	-0.550062	0.269017
H196	H	1.478081	-0.050062	0.769017
H197	H	1.148937	-0.953139	0.440071
H198	H	1.648937	-0.453139	0.940071
H199	H	1.148973	-1.052204	0.440092
H200	H	1.648973	-0.552204	0.940092
H201	H	0.978300	-1.052400	0.269145
H202	H	1.478300	-0.552400	0.769145
O203	O	0.965821	-0.946145	0.256668
O204	O	1.465821	-0.446145	0.756668
H205	H	0.933138	-0.974348	0.223913
H206	H	1.433138	-0.474348	0.723913
O207	O	1.161425	-0.182288	0.775070
O208	O	1.661425	0.317712	1.275070
H209	H	1.194172	-0.159028	0.814726
H210	H	1.694172	0.340972	1.314726
