data_functionalizedCrystal
_audit_creation_method	'MofGen! by Chris Wilmer'
_symmetry_space_group_name_H-M	'P1'
_symmetry_Int_Tables_number	1
_symmetry_cell_setting	triclinic
loop_
_symmetry_equiv_pos_as_xyz
  x,y,z
_cell_length_a	13.339070
_cell_length_b	19.188930
_cell_length_c	11.804783
_cell_angle_alpha	76.675961
_cell_angle_beta	80.565097
_cell_angle_gamma	99.387037
loop_
_atom_site_label
_atom_site_type_symbol
_atom_site_fract_x
_atom_site_fract_y
_atom_site_fract_z
O1	O	1.322567	0.333604	0.099113
O2	O	1.822567	0.833604	0.599113
O3	O	1.028246	0.287703	0.099099
O4	O	1.528246	0.787703	0.599099
O5	O	1.183904	0.210665	0.099083
O6	O	1.683904	0.710665	0.599083
O7	O	1.166909	0.410642	0.099129
O8	O	1.666909	0.910642	0.599129
O9	O	1.220192	0.242871	-0.098950
O10	O	1.720192	0.742871	0.401050
O11	O	1.064533	0.319909	-0.098934
O12	O	1.564533	0.819909	0.401066
O13	O	1.358854	0.365810	-0.098920
O14	O	1.858854	0.865810	0.401080
Cu15	Cu	1.215007	0.345800	-0.117009
Cu16	Cu	1.715007	0.845800	0.382991
Cu17	Cu	1.172093	0.307713	0.117188
Cu18	Cu	1.672093	0.807713	0.617188
O19	O	1.203196	0.442848	-0.098904
O20	O	1.703196	0.942848	0.401096
C21	C	1.008735	0.296052	0.000080
C22	C	1.508735	0.796052	0.500080
C23	C	0.896537	0.272940	0.000074
C24	C	1.396537	0.772940	0.500074
C25	C	1.201498	0.200649	0.000063
C26	C	1.701498	0.700649	0.500063
C27	C	1.199849	0.122823	0.000053
C28	C	1.699849	0.622823	0.500053
C29	C	0.530938	0.452644	0.000134
C30	C	1.030938	0.952644	0.500134
C31	C	0.636352	0.474360	0.000143
C32	C	1.136352	0.974360	0.500143
C33	C	0.701404	0.424007	0.000126
C34	C	1.201404	0.924007	0.500126
C35	C	0.661030	0.351934	0.000099
C36	C	1.161030	0.851934	0.500099
C37	C	0.555603	0.330214	0.000098
C38	C	1.055603	0.830214	0.500098
C39	C	0.726069	0.301577	0.000090
C40	C	1.226069	0.801577	0.500090
C41	C	0.685695	0.229504	0.000064
C42	C	1.185695	0.729504	0.500064
C43	C	0.580278	0.207788	0.000062
C44	C	1.080278	0.707788	0.500062
C45	C	0.515227	0.258141	0.000080
C46	C	1.015227	0.758141	0.500080
C47	C	0.831496	0.323297	0.000091
C48	C	1.331496	0.823297	0.500091
C49	C	0.856161	0.200867	0.000056
C50	C	1.356161	0.700867	0.500056
C51	C	0.750746	0.179151	0.000046
C52	C	1.250746	0.679151	0.500046
C53	C	1.291183	0.095785	0.000051
C54	C	1.791183	0.595785	0.500051
C55	C	1.289628	0.022655	0.000070
C56	C	1.789628	0.522655	0.500070
C57	C	1.196738	-0.023432	0.000067
C58	C	1.696738	0.476568	0.500067
C59	C	1.105391	0.003612	0.000075
C60	C	1.605391	0.503612	0.500075
C61	C	1.106947	0.076740	0.000068
C62	C	1.606947	0.576740	0.500068
N63	N	1.138085	-0.134381	-0.067331
N64	N	1.638085	0.365619	0.432669
N65	N	1.136614	-0.203848	-0.067327
N66	N	1.636614	0.296152	0.432673
C67	C	1.192046	-0.243763	0.000091
C68	C	1.692046	0.256237	0.500091
N69	N	1.249023	-0.211582	0.067489
N70	N	1.749023	0.288418	0.567489
N71	N	1.250498	-0.142107	0.067479
N72	N	1.750498	0.357893	0.567479
C73	C	1.195042	-0.102728	0.000075
C74	C	1.695042	0.397272	0.500075
C75	C	1.281700	-0.350097	0.000112
C76	C	1.781700	0.149903	0.500112
C77	C	1.280140	-0.423230	0.000138
C78	C	1.780140	0.076770	0.500138
C79	C	1.095903	-0.442270	0.000131
C80	C	1.595903	0.057730	0.500131
C81	C	1.097464	-0.369139	0.000116
C82	C	1.597464	0.130861	0.500116
C83	C	1.190366	-0.323056	0.000101
C84	C	1.690366	0.176944	0.500101
C85	C	1.378365	0.357460	0.000101
C86	C	1.878365	0.857460	0.500101
C87	C	1.490562	0.380571	0.000115
C88	C	1.990562	0.880571	0.500115
C89	C	1.185601	0.452863	0.000118
C90	C	1.685601	0.952863	0.500118
C91	C	1.187249	0.530688	0.000136
C92	C	1.687249	1.030688	0.500136
N93	N	1.245198	0.372589	-0.281731
N94	N	1.745198	0.872589	0.218269
C95	C	1.069376	0.216575	-0.655790
C96	C	1.569376	0.716575	-0.155790
C97	C	1.046517	0.196301	-0.531143
C98	C	1.546517	0.696301	-0.031143
C99	C	1.096185	0.240372	-0.468784
C100	C	1.596185	0.740372	0.031216
C101	C	1.168716	0.304719	-0.531084
C102	C	1.668716	0.804719	-0.031084
C103	C	1.191583	0.324993	-0.655744
C104	C	1.691583	0.824993	-0.155744
C105	C	1.218392	0.348789	-0.468737
C106	C	1.718392	0.848789	0.031263
C107	C	1.290923	0.413137	-0.531037
C108	C	1.790923	0.913137	-0.031037
C109	C	1.313786	0.433407	-0.655685
C110	C	1.813786	0.933407	-0.155685
C111	C	1.264118	0.389337	-0.718044
C112	C	1.764118	0.889337	-0.218044
C113	C	1.195525	0.328516	-0.344078
C114	C	1.695525	0.828516	0.155922
C115	C	1.317733	0.436933	-0.344031
C116	C	1.817733	0.936933	0.155969
C117	C	1.340591	0.457207	-0.468678
C118	C	1.840591	0.957207	0.031322
N119	N	1.141911	0.280919	0.281909
N120	N	1.641911	0.780919	0.781909
H121	H	0.864358	0.381980	0.000108
H122	H	1.364358	0.881980	0.500108
H123	H	1.357346	-0.312574	0.000105
H124	H	1.857346	0.187426	0.500105
H125	H	1.023091	-0.347125	0.000110
H126	H	1.523091	0.152875	0.500110
H127	H	1.399648	0.509601	-0.519421
H128	H	1.899648	1.009601	-0.019421
F129	F	0.461699	0.506222	0.000169
F130	F	0.961699	1.006222	0.500169
F131	F	1.370601	0.483838	-0.277670
F132	F	1.870601	0.983838	0.222330
H133	H	1.354517	-0.445243	0.000144
H134	H	1.854517	0.054757	0.500144
H135	H	1.366830	0.133302	0.000043
H136	H	1.866830	0.633302	0.500043
H137	H	1.136470	0.276124	-0.293365
H138	H	1.636470	0.776124	0.206635
F139	F	1.016529	0.169678	-0.722164
F140	F	1.516529	0.669678	-0.222164
H141	H	1.364004	0.000635	0.000074
H142	H	1.864004	0.500635	0.500074
F143	F	0.997041	-0.491315	0.000133
F144	F	1.497041	0.008685	0.500133
H145	H	1.077569	0.223861	-0.367290
H146	H	1.577569	0.723861	0.132710
F147	F	0.925387	0.147272	0.000044
F148	F	1.425387	0.647272	0.500044
H149	H	0.669215	0.533040	0.000174
H150	H	1.169215	1.033040	0.500174
H151	H	0.547407	0.149099	0.000054
H152	H	1.047407	0.649099	0.500054
F153	F	0.813596	0.447122	0.000134
F154	F	1.313596	0.947122	0.500134
F155	F	0.403030	0.235032	0.000067
F156	F	0.903030	0.735032	0.500067
F157	F	1.390990	0.501887	-0.721986
F158	F	1.890990	1.001887	-0.221986
H159	H	0.987465	0.143908	-0.480427
H160	H	1.487465	0.643908	0.019573
H161	H	0.717857	0.120466	0.000034
H162	H	1.217857	0.620466	0.500034
H163	H	1.282722	0.405843	-0.819542
H164	H	1.782722	0.905843	-0.319542
H165	H	1.032569	0.098752	0.000069
H166	H	1.532569	0.598752	0.500069
F167	F	1.006530	-0.045439	0.000079
F168	F	1.506530	0.454561	0.500079
