data_functionalizedCrystal
_audit_creation_method	'MofGen! by Chris Wilmer'
_symmetry_space_group_name_H-M	'P1'
_symmetry_Int_Tables_number	1
_symmetry_cell_setting	triclinic
loop_
_symmetry_equiv_pos_as_xyz
  x,y,z
_cell_length_a	6.817900
_cell_length_b	11.102193
_cell_length_c	16.418042
_cell_angle_alpha	93.889750
_cell_angle_beta	103.389568
_cell_angle_gamma	108.603963
loop_
_atom_site_label
_atom_site_type_symbol
_atom_site_fract_x
_atom_site_fract_y
_atom_site_fract_z
V1	V	-4.051812	-0.176872	-0.261153
O2	O	-4.011991	0.007436	-0.256182
O3	O	-4.028988	-0.349685	-0.259367
O4	O	-4.002552	-0.174617	-0.375052
O5	O	-4.038610	-0.168843	-0.139697
V6	V	-4.532237	-0.154771	-0.246626
O7	O	-4.319865	-0.225351	-0.293020
O8	O	-4.714381	-0.106292	-0.214760
O9	O	-4.331854	0.018042	-0.248413
O10	O	-4.689455	-0.339079	-0.251597
O11	O	-4.662835	-0.162800	-0.368083
O12	O	-4.358291	-0.157025	-0.132728
C13	C	-3.880238	-0.391798	-0.255247
C14	C	-3.942858	-0.533078	-0.254546
C15	C	-3.789230	-0.592967	-0.250042
C16	C	-3.848081	-0.725715	-0.249385
C17	C	-4.214202	-0.738675	-0.257738
C18	C	-4.155346	-0.605927	-0.258389
C19	C	-3.577856	-0.585487	-0.245223
C20	C	-3.636707	-0.718235	-0.244566
C21	C	-3.846515	-0.168481	-0.402813
C22	C	-3.887692	-0.167781	-0.495925
C23	C	-4.165415	-0.172509	-0.714411
C24	C	-4.204084	-0.171841	-0.801899
C25	C	-3.837989	-0.159127	-0.793356
C26	C	-3.799318	-0.159787	-0.705869
C27	C	-3.963041	-0.166484	-0.666400
C28	C	-4.040382	-0.165156	-0.841374
C29	C	-4.082307	-0.164432	-0.936232
C30	C	-3.921112	-0.167206	-0.571536
C31	C	-4.143947	0.060148	-0.252530
C32	C	-4.060565	0.201427	-0.253237
C33	C	-4.177670	-0.163166	-0.104962
C34	C	-4.115730	-0.163859	-0.011849
H35	H	-3.447991	-0.532431	-0.184662
H36	H	-4.280445	-0.557169	-0.262048
C37	C	-4.268702	-0.179175	-0.584095
C38	C	-4.345368	-0.179861	-0.671024
H39	H	-4.379808	-0.183720	-0.557313
H40	H	-4.150429	-0.102191	-0.560353
H41	H	-4.223907	-0.251165	-0.575666
H42	H	-4.390149	-0.107865	-0.679453
H43	H	-4.463680	-0.256854	-0.694773
C44	C	-3.395257	-0.637079	-0.105554
C45	C	-3.527201	-0.750972	-0.160256
H46	H	-3.327652	-0.657295	-0.053509
H47	H	-3.479751	-0.587270	-0.095229
H48	H	-3.288862	-0.589442	-0.130824
H49	H	-3.633607	-0.798605	-0.134989
H50	H	-3.442702	-0.800802	-0.170580
H51	H	-4.368873	-0.176745	-0.840986
C52	C	-3.525863	-0.656249	-0.377541
C53	C	-3.510239	-0.546475	-0.325490
H54	H	-3.484109	-0.632159	-0.427092
H55	H	-3.669956	-0.714147	-0.393081
H56	H	-3.434088	-0.696874	-0.347754
H57	H	-3.602026	-0.505854	-0.355276
H58	H	-3.366123	-0.488555	-0.309951
H59	H	-4.387208	-0.798004	-0.260865
C60	C	-3.734722	-0.152488	-0.923677
C61	C	-3.658042	-0.151785	-0.836746
H62	H	-3.623629	-0.147966	-0.950461
H63	H	-3.779504	-0.080507	-0.932113
H64	H	-3.853018	-0.229482	-0.947412
H65	H	-3.539756	-0.074785	-0.813009
H66	H	-3.613229	-0.223772	-0.828304
H67	H	-3.604247	-0.765549	-0.301423
H68	H	-3.634509	-0.154871	-0.666776
