data_functionalizedCrystal
_audit_creation_method	'MofGen! by Chris Wilmer'
_symmetry_space_group_name_H-M	'P1'
_symmetry_Int_Tables_number	1
_symmetry_cell_setting	triclinic
loop_
_symmetry_equiv_pos_as_xyz
  x,y,z
_cell_length_a	18.215407
_cell_length_b	12.827892
_cell_length_c	18.215399
_cell_angle_alpha	89.973753
_cell_angle_beta	89.983176
_cell_angle_gamma	90.015840
loop_
_atom_site_label
_atom_site_type_symbol
_atom_site_fract_x
_atom_site_fract_y
_atom_site_fract_z
Zn1	Zn	1.125099	-0.416006	-0.416137
Zn2	Zn	1.125034	-0.590773	-0.293079
Zn3	Zn	1.002038	-0.416048	-0.293084
Zn4	Zn	1.002017	-0.590707	-0.416104
O5	O	1.063547	-0.503384	-0.354601
O6	O	1.228074	-0.439200	-0.399825
O7	O	1.108700	-0.567640	-0.190096
O8	O	1.018398	-0.269806	-0.309423
O9	O	1.228027	-0.567600	-0.309415
O10	O	1.108810	-0.269776	-0.399829
O11	O	1.018335	-0.439270	-0.190099
O12	O	0.899051	-0.439207	-0.309392
O13	O	1.018363	-0.567488	-0.519093
O14	O	0.899036	-0.567528	-0.399774
O15	O	1.108790	-0.439136	-0.519117
O16	O	1.108680	-0.737000	-0.309383
O17	O	1.018300	-0.736952	-0.399769
C18	C	0.872341	-0.503366	-0.354580
C19	C	0.790542	-0.503383	-0.354589
C20	C	1.063501	-0.774894	-0.354588
C21	C	1.063549	-0.891047	-0.354607
C22	C	0.602359	-0.570305	-0.401592
C23	C	0.525501	-0.570309	-0.401601
C24	C	0.525486	-0.436481	-0.307627
C25	C	0.602344	-0.436473	-0.307622
C26	C	0.640778	-0.503391	-0.354603
C27	C	0.487062	-0.503402	-0.354617
C28	C	0.403729	-0.503405	-0.354627
C29	C	0.724117	-0.503387	-0.354595
C30	C	1.108324	-0.942821	-0.309931
C31	C	1.108375	-1.062871	-0.309950
C32	C	1.255500	-0.503402	-0.354623
C33	C	1.337299	-0.503410	-0.354632
C34	C	1.063582	-0.503300	-0.546554
C35	C	1.063596	-0.503265	-0.628353
C36	C	1.063613	-0.230814	-0.354630
C37	C	1.063641	-0.114660	-0.354643
C38	C	1.016583	-0.436377	-0.816550
C39	C	1.016596	-0.436356	-0.893409
C40	C	1.110698	-0.570027	-0.893394
C41	C	1.110681	-0.570053	-0.816537
C42	C	1.063625	-0.503222	-0.778117
C43	C	1.063654	-0.503175	-0.931833
C44	C	1.063669	-0.503153	-1.015167
C45	C	1.063609	-0.503245	-0.694778
C46	C	1.063555	-0.503391	-0.163395
C47	C	1.063682	-0.503133	-0.081597
H48	H	0.633650	-0.624792	-0.439849
H49	H	0.978290	-0.381926	-0.924698
H50	H	0.633625	-0.381977	-0.269358
C51	C	1.159347	-0.883559	-0.258788
C52	C	1.143406	-0.910142	-0.185947
C53	C	1.190399	-0.855583	-0.138812
H54	H	1.152571	-0.810750	-0.265457
H55	H	1.208820	-0.901344	-0.269548
H56	H	1.093945	-0.892350	-0.175190
H57	H	1.150186	-0.982941	-0.179255
H58	H	1.239872	-0.873368	-0.149573
H59	H	1.183620	-0.782777	-0.145489
H60	H	1.179594	-0.873619	-0.089386
C61	C	1.161635	-0.642761	-0.774765
C62	C	1.119936	-0.709769	-0.730644
C63	C	1.166844	-0.776771	-0.692160
H64	H	1.193716	-0.602920	-0.744730
H65	H	1.189653	-0.682616	-0.808630
H66	H	1.091931	-0.669919	-0.696783
H67	H	1.087857	-0.749633	-0.760661
H68	H	1.194862	-0.816625	-0.726025
H69	H	1.198923	-0.736921	-0.662129
H70	H	1.138559	-0.822249	-0.662225
H71	H	1.025302	-1.070144	-0.392891
C72	C	0.483921	-0.643076	-0.452644
C73	C	0.534034	-0.701692	-0.493771
C74	C	0.495759	-0.768747	-0.540795
H75	H	0.453956	-0.603277	-0.484825
H76	H	0.453937	-0.688618	-0.424457
H77	H	0.564006	-0.656156	-0.521956
H78	H	0.564001	-0.741512	-0.461609
H79	H	0.465774	-0.814289	-0.512608
H80	H	0.465794	-0.728940	-0.572972
H81	H	0.529754	-0.808533	-0.568701
C82	C	0.483623	-0.363946	-0.256647
C83	C	0.408091	-0.378292	-0.266694
C84	C	0.369506	-0.311499	-0.219736
H85	H	0.496145	-0.293708	-0.267455
H86	H	0.496156	-0.379160	-0.207165
H87	H	0.395563	-0.363070	-0.316165
H88	H	0.395547	-0.448516	-0.255881
H89	H	0.382039	-0.326713	-0.170254
H90	H	0.382033	-0.241265	-0.230548
H91	H	0.318254	-0.321230	-0.226542
C92	C	1.159491	-1.122418	-0.259052
C93	C	1.149413	-1.229651	-0.269225
C94	C	1.196509	-1.284539	-0.222368
H95	H	1.148829	-1.104788	-0.209542
H96	H	1.208942	-1.104551	-0.269889
H97	H	1.099973	-1.247510	-0.258383
H98	H	1.160080	-1.247312	-0.318725
H99	H	1.245959	-1.266673	-0.233204
H100	H	1.185843	-1.266901	-0.172861
H101	H	1.189682	-1.357302	-0.229268
H102	H	1.025255	-0.935598	-0.392873
H103	H	0.978267	-0.381960	-0.785270
C104	C	1.161700	-0.642750	-0.935070
C105	C	1.145637	-0.746153	-0.916372
C106	C	1.192602	-0.813173	-0.954754
H107	H	1.211173	-0.627600	-0.922509
H108	H	1.154970	-0.633232	-0.986355
H109	H	1.152373	-0.755666	-0.865098
H110	H	1.096173	-0.761335	-0.928935
H111	H	1.185872	-0.803655	-1.006040
H112	H	1.242072	-0.798014	-0.942191
H113	H	1.181705	-0.883339	-0.942079
