data_functionalizedCrystal
_audit_creation_method	'MofGen! by Chris Wilmer'
_symmetry_space_group_name_H-M	'P1'
_symmetry_Int_Tables_number	1
_symmetry_cell_setting	triclinic
loop_
_symmetry_equiv_pos_as_xyz
  x,y,z
_cell_length_a	19.188930
_cell_length_b	19.288865
_cell_length_c	17.766277
_cell_angle_alpha	90.011603
_cell_angle_beta	90.023242
_cell_angle_gamma	83.140512
loop_
_atom_site_label
_atom_site_type_symbol
_atom_site_fract_x
_atom_site_fract_y
_atom_site_fract_z
O1	O	-0.926143	-0.086718	-0.062845
O2	O	-0.592810	0.246615	0.270489
O3	O	-0.259476	0.579949	0.603822
O4	O	-0.722831	-0.098391	-0.062794
O5	O	-0.389498	0.234942	0.270539
O6	O	-0.056164	0.568275	0.603872
O7	O	-0.830362	0.008575	-0.062806
O8	O	-0.497028	0.341909	0.270527
O9	O	-0.163695	0.675242	0.603861
O10	O	-0.818612	-0.193685	-0.062833
O11	O	-0.485279	0.139649	0.270500
O12	O	-0.151946	0.472982	0.603834
O13	O	-0.830343	0.008581	0.062382
O14	O	-0.497010	0.341914	0.395716
O15	O	-0.163676	0.675247	0.729049
O16	O	-0.722812	-0.098386	0.062394
O17	O	-0.389479	0.234947	0.395728
O18	O	-0.056145	0.568281	0.729061
O19	O	-0.926124	-0.086712	0.062344
O20	O	-0.592791	0.246621	0.395677
O21	O	-0.259458	0.579954	0.729010
Cu22	Cu	-0.824466	-0.092549	0.073800
Cu23	Cu	-0.491133	0.240785	0.407133
Cu24	Cu	-0.157800	0.574118	0.740466
Cu25	Cu	-0.824489	-0.092555	-0.074250
Cu26	Cu	-0.491155	0.240778	0.259083
Cu27	Cu	-0.157822	0.574112	0.592416
O28	O	-0.818593	-0.193679	0.062356
O29	O	-0.485260	0.139654	0.395689
O30	O	-0.151927	0.472988	0.729022
C31	C	-0.696811	-0.098011	-0.000193
C32	C	-0.363477	0.235323	0.333140
C33	C	-0.030144	0.568656	0.666473
C34	C	-0.619306	-0.096876	-0.000173
C35	C	-0.285973	0.236457	0.333160
C36	C	0.047361	0.569791	0.666493
C37	C	-0.829974	0.034454	-0.000209
C38	C	-0.496641	0.367788	0.333124
C39	C	-0.163308	0.701121	0.666457
C40	C	-0.828839	0.111558	-0.000203
C41	C	-0.495506	0.444891	0.333131
C42	C	-0.162173	0.778225	0.666464
C43	C	-0.952145	-0.087093	-0.000259
C44	C	-0.618811	0.246240	0.333075
C45	C	-0.285478	0.579573	0.666408
C46	C	-1.029649	-0.088228	-0.000284
C47	C	-0.696316	0.245105	0.333050
C48	C	-0.362982	0.578439	0.666383
C49	C	-0.574377	-0.159640	-0.000194
C50	C	-0.241044	0.173693	0.333140
C51	C	0.092289	0.507026	0.666473
C52	C	-0.501554	-0.158574	-0.000202
C53	C	-0.168220	0.174759	0.333132
C54	C	0.165113	0.508092	0.666465
C55	C	-0.473662	-0.094740	-0.000205
C56	C	-0.140329	0.238593	0.333128
C57	C	0.193005	0.571927	0.666462
C58	C	-0.518600	-0.031967	-0.000180
C59	C	-0.185267	0.301366	0.333153
C60	C	0.148066	0.634699	0.666486
C61	C	-0.591423	-0.033035	-0.000165
C62	C	-0.258089	0.300298	0.333169
C63	C	0.075244	0.633631	0.666502
N64	N	-0.365692	-0.045949	-0.042836
N65	N	-0.032359	0.287385	0.290498
N66	N	0.300975	0.620718	0.623831
N67	N	-0.296513	-0.044938	-0.042852
N68	N	0.036820	0.288395	0.290481
N69	N	0.370153	0.621728	0.623814
C70	C	-0.254254	-0.091519	-0.000250
C71	C	0.079080	0.241815	0.333083
C72	C	0.412413	0.575148	0.666416
N73	N	-0.283784	-0.139158	0.042359
N74	N	0.049549	0.194175	0.375692
N75	N	0.382882	0.527509	0.709026
N76	N	-0.352969	-0.140170	0.042372
N77	N	-0.019636	0.193163	0.375706
N78	N	0.313698	0.526497	0.709039
C79	C	-0.394700	-0.093575	-0.000221
C80	C	-0.061366	0.239758	0.333112
C81	C	0.271967	0.573092	0.666445
C82	C	-0.130361	-0.153132	-0.000278
C83	C	0.202973	0.180202	0.333055
C84	C	0.536306	0.513535	0.666388
C85	C	-0.057536	-0.152063	-0.000282
C86	C	0.275798	0.181271	0.333051
C87	C	0.609131	0.514604	0.666385
C88	C	-0.074584	-0.025454	-0.000268
C89	C	0.258749	0.307879	0.333065
C90	C	0.592082	0.641213	0.666399
C91	C	-0.147407	-0.026525	-0.000257
C92	C	0.185926	0.306809	0.333076
C93	C	0.519259	0.640142	0.666410
C94	C	-0.175291	-0.090365	-0.000266
C95	C	0.158043	0.242968	0.333068
C96	C	0.491376	0.576301	0.666401
C97	C	-0.818981	-0.219558	-0.000243
C98	C	-0.485648	0.113775	0.333091
C99	C	-0.152314	0.447108	0.666424
C100	C	-0.820116	-0.296662	-0.000255
C101	C	-0.486782	0.036671	0.333079
C102	C	-0.153449	0.370005	0.666412
N103	N	-0.824456	-0.092544	0.177930
N104	N	-0.491123	0.240790	0.511263
N105	N	-0.157789	0.574123	0.844597
C106	C	-0.891934	0.156250	-0.000215
C107	C	-0.558600	0.489583	0.333119
C108	C	-0.225267	0.822916	0.666452
C109	C	-0.890867	0.228697	-0.000226
C110	C	-0.557534	0.562030	0.333107
C111	C	-0.224201	0.895363	0.666440
C112	C	-0.826703	0.256449	-0.000211
C113	C	-0.493370	0.589782	0.333123
C114	C	-0.160037	0.923116	0.666456
C115	C	-0.763601	0.211748	-0.000203
C116	C	-0.430268	0.545081	0.333130
C117	C	-0.096934	0.878414	0.666464
C118	C	-0.764669	0.139302	-0.000199
C119	C	-0.431336	0.472636	0.333134
C120	C	-0.098002	0.805969	0.666468
C121	C	-0.776256	0.364742	0.043653
C122	C	-0.442923	0.698076	0.376986
C123	C	-0.109590	1.031409	0.710319
C124	C	-0.775191	0.437187	0.043653
C125	C	-0.441858	0.770520	0.376986
C126	C	-0.108524	1.103853	0.710320
C127	C	-0.823407	0.479895	-0.000227
C128	C	-0.490073	0.813228	0.333107
C129	C	-0.156740	1.146562	0.666440
C130	C	-0.872700	0.450151	-0.044098
C131	C	-0.539366	0.783485	0.289236
C132	C	-0.206033	1.116818	0.622569
C133	C	-0.873768	0.377706	-0.044093
C134	C	-0.540434	0.711039	0.289240
C135	C	-0.207101	1.044372	0.622573
C136	C	-0.825538	0.335003	-0.000216
C137	C	-0.492205	0.668337	0.333118
C138	C	-0.158872	1.001670	0.666451
C139	C	-0.885349	0.603143	-0.000252
C140	C	-0.552016	0.936476	0.333081
C141	C	-0.218683	1.269809	0.666414
C142	C	-0.884280	0.675591	-0.000269
C143	C	-0.550947	1.008924	0.333065
C144	C	-0.217614	1.342257	0.666398
C145	C	-0.757012	0.658640	-0.000238
C146	C	-0.423679	0.991973	0.333095
C147	C	-0.090345	1.325307	0.666429
C148	C	-0.758083	0.586194	-0.000229
C149	C	-0.424749	0.919527	0.333104
C150	C	-0.091416	1.252860	0.666437
C151	C	-0.822253	0.558449	-0.000233
C152	C	-0.488920	0.891783	0.333100
C153	C	-0.155587	1.225116	0.666434
N154	N	-0.824505	-0.092555	-0.178381
N155	N	-0.491172	0.240779	0.154953
N156	N	-0.157838	0.574112	0.488286
C157	C	-0.872086	-0.045202	0.217312
C158	C	-0.538753	0.288131	0.550645
C159	C	-0.205419	0.621465	0.883978
C160	C	-0.872090	-0.045199	0.296114
C161	C	-0.538757	0.288134	0.629447
C162	C	-0.205423	0.621468	0.962780
C163	C	-0.824471	-0.092549	0.335531
C164	C	-0.491137	0.240784	0.668864
C165	C	-0.157804	0.574117	1.002197
C166	C	-0.776832	-0.139895	0.296139
C167	C	-0.443498	0.193439	0.629473
C168	C	-0.110165	0.526772	0.962806
C169	C	-0.776824	-0.139892	0.217339
C170	C	-0.443491	0.193441	0.550672
C171	C	-0.110158	0.526775	0.884006
C172	C	-0.815123	-0.155836	0.460362
C173	C	-0.481790	0.177497	0.793695
C174	C	-0.148457	0.510830	1.127028
C175	C	-0.815136	-0.155840	0.539160
C176	C	-0.481802	0.177493	0.872494
C177	C	-0.148469	0.510827	1.205827
C178	C	-0.824489	-0.092558	0.578577
C179	C	-0.491156	0.240776	0.911910
C180	C	-0.157823	0.574109	1.245244
C181	C	-0.833845	-0.029269	0.539185
C182	C	-0.500512	0.304064	0.872518
C183	C	-0.167179	0.637398	1.205852
C184	C	-0.833838	-0.029266	0.460385
C185	C	-0.500505	0.304067	0.793718
C186	C	-0.167171	0.637400	1.127051
C187	C	-0.824473	-0.092557	0.420976
C188	C	-0.491140	0.240776	0.754310
C189	C	-0.157806	0.574109	1.087643
C190	C	-0.872126	-0.045209	0.703405
C191	C	-0.538793	0.288125	1.036738
C192	C	-0.205460	0.621458	1.370071
C193	C	-0.872125	-0.045204	0.782208
C194	C	-0.538792	0.288129	1.115541
C195	C	-0.205459	0.621462	1.448874
C196	C	-0.776871	-0.139906	0.782232
C197	C	-0.443537	0.193427	1.115565
C198	C	-0.110204	0.526760	1.448899
C199	C	-0.776868	-0.139904	0.703430
C200	C	-0.443535	0.193429	1.036764
C201	C	-0.110201	0.526762	1.370097
C202	C	-0.824500	-0.092556	0.664021
C203	C	-0.491166	0.240777	0.997355
C204	C	-0.157833	0.574110	1.330688
H205	H	-0.597075	-0.211624	-0.000202
H206	H	-0.263742	0.121709	0.333131
H207	H	0.069592	0.455042	0.666464
H208	H	-0.495886	0.020007	-0.000193
H209	H	-0.162553	0.353340	0.333140
H210	H	0.170780	0.686674	0.666473
H211	H	-0.937601	0.580552	-0.000259
H212	H	-0.604267	0.913886	0.333074
H213	H	-0.270934	1.247219	0.666408
H214	H	-0.051876	0.026521	-0.000317
H215	H	0.281458	0.359854	0.333016
H216	H	0.614791	0.693188	0.666349
H217	H	-0.628004	0.018077	-0.000149
H218	H	-0.294671	0.351410	0.333185
H219	H	0.038662	0.684744	0.666518
Cl220	Cl	-0.445061	-0.237484	-0.000225
Cl221	Cl	-0.111728	0.095849	0.333108
Cl222	Cl	0.221605	0.429182	0.666441
H223	H	-0.713288	0.102913	-0.000189
H224	H	-0.379955	0.436247	0.333144
H225	H	-0.046622	0.769580	0.666478
Cl226	Cl	-0.165418	-0.233387	-0.000282
Cl227	Cl	0.167916	0.099947	0.333051
Cl228	Cl	0.501249	0.433280	0.666385
H229	H	-0.910877	-0.006646	0.328184
H230	H	-0.577544	0.326687	0.661517
H231	H	-0.244211	0.660021	0.994851
Cl232	Cl	-0.716964	-0.199418	0.345690
Cl233	Cl	-0.383631	0.133915	0.679024
Cl234	Cl	-0.050298	0.467248	1.012357
H235	H	-0.020955	-0.203175	-0.000294
H236	H	0.312379	0.130158	0.333039
H237	H	0.645712	0.463491	0.666373
Cl238	Cl	-0.715638	0.311059	0.098824
Cl239	Cl	-0.382305	0.644392	0.432157
Cl240	Cl	-0.048971	0.977726	0.765490
H241	H	-0.738037	-0.178444	0.185274
H242	H	-0.404704	0.154890	0.518607
H243	H	-0.071371	0.488223	0.851940
Cl244	Cl	-0.932004	0.014320	0.831719
Cl245	Cl	-0.598671	0.347653	1.165053
Cl246	Cl	-0.265337	0.680987	1.498386
H247	H	-0.183989	0.024585	-0.000245
H248	H	0.149344	0.357919	0.333089
H249	H	0.482677	0.691252	0.666422
Cl250	Cl	-0.972605	0.121375	-0.000240
Cl251	Cl	-0.639272	0.454708	0.333093
Cl252	Cl	-0.305938	0.788042	0.666426
Cl253	Cl	-0.970192	0.284891	-0.000242
Cl254	Cl	-0.636859	0.618224	0.333091
Cl255	Cl	-0.303525	0.951558	0.666425
H256	H	-0.911961	0.484923	-0.079829
H257	H	-0.578628	0.818257	0.253504
H258	H	-0.245295	1.151590	0.586837
H259	H	-0.913902	0.353491	-0.079816
H260	H	-0.580569	0.686825	0.253517
H261	H	-0.247236	1.020158	0.586851
Cl262	Cl	-0.845591	0.050293	0.410866
Cl263	Cl	-0.512258	0.383626	0.744199
Cl264	Cl	-0.178925	0.716959	1.077532
H265	H	-0.935661	0.711979	-0.000283
H266	H	-0.602328	1.045312	0.333051
H267	H	-0.268995	1.378645	0.666384
Cl268	Cl	-0.676348	0.693522	-0.000223
Cl269	Cl	-0.343014	1.026855	0.333110
Cl270	Cl	-0.009681	1.360188	0.666444
H271	H	-0.735051	0.461398	0.079371
H272	H	-0.401718	0.794731	0.412704
H273	H	-0.068384	1.128064	0.746038
Cl274	Cl	-0.678759	0.530007	-0.000211
Cl275	Cl	-0.345426	0.863340	0.333123
Cl276	Cl	-0.012093	1.196673	0.666456
Cl277	Cl	-0.682937	0.246635	-0.000190
Cl278	Cl	-0.349604	0.579969	0.333144
Cl279	Cl	-0.016271	0.913302	0.666477
Cl280	Cl	-0.931960	0.014323	0.167769
Cl281	Cl	-0.598627	0.347657	0.501103
Cl282	Cl	-0.265294	0.680990	0.834436
Cl283	Cl	-0.845610	0.050292	0.588728
Cl284	Cl	-0.512277	0.383625	0.922061
Cl285	Cl	-0.178944	0.716958	1.255395
H286	H	-0.910909	-0.006653	0.671316
H287	H	-0.577575	0.326681	1.004650
H288	H	-0.244242	0.660014	1.337983
Cl289	Cl	-0.717001	-0.199427	0.831779
Cl290	Cl	-0.383668	0.133906	1.165113
Cl291	Cl	-0.050334	0.467239	1.498446
H292	H	-0.738086	-0.178457	0.671364
H293	H	-0.404753	0.154876	1.004697
H294	H	-0.071419	0.488210	1.338030
H295	H	-0.807522	-0.207373	0.571227
H296	H	-0.474188	0.125960	0.904561
H297	H	-0.140855	0.459293	1.237894
H298	H	-0.807495	-0.207372	0.428275
H299	H	-0.474161	0.125962	0.761609
H300	H	-0.140828	0.459295	1.094942
