data_functionalizedCrystal
_audit_creation_method	'MofGen! by Chris Wilmer'
_symmetry_space_group_name_H-M	'P1'
_symmetry_Int_Tables_number	1
_symmetry_cell_setting	triclinic
loop_
_symmetry_equiv_pos_as_xyz
  x,y,z
_cell_length_a	23.532407
_cell_length_b	10.489716
_cell_length_c	8.965430
_cell_angle_alpha	89.996523
_cell_angle_beta	89.995773
_cell_angle_gamma	83.688907
loop_
_atom_site_label
_atom_site_type_symbol
_atom_site_fract_x
_atom_site_fract_y
_atom_site_fract_z
O1	O	0.080273	1.691403	-0.124044
O2	O	0.087830	1.319952	-0.124052
O3	O	0.001194	1.516879	-0.124021
O4	O	0.166909	1.494476	-0.124076
O5	O	0.001199	1.516862	0.124058
O6	O	0.087835	1.319935	0.124027
O7	O	0.080279	1.691386	0.124034
Cu8	Cu	0.084058	1.505659	0.146682
Cu9	Cu	0.084051	1.505679	-0.146700
O10	O	0.166915	1.494460	0.124003
C11	C	0.087265	1.272430	-0.000013
C12	C	0.085566	1.130856	-0.000014
C13	C	-0.020023	1.516300	0.000023
C14	C	-0.083252	1.514585	0.000034
C15	C	0.138694	1.031416	-0.000036
C16	C	0.110623	0.954995	0.122296
C17	C	0.110605	0.955018	-0.122290
C18	C	0.057517	1.056300	0.122419
C19	C	0.057507	1.056328	-0.122278
C20	C	0.029397	0.979958	0.000084
C21	C	-0.481658	1.620364	-0.000046
C22	C	-0.541069	1.618771	-0.000057
O23	O	-0.577167	1.716829	-0.000110
N24	N	-0.564466	1.501698	-0.000058
C25	C	-0.528449	1.386211	-0.000063
O26	O	-0.553806	1.286485	-0.000067
C27	C	-0.469040	1.387806	-0.000062
C28	C	-0.445646	1.504886	-0.000046
C29	C	-0.458263	1.737435	-0.000031
C30	C	-0.398857	1.739028	-0.000017
C31	C	-0.362845	1.623549	-0.000017
C32	C	-0.386239	1.506479	-0.000032
C33	C	-0.433024	1.272320	-0.000078
C34	C	-0.373611	1.273925	-0.000079
C35	C	-0.350217	1.391005	-0.000062
C36	C	-0.290820	1.392593	-0.000018
N37	N	-0.267423	1.509666	-0.000017
C38	C	-0.303435	1.625144	-0.000017
C39	C	-0.653214	1.382871	-0.000067
C40	C	-0.712622	1.381275	-0.000057
C41	C	-0.725238	1.613835	-0.000054
C42	C	-0.665828	1.615430	-0.000053
C43	C	-0.629816	1.499944	-0.000066
C44	C	-0.178676	1.628480	0.000014
C45	C	-0.119264	1.630063	0.000035
C46	C	-0.106654	1.397503	0.000023
C47	C	-0.166061	1.395920	0.000011
C48	C	-0.202071	1.511419	0.000001
O49	O	-0.254687	1.294586	0.000029
O50	O	-0.278070	1.724854	-0.000033
C51	C	0.188132	1.495039	-0.000043
C52	C	0.251360	1.496754	-0.000064
C53	C	0.080844	1.738908	-0.000008
C54	C	0.082543	1.880482	-0.000016
N55	N	0.084062	1.505655	0.353031
N56	N	0.084042	1.505694	-0.353049
C57	C	0.124115	1.414555	0.450323
C58	C	0.135633	1.529670	0.549735
C59	C	0.072549	1.390589	0.549747
C60	C	0.095606	1.620827	0.450254
C61	C	0.032499	1.481670	0.450258
C62	C	0.043996	1.596869	0.549625
H63	H	0.184907	1.054549	0.000063
F64	F	0.059831	1.263378	0.606874
H65	H	-0.646785	1.710767	-0.000041
F66	F	-0.216993	1.751407	0.000004
F67	F	-0.031050	0.950025	0.000197
H68	H	-0.623896	1.288822	-0.000065
F69	F	0.108390	1.748069	0.393377
F70	F	0.028217	1.114181	-0.257443
H71	H	0.010114	1.674009	0.592952
H72	H	-0.452061	1.176981	-0.000100
H73	H	0.158018	1.337585	0.406722
H74	H	0.179230	1.549983	0.593429
F75	F	0.028224	1.113877	0.257735
F76	F	0.139939	0.897174	0.257454
H77	H	0.133041	0.910796	-0.225697
F78	F	-0.094370	1.754681	0.000051
H79	H	-0.077322	1.303484	0.000028
F80	F	-0.024468	1.455073	0.393097
F81	F	-0.373967	1.863641	-0.000032
F82	F	-0.496582	1.860354	-0.000031
H83	H	-0.754570	1.707864	-0.000059
F84	F	-0.737513	1.256662	-0.000048
H85	H	-0.344293	1.179879	-0.000091
H86	H	-0.185109	1.300584	0.000039
