data_functionalizedCrystal
_audit_creation_method	'MofGen! by Chris Wilmer'
_symmetry_space_group_name_H-M	'P1'
_symmetry_Int_Tables_number	1
_symmetry_cell_setting	triclinic
loop_
_symmetry_equiv_pos_as_xyz
  x,y,z
_cell_length_a	14.971486
_cell_length_b	9.016244
_cell_length_c	14.971486
_cell_angle_alpha	90.002444
_cell_angle_beta	83.614129
_cell_angle_gamma	90.002385
loop_
_atom_site_label
_atom_site_type_symbol
_atom_site_fract_x
_atom_site_fract_y
_atom_site_fract_z
O1	O	1.186949	0.123170	0.116559
O2	O	1.686949	0.623170	0.616559
O3	O	0.926549	0.123211	0.130518
O4	O	1.426549	0.623211	0.630518
O5	O	1.063728	0.123179	-0.006662
O6	O	1.563728	0.623179	0.493338
O7	O	1.049769	0.123202	0.253738
O8	O	1.549769	0.623202	0.753738
O9	O	1.063708	-0.123502	-0.006659
O10	O	1.563708	0.376498	0.493341
O11	O	0.926529	-0.123470	0.130521
O12	O	1.426529	0.376530	0.630521
O13	O	1.186929	-0.123510	0.116562
O14	O	1.686929	0.376490	0.616562
Cu15	Cu	1.056727	-0.146014	0.123542
Cu16	Cu	1.556727	0.353986	0.623542
Cu17	Cu	1.056751	0.145715	0.123538
Cu18	Cu	1.556751	0.645715	0.623538
O19	O	1.049749	-0.123478	0.253742
O20	O	1.549749	0.376522	0.753742
C21	C	0.893214	-0.000124	0.129895
C22	C	1.393214	0.499876	0.629895
C23	C	0.793917	-0.000109	0.128024
C24	C	1.293917	0.499891	0.628024
N25	N	1.056717	-0.351200	0.123544
N26	N	1.556717	0.148800	0.623544
C27	C	0.736691	-0.000104	0.208614
C28	C	1.236691	0.499896	0.708614
C29	C	0.643392	-0.000126	0.206850
C30	C	1.143392	0.499874	0.706850
C31	C	0.607320	-0.000143	0.124497
C32	C	1.107320	0.499857	0.624497
C33	C	0.664552	-0.000153	0.043902
C34	C	1.164552	0.499847	0.543902
C35	C	0.757850	-0.000141	0.045666
C36	C	1.257850	0.499859	0.545666
C37	C	0.470090	-0.000173	0.040231
C38	C	0.970090	0.499827	0.540231
C39	C	0.376786	-0.000182	0.038466
C40	C	0.876786	0.499818	0.538466
C41	C	0.355632	-0.000159	0.201415
C42	C	0.855632	0.499841	0.701415
C43	C	0.448930	-0.000147	0.203179
C44	C	0.948930	0.499853	0.703179
C45	C	0.506156	-0.000154	0.122584
C46	C	1.006156	0.499846	0.622584
C47	C	0.983113	-0.586216	0.196683
C48	C	1.483113	-0.086216	0.696683
C49	C	0.983273	-0.414325	0.196954
C50	C	1.483273	0.085675	0.696954
C51	C	1.150070	-0.413551	0.144030
C52	C	1.650070	0.086449	0.644030
C53	C	1.149667	-0.585496	0.144547
C54	C	1.649667	-0.085496	0.644547
C55	C	1.037898	-0.585748	0.029674
C56	C	1.537898	-0.085748	0.529674
C57	C	1.035747	-0.413794	0.030300
C58	C	1.535747	0.086206	0.530300
C59	C	1.220263	-0.000172	0.117185
C60	C	1.720263	0.499828	0.617185
C61	C	1.319561	-0.000177	0.119056
C62	C	1.819561	0.499823	0.619056
C63	C	1.063094	-0.000161	-0.039985
C64	C	1.563094	0.499839	0.460015
C65	C	1.061223	-0.000159	-0.139282
C66	C	1.561223	0.499841	0.360718
N67	N	1.056768	0.350901	0.123529
N68	N	1.556768	0.850901	0.623529
C69	C	1.141812	-0.000173	-0.196507
C70	C	1.641812	0.499827	0.303493
C71	C	1.140049	-0.000158	-0.289807
C72	C	1.640049	0.499842	0.210193
C73	C	1.057696	-0.000139	-0.325879
C74	C	1.557696	0.499861	0.174121
C75	C	0.977101	-0.000121	-0.268646
C76	C	1.477101	0.499879	0.231354
C77	C	0.978865	-0.000126	-0.175349
C78	C	1.478865	0.499874	0.324651
C79	C	0.973430	-0.000115	-0.463109
C80	C	1.473430	0.499885	0.036891
C81	C	0.971665	-0.000114	-0.556413
C82	C	1.471665	0.499886	-0.056413
C83	C	1.134614	-0.000147	-0.577567
C84	C	1.634614	0.499853	-0.077567
C85	C	1.136378	-0.000152	-0.484269
C86	C	1.636378	0.499848	0.015731
C87	C	1.055782	-0.000136	-0.427043
C88	C	1.555782	0.499864	0.072957
C89	C	1.050384	-0.000135	0.287065
C90	C	1.550384	0.499865	0.787065
C91	C	1.052254	-0.000127	0.386362
C92	C	1.552254	0.499873	0.886362
H93	H	0.766054	-0.000089	0.275675
H94	H	1.266054	0.499911	0.775675
H95	H	1.167072	-0.370470	0.211703
H96	H	1.667072	0.129530	0.711703
H97	H	0.309033	-0.000160	0.267039
H98	H	0.809033	0.499840	0.767039
H99	H	1.166279	-0.625582	0.212998
H100	H	1.666279	-0.125582	0.712998
Cl101	Cl	0.494276	-0.000110	0.306711
Cl102	Cl	0.994276	0.499890	0.806711
H103	H	0.596802	-0.000120	0.272474
H104	H	1.096802	0.499880	0.772474
H105	H	0.967075	-0.373043	0.014756
H106	H	1.467075	0.126957	0.514756
Cl107	Cl	1.245348	-0.000211	-0.151169
Cl108	Cl	1.745348	0.499789	0.348831
H109	H	0.347419	-0.000198	-0.028593
H110	H	0.847419	0.499802	0.471407
H111	H	0.995328	-0.373174	0.266602
H112	H	1.495328	0.126826	0.766602
Cl113	Cl	0.619204	-0.000183	-0.059629
Cl114	Cl	1.119204	0.499817	0.440371
Cl115	Cl	1.235935	-0.000158	-0.649508
Cl116	Cl	1.735935	0.499842	-0.149508
H117	H	1.205673	-0.000172	-0.336396
H118	H	1.705673	0.499828	0.163604
Cl119	Cl	0.873570	-0.000080	-0.313995
Cl120	Cl	1.373570	0.499920	0.186005
Cl121	Cl	0.935062	-0.652762	-0.000686
Cl122	Cl	1.435062	-0.152762	0.499314
Cl123	Cl	0.877548	-0.000103	-0.103407
Cl124	Cl	1.377548	0.499897	0.396593
H125	H	0.516682	-0.000181	-0.025399
H126	H	1.016682	0.499819	0.474601
Cl127	Cl	0.872107	-0.000095	-0.391168
Cl128	Cl	1.372107	0.499905	0.108832
Cl129	Cl	1.120821	-0.648532	-0.054379
Cl130	Cl	1.620821	-0.148532	0.445621
Cl131	Cl	0.876127	-0.349236	0.178145
Cl132	Cl	1.376127	0.150764	0.678145
H133	H	0.913506	-0.627599	0.184661
H134	H	1.413506	-0.127599	0.684661
H135	H	1.206186	-0.372659	0.092171
H136	H	1.706186	0.127341	0.592171
Cl137	Cl	1.001486	-0.652862	0.303612
Cl138	Cl	1.501486	-0.152862	0.803612
H139	H	1.206192	-0.627091	0.093371
H140	H	1.706192	-0.127091	0.593371
H141	H	1.085896	-0.370830	-0.026695
H142	H	1.585896	0.129170	0.473305
H143	H	1.203437	-0.000177	-0.454903
H144	H	1.703437	0.499823	0.045097
Cl145	Cl	0.868134	-0.000092	-0.601760
Cl146	Cl	1.368134	0.499908	-0.101760
H147	H	0.804443	-0.000144	-0.019958
H148	H	1.304443	0.499856	0.480042
