data_functionalizedCrystal
_audit_creation_method	'MofGen! by Chris Wilmer'
_symmetry_space_group_name_H-M	'P1'
_symmetry_Int_Tables_number	1
_symmetry_cell_setting	triclinic
loop_
_symmetry_equiv_pos_as_xyz
  x,y,z
_cell_length_a	12.645331
_cell_length_b	12.645330
_cell_length_c	16.120297
_cell_angle_alpha	87.125115
_cell_angle_beta	87.122086
_cell_angle_gamma	90.012860
loop_
_atom_site_label
_atom_site_type_symbol
_atom_site_fract_x
_atom_site_fract_y
_atom_site_fract_z
Zn1	Zn	1.590350	-0.452455	0.471406
Zn2	Zn	2.090350	0.047545	0.971406
Zn3	Zn	1.599243	-0.620744	0.332001
Zn4	Zn	2.099243	-0.120744	0.832001
Zn5	Zn	1.422060	-0.443496	0.332009
Zn6	Zn	1.922060	0.056504	0.832009
Zn7	Zn	1.413065	-0.629675	0.471366
Zn8	Zn	1.913065	-0.129675	0.971366
O9	O	1.506179	-0.536593	0.401695
O10	O	2.006179	-0.036593	0.901695
O11	O	1.739876	-0.474791	0.452927
O12	O	2.239876	0.025209	0.952927
O13	O	1.583225	-0.589745	0.215339
O14	O	2.083225	-0.089745	0.715339
O15	O	1.444427	-0.296339	0.350521
O16	O	1.944427	0.203661	0.850521
O17	O	1.746410	-0.598432	0.350507
O18	O	2.246410	-0.098432	0.850507
O19	O	1.568069	-0.302921	0.452935
O20	O	2.068069	0.197079	0.952935
O21	O	1.453049	-0.459522	0.215345
O22	O	1.953049	0.040478	0.715345
O23	O	1.272520	-0.468182	0.350481
O24	O	1.772520	0.031818	0.850481
O25	O	1.429096	-0.613653	0.588034
O26	O	1.929096	-0.113653	1.088034
O27	O	1.265912	-0.604966	0.452866
O28	O	1.765912	-0.104966	0.952866
O29	O	1.559347	-0.483450	0.588064
O30	O	2.059347	0.016550	1.088064
O31	O	1.574503	-0.770275	0.350467
O32	O	2.074503	-0.270275	0.850467
O33	O	1.437719	-0.776836	0.452858
O34	O	1.937719	-0.276836	0.952858
C35	C	1.230751	-0.536572	0.401671
C36	C	1.730751	-0.036572	0.901671
C37	C	1.112921	-0.536590	0.401680
C38	C	1.612921	-0.036590	0.901680
C39	C	1.072154	-0.450418	0.337375
C40	C	1.572154	0.049582	0.837375
C41	C	0.949580	-0.450129	0.337595
C42	C	1.449580	0.049871	0.837595
C43	C	0.939410	-0.512478	0.489687
C44	C	1.439410	-0.012478	0.989687
C45	C	1.062034	-0.511839	0.489285
C46	C	1.562034	-0.011839	0.989285
C47	C	1.069191	-0.647171	0.378809
C48	C	1.569191	-0.147171	0.878809
C49	C	0.946707	-0.646463	0.376901
C50	C	1.446707	-0.146463	0.876901
C51	C	1.506128	-0.812021	0.401676
C52	C	2.006128	-0.312021	0.901676
C53	C	1.506201	-0.929852	0.401695
C54	C	2.006201	-0.429852	0.901695
C55	C	1.592129	-1.093236	0.337150
C56	C	2.092129	-0.593236	0.837150
C57	C	1.592385	-0.970686	0.337308
C58	C	2.092385	-0.470686	0.837308
C59	C	1.530830	-0.979907	0.489573
C60	C	2.030830	-0.479907	0.989573
C61	C	1.531501	-1.102483	0.489231
C62	C	2.031501	-0.602483	0.989231
C63	C	1.395555	-1.095730	0.379228
C64	C	1.895555	-0.595730	0.879228
C65	C	1.396220	-0.972998	0.377257
C66	C	1.896220	-0.472998	0.877257
C67	C	1.782683	-0.536614	0.401721
C68	C	2.282683	-0.036614	0.901721
C69	C	1.900512	-0.536624	0.401731
C70	C	2.400512	-0.036624	0.901731
C71	C	1.492226	-0.550547	0.619144
C72	C	1.992226	-0.050547	1.119144
C73	C	1.486280	-0.556494	0.711808
C74	C	1.986280	-0.056494	1.211808
C75	C	1.506259	-0.260090	0.401733
C76	C	2.006259	0.239910	0.901733
C77	C	1.506293	-0.142261	0.401750
C78	C	2.006293	0.357739	0.901750
C79	C	1.520139	-0.522616	0.185092
C80	C	2.020139	-0.022616	0.685092
C81	C	1.526291	-0.516370	0.092429
C82	C	2.026291	-0.016370	0.592429
C83	C	1.475386	-0.567328	0.881466
C84	C	1.975386	-0.067328	1.381466
C85	C	1.537182	-0.505540	0.922777
C86	C	2.037182	-0.005540	1.422777
C87	C	1.531120	-0.511568	1.017180
C88	C	2.031120	-0.011568	1.517180
C89	C	1.481446	-0.561301	0.787054
C90	C	1.981446	-0.061301	1.287054
H91	H	1.095214	-0.711298	0.425646
H92	H	1.595214	-0.211298	0.925646
H93	H	1.102006	-0.368822	0.352364
H94	H	1.602006	0.131178	0.852364
H95	H	1.089397	-0.431190	0.508618
H96	H	1.589397	0.068810	1.008618
F97	F	1.371805	-0.929637	0.292729
F98	F	1.871805	-0.429637	0.792729
H99	H	1.331670	-1.127775	0.426278
H100	H	1.831670	-0.627775	0.926278
H101	H	0.919283	-0.368084	0.352784
H102	H	1.419283	0.131916	0.852784
F103	F	1.400291	-0.642384	0.927905
F104	F	1.900291	-0.142384	1.427905
F105	F	1.364849	-1.130949	0.296929
F106	F	1.864849	-0.630949	0.796929
F107	F	1.452924	-1.145463	0.554280
F108	F	1.952924	-0.645463	1.054280
F109	F	1.116139	-0.468909	0.251857
F110	F	1.616139	0.031091	0.751857
F111	F	0.915679	-0.468937	0.252363
F112	F	1.415679	0.031063	0.752363
H113	H	1.594639	-0.448114	0.887245
H114	H	2.094639	0.051886	1.387245
H115	H	1.088555	-0.572207	0.538857
H116	H	1.588555	-0.072207	1.038857
H117	H	0.907138	-0.573580	0.538931
H118	H	1.407138	-0.073580	1.038931
F119	F	0.897641	-0.408282	0.515411
F120	F	1.397641	0.091718	1.015411
H121	H	1.577625	-1.118570	0.271799
H122	H	2.077625	-0.618570	0.771799
F123	F	1.114853	-0.677441	0.296369
F124	F	1.614853	-0.177441	0.796369
H125	H	0.921747	-0.664780	0.312169
H126	H	1.421747	-0.164780	0.812169
H127	H	1.673828	-1.124917	0.351880
H128	H	2.173828	-0.624917	0.851880
H129	H	0.913315	-0.713617	0.420296
H130	H	1.413315	-0.213617	0.920296
H131	H	1.612277	-1.132227	0.508308
H132	H	2.112277	-0.632227	1.008308
F133	F	1.573045	-0.925969	0.252149
F134	F	2.073045	-0.425969	0.752149
H135	H	1.674520	-0.942239	0.352205
H136	H	2.174520	-0.442239	0.852205
F137	F	1.635173	-0.941304	0.514926
F138	F	2.135173	-0.441304	1.014926
F139	F	1.451276	-0.945994	0.554171
F140	F	1.951276	-0.445994	1.054171
H141	H	1.329275	-0.945199	0.420858
H142	H	1.829275	-0.445199	0.920858
