data_functionalizedCrystal
_audit_creation_method	'MofGen! by Chris Wilmer'
_symmetry_space_group_name_H-M	'P1'
_symmetry_Int_Tables_number	1
_symmetry_cell_setting	triclinic
loop_
_symmetry_equiv_pos_as_xyz
  x,y,z
_cell_length_a	19.077105
_cell_length_b	12.759399
_cell_length_c	19.076919
_cell_angle_alpha	87.725577
_cell_angle_beta	89.923776
_cell_angle_gamma	87.711582
loop_
_atom_site_label
_atom_site_type_symbol
_atom_site_fract_x
_atom_site_fract_y
_atom_site_fract_z
Zn1	Zn	1.058325	-0.508276	0.440434
Zn2	Zn	1.062983	-0.677203	0.322932
Zn3	Zn	0.945542	-0.494201	0.318226
Zn4	Zn	0.940805	-0.676569	0.435685
O5	O	1.001914	-0.589062	0.379319
O6	O	1.157276	-0.536839	0.428803
O7	O	1.051336	-0.647302	0.223976
O8	O	0.960535	-0.349050	0.334456
O9	O	1.160698	-0.660949	0.342476
O10	O	1.043397	-0.359391	0.424241
O11	O	0.965052	-0.512852	0.220519
O12	O	0.846581	-0.512237	0.329851
O13	O	0.952463	-0.659869	0.534646
O14	O	0.843101	-0.646222	0.416147
O15	O	1.038804	-0.536225	0.538135
O16	O	1.046743	-0.824136	0.337871
O17	O	0.956979	-0.823671	0.420709
C18	C	0.819344	-0.577635	0.371973
C19	C	0.741240	-0.572772	0.368847
C20	C	1.001871	-0.862026	0.379301
C21	C	1.001917	-0.978806	0.379320
C22	C	0.702755	-0.640344	0.412238
C23	C	0.629367	-0.635761	0.409304
C24	C	0.594465	-0.563611	0.362976
C25	C	0.632955	-0.496033	0.319583
C26	C	0.706341	-0.500611	0.322521
C27	C	0.375176	-0.542424	0.349382
C28	C	0.301784	-0.537853	0.346446
C29	C	0.298202	-0.677580	0.436168
C30	C	0.371590	-0.682156	0.439099
C31	C	0.410073	-0.614574	0.395709
N32	N	0.519451	-0.558928	0.359974
N33	N	0.485085	-0.619253	0.398715
C34	C	1.048706	-1.033882	0.336239
C35	C	1.048750	-1.143610	0.336264
C36	C	0.955209	-1.143177	0.422453
C37	C	0.955169	-1.033451	0.422431
C38	C	1.132698	-1.297227	0.314590
C39	C	1.179482	-1.352305	0.271497
C40	C	1.193053	-1.313482	0.203371
C41	C	1.159831	-1.219581	0.178322
C42	C	1.113042	-1.164508	0.221411
C43	C	1.099484	-1.203331	0.289547
C44	C	0.871220	-0.879832	0.444098
C45	C	0.824428	-0.824756	0.487184
C46	C	0.810849	-0.863577	0.555311
C47	C	0.844059	-0.957481	0.580357
C48	C	0.890852	-1.012557	0.537271
C49	C	0.904431	-0.973728	0.469145
C50	C	1.185196	-0.600535	0.386694
C51	C	1.263300	-0.605424	0.389837
C52	C	0.994585	-0.599547	0.562600
C53	C	0.991463	-0.604014	0.640703
C54	C	1.001975	-0.315035	0.379353
C55	C	1.002001	-0.198260	0.379367
C56	C	1.009254	-0.578545	0.196753
C57	C	1.012513	-0.573790	0.118656
C58	C	1.034947	-0.541741	0.679214
C59	C	1.032004	-0.545935	0.752599
C60	C	0.985580	-0.612408	0.787473
C61	C	0.942091	-0.674683	0.748957
C62	C	0.945031	-0.670483	0.675573
C63	C	0.971964	-0.631866	1.006755
C64	C	0.969029	-0.636063	1.080145
C65	C	1.058941	-0.507313	1.083782
C66	C	1.061880	-0.503124	1.010396
C67	C	1.018388	-0.565395	0.971886
N68	N	0.982572	-0.616698	0.862486
N69	N	1.021393	-0.561098	0.896875
H70	H	0.731167	-0.699099	0.449961
H71	H	0.904289	-0.728803	0.777358
H72	H	1.086771	-0.989393	0.301136
Cl73	Cl	0.896443	-1.211881	0.476645
Cl74	Cl	0.257909	-0.447151	0.288195
Cl75	Cl	1.120244	-0.419555	0.966560
Cl76	Cl	0.888292	-0.831018	0.358450
Cl77	Cl	1.071276	-1.046472	0.189926
Cl78	Cl	1.113609	-0.429030	1.132198
Cl79	Cl	1.176887	-1.170787	0.092669
Cl80	Cl	1.093315	-0.458176	0.635379
Cl81	Cl	1.251867	-1.382726	0.149200
Cl82	Cl	0.932603	-1.130608	0.568759
H83	H	0.833003	-0.989090	0.635832
Cl84	Cl	0.917289	-0.710151	0.958353
Cl85	Cl	0.890361	-0.748770	0.627159
H86	H	1.206531	-1.428760	0.291899
H87	H	1.067415	-0.495228	0.783952
H88	H	0.772745	-0.818725	0.590389
H89	H	0.931223	-0.690195	1.108537
Cl90	Cl	1.115650	-1.346032	0.400243
Cl91	Cl	0.754722	-0.415658	0.267973
Cl92	Cl	0.580990	-0.720713	0.463855
H93	H	0.406500	-0.487401	0.314046
H94	H	0.400002	-0.740910	0.476823
H95	H	0.266861	-0.732600	0.471495
H96	H	0.797391	-0.748290	0.466787
H97	H	0.604532	-0.437283	0.281865
