data_functionalizedCrystal
_audit_creation_method	'MofGen! by Chris Wilmer'
_symmetry_space_group_name_H-M	'P1'
_symmetry_Int_Tables_number	1
_symmetry_cell_setting	triclinic
loop_
_symmetry_equiv_pos_as_xyz
  x,y,z
_cell_length_a	19.077105
_cell_length_b	12.645330
_cell_length_c	19.076929
_cell_angle_alpha	92.273390
_cell_angle_beta	90.078300
_cell_angle_gamma	87.714233
loop_
_atom_site_label
_atom_site_type_symbol
_atom_site_fract_x
_atom_site_fract_y
_atom_site_fract_z
Zn1	Zn	1.058293	-0.512826	-0.440443
Zn2	Zn	1.558293	-0.012826	0.059557
Zn3	Zn	1.062950	-0.683286	-0.322946
Zn4	Zn	1.562950	-0.183286	0.177054
Zn5	Zn	0.945514	-0.498634	-0.318236
Zn6	Zn	1.445514	0.001366	0.181764
Zn7	Zn	0.940767	-0.682638	-0.435698
Zn8	Zn	1.440767	-0.182638	0.064302
O9	O	1.001881	-0.594346	-0.379331
O10	O	1.501881	-0.094346	0.120669
O11	O	1.157243	-0.541649	-0.428814
O12	O	1.657243	-0.041649	0.071186
O13	O	1.051308	-0.653123	-0.223990
O14	O	1.551308	-0.153123	0.276010
O15	O	0.960512	-0.352173	-0.334462
O16	O	1.460512	0.147827	0.165538
O17	O	1.160664	-0.666885	-0.342489
O18	O	1.660664	-0.166885	0.157511
O19	O	1.043370	-0.362599	-0.424247
O20	O	1.543370	0.137401	0.075753
O21	O	0.965028	-0.517461	-0.220530
O22	O	1.465028	-0.017461	0.279470
O23	O	0.846552	-0.516832	-0.329861
O24	O	1.346552	-0.016832	0.170139
O25	O	0.952422	-0.665780	-0.534659
O26	O	1.452422	-0.165780	-0.034659
O27	O	0.843065	-0.652019	-0.416159
O28	O	1.343065	-0.152019	0.083841
O29	O	1.038767	-0.541020	-0.538145
O30	O	1.538767	-0.041020	-0.038145
O31	O	1.046705	-0.831544	-0.337887
O32	O	1.546705	-0.331544	0.162113
O33	O	0.956938	-0.831068	-0.420726
O34	O	1.456938	-0.331068	0.079274
C35	C	0.819312	-0.582816	-0.371985
C36	C	1.319312	-0.082816	0.128015
C37	C	0.741208	-0.577910	-0.368859
C38	C	1.241208	-0.077910	0.131141
C39	C	0.702720	-0.646088	-0.412250
C40	C	1.202720	-0.146088	0.087750
C41	C	0.629332	-0.641464	-0.409317
C42	C	1.129332	-0.141464	0.090683
C43	C	0.594434	-0.568667	-0.362987
C44	C	1.094434	-0.068667	0.137013
C45	C	0.632927	-0.500482	-0.319593
C46	C	1.132927	-0.000482	0.180407
C47	C	0.706313	-0.505101	-0.322531
C48	C	1.206313	-0.005101	0.177469
C49	C	0.375146	-0.547289	-0.349393
C50	C	0.875146	-0.047289	0.150607
C51	C	0.301755	-0.542677	-0.346457
C52	C	0.801755	-0.042677	0.153543
C53	C	0.298164	-0.683658	-0.436182
C54	C	0.798164	-0.183658	0.063818
C55	C	0.371552	-0.688275	-0.439112
C56	C	0.871552	-0.188275	0.060888
C57	C	0.410039	-0.620087	-0.395721
C58	C	0.910039	-0.120087	0.104279
N59	N	0.519420	-0.563942	-0.359985
N60	N	1.019420	-0.063942	0.140015
N61	N	0.485051	-0.624808	-0.398727
N62	N	0.985051	-0.124808	0.101273
C63	C	1.001830	-0.869772	-0.379319
C64	C	1.501830	-0.369772	0.120681
C65	C	1.001872	-0.987606	-0.379340
C66	C	1.501872	-0.487606	0.120660
C67	C	0.945616	-1.154938	-0.431630
C68	C	1.445616	-0.654938	0.068370
C69	C	0.945347	-1.032351	-0.431444
C70	C	1.445347	-0.532351	0.068556
C71	C	0.984808	-1.026636	-0.304482
C72	C	1.484808	-0.526636	0.195518
C73	C	0.984465	-1.149232	-0.304799
C74	C	1.484465	-0.649232	0.195201
C75	C	1.075545	-1.160491	-0.401320
C76	C	1.575545	-0.660491	0.098680
C77	C	1.075024	-1.037949	-0.402921
C78	C	1.575024	-0.537949	0.097079
C79	C	1.185163	-0.605922	-0.386706
C80	C	1.685163	-0.105922	0.113294
C81	C	1.263266	-0.610855	-0.389849
C82	C	1.763266	-0.110855	0.110151
C83	C	0.994545	-0.604911	-0.562611
C84	C	1.494545	-0.104911	-0.062611
C85	C	0.991419	-0.609413	-0.640714
C86	C	1.491419	-0.109413	-0.140714
C87	C	1.001951	-0.317847	-0.379359
C88	C	1.501951	0.182153	0.120641
C89	C	1.001980	-0.200019	-0.379371
C90	C	1.501980	0.299981	0.120629
C91	C	0.969003	-0.641788	-1.080157
C92	C	1.469003	-0.141788	-0.580157
C93	C	0.971938	-0.637542	-1.006771
C94	C	1.471938	-0.137542	-0.506771
C95	C	1.018364	-0.570469	-0.971897
C96	C	1.518364	-0.070469	-0.471897
C97	C	1.061853	-0.507631	-1.010412
C98	C	1.561853	-0.007631	-0.510412
C99	C	1.058915	-0.511872	-1.083797
C100	C	1.558915	-0.011872	-0.583797
C101	C	1.031970	-0.550815	-0.752615
C102	C	1.531970	-0.050815	-0.252615
C103	C	1.034907	-0.546581	-0.679225
C104	C	1.534907	-0.046581	-0.179225
C105	C	0.944990	-0.676492	-0.675588
C106	C	1.444990	-0.176492	-0.175588
C107	C	0.942059	-0.680731	-0.748975
C108	C	1.442059	-0.180731	-0.248975
C109	C	0.985545	-0.617889	-0.787484
C110	C	1.485545	-0.117889	-0.287484
N111	N	1.021366	-0.566130	-0.896884
N112	N	1.521366	-0.066130	-0.396884
N113	N	0.982539	-0.622223	-0.862495
N114	N	1.482539	-0.122223	-0.362495
C115	C	1.009229	-0.583748	-0.196765
C116	C	1.509229	-0.083748	0.303235
C117	C	1.012491	-0.578956	-0.118668
C118	C	1.512491	-0.078956	0.381332
H119	H	0.604508	-0.441205	-0.281874
H120	H	1.104508	0.058795	0.218126
N121	N	1.037634	-0.988004	-0.251317
N122	N	1.537634	-0.488004	0.248683
H123	H	1.073219	-0.944726	-0.275303
H124	H	1.573219	-0.444726	0.224697
H125	H	1.012695	-0.942718	-0.213543
H126	H	1.512695	-0.442718	0.286457
N127	N	0.416639	-0.473728	-0.302596
N128	N	0.916639	0.026272	0.197404
H129	H	0.405864	-0.486368	-0.251859
H130	H	0.905864	0.013632	0.248141
H131	H	0.468411	-0.487713	-0.311541
H132	H	0.968411	0.012287	0.188459
N133	N	1.096956	-1.206969	-0.472596
N134	N	1.596956	-0.706969	0.027404
H135	H	1.103627	-1.147914	-0.505787
H136	H	1.603627	-0.647914	-0.005787
H137	H	1.142390	-1.250017	-0.468299
H138	H	1.642390	-0.750017	0.031701
H139	H	1.023898	-1.178833	-0.264374
H140	H	1.523898	-0.678833	0.235626
H141	H	0.399961	-0.747556	-0.476837
H142	H	0.899961	-0.247556	0.023163
N143	N	0.914461	-0.980344	-0.279948
N144	N	1.414461	-0.480344	0.220052
H145	H	0.893547	-0.934090	-0.317207
H146	H	1.393547	-0.434090	0.182793
H147	H	0.882038	-1.039582	-0.271028
H148	H	1.382038	-0.539582	0.228972
H149	H	0.266821	-0.739172	-0.471509
H150	H	0.766821	-0.239172	0.028491
H151	H	1.087946	-1.012916	-0.458027
H152	H	1.587946	-0.512916	0.041973
N153	N	0.918933	-0.714138	-1.117770
N154	N	1.418933	-0.214138	-0.617770
H155	H	0.891829	-0.753295	-1.082235
H156	H	1.391829	-0.253295	-0.582235
H157	H	0.885207	-0.670691	-1.146916
H158	H	1.385207	-0.170691	-0.646916
N159	N	1.133268	-0.998069	-0.356496
N160	N	1.633268	-0.498069	0.143504
H161	H	1.112970	-0.946577	-0.319351
H162	H	1.612970	-0.446577	0.180649
H163	H	1.157660	-1.059813	-0.333287
H164	H	1.657660	-0.559813	0.166713
H165	H	0.890749	-0.998913	-0.416667
H166	H	1.390749	-0.498913	0.083333
N167	N	1.111933	-0.435304	-0.972795
N168	N	1.611933	0.064696	-0.472795
H169	H	1.100538	-0.359603	-0.985129
H170	H	1.600538	0.140397	-0.485129
H171	H	1.107172	-0.442255	-0.920475
H172	H	1.607172	0.057745	-0.420475
N173	N	0.898076	-0.744254	-0.634058
N174	N	1.398076	-0.244254	-0.134058
H175	H	0.908452	-0.821425	-0.647256
H176	H	1.408452	-0.321425	-0.147256
H177	H	0.906997	-0.731306	-0.582290
H178	H	1.406997	-0.231306	-0.082290
N179	N	0.925008	-0.705294	-0.965251
N180	N	1.425008	-0.205294	-0.465251
H181	H	0.935378	-0.782467	-0.978445
H182	H	1.435378	-0.282467	-0.478445
H183	H	0.933915	-0.692347	-0.913480
H184	H	1.433915	-0.192347	-0.413480
N185	N	0.747822	-0.431565	-0.275725
N186	N	1.247822	0.068435	0.224275
H187	H	0.779563	-0.474602	-0.244332
H188	H	1.279563	0.025398	0.255668
H189	H	0.777094	-0.386084	-0.305605
H190	H	1.277094	0.113916	0.194395
N191	N	1.084985	-0.474239	-0.641608
N192	N	1.584985	0.025761	-0.141608
H193	H	1.112087	-0.435070	-0.677138
H194	H	1.612087	0.064930	-0.177138
H195	H	1.057613	-0.421619	-0.610013
H196	H	1.557613	0.078381	-0.110013
H197	H	1.094324	-0.460704	-1.115152
H198	H	1.594324	0.039296	-0.615152
N199	N	0.891986	-0.753075	-0.786588
N200	N	1.391986	-0.253075	-0.286588
H201	H	0.864880	-0.792235	-0.751055
H202	H	1.364880	-0.292235	-0.251055
H203	H	0.858261	-0.709627	-0.815735
H204	H	1.358261	-0.209627	-0.315735
H205	H	0.731128	-0.705370	-0.449975
H206	H	1.231128	-0.205370	0.050025
N207	N	0.959025	-0.997668	-0.504843
N208	N	1.459025	-0.497668	-0.004843
H209	H	0.965284	-1.062059	-0.537612
H210	H	1.465284	-0.562059	-0.037612
H211	H	0.917947	-0.951944	-0.520941
H212	H	1.417947	-0.451944	-0.020941
N213	N	1.131123	-1.199214	-0.350957
N214	N	1.631123	-0.699214	0.149043
H215	H	1.178270	-1.173576	-0.365318
H216	H	1.678270	-0.673576	0.134682
H217	H	1.119382	-1.170812	-0.301970
H218	H	1.619382	-0.670812	0.198030
H219	H	0.955824	-1.188333	-0.487219
H220	H	1.455824	-0.688333	0.012781
H221	H	0.597998	-0.696982	-0.444650
H222	H	1.097998	-0.196982	0.055350
N223	N	0.873740	-1.190334	-0.412293
N224	N	1.373740	-0.690334	0.087707
H225	H	0.877530	-1.235445	-0.369828
H226	H	1.377530	-0.735445	0.130172
H227	H	0.841863	-1.126171	-0.401236
H228	H	1.341863	-0.626171	0.098764
N229	N	1.078860	-0.483020	-0.794144
N230	N	1.578860	0.016980	-0.294144
H231	H	1.108713	-0.439886	-0.760913
H232	H	1.608713	0.060114	-0.260913
H233	H	1.110152	-0.529965	-0.825902
H234	H	1.610152	-0.029965	-0.325902
N235	N	0.913351	-1.181467	-0.280627
N236	N	1.413351	-0.681467	0.219373
H237	H	0.876016	-1.153641	-0.313477
H238	H	1.376016	-0.653641	0.186523
H239	H	0.912479	-1.261269	-0.280585
H240	H	1.412479	-0.761269	0.219415
H241	H	0.273343	-0.483385	-0.308734
H242	H	0.773343	0.016615	0.191266
