data_functionalizedCrystal
_audit_creation_method	'MofGen! by Chris Wilmer'
_symmetry_space_group_name_H-M	'P1'
_symmetry_Int_Tables_number	1
_symmetry_cell_setting	triclinic
loop_
_symmetry_equiv_pos_as_xyz
  x,y,z
_cell_length_a	14.519709
_cell_length_b	9.016244
_cell_length_c	14.519731
_cell_angle_alpha	90.003217
_cell_angle_beta	96.315501
_cell_angle_gamma	89.998797
loop_
_atom_site_label
_atom_site_type_symbol
_atom_site_fract_x
_atom_site_fract_y
_atom_site_fract_z
O1	O	-1.223881	0.123132	0.120886
O2	O	-0.723881	0.623132	0.620886
O3	O	-0.955405	0.123182	0.135123
O4	O	-0.455405	0.623182	0.635123
O5	O	-1.096751	0.123143	-0.006233
O6	O	-0.596751	0.623143	0.493767
O7	O	-1.082535	0.123172	0.262242
O8	O	-0.582535	0.623172	0.762242
O9	O	-1.096730	-0.123538	-0.006229
O10	O	-0.596730	0.376462	0.493771
O11	O	-0.955384	-0.123499	0.135126
O12	O	-0.455384	0.376501	0.635126
O13	O	-1.223860	-0.123548	0.120889
O14	O	-0.723860	0.376452	0.620889
Cu15	Cu	-1.089620	-0.146047	0.128008
Cu16	Cu	-0.589620	0.353953	0.628008
Cu17	Cu	-1.089645	0.145681	0.128004
Cu18	Cu	-0.589645	0.645681	0.628004
O19	O	-1.082514	-0.123509	0.262245
O20	O	-0.582514	0.376491	0.762245
C21	C	-0.921035	-0.000152	0.134461
C22	C	-0.421035	0.499848	0.634461
C23	C	-0.818654	-0.000133	0.132473
C24	C	-0.318654	0.499867	0.632473
C25	C	-0.443757	-0.000196	0.125153
C26	C	0.056243	0.499804	0.625153
C27	C	-0.548065	-0.000178	0.127186
C28	C	-0.048065	0.499822	0.627186
C29	C	-0.631202	-0.000163	0.128813
C30	C	-0.131202	0.499837	0.628813
C31	C	-0.735517	-0.000148	0.130846
C32	C	-0.235517	0.499852	0.630846
N33	N	-1.089610	-0.351233	0.128010
N34	N	-0.589610	0.148767	0.628010
C35	C	-1.013771	-0.586245	0.203376
C36	C	-0.513771	-0.086245	0.703376
C37	C	-1.013935	-0.414354	0.203655
C38	C	-0.513935	0.085646	0.703655
C39	C	-1.185875	-0.413587	0.149187
C40	C	-0.685875	0.086413	0.649187
C41	C	-1.185460	-0.585532	0.149720
C42	C	-0.685460	-0.085532	0.649720
C43	C	-1.070143	-0.585783	0.031215
C44	C	-0.570143	-0.085783	0.531215
C45	C	-1.067926	-0.413829	0.031860
C46	C	-0.567926	0.086171	0.531860
C47	C	-0.258230	-0.000207	0.121551
C48	C	0.241770	0.499793	0.621551
C49	C	-0.360612	-0.000205	0.123539
C50	C	0.139388	0.499795	0.623539
C51	C	-1.096075	-0.000198	-0.040591
C52	C	-0.596075	0.499802	0.459409
C53	C	-1.094079	-0.000199	-0.142971
C54	C	-0.594079	0.499801	0.357029
N55	N	-1.089663	0.350867	0.127995
N56	N	-0.589663	0.850867	0.627995
C57	C	-1.092457	-0.000195	-0.226115
C58	C	-0.592457	0.499805	0.273885
C59	C	-1.090430	-0.000183	-0.330424
C60	C	-0.590430	0.499817	0.169576
C61	C	-1.088822	-0.000173	-0.413563
C62	C	-0.588822	0.499827	0.086437
C63	C	-1.086795	-0.000164	-0.517878
C64	C	-0.586795	0.499836	-0.017878
C65	C	-1.083191	-0.000165	0.296603
C66	C	-0.583191	0.499835	0.796603
C67	C	-1.085187	-0.000155	0.398983
C68	C	-0.585187	0.499845	0.898983
H69	H	-0.942385	-0.372198	0.191013
H70	H	-0.442385	0.127802	0.691013
H71	H	-1.026412	-0.373202	0.275472
H72	H	-0.526412	0.126798	0.775472
H73	H	-1.243699	-0.372699	0.095752
H74	H	-0.743699	0.127301	0.595752
Br75	Br	-1.214087	-0.652352	0.267367
Br76	Br	-0.714087	-0.152352	0.767367
H77	H	-1.243706	-0.627130	0.096990
H78	H	-0.743706	-0.127130	0.596990
Br79	Br	-0.894129	-0.655172	0.182633
Br80	Br	-0.394129	-0.155172	0.682633
Br81	Br	-1.215176	-0.341785	0.265497
Br82	Br	-0.715176	0.158215	0.765497
Br83	Br	-0.955660	-0.658128	-0.002645
Br84	Br	-0.455660	-0.158128	0.497355
H85	H	-0.997112	-0.373076	0.015792
H86	H	-0.497112	0.126924	0.515792
H87	H	-1.026081	-0.629433	0.274787
H88	H	-0.526081	-0.129433	0.774787
H89	H	-1.119594	-0.370868	-0.026874
H90	H	-0.619594	0.129132	0.473126
H91	H	-1.125486	-0.626451	-0.024883
H92	H	-0.625486	-0.126451	0.475117
