data_functionalizedCrystal
_audit_creation_method	'MofGen! by Chris Wilmer'
_symmetry_space_group_name_H-M	'P1'
_symmetry_Int_Tables_number	1
_symmetry_cell_setting	triclinic
loop_
_symmetry_equiv_pos_as_xyz
  x,y,z
_cell_length_a	10.654550
_cell_length_b	9.730223
_cell_length_c	10.654551
_cell_angle_alpha	89.998531
_cell_angle_beta	84.485132
_cell_angle_gamma	90.003749
loop_
_atom_site_label
_atom_site_type_symbol
_atom_site_fract_x
_atom_site_fract_y
_atom_site_fract_z
O1	O	1.667835	0.114394	0.176393
O2	O	1.302356	0.114371	0.193199
O3	O	1.493498	0.114383	0.002057
O4	O	1.476693	0.114381	0.367535
O5	O	1.493496	-0.114197	0.002062
O6	O	1.302354	-0.114209	0.193204
O7	O	1.667832	-0.114186	0.176398
Zn8	Zn	1.485093	-0.150490	0.184802
Zn9	Zn	1.485096	0.150674	0.184795
O10	O	1.476691	-0.114199	0.367540
C11	C	1.255557	0.000078	0.191968
C12	C	1.116114	0.000069	0.188276
C13	C	1.036629	0.000089	0.300817
C14	C	0.905608	0.000113	0.297341
C15	C	0.933570	0.000104	0.068771
C16	C	1.064589	0.000070	0.072249
C17	C	1.020484	0.000100	0.432780
C18	C	0.889463	0.000124	0.429304
N19	N	1.485100	-0.356026	0.184805
C20	C	1.569760	-0.427947	0.100197
C21	C	1.569756	-0.571830	0.100181
C22	C	1.400430	-0.571859	0.269395
C23	C	1.400428	-0.427979	0.269403
C24	C	1.654431	-0.355994	0.015599
C25	C	1.739099	-0.427915	-0.069016
C26	C	1.739095	-0.571798	-0.069031
C27	C	1.654425	-0.643760	0.015568
C28	C	1.714632	0.000109	0.177629
C29	C	1.854075	0.000127	0.181321
C30	C	1.492263	0.000096	-0.044739
C31	C	1.488570	0.000105	-0.184182
N32	N	1.485099	0.356211	0.184782
C33	C	1.486839	0.124702	-0.249696
C34	C	1.483359	0.124695	-0.380717
C35	C	1.483346	-0.124515	-0.380697
C36	C	1.486817	-0.124507	-0.249678
C37	C	1.486852	0.268582	-0.249709
C38	C	1.483372	0.268575	-0.380730
C39	C	1.477926	0.000091	0.414336
C40	C	1.481619	0.000091	0.553779
H41	H	0.843791	-0.098561	0.469186
H42	H	1.391776	0.313227	-0.410298
H43	H	1.331490	-0.369421	0.338298
H44	H	1.808026	-0.630354	-0.137936
Cl45	Cl	1.654445	-0.175113	0.015618
H46	H	1.570163	0.323824	-0.427022
H47	H	1.049814	-0.095566	0.484393
Cl48	Cl	1.164510	0.000014	-0.069238
H49	H	1.808028	-0.369316	-0.137901
H50	H	1.400063	0.323826	-0.203430
Cl51	Cl	1.488952	-0.281149	-0.167315
H52	H	0.891602	0.000125	-0.025694
Cl53	Cl	0.825023	0.147822	0.506061
Cl54	Cl	1.075545	0.152462	0.497649
H55	H	1.481917	-0.225970	-0.434040
H56	H	1.331496	-0.630460	0.338273
Cl57	Cl	1.628268	0.337520	-0.204052
H58	H	1.654421	-0.760919	0.015540
