data_functionalizedCrystal
_audit_creation_method	'MofGen! by Chris Wilmer'
_symmetry_space_group_name_H-M	'P1'
_symmetry_Int_Tables_number	1
_symmetry_cell_setting	triclinic
loop_
_symmetry_equiv_pos_as_xyz
  x,y,z
_cell_length_a	24.447405
_cell_length_b	24.446649
_cell_length_c	24.443239
_cell_angle_alpha	60.006064
_cell_angle_beta	60.011844
_cell_angle_gamma	59.992812
loop_
_atom_site_label
_atom_site_type_symbol
_atom_site_fract_x
_atom_site_fract_y
_atom_site_fract_z
O1	O	0.075907	-0.799232	0.668277
O2	O	0.575907	-0.299232	1.168277
O3	O	0.028634	-0.622262	0.538455
O4	O	0.528634	-0.122262	1.038455
O5	O	0.140702	-0.734230	0.538349
O6	O	0.640702	-0.234230	1.038349
O7	O	-0.036160	-0.687265	0.668384
O8	O	0.463840	-0.187265	1.168384
O9	O	0.177886	-0.697056	0.575424
O10	O	0.677886	-0.197056	1.075424
O11	O	0.065818	-0.585088	0.575530
O12	O	0.565818	-0.085088	1.075530
O13	O	0.113091	-0.762059	0.705353
O14	O	0.613091	-0.262059	1.205353
Cu15	Cu	0.092850	-0.670179	0.643827
Cu16	Cu	0.592850	-0.170179	1.143827
Cu17	Cu	0.048876	-0.714142	0.599981
Cu18	Cu	0.548876	-0.214142	1.099981
O19	O	0.001024	-0.650091	0.705459
O20	O	0.501024	-0.150091	1.205459
N21	N	0.123780	-0.639263	0.674669
N22	N	0.623780	-0.139263	1.174669
N23	N	0.017951	-0.745064	0.569139
N24	N	0.517951	-0.245064	1.069139
C25	C	0.170236	-0.489965	0.721065
C26	C	0.670236	0.010035	1.221065
C27	C	0.170249	-0.592837	0.721058
C28	C	0.670249	-0.092837	1.221058
C29	C	0.195989	-0.567121	0.746758
C30	C	0.695989	-0.067121	1.246758
C31	C	0.308182	-0.547773	0.687664
C32	C	0.808182	-0.047773	1.187664
C33	C	0.378316	-0.571143	0.664253
C34	C	0.878316	-0.071143	1.164253
C35	C	0.378353	-0.684626	0.707525
C36	C	0.878353	-0.184626	1.207525
C37	C	0.308220	-0.661254	0.730938
C38	C	0.808220	-0.161254	1.230938
C39	C	0.187125	-0.454882	0.652117
C40	C	0.687125	0.045118	1.152117
C41	C	0.163710	-0.384741	0.628763
C42	C	0.663710	0.115259	1.128763
C43	C	0.106523	-0.384772	0.743308
C44	C	0.606523	0.115228	1.243308
C45	C	0.129938	-0.454913	0.766662
C46	C	0.629938	0.045087	1.266662
C47	C	0.101291	-0.575906	0.738041
C48	C	0.601291	-0.075906	1.238041
C49	C	0.077897	-0.599283	0.714670
C50	C	0.577897	-0.099283	1.214670
C51	C	0.192412	-0.656523	0.657348
C52	C	0.692412	-0.156523	1.157348
C53	C	0.215809	-0.633146	0.680711
C54	C	0.715809	-0.133146	1.180711
C55	C	0.101393	-0.575928	0.859014
C56	C	0.601393	-0.075928	1.359014
C57	C	0.078071	-0.599328	0.929152
C58	C	0.578071	-0.099328	1.429152
C59	C	0.192636	-0.656582	0.929078
C60	C	0.692636	-0.156582	1.429078
C61	C	0.215955	-0.633184	0.858938
C62	C	0.715955	-0.133184	1.358938
C63	C	0.170332	-0.592855	0.823908
C64	C	0.670332	-0.092855	1.323908
C65	C	0.273137	-0.592827	0.721004
C66	C	0.773137	-0.092827	1.221004
C67	C	-0.131205	-0.791294	0.522327
C68	C	0.368795	-0.291294	1.022327
C69	C	-0.028388	-0.791420	0.522551
C70	C	0.471612	-0.291420	1.022551
C71	C	-0.054056	-0.817099	0.496741
C72	C	0.445944	-0.317099	0.996741
C73	C	-0.073479	-0.929255	0.555734
C74	C	0.426521	-0.429255	1.055734
C75	C	-0.050156	-0.999396	0.579142
C76	C	0.449844	-0.499396	1.079142
C77	C	0.063326	-0.999525	0.536064
C78	C	0.563326	-0.499525	1.036064
C79	C	0.040001	-0.929386	0.512654
C80	C	0.540001	-0.429386	1.012654
C81	C	-0.166365	-0.808188	0.591256
C82	C	0.333635	-0.308188	1.091256
C83	C	-0.236499	-0.784726	0.614512
C84	C	0.263501	-0.284726	1.114512
C85	C	-0.236309	-0.727482	0.499907
C86	C	0.263691	-0.227482	0.999907
C87	C	-0.166175	-0.750944	0.476651
C88	C	0.333825	-0.250944	0.976651
C89	C	-0.045285	-0.722468	0.505590
C90	C	0.454715	-0.222468	1.005590
C91	C	-0.021951	-0.699130	0.529061
C92	C	0.478049	-0.199130	1.029061
C93	C	0.035176	-0.813691	0.586439
C94	C	0.535176	-0.313691	1.086439
C95	C	0.011842	-0.837031	0.562976
C96	C	0.511842	-0.337031	1.062976
C97	C	-0.045097	-0.722476	0.384488
C98	C	0.454903	-0.222476	0.884488
C99	C	-0.021613	-0.699140	0.314350
C100	C	0.478387	-0.199140	0.814350
C101	C	0.035607	-0.813706	0.314419
C102	C	0.535607	-0.313706	0.814419
C103	C	0.012124	-0.837041	0.384558
C104	C	0.512124	-0.337041	0.884558
C105	C	-0.028229	-0.791425	0.419591
C106	C	0.471771	-0.291425	0.919591
C107	C	-0.028402	-0.894253	0.522492
C108	C	0.471598	-0.394253	1.022492
N109	N	0.412405	-0.639229	0.674505
N110	N	0.912405	-0.139229	1.174505
O111	O	0.626552	-0.645384	0.514503
O112	O	1.126552	-0.145384	1.014503
O113	O	0.626802	-0.775625	0.691288
O114	O	1.126802	-0.275625	1.191288
O115	O	0.626698	-0.775326	0.579168
O116	O	1.126698	-0.275326	1.079168
O117	O	0.626656	-0.645683	0.626623
O118	O	1.126656	-0.145683	1.126623
O119	O	0.515277	-0.738265	0.616407
O120	O	1.015277	-0.238265	1.116407
O121	O	0.515382	-0.738564	0.728527
O122	O	1.015382	-0.238564	1.228527
O123	O	0.515131	-0.608323	0.551742
O124	O	1.015131	-0.108323	1.051742
Cu125	Cu	0.505083	-0.670059	0.643535
Cu126	Cu	1.005083	-0.170059	1.143535
Cu127	Cu	0.636850	-0.713889	0.599495
Cu128	Cu	1.136850	-0.213889	1.099495
O129	O	0.515236	-0.608622	0.663862
O130	O	1.015236	-0.108622	1.163862
N131	N	0.729529	-0.744719	0.568518
N132	N	1.229529	-0.244719	1.068518
N133	N	0.123755	-0.350686	0.674680
N134	N	0.623755	0.149314	1.174680
O135	O	-0.036153	-0.136410	0.668391
O136	O	0.463847	0.363590	1.168391
O137	O	0.140633	-0.136380	0.538141
O138	O	0.640633	0.363620	1.038141
O139	O	0.028472	-0.136412	0.538488
O140	O	0.528472	0.363588	1.038488
O141	O	0.076007	-0.136377	0.668044
O142	O	0.576007	0.363623	1.168044
O143	O	0.065663	-0.247842	0.575621
O144	O	0.565663	0.252158	1.075621
O145	O	0.177823	-0.247810	0.575274
O146	O	0.677823	0.252190	1.075274
O147	O	0.001037	-0.247840	0.705524
O148	O	0.501037	0.252160	1.205524
Cu149	Cu	0.092826	-0.258000	0.643789
Cu150	Cu	0.592826	0.242000	1.143789
Cu151	Cu	0.048844	-0.126220	0.599875
Cu152	Cu	0.548844	0.373780	1.099875
O153	O	0.113198	-0.247808	0.705177
O154	O	0.613198	0.252192	1.205177
N155	N	0.017907	-0.033534	0.568986
N156	N	0.517907	0.466466	1.068986
N157	N	0.124013	-0.639306	0.963182
N158	N	0.624013	-0.139306	1.463182
O159	O	0.117754	-0.799195	1.177439
O160	O	0.617754	-0.299195	1.677439
O161	O	-0.012458	-0.622342	1.177485
O162	O	0.487542	-0.122342	1.677485
O163	O	-0.012155	-0.734480	1.177444
O164	O	0.487845	-0.234480	1.677444
O165	O	0.117450	-0.687057	1.177480
O166	O	0.617450	-0.187057	1.677480
O167	O	0.024954	-0.697317	1.066020
O168	O	0.524954	-0.197317	1.566020
O169	O	0.024650	-0.585179	1.066061
O170	O	0.524650	-0.085179	1.566061
O171	O	0.154862	-0.762032	1.066014
O172	O	0.654862	-0.262032	1.566014
Cu173	Cu	0.093145	-0.670212	1.055863
Cu174	Cu	0.593145	-0.170212	1.555863
Cu175	Cu	0.049259	-0.714162	1.187636
Cu176	Cu	0.549259	-0.214162	1.687636
O177	O	0.154559	-0.649894	1.066055
O178	O	0.654559	-0.149894	1.566055
N179	N	0.018389	-0.745075	1.280318
N180	N	0.518389	-0.245075	1.780318
C181	C	0.042795	-0.581375	0.539107
C182	C	0.542795	-0.081375	1.039107
C183	C	0.181576	-0.720034	0.538975
C184	C	0.681576	-0.220034	1.038975
C185	C	0.098930	-0.802946	0.704700
C186	C	0.598930	-0.302946	1.204700
C187	C	-0.039851	-0.664287	0.704832
C188	C	0.460149	-0.164287	1.204832
C189	C	0.571122	-0.775030	0.732180
C190	C	1.071122	-0.275030	1.232180
C191	C	0.570995	-0.774660	0.593332
C192	C	1.070995	-0.274660	1.093332
C193	C	0.570808	-0.608917	0.510851
C194	C	1.070808	-0.108917	1.010851
C195	C	0.570939	-0.609288	0.649698
C196	C	1.070939	-0.109288	1.149698
C197	C	0.181453	-0.191954	0.538725
C198	C	0.681453	0.308046	1.038725
C199	C	0.042602	-0.192131	0.539201
C200	C	0.542602	0.307869	1.039201
C201	C	-0.039829	-0.192128	0.704893
C202	C	0.460171	0.307872	1.204893
C203	C	0.099069	-0.192090	0.704464
C204	C	0.599069	0.307910	1.204464
C205	C	-0.011836	-0.581480	1.121779
C206	C	0.488164	-0.081480	1.621779
C207	C	-0.011453	-0.720342	1.121706
C208	C	0.488547	-0.220342	1.621706
C209	C	0.154240	-0.802894	1.121720
C210	C	0.654240	-0.302894	1.621720
C211	C	0.153865	-0.664024	1.121769
C212	C	0.653865	-0.164024	1.621769
H213	H	0.064236	-0.543084	0.830495
H214	H	0.564236	-0.043084	1.330495
H215	H	-0.090599	-0.192138	0.745784
H216	H	0.409401	0.307862	1.245784
C217	C	0.208826	-0.870559	1.121564
C218	C	0.708826	-0.370559	1.621564
C219	C	0.264831	-0.861721	1.064231
C220	C	0.764831	-0.361721	1.564231
C221	C	0.315125	-0.924038	1.064059
C222	C	0.815125	-0.424038	1.564059
H223	H	0.221093	-0.890666	1.160375
H224	H	0.721093	-0.390666	1.660375
H225	H	0.192685	-0.898717	1.121514
H226	H	0.692685	-0.398717	1.621514
H227	H	0.280970	-0.833573	1.064287
H228	H	0.780970	-0.333573	1.564287
H229	H	0.252585	-0.841625	1.025410
H230	H	0.752585	-0.341625	1.525410
H231	H	0.298984	-0.952197	1.064009
H232	H	0.798984	-0.452197	1.564009
H233	H	0.327387	-0.944141	1.102873
H234	H	0.827387	-0.444141	1.602873
H235	H	0.353129	-0.918051	1.025157
H236	H	0.853129	-0.418051	1.525157
H237	H	0.073721	-0.356231	0.780438
H238	H	0.573721	0.143769	1.280438
C239	C	-0.066327	-0.513722	1.121657
C240	C	0.433673	-0.013722	1.621657
C241	C	-0.084145	-0.484313	1.064321
C242	C	0.415855	0.015687	1.564321
C243	C	-0.134332	-0.421890	1.064180
C244	C	0.365668	0.078110	1.564180
H245	H	-0.104446	-0.519502	1.160466
H246	H	0.395554	-0.019502	1.660466
H247	H	-0.050159	-0.485540	1.121632
H248	H	0.449841	0.014460	1.621632
H249	H	-0.100314	-0.512488	1.064352
H250	H	0.399686	-0.012488	1.564352
H251	H	-0.046041	-0.478516	1.025502
H252	H	0.453959	0.021484	1.525502
H253	H	-0.118164	-0.393709	1.064156
H254	H	0.381836	0.106291	1.564156
H255	H	-0.172447	-0.427677	1.102993
H256	H	0.327553	0.072323	1.602993
H257	H	-0.146423	-0.401926	1.025276
H258	H	0.353577	0.098074	1.525276
C259	C	0.112781	-0.192126	0.758669
C260	C	0.612781	0.307874	1.258669
C261	C	0.178193	-0.192134	0.734362
C262	C	0.678193	0.307866	1.234362
C263	C	0.190854	-0.192182	0.784281
C264	C	0.690854	0.307818	1.284281
H265	H	0.081938	-0.153285	0.770919
H266	H	0.581938	0.346715	1.270919
H267	H	0.107852	-0.231006	0.796769
H268	H	0.607852	0.268994	1.296769
H269	H	0.183117	-0.153258	0.696274
H270	H	0.683117	0.346742	1.196274
H271	H	0.209050	-0.230972	0.722117
H272	H	0.709050	0.269028	1.222117
H273	H	0.185924	-0.231062	0.822381
H274	H	0.685924	0.268938	1.322381
H275	H	0.160007	-0.153339	0.796528
H276	H	0.660007	0.346661	1.296528
H277	H	0.235238	-0.192193	0.767798
H278	H	0.735238	0.307807	1.267798
H279	H	-0.052152	-0.730472	1.121651
H280	H	0.447848	-0.230472	1.621651
C281	C	0.208086	-0.650359	1.121737
C282	C	0.708086	-0.150359	1.621737
C283	C	0.183798	-0.584941	1.121739
C284	C	0.683798	-0.084941	1.621739
C285	C	0.233730	-0.572326	1.121701
C286	C	0.733730	-0.072326	1.621701
H287	H	0.220339	-0.681210	1.160577
H288	H	0.720339	-0.181210	1.660577
H289	H	0.246180	-0.655314	1.082860
H290	H	0.746180	-0.155314	1.582860
H291	H	0.145716	-0.579992	1.160613
H292	H	0.645716	-0.079992	1.660613
H293	H	0.171549	-0.554076	1.082902
H294	H	0.671549	-0.054076	1.582902
H295	H	0.271824	-0.577282	1.082823
H296	H	0.771824	-0.077282	1.582823
H297	H	0.245980	-0.603182	1.160541
H298	H	0.745980	-0.103182	1.660541
H299	H	0.217260	-0.527938	1.121696
H300	H	0.717260	-0.027938	1.621696
H301	H	0.232372	-0.730046	0.498140
H302	H	0.732372	-0.230046	0.998140
C303	C	0.003199	-0.580969	0.967173
C304	C	0.503199	-0.080969	1.467173
C305	C	-0.025691	-0.604793	0.950117
C306	C	0.474309	-0.104793	1.450117
C307	C	-0.094662	-0.587886	0.985123
C308	C	0.405338	-0.087886	1.485123
H309	H	-0.004254	-0.600663	1.013972
H310	H	0.495746	-0.100663	1.513972
H311	H	-0.016541	-0.533639	0.955677
H312	H	0.483459	-0.033639	1.455677
H313	H	-0.005958	-0.652113	0.961617
H314	H	0.494042	-0.152113	1.461617
H315	H	-0.018257	-0.585102	0.903325
H316	H	0.481743	-0.085102	1.403325
H317	H	-0.114401	-0.540557	0.973628
H318	H	0.385599	-0.040557	1.473628
H319	H	-0.102108	-0.607582	1.031920
H320	H	0.397892	-0.107582	1.531920
H321	H	-0.114273	-0.604043	0.973551
H322	H	0.385727	-0.104043	1.473551
C323	C	0.242278	-0.700373	0.966984
C324	C	0.742278	-0.200373	1.466984
C325	C	0.307643	-0.710196	0.921224
C326	C	0.807643	-0.210196	1.421224
C327	C	0.353392	-0.750541	0.956119
C328	C	0.853392	-0.250541	1.456119
H329	H	0.235645	-0.679015	0.994347
H330	H	0.735645	-0.179015	1.494347
H331	H	0.235611	-0.742446	0.994327
H332	H	0.735611	-0.242446	1.494327
H333	H	0.314307	-0.668131	0.893893
H334	H	0.814307	-0.168131	1.393893
H335	H	0.314297	-0.731562	0.893861
H336	H	0.814297	-0.231562	1.393861
H337	H	0.346725	-0.792613	0.983462
H338	H	0.846725	-0.292613	1.483462
H339	H	0.346753	-0.729179	0.983480
H340	H	0.846753	-0.229179	1.483480
H341	H	0.397747	-0.757216	0.925077
H342	H	0.897747	-0.257216	1.425077
H343	H	0.570930	-0.568565	0.659852
H344	H	1.070930	-0.068565	1.159852
C345	C	0.571079	-0.829535	0.799910
C346	C	1.071079	-0.329535	1.299910
C347	C	0.513782	-0.847386	0.829343
C348	C	1.013782	-0.347386	1.329343
C349	C	0.513717	-0.897588	0.891739
C350	C	1.013717	-0.397588	1.391739
H351	H	0.609912	-0.867643	0.794092
H352	H	1.109912	-0.367643	1.294092
H353	H	0.571058	-0.813364	0.828094
H354	H	1.071058	-0.313364	1.328094
H355	H	0.513809	-0.863559	0.801165
H356	H	1.013809	-0.363559	1.301165
H357	H	0.474940	-0.809293	0.835177
H358	H	0.974940	-0.309293	1.335177
H359	H	0.513696	-0.881418	0.919923
H360	H	1.013696	-0.381418	1.419923
H361	H	0.552553	-0.935693	0.885914
H362	H	1.052553	-0.435693	1.385914
H363	H	0.474839	-0.909703	0.911719
H364	H	0.974839	-0.409703	1.411719
C365	C	0.570736	-0.554486	0.443102
C366	C	1.070736	-0.054486	0.943102
C367	C	0.570727	-0.578505	0.401748
C368	C	1.070727	-0.078505	0.901748
C369	C	0.570668	-0.528385	0.339330
C370	C	1.070668	-0.028385	0.839330
H371	H	0.531867	-0.516405	0.448917
H372	H	1.031867	-0.016405	0.948917
H373	H	0.609582	-0.542284	0.422993
H374	H	1.109582	-0.042284	0.922993
H375	H	0.531885	-0.590697	0.421853
H376	H	1.031885	-0.090697	0.921853
H377	H	0.609592	-0.616579	0.395914
H378	H	1.109592	-0.116579	0.895914
H379	H	0.609514	-0.516182	0.319221
H380	H	1.109514	-0.016182	0.819221
H381	H	0.531798	-0.490307	0.345152
H382	H	1.031798	0.009693	0.845152
H383	H	0.570668	-0.544676	0.311262
H384	H	1.070668	-0.044676	0.811262
H385	H	0.109031	-0.853782	0.745475
H386	H	0.609031	-0.353782	1.245475
H387	H	0.032695	-0.530537	0.498334
H388	H	0.532695	-0.030537	0.998334
C389	C	0.248980	-0.191575	0.483991
C390	C	0.748980	0.308425	0.983991
C391	C	0.248827	-0.191481	0.426740
C392	C	0.748827	0.308519	0.926740
C393	C	0.311027	-0.191148	0.376311
C394	C	0.811027	0.308852	0.876311
H395	H	0.257006	-0.152640	0.473473
H396	H	0.757006	0.347360	0.973473
H397	H	0.283253	-0.230361	0.499136
H398	H	0.783253	0.269639	0.999136
H399	H	0.214565	-0.152699	0.411597
H400	H	0.714565	0.347301	0.911597
H401	H	0.240813	-0.230413	0.437236
H402	H	0.740813	0.269587	0.937236
H403	H	0.345300	-0.229934	0.391456
H404	H	0.845300	0.270066	0.891456
H405	H	0.319047	-0.152212	0.365799
H406	H	0.819047	0.347788	0.865799
H407	H	0.310934	-0.191090	0.337462
H408	H	0.810934	0.308910	0.837462
C409	C	-0.107614	-0.650805	0.759209
C410	C	0.392386	-0.150805	1.259209
C411	C	-0.148908	-0.585416	0.735112
C412	C	0.351092	-0.085416	1.235112
C413	C	-0.211332	-0.572970	0.785189
C414	C	0.288668	-0.072970	1.285189
H415	H	-0.127779	-0.681709	0.771457
H416	H	0.372221	-0.181709	1.271457
H417	H	-0.101780	-0.655804	0.797276
H418	H	0.398220	-0.155804	1.297276
H419	H	-0.154744	-0.580424	0.697057
H420	H	0.345256	-0.080424	1.197057
H421	H	-0.128764	-0.554499	0.722869
H422	H	0.371236	-0.054499	1.222869
H423	H	-0.205498	-0.577968	0.823255
H424	H	0.294502	-0.077968	1.323255
H425	H	-0.231491	-0.603877	0.797433
H426	H	0.268509	-0.103877	1.297433
H427	H	-0.239356	-0.528601	0.768848
H428	H	0.260644	-0.028601	1.268848
C429	C	0.570981	-0.828870	0.579679
C430	C	1.070981	-0.328870	1.079679
C431	C	0.570887	-0.804565	0.514292
C432	C	1.070887	-0.304565	1.014292
C433	C	0.570865	-0.854481	0.501695
C434	C	1.070865	-0.354481	1.001695
H435	H	0.609857	-0.866983	0.584584
H436	H	1.109857	-0.366983	1.084584
H437	H	0.532143	-0.841096	0.610581
H438	H	1.032143	-0.341096	1.110581
H439	H	0.609722	-0.792349	0.483400
H440	H	1.109722	-0.292349	0.983400
H441	H	0.532014	-0.766459	0.509372
H442	H	1.032014	-0.266459	1.009372
H443	H	0.532027	-0.866707	0.532596
H444	H	1.032027	-0.366707	1.032596
H445	H	0.609742	-0.892591	0.506603
H446	H	1.109742	-0.392591	1.006603
H447	H	0.570795	-0.837996	0.457332
H448	H	1.070795	-0.337996	0.957332
C449	C	0.029058	-0.192298	0.484996
C450	C	0.529058	0.307702	0.984996
C451	C	0.013447	-0.249652	0.507990
C452	C	0.513447	0.250348	1.007990
C453	C	0.000983	-0.249841	0.458072
C454	C	0.500983	0.250159	0.958072
H455	H	-0.007513	-0.153497	0.474534
H456	H	0.492487	0.346503	0.974534
H457	H	0.067774	-0.192335	0.445998
H458	H	0.567774	0.307665	0.945998
H459	H	-0.025264	-0.249609	0.546976
H460	H	0.474736	0.250391	1.046976
H461	H	0.050010	-0.288462	0.518447
H462	H	0.550010	0.211538	1.018447
H463	H	0.039698	-0.249878	0.419074
H464	H	0.539698	0.250122	0.919074
H465	H	-0.035588	-0.211037	0.447614
H466	H	0.464412	0.288963	0.947614
H467	H	-0.009605	-0.288757	0.473664
H468	H	0.490395	0.211243	0.973664
C469	C	0.003003	-0.580865	0.733211
C470	C	0.503003	-0.080865	1.233211
C471	C	-0.031891	-0.540580	0.773565
C472	C	0.468109	-0.040580	1.273565
C473	C	-0.100883	-0.523611	0.790668
C474	C	0.399117	-0.023611	1.290668
H475	H	-0.008630	-0.557027	0.693625
H476	H	0.491370	-0.057027	1.193625
H477	H	-0.008495	-0.620525	0.757038
H478	H	0.491505	-0.120525	1.257038
H479	H	-0.020398	-0.500927	0.749738
H480	H	0.479602	-0.000927	1.249738
H481	H	-0.020279	-0.564406	0.813160
H482	H	0.479721	-0.064406	1.313160
H483	H	-0.112381	-0.563271	0.814495
H484	H	0.387619	-0.063271	1.314495
H485	H	-0.112509	-0.499775	0.751079
H486	H	0.387491	0.000225	1.251079
H487	H	-0.124568	-0.496281	0.818055
H488	H	0.375432	0.003719	1.318055
H489	H	0.064189	-0.543085	0.770891
H490	H	0.564189	-0.043085	1.270891
C491	C	0.241922	-0.700167	0.613433
C492	C	0.741922	-0.200167	1.113433
C493	C	0.282098	-0.664912	0.555033
C494	C	0.782098	-0.164912	1.055033
C495	C	0.327714	-0.705088	0.514554
C496	C	0.827714	-0.205088	1.014554
H497	H	0.269379	-0.739836	0.637120
H498	H	0.769379	-0.239836	1.137120
H499	H	0.218151	-0.711658	0.601892
H500	H	0.718151	-0.211658	1.101892
H501	H	0.305867	-0.653430	0.566575
H502	H	0.805867	-0.153430	1.066575
H503	H	0.254659	-0.625245	0.531328
H504	H	0.754659	-0.125245	1.031328
H505	H	0.303943	-0.716579	0.503012
H506	H	0.803943	-0.216579	1.003012
H507	H	0.355167	-0.744755	0.538247
H508	H	0.855167	-0.244755	1.038247
H509	H	0.354975	-0.681171	0.474922
H510	H	0.854975	-0.181171	0.974922
C511	C	0.270205	-0.710187	0.767008
C512	C	0.770205	-0.210187	1.267008
C513	C	0.287224	-0.742748	0.724327
C514	C	0.787224	-0.242748	1.224327
C515	C	0.252212	-0.787823	0.757530
C516	C	0.752212	-0.287823	1.257530
H517	H	0.281706	-0.742367	0.805971
H518	H	0.781706	-0.242367	1.305971
H519	H	0.223404	-0.686489	0.779513
H520	H	0.723404	-0.186489	1.279513
H521	H	0.334014	-0.766445	0.711832
H522	H	0.834014	-0.266445	1.211832
H523	H	0.275721	-0.710585	0.685365
H524	H	0.775721	-0.210585	1.185365
H525	H	0.205411	-0.764125	0.770034
H526	H	0.705411	-0.264125	1.270034
H527	H	0.263716	-0.819999	0.796491
H528	H	0.763716	-0.319999	1.296491
H529	H	0.263749	-0.809917	0.728574
H530	H	0.763749	-0.309917	1.228574
C531	C	0.416247	-0.522117	0.628039
C532	C	0.916247	-0.022117	1.128039
C533	C	0.370510	-0.457186	0.624334
C534	C	0.870510	0.042814	1.124334
C535	C	0.405428	-0.412004	0.590970
C536	C	0.905428	0.087996	1.090970
H537	H	0.443634	-0.533760	0.651875
H538	H	0.943634	-0.033760	1.151875
H539	H	0.443565	-0.523863	0.584074
H540	H	0.943565	-0.023863	1.084074
H541	H	0.343204	-0.455442	0.668291
H542	H	0.843204	0.044558	1.168291
H543	H	0.343122	-0.445522	0.600493
H544	H	0.843122	0.054478	1.100493
H545	H	0.432747	-0.413750	0.547005
H546	H	0.932747	0.086250	1.047005
H547	H	0.432814	-0.423653	0.614809
H548	H	0.932814	0.076347	1.114809
H549	H	0.374402	-0.367943	0.588446
H550	H	0.874402	0.132057	1.088446
H551	H	0.272095	-0.646975	0.830359
H552	H	0.772095	-0.146975	1.330359
C553	C	0.230836	-0.492820	0.602508
C554	C	0.730836	0.007180	1.102508
C555	C	0.240592	-0.447080	0.537125
C556	C	0.740592	0.052920	1.037125
C557	C	0.280847	-0.482003	0.491406
C558	C	0.780847	0.017997	0.991406
H559	H	0.272929	-0.520178	0.609127
H560	H	0.772929	-0.020178	1.109127
H561	H	0.209422	-0.520171	0.609222
H562	H	0.709422	-0.020171	1.109222
H563	H	0.262007	-0.419740	0.530415
H564	H	0.762007	0.080260	1.030415
H565	H	0.198512	-0.419720	0.530486
H566	H	0.698512	0.080280	1.030486
H567	H	0.259433	-0.509354	0.498120
H568	H	0.759433	-0.009354	0.998120
H569	H	0.322936	-0.509360	0.498031
H570	H	0.822936	-0.009360	0.998031
H571	H	0.287466	-0.450974	0.447039
H572	H	0.787466	0.049026	0.947039
C573	C	0.270008	-0.473511	0.677017
C574	C	0.770008	0.026489	1.177017
C575	C	0.229770	-0.464116	0.739223
C576	C	0.729770	0.035884	1.239223
C577	C	0.194588	-0.395715	0.729441
C578	C	0.694588	0.104285	1.229441
H579	H	0.300851	-0.449954	0.653843
H580	H	0.800851	0.050046	1.153843
H581	H	0.242583	-0.457044	0.651367
H582	H	0.742583	0.042956	1.151367
H583	H	0.257194	-0.480575	0.764863
H584	H	0.757194	0.019425	1.264863
H585	H	0.198915	-0.487657	0.762407
H586	H	0.698915	0.012343	1.262407
H587	H	0.167162	-0.379248	0.703790
H588	H	0.667162	0.120752	1.203790
H589	H	0.225436	-0.372164	0.706264
H590	H	0.725436	0.127836	1.206264
H591	H	0.167278	-0.389332	0.771644
H592	H	0.667278	0.110668	1.271644
H593	H	0.406920	-0.740344	0.715602
H594	H	0.906920	-0.240344	1.215602
C595	C	0.111696	-0.492974	0.841533
C596	C	0.611696	0.007026	1.341533
C597	C	0.135577	-0.475929	0.870381
C598	C	0.635577	0.024071	1.370381
C599	C	0.118791	-0.510983	0.939347
C600	C	0.618791	-0.010983	1.439347
H601	H	0.064388	-0.481520	0.861339
H602	H	0.564388	0.018480	1.361339
H603	H	0.131430	-0.539773	0.848939
H604	H	0.631430	-0.039773	1.348939
H605	H	0.115841	-0.429140	0.862980
H606	H	0.615841	0.070860	1.362980
H607	H	0.182883	-0.487384	0.850594
H608	H	0.682883	0.012616	1.350594
H609	H	0.138525	-0.557783	0.946753
H610	H	0.638525	-0.057783	1.446753
H611	H	0.071483	-0.499527	0.959147
H612	H	0.571483	0.000473	1.459147
H613	H	0.134997	-0.499428	0.958928
H614	H	0.634997	0.000572	1.458928
C615	C	-0.040041	-0.624250	0.276366
C616	C	0.459959	-0.124250	0.776366
C617	C	-0.080421	-0.589302	0.322062
C618	C	0.419579	-0.089302	0.822062
C619	C	-0.097417	-0.520315	0.287094
C620	C	0.402583	-0.020315	0.787094
H621	H	-0.000417	-0.612706	0.249069
H622	H	0.499583	-0.112706	0.749069
H623	H	-0.063815	-0.612703	0.248951
H624	H	0.436185	-0.112703	0.748951
H625	H	-0.056647	-0.600845	0.349464
H626	H	0.443353	-0.100845	0.849464
H627	H	-0.120054	-0.600826	0.349360
H628	H	0.379946	-0.100826	0.849360
H629	H	-0.121191	-0.508767	0.259679
H630	H	0.378809	-0.008767	0.759679
H631	H	-0.057789	-0.508777	0.259798
H632	H	0.442211	-0.008777	0.759798
H633	H	-0.124821	-0.496594	0.318093
H634	H	0.375179	0.003406	0.818093
H635	H	0.271959	-0.646925	0.666876
H636	H	0.771959	-0.146925	1.166876
H637	H	0.177459	-0.356175	0.572617
H638	H	0.677459	0.143825	1.072617
H639	H	-0.077958	-0.685325	0.413008
H640	H	0.422042	-0.185325	0.913008
H641	H	0.068452	-0.850855	0.285902
H642	H	0.568452	-0.350855	0.785902
H643	H	-0.078038	-0.685325	0.472673
H644	H	0.421962	-0.185325	0.972673
C645	C	0.030346	-0.911912	0.422635
C646	C	0.530346	-0.411912	0.922635
C647	C	0.006518	-0.940732	0.405506
C648	C	0.506518	-0.440732	0.905506
C649	C	0.023282	-1.009698	0.440574
C650	C	0.523282	-0.509698	0.940574
H651	H	0.077650	-0.931749	0.411254
H652	H	0.577650	-0.431749	0.911254
H653	H	0.010565	-0.919306	0.469429
H654	H	0.510565	-0.419306	0.969429
H655	H	0.026302	-0.933343	0.358722
H656	H	0.526302	-0.433343	0.858722
H657	H	-0.040784	-0.920914	0.416889
H658	H	0.459216	-0.420914	0.916889
H659	H	0.003501	-1.017093	0.487368
H660	H	0.503501	-0.517093	0.987368
H661	H	0.070586	-1.029529	0.429190
H662	H	0.570586	-0.529529	0.929190
H663	H	0.007112	-1.029261	0.428961
H664	H	0.507112	-0.529261	0.928961
C665	C	-0.040181	-0.624262	0.510508
C666	C	0.459819	-0.124262	1.010508
C667	C	-0.016202	-0.595457	0.440745
C668	C	0.483798	-0.095457	0.940745
C669	C	-0.032966	-0.526494	0.423626
C670	C	0.467034	-0.026494	0.923626
H671	H	-0.087490	-0.604407	0.526484
H672	H	0.412510	-0.104407	1.026484
H673	H	-0.020496	-0.616877	0.530234
H674	H	0.479504	-0.116877	1.030234
H675	H	-0.035890	-0.602838	0.421026
H676	H	0.464110	-0.102838	0.921026
H677	H	0.031105	-0.615293	0.424752
H678	H	0.531105	-0.115293	0.924752
H679	H	-0.013281	-0.519109	0.443353
H680	H	0.486719	-0.019109	0.943353
H681	H	-0.080275	-0.506645	0.439606
H682	H	0.419725	-0.006645	0.939606
H683	H	-0.016695	-0.506942	0.376292
H684	H	0.483305	-0.006942	0.876292
C685	C	0.078937	-0.863290	0.630232
C686	C	0.578937	-0.363290	1.130232
C687	C	0.137341	-0.903593	0.595089
C688	C	0.637341	-0.403593	1.095089
C689	C	0.177665	-0.949299	0.635416
C690	C	0.677665	-0.449299	1.135416
H691	H	0.090493	-0.839604	0.641802
H692	H	0.590493	-0.339604	1.141802
H693	H	0.055119	-0.890652	0.669854
H694	H	0.555119	-0.390652	1.169854
H695	H	0.161155	-0.876235	0.555480
H696	H	0.661155	-0.376235	1.055480
H697	H	0.125806	-0.927293	0.583519
H698	H	0.625806	-0.427293	1.083519
H699	H	0.153846	-0.976661	0.675038
H700	H	0.653846	-0.476661	1.175038
H701	H	0.189215	-0.925607	0.646984
H702	H	0.689215	-0.425607	1.146984
H703	H	0.217293	-0.976654	0.611580
H704	H	0.717293	-0.476654	1.111580
C705	C	0.089046	-0.891503	0.476607
C706	C	0.589046	-0.391503	0.976607
C707	C	0.153940	-0.937286	0.473023
C708	C	0.653940	-0.437286	0.973023
C709	C	0.199136	-0.902413	0.439828
C710	C	0.699136	-0.402413	0.939828
H711	H	0.087413	-0.864149	0.432616
H712	H	0.587413	-0.364149	0.932616
H713	H	0.077323	-0.864151	0.500522
H714	H	0.577323	-0.364151	1.000522
H715	H	0.165659	-0.964627	0.449107
H716	H	0.665659	-0.464627	0.949107
H717	H	0.155595	-0.964641	0.517004
H718	H	0.655595	-0.464641	1.017004
H719	H	0.187413	-0.875061	0.463742
H720	H	0.687413	-0.375061	0.963742
H721	H	0.197496	-0.875061	0.395839
H722	H	0.697496	-0.375061	0.895839
H723	H	0.243170	-0.933472	0.437397
H724	H	0.743170	-0.433472	0.937397
C725	C	0.030152	-0.911908	0.581494
C726	C	0.530152	-0.411908	1.081494
C727	C	0.006228	-0.940768	0.651254
C728	C	0.506228	-0.440768	1.151254
C729	C	0.023093	-1.009740	0.668324
C730	C	0.523093	-0.509740	1.168324
H731	H	0.010502	-0.919344	0.561783
H732	H	0.510502	-0.419344	1.061783
H733	H	0.077478	-0.931685	0.565473
H734	H	0.577478	-0.431685	1.065473
H735	H	-0.041088	-0.920997	0.667268
H736	H	0.458912	-0.420997	1.167268
H737	H	0.025876	-0.933350	0.670981
H738	H	0.525876	-0.433350	1.170981
H739	H	0.070418	-1.029517	0.652303
H740	H	0.570418	-0.529517	1.152303
H741	H	0.003441	-1.017170	0.648609
H742	H	0.503441	-0.517170	1.148609
H743	H	0.006868	-1.029331	0.715657
H744	H	0.506868	-0.529331	1.215657
H745	H	0.119026	-1.028132	0.528057
H746	H	0.619026	-0.528132	1.028057
H747	H	-0.086862	-1.027893	0.606199
H748	H	0.413138	-0.527893	1.106199
H749	H	-0.137894	-0.841050	0.628449
H750	H	0.362106	-0.341050	1.128449
C751	C	-0.147762	-0.891235	0.566425
C752	C	0.352238	-0.391235	1.066425
C753	C	-0.182240	-0.936906	0.600523
C754	C	0.317760	-0.436906	1.100523
C755	C	-0.250668	-0.901905	0.610364
C756	C	0.249332	-0.401905	1.110364
H757	H	-0.164348	-0.863850	0.592145
H758	H	0.335652	-0.363850	1.092145
H759	H	-0.154207	-0.863903	0.524245
H760	H	0.345793	-0.363903	1.024245
H761	H	-0.175799	-0.964227	0.642696
H762	H	0.324201	-0.464227	1.142696
H763	H	-0.165675	-0.964292	0.574814
H764	H	0.334325	-0.464292	1.074814
H765	H	-0.257114	-0.874573	0.568184
H766	H	0.242886	-0.374573	1.068184
H767	H	-0.267247	-0.874522	0.636082
H768	H	0.232753	-0.374522	1.136082
H769	H	-0.274069	-0.932887	0.633495
H770	H	0.225931	-0.432887	1.133495
C771	C	-0.274556	-0.803173	0.689380
C772	C	0.225444	-0.303173	1.189380
C773	C	-0.228920	-0.843549	0.724403
C774	C	0.271080	-0.343549	1.224403
C775	C	-0.263952	-0.860567	0.793371
C776	C	0.236048	-0.360567	1.293371
H777	H	-0.301921	-0.763554	0.700951
H778	H	0.198079	-0.263554	1.200951
H779	H	-0.301906	-0.826962	0.700839
H780	H	0.198094	-0.326962	1.200839
H781	H	-0.201581	-0.819760	0.712950
H782	H	0.298419	-0.319760	1.212950
H783	H	-0.201554	-0.883177	0.712853
H784	H	0.298446	-0.383177	1.212853
H785	H	-0.291303	-0.884356	0.804829
H786	H	0.208697	-0.384356	1.304829
H787	H	-0.291316	-0.820944	0.804934
H788	H	0.208684	-0.320944	1.304934
H789	H	-0.232994	-0.887969	0.817142
H790	H	0.267006	-0.387969	1.317142
H791	H	-0.137547	-0.737181	0.420520
H792	H	0.362453	-0.237181	0.920520
C793	C	-0.274160	-0.683662	0.450213
C794	C	0.225840	-0.183662	0.950213
C795	C	-0.228357	-0.673887	0.384867
C796	C	0.271643	-0.173887	0.884867
C797	C	-0.263200	-0.633515	0.339072
C798	C	0.236800	-0.133515	0.839072
H799	H	-0.301527	-0.704982	0.456807
H800	H	0.198473	-0.204982	0.956807
H801	H	-0.301492	-0.641577	0.456875
H802	H	0.198508	-0.141577	0.956875
H803	H	-0.201037	-0.715964	0.378208
H804	H	0.298963	-0.215964	0.878208
H805	H	-0.200989	-0.652558	0.378252
H806	H	0.299011	-0.152558	0.878252
H807	H	-0.290531	-0.591431	0.345733
H808	H	0.209469	-0.091431	0.845733
H809	H	-0.290566	-0.654840	0.345672
H810	H	0.209434	-0.154840	0.845672
H811	H	-0.232128	-0.626873	0.294729
H812	H	0.267872	-0.126873	0.794729
