data_functionalizedCrystal
_audit_creation_method	'MofGen! by Chris Wilmer'
_symmetry_space_group_name_H-M	'P1'
_symmetry_Int_Tables_number	1
_symmetry_cell_setting	triclinic
loop_
_symmetry_equiv_pos_as_xyz
  x,y,z
_cell_length_a	19.188933
_cell_length_b	19.188930
_cell_length_c	18.266242
_cell_angle_alpha	89.988525
_cell_angle_beta	89.992377
_cell_angle_gamma	83.145175
loop_
_atom_site_label
_atom_site_type_symbol
_atom_site_fract_x
_atom_site_fract_y
_atom_site_fract_z
O1	O	0.926148	0.087175	-0.060865
O2	O	1.426148	0.587175	0.439135
O3	O	0.722837	0.098908	-0.060873
O4	O	1.222837	0.598908	0.439127
O5	O	0.830360	-0.008614	-0.060854
O6	O	1.330360	0.491386	0.439146
O7	O	0.818626	0.194697	-0.060883
O8	O	1.318626	0.694697	0.439117
O9	O	0.830342	-0.008620	0.060908
O10	O	1.330342	0.491380	0.560908
O11	O	0.722819	0.098902	0.060889
O12	O	1.222819	0.598902	0.560889
O13	O	0.926130	0.087170	0.060897
O14	O	1.426130	0.587170	0.560897
Zn15	Zn	0.824472	0.093035	0.080226
Zn16	Zn	1.324472	0.593035	0.580226
Zn17	Zn	0.824496	0.093042	-0.080201
Zn18	Zn	1.324496	0.593042	0.419799
O19	O	0.818608	0.194692	0.060879
O20	O	1.318608	0.694692	0.560879
C21	C	0.696817	0.098525	0.000008
C22	C	1.196817	0.598525	0.500008
C23	C	0.619313	0.097384	0.000005
C24	C	1.119313	0.597384	0.500005
C25	C	0.066067	0.089242	-0.066358
C26	C	0.566067	0.589242	0.433642
C27	C	0.138892	0.090310	-0.066361
C28	C	0.638892	0.590310	0.433639
C29	C	0.175299	0.090844	0.000011
C30	C	0.675299	0.590844	0.500011
C31	C	0.138878	0.090292	0.066391
C32	C	0.638878	0.590292	0.566391
C33	C	0.066056	0.089217	0.066392
C34	C	0.566056	0.589217	0.566392
N35	N	0.284311	0.132260	0.049409
N36	N	0.784311	0.632260	0.549409
N37	N	0.353489	0.133283	0.049403
N38	N	0.853489	0.633283	0.549403
C39	C	0.394707	0.094082	0.000012
C40	C	0.894707	0.594082	0.500012
N41	N	0.364134	0.053828	-0.049385
N42	N	0.864134	0.553828	0.450615
N43	N	0.294949	0.052808	-0.049382
N44	N	0.794949	0.552808	0.450618
C45	C	0.254262	0.092009	0.000017
C46	C	0.754262	0.592009	0.500017
C47	C	0.510084	0.095787	-0.066367
C48	C	1.010084	0.595787	0.433633
C49	C	0.582911	0.096851	-0.066368
C50	C	1.082911	0.596851	0.433632
C51	C	0.582894	0.096840	0.066386
C52	C	1.082894	0.596840	0.566386
C53	C	0.510071	0.095769	0.066385
C54	C	1.010071	0.595769	0.566385
C55	C	0.473669	0.095246	0.000006
C56	C	0.973669	0.595246	0.500006
C57	C	0.829971	-0.034628	0.000029
C58	C	1.329971	0.465372	0.500029
C59	C	0.828830	-0.112132	0.000035
C60	C	1.328830	0.387868	0.500035
C61	C	0.891921	-0.157056	0.000041
C62	C	1.391921	0.342944	0.500041
C63	C	0.890849	-0.229880	0.000029
C64	C	1.390849	0.270120	0.500029
C65	C	0.826683	-0.257777	0.000026
C66	C	1.326683	0.242223	0.500026
C67	C	0.763584	-0.212843	0.000016
C68	C	1.263584	0.287157	0.500016
C69	C	0.764658	-0.140021	0.000021
C70	C	1.264658	0.359979	0.500021
N71	N	0.777630	-0.365784	0.041462
N72	N	1.277630	0.134216	0.541462
N73	N	0.776614	-0.434962	0.041460
N74	N	1.276614	0.065038	0.541460
C75	C	0.823445	-0.477185	0.000011
C76	C	1.323445	0.022815	0.500011
N77	N	0.871340	-0.447618	-0.041425
N78	N	1.371340	0.052382	0.458575
N79	N	0.872358	-0.378433	-0.041419
N80	N	1.372358	0.121567	0.458581
C81	C	0.825512	-0.336739	0.000021
C82	C	1.325512	0.163261	0.500021
C83	C	0.885378	-0.601073	0.000004
C84	C	1.385378	-0.101073	0.500004
C85	C	0.884304	-0.673898	-0.000013
C86	C	1.384304	-0.173898	0.499987
C87	C	0.757037	-0.656860	-0.000019
C88	C	1.257037	-0.156860	0.499981
C89	C	0.758113	-0.584037	-0.000010
C90	C	1.258113	-0.084037	0.499990
C91	C	0.822286	-0.556148	0.000005
C92	C	1.322286	-0.056148	0.500005
C93	C	0.952150	0.087553	0.000015
C94	C	1.452150	0.587553	0.500015
C95	C	1.029655	0.088694	0.000013
C96	C	1.529655	0.588694	0.500013
C97	C	0.818997	0.220705	-0.000006
C98	C	1.318997	0.720705	0.499994
C99	C	0.820137	0.298210	-0.000017
C100	C	1.320137	0.798210	0.499983
N101	N	0.824461	0.093030	0.189713
N102	N	1.324461	0.593030	0.689713
N103	N	0.824512	0.093042	-0.189688
N104	N	1.324512	0.593042	0.310312
C105	C	0.872087	0.045442	0.228030
C106	C	1.372087	0.545442	0.728030
C107	C	0.872092	0.045439	0.304675
C108	C	1.372092	0.545439	0.804675
C109	C	0.824476	0.093035	0.342999
C110	C	1.324476	0.593035	0.842999
C111	C	0.776841	0.140626	0.304673
C112	C	1.276841	0.640626	0.804673
C113	C	0.776833	0.140624	0.228030
C114	C	1.276833	0.640624	0.728030
N115	N	0.815400	0.154843	0.463323
N116	N	1.315400	0.654843	0.963323
N117	N	0.815412	0.154843	0.536131
N118	N	1.315412	0.654843	1.036131
C119	C	0.824496	0.093045	0.573922
C120	C	1.324496	0.593045	1.073922
N121	N	0.833581	0.031245	0.536154
N122	N	1.333581	0.531245	1.036154
N123	N	0.833573	0.031245	0.463339
N124	N	1.333573	0.531245	0.963339
C125	C	0.824479	0.093043	0.426106
C126	C	1.324479	0.593043	0.926106
C127	C	0.872130	0.045450	0.695346
C128	C	1.372130	0.545450	1.195346
C129	C	0.872129	0.045446	0.771992
C130	C	1.372129	0.545446	1.271992
C131	C	0.776882	0.140640	0.771990
C132	C	1.276882	0.640640	1.271990
C133	C	0.776879	0.140638	0.695345
C134	C	1.276879	0.640638	1.195345
C135	C	0.824506	0.093044	0.657028
C136	C	1.324506	0.593044	1.157028
H137	H	0.036409	0.088774	0.120441
H138	H	0.536409	0.588774	0.620441
H139	H	0.036434	0.088813	-0.120409
H140	H	0.536434	0.588813	0.379591
C141	C	0.924521	-0.006903	0.814146
C142	C	1.424521	0.493097	1.314146
C143	C	0.976923	-0.059238	0.771997
C144	C	1.476923	0.440762	1.271997
C145	C	1.029315	-0.111588	0.814153
C146	C	1.529315	0.388412	1.314153
C147	C	1.029306	-0.111603	0.898458
C148	C	1.529306	0.388397	1.398458
C149	C	0.976902	-0.059267	0.940612
C150	C	1.476902	0.440733	1.440612
C151	C	0.924510	-0.006917	0.898456
C152	C	1.424510	0.493083	1.398456
H153	H	0.976931	-0.059228	0.709586
H154	H	1.476931	0.440772	1.209586
H155	H	1.068107	-0.150330	0.782948
H156	H	1.568107	0.349670	1.282948
H157	H	1.068090	-0.150356	0.929664
H158	H	1.568090	0.349644	1.429664
H159	H	0.976894	-0.059277	1.003023
H160	H	1.476894	0.440723	1.503023
H161	H	0.885718	0.031826	0.929661
H162	H	1.385718	0.531826	1.429661
H163	H	0.738109	0.179391	0.803193
H164	H	1.238109	0.679391	1.303193
C165	C	0.955964	-0.570387	0.000010
C166	C	1.455964	-0.070387	0.500010
C167	C	0.974194	-0.522685	0.063244
C168	C	1.474194	-0.022685	0.563244
C169	C	1.044779	-0.492000	0.063250
C170	C	1.544779	0.008000	0.563250
C171	C	1.097134	-0.509018	0.000021
C172	C	1.597134	-0.009018	0.500021
C173	C	1.078905	-0.556723	-0.063219
C174	C	1.578905	-0.056723	0.436781
C175	C	1.008320	-0.587408	-0.063224
C176	C	1.508320	-0.087408	0.436776
H177	H	0.935437	-0.510085	0.110055
H178	H	1.435437	-0.010085	0.610055
H179	H	1.058273	-0.456686	0.110064
H180	H	1.558273	0.043314	0.610064
H181	H	1.149385	-0.486304	0.000025
H182	H	1.649385	0.013696	0.500025
H183	H	1.117662	-0.569323	-0.110029
H184	H	1.617662	-0.069323	0.389971
H185	H	0.994826	-0.622722	-0.110039
H186	H	1.494826	-0.122722	0.389961
H187	H	0.706738	-0.547459	-0.000010
H188	H	1.206738	-0.047459	0.499990
C189	C	0.695253	-0.090601	0.000021
C190	C	1.195253	0.409399	0.500021
C191	C	0.642619	-0.093567	-0.063210
C192	C	1.142619	0.406433	0.436790
C193	C	0.573214	-0.044145	-0.063207
C194	C	1.073214	0.455855	0.436793
C195	C	0.556443	0.008243	0.000025
C196	C	1.056443	0.508243	0.500025
C197	C	0.609079	0.011212	0.063261
C198	C	1.109079	0.511212	0.563261
C199	C	0.678484	-0.038210	0.063258
C200	C	1.178484	0.461790	0.563258
H201	H	0.655032	-0.132351	-0.110023
H202	H	1.155032	0.367649	0.389977
H203	H	0.534249	-0.046344	-0.110019
H204	H	1.034249	0.453656	0.389981
H205	H	0.505065	0.044828	0.000027
H206	H	1.005065	0.544828	0.500027
H207	H	0.596665	0.049995	0.110074
H208	H	1.096665	0.549995	0.610074
H209	H	0.717448	-0.036012	0.110070
H210	H	1.217448	0.463988	0.610070
H211	H	0.935682	-0.710475	-0.000012
H212	H	1.435682	-0.210475	0.499988
H213	H	0.704792	-0.679573	-0.000025
H214	H	1.204792	-0.179573	0.499975
H215	H	0.738099	0.179391	0.664145
H216	H	1.238099	0.679391	1.164145
H217	H	0.910867	0.006687	0.196834
H218	H	1.410867	0.506687	0.696834
H219	H	0.738070	0.179379	0.335881
H220	H	1.238070	0.679379	0.835881
H221	H	0.738049	0.179376	0.196831
H222	H	1.238049	0.679376	0.696831
C223	C	0.178956	0.090917	-0.139374
C224	C	0.678956	0.590917	0.360626
C225	C	0.138917	0.090341	-0.212386
C226	C	0.638917	0.590341	0.287614
C227	C	0.178979	0.090950	-0.285398
C228	C	0.678979	0.590950	0.214602
C229	C	0.259080	0.092134	-0.285397
C230	C	0.759080	0.592134	0.214603
C231	C	0.299124	0.092710	-0.212382
C232	C	0.799124	0.592710	0.287618
C233	C	0.259062	0.092102	-0.139370
C234	C	0.759062	0.592102	0.360630
H235	H	0.079618	0.089464	-0.212389
H236	H	0.579618	0.589464	0.287611
H237	H	0.149336	0.090523	-0.339449
H238	H	0.649336	0.590523	0.160551
H239	H	0.288736	0.092585	-0.339445
H240	H	0.788736	0.592585	0.160555
H241	H	0.358423	0.093587	-0.212379
H242	H	0.858423	0.593587	0.287621
H243	H	0.288705	0.092528	-0.085319
H244	H	0.788705	0.592528	0.414681
H245	H	0.711340	-0.235562	0.000012
H246	H	1.211340	0.264438	0.500012
C247	C	0.924488	-0.006907	0.346834
C248	C	1.424488	0.493093	0.846834
C249	C	0.976895	-0.059236	0.304684
C250	C	1.476895	0.440764	0.804684
C251	C	1.029292	-0.111581	0.346840
C252	C	1.529292	0.388419	0.846840
C253	C	1.029283	-0.111598	0.431145
C254	C	1.529283	0.388402	0.931145
C255	C	0.976874	-0.059267	0.473299
C256	C	1.476874	0.440733	0.973299
C257	C	0.924476	-0.006922	0.431143
C258	C	1.424476	0.493078	0.931143
H259	H	0.976904	-0.059225	0.242273
H260	H	1.476904	0.440775	0.742273
H261	H	1.068089	-0.150319	0.315634
H262	H	1.568089	0.349681	0.815634
H263	H	1.068070	-0.150347	0.462351
H264	H	1.568070	0.349653	0.962351
H265	H	0.976865	-0.059278	0.535710
H266	H	1.476865	0.440722	1.035710
H267	H	0.885680	0.031817	0.462349
H268	H	1.385680	0.531817	0.962349
C269	C	0.178922	0.090881	0.139402
C270	C	0.678922	0.590881	0.639402
C271	C	0.259022	0.092069	0.139404
C272	C	0.759022	0.592069	0.639404
C273	C	0.299066	0.092654	0.212418
C274	C	0.799066	0.592654	0.712418
C275	C	0.259009	0.092052	0.285429
C276	C	0.759009	0.592052	0.785429
C277	C	0.178904	0.090865	0.285429
C278	C	0.678904	0.590865	0.785429
C279	C	0.138860	0.090279	0.212415
C280	C	0.638860	0.590279	0.712415
H281	H	0.288679	0.092515	0.085354
H282	H	0.788679	0.592515	0.585354
H283	H	0.358365	0.093533	0.212417
H284	H	0.858365	0.593533	0.712417
H285	H	0.288652	0.092485	0.339477
H286	H	0.788652	0.592485	0.839477
H287	H	0.149247	0.090419	0.339478
H288	H	0.649247	0.590419	0.839478
H289	H	0.079561	0.089400	0.212416
H290	H	0.579561	0.589400	0.712416
C291	C	0.470037	0.095199	-0.139380
C292	C	0.970037	0.595199	0.360620
C293	C	0.488166	0.034732	-0.194127
C294	C	0.988166	0.534732	0.305873
C295	C	0.448120	0.034142	-0.267139
C296	C	0.948120	0.534142	0.232861
C297	C	0.389946	0.094020	-0.285404
C298	C	0.889946	0.594020	0.214596
C299	C	0.371814	0.154492	-0.230655
C300	C	0.871814	0.654492	0.269345
C301	C	0.411860	0.155081	-0.157643
C302	C	0.911860	0.655081	0.342357
H303	H	0.531232	-0.009597	-0.180608
H304	H	1.031232	0.490403	0.319392
H305	H	0.461543	-0.010623	-0.307667
H306	H	0.961543	0.489377	0.192333
H307	H	0.360302	0.093584	-0.339451
H308	H	0.860302	0.593584	0.160549
H309	H	0.328748	0.198821	-0.244174
H310	H	0.828748	0.698821	0.255826
H311	H	0.398437	0.199847	-0.117115
H312	H	0.898437	0.699847	0.382885
H313	H	0.910909	0.006694	0.664147
H314	H	1.410909	0.506694	1.164147
H315	H	0.612557	0.097291	-0.120417
H316	H	1.112557	0.597291	0.379583
H317	H	0.480423	0.095326	0.120432
H318	H	0.980423	0.595326	0.620432
C319	C	0.960253	-0.279307	0.000043
C320	C	1.460253	0.220693	0.500043
C321	C	1.030838	-0.248631	0.000061
C322	C	1.530838	0.251369	0.500061
C323	C	1.100241	-0.298057	0.000077
C324	C	1.600241	0.201943	0.500077
C325	C	1.099059	-0.378158	0.000076
C326	C	1.599059	0.121842	0.500076
C327	C	1.028471	-0.408838	0.000059
C328	C	1.528471	0.091162	0.500059
C329	C	0.959068	-0.359413	0.000042
C330	C	1.459068	0.140587	0.500042
H331	H	1.031716	-0.189332	0.000061
H332	H	1.531716	0.310668	0.500061
H333	H	1.152496	-0.275345	0.000090
H334	H	1.652496	0.224655	0.500090
H335	H	1.150435	-0.414745	0.000089
H336	H	1.650435	0.085255	0.500089
H337	H	1.027593	-0.468138	0.000058
H338	H	1.527593	0.031862	0.500058
H339	H	0.906813	-0.382125	0.000030
H340	H	1.406813	0.117875	0.500030
H341	H	0.612537	0.097273	0.120428
H342	H	1.112537	0.597273	0.620428
H343	H	0.944175	-0.134354	0.000050
H344	H	1.444175	0.365646	0.500050
