data_functionalizedCrystal
_audit_creation_method	'MofGen! by Chris Wilmer'
_symmetry_space_group_name_H-M	'P1'
_symmetry_Int_Tables_number	1
_symmetry_cell_setting	triclinic
loop_
_symmetry_equiv_pos_as_xyz
  x,y,z
_cell_length_a	12.759400
_cell_length_b	17.077404
_cell_length_c	17.077396
_cell_angle_alpha	90.017060
_cell_angle_beta	89.972811
_cell_angle_gamma	89.985090
loop_
_atom_site_label
_atom_site_type_symbol
_atom_site_fract_x
_atom_site_fract_y
_atom_site_fract_z
Zn1	Zn	-0.418243	-1.200080	-0.443859
Zn2	Zn	-0.593949	-1.200012	-0.312599
Zn3	Zn	-0.418285	-1.068818	-0.312606
Zn4	Zn	-0.593882	-1.068799	-0.443823
O5	O	-0.506090	-1.134427	-0.378222
O6	O	-0.441562	-1.309918	-0.426459
O7	O	-0.570692	-1.182588	-0.202753
O8	O	-0.271259	-1.086267	-0.330035
O9	O	-0.570652	-1.309868	-0.330023
O10	O	-0.271228	-1.182705	-0.426466
O11	O	-0.441633	-1.086200	-0.202759
O12	O	-0.441568	-0.958968	-0.330001
O13	O	-0.570537	-1.086235	-0.553674
O14	O	-0.570578	-0.958955	-0.426405
O15	O	-0.441497	-1.182686	-0.553701
O16	O	-0.740961	-1.182570	-0.329988
O17	O	-0.740912	-1.086168	-0.426398
C18	C	-0.506071	-0.930479	-0.378200
C19	C	-0.506088	-0.843230	-0.378209
C20	C	-0.779057	-1.134381	-0.378205
C21	C	-0.895834	-1.134433	-0.378225
C22	C	-0.506005	-1.134466	-0.582966
C23	C	-0.505968	-1.134483	-0.670216
C24	C	-0.950687	-1.184685	-0.328080
C25	C	-1.060411	-1.184733	-0.328104
C26	C	-1.060419	-1.084270	-0.428420
C27	C	-0.950697	-1.084227	-0.428399
C28	C	-0.895823	-1.234891	-0.277905
C29	C	-0.950676	-1.285146	-0.227755
C30	C	-1.060400	-1.285194	-0.227780
C31	C	-1.115271	-1.234987	-0.277954
C32	C	-0.232056	-1.134495	-0.378255
C33	C	-0.115280	-1.134525	-0.378270
C34	C	-0.506110	-1.339172	-0.378244
C35	C	-0.506118	-1.426421	-0.378253
C36	C	-0.573365	-0.802253	-0.428326
C37	C	-0.573367	-0.720272	-0.428339
C38	C	-0.506097	-0.679270	-0.378230
C39	C	-0.438813	-0.720253	-0.328111
C40	C	-0.438806	-0.802232	-0.328103
C41	C	-0.438833	-0.549383	-0.328130
C42	C	-0.438841	-0.467398	-0.328136
C43	C	-0.573394	-0.467423	-0.428366
C44	C	-0.573388	-0.549402	-0.428358
C45	C	-0.506104	-0.590379	-0.378237
C46	C	-0.573047	-1.184743	-1.046030
C47	C	-0.573078	-1.184723	-0.964050
C48	C	-0.505894	-1.134533	-0.923065
C49	C	-0.438683	-1.084354	-0.964065
C50	C	-0.438658	-1.084370	-1.046044
C51	C	-0.438737	-1.084325	-0.793195
C52	C	-0.438760	-1.084309	-0.711210
C53	C	-0.573157	-1.184677	-0.711200
C54	C	-0.573132	-1.184694	-0.793179
C55	C	-0.505919	-1.134515	-0.834174
C56	C	-0.506099	-1.134434	-0.174274
C57	C	-0.505839	-1.134569	-0.087025
H58	H	-0.806480	-1.234855	-0.277878
H59	H	-0.627834	-1.225567	-0.826547
H60	H	-0.628151	-0.686913	-0.469149
O61	O	-1.113880	-1.035523	-0.477077
C62	C	-1.222486	-1.046351	-0.466355
H63	H	-1.237501	-1.072104	-0.405803
H64	H	-1.253535	-1.088136	-0.512960
C65	C	-1.260456	-0.935316	-0.547856
C66	C	-1.278898	-0.966940	-0.473482
H67	H	-1.295255	-0.886332	-0.552256
H68	H	-1.187287	-0.928022	-0.555083
H69	H	-1.286331	-0.970145	-0.586685
H70	H	-1.253012	-0.932116	-0.434655
H71	H	-1.352065	-0.974225	-0.466249
H72	H	-0.905994	-1.326028	-0.186910
H73	H	-0.906036	-1.043308	-0.469233
O74	O	-0.638745	-0.841958	-0.477078
C75	C	-0.698142	-0.788207	-0.521302
H76	H	-0.655117	-0.729777	-0.524078
H77	H	-0.777889	-0.779465	-0.492457
C78	C	-0.766261	-0.891994	-0.601415
C79	C	-0.713413	-0.820232	-0.604831
H80	H	-0.775686	-0.911749	-0.652939
H81	H	-0.726248	-0.928208	-0.571619
H82	H	-0.832711	-0.884699	-0.577374
H83	H	-0.646959	-0.827529	-0.628862
H84	H	-0.753415	-0.784019	-0.634633
H85	H	-0.384005	-1.043464	-0.826570
H86	H	-0.627818	-1.225570	-0.930676
O87	O	-0.373272	-1.035608	-1.085747
C88	C	-0.313996	-0.991291	-1.031996
H89	H	-0.310377	-1.023433	-0.973563
H90	H	-0.352466	-0.931662	-1.023263
C91	C	-0.206614	-0.940533	-1.135781
C92	C	-0.202162	-0.980014	-1.064015
H93	H	-0.137631	-0.933574	-1.155532
H94	H	-0.246551	-0.970388	-1.171995
H95	H	-0.238677	-0.890847	-1.128494
H96	H	-0.170112	-1.029703	-1.071305
H97	H	-0.162217	-0.950168	-1.027803
H98	H	-1.105058	-1.326120	-0.186951
O99	O	-0.638566	-1.233307	-0.671350
C100	C	-0.706422	-1.188591	-0.623901
H101	H	-0.712896	-1.126770	-0.648599
H102	H	-0.673963	-1.185884	-0.561775
C103	C	-0.807693	-1.302844	-0.592299
C104	C	-0.815651	-1.226916	-0.622637
H105	H	-0.875070	-1.326486	-0.591515
H106	H	-0.761975	-1.332971	-0.624264
H107	H	-0.780640	-1.300578	-0.540530
H108	H	-0.842691	-1.229184	-0.674408
H109	H	-0.861376	-1.196791	-0.590681
O110	O	-0.638768	-0.589112	-0.477105
C111	C	-0.698174	-0.535368	-0.521331
H112	H	-0.655155	-0.476936	-0.524115
H113	H	-0.777919	-0.526628	-0.492483
C114	C	-0.766289	-0.639166	-0.601432
C115	C	-0.713448	-0.567401	-0.604856
H116	H	-0.775716	-0.658927	-0.652953
H117	H	-0.726270	-0.675376	-0.571635
H118	H	-0.832738	-0.631873	-0.577389
H119	H	-0.646996	-0.574697	-0.628891
H120	H	-0.753457	-0.531194	-0.634660
H121	H	-0.384036	-0.686862	-0.287314
O122	O	-0.373541	-0.427640	-0.279368
C123	C	-0.396351	-0.447602	-0.201089
H124	H	-0.436712	-0.507124	-0.199377
H125	H	-0.450331	-0.401446	-0.174589
C126	C	-0.244258	-0.378248	-0.155795
C127	C	-0.293822	-0.451357	-0.153692
H128	H	-0.181015	-0.380560	-0.126556
H129	H	-0.228892	-0.364796	-0.208533
H130	H	-0.289251	-0.339792	-0.133713
H131	H	-0.248834	-0.489809	-0.175782
H132	H	-0.309179	-0.464815	-0.100956
O133	O	-0.373625	-0.589278	-0.279403
C134	C	-0.433362	-0.636652	-0.228613
H135	H	-0.513025	-0.648928	-0.256200
H136	H	-0.444814	-0.605034	-0.170430
C137	C	-0.277692	-0.699453	-0.180584
C138	C	-0.375532	-0.714536	-0.214469
H139	H	-0.242018	-0.747494	-0.171855
H140	H	-0.237444	-0.667534	-0.214799
H141	H	-0.287249	-0.673102	-0.132101
H142	H	-0.365973	-0.740876	-0.262955
H143	H	-0.415776	-0.746461	-0.180261
O144	O	-0.373568	-1.035560	-0.924167
C145	C	-0.433391	-0.984823	-0.876744
H146	H	-0.513018	-1.012484	-0.864451
H147	H	-0.444915	-0.926653	-0.908327
C148	C	-0.277806	-0.936641	-0.813978
C149	C	-0.375603	-0.970618	-0.798875
H150	H	-0.242159	-0.927875	-0.765946
H151	H	-0.237501	-0.970821	-0.845930
H152	H	-0.287424	-0.888170	-0.840300
H153	H	-0.365984	-1.019092	-0.772563
H154	H	-0.415905	-0.936445	-0.766917
H155	H	-0.628176	-0.434056	-0.469178
H156	H	-1.204616	-1.235036	-0.277975
O157	O	-0.638259	-1.233609	-1.085752
C158	C	-0.615300	-1.311847	-1.065744
H159	H	-0.574929	-1.313472	-1.006230
H160	H	-0.561277	-1.338313	-1.111896
C161	C	-0.767317	-1.357369	-1.135034
C162	C	-0.717740	-1.359365	-1.061935
H163	H	-0.830506	-1.386682	-1.132687
H164	H	-0.782784	-1.304659	-1.148516
H165	H	-0.722288	-1.379423	-1.173486
H166	H	-0.762764	-1.337303	-1.023486
H167	H	-0.702284	-1.412073	-1.048446
H168	H	-0.384017	-0.835594	-0.287296
H169	H	-0.384050	-1.043442	-0.677843
