data_functionalizedCrystal
_audit_creation_method	'MofGen! by Chris Wilmer'
_symmetry_space_group_name_H-M	'P1'
_symmetry_Int_Tables_number	1
_symmetry_cell_setting	triclinic
loop_
_symmetry_equiv_pos_as_xyz
  x,y,z
_cell_length_a	16.959455
_cell_length_b	18.101395
_cell_length_c	16.959447
_cell_angle_alpha	89.970450
_cell_angle_beta	89.983056
_cell_angle_gamma	90.028051
loop_
_atom_site_label
_atom_site_type_symbol
_atom_site_fract_x
_atom_site_fract_y
_atom_site_fract_z
Zn1	Zn	1.208344	-0.294875	-0.446913
Zn2	Zn	1.708344	0.205125	0.053087
Zn3	Zn	1.208235	-0.418728	-0.314737
Zn4	Zn	1.708235	0.081272	0.185263
Zn5	Zn	1.076166	-0.294898	-0.314751
Zn6	Zn	1.576166	0.205102	0.185249
Zn7	Zn	1.076111	-0.418672	-0.446875
Zn8	Zn	1.576111	0.081328	0.053125
O9	O	1.142214	-0.356793	-0.380819
O10	O	1.642214	0.143207	0.119181
O11	O	1.318940	-0.311318	-0.429390
O12	O	1.818940	0.188682	0.070610
O13	O	1.190693	-0.402335	-0.204128
O14	O	1.690693	0.097665	0.295872
O15	O	1.093768	-0.191262	-0.332304
O16	O	1.593768	0.308738	0.167696
O17	O	1.318860	-0.402312	-0.332280
O18	O	1.818860	0.097688	0.167720
O19	O	1.190879	-0.191245	-0.429404
O20	O	1.690879	0.308755	0.070596
O21	O	1.093662	-0.311357	-0.204138
O22	O	1.593662	0.188643	0.295862
O23	O	0.965548	-0.311304	-0.332267
O24	O	1.465548	0.188696	0.167733
O25	O	1.093675	-0.402217	-0.557491
O26	O	1.593675	0.097783	-0.057491
O27	O	0.965508	-0.402240	-0.429339
O28	O	1.465508	0.097760	0.070661
O29	O	1.190825	-0.311264	-0.557519
O30	O	1.690825	0.188736	-0.057519
O31	O	1.190640	-0.522353	-0.332243
O32	O	1.690640	-0.022353	0.167757
O33	O	1.093569	-0.522313	-0.429325
O34	O	1.593569	-0.022313	0.070675
C35	C	0.936848	-0.356769	-0.380801
C36	C	1.436848	0.143231	0.119199
C37	C	0.848991	-0.356776	-0.380812
C38	C	1.348991	0.143224	0.119188
C39	C	0.477512	-0.309404	-0.330380
C40	C	0.977512	0.190596	0.169620
C41	C	0.477519	-0.404244	-0.431304
C42	C	0.977519	0.095756	0.068696
C43	C	0.560065	-0.404233	-0.431299
C44	C	1.060065	0.095767	0.068701
C45	C	0.601338	-0.356808	-0.380833
C46	C	1.101338	0.143192	0.119167
C47	C	0.560066	-0.309393	-0.330372
C48	C	1.060066	0.190607	0.169628
C49	C	0.601344	-0.451652	-0.481754
C50	C	1.101344	0.048348	0.018246
C51	C	0.683895	-0.451644	-0.481750
C52	C	1.183895	0.048356	0.018250
C53	C	0.725169	-0.404214	-0.431287
C54	C	1.225169	0.095786	0.068713
C55	C	0.683892	-0.356797	-0.380825
C56	C	1.183892	0.143203	0.119175
C57	C	0.725165	-0.309372	-0.330359
C58	C	1.225165	0.190628	0.169641
C59	C	0.683889	-0.261951	-0.279899
C60	C	1.183889	0.238049	0.220101
C61	C	0.601340	-0.261964	-0.279909
C62	C	1.101340	0.238036	0.220091
C63	C	0.807718	-0.404201	-0.431278
C64	C	1.307718	0.095799	0.068722
C65	C	0.807718	-0.309362	-0.330351
C66	C	1.307718	0.190638	0.169649
C67	C	1.142108	-0.549204	-0.380796
C68	C	1.642108	-0.049204	0.119204
C69	C	1.142135	-0.631518	-0.380812
C70	C	1.642135	-0.131518	0.119188
C71	C	1.142309	-0.930609	-0.380855
C72	C	1.642309	-0.430609	0.119145
C73	C	1.081376	-0.899289	-0.442088
C74	C	1.581376	-0.399289	0.057912
C75	C	1.081087	-0.813671	-0.441896
C76	C	1.581087	-0.313671	0.058104
C77	C	1.142223	-0.782226	-0.380834
C78	C	1.642223	-0.282226	0.119166
C79	C	1.119672	-0.813380	-0.297530
C80	C	1.619672	-0.313380	0.202470
C81	C	1.119279	-0.899025	-0.297896
C82	C	1.619279	-0.399025	0.202104
C83	C	1.225925	-0.898956	-0.402193
C84	C	1.725925	-0.398956	0.097807
C85	C	1.225433	-0.813305	-0.404020
C86	C	1.725433	-0.313305	0.095980
C87	C	1.142175	-0.698367	-0.380818
C88	C	1.642175	-0.198367	0.119182
C89	C	1.142354	-1.014468	-0.380866
C90	C	1.642354	-0.514468	0.119134
C91	C	1.348382	-0.356818	-0.380838
C92	C	1.848382	0.143182	0.119162
C93	C	1.436239	-0.356829	-0.380846
C94	C	1.936239	0.143171	0.119154
C95	C	1.142256	-0.356732	-0.586987
C96	C	1.642256	0.143268	-0.086987
C97	C	1.142274	-0.356705	-0.674844
C98	C	1.642274	0.143295	-0.174844
C99	C	1.142342	-0.163631	-0.380860
C100	C	1.642342	0.336369	0.119140
C101	C	1.142396	-0.081317	-0.380877
C102	C	1.642396	0.418683	0.119123
C103	C	1.091825	-0.309260	-1.046332
C104	C	1.591825	0.190740	-0.546332
C105	C	1.192863	-0.403995	-1.046308
C106	C	1.692863	0.096005	-0.546308
C107	C	1.192849	-0.404012	-0.963762
C108	C	1.692849	0.095988	-0.463762
C109	C	1.142322	-0.356653	-0.922497
C110	C	1.642322	0.143347	-0.422497
C111	C	1.091808	-0.309277	-0.963778
C112	C	1.591808	0.190723	-0.463778
C113	C	1.243357	-0.451393	-0.922475
C114	C	1.743357	0.048607	-0.422475
C115	C	1.243344	-0.451413	-0.839924
C116	C	1.743344	0.048587	-0.339924
C117	C	1.192820	-0.404050	-0.798658
C118	C	1.692820	0.095950	-0.298658
C119	C	1.142305	-0.356671	-0.839944
C120	C	1.642305	0.143329	-0.339944
C121	C	1.091777	-0.309312	-0.798678
C122	C	1.591777	0.190688	-0.298678
C123	C	1.041265	-0.261929	-0.839963
C124	C	1.541265	0.238071	-0.339963
C125	C	1.041284	-0.261914	-0.922511
C126	C	1.541284	0.238086	-0.422511
C127	C	1.192802	-0.404064	-0.716109
C128	C	1.692802	0.095936	-0.216109
C129	C	1.091760	-0.309329	-0.716125
C130	C	1.591760	0.190671	-0.216125
C131	C	1.142217	-0.356801	-0.175453
C132	C	1.642217	0.143199	0.324547
C133	C	1.142352	-0.356619	-0.087597
C134	C	1.642352	0.143381	0.412403
H135	H	0.567726	-0.223357	-0.238827
H136	H	1.067726	0.276643	0.261173
H137	H	1.058156	-0.919065	-0.279821
H138	H	1.558156	-0.419065	0.220179
H139	H	1.000159	-0.223338	-0.956132
H140	H	1.500159	0.276662	-0.456132
N141	N	0.433012	-0.455391	-0.485738
N142	N	0.933012	0.044609	0.014262
H143	H	0.447355	-0.508288	-0.473365
H144	H	0.947355	-0.008288	0.026635
H145	H	0.374469	-0.448143	-0.478064
H146	H	0.874469	0.051857	0.021936
H147	H	1.095345	-0.919835	-0.504057
H148	H	1.595345	-0.419835	-0.004057
H149	H	1.284485	-0.489959	-0.956079
H150	H	1.784485	0.010041	-0.456079
H151	H	1.271322	-0.919210	-0.357595
H152	H	1.771322	-0.419210	0.142405
N153	N	0.852235	-0.455348	-0.485690
N154	N	1.352235	0.044652	0.014310
H155	H	0.837896	-0.443920	-0.542190
H156	H	1.337896	0.056080	-0.042190
H157	H	0.910777	-0.448121	-0.477961
H158	H	1.410777	0.051879	0.022039
H159	H	1.095195	-0.792605	-0.503666
H160	H	1.595195	-0.292605	-0.003666
N161	N	1.247347	-0.455084	-1.090811
N162	N	1.747347	0.044916	-0.590811
H163	H	1.239689	-0.447887	-1.149369
H164	H	1.739689	0.052113	-0.649369
H165	H	1.303806	-0.443572	-1.076397
H166	H	1.803806	0.056428	-0.576397
H167	H	1.161735	-0.919746	-0.250718
H168	H	1.661735	-0.419746	0.249282
H169	H	1.019774	-0.920873	-0.428131
H170	H	1.519774	-0.420873	0.071869
H171	H	1.050701	-0.270680	-1.079949
H172	H	1.550701	0.229320	-0.579949
N173	N	1.037271	-0.258240	-0.671619
N174	N	1.537271	0.241760	-0.171619
H175	H	1.005280	-0.228222	-0.710300
H176	H	1.505280	0.271778	-0.210300
H177	H	1.000660	-0.288382	-0.637356
H178	H	1.500660	0.211618	-0.137356
N179	N	0.986765	-0.210849	-0.795458
N180	N	1.486765	0.289151	-0.295458
H181	H	0.950108	-0.240950	-0.761199
H182	H	1.450108	0.259050	-0.261199
H183	H	1.018960	-0.176554	-0.761264
H184	H	1.518960	0.323446	-0.261264
N185	N	1.253173	-0.927514	-0.481274
N186	N	1.753173	-0.427514	0.018726
H187	H	1.306931	-0.906527	-0.493797
H188	H	1.806931	-0.406527	0.006203
H189	H	1.256293	-0.983208	-0.479550
H190	H	1.756293	-0.483208	0.020450
H191	H	1.019108	-0.793245	-0.427762
H192	H	1.519108	-0.293245	0.072238
N193	N	1.297822	-0.502515	-0.795399
N194	N	1.797822	-0.002515	-0.295399
H195	H	1.329832	-0.532514	-0.834067
H196	H	1.829832	-0.032514	-0.334067
H197	H	1.334416	-0.472380	-0.761165
H198	H	1.834416	0.027620	-0.261165
H199	H	1.233933	-0.442638	-0.682499
H200	H	1.733933	0.057362	-0.182499
N201	N	0.433000	-0.258271	-0.275944
N202	N	0.933000	0.241729	0.224056
H203	H	0.374442	-0.265475	-0.283599
H204	H	0.874442	0.234525	0.216401
H205	H	0.447412	-0.269747	-0.219475
H206	H	0.947412	0.230253	0.280525
H207	H	0.567733	-0.490268	-0.522835
H208	H	1.067733	0.009732	-0.022835
H209	H	0.841317	-0.270737	-0.289259
H210	H	1.341317	0.229263	0.210741
N211	N	1.247968	-0.786333	-0.485227
N212	N	1.747968	-0.286333	0.014773
H213	H	1.204464	-0.754114	-0.506913
H214	H	1.704464	-0.254114	-0.006913
H215	H	1.298385	-0.756790	-0.481831
H216	H	1.798385	-0.256790	0.018169
H217	H	1.162656	-0.793013	-0.250663
H218	H	1.662656	-0.293013	0.249337
H219	H	1.059196	-0.791992	-0.279130
H220	H	1.559196	-0.291992	0.220870
N221	N	0.728408	-0.210806	-0.225464
N222	N	1.228408	0.289194	0.274536
H223	H	0.786964	-0.218001	-0.233116
H224	H	1.286964	0.281999	0.266884
H225	H	0.714012	-0.157929	-0.237867
H226	H	1.214012	0.342071	0.262133
H227	H	0.717495	-0.490257	-0.522838
H228	H	1.217495	0.009743	-0.022838
H229	H	1.273233	-0.791896	-0.362672
H230	H	1.773233	-0.291896	0.137328
