data_functionalizedCrystal
_audit_creation_method	'MofGen! by Chris Wilmer'
_symmetry_space_group_name_H-M	'P1'
_symmetry_Int_Tables_number	1
_symmetry_cell_setting	triclinic
loop_
_symmetry_equiv_pos_as_xyz
  x,y,z
_cell_length_a	27.732048
_cell_length_b	27.732048
_cell_length_c	26.809956
_cell_angle_alpha	90.000636
_cell_angle_beta	90.003258
_cell_angle_gamma	82.642655
loop_
_atom_site_label
_atom_site_type_symbol
_atom_site_fract_x
_atom_site_fract_y
_atom_site_fract_z
O1	O	-0.640931	-0.057510	-0.041421
O2	O	-0.140931	0.442490	0.458579
O3	O	-0.500138	-0.066256	-0.041436
O4	O	-0.000138	0.433744	0.458564
O5	O	-0.574907	0.008514	-0.041419
O6	O	-0.074907	0.508514	0.458581
O7	O	-0.566162	-0.132280	-0.041439
O8	O	-0.066162	0.367720	0.458561
O9	O	-0.574893	0.008502	0.041541
O10	O	-0.074893	0.508502	0.541541
O11	O	-0.500123	-0.066267	0.041523
O12	O	-0.000123	0.433733	0.541523
O13	O	-0.640917	-0.057522	0.041539
O14	O	-0.140917	0.442478	0.541539
Zn15	Zn	-0.570518	-0.061896	0.054702
Zn16	Zn	-0.070518	0.438104	0.554702
Zn17	Zn	-0.570536	-0.061881	-0.054600
Zn18	Zn	-0.070536	0.438119	0.445400
O19	O	-0.566147	-0.132291	0.041521
O20	O	-0.066147	0.367709	0.541521
C21	C	-0.482124	-0.066078	0.000041
C22	C	0.017876	0.433922	0.500041
C23	C	-0.428469	-0.065525	0.000036
C24	C	0.071531	0.434475	0.500036
C25	C	-0.574716	0.026515	0.000062
C26	C	-0.074716	0.526515	0.500062
C27	C	-0.574164	0.080170	0.000066
C28	C	-0.074164	0.580170	0.500066
C29	C	-0.658931	-0.057699	0.000060
C30	C	-0.158931	0.442301	0.500060
C31	C	-0.712586	-0.058252	0.000062
C32	C	-0.212586	0.441748	0.500062
C33	C	-0.089654	-0.106229	0.000051
C34	C	0.410346	0.393771	0.500051
C35	C	0.112006	-0.104178	0.000056
C36	C	0.612006	0.395822	0.500056
O37	O	0.143262	-0.141398	0.000073
O38	O	0.643262	0.358602	0.500073
N39	N	0.131130	-0.059843	0.000062
N40	N	0.631130	0.440157	0.500062
C41	C	0.099835	-0.016017	0.000069
C42	C	0.599835	0.483983	0.500069
O43	O	0.120728	0.021740	0.000079
O44	O	0.620728	0.521740	0.500079
C45	C	-0.101824	-0.018068	0.000068
C46	C	0.398176	0.481932	0.500068
C47	C	-0.120944	-0.062407	0.000057
C48	C	0.379056	0.437593	0.500057
C49	C	-0.108775	-0.150563	0.000042
C50	C	0.391225	0.349437	0.500042
C51	C	-0.159187	-0.151076	0.000038
C52	C	0.340813	0.348924	0.500038
C53	C	-0.190477	-0.107253	0.000044
C54	C	0.309523	0.392747	0.500044
C55	C	-0.171356	-0.062919	0.000054
C56	C	0.328644	0.437081	0.500054
C57	C	-0.133117	0.025757	0.000079
C58	C	0.366883	0.525757	0.500079
C59	C	-0.183535	0.025240	0.000080
C60	C	0.316465	0.525240	0.500080
C61	C	-0.202655	-0.019098	0.000069
C62	C	0.297345	0.480902	0.500069
C63	C	-0.253059	-0.019609	0.000056
C64	C	0.246941	0.480391	0.500056
N65	N	-0.272183	-0.063944	0.000050
N66	N	0.227817	0.436056	0.500050
C67	C	-0.240892	-0.107766	0.000044
C68	C	0.259108	0.392234	0.500044
C69	C	0.205709	-0.014943	0.000069
C70	C	0.705709	0.485057	0.500069
C71	C	0.256124	-0.014430	0.000068
C72	C	0.756124	0.485570	0.500068
C73	C	0.268291	-0.102591	0.000056
C74	C	0.768291	0.397409	0.500056
C75	C	0.217876	-0.103104	0.000053
C76	C	0.717876	0.396896	0.500053
C77	C	0.186585	-0.059278	0.000063
C78	C	0.686585	0.440722	0.500063
C79	C	-0.346761	-0.108839	0.000036
C80	C	0.153239	0.391161	0.500036
C81	C	-0.397178	-0.109347	0.000030
C82	C	0.102822	0.390653	0.500030
C83	C	-0.409341	-0.021186	0.000044
C84	C	0.090659	0.478814	0.500044
C85	C	-0.358929	-0.020678	0.000048
C86	C	0.141071	0.479322	0.500048
C87	C	-0.327639	-0.064508	0.000045
C88	C	0.172361	0.435492	0.500045
O89	O	-0.284343	0.017592	0.000045
O90	O	0.215657	0.517592	0.500045
O91	O	-0.261794	-0.145518	0.000045
O92	O	0.238206	0.354482	0.500045
C93	C	-0.039242	-0.105716	0.000055
C94	C	0.460758	0.394284	0.500055
C95	C	-0.020120	-0.061382	0.000065
C96	C	0.479880	0.438618	0.500065
C97	C	-0.051411	-0.017560	0.000071
C98	C	0.448589	0.482440	0.500071
C99	C	0.030294	-0.060869	0.000065
C100	C	0.530294	0.439131	0.500065
C101	C	0.061585	-0.104691	0.000059
C102	C	0.561585	0.395309	0.500059
C103	C	0.042461	-0.149026	0.000053
C104	C	0.542461	0.350974	0.500053
C105	C	-0.007951	-0.149539	0.000049
C106	C	0.492049	0.350461	0.500049
C107	C	-0.032287	0.026775	0.000077
C108	C	0.467713	0.526775	0.500077
C109	C	0.018125	0.027284	0.000080
C110	C	0.518125	0.527284	0.500080
C111	C	0.049416	-0.016538	0.000074
C112	C	0.549416	0.483462	0.500074
C113	C	-0.566338	-0.150292	0.000039
C114	C	-0.066338	0.349708	0.500039
C115	C	-0.566891	-0.203947	0.000031
C116	C	-0.066891	0.296053	0.500031
N117	N	-0.570509	-0.061906	0.129298
N118	N	-0.070509	0.438094	0.629298
C119	C	-0.614867	0.418985	0.000045
C120	C	-0.114867	0.918985	0.500045
C121	C	-0.612816	0.620645	0.000038
C122	C	-0.112816	1.120645	0.500038
O123	O	-0.650037	0.651900	0.000021
O124	O	-0.150037	1.151900	0.500021
N125	N	-0.568481	0.639768	0.000034
N126	N	-0.068481	1.139768	0.500034
C127	C	-0.524656	0.608474	0.000028
C128	C	-0.024656	1.108474	0.500028
O129	O	-0.486899	0.629367	0.000019
O130	O	0.013101	1.129367	0.500019
C131	C	-0.526707	0.406815	0.000031
C132	C	-0.026707	0.906815	0.500031
C133	C	-0.571045	0.387694	0.000041
C134	C	-0.071045	0.887694	0.500041
C135	C	-0.659202	0.399864	0.000054
C136	C	-0.159202	0.899864	0.500054
C137	C	-0.659714	0.349452	0.000059
C138	C	-0.159714	0.849452	0.500059
C139	C	-0.615892	0.318161	0.000054
C140	C	-0.115892	0.818161	0.500054
C141	C	-0.571557	0.337282	0.000045
C142	C	-0.071557	0.837282	0.500045
C143	C	-0.482882	0.375521	0.000022
C144	C	0.017118	0.875521	0.500022
C145	C	-0.483399	0.325104	0.000021
C146	C	0.016601	0.825104	0.500021
C147	C	-0.527737	0.305983	0.000031
C148	C	-0.027737	0.805983	0.500031
C149	C	-0.528247	0.255580	0.000045
C150	C	-0.028247	0.755580	0.500045
N151	N	-0.572583	0.236456	0.000050
N152	N	-0.072583	0.736456	0.500050
C153	C	-0.616405	0.267747	0.000054
C154	C	-0.116405	0.767747	0.500054
C155	C	-0.523582	0.714348	0.000027
C156	C	-0.023582	1.214348	0.500027
C157	C	-0.523069	0.764762	0.000027
C158	C	-0.023069	1.264762	0.500027
C159	C	-0.611230	0.776930	0.000036
C160	C	-0.111230	1.276930	0.500036
C161	C	-0.611742	0.726514	0.000040
C162	C	-0.111742	1.226514	0.500040
C163	C	-0.567917	0.695224	0.000031
C164	C	-0.067917	1.195224	0.500031
C165	C	-0.617477	0.161878	0.000064
C166	C	-0.117477	0.661878	0.500064
C167	C	-0.617986	0.111461	0.000071
C168	C	-0.117986	0.611461	0.500071
C169	C	-0.529825	0.099298	0.000059
C170	C	-0.029825	0.599298	0.500059
C171	C	-0.529316	0.149710	0.000055
C172	C	-0.029316	0.649710	0.500055
C173	C	-0.573147	0.180999	0.000056
C174	C	-0.073147	0.680999	0.500056
O175	O	-0.491047	0.224296	0.000057
O176	O	0.008953	0.724296	0.500057
O177	O	-0.654156	0.246844	0.000053
O178	O	-0.154156	0.746844	0.500053
C179	C	-0.614355	0.469397	0.000041
C180	C	-0.114355	0.969397	0.500041
C181	C	-0.570021	0.488518	0.000032
C182	C	-0.070021	0.988518	0.500032
C183	C	-0.526198	0.457228	0.000027
C184	C	-0.026198	0.957228	0.500027
C185	C	-0.569508	0.538933	0.000032
C186	C	-0.069508	1.038933	0.500032
C187	C	-0.613330	0.570223	0.000036
C188	C	-0.113330	1.070223	0.500036
C189	C	-0.657665	0.551100	0.000041
C190	C	-0.157665	1.051100	0.500041
C191	C	-0.658177	0.500688	0.000045
C192	C	-0.158177	1.000688	0.500045
C193	C	-0.481863	0.476351	0.000023
C194	C	0.018137	0.976351	0.500023
C195	C	-0.481355	0.526764	0.000019
C196	C	0.018645	1.026764	0.500019
C197	C	-0.525177	0.558054	0.000023
C198	C	-0.025177	1.058054	0.500023
N199	N	-0.570549	-0.061867	-0.129196
N200	N	-0.070549	0.438133	0.370804
C201	C	-0.603640	-0.028781	0.473932
C202	C	-0.103640	0.471219	0.973932
C203	C	-0.603652	-0.028774	0.682810
C204	C	-0.103652	0.471226	1.182810
O205	O	-0.631801	-0.000613	0.709820
O206	O	-0.131801	0.499387	1.209820
N207	N	-0.570539	-0.061870	0.708925
N208	N	-0.070539	0.438130	1.208925
C209	C	-0.537419	-0.094969	0.682818
C210	C	-0.037419	0.405031	1.182818
O211	O	-0.509252	-0.123116	0.709824
O212	O	-0.009252	0.376884	1.209824
C213	C	-0.537406	-0.094974	0.473941
C214	C	-0.037406	0.405026	0.973941
C215	C	-0.570524	-0.061878	0.447829
C216	C	-0.070524	0.438122	0.947829
C217	C	-0.636755	0.004312	0.447819
C218	C	-0.136755	0.504312	0.947819
C219	C	-0.636754	0.004308	0.395603
C220	C	-0.136754	0.504308	0.895603
C221	C	-0.603637	-0.028789	0.369500
C222	C	-0.103637	0.471211	0.869500
C223	C	-0.570522	-0.061882	0.395612
C224	C	-0.070522	0.438118	0.895612
C225	C	-0.504284	-0.128070	0.447835
C226	C	-0.004284	0.371930	0.947835
C227	C	-0.504283	-0.128067	0.395613
C228	C	-0.004283	0.371933	0.895613
C229	C	-0.537401	-0.094972	0.369500
C230	C	-0.037401	0.405028	0.869500
C231	C	-0.537405	-0.094983	0.317293
C232	C	-0.037405	0.405017	0.817293
N233	N	-0.570517	-0.061887	0.291177
N234	N	-0.070517	0.438113	0.791177
C235	C	-0.603633	-0.028790	0.317281
C236	C	-0.103633	0.471210	0.817281
C237	C	-0.537429	-0.094965	0.792481
C238	C	-0.037429	0.405035	1.292481
C239	C	-0.537433	-0.094964	0.844700
C240	C	-0.037433	0.405036	1.344700
C241	C	-0.603665	-0.028768	0.844689
C242	C	-0.103665	0.471232	1.344689
C243	C	-0.603663	-0.028772	0.792469
C244	C	-0.103663	0.471228	1.292469
C245	C	-0.570542	-0.061868	0.766366
C246	C	-0.070542	0.438132	1.266366
C247	C	-0.603628	-0.028801	0.207623
C248	C	-0.103628	0.471199	0.707623
C249	C	-0.603625	-0.028809	0.155402
C250	C	-0.103625	0.471191	0.655402
C251	C	-0.537392	-0.095003	0.155418
C252	C	-0.037392	0.404997	0.655418
C253	C	-0.537396	-0.094997	0.207635
C254	C	-0.037396	0.405003	0.707635
C255	C	-0.570516	-0.061892	0.233735
C256	C	-0.070516	0.438108	0.733735
O257	O	-0.509266	-0.123126	0.290250
O258	O	-0.009266	0.376874	0.790250
O259	O	-0.631789	-0.000640	0.290266
O260	O	-0.131789	0.499360	0.790266
C261	C	-0.603642	-0.028777	0.526149
C262	C	-0.103642	0.471223	1.026149
C263	C	-0.570527	-0.061870	0.552261
C264	C	-0.070527	0.438130	1.052261
C265	C	-0.537410	-0.094968	0.526158
C266	C	-0.037410	0.405032	1.026158
C267	C	-0.570531	-0.061870	0.604480
C268	C	-0.070531	0.438130	1.104480
C269	C	-0.603647	-0.028773	0.630584
C270	C	-0.103647	0.471227	1.130584
C271	C	-0.636759	0.004324	0.604468
C272	C	-0.136759	0.504324	1.104468
C273	C	-0.636758	0.004320	0.552252
C274	C	-0.136758	0.504320	1.052252
C275	C	-0.504298	-0.128064	0.552273
C276	C	-0.004298	0.371936	1.052273
C277	C	-0.504303	-0.128058	0.604489
C278	C	-0.004303	0.371942	1.104489
C279	C	-0.537419	-0.094961	0.630593
C280	C	-0.037419	0.405039	1.130593
H281	H	-0.412743	-0.145454	0.000021
H282	H	0.087257	0.354546	0.500021
H283	H	-0.321291	-0.144530	0.000035
H284	H	0.178709	0.355470	0.500035
H285	H	-0.477330	-0.155015	0.531024
H286	H	0.022670	0.344985	1.031024
H287	H	-0.487892	0.688875	0.000020
H288	H	0.012108	1.188875	0.500020
H289	H	-0.174750	-0.187180	0.000029
H290	H	0.325250	0.312820	0.500029
O291	O	-0.700247	0.581481	0.000132
O292	O	-0.200247	1.081481	0.500132
C293	C	-0.775447	0.607304	0.043097
C294	C	-0.275447	1.107304	0.543097
C295	C	-0.727240	0.572876	0.043066
C296	C	-0.227240	1.072876	0.543066
H297	H	-0.797289	0.600352	0.077799
H298	H	-0.297289	1.100352	0.577799
H299	H	-0.767488	0.646629	0.043124
H300	H	-0.267488	1.146629	0.543124
H301	H	-0.797270	0.600396	0.008364
H302	H	-0.297270	1.100396	0.508364
H303	H	-0.705394	0.579740	0.077792
H304	H	-0.205394	1.079740	0.577792
H305	H	-0.735234	0.533562	0.043012
H306	H	-0.235234	1.033562	0.543012
H307	H	-0.477317	-0.155019	0.469089
H308	H	0.022683	0.344981	0.969089
H309	H	-0.647846	0.710950	0.000047
H310	H	-0.147846	1.210950	0.500047
H311	H	0.202311	-0.139207	0.000047
H312	H	0.702311	0.360793	0.500047
H313	H	-0.663720	0.031258	0.374345
H314	H	-0.163720	0.531258	0.874345
O315	O	-0.439798	0.394063	-0.000079
O316	O	0.060202	0.894063	0.499921
C317	C	-0.364288	0.399040	-0.043065
C318	C	0.135712	0.899040	0.456935
C319	C	-0.413072	0.378021	-0.043017
C320	C	0.086928	0.878021	0.456983
H321	H	-0.342661	0.386070	-0.077771
H322	H	0.157339	0.886070	0.422229
H323	H	-0.371409	0.440449	-0.043098
H324	H	0.128591	0.940449	0.456902
H325	H	-0.342664	0.386131	-0.008336
H326	H	0.157336	0.886131	0.491664
H327	H	-0.434721	0.390893	-0.077740
H328	H	0.065279	0.890893	0.422260
H329	H	-0.405916	0.336614	-0.042958
H330	H	0.094084	0.836614	0.457042
O331	O	-0.340327	0.022378	-0.000034
O332	O	0.159673	0.522378	0.499966
C333	C	-0.290442	0.074116	-0.042978
C334	C	0.209558	0.574116	0.457022
C335	C	-0.311481	0.025343	-0.042960
C336	C	0.188519	0.525343	0.457040
H337	H	-0.267108	0.076525	-0.077674
H338	H	0.232892	0.576525	0.422326
H339	H	-0.321448	0.105369	-0.043008
H340	H	0.178552	0.605369	0.456992
H341	H	-0.267167	0.076546	-0.008239
H342	H	0.232833	0.576546	0.491761
H343	H	-0.334750	0.022865	-0.077693
H344	H	0.165250	0.522865	0.422307
H345	H	-0.280452	-0.005887	-0.042903
H346	H	0.219548	0.494113	0.457097
H347	H	-0.446177	0.450879	0.000018
H348	H	0.053823	0.950879	0.500018
O349	O	-0.078452	-0.193180	0.000012
O350	O	0.421548	0.306820	0.500012
C351	C	-0.071721	-0.280677	0.000020
C352	C	0.428279	0.219323	0.500020
C353	C	-0.106113	-0.232445	0.000048
C354	C	0.393887	0.267555	0.500048
H355	H	-0.094071	-0.312435	0.000060
H356	H	0.405929	0.187565	0.500060
H357	H	-0.047828	-0.282671	-0.034708
H358	H	0.452172	0.217329	0.465292
H359	H	-0.047799	-0.282627	0.034728
H360	H	0.452201	0.217373	0.534728
H361	H	-0.130065	-0.230462	-0.034637
H362	H	0.369935	0.269538	0.465363
H363	H	-0.129973	-0.230471	0.034799
H364	H	0.370027	0.269529	0.534799
H365	H	0.293777	-0.138273	0.000051
H366	H	0.793777	0.361727	0.500051
H367	H	0.271687	0.021674	0.000069
H368	H	0.771687	0.521674	0.500069
O369	O	0.175386	0.027676	0.000053
O370	O	0.675386	0.527676	0.500053
C371	C	0.168651	0.115173	0.000092
C372	C	0.668651	0.615173	0.500092
C373	C	0.203044	0.066943	0.000100
C374	C	0.703044	0.566943	0.500100
H375	H	0.190999	0.146932	0.000140
H376	H	0.690999	0.646932	0.500140
H377	H	0.144750	0.117178	-0.034634
H378	H	0.644750	0.617178	0.465366
H379	H	0.144737	0.117111	0.034802
H380	H	0.644737	0.617111	0.534802
H381	H	0.226989	0.064972	-0.034587
H382	H	0.726989	0.564972	0.465413
H383	H	0.226912	0.064958	0.034850
H384	H	0.726912	0.564958	0.534850
O385	O	-0.487245	0.068918	0.000140
O386	O	0.012755	0.568918	0.500140
C387	C	-0.412026	0.043101	0.043081
C388	C	0.087974	0.543101	0.543081
C389	C	-0.460235	0.077527	0.043063
C390	C	0.039765	0.577527	0.543063
H391	H	-0.390170	0.050056	0.077775
H392	H	0.109830	0.550056	0.577775
H393	H	-0.419982	0.003775	0.043114
H394	H	0.080018	0.503775	0.543114
H395	H	-0.390219	0.050009	0.008340
H396	H	0.109781	0.550009	0.508340
H397	H	-0.482066	0.070662	0.077798
H398	H	0.017934	0.570662	0.577798
H399	H	-0.452244	0.116841	0.043004
H400	H	0.047756	0.616841	0.543004
H401	H	0.033688	0.063392	0.000085
H402	H	0.533688	0.563392	0.500085
O403	O	-0.439723	0.021393	-0.000038
O404	O	0.060277	0.521393	0.499962
C405	C	-0.465545	0.096606	-0.042985
C406	C	0.034455	0.596606	0.457015
C407	C	-0.431117	0.048399	-0.042963
C408	C	0.068883	0.548399	0.457037
H409	H	-0.458592	0.118458	-0.077680
H410	H	0.041408	0.618458	0.422320
H411	H	-0.504870	0.088646	-0.043019
H412	H	-0.004870	0.588646	0.456981
H413	H	-0.458638	0.118417	-0.008245
H414	H	0.041362	0.618417	0.491755
H415	H	-0.437980	0.026563	-0.077697
H416	H	0.062020	0.526563	0.422303
H417	H	-0.391803	0.056393	-0.042903
H418	H	0.108197	0.556393	0.457097
O419	O	0.072930	-0.191552	0.000069
O420	O	0.572930	0.308448	0.500069
C421	C	0.155995	-0.229821	0.000040
C422	C	0.655995	0.270179	0.500040
C423	C	0.121541	-0.181630	0.000030
C424	C	0.621541	0.318370	0.500030
H425	H	0.195304	-0.221816	-0.000002
H426	H	0.695304	0.278184	0.499998
H427	H	0.149124	-0.251670	0.034763
H428	H	0.649124	0.248330	0.534763
H429	H	0.149058	-0.251657	-0.034673
H430	H	0.649058	0.248343	0.465327
H431	H	0.128458	-0.159754	0.034720
H432	H	0.628458	0.340246	0.534720
H433	H	0.128419	-0.159817	-0.034716
H434	H	0.628419	0.340183	0.465284
O435	O	-0.635847	0.003376	0.232895
O436	O	-0.135847	0.503376	0.732895
C437	C	-0.701519	0.069051	0.227358
C438	C	-0.201519	0.569051	0.727358
C439	C	-0.665065	0.032632	0.198676
C440	C	-0.165065	0.532632	0.698676
H441	H	-0.725145	0.092721	0.199704
H442	H	-0.225145	0.592721	0.699704
H443	H	-0.725547	0.048378	0.251792
H444	H	-0.225547	0.548378	0.751792
H445	H	-0.680826	0.093039	0.251819
H446	H	-0.180826	0.593039	0.751819
H447	H	-0.685719	0.008635	0.174188
H448	H	-0.185719	0.508635	0.674188
H449	H	-0.641038	0.053336	0.174274
H450	H	-0.141038	0.553336	0.674274
H451	H	-0.117558	0.061861	0.000088
H452	H	0.382442	0.561861	0.500088
H453	H	-0.057760	0.062462	0.000083
H454	H	0.442240	0.562462	0.500083
H455	H	-0.023514	-0.185643	0.000042
H456	H	0.476486	0.314357	0.500042
O457	O	-0.213861	0.067857	0.000065
O458	O	0.286139	0.567857	0.500065
C459	C	-0.220604	0.155355	0.000110
C460	C	0.279396	0.655355	0.500110
C461	C	-0.186206	0.107127	0.000117
C462	C	0.313794	0.607127	0.500117
H463	H	-0.198259	0.187117	0.000163
H464	H	0.301741	0.687117	0.500163
H465	H	-0.244502	0.157359	-0.034619
H466	H	0.255498	0.657359	0.465381
H467	H	-0.244521	0.157288	0.034818
H468	H	0.255479	0.657288	0.534818
H469	H	-0.162259	0.105161	-0.034567
H470	H	0.337741	0.605161	0.465433
H471	H	-0.162341	0.105143	0.034869
H472	H	0.337659	0.605143	0.534869
H473	H	-0.654093	0.095896	0.000080
H474	H	-0.154093	0.595896	0.500080
O475	O	-0.660097	0.192199	0.000089
O476	O	-0.160097	0.692199	0.500089
C477	C	-0.747594	0.198933	0.000076
C478	C	-0.247594	0.698933	0.500076
C479	C	-0.699364	0.164540	0.000055
C480	C	-0.199364	0.664540	0.500055
H481	H	-0.779354	0.176584	0.000038
H482	H	-0.279354	0.676584	0.500038
H483	H	-0.749588	0.222832	0.034801
H484	H	-0.249588	0.722832	0.534801
H485	H	-0.749544	0.222848	-0.034635
H486	H	-0.249544	0.722848	0.465365
H487	H	-0.697382	0.140593	0.034743
H488	H	-0.197382	0.640593	0.534743
H489	H	-0.697390	0.140673	-0.034693
H490	H	-0.197390	0.640673	0.465307
H491	H	-0.695819	0.333889	0.000065
H492	H	-0.195819	0.833889	0.500065
H493	H	-0.663722	0.031266	0.469068
H494	H	-0.163722	0.531266	0.969068
O495	O	-0.440838	0.294689	-0.000074
O496	O	0.059162	0.794689	0.499926
C497	C	-0.390271	0.230687	-0.043042
C498	C	0.109729	0.730687	0.456958
C499	C	-0.438482	0.265110	-0.043003
C500	C	0.061518	0.765110	0.456997
H501	H	-0.388355	0.206757	-0.077741
H502	H	0.111645	0.706757	0.422259
H503	H	-0.358478	0.252993	-0.043081
H504	H	0.141522	0.752993	0.456919
H505	H	-0.388304	0.206804	-0.008306
H506	H	0.111696	0.706804	0.491694
H507	H	-0.440496	0.289001	-0.077733
H508	H	0.059504	0.789001	0.422267
H509	H	-0.470252	0.242776	-0.042938
H510	H	0.029748	0.742776	0.457062
H511	H	-0.630630	-0.001822	0.771211
H512	H	-0.130630	0.498178	1.271211
O513	O	-0.701819	0.430187	0.000083
O514	O	-0.201819	0.930187	0.500083
C515	C	-0.789315	0.436917	0.000072
C516	C	-0.289315	0.936917	0.500072
C517	C	-0.741084	0.402526	0.000046
C518	C	-0.241084	0.902526	0.500046
H519	H	-0.821074	0.414567	0.000032
H520	H	-0.321074	0.914567	0.500032
H521	H	-0.791309	0.460813	0.034800
H522	H	-0.291309	0.960813	0.534800
H523	H	-0.791267	0.460837	-0.034637
H524	H	-0.291267	0.960837	0.465363
H525	H	-0.739100	0.378576	0.034731
H526	H	-0.239100	0.878576	0.534731
H527	H	-0.739110	0.378663	-0.034705
H528	H	-0.239110	0.878663	0.465295
O529	O	-0.653831	0.807281	-0.000029
O530	O	-0.153831	1.307281	0.499971
C531	C	-0.729010	0.833136	-0.043028
C532	C	-0.229010	1.333136	0.456972
C533	C	-0.680790	0.798726	-0.043004
C534	C	-0.180790	1.298726	0.456996
H535	H	-0.750815	0.826238	-0.077775
H536	H	-0.250815	1.326238	0.422225
H537	H	-0.750882	0.826224	-0.008333
H538	H	-0.250882	1.326224	0.491667
H539	H	-0.721011	0.872447	-0.043006
H540	H	-0.221011	1.372447	0.456994
H541	H	-0.688745	0.759402	-0.043044
H542	H	-0.188745	1.259402	0.456956
H543	H	-0.658932	0.805679	-0.077696
H544	H	-0.158932	1.305679	0.422304
H545	H	-0.630630	-0.001820	0.865951
H546	H	-0.130630	0.498180	1.365951
O547	O	-0.505180	-0.127163	0.232926
O548	O	-0.005180	0.372837	0.732926
C549	C	-0.439498	-0.192831	0.227420
C550	C	0.060502	0.307169	0.727420
C551	C	-0.475956	-0.156428	0.198721
C552	C	0.024044	0.343572	0.698721
H553	H	-0.415868	-0.216508	0.199778
H554	H	0.084132	0.283492	0.699778
H555	H	-0.415475	-0.172145	0.251849
H556	H	0.084525	0.327855	0.751849
H557	H	-0.460188	-0.216814	0.251887
H558	H	0.039812	0.283186	0.751887
H559	H	-0.455305	-0.132435	0.174227
H560	H	0.044695	0.367565	0.674227
H561	H	-0.499978	-0.177144	0.174323
H562	H	0.000022	0.322856	0.674323
H563	H	-0.493213	0.165279	0.000061
H564	H	0.006787	0.665279	0.500061
O565	O	-0.668882	0.036457	0.629908
O566	O	-0.168882	0.536457	1.129908
C567	C	-0.698245	0.065772	0.710357
C568	C	-0.198245	0.565772	1.210357
C569	C	-0.661838	0.029363	0.681606
C570	C	-0.161838	0.529363	1.181606
H571	H	-0.692570	0.060042	0.752159
H572	H	-0.192570	0.560042	1.252159
H573	H	-0.692237	0.104457	0.700129
H574	H	-0.192237	0.604457	1.200129
H575	H	-0.736909	0.059747	0.700061
H576	H	-0.236909	0.559747	1.200061
H577	H	-0.623160	0.035343	0.691886
H578	H	-0.123160	0.535343	1.191886
H579	H	-0.667889	-0.009309	0.691836
H580	H	-0.167889	0.490691	1.191836
H581	H	-0.694282	0.485125	0.000053
H582	H	-0.194282	0.985125	0.500053
O583	O	-0.505219	-0.127135	0.869986
O584	O	-0.005219	0.372865	1.369986
C585	C	-0.439543	-0.192809	0.864472
C586	C	0.060457	0.307191	1.364472
C587	C	-0.475995	-0.156396	0.835777
C588	C	0.024005	0.343604	1.335777
H589	H	-0.415913	-0.216482	0.836826
H590	H	0.084087	0.283518	1.336826
H591	H	-0.415520	-0.172130	0.888908
H592	H	0.084480	0.327870	1.388908
H593	H	-0.460238	-0.216794	0.888931
H594	H	0.039762	0.283206	1.388931
H595	H	-0.455340	-0.132401	0.811291
H596	H	0.044660	0.367599	1.311291
H597	H	-0.500018	-0.177104	0.811372
H598	H	-0.000018	0.322896	1.311372
O599	O	-0.479956	0.783252	0.000001
O600	O	0.020044	1.283252	0.500001
C601	C	-0.392567	0.765849	0.000018
C602	C	0.107433	1.265849	0.500018
C603	C	-0.441359	0.744847	0.000039
C604	C	0.058641	1.244847	0.500039
H605	H	-0.361349	0.734809	0.000059
H606	H	0.138651	1.234809	0.500059
H607	H	-0.390094	0.789129	-0.034710
H608	H	0.109906	1.289129	0.465290
H609	H	-0.390140	0.789164	0.034727
H610	H	0.109860	1.289164	0.534727
H611	H	-0.443820	0.721510	-0.034646
H612	H	0.056180	1.221510	0.465354
H613	H	-0.443812	0.721595	0.034790
H614	H	0.056188	1.221595	0.534790
H615	H	-0.445246	0.542327	0.000015
H616	H	0.054754	1.042327	0.500015
H617	H	-0.630595	-0.001859	0.134142
H618	H	-0.130595	0.498141	0.634142
H619	H	-0.663725	0.031269	0.530995
H620	H	-0.163725	0.531269	1.030995
O621	O	-0.505323	-0.127142	0.767075
O622	O	-0.005323	0.372858	1.267075
C623	C	-0.494534	-0.193264	0.708158
C624	C	0.005466	0.306736	1.208158
C625	C	-0.530944	-0.156840	0.736886
C626	C	-0.030944	0.343160	1.236886
H627	H	-0.515235	-0.217291	0.683751
H628	H	-0.015235	0.282709	1.183751
H629	H	-0.470542	-0.172596	0.683679
H630	H	0.029458	0.327404	1.183679
H631	H	-0.470865	-0.216895	0.735810
H632	H	0.029135	0.283105	1.235810
H633	H	-0.554645	-0.133200	0.709270
H634	H	-0.054645	0.366800	1.209270
H635	H	-0.554903	-0.177539	0.761373
H636	H	-0.054903	0.322461	1.261373
O637	O	-0.472091	-0.160267	0.370335
O638	O	0.027909	0.339733	0.870335
C639	C	-0.406376	-0.225901	0.375862
C640	C	0.093624	0.274099	0.875862
C641	C	-0.442813	-0.189469	0.404550
C642	C	0.057187	0.310531	0.904550
H643	H	-0.382689	-0.249513	0.403513
H644	H	0.117311	0.250487	0.903513
H645	H	-0.427035	-0.249944	0.351428
H646	H	0.072965	0.250056	0.851428
H647	H	-0.382407	-0.205189	0.351402
H648	H	0.117593	0.294811	0.851402
H649	H	-0.466791	-0.210141	0.429038
H650	H	0.033209	0.289859	0.929038
H651	H	-0.422124	-0.165426	0.428952
H652	H	0.077876	0.334574	0.928952
O653	O	-0.472083	-0.160228	0.629775
O654	O	0.027917	0.339772	1.129775
C655	C	-0.406403	-0.225898	0.624261
C656	C	0.093597	0.274102	1.124261
C657	C	-0.442860	-0.189489	0.595566
C658	C	0.057140	0.310511	1.095566
H659	H	-0.382773	-0.249571	0.596615
H660	H	0.117227	0.250429	1.096615
H661	H	-0.382379	-0.205215	0.648693
H662	H	0.117621	0.294785	1.148693
H663	H	-0.427094	-0.249883	0.648724
H664	H	0.072906	0.250117	1.148724
H665	H	-0.422208	-0.165494	0.571076
H666	H	0.077792	0.334506	1.071076
H667	H	-0.466883	-0.210202	0.571165
H668	H	0.033117	0.289798	1.071165
H669	H	-0.510430	-0.121952	0.134157
H670	H	-0.010430	0.378048	0.634157
