data_functionalizedCrystal
_audit_creation_method	'MofGen! by Chris Wilmer'
_symmetry_space_group_name_H-M	'P1'
_symmetry_Int_Tables_number	1
_symmetry_cell_setting	triclinic
loop_
_symmetry_equiv_pos_as_xyz
  x,y,z
_cell_length_a	14.560438
_cell_length_b	21.606444
_cell_length_c	14.560438
_cell_angle_alpha	60.001790
_cell_angle_beta	90.001034
_cell_angle_gamma	59.999532
loop_
_atom_site_label
_atom_site_type_symbol
_atom_site_fract_x
_atom_site_fract_y
_atom_site_fract_z
Zr1	Zr	0.884739	0.677459	-0.120500
O2	O	0.738087	0.806577	-0.267141
O3	O	0.929697	0.548341	-0.075551
O4	O	0.929690	0.677461	-0.267149
O5	O	0.738098	0.677455	0.075598
O6	O	1.080828	0.677463	-0.267150
O7	O	0.738094	0.677457	-0.075543
O8	O	1.080841	0.446490	0.075584
O9	O	0.738086	0.908428	-0.267136
O10	O	1.061662	0.601450	-0.056376
O11	O	0.948872	0.601448	0.056419
O12	O	0.948864	0.753470	-0.169163
O13	O	0.836074	0.753468	-0.056367
Zr14	Zr	1.125793	0.677459	0.120550
Zr15	Zr	1.125787	0.677462	-0.120502
Zr16	Zr	0.884745	0.677456	0.120552
Zr17	Zr	0.884737	0.839899	-0.120492
Zr18	Zr	1.125796	0.515019	0.120543
O19	O	1.080835	0.806577	0.075601
O20	O	1.080826	0.806581	-0.267144
O21	O	0.738096	0.806573	0.075604
O22	O	1.272445	0.548341	0.267192
O23	O	1.272436	0.548344	-0.075553
O24	O	0.929706	0.548337	0.267194
O25	O	1.272434	0.677463	-0.075547
O26	O	1.080842	0.677457	0.267199
O27	O	0.929704	0.677455	0.267200
O28	O	1.272438	0.677461	0.075594
O29	O	0.929687	0.908430	-0.267138
O30	O	1.080846	0.446488	0.267188
O31	O	1.272447	0.446490	0.267187
O32	O	1.272442	0.446492	0.075583
O33	O	0.738090	0.908426	-0.075532
O34	O	0.929691	0.908428	-0.075533
O35	O	1.061668	0.601448	0.169213
O36	O	1.174458	0.601450	0.056418
O37	O	1.061660	0.753470	-0.056369
O38	O	0.948870	0.753468	0.056427
C39	C	0.703752	0.677456	0.000027
C40	C	0.601421	0.677454	0.000028
C41	C	1.005269	0.474271	0.000015
C42	C	1.005270	0.405311	0.000012
C43	C	0.612222	0.598103	0.058897
C44	C	0.516067	0.598107	0.058898
C45	C	0.398313	0.756821	-0.058849
C46	C	0.494467	0.756816	-0.058842
C47	C	1.064143	0.372915	-0.058868
C48	C	1.064147	0.308115	-0.058860
C49	C	1.005271	0.275716	0.000021
C50	C	0.946397	0.308115	0.058908
C51	C	0.946400	0.372910	0.058907
C52	C	0.946383	0.046806	0.058918
C53	C	0.946382	-0.017991	0.058912
C54	C	1.064131	-0.017989	-0.058849
C55	C	1.064134	0.046805	-0.058851
C56	C	1.005265	0.079195	0.000041
C57	C	1.005263	0.149458	0.000034
C58	C	1.005266	0.205460	0.000023
C59	C	1.306781	0.677462	0.000023
C60	C	1.409112	0.677464	0.000022
C61	C	1.005258	0.677462	-0.301494
C62	C	1.005256	0.677464	-0.403827
C63	C	1.005263	0.880647	0.000035
C64	C	1.005262	0.949607	0.000038
C65	C	0.946378	0.756815	-0.510777
C66	C	0.946391	0.756811	-0.606926
C67	C	1.064162	0.598097	-0.489161
C68	C	1.064155	0.598102	-0.393015
C69	C	1.005274	0.677456	0.301545
C70	C	1.005276	0.677454	0.403878
C71	C	1.306784	0.474274	0.000013
C72	C	1.409116	0.405315	0.000009
C73	C	1.005277	0.474268	0.301535
C74	C	1.005281	0.405306	0.403865
C75	C	1.306791	0.474271	0.301533
C76	C	1.409126	0.405311	0.403862
C77	C	0.703741	0.880647	-0.301482
C78	C	0.601406	0.949607	-0.403811
C79	C	0.703749	0.880644	0.000037
C80	C	0.601416	0.949603	0.000041
C81	C	1.005255	0.880650	-0.301484
C82	C	1.005252	0.949612	-0.403814
C83	C	1.398294	0.372931	-0.058880
C84	C	1.494437	0.308146	-0.058906
C85	C	1.601401	0.275741	-0.000036
C86	C	1.612220	0.308132	0.058855
C87	C	1.516079	0.372920	0.058874
C88	C	1.064161	0.372921	0.510807
C89	C	1.064160	0.308134	0.606966
C90	C	1.005285	0.275728	0.596180
C91	C	0.946398	0.308119	0.489226
C92	C	0.946393	0.372910	0.393070
C93	C	1.516069	0.372928	0.393038
C94	C	1.612233	0.308141	0.489178
C95	C	1.601451	0.275735	0.596140
C96	C	1.494497	0.308124	0.606961
C97	C	1.398336	0.372914	0.510822
C98	C	0.494463	0.981998	-0.392988
C99	C	0.398299	1.046805	-0.489127
C100	C	0.409081	1.079214	-0.596089
C101	C	0.516035	1.046821	-0.606910
C102	C	0.612196	0.982020	-0.510772
C103	C	0.612238	0.981993	0.058920
C104	C	0.516095	1.046796	0.058920
C105	C	0.409132	1.079203	0.000047
C106	C	0.398312	1.046810	-0.058840
C107	C	0.494454	0.982012	-0.058845
C108	C	1.064138	0.981997	-0.392992
C109	C	1.064156	1.046785	-0.489132
C110	C	1.005281	1.079191	-0.596094
C111	C	0.946393	1.046799	-0.606914
C112	C	0.946382	0.982008	-0.510774
H113	H	0.699304	0.533481	0.106846
H114	H	1.112106	0.533480	-0.305926
N115	N	1.127636	-0.052938	-0.122355
H116	H	1.210002	-0.079818	-0.091479
H117	H	1.096655	-0.003465	-0.204706
H118	H	1.311208	0.399315	-0.106833
N119	N	0.482769	0.947068	-0.122335
H120	H	0.559898	0.901099	-0.113411
H121	H	0.440243	0.996554	-0.204671
N122	N	1.127667	1.081713	-0.477433
H123	H	1.073671	1.146756	-0.514700
H124	H	1.186933	1.070371	-0.514666
N125	N	0.527720	0.512519	0.122380
H126	H	0.450580	0.524561	0.113447
H127	H	0.570244	0.477858	0.204718
H128	H	0.311209	1.073206	-0.106773
N129	N	1.005308	0.205836	0.699894
H130	H	0.925572	0.228376	0.699956
H131	H	1.051601	0.190264	0.769219
N132	N	1.482753	0.273220	-0.122428
H133	H	1.400402	0.303577	-0.159707
H134	H	1.520086	0.208175	-0.068378
H135	H	0.898459	1.073194	-0.694014
H136	H	0.898425	0.955647	-0.519602
N137	N	1.127669	0.407863	0.522457
H138	H	1.164960	0.377511	0.604802
H139	H	1.073605	0.472907	0.485126
N140	N	1.127672	0.512501	-0.477497
H141	H	1.210038	0.477809	-0.435022
H142	H	1.118653	0.524606	-0.554668
H143	H	1.679676	0.222986	-0.000060
H144	H	0.311222	1.073168	-0.480295
H145	H	1.699323	0.281738	0.106784
H146	H	1.524906	0.399279	0.106835
H147	H	1.112086	0.281737	-0.106803
N148	N	0.282958	0.842415	-0.122340
H149	H	0.223682	0.830379	-0.113414
H150	H	0.274052	0.877072	-0.204677
H151	H	1.112117	0.281768	0.694042
H152	H	0.898463	0.281725	0.480460
H153	H	0.898449	0.399269	0.305996
N154	N	0.882859	0.842408	-0.522433
H155	H	0.845565	0.892675	-0.604778
H156	H	0.936918	0.845867	-0.485103
N157	N	1.527714	0.407865	0.277680
H158	H	1.610060	0.377513	0.285429
H159	H	1.490379	0.472910	0.235217
H160	H	1.699311	0.281776	0.480347
N161	N	0.482814	0.842410	-0.122348
H162	H	0.520088	0.845942	-0.181593
H163	H	0.520070	0.845891	-0.068267
N164	N	1.127645	0.081741	-0.122351
H165	H	1.118713	0.127704	-0.113417
H166	H	1.096730	0.108575	-0.204689
H167	H	0.898448	0.821427	-0.694006
H168	H	0.524927	1.073160	0.106877
H169	H	1.679761	0.222979	0.674413
N170	N	0.727539	0.947071	-0.522459
H171	H	0.786830	0.901098	-0.445332
H172	H	0.736450	0.996553	-0.564978
N173	N	1.127637	0.407862	-0.122385
H174	H	1.164934	0.377503	-0.159682
H175	H	1.186832	0.396587	-0.068328
N176	N	1.482877	0.273167	0.722330
H177	H	1.560028	0.227207	0.781581
H178	H	1.440372	0.246321	0.731243
H179	H	0.898436	-0.044368	0.106864
N180	N	0.882898	0.081733	0.122439
H181	H	0.845600	0.051376	0.159736
H182	H	0.823704	0.146777	0.068388
H183	H	1.311262	0.399272	0.519651
H184	H	0.898465	0.281727	0.106857
N185	N	0.882909	0.407850	0.122419
H186	H	0.845610	0.377496	0.159721
H187	H	0.823717	0.472894	0.068364
H188	H	0.330771	1.131979	-0.674362
H189	H	0.330856	1.131966	0.000061
H190	H	0.485663	0.955613	-0.305903
N191	N	0.727601	0.947049	0.122416
H192	H	0.736615	0.920172	0.204781
H193	H	0.736530	0.996527	0.091432
H194	H	1.112081	0.955622	-0.305907
N195	N	0.527655	1.081781	-0.722279
H196	H	0.450504	1.127742	-0.781531
H197	H	0.570160	1.032300	-0.731198
H198	H	1.005299	1.131948	-0.674367
