data_functionalizedCrystal
_audit_creation_method	'MofGen! by Chris Wilmer'
_symmetry_space_group_name_H-M	'P1'
_symmetry_Int_Tables_number	1
_symmetry_cell_setting	triclinic
loop_
_symmetry_equiv_pos_as_xyz
  x,y,z
_cell_length_a	16.120297
_cell_length_b	19.805407
_cell_length_c	16.120444
_cell_angle_alpha	87.073874
_cell_angle_beta	84.384883
_cell_angle_gamma	92.872735
loop_
_atom_site_label
_atom_site_type_symbol
_atom_site_fract_x
_atom_site_fract_y
_atom_site_fract_z
Zn1	Zn	-0.489581	0.999899	0.356772
Zn2	Zn	0.010419	1.499899	0.856772
Zn3	Zn	-0.356894	0.999812	0.489462
Zn4	Zn	0.143106	1.499812	0.989462
Zn5	Zn	-0.349814	0.892757	0.349706
Zn6	Zn	0.150186	1.392757	0.849706
Zn7	Zn	-0.496601	0.880636	0.496501
Zn8	Zn	0.003399	1.380636	0.996501
O9	O	-0.423223	0.943276	0.423110
O10	O	0.076777	1.443276	0.923110
O11	O	-0.472005	1.094603	0.374385
O12	O	0.027995	1.594603	0.874385
O13	O	-0.238993	0.990647	0.465020
O14	O	0.261007	1.490647	0.965020
O15	O	-0.362454	0.912079	0.233677
O16	O	0.137546	1.412079	0.733677
O17	O	-0.374520	1.094539	0.471872
O18	O	0.125480	1.594539	0.971872
O19	O	-0.465140	0.990796	0.238869
O20	O	0.034860	1.490796	0.738869
O21	O	-0.233792	0.911994	0.362342
O22	O	0.266208	1.411994	0.862342
O23	O	-0.369261	0.796434	0.369167
O24	O	0.130739	1.296434	0.869167
O25	O	-0.612632	0.891421	0.483869
O26	O	-0.112632	1.391421	0.983869
O27	O	-0.477105	0.787529	0.477017
O28	O	0.022895	1.287529	0.977017
O29	O	-0.607474	0.979043	0.381210
O30	O	-0.107474	1.479043	0.881210
O31	O	-0.381327	0.978894	0.607362
O32	O	0.118673	1.478894	1.107362
O33	O	-0.483970	0.891336	0.612533
O34	O	0.016030	1.391336	1.112533
C35	C	-0.423177	0.767423	0.423089
C36	C	0.076823	1.267423	0.923089
C37	C	-0.423178	0.692190	0.423101
C38	C	0.076822	1.192190	0.923101
C39	C	-0.479352	0.225775	0.479367
C40	C	0.020648	0.725775	0.979367
C41	C	-0.479334	0.296464	0.479364
C42	C	0.020666	0.796464	0.979364
C43	C	-0.423256	0.336424	0.423132
C44	C	0.076744	0.836424	0.923132
C45	C	-0.367187	0.305691	0.366904
C46	C	0.132813	0.805691	0.866904
C47	C	-0.367202	0.235003	0.366911
C48	C	0.132798	0.735003	0.866911
C49	C	-0.367127	0.590768	0.366876
C50	C	0.132873	1.090768	0.866876
C51	C	-0.367119	0.661461	0.366871
C52	C	0.132881	1.161461	0.866871
C53	C	-0.479259	0.652229	0.479329
C54	C	0.020741	1.152229	0.979329
C55	C	-0.479274	0.581541	0.479336
C56	C	0.020726	1.081541	0.979336
C57	C	-0.423202	0.550815	0.423111
C58	C	0.076798	1.050815	0.923111
C59	C	-0.423221	0.474165	0.423115
C60	C	0.076779	0.974165	0.923115
C61	C	-0.423241	0.413072	0.423123
C62	C	0.076759	0.913072	0.923123
C63	C	-0.641227	0.933889	0.434113
C64	C	-0.141227	1.433889	0.934113
C65	C	-0.734128	0.929889	0.438802
C66	C	-0.234128	1.429889	0.938802
C67	C	-0.904217	0.922562	0.447343
C68	C	-0.404217	1.422562	0.947343
C69	C	-0.943067	0.964134	0.398627
C70	C	-0.443067	1.464134	0.898627
C71	C	-1.037710	0.960057	0.403380
C72	C	-0.537710	1.460057	0.903380
C73	C	-0.809565	0.926638	0.442592
C74	C	-0.309565	1.426638	0.942592
C75	C	-0.206063	0.952668	0.412090
C76	C	0.293937	1.452668	0.912090
C77	C	-0.113151	0.956809	0.407166
C78	C	0.386849	1.456809	0.907166
C79	C	-0.434196	0.933808	0.640276
C80	C	0.065804	1.433808	1.140276
C81	C	-0.438919	0.929818	0.733182
C82	C	0.061081	1.429818	1.233182
C83	C	-0.423269	1.119816	0.423132
C84	C	0.076731	1.619816	0.923132
C85	C	-0.423289	1.195047	0.423141
C86	C	0.076711	1.695047	0.923141
C87	C	-0.412224	0.952799	0.205097
C88	C	0.087776	1.452799	0.705097
C89	C	-0.407537	0.956857	0.112193
C90	C	0.092463	1.456857	0.612193
C91	C	-0.398904	0.964132	0.942093
C92	C	0.101096	1.464132	1.442093
C93	C	-0.447550	0.922546	0.903277
C94	C	0.052450	1.422546	1.403277
C95	C	-0.442746	0.926593	0.808627
C96	C	0.057254	1.426593	1.308627
C97	C	-0.403706	0.960085	1.036751
C98	C	0.096294	1.460085	1.536751
H99	H	-0.525021	0.193244	0.525153
H100	H	-0.025021	0.693244	1.025153
H101	H	-0.492805	0.883902	0.941130
H102	H	0.007195	1.383902	1.441130
C103	C	-0.317306	0.773921	0.316927
C104	C	0.182694	1.273921	0.816927
C105	C	-0.305470	0.705388	0.305060
C106	C	0.194530	1.205388	0.805060
H107	H	-0.279252	0.801038	0.278765
H108	H	0.220748	1.301038	0.778765
H109	H	-0.307822	0.783583	0.372440
H110	H	0.192178	1.283583	0.872440
H111	H	-0.372870	0.783622	0.307608
H112	H	0.127130	1.283622	0.807608
H113	H	-0.249908	0.695686	0.314385
H114	H	0.250092	1.195686	0.814385
H115	H	-0.314948	0.695722	0.249534
H116	H	0.185052	1.195722	0.749534
C117	C	-0.281598	0.982551	0.838165
C118	C	0.218402	1.482551	1.338165
C119	C	-0.337805	1.016290	0.890999
C120	C	0.162195	1.516290	1.390999
H121	H	-0.243875	1.014750	0.806619
H122	H	0.256125	1.514750	1.306619
H123	H	-0.311496	0.956997	0.801381
H124	H	0.188504	1.456997	1.301381
H125	H	-0.251295	0.953032	0.870668
H126	H	0.248705	1.453032	1.370668
H127	H	-0.368113	1.045806	0.858496
H128	H	0.131887	1.545806	1.358496
H129	H	-0.307904	1.041856	0.927787
H130	H	0.192096	1.541856	1.427787
C131	C	-0.496397	0.496656	0.592363
C132	C	0.003603	0.996656	1.092363
C133	C	-0.540914	0.537616	0.541147
C134	C	-0.040914	1.037616	1.041147
H135	H	-0.534452	0.469536	0.630521
H136	H	-0.034452	0.969536	1.130521
H137	H	-0.461545	0.524402	0.622434
H138	H	0.038455	1.024402	1.122434
H139	H	-0.463012	0.468242	0.558867
H140	H	0.036988	0.968242	1.058867
H141	H	-0.574294	0.566033	0.574643
H142	H	-0.074294	1.066033	1.074643
H143	H	-0.575780	0.509866	0.511074
H144	H	-0.075780	1.009866	1.011074
C145	C	-0.900994	0.832735	0.552600
C146	C	-0.400994	1.332735	1.052600
C147	C	-0.955265	0.870388	0.508468
C148	C	-0.455265	1.370388	1.008468
H149	H	-0.932517	0.800525	0.590333
H150	H	-0.432517	1.300525	1.090333
H151	H	-0.868576	0.862266	0.582896
H152	H	-0.368576	1.362266	1.082896
H153	H	-0.865091	0.809869	0.514499
H154	H	-0.365091	1.309869	1.014499
H155	H	-0.991163	0.893258	0.546569
H156	H	-0.491163	1.393258	1.046569
H157	H	-0.987697	0.840853	0.478171
H158	H	-0.487697	1.340853	0.978171
C159	C	-0.590193	0.280239	0.590518
C160	C	-0.090193	0.780239	1.090518
C161	C	-0.540963	0.330240	0.541166
C162	C	-0.040963	0.830240	1.041166
H163	H	-0.628244	0.301092	0.628671
H164	H	-0.128244	0.801092	1.128671
H165	H	-0.555346	0.252837	0.620596
H166	H	-0.055346	0.752837	1.120596
H167	H	-0.620386	0.252883	0.555757
H168	H	-0.120386	0.752883	1.055757
H169	H	-0.510765	0.357593	0.575928
H170	H	-0.010765	0.857593	1.075928
H171	H	-0.575815	0.357653	0.511087
H172	H	-0.075815	0.857653	1.011087
H173	H	-0.524914	0.677255	0.525112
H174	H	-0.024914	1.177255	1.025112
H175	H	-0.321467	0.565760	0.321097
H176	H	0.178533	1.065760	0.821097
C177	C	-0.317376	0.418149	0.316951
C178	C	0.182624	0.918149	0.816951
C179	C	-0.305547	0.349614	0.305090
C180	C	0.194453	0.849614	0.805090
H181	H	-0.279325	0.445263	0.278783
H182	H	0.220675	0.945263	0.778783
H183	H	-0.307883	0.427814	0.372462
H184	H	0.192117	0.927814	0.872462
H185	H	-0.372941	0.427852	0.307639
H186	H	0.127059	0.927852	0.807639
H187	H	-0.249983	0.339910	0.314408
H188	H	0.250017	0.839910	0.814408
H189	H	-0.315032	0.339945	0.249567
H190	H	0.184968	0.839945	0.749567
H191	H	-0.321551	0.209986	0.321125
H192	H	0.178449	0.709986	0.821125
H193	H	-0.905247	1.002787	0.353349
H194	H	-0.405247	1.502787	0.853349
