data_functionalizedCrystal
_audit_creation_method	'MofGen! by Chris Wilmer'
_symmetry_space_group_name_H-M	'P1'
_symmetry_Int_Tables_number	1
_symmetry_cell_setting	triclinic
loop_
_symmetry_equiv_pos_as_xyz
  x,y,z
_cell_length_a	16.959455
_cell_length_b	16.959454
_cell_length_c	12.759393
_cell_angle_alpha	89.970360
_cell_angle_beta	89.975981
_cell_angle_gamma	90.019023
loop_
_atom_site_label
_atom_site_type_symbol
_atom_site_fract_x
_atom_site_fract_y
_atom_site_fract_z
Zn1	Zn	1.208441	-0.314665	-0.594113
Zn2	Zn	1.208346	-0.446865	-0.418435
Zn3	Zn	1.076252	-0.314702	-0.418438
Zn4	Zn	1.076234	-0.446803	-0.594063
O5	O	1.142318	-0.380759	-0.506262
O6	O	1.319039	-0.332212	-0.570828
O7	O	1.190792	-0.429374	-0.271415
O8	O	1.093835	-0.204086	-0.441764
O9	O	1.318970	-0.429339	-0.441759
O10	O	1.190953	-0.204059	-0.570831
O11	O	1.093743	-0.332274	-0.271417
O12	O	0.965639	-0.332215	-0.441716
O13	O	1.093803	-0.429234	-0.741091
O14	O	0.965625	-0.429269	-0.570747
O15	O	1.190935	-0.332153	-0.741127
O16	O	1.190774	-0.557467	-0.441711
O17	O	1.093712	-0.557422	-0.570744
C18	C	0.936952	-0.380740	-0.506227
C19	C	0.849095	-0.380751	-0.506237
C20	C	1.142252	-0.586125	-0.506245
C21	C	1.142296	-0.673982	-0.506272
C22	C	0.807805	-0.330147	-0.439164
C23	C	0.807832	-0.431361	-0.573325
C24	C	0.725286	-0.431370	-0.573340
C25	C	0.683996	-0.380766	-0.506268
C26	C	0.725252	-0.330153	-0.439179
C27	C	0.684025	-0.481976	-0.640435
C28	C	0.601474	-0.481987	-0.640454
C29	C	0.560182	-0.431386	-0.573375
C30	C	0.601443	-0.380772	-0.506283
C31	C	0.560152	-0.330168	-0.439210
C32	C	0.601411	-0.279556	-0.372113
C33	C	0.683960	-0.279552	-0.372101
C34	C	0.477633	-0.431391	-0.573387
C35	C	0.477599	-0.330173	-0.439226
C36	C	1.091851	-1.045464	-0.573443
C37	C	1.193006	-1.045451	-0.439189
C38	C	1.192978	-0.962905	-0.439180
C39	C	1.142385	-0.921635	-0.506301
C40	C	1.091820	-0.962910	-0.573433
C41	C	1.243536	-0.921623	-0.372042
C42	C	1.243510	-0.839072	-0.372029
C43	C	1.192921	-0.797800	-0.439157
C44	C	1.142355	-0.839081	-0.506292
C45	C	1.091762	-0.797811	-0.573413
C46	C	1.041199	-0.839090	-0.640555
C47	C	1.041231	-0.921639	-0.640561
C48	C	1.192889	-0.715252	-0.439150
C49	C	1.091731	-0.715257	-0.573404
C50	C	1.348487	-0.380778	-0.506299
C51	C	1.436343	-0.380787	-0.506314
C52	C	1.142377	-0.380683	-0.780296
C53	C	1.142403	-0.380651	-0.897073
C54	C	1.142406	-0.174591	-0.506303
C55	C	1.142444	-0.086734	-0.506321
C56	C	1.192983	-0.330092	-0.951955
C57	C	1.192996	-0.330058	-1.061679
C58	C	1.091847	-0.431147	-1.061629
C59	C	1.091830	-0.431177	-0.951907
C60	C	1.142305	-0.380777	-0.233295
C61	C	1.142433	-0.380587	-0.116519
H62	H	0.443986	-0.288966	-0.384605
H63	H	1.234160	-0.288948	-0.907313
C64	C	0.556094	-0.537663	-0.714251
C65	C	0.567424	-0.627511	-0.705475
C66	C	0.522043	-0.683189	-0.779270
C67	C	0.465334	-0.649020	-0.861842
C68	C	0.454002	-0.559167	-0.870621
C69	C	0.499382	-0.503488	-0.796826
H70	H	0.609406	-0.652810	-0.644348
H71	H	0.530432	-0.749705	-0.772771
H72	H	0.431741	-0.690236	-0.916469
H73	H	0.412019	-0.533868	-0.931748
H74	H	0.490993	-0.436973	-0.803326
C75	C	1.036234	-1.090867	-0.647294
C76	C	0.946375	-1.079585	-0.638608
C77	C	0.890757	-1.124990	-0.712459
C78	C	0.924998	-1.181675	-0.794996
C79	C	1.014861	-1.192959	-0.803685
C80	C	1.070479	-1.147555	-0.729834
H81	H	0.921024	-1.037621	-0.577506
H82	H	0.824234	-1.116636	-0.706027
H83	H	0.883826	-1.215286	-0.849665
H84	H	1.040212	-1.234924	-0.864787
H85	H	1.137002	-1.155908	-0.736266
C86	C	0.432247	-0.487055	-0.647185
C87	C	0.443570	-0.576905	-0.638423
C88	C	0.398184	-0.632574	-0.712224
C89	C	0.341475	-0.598393	-0.794788
C90	C	0.330150	-0.508539	-0.803554
C91	C	0.375536	-0.452870	-0.729753
H92	H	0.485552	-0.602212	-0.577301
H93	H	0.406568	-0.699091	-0.705734
H94	H	0.307877	-0.639603	-0.849420
H95	H	0.288168	-0.483232	-0.864676
H96	H	0.367152	-0.386354	-0.736243
C97	C	0.555985	-0.223892	-0.298337
C98	C	0.499272	-0.161881	-0.344019
C99	C	0.453842	-0.106218	-0.270247
C100	C	0.465125	-0.112566	-0.150793
C101	C	0.521841	-0.174580	-0.105104
C102	C	0.567271	-0.230243	-0.178876
H103	H	0.490917	-0.157179	-0.432453
H104	H	0.411857	-0.060311	-0.304070
H105	H	0.431495	-0.071361	-0.096182
H106	H	0.530196	-0.179281	-0.016671
H107	H	0.609256	-0.276149	-0.145053
H108	H	0.717560	-0.238347	-0.317474
C109	C	1.036226	-0.486731	-1.121949
C110	C	1.036244	-0.486705	-1.242639
C111	C	0.980623	-0.542291	-1.302956
C112	C	0.924984	-0.597904	-1.242583
C113	C	0.924963	-0.597931	-1.121886
C114	C	0.980584	-0.542345	-1.061569
H115	H	1.077434	-0.445535	-1.287336
H116	H	0.980639	-0.542271	-1.392304
H117	H	0.883810	-0.639052	-1.287234
H118	H	0.883774	-0.639101	-1.077189
H119	H	0.980568	-0.542366	-0.972221
C120	C	1.299130	-0.793666	-0.298182
C121	C	1.361147	-0.736853	-0.343782
C122	C	1.416768	-0.691445	-0.269938
C123	C	1.410370	-0.702850	-0.150495
C124	C	1.348350	-0.759666	-0.104889
C125	C	1.292729	-0.805074	-0.178733
H126	H	1.365886	-0.728408	-0.432207
H127	H	1.462679	-0.649386	-0.303699
H128	H	1.451544	-0.669237	-0.095831
H129	H	1.343611	-0.768112	-0.016464
H130	H	1.246818	-0.847133	-0.144972
H131	H	1.234053	-0.681646	-0.384480
H132	H	1.000065	-0.955255	-0.695222
H133	H	0.841402	-0.288943	-0.384532
H134	H	1.050535	-0.681660	-0.628067
H135	H	1.234183	-0.288887	-1.106360
H136	H	1.050636	-0.472347	-0.907220
H137	H	1.284720	-0.955231	-0.317387
C138	C	0.853251	-0.487019	-0.647104
C139	C	0.909971	-0.549029	-0.601433
C140	C	0.955394	-0.604691	-0.675215
C141	C	0.944097	-0.598342	-0.794667
C142	C	0.887375	-0.536330	-0.840344
C143	C	0.841952	-0.480668	-0.766562
H144	H	0.918336	-0.553731	-0.513002
H145	H	0.997384	-0.650597	-0.641401
H146	H	0.977722	-0.639546	-0.849285
H147	H	0.879010	-0.531628	-0.928775
H148	H	0.799962	-0.434762	-0.800376
H149	H	1.000002	-0.805478	-0.695201
C150	C	0.729447	-0.537633	-0.714213
C151	C	0.786161	-0.599647	-0.668541
C152	C	0.831590	-0.655305	-0.742322
C153	C	0.820303	-0.648948	-0.861775
C154	C	0.763586	-0.586931	-0.907454
C155	C	0.718158	-0.531273	-0.833673
H156	H	0.794518	-0.604355	-0.580109
H157	H	0.873575	-0.701214	-0.708507
H158	H	0.853932	-0.690149	-0.916393
H159	H	0.755229	-0.582223	-0.995886
H160	H	0.676172	-0.485364	-0.867488
H161	H	1.234191	-1.079058	-0.384535
