data_functionalizedCrystal
_audit_creation_method	'MofGen! by Chris Wilmer'
_symmetry_space_group_name_H-M	'P1'
_symmetry_Int_Tables_number	1
_symmetry_cell_setting	triclinic
loop_
_symmetry_equiv_pos_as_xyz
  x,y,z
_cell_length_a	19.805407
_cell_length_b	12.594516
_cell_length_c	19.805399
_cell_angle_alpha	89.977796
_cell_angle_beta	89.983114
_cell_angle_gamma	90.016053
loop_
_atom_site_label
_atom_site_type_symbol
_atom_site_fract_x
_atom_site_fract_y
_atom_site_fract_z
Zn1	Zn	1.034766	-0.423752	-0.382752
Zn2	Zn	1.534766	0.076248	0.117248
Zn3	Zn	1.034707	-0.601750	-0.269577
Zn4	Zn	1.534707	-0.101750	0.230423
Zn5	Zn	0.921586	-0.423786	-0.269576
Zn6	Zn	1.421586	0.076214	0.230424
Zn7	Zn	0.921565	-0.601689	-0.382723
Zn8	Zn	1.421565	-0.101689	0.117277
O9	O	0.978156	-0.512744	-0.326157
O10	O	1.478156	-0.012744	0.173843
O11	O	1.129475	-0.447375	-0.367751
O12	O	1.629475	0.052625	0.132249
O13	O	1.019685	-0.578182	-0.174860
O14	O	1.519685	-0.078182	0.325140
O15	O	0.936634	-0.274835	-0.284601
O16	O	1.436634	0.225165	0.215399
O17	O	1.129431	-0.578149	-0.284602
O18	O	1.629431	-0.078149	0.215398
O19	O	1.019787	-0.274811	-0.367750
O20	O	1.519787	0.225189	0.132250
O21	O	0.936576	-0.447433	-0.174860
O22	O	1.436576	0.052567	0.325140
O23	O	0.826867	-0.447374	-0.284573
O24	O	1.326867	0.052626	0.215427
O25	O	0.936597	-0.578046	-0.477444
O26	O	1.436597	-0.078046	0.022556
O27	O	0.826851	-0.578078	-0.367702
O28	O	1.326851	-0.078078	0.132298
O29	O	1.019766	-0.447316	-0.477464
O30	O	1.519766	0.052684	0.022536
O31	O	1.019665	-0.750688	-0.284574
O32	O	1.519665	-0.250688	0.215426
O33	O	0.936540	-0.750643	-0.367703
O34	O	1.436540	-0.250643	0.132297
C35	C	0.802300	-0.512724	-0.326135
C36	C	1.302300	-0.012724	0.173865
C37	C	0.727068	-0.512741	-0.326142
C38	C	1.227068	-0.012741	0.173858
C39	C	0.978112	-0.789285	-0.326150
C40	C	1.478112	-0.289285	0.173850
C41	C	0.978155	-0.907590	-0.326170
C42	C	1.478155	-0.407590	0.173830
C43	C	0.691734	-0.580901	-0.369357
C44	C	1.191734	-0.080901	0.130643
C45	C	0.621045	-0.580903	-0.369366
C46	C	1.121045	-0.080903	0.130634
C47	C	0.585693	-0.512749	-0.326157
C48	C	1.085693	-0.012749	0.173843
C49	C	0.621032	-0.444581	-0.282940
C50	C	1.121032	0.055419	0.217060
C51	C	0.691719	-0.444575	-0.282934
C52	C	1.191719	0.055425	0.217066
C53	C	0.335959	-0.444605	-0.282962
C54	C	0.835959	0.055395	0.217038
C55	C	0.265267	-0.444619	-0.282970
C56	C	0.765267	0.055381	0.217030
C57	C	0.265285	-0.580933	-0.369394
C58	C	0.765285	-0.080933	0.130606
C59	C	0.335972	-0.580926	-0.369389
C60	C	0.835972	-0.080926	0.130611
C61	C	0.371305	-0.512755	-0.326175
C62	C	0.871305	-0.012755	0.173825
C63	C	0.447954	-0.512752	-0.326166
C64	C	0.947954	-0.012752	0.173834
C65	C	0.509046	-0.512756	-0.326162
C66	C	1.009046	-0.012756	0.173838
C67	C	0.932939	-0.976858	-0.371352
C68	C	1.432939	-0.476858	0.128648
C69	C	0.916453	-1.047717	-0.309590
C70	C	1.416453	-0.547717	0.190410
C71	C	0.994702	-1.047531	-0.387943
C72	C	1.494702	-0.547531	0.112057
C73	C	0.961636	-0.976891	-0.264375
C74	C	1.461636	-0.476891	0.235625
C75	C	1.039915	-0.976699	-0.342770
C76	C	1.539915	-0.476699	0.157230
C77	C	1.023452	-1.047526	-0.280965
C78	C	1.523452	-0.547526	0.219035
C79	C	1.154699	-0.512765	-0.326179
C80	C	1.654699	-0.012765	0.173821
C81	C	1.229931	-0.512774	-0.326189
C82	C	1.729931	-0.012774	0.173811
C83	C	0.978186	-0.512670	-0.502700
C84	C	1.478186	-0.012670	-0.002700
C85	C	0.978199	-0.512639	-0.577932
C86	C	1.478199	-0.012639	-0.077932
C87	C	0.978219	-0.235123	-0.326178
C88	C	1.478219	0.264877	0.173822
C89	C	0.978246	-0.116818	-0.326188
C90	C	1.478246	0.383182	0.173812
C91	C	0.934936	-0.444551	-0.613275
C92	C	1.434936	0.055449	-0.113275
C93	C	0.934945	-0.444530	-0.683964
C94	C	1.434945	0.055470	-0.183964
C95	C	0.978221	-0.512593	-0.719307
C96	C	1.478221	-0.012593	-0.219307
C97	C	1.021486	-0.580688	-0.683959
C98	C	1.521486	-0.080688	-0.183959
C99	C	1.021472	-0.580713	-0.613272
C100	C	1.521472	-0.080713	-0.113272
C101	C	1.021539	-0.580588	-0.969033
C102	C	1.521539	-0.080588	-0.469033
C103	C	1.021551	-0.580556	-1.039725
C104	C	1.521551	-0.080556	-0.539725
C105	C	0.935012	-0.444406	-1.039724
C106	C	1.435012	0.055594	-0.539724
C107	C	0.934999	-0.444431	-0.969037
C108	C	1.434999	0.055569	-0.469037
C109	C	0.978261	-0.512529	-0.933695
C110	C	1.478261	-0.012529	-0.433695
C111	C	0.978249	-0.512553	-0.857046
C112	C	1.478249	-0.012553	-0.357046
C113	C	0.978237	-0.512565	-0.795955
C114	C	1.478237	-0.012565	-0.295955
C115	C	0.978166	-0.512741	-0.150301
C116	C	1.478166	-0.012741	0.349699
C117	C	0.978284	-0.512472	-0.075069
C118	C	1.478284	-0.012472	0.424931
H119	H	0.720513	-0.636404	-0.404541
H120	H	1.220513	-0.136404	0.095459
C121	C	1.127528	-0.970138	-0.426476
C122	C	1.627528	-0.470138	0.073524
C123	C	1.110346	-0.934546	-0.361744
C124	C	1.610346	-0.434546	0.138256
H125	H	1.171008	-0.944106	-0.438195
H126	H	1.671008	-0.444106	0.061805
H127	H	1.127974	-1.045544	-0.427024
H128	H	1.627974	-0.545544	0.072976
H129	H	1.095258	-0.944884	-0.458111
H130	H	1.595258	-0.444884	0.041889
H131	H	1.142614	-0.959807	-0.330108
H132	H	1.642614	-0.459807	0.169892
H133	H	1.109905	-0.859124	-0.361191
H134	H	1.609905	-0.359124	0.138809
C135	C	0.541507	-0.429609	-0.191917
C136	C	1.041507	0.070391	0.308083
C137	C	0.582174	-0.369661	-0.235445
C138	C	1.082174	0.130339	0.264555
H139	H	0.517522	-0.383354	-0.162593
H140	H	1.017522	0.116646	0.337407
H141	H	0.510349	-0.470196	-0.217655
H142	H	1.010349	0.029804	0.282345
H143	H	0.569074	-0.475921	-0.165975
H144	H	1.069074	0.024079	0.334025
H145	H	0.554606	-0.323355	-0.261390
H146	H	1.054606	0.176645	0.238610
H147	H	0.613335	-0.329057	-0.209704
H148	H	1.113335	0.170943	0.290296
C149	C	1.075138	-1.200337	-0.230153
C150	C	1.575138	-0.700337	0.269847
C151	C	1.075123	-1.089166	-0.229340
C152	C	1.575123	-0.589166	0.270660
H153	H	1.107038	-1.226043	-0.198283
H154	H	1.607038	-0.726043	0.301717
H155	H	1.031435	-1.225718	-0.218740
H156	H	1.531435	-0.725718	0.281260
H157	H	1.086965	-1.224642	-0.273988
H158	H	1.586965	-0.724642	0.226012
H159	H	1.063292	-1.064861	-0.185506
H160	H	1.563292	-0.564861	0.314494
H161	H	1.118836	-1.063775	-0.240749
H162	H	1.618836	-0.563775	0.259251
C163	C	0.684606	-0.309846	-0.197495
C164	C	1.184606	0.190154	0.302505
C165	C	0.730562	-0.369660	-0.235425
C166	C	1.230562	0.130340	0.264575
H167	H	0.708587	-0.263600	-0.168162
H168	H	1.208587	0.236400	0.331838
H169	H	0.657055	-0.269192	-0.227029
H170	H	1.157055	0.230808	0.272971
H171	H	0.657017	-0.356184	-0.171561
H172	H	1.157017	0.143816	0.328439
H173	H	0.758148	-0.323322	-0.261362
H174	H	1.258148	0.176678	0.238638
H175	H	0.758124	-0.410317	-0.205887
H176	H	1.258124	0.089683	0.294113
C177	C	0.628163	-0.715677	-0.454775
C178	C	1.128163	-0.215677	0.045225
C179	C	0.582206	-0.655845	-0.416859
C180	C	1.082206	-0.155845	0.083141
H181	H	0.604184	-0.761952	-0.484091
H182	H	1.104184	-0.261952	0.015909
H183	H	0.655745	-0.669361	-0.480720
H184	H	1.155745	-0.169361	0.019280
H185	H	0.655721	-0.756311	-0.425226
H186	H	1.155721	-0.256311	0.074774
H187	H	0.554651	-0.615205	-0.446408
H188	H	1.054651	-0.115205	0.053592
H189	H	0.554612	-0.702167	-0.390912
H190	H	1.054612	-0.202167	0.109088
C191	C	0.816636	-0.970812	-0.405314
C192	C	1.316636	-0.470812	0.094686
C193	C	0.881231	-0.934955	-0.422856
C194	C	1.381231	-0.434955	0.077144
H195	H	0.784714	-0.944935	-0.437106
H196	H	1.284714	-0.444935	0.062894
H197	H	0.816032	-1.046221	-0.405391
H198	H	1.316032	-0.546221	0.094609
H199	H	0.805350	-0.945580	-0.361549
H200	H	1.305350	-0.445580	0.138451
H201	H	0.892519	-0.960194	-0.466619
H202	H	1.392519	-0.460194	0.033381
H203	H	0.881837	-0.859530	-0.422786
H204	H	1.381837	-0.359530	0.077214
H205	H	0.364752	-0.636428	-0.404572
H206	H	0.864752	-0.136428	0.095428
H207	H	0.899699	-0.389121	-0.584503
H208	H	1.399699	0.110879	-0.084503
C209	C	1.059945	-0.641100	-0.860681
C210	C	1.559945	-0.141100	-0.360681
C211	C	1.069094	-0.655437	-0.930189
C212	C	1.569094	-0.155437	-0.430189
H213	H	1.089302	-0.687316	-0.836700
H214	H	1.589302	-0.187316	-0.336700
H215	H	1.069867	-0.569601	-0.849105
H216	H	1.569867	-0.069601	-0.349105
H217	H	1.014460	-0.656678	-0.849097
H218	H	1.514460	-0.156678	-0.349097
H219	H	1.114578	-0.639851	-0.941774
H220	H	1.614578	-0.139851	-0.441774
H221	H	1.059176	-0.726952	-0.941770
H222	H	1.559176	-0.226952	-0.441770
C223	C	0.828275	-1.052637	-0.226420
C224	C	1.328275	-0.552637	0.273580
C225	C	0.846002	-1.089834	-0.290638
C226	C	1.346002	-0.589834	0.209362
H227	H	0.784779	-1.078632	-0.214726
H228	H	1.284779	-0.578632	0.285274
H229	H	0.860382	-1.076829	-0.194297
H230	H	1.360382	-0.576829	0.305703
H231	H	0.827631	-0.977219	-0.226690
H232	H	1.327631	-0.477219	0.273310
H233	H	0.846651	-1.165251	-0.290367
H234	H	1.346651	-0.665251	0.209633
H235	H	0.813887	-1.065647	-0.322770
H236	H	1.313887	-0.565647	0.177230
H237	H	1.056706	-0.636149	-0.584496
H238	H	1.556706	-0.136149	-0.084496
H239	H	0.947617	-0.945990	-0.212128
H240	H	1.447617	-0.445990	0.287872
C241	C	0.925578	-0.301353	-0.763489
C242	C	1.425578	0.198647	-0.263489
C243	C	0.887386	-0.369704	-0.722823
C244	C	1.387386	0.130296	-0.222823
H245	H	0.896212	-0.255168	-0.787483
H246	H	1.396212	0.244832	-0.287483
H247	H	0.955062	-0.260639	-0.735926
H248	H	1.455062	0.239361	-0.235926
H249	H	0.951355	-0.341901	-0.794646
H250	H	1.451355	0.158099	-0.294646
H251	H	0.861613	-0.329156	-0.691662
H252	H	1.361613	0.170844	-0.191662
H253	H	0.857890	-0.410422	-0.750388
H254	H	1.357890	0.089578	-0.250388
C255	C	0.849451	-0.309854	-0.976139
C256	C	1.349451	0.190146	-0.476139
C257	C	0.887426	-0.369618	-0.930188
C258	C	1.387426	0.130382	-0.430188
H259	H	0.820078	-0.263675	-0.952154
H260	H	1.320078	0.236325	-0.452154
H261	H	0.878954	-0.269131	-1.003714
H262	H	1.378954	0.230869	-0.503714
H263	H	0.823559	-0.356227	-1.003705
H264	H	1.323559	0.143773	-0.503705
H265	H	0.913323	-0.323245	-0.902625
H266	H	1.413323	0.176755	-0.402625
H267	H	0.857920	-0.410344	-0.902602
H268	H	1.357920	0.089656	-0.402602
H269	H	0.899784	-0.388959	-1.068508
H270	H	1.399784	0.111041	-0.568508
H271	H	0.236508	-0.636437	-0.404584
H272	H	0.736508	-0.136437	0.095416
H273	H	0.236485	-0.389113	-0.247783
H274	H	0.736485	0.110887	0.252217
C275	C	0.966084	-1.053738	-0.505669
C276	C	1.466084	-0.553738	-0.005669
C277	C	1.013553	-1.089417	-0.458454
C278	C	1.513553	-0.589417	0.041546
H279	H	0.977721	-1.079590	-0.549201
H280	H	1.477721	-0.579590	-0.049201
H281	H	0.922560	-1.079105	-0.493574
H282	H	1.422560	-0.579105	0.006426
H283	H	0.965786	-0.978320	-0.506260
H284	H	1.465786	-0.478320	-0.006260
H285	H	1.013847	-1.164836	-0.457860
H286	H	1.513847	-0.664836	0.042140
H287	H	1.057088	-1.064057	-0.470552
H288	H	1.557088	-0.564057	0.029448
C289	C	1.136155	-0.632436	-1.061494
C290	C	1.636155	-0.132436	-0.561494
C291	C	1.069121	-0.655383	-1.078573
C292	C	1.569121	-0.155383	-0.578573
H293	H	1.165520	-0.678634	-1.085474
H294	H	1.665520	-0.178634	-0.585474
H295	H	1.146078	-0.560929	-1.073088
H296	H	1.646078	-0.060929	-0.573088
H297	H	1.142328	-0.642203	-1.014335
H298	H	1.642328	-0.142203	-0.514335
H299	H	1.062946	-0.645608	-1.125731
H300	H	1.562946	-0.145608	-0.625731
H301	H	1.059194	-0.726908	-1.066984
H302	H	1.559194	-0.226908	-0.566984
C303	C	0.328831	-0.309861	-0.197536
C304	C	0.828831	0.190139	0.302464
C305	C	0.374791	-0.369673	-0.235461
C306	C	0.874791	0.130327	0.264539
H307	H	0.352808	-0.263603	-0.168207
H308	H	0.852808	0.236397	0.331793
H309	H	0.301276	-0.269220	-0.227073
H310	H	0.801276	0.230780	0.272927
H311	H	0.301246	-0.356199	-0.171597
H312	H	0.801246	0.143801	0.328403
H313	H	0.402373	-0.323335	-0.261403
H314	H	0.902373	0.176665	0.238597
H315	H	0.402358	-0.410317	-0.205920
H316	H	0.902358	0.089683	0.294080
C317	C	1.112544	-0.595461	-0.763458
C318	C	1.612544	-0.095461	-0.263458
C319	C	1.069056	-0.655505	-0.722807
C320	C	1.569056	-0.155505	-0.222807
H321	H	1.141916	-0.641651	-0.787436
H322	H	1.641916	-0.141651	-0.287436
H323	H	1.086780	-0.554916	-0.794622
H324	H	1.586780	-0.054916	-0.294622
H325	H	1.138438	-0.549105	-0.735881
H326	H	1.638438	-0.049105	-0.235881
H327	H	1.043159	-0.701855	-0.750385
H328	H	1.543159	-0.201855	-0.250385
H329	H	1.094823	-0.696067	-0.691639
H330	H	1.594823	-0.196067	-0.191639
