data_functionalizedCrystal
_audit_creation_method	'MofGen! by Chris Wilmer'
_symmetry_space_group_name_H-M	'P1'
_symmetry_Int_Tables_number	1
_symmetry_cell_setting	triclinic
loop_
_symmetry_equiv_pos_as_xyz
  x,y,z
_cell_length_a	12.594517
_cell_length_b	12.594516
_cell_length_c	13.032268
_cell_angle_alpha	82.848693
_cell_angle_beta	82.838810
_cell_angle_gamma	90.011248
loop_
_atom_site_label
_atom_site_type_symbol
_atom_site_fract_x
_atom_site_fract_y
_atom_site_fract_z
Zn1	Zn	1.550825	-0.500154	0.590915
Zn2	Zn	1.573342	-0.655564	0.416182
Zn3	Zn	1.395442	-0.477599	0.416185
Zn4	Zn	1.372831	-0.678083	0.590865
O5	O	1.473110	-0.577850	0.503537
O6	O	1.702756	-0.520785	0.567755
O7	O	1.568630	-0.613094	0.269952
O8	O	1.416093	-0.331648	0.439386
O9	O	1.719299	-0.634964	0.439380
O10	O	1.530253	-0.348219	0.567759
O11	O	1.437927	-0.482343	0.269955
O12	O	1.243499	-0.504178	0.439338
O13	O	1.377556	-0.673343	0.737102
O14	O	1.226887	-0.651473	0.567675
O15	O	1.508328	-0.542620	0.737139
O16	O	1.546705	-0.807494	0.439332
O17	O	1.399390	-0.824038	0.567671
C18	C	1.196574	-0.577822	0.503502
C19	C	1.078267	-0.577839	0.503512
C20	C	0.947234	-0.497669	0.433869
C21	C	1.005750	-0.484068	0.529224
C22	C	1.021321	-0.591393	0.408167
C23	C	0.925981	-0.564247	0.598994
C24	C	0.941554	-0.671609	0.477872
C25	C	1.000030	-0.658054	0.573293
C26	C	1.473063	-0.854389	0.503519
C27	C	1.473136	-0.972698	0.503546
C28	C	1.553333	-1.032923	0.433817
C29	C	1.567001	-1.115956	0.529195
C30	C	1.459594	-1.100471	0.408228
C31	C	1.486846	-1.054179	0.598975
C32	C	1.379403	-1.038679	0.477943
C33	C	1.393025	-1.121689	0.573387
C34	C	1.750726	-0.577879	0.503573
C35	C	1.869030	-0.577891	0.503588
C36	C	1.437908	-0.613009	0.776097
C37	C	1.422907	-0.627992	0.892245
C38	C	1.473183	-0.300234	0.503578
C39	C	1.473215	-0.181931	0.503596
C40	C	1.508236	-0.542751	0.232038
C41	C	1.523443	-0.527468	0.115890
C42	C	1.480923	-0.569992	0.944046
C43	C	1.465420	-0.585476	1.064092
H44	H	0.913229	-0.750858	0.456119
H45	H	1.448106	-1.121213	0.327598
H46	H	1.404263	-0.646592	1.108613
H47	H	1.034036	-0.404790	0.550961
H48	H	0.884636	-0.552711	0.679681
N49	N	1.672036	-1.160790	0.557924
H50	H	1.732543	-1.128256	0.505193
H51	H	1.670922	-1.241034	0.558409
N52	N	1.502193	-1.026885	0.705806
H53	H	1.572763	-1.055733	0.725318
H54	H	1.441944	-1.060031	0.758486
N55	N	1.643167	-0.981682	0.355786
H56	H	1.612494	-0.930576	0.301432
H57	H	1.684346	-1.039036	0.320945
N58	N	1.303206	-1.172662	0.651602
H59	H	1.313605	-1.156005	0.723556
H60	H	1.303369	-1.252729	0.650688
N61	N	1.274395	-0.993814	0.449192
H62	H	1.264204	-1.010261	0.377120
H63	H	1.274963	-0.913752	0.450122
N64	N	1.076263	-0.606558	0.301324
H65	H	1.057297	-0.545934	0.248751
H66	H	1.051947	-0.676804	0.281478
H67	H	1.023301	-0.725883	0.632288
N68	N	1.604453	-0.446505	1.056936
H69	H	1.585515	-0.372882	1.075886
H70	H	1.604016	-0.447009	0.979555
N71	N	1.341893	-0.708938	0.951210
H72	H	1.342296	-0.708519	1.028609
H73	H	1.360867	-0.782524	0.932186
N74	N	1.561940	-0.489054	0.885072
H75	H	1.524522	-0.433923	0.839776
H76	H	1.617020	-0.526628	0.839859
N77	N	0.916121	-0.407797	0.355906
H78	H	0.939366	-0.337021	0.375443
H79	H	0.835921	-0.408962	0.356044
