data_functionalizedCrystal
_audit_creation_method	'MofGen! by Chris Wilmer'
_symmetry_space_group_name_H-M	'P1'
_symmetry_Int_Tables_number	1
_symmetry_cell_setting	triclinic
loop_
_symmetry_equiv_pos_as_xyz
  x,y,z
_cell_length_a	10.654550
_cell_length_b	12.503572
_cell_length_c	14.044220
_cell_angle_alpha	86.156832
_cell_angle_beta	88.836890
_cell_angle_gamma	93.555982
loop_
_atom_site_label
_atom_site_type_symbol
_atom_site_fract_x
_atom_site_fract_y
_atom_site_fract_z
O1	O	1.687869	0.089413	0.127786
O2	O	1.323665	0.089396	0.140480
O3	O	1.500299	0.089394	-0.003887
O4	O	1.511234	0.089416	0.272153
O5	O	1.487017	-0.089248	0.006989
O6	O	1.310383	-0.089245	0.151356
O7	O	1.674587	-0.089228	0.138661
Cu8	Cu	1.491272	-0.105548	0.146002
Cu9	Cu	1.506980	0.105716	0.133140
O10	O	1.497952	-0.089226	0.283028
C11	C	1.270132	0.000073	0.144986
C12	C	1.130408	0.000066	0.142198
C13	C	1.059466	0.000089	0.227198
C14	C	0.928182	0.000107	0.224571
C15	C	0.938796	0.000085	0.051937
C16	C	1.070076	0.000059	0.054565
C17	C	1.119797	0.000096	0.314831
C18	C	1.048855	0.000120	0.399838
C19	C	0.917571	0.000138	0.397211
C20	C	0.857231	0.000133	0.309577
N21	N	1.480234	-0.254140	0.155047
C22	C	1.463996	-0.473255	0.168361
C23	C	1.534261	-0.526583	0.110776
C24	C	1.525226	-0.648507	0.118184
C25	C	1.473029	-0.351321	0.160954
C26	C	1.728120	0.000097	0.134155
C27	C	1.867844	0.000111	0.136943
C28	C	1.488873	0.000072	-0.033795
C29	C	1.474597	0.000070	-0.139114
N30	N	1.518027	0.254308	0.124087
C31	C	1.448499	0.000085	-0.331948
C32	C	1.549748	0.000093	-0.388916
C33	C	1.535227	0.000101	-0.496216
C34	C	1.463018	0.000077	-0.224639
C35	C	1.509380	0.000098	0.312936
C36	C	1.523656	0.000107	0.418256
H37	H	0.859812	0.000146	0.466428
O38	O	1.666226	-0.000059	-0.351073
C39	C	1.724983	-0.092594	-0.375958
H40	H	1.680898	-0.123428	-0.442987
H41	H	1.829676	-0.071793	-0.390138
H42	H	1.711888	-0.157386	-0.314874
O43	O	1.332071	0.000267	-0.369859
C44	C	1.273260	0.092764	-0.344942
H45	H	1.347948	0.157438	-0.327754
H46	H	1.215523	0.123815	-0.407199
H47	H	1.208755	0.071835	-0.279727
H48	H	1.601203	-0.480672	0.055913
O49	O	0.880338	0.000234	-0.033251
C50	C	0.922534	0.092758	-0.090741
H51	H	1.018649	0.123583	-0.066169
H52	H	0.930321	0.071945	-0.168349
H53	H	0.852754	0.157562	-0.084195
O54	O	1.247327	0.000220	0.317498
C55	C	1.295181	0.092757	0.360059
H56	H	1.218730	0.123623	0.407065
H57	H	1.378849	0.071946	0.405520
H58	H	1.326661	0.157529	0.302013
O59	O	1.107331	0.000265	0.485010
C60	C	1.078949	0.092809	0.531232
H61	H	0.987442	0.123665	0.502901
H62	H	1.068048	0.072010	0.611373
H63	H	1.158405	0.157584	0.516801
O64	O	1.139184	-0.000006	-0.027910
C65	C	1.267993	-0.000005	-0.006797
H66	H	1.278829	-0.033820	0.069804
H67	H	1.317405	-0.051887	-0.057762
H68	H	1.311902	0.085690	-0.015361
O69	O	0.729713	0.000338	0.307060
C70	C	0.689844	0.092855	0.347918
H71	H	0.770419	0.157509	0.343976
H72	H	0.606622	0.123923	0.307078
H73	H	0.660252	0.071947	0.425737
O74	O	1.384252	-0.528183	0.233791
C75	C	1.392864	-0.639452	0.226705
H76	H	1.487622	-0.654658	0.192729
H77	H	1.383977	-0.682285	0.301011
H78	H	1.313958	-0.671386	0.180647
