data_functionalizedCrystal
_audit_creation_method	'MofGen! by Chris Wilmer'
_symmetry_space_group_name_H-M	'P1'
_symmetry_Int_Tables_number	1
_symmetry_cell_setting	triclinic
loop_
_symmetry_equiv_pos_as_xyz
  x,y,z
_cell_length_a	10.654550
_cell_length_b	8.559649
_cell_length_c	9.130313
_cell_angle_alpha	89.997262
_cell_angle_beta	89.999724
_cell_angle_gamma	77.131797
loop_
_atom_site_label
_atom_site_type_symbol
_atom_site_fract_x
_atom_site_fract_y
_atom_site_fract_z
O1	O	1.644682	0.224185	-0.121684
O2	O	1.276997	0.245544	-0.121710
O3	O	1.493232	0.002621	-0.121693
O4	O	1.428446	0.467107	-0.121701
O5	O	1.493220	0.002614	0.121906
O6	O	1.276984	0.245537	0.121889
O7	O	1.644669	0.224178	0.121915
Cu8	Cu	1.460826	0.234857	0.144144
Cu9	Cu	1.460840	0.234865	-0.143939
O10	O	1.428433	0.467100	0.121898
C11	C	1.230355	0.243972	0.000086
C12	C	1.091396	0.239280	0.000076
C13	C	0.997136	0.382309	0.000078
C14	C	0.866571	0.377890	0.000103
C15	C	0.924541	0.087402	0.000119
C16	C	1.055103	0.091822	0.000104
C17	C	1.498136	-0.056858	0.000104
C18	C	1.512750	-0.234076	0.000097
C19	C	1.691311	0.225750	0.000116
C20	C	1.830270	0.230442	0.000116
C21	C	1.423530	0.526579	0.000098
C22	C	1.408915	0.703797	0.000095
N23	N	1.460824	0.234850	0.346767
N24	N	1.460853	0.234859	-0.346562
C25	C	1.556598	0.127329	0.423426
C26	C	1.556610	0.127330	0.576763
C27	C	1.365070	0.342385	0.576768
C28	C	1.365054	0.342375	0.423434
H29	H	1.308837	-0.213815	0.000093
O30	O	1.649681	0.022720	0.349178
C31	C	1.734231	-0.072154	0.449729
H32	H	1.682988	-0.074556	0.559038
H33	H	1.822412	-0.019224	0.466016
C34	C	1.839630	-0.241094	0.255647
C35	C	1.776689	-0.244055	0.389899
H36	H	1.865826	-0.347129	0.218741
H37	H	1.782671	-0.177172	0.187903
H38	H	1.913106	-0.196978	0.269239
H39	H	1.703206	-0.288151	0.376303
H40	H	1.833637	-0.307988	0.457640
O41	O	1.271890	0.446673	0.651183
C42	C	1.150223	0.419272	0.613714
H43	H	1.161940	0.291469	0.571573
H44	H	1.104829	0.507304	0.524710
C45	C	1.048418	0.600037	0.801698
C46	C	1.062809	0.443062	0.749951
H47	H	0.994493	0.614718	0.885732
H48	H	1.130386	0.618503	0.826938
H49	H	1.010594	0.673379	0.727515
H50	H	1.100646	0.369725	0.824127
H51	H	0.980844	0.424584	0.724726
H52	H	1.634596	0.039775	0.639175
H53	H	1.287057	0.429932	0.361013
H54	H	1.026680	0.502378	0.000066
O55	O	0.889061	-0.055695	0.000069
C56	C	0.753611	-0.028930	0.000116
H57	H	0.710866	0.095290	-0.046006
H58	H	0.717941	-0.037069	0.116986
C59	C	0.764079	-0.309067	-0.038757
C60	C	0.711579	-0.156503	-0.095416
H61	H	0.738150	-0.387763	-0.097680
H62	H	0.855334	-0.327101	-0.038783
H63	H	0.734349	-0.315827	0.058634
H64	H	0.741322	-0.149739	-0.192798
H65	H	0.620327	-0.138471	-0.095409
H66	H	0.789827	0.494359	0.000108
H67	H	1.131856	-0.024657	0.000106
H68	H	1.612835	-0.316473	0.000116
