data_functionalizedCrystal
_audit_creation_method	'MofGen! by Chris Wilmer'
_symmetry_space_group_name_H-M	'P1'
_symmetry_Int_Tables_number	1
_symmetry_cell_setting	triclinic
loop_
_symmetry_equiv_pos_as_xyz
  x,y,z
_cell_length_a	11.169417
_cell_length_b	13.897448
_cell_length_c	11.169417
_cell_angle_alpha	90.010849
_cell_angle_beta	90.000863
_cell_angle_gamma	90.018571
loop_
_atom_site_label
_atom_site_type_symbol
_atom_site_fract_x
_atom_site_fract_y
_atom_site_fract_z
Zn1	Zn	1.834676	-0.384150	0.678515
Zn2	Zn	1.834606	-0.545416	0.477821
Zn3	Zn	1.634029	-0.384139	0.477850
Zn4	Zn	1.633944	-0.545407	0.678466
O5	O	1.734314	-0.464778	0.578163
O6	O	2.002617	-0.405550	0.651901
O7	O	1.808006	-0.524021	0.309875
O8	O	1.660710	-0.249159	0.504501
O9	O	2.002565	-0.524032	0.504452
O10	O	1.808125	-0.249167	0.651929
O11	O	1.660642	-0.405532	0.309896
O12	O	1.466068	-0.405523	0.504453
O13	O	1.660565	-0.524016	0.846422
O14	O	1.466006	-0.524006	0.651845
O15	O	1.808043	-0.405541	0.846458
O16	O	1.807923	-0.680396	0.504404
O17	O	1.660498	-0.680390	0.651817
C18	C	1.422489	-0.464763	0.578147
C19	C	1.289089	-0.464780	0.578169
C20	C	1.734226	-0.715392	0.578128
C21	C	1.734299	-0.822606	0.578153
C22	C	1.734425	-1.018901	0.578229
C23	C	1.734351	-0.909669	0.578190
C24	C	2.047356	-0.464793	0.578179
C25	C	2.180756	-0.464800	0.578186
C26	C	1.734302	-0.464779	0.891205
C27	C	1.734297	-0.464780	1.024605
C28	C	1.734434	-0.213185	0.578224
C29	C	1.734486	-0.105971	0.578250
C30	C	1.734311	-0.464794	1.266338
C31	C	1.734301	-0.464781	1.132938
