data_functionalizedCrystal
_audit_creation_method	'MofGen! by Chris Wilmer'
_symmetry_space_group_name_H-M	'P1'
_symmetry_Int_Tables_number	1
_symmetry_cell_setting	triclinic
loop_
_symmetry_equiv_pos_as_xyz
  x,y,z
_cell_length_a	10.686220
_cell_length_b	14.908579
_cell_length_c	10.685986
_cell_angle_alpha	91.366561
_cell_angle_beta	99.031138
_cell_angle_gamma	82.566242
loop_
_atom_site_label
_atom_site_type_symbol
_atom_site_fract_x
_atom_site_fract_y
_atom_site_fract_z
Zn1	Zn	1.865866	0.224334	-0.588636
Zn2	Zn	2.365866	0.724334	-0.088636
Zn3	Zn	1.867835	0.385985	-0.390525
Zn4	Zn	2.367835	0.885985	0.109475
Zn5	Zn	1.667977	0.245900	-0.394550
Zn6	Zn	2.167977	0.745900	0.105450
Zn7	Zn	1.639438	0.385921	-0.618963
Zn8	Zn	2.139438	0.885921	-0.118963
O9	O	1.760279	0.310535	-0.498169
O10	O	2.260279	0.810535	0.001831
O11	O	2.044530	0.236779	-0.547980
O12	O	2.544530	0.736779	-0.047980
O13	O	1.854091	0.376454	-0.214231
O14	O	2.354091	0.876454	0.285769
O15	O	1.705347	0.116788	-0.409288
O16	O	2.205347	0.616788	0.090712
O17	O	2.045977	0.355543	-0.402429
O18	O	2.545977	0.855543	0.097571
O19	O	1.850736	0.100944	-0.551883
O20	O	2.350736	0.600944	-0.051883
O21	O	1.707256	0.273534	-0.217188
O22	O	2.207256	0.773534	0.282812
O23	O	1.485789	0.273472	-0.438695
O24	O	1.985789	0.773472	0.061305
O25	O	1.656707	0.355434	-0.791768
O26	O	2.156707	0.855434	-0.291768
O27	O	1.464821	0.376345	-0.603570
O28	O	1.964821	0.876345	-0.103570
O29	O	1.823063	0.236717	-0.769487
O30	O	2.323063	0.736717	-0.269487
O31	O	1.826418	0.512227	-0.431835
O32	O	2.326418	1.012227	0.068165
O33	O	1.658616	0.512180	-0.599668
O34	O	2.158616	1.012180	-0.099668
C35	C	1.429047	0.327243	-0.524861
C36	C	1.929047	0.827243	-0.024861
C37	C	1.287340	0.334411	-0.536312
C38	C	1.787340	0.834411	-0.036312
C39	C	1.739667	0.544936	-0.518631
C40	C	2.239667	1.044936	-0.018631
C41	C	1.730962	0.645205	-0.527417
C42	C	2.230962	1.145205	-0.027417
C43	C	1.889496	0.833595	-0.369281
C44	C	2.389496	1.333595	0.130719
C45	C	1.881322	0.927807	-0.377532
C46	C	2.381322	1.427807	0.122468
C47	C	1.706447	0.927843	-0.552176
C48	C	2.206447	1.427843	-0.052176
C49	C	1.714621	0.833631	-0.543925
C50	C	2.214621	1.333631	-0.043925
C51	C	1.806147	0.786510	-0.452473
C52	C	2.306147	1.286510	0.047527
C53	C	1.814315	0.692297	-0.444217
C54	C	2.314315	1.192297	0.055783
C55	C	1.639446	0.692334	-0.618865
C56	C	2.139446	1.192334	-0.118865
C57	C	1.631272	0.786546	-0.627117
C58	C	2.131272	1.286546	-0.127117
C59	C	2.092805	0.293762	-0.471372
C60	C	2.592805	0.793762	0.028628
C61	C	2.234507	0.286615	-0.459954
C62	C	2.734507	0.786615	0.040046
C63	C	1.736482	0.293663	-0.827759
C64	C	2.236482	0.793663	-0.327759
C65	C	1.726341	0.286474	-0.968211
C66	C	2.226341	0.786474	-0.468211
C67	C	1.780995	1.075215	-0.477668
C68	C	2.280995	1.575215	0.022332
C69	C	1.789799	0.974935	-0.468976
C70	C	2.289799	1.474935	0.031024
C71	C	1.784063	0.327272	-0.169849
C72	C	2.284063	0.827272	0.330151
C73	C	1.794473	0.334195	-0.029356
C74	C	2.294473	0.834195	0.470644
H75	H	1.224163	0.380815	-0.610445
H76	H	1.724163	0.880815	-0.110445
Br77	Br	1.904648	0.411451	-0.937516
Br78	Br	2.404648	0.911451	-0.437516
Br79	Br	1.339807	0.209276	-0.336367
Br80	Br	1.839807	0.709276	0.163633
Br81	Br	1.938519	0.628349	-0.320098
Br82	Br	2.438519	1.128349	0.179902
H83	H	1.631938	0.966224	-0.626639
H84	H	2.131938	1.466224	-0.126639
Br85	Br	2.013684	0.769644	-0.245151
Br86	Br	2.513684	1.269644	0.254849
Br87	Br	1.994449	0.991706	-0.264630
Br88	Br	2.494449	1.491706	0.235370
Br89	Br	1.507070	0.850503	-0.751230
Br90	Br	2.007070	1.350503	-0.251230
Br91	Br	1.526302	0.628431	-0.731756
Br92	Br	2.026302	1.128431	-0.231756
Br93	Br	1.616194	0.209205	-1.060043
Br94	Br	2.116194	0.709205	-0.560043
