data_functionalizedCrystal
_audit_creation_method	'MofGen! by Chris Wilmer'
_symmetry_space_group_name_H-M	'P1'
_symmetry_Int_Tables_number	1
_symmetry_cell_setting	triclinic
loop_
_symmetry_equiv_pos_as_xyz
  x,y,z
_cell_length_a	19.077105
_cell_length_b	12.759400
_cell_length_c	19.077174
_cell_angle_alpha	92.275311
_cell_angle_beta	85.483752
_cell_angle_gamma	87.711168
loop_
_atom_site_label
_atom_site_type_symbol
_atom_site_fract_x
_atom_site_fract_y
_atom_site_fract_z
Zn1	Zn	1.093766	-0.510482	-0.441863
Zn2	Zn	1.593766	-0.010482	0.058137
Zn3	Zn	1.088970	-0.678821	-0.323981
Zn4	Zn	1.588970	-0.178821	0.176019
Zn5	Zn	0.971149	-0.495796	-0.319260
Zn6	Zn	1.471149	0.004204	0.180740
Zn7	Zn	0.975864	-0.678752	-0.437099
Zn8	Zn	1.475864	-0.178752	0.062901
O9	O	1.032437	-0.590963	-0.380551
O10	O	1.532437	-0.090963	0.119449
O11	O	1.191780	-0.538988	-0.430195
O12	O	1.691780	-0.038988	0.069805
O13	O	1.069361	-0.648424	-0.224705
O14	O	1.569361	-0.148424	0.275295
O15	O	0.987448	-0.350726	-0.335541
O16	O	1.487448	0.149274	0.164459
O17	O	1.188257	-0.662665	-0.343588
O18	O	1.688257	-0.162665	0.156412
O19	O	1.077534	-0.361516	-0.425617
O20	O	1.577534	0.138484	0.074383
O21	O	0.982798	-0.513957	-0.221236
O22	O	1.482798	-0.013957	0.278764
O23	O	0.873124	-0.513890	-0.330922
O24	O	1.373124	-0.013890	0.169078
O25	O	0.995484	-0.662548	-0.536381
O26	O	1.495484	-0.162548	-0.036381
O27	O	0.876588	-0.648307	-0.417498
O28	O	1.376588	-0.148307	0.082502
O29	O	1.082106	-0.538921	-0.539881
O30	O	1.582106	-0.038921	-0.039881
O31	O	1.073933	-0.825829	-0.338969
O32	O	1.573933	-0.325829	0.161031
O33	O	0.990835	-0.825779	-0.422076
O34	O	1.490835	-0.325779	0.077924
C35	C	0.849277	-0.579498	-0.373181
C36	C	1.349277	-0.079498	0.126819
C37	C	0.770921	-0.574620	-0.370045
C38	C	1.270921	-0.074620	0.129955
C39	C	0.735928	-0.642409	-0.413576
C40	C	1.235928	-0.142409	0.086424
C41	C	0.662304	-0.637812	-0.410633
C42	C	1.162304	-0.137812	0.089367
C43	C	0.623674	-0.565430	-0.364154
C44	C	1.123674	-0.065430	0.135846
C45	C	0.658672	-0.497634	-0.320621
C46	C	1.158672	0.002366	0.179379
C47	C	0.732294	-0.502227	-0.323569
C48	C	1.232294	-0.002227	0.176431
C49	C	0.403291	-0.544174	-0.350517
C50	C	0.903291	-0.044174	0.149483
C51	C	0.329663	-0.539588	-0.347571
C52	C	0.829663	-0.039588	0.152429
C53	C	0.333300	-0.679766	-0.437584
C54	C	0.833300	-0.179766	0.062416
C55	C	0.406924	-0.684356	-0.440525
C56	C	0.906924	-0.184356	0.059475
C57	C	0.441915	-0.616557	-0.396994
C58	C	0.941915	-0.116557	0.103006
N59	N	0.548418	-0.560732	-0.361143
N60	N	1.048418	-0.060732	0.138857
N61	N	0.517170	-0.621251	-0.400009
N62	N	1.017170	-0.121251	0.099991
C63	C	1.032395	-0.863926	-0.380534
C64	C	1.532395	-0.363926	0.119466
C65	C	1.032442	-0.980707	-0.380554
C66	C	1.532442	-0.480707	0.119446
C67	C	1.075764	-1.035567	-0.337331
C68	C	1.575764	-0.535567	0.162669
C69	C	1.075808	-1.145295	-0.337355
C70	C	1.575808	-0.645295	0.162645
C71	C	0.989203	-1.145294	-0.423824
C72	C	1.489203	-0.645294	0.076176
C73	C	0.989163	-1.035568	-0.423804
C74	C	1.489163	-0.535568	0.076196
C75	C	1.119043	-0.980706	-0.294081
C76	C	1.619043	-0.480706	0.205919
C77	C	1.162367	-1.035566	-0.250855
C78	C	1.662367	-0.535566	0.249145
C79	C	1.162411	-1.145294	-0.250878
C80	C	1.662411	-0.645294	0.249122
C81	C	1.119131	-1.200162	-0.294128
C82	C	1.619131	-0.700162	0.205872
C83	C	1.216313	-0.602473	-0.387950
C84	C	1.716313	-0.102473	0.112050
C85	C	1.294670	-0.607377	-0.391103
C86	C	1.794670	-0.107377	0.108897
C87	C	1.039856	-0.602365	-0.564425
C88	C	1.539856	-0.102365	-0.064425
C89	C	1.043018	-0.607224	-0.642781
C90	C	1.543018	-0.107224	-0.142781
C91	C	1.032500	-0.316935	-0.380583
C92	C	1.532500	0.183065	0.119417
C93	C	1.032526	-0.200161	-0.380597
C94	C	1.532526	0.299839	0.119403
C95	C	0.999436	-0.539498	-0.677787
C96	C	1.499436	-0.039498	-0.177787
C97	C	1.002404	-0.544073	-0.751410
C98	C	1.502404	-0.044073	-0.251410
C99	C	1.048957	-0.616368	-0.790028
C100	C	1.548957	-0.116368	-0.290028
C101	C	1.092540	-0.684101	-0.755017
C102	C	1.592540	-0.184101	-0.255017
C103	C	1.089569	-0.679532	-0.681395
C104	C	1.589569	-0.179532	-0.181395
C105	C	1.062675	-0.637548	-1.010410
C106	C	1.562675	-0.137548	-0.510410
C107	C	1.065645	-0.642110	-1.084038
C108	C	1.565645	-0.142110	-0.584038
C109	C	0.975507	-0.502082	-1.080426
C110	C	1.475507	-0.002082	-0.580426
C111	C	0.972542	-0.497515	-1.006802
C112	C	1.472542	0.002485	-0.506802
C113	C	1.016123	-0.565251	-0.971798
C114	C	1.516123	-0.065251	-0.471798
N115	N	1.051993	-0.621043	-0.865283
N116	N	1.551993	-0.121043	-0.365283
N117	N	1.013082	-0.560581	-0.896543
N118	N	1.513082	-0.060581	-0.396543
C119	C	1.025088	-0.579531	-0.197394
C120	C	1.525088	-0.079531	0.302606
C121	C	1.022063	-0.574385	-0.119043
C122	C	1.522063	-0.074385	0.380957
H123	H	0.298212	-0.480635	-0.309727
H124	H	0.798212	0.019365	0.190273
C125	C	1.200751	-0.867362	-0.212420
C126	C	1.700751	-0.367362	0.287580
C127	C	1.209939	-0.975259	-0.203317
C128	C	1.709939	-0.475259	0.296683
H129	H	1.230119	-0.830135	-0.183068
H130	H	1.730119	-0.330135	0.316932
H131	H	1.212938	-0.852919	-0.260197
H132	H	1.712938	-0.352919	0.239803
H133	H	1.152966	-0.845856	-0.200155
H134	H	1.652966	-0.345856	0.299845
H135	H	1.257724	-0.996766	-0.215587
H136	H	1.757724	-0.496766	0.284413
H137	H	1.197757	-0.989708	-0.155529
H138	H	1.697757	-0.489708	0.344471
C139	C	0.421114	-0.486727	-0.232112
C140	C	0.921114	0.013273	0.267888
C141	C	0.441744	-0.469651	-0.302665
C142	C	0.941744	0.030349	0.197335
H143	H	0.444859	-0.440720	-0.202570
H144	H	0.944859	0.059280	0.297430
H145	H	0.371744	-0.473641	-0.223713
H146	H	0.871744	0.026359	0.276287
H147	H	0.432760	-0.557401	-0.222203
H148	H	0.932760	-0.057401	0.277797
H149	H	0.430094	-0.398979	-0.312575
H150	H	0.930094	0.101021	0.187425
H151	H	0.491126	-0.482730	-0.311067
H152	H	0.991126	0.017270	0.188933
H153	H	1.197693	-1.189958	-0.215687
H154	H	1.697693	-0.689958	0.284313
H155	H	0.934632	-0.438647	-0.975364
H156	H	1.434632	0.061353	-0.475364
H157	H	0.767375	-0.701354	-0.451422
H158	H	1.267375	-0.201354	0.048578
H159	H	1.130441	-0.742971	-0.786465
H160	H	1.630441	-0.242971	-0.286465
H161	H	0.940025	-0.446936	-1.108934
H162	H	1.440025	0.053064	-0.608934
H163	H	0.760784	-0.447021	-0.288124
H164	H	1.260784	0.052979	0.211876
C165	C	0.490095	-0.831454	-0.453476
C166	C	0.990095	-0.331454	0.046524
C167	C	0.449388	-0.763911	-0.491620
C168	C	0.949388	-0.263911	0.008380
H169	H	0.516308	-0.880571	-0.485020
H170	H	1.016308	-0.380571	0.014980
H171	H	0.521467	-0.791737	-0.427975
H172	H	1.021467	-0.291737	0.072025
H173	H	0.460115	-0.867875	-0.421570
H174	H	0.960115	-0.367875	0.078430
H175	H	0.479368	-0.727484	-0.523522
H176	H	0.979368	-0.227484	-0.023522
H177	H	0.418013	-0.803633	-0.517133
H178	H	0.918013	-0.303633	-0.017133
C179	C	0.222057	-0.734963	-0.473041
C180	C	0.722057	-0.234963	0.026959
C181	C	0.294836	-0.754278	-0.485438
C182	C	0.794836	-0.254278	0.014562
H183	H	0.198314	-0.780961	-0.502591
H184	H	0.698314	-0.280961	-0.002591
H185	H	0.208071	-0.746545	-0.425181
H186	H	0.708071	-0.246545	0.074819
H187	H	0.210430	-0.664286	-0.482956
H188	H	0.710430	-0.164286	0.017044
H189	H	0.306464	-0.824953	-0.475518
H190	H	0.806464	-0.324953	0.024482
H191	H	0.308828	-0.742704	-0.533309
H192	H	0.808828	-0.242704	-0.033309
C193	C	1.166349	-1.357348	-0.247087
C194	C	1.666349	-0.857348	0.252913
C195	C	1.119181	-1.320778	-0.294156
C196	C	1.619181	-0.820778	0.205844
H197	H	1.166374	-1.431809	-0.247101
H198	H	1.666374	-0.931809	0.252899
H199	H	1.212308	-1.336063	-0.261143
H200	H	1.712308	-0.836063	0.238857
H201	H	1.152343	-1.328985	-0.201093
H202	H	1.652343	-0.828985	0.298907
H203	H	1.133190	-1.349135	-0.340152
H204	H	1.633190	-0.849135	0.159848
H205	H	1.073212	-1.342073	-0.280105
H206	H	1.573212	-0.842073	0.219895
H207	H	1.119010	-0.891360	-0.294055
H208	H	1.619010	-0.391360	0.205945
H209	H	0.627213	-0.438695	-0.282780
H210	H	1.127213	0.061305	0.217220
C211	C	0.883958	-0.486819	-0.769259
C212	C	1.383958	0.013181	-0.269259
C213	C	0.954494	-0.469620	-0.789879
C214	C	1.454494	0.030380	-0.289879
H215	H	0.854378	-0.440847	-0.793003
H216	H	1.354378	0.059153	-0.293003
H217	H	0.874114	-0.557500	-0.780906
H218	H	1.374114	-0.057500	-0.280906
H219	H	0.875544	-0.473756	-0.719883
H220	H	1.375544	0.026244	-0.219883
H221	H	0.962909	-0.482690	-0.839255
H222	H	1.462909	0.017310	-0.339255
H223	H	0.964342	-0.398922	-0.778237
H224	H	1.464342	0.101078	-0.278237
C225	C	0.954859	-0.470311	-0.563327
C226	C	1.454859	0.029689	-0.063327
C227	C	0.948264	-0.460027	-0.635341
C228	C	1.448264	0.039973	-0.135341
H229	H	0.923268	-0.421243	-0.537125
H230	H	1.423268	0.078757	-0.037125
H231	H	0.944037	-0.539496	-0.550839
H232	H	1.444037	-0.039496	-0.050839
H233	H	1.001744	-0.457148	-0.553176
H234	H	1.501744	0.042852	-0.053176
H235	H	0.901380	-0.473197	-0.645493
H236	H	1.401380	0.026803	-0.145493
H237	H	0.959081	-0.390825	-0.647833
H238	H	1.459081	0.109175	-0.147833
H239	H	0.953888	-0.990901	-0.459000
H240	H	1.453888	-0.490901	0.041000
H241	H	1.103557	-0.700984	-1.115478
H242	H	1.603557	-0.200984	-0.615478
C243	C	1.152084	-0.776393	-1.021387
C244	C	1.652084	-0.276393	-0.521387
C245	C	1.110590	-0.711986	-0.971940
C246	C	1.610590	-0.211986	-0.471940
H247	H	1.181672	-0.822341	-0.997633
H248	H	1.681672	-0.322341	-0.497633
H249	H	1.122521	-0.816445	-1.048856
H250	H	1.622521	-0.316445	-0.548856
H251	H	1.180210	-0.734070	-1.051197
H252	H	1.680210	-0.234070	-0.551197
H253	H	1.082461	-0.754308	-0.942133
H254	H	1.582461	-0.254308	-0.442133
H255	H	1.140157	-0.671930	-0.944458
H256	H	1.640157	-0.171930	-0.444458
C257	C	0.950806	-1.313497	-0.462242
C258	C	1.450806	-0.813497	0.037758
C259	C	0.941626	-1.205602	-0.471355
C260	C	1.441626	-0.705602	0.028645
H261	H	0.921428	-1.350725	-0.491582
H262	H	1.421428	-0.850725	0.008418
H263	H	0.998583	-1.335013	-0.474509
H264	H	1.498583	-0.835013	0.025491
H265	H	0.938623	-1.327926	-0.414455
H266	H	1.438623	-0.827926	0.085545
H267	H	0.953814	-1.191172	-0.519142
H268	H	1.453814	-0.691172	-0.019142
H269	H	0.893839	-1.184079	-0.459093
H270	H	1.393839	-0.684079	0.040907
C271	C	1.178965	-0.818399	-0.692355
C272	C	1.678965	-0.318399	-0.192355
C273	C	1.137474	-0.753979	-0.642914
C274	C	1.637474	-0.253979	-0.142914
H275	H	1.208540	-0.864359	-0.668598
H276	H	1.708540	-0.364359	-0.168598
H277	H	1.149399	-0.858438	-0.719830
H278	H	1.649399	-0.358438	-0.219830
H279	H	1.207102	-0.776086	-0.722161
H280	H	1.707102	-0.276086	-0.222161
H281	H	1.109333	-0.796292	-0.613111
H282	H	1.609333	-0.296292	-0.113111
H283	H	1.167043	-0.713936	-0.615427
H284	H	1.667043	-0.213936	-0.115427
H285	H	0.633816	-0.693014	-0.446080
H286	H	1.133816	-0.193014	0.053920
