data_functionalizedCrystal
_audit_creation_method	'MofGen! by Chris Wilmer'
_symmetry_space_group_name_H-M	'P1'
_symmetry_Int_Tables_number	1
_symmetry_cell_setting	triclinic
loop_
_symmetry_equiv_pos_as_xyz
  x,y,z
_cell_length_a	10.540514
_cell_length_b	27.732048
_cell_length_c	9.616153
_cell_angle_alpha	89.992780
_cell_angle_beta	89.992599
_cell_angle_gamma	83.578907
loop_
_atom_site_label
_atom_site_type_symbol
_atom_site_fract_x
_atom_site_fract_y
_atom_site_fract_z
O1	O	1.682955	0.068054	-0.115680
O2	O	1.313259	0.074484	-0.115681
O3	O	1.509589	0.000944	-0.115654
O4	O	1.486625	0.141594	-0.115707
O5	O	1.509563	0.000946	0.115638
O6	O	1.313232	0.074486	0.115611
O7	O	1.682929	0.068055	0.115611
Zn8	Zn	1.498076	0.071271	0.152334
Zn9	Zn	1.498112	0.071269	-0.152403
O10	O	1.486599	0.141595	0.115585
C11	C	1.265963	0.074005	-0.000034
C12	C	1.125076	0.072570	-0.000034
C13	C	1.052086	0.125165	-0.000056
C14	C	0.905537	0.123690	-0.000588
C15	C	0.933995	0.043966	-0.131853
C16	C	1.080455	0.045814	-0.131957
C17	C	1.080861	0.045037	0.131074
C18	C	0.933904	0.044530	0.132800
C19	C	1.509094	-0.017065	-0.000004
C20	C	1.507642	-0.070729	0.000007
C21	C	1.614523	-0.408875	-0.000064
C22	C	1.609137	-0.610568	-0.000083
O23	O	1.706871	-0.641212	-0.000144
N24	N	1.492721	-0.630421	-0.000082
C25	C	1.377644	-0.599847	-0.000085
O26	O	1.278502	-0.621361	-0.000099
C27	C	1.383031	-0.398154	-0.000076
C28	C	1.499454	-0.378305	-0.000063
C29	C	1.730936	-0.389024	-0.000053
C30	C	1.732281	-0.338604	-0.000040
C31	C	1.617213	-0.308034	-0.000039
C32	C	1.500799	-0.327884	-0.000051
C33	C	1.267955	-0.367581	-0.000089
C34	C	1.269312	-0.317156	-0.000090
C35	C	1.385735	-0.297306	-0.000077
C36	C	1.387076	-0.246894	-0.000037
N37	N	1.503491	-0.227041	-0.000038
C38	C	1.618560	-0.257611	-0.000039
C39	C	1.374824	-0.705738	-0.000088
C40	C	1.373477	-0.756161	-0.000087
C41	C	1.604971	-0.766879	-0.000088
C42	C	1.606316	-0.716455	-0.000078
C43	C	1.491240	-0.685886	-0.000089
C44	C	1.621376	-0.151724	-0.000012
C45	C	1.622711	-0.101299	0.000006
C46	C	1.391218	-0.090586	-0.000001
C47	C	1.389882	-0.141006	-0.000011
C48	C	1.504972	-0.171575	-0.000022
O49	O	1.289394	-0.216221	0.000008
O50	O	1.717688	-0.236088	-0.000056
C51	C	1.613177	-0.459295	-0.000076
C52	C	1.496764	-0.479145	-0.000088
C53	C	1.381695	-0.448575	-0.000087
C54	C	1.495417	-0.529568	-0.000088
C55	C	1.610485	-0.560138	-0.000089
C56	C	1.726901	-0.540286	-0.000090
C57	C	1.728246	-0.489865	-0.000077
C58	C	1.265279	-0.468428	-0.000086
C59	C	1.263944	-0.518849	-0.000097
C60	C	1.379012	-0.549419	-0.000098
C61	C	1.730225	0.068534	-0.000038
C62	C	1.871112	0.069969	-0.000048
C63	C	1.487094	0.159605	-0.000068
C64	C	1.488545	0.213269	-0.000088
N65	N	1.498062	0.071272	0.360308
N66	N	1.498136	0.071264	-0.360377
C67	C	1.392728	0.110479	0.580664
C68	C	1.392950	0.110626	0.419496
C69	C	1.630289	0.082740	0.418753
C70	C	1.629712	0.083018	0.579971
C71	C	1.472495	0.020468	0.580239
C72	C	1.469435	0.020797	0.419012
H73	H	0.911418	0.005373	0.141166
C74	C	0.906160	-0.009338	-0.137961
N75	N	0.885189	-0.049486	-0.142561
H76	H	1.827085	-0.322447	-0.000035
C77	C	0.875399	0.068041	-0.264894
N78	N	0.831244	0.086169	-0.365099
C79	C	1.734389	-0.694626	-0.000076
N80	N	1.830860	-0.678186	-0.000080
H81	H	1.698664	-0.791778	-0.000088
H82	H	1.652457	0.120077	0.617544
H83	H	1.169131	-0.535005	-0.000095
C84	C	1.146982	-0.007371	0.132817
N85	N	1.196789	-0.046844	0.134119
H86	H	1.541290	-0.009786	0.378728
H87	H	1.717521	-0.085140	0.000020
C88	C	0.846676	0.151338	0.126994
N89	N	0.802345	0.172173	0.223078
H90	H	1.715093	-0.176608	-0.000026
H91	H	1.823050	-0.473708	-0.000067
H92	H	1.378232	0.009552	0.620981
H93	H	1.824644	-0.413910	-0.000059
H94	H	1.111583	0.062546	0.231010
H95	H	1.107866	0.064805	-0.230874
C96	C	0.847976	0.151197	-0.129010
N97	N	0.804622	0.171914	-0.225749
H98	H	0.892072	0.063533	0.230311
H99	H	1.278674	-0.772318	-0.000074
C100	C	1.248222	-0.672117	-0.000098
N101	N	1.152863	-0.646796	-0.000102
H102	H	1.173151	-0.383734	-0.000108
H103	H	1.820594	-0.565185	-0.000085
H104	H	1.295081	-0.157169	0.000017
C105	C	1.142714	-0.283532	-0.000097
N106	N	1.047362	-0.258207	-0.000097
C107	C	1.738816	0.045944	0.632660
N108	N	1.821006	0.018026	0.672339
C109	C	1.414395	0.161104	0.635354
N110	N	1.430718	0.199234	0.676548
H111	H	1.409213	0.148312	0.380902
C112	C	1.264649	-0.056949	-0.000009
N113	N	1.169316	-0.031613	-0.000029
C114	C	1.576350	-0.018964	0.631756
N115	N	1.654575	-0.048661	0.670568
C116	C	1.147579	-0.006379	-0.139544
N117	N	1.198131	-0.045690	-0.145273
C118	C	1.259481	0.101310	0.633132
N119	N	1.159118	0.094406	0.672669
H120	H	1.710551	0.054958	0.380410
H121	H	1.171574	-0.443542	-0.000088
C122	C	1.260119	0.101313	0.366114
N123	N	1.160063	0.094302	0.325914
H124	H	1.372172	0.012104	0.380816
C125	C	1.089369	0.153991	0.127619
N126	N	1.117457	0.175703	0.223789
C127	C	1.091696	0.153567	-0.127583
N128	N	1.121531	0.174957	-0.223639
C129	C	1.661769	0.132243	0.364188
N130	N	1.685470	0.169531	0.323097
