data_functionalizedCrystal
_audit_creation_method	'MofGen! by Chris Wilmer'
_symmetry_space_group_name_H-M	'P1'
_symmetry_Int_Tables_number	1
_symmetry_cell_setting	triclinic
loop_
_symmetry_equiv_pos_as_xyz
  x,y,z
_cell_length_a	19.188930
_cell_length_b	14.971486
_cell_length_c	13.448316
_cell_angle_alpha	89.998144
_cell_angle_beta	90.018952
_cell_angle_gamma	83.379456
loop_
_atom_site_label
_atom_site_type_symbol
_atom_site_fract_x
_atom_site_fract_y
_atom_site_fract_z
O1	O	0.926505	0.111667	0.083000
O2	O	1.426505	0.611667	0.583000
O3	O	0.723242	0.126700	0.082930
O4	O	1.223242	0.626700	0.582930
O5	O	0.830321	-0.011046	0.082974
O6	O	1.330321	0.488954	0.582974
O7	O	0.819426	0.249412	0.082956
O8	O	1.319426	0.749412	0.582956
O9	O	0.830311	-0.011047	-0.082410
O10	O	1.330311	0.488953	0.417590
O11	O	0.723231	0.126698	-0.082454
O12	O	1.223231	0.626698	0.417546
O13	O	0.926494	0.111666	-0.082384
O14	O	1.426494	0.611666	0.417616
Cu15	Cu	0.824862	0.119182	-0.097520
Cu16	Cu	1.324862	0.619182	0.402480
Cu17	Cu	0.824874	0.119183	0.098066
Cu18	Cu	1.324874	0.619183	0.598066
O19	O	0.819415	0.249411	-0.082428
O20	O	1.319415	0.749411	0.417572
C21	C	0.697224	0.126212	0.000229
C22	C	1.197224	0.626212	0.500229
C23	C	0.619715	0.124751	0.000203
C24	C	1.119715	0.624751	0.500203
C25	C	0.829829	-0.044368	0.000286
C26	C	1.329829	0.455632	0.500286
C27	C	0.828369	-0.143658	0.000297
C28	C	1.328369	0.356342	0.500297
C29	C	0.575051	0.205575	0.000213
C30	C	1.075051	0.705575	0.500213
C31	C	0.502223	0.204202	0.000224
C32	C	1.002223	0.704202	0.500224
C33	C	0.474062	0.122000	0.000245
C34	C	0.974062	0.622000	0.500245
C35	C	0.518735	0.041165	0.000230
C36	C	1.018735	0.541165	0.500230
C37	C	0.591562	0.042541	0.000209
C38	C	1.091562	0.542541	0.500209
N39	N	0.365883	0.059168	0.056577
N40	N	0.865883	0.559168	0.556577
N41	N	0.296700	0.057867	0.056599
N42	N	0.796700	0.557867	0.556599
C43	C	0.254640	0.117852	0.000306
C44	C	0.754640	0.617852	0.500306
N45	N	0.284374	0.179201	-0.055997
N46	N	0.784374	0.679201	0.444003
N47	N	0.353563	0.180504	-0.056014
N48	N	0.853563	0.680504	0.443986
C49	C	0.395094	0.120500	0.000267
C50	C	0.895094	0.620500	0.500267
C51	C	0.131007	0.197193	0.000327
C52	C	0.631007	0.697193	0.500327
C53	C	0.058178	0.195817	0.000332
C54	C	0.558178	0.695817	0.500332
C55	C	0.074692	0.032778	0.000347
C56	C	0.574692	0.532778	0.500347
C57	C	0.147519	0.034157	0.000332
C58	C	0.647519	0.534157	0.500332
C59	C	0.175672	0.116367	0.000327
C60	C	0.675672	0.616367	0.500327
C61	C	0.952512	0.112153	0.000319
C62	C	1.452512	0.612153	0.500319
C63	C	1.030021	0.113615	0.000351
C64	C	1.530021	0.613615	0.500351
N65	N	0.824858	0.119180	-0.235084
N66	N	1.324858	0.619180	0.264916
C67	C	0.819907	0.282734	0.000262
C68	C	1.319907	0.782734	0.500262
C69	C	0.821368	0.382023	0.000257
C70	C	1.321368	0.882023	0.500257
C71	C	0.758461	0.439581	0.000237
C72	C	1.258461	0.939581	0.500237
C73	C	0.759838	0.532873	0.000250
C74	C	1.259838	1.032873	0.500250
C75	C	0.824121	0.568606	0.000278
C76	C	1.324121	1.068606	0.500278
C77	C	0.887032	0.511041	0.000301
C78	C	1.387032	1.011041	0.500301
C79	C	0.885655	0.417750	0.000295
C80	C	1.385655	0.917750	0.500295
C81	C	0.889898	0.705488	0.000313
C82	C	1.389898	1.205488	0.500313
C83	C	0.891275	0.798785	0.000318
C84	C	1.391275	1.298785	0.500318
C85	C	0.764080	0.820611	0.000269
C86	C	1.264080	1.320611	0.500269
C87	C	0.762703	0.727320	0.000262
C88	C	1.262703	1.227320	0.500262
C89	C	0.825615	0.669762	0.000284
C90	C	1.325615	1.169762	0.500284
C91	C	0.867245	0.173298	-0.287109
C92	C	1.367245	0.673298	0.212891
C93	C	0.867254	0.173294	-0.391212
C94	C	1.367254	0.673294	0.108788
C95	C	0.824871	0.119177	-0.443289
C96	C	1.324871	0.619177	0.056711
C97	C	0.782482	0.065053	-0.391257
C98	C	1.282482	0.565053	0.108743
C99	C	0.782478	0.065053	-0.287155
C100	C	1.282478	0.565053	0.212845
C101	C	0.782493	0.065059	-0.608237
C102	C	1.282493	0.565059	-0.108237
C103	C	0.782497	0.065061	-0.712345
C104	C	1.282497	0.565061	-0.212345
C105	C	0.867269	0.173300	-0.712294
C106	C	1.367269	0.673300	-0.212294
C107	C	0.867265	0.173300	-0.608192
C108	C	1.367265	0.673300	-0.108192
C109	C	0.824875	0.119177	-0.556167
C110	C	1.324875	0.619177	-0.056167
N111	N	0.824884	0.119178	0.235630
N112	N	1.324884	0.619178	0.735630
H113	H	0.597968	0.272517	0.000211
H114	H	1.097968	0.772517	0.500211
H115	H	0.710358	0.698230	0.000235
H116	H	1.210358	1.198230	0.500235
H117	H	0.747977	0.020986	-0.433666
H118	H	1.247977	0.520986	0.066334
H119	H	0.901771	0.217360	-0.433566
H120	H	1.401771	0.717360	0.066434
H121	H	0.465851	0.270021	0.000229
H122	H	0.965851	0.770021	0.500229
H123	H	0.183886	-0.031659	0.000330
H124	H	0.683886	0.468341	0.500330
O125	O	0.158441	0.276993	0.000173
O126	O	0.658441	0.776993	0.500173
C127	C	0.200028	0.282671	-0.085505
C128	C	0.700028	0.782671	0.414495
H129	H	0.218099	0.212099	-0.114050
H130	H	0.718099	0.712099	0.385950
H131	H	0.247751	0.318143	-0.066260
H132	H	0.747751	0.818143	0.433740
H133	H	0.167865	0.322361	-0.145483
H134	H	0.667865	0.822361	0.354517
O135	O	0.047313	-0.047052	0.000545
O136	O	0.547313	0.452948	0.500545
C137	C	0.005698	-0.052716	0.086198
C138	C	0.505698	0.447284	0.586198
H139	H	0.022980	-0.006041	0.146054
H140	H	0.522980	0.493959	0.646054
H141	H	0.012185	-0.124828	0.114957
H142	H	0.512185	0.375172	0.614957
H143	H	-0.051721	-0.031861	0.066845
H144	H	0.448279	0.468139	0.566845
H145	H	0.495802	-0.025764	0.000261
H146	H	0.995802	0.474236	0.500261
H147	H	0.021812	0.261637	0.000334
H148	H	0.521812	0.761637	0.500334
H149	H	0.941127	0.658625	0.000339
H150	H	1.441127	1.158625	0.500339
H151	H	0.747984	0.020995	-0.754743
H152	H	1.247984	0.520995	-0.254743
O153	O	0.908456	0.225741	-0.236416
O154	O	1.408456	0.725741	0.263584
C155	C	0.956060	0.171050	-0.176189
C156	C	1.456060	0.671050	0.323811
H157	H	0.934281	0.104751	-0.160602
H158	H	1.434281	0.604751	0.339398
H159	H	0.963863	0.206985	-0.102983
H160	H	1.463863	0.706985	0.397017
H161	H	1.008531	0.157191	-0.216280
H162	H	1.508531	0.657191	0.283720
H163	H	0.939373	0.540141	0.000322
H164	H	1.439373	1.040141	0.500322
H165	H	0.747976	0.020986	-0.565881
H166	H	1.247976	0.520986	-0.065881
H167	H	0.712855	0.867480	0.000247
H168	H	1.212855	1.367480	0.500247
O169	O	0.695955	0.405023	0.000255
O170	O	1.195955	0.905023	0.500255
C171	C	0.640728	0.475835	0.000218
C172	C	1.140728	0.975835	0.500218
H173	H	0.660358	0.539132	0.031538
H174	H	1.160358	1.039132	0.531538
H175	H	0.595856	0.456512	0.048219
H176	H	1.095856	0.956512	0.548219
H177	H	0.621313	0.489120	-0.079130
H178	H	1.121313	0.989120	0.420870
H179	H	0.747962	0.020986	-0.244798
H180	H	1.247962	0.520986	0.255202
O181	O	0.698778	0.588877	0.000097
O182	O	1.198778	1.088877	0.500097
C183	C	0.695759	0.643491	-0.085563
C184	C	1.195759	1.143491	0.414437
H185	H	0.751181	0.647991	-0.114096
H186	H	1.251181	1.147991	0.385904
H187	H	0.669814	0.713711	-0.066300
H188	H	1.169814	1.213711	0.433700
H189	H	0.663841	0.612934	-0.145559
H190	H	1.163841	1.112934	0.354441
H191	H	0.936880	0.370887	0.000316
H192	H	1.436880	0.870887	0.500316
H193	H	0.627928	-0.023278	0.000201
H194	H	1.127928	0.476722	0.500201
O195	O	0.908499	0.225893	-0.557757
O196	O	1.408499	0.725893	-0.057757
C197	C	0.945902	0.273678	-0.625995
C198	C	1.445902	0.773678	-0.125995
H199	H	0.949954	0.236641	-0.700202
H200	H	1.449954	0.736641	-0.200202
H201	H	1.000804	0.279052	-0.595881
H202	H	1.500804	0.779052	-0.095881
H203	H	0.917197	0.343980	-0.637082
H204	H	1.417197	0.843980	-0.137082
O205	O	0.953703	0.833535	0.000178
O206	O	1.453703	1.333535	0.500178
C207	C	0.958302	0.886869	-0.085457
C208	C	1.458302	1.386869	0.414543
H209	H	0.921801	0.864954	-0.145347
H210	H	1.421801	1.364954	0.354653
H211	H	1.014567	0.878274	-0.114175
H212	H	1.514567	1.378274	0.385825
H213	H	0.942260	0.960503	-0.066097
H214	H	1.442260	1.460503	0.433903
H215	H	0.901782	0.217372	-0.754657
H216	H	1.401782	0.717372	-0.254657
