data_functionalizedCrystal
_audit_creation_method	'MofGen! by Chris Wilmer'
_symmetry_space_group_name_H-M	'P1'
_symmetry_Int_Tables_number	1
_symmetry_cell_setting	triclinic
loop_
_symmetry_equiv_pos_as_xyz
  x,y,z
_cell_length_a	15.995350
_cell_length_b	10.654541
_cell_length_c	9.130307
_cell_angle_alpha	90.000178
_cell_angle_beta	89.998938
_cell_angle_gamma	96.011848
loop_
_atom_site_label
_atom_site_type_symbol
_atom_site_fract_x
_atom_site_fract_y
_atom_site_fract_z
O1	O	0.117592	-1.666303	-0.121747
O2	O	0.128798	-1.300677	-0.121759
O3	O	0.001365	-1.493484	-0.121751
O4	O	0.245024	-1.473495	-0.121754
O5	O	0.001364	-1.493478	0.121848
O6	O	0.128797	-1.300671	0.121840
O7	O	0.117590	-1.666296	0.121852
Cu8	Cu	0.123193	-1.483483	0.144089
Cu9	Cu	0.123195	-1.483490	-0.143995
O10	O	0.245023	-1.473489	0.121845
C11	C	-0.029835	-1.492655	0.000046
C12	C	-0.122800	-1.490177	0.000037
C13	C	0.127975	-1.253887	0.000039
C14	C	0.125514	-1.114475	0.000034
C15	C	0.118413	-1.713087	0.000051
C16	C	0.120874	-1.852498	0.000047
C17	C	-0.460599	-1.481280	0.000042
C18	C	-0.413961	-1.343966	-0.000509
C19	C	-0.317257	-1.346444	0.000040
C20	C	-0.293013	-1.485693	0.000039
C21	C	-0.333698	-1.553418	0.139146
C22	C	-0.430354	-1.549968	0.139262
C23	C	-0.430694	-1.552812	-0.137756
C24	C	-0.333749	-1.552779	-0.139594
C25	C	-0.198301	-1.488195	0.000042
C26	C	-0.555311	-1.478783	0.000049
C27	C	0.276223	-1.474318	0.000045
C28	C	0.369188	-1.476796	0.000044
N29	N	0.123192	-1.483487	0.346712
C30	C	0.277895	-1.084514	0.000014
C31	C	0.352926	-1.004039	-0.000002
C32	C	0.350609	-0.873052	-0.000003
C33	C	0.273253	-0.822537	0.000016
C34	C	0.198222	-0.903011	0.000032
C35	C	0.200547	-1.034000	0.000029
C36	C	0.045843	-0.932972	0.000063
C37	C	0.048158	-1.063961	0.000054
C38	C	-0.031513	-0.882458	0.000082
C39	C	-0.106546	-0.962933	0.000087
C40	C	-0.104226	-1.093928	0.000087
C41	C	-0.026873	-1.144435	0.000070
N42	N	0.123190	-1.483496	-0.346618
C43	C	0.010383	-1.654287	0.346709
C44	C	-0.046019	-1.739695	0.423374
C45	C	-0.046019	-1.739708	0.576707
C46	C	0.010387	-1.654300	0.653379
C47	C	0.066788	-1.568892	0.576714
C48	C	0.066785	-1.568891	0.423377
C49	C	0.179592	-1.398088	0.576717
C50	C	0.179598	-1.398079	0.423384
C51	C	0.235998	-1.312680	0.653389
C52	C	0.292405	-1.227276	0.576724
C53	C	0.292404	-1.227268	0.423381
C54	C	0.236000	-1.312671	0.346718
H55	H	-0.432811	-1.289086	-0.100265
C56	C	0.010391	-1.654282	0.178046
H57	H	0.052065	-1.591191	0.143369
H58	H	-0.043232	-1.637115	0.143352
H59	H	0.022363	-1.734542	0.143364
H60	H	-0.289143	-1.293208	-0.099677
C61	C	-0.297255	-1.485988	-0.278621
H62	H	-0.257355	-1.417508	-0.251698
H63	H	-0.341334	-1.455143	-0.333242
H64	H	-0.270542	-1.544111	-0.336681
H65	H	0.411706	-0.807528	-0.000006
H66	H	0.279789	-1.191169	-0.000017
C67	C	-0.312229	-1.689974	-0.150931
H68	H	-0.337645	-1.728153	-0.236224
H69	H	-0.332786	-1.735748	-0.066803
H70	H	-0.252980	-1.690663	-0.156772
C71	C	-0.108060	-1.833636	0.339034
H72	H	-0.099980	-1.821408	0.236733
H73	H	-0.164029	-1.820015	0.364169
H74	H	-0.098436	-1.917447	0.364156
H75	H	-0.433873	-1.289324	0.098688
H76	H	-0.318979	-1.655720	0.144318
C77	C	-0.280030	-1.274056	0.134984
H78	H	-0.324020	-1.243028	0.189689
H79	H	-0.241457	-1.205331	0.103973
H80	H	-0.251658	-1.329167	0.194566
C81	C	-0.455469	-1.483232	0.279722
H82	H	-0.406620	-1.458475	0.336171
H83	H	-0.493114	-1.539334	0.335342
H84	H	-0.482152	-1.410691	0.254300
H85	H	-0.091950	-1.809250	0.639128
C86	C	0.010378	-1.654294	0.822041
H87	H	0.052042	-1.591193	0.856723
H88	H	0.022333	-1.734549	0.856741
H89	H	-0.043252	-1.637106	0.856713
H90	H	0.271373	-0.715878	0.000032
H91	H	0.235991	-1.312689	0.778241
H92	H	0.338323	-1.157738	0.639159
H93	H	-0.461868	-1.654053	-0.138691
C94	C	-0.034063	-0.738375	0.000077
H95	H	0.021700	-0.697680	0.000050
H96	H	-0.062722	-0.714269	0.085029
H97	H	-0.062732	-0.714286	-0.084878
C98	C	-0.191626	-0.907365	0.000106
H99	H	-0.182259	-0.817828	0.000101
H100	H	-0.222552	-0.934989	0.085053
H101	H	-0.222551	-0.934979	-0.084854
H102	H	-0.165325	-1.159444	0.000106
H103	H	-0.024976	-1.251090	0.000052
C104	C	0.354449	-1.133319	0.339060
H105	H	0.388041	-1.082467	0.406689
H106	H	0.324004	-1.081050	0.279245
H107	H	0.389593	-1.178488	0.279247
H108	H	0.235997	-1.312676	0.221866
H109	H	-0.462017	-1.650782	0.145572
H110	H	-0.451494	-1.507920	-0.243190
C111	C	-0.295738	-1.489872	0.278999
H112	H	-0.320760	-1.531531	0.362596
H113	H	-0.306209	-1.403749	0.280248
H114	H	-0.236823	-1.495151	0.280439
C115	C	0.438011	-1.059608	-0.000029
H116	H	0.428649	-1.149144	-0.000041
H117	H	0.468944	-1.031985	0.084910
H118	H	0.468927	-1.031985	-0.084998
