data_functionalizedCrystal
_audit_creation_method	'MofGen! by Chris Wilmer'
_symmetry_space_group_name_H-M	'P1'
_symmetry_Int_Tables_number	1
_symmetry_cell_setting	triclinic
loop_
_symmetry_equiv_pos_as_xyz
  x,y,z
_cell_length_a	16.974885
_cell_length_b	16.974813
_cell_length_c	18.366186
_cell_angle_alpha	86.339196
_cell_angle_beta	93.642976
_cell_angle_gamma	83.628230
loop_
_atom_site_label
_atom_site_type_symbol
_atom_site_fract_x
_atom_site_fract_y
_atom_site_fract_z
O1	O	1.049025	0.100749	-0.004727
O2	O	1.549025	0.600749	0.495273
O3	O	0.818809	0.113592	-0.019038
O4	O	1.318809	0.613592	0.480962
O5	O	0.940334	-0.007940	-0.004719
O6	O	1.440334	0.492060	0.495281
O7	O	0.927500	0.222281	-0.019047
O8	O	1.427500	0.722281	0.480953
O9	O	0.940314	-0.007946	0.116380
O10	O	1.440314	0.492054	0.616380
O11	O	0.818788	0.113586	0.102060
O12	O	1.318788	0.613586	0.602060
O13	O	1.049005	0.100743	0.116371
O14	O	1.549005	0.600743	0.616371
Zn15	Zn	0.933893	0.107164	0.128443
Zn16	Zn	1.433893	0.607164	0.628443
Zn17	Zn	0.933920	0.107171	-0.031110
Zn18	Zn	1.433920	0.607171	0.468890
O19	O	0.927479	0.222275	0.102052
O20	O	1.427479	0.722275	0.602052
C21	C	0.789341	0.113101	0.039805
C22	C	1.289341	0.613101	0.539805
C23	C	0.701568	0.111640	0.034723
C24	C	1.201568	0.611640	0.534723
C25	C	0.207500	0.103385	-0.001015
C26	C	0.707500	0.603385	0.498985
C27	C	0.289973	0.104759	0.003769
C28	C	0.789973	0.604759	0.503769
C29	C	0.331189	0.105448	0.072173
C30	C	0.831189	0.605448	0.572173
C31	C	0.289930	0.104756	0.135796
C32	C	0.789930	0.604756	0.635796
C33	C	0.207459	0.103377	0.131011
C34	C	0.707459	0.603377	0.631011
C35	C	0.577838	0.109568	0.093562
C36	C	1.077838	0.609568	0.593562
C37	C	0.660314	0.110950	0.098342
C38	C	1.160314	0.610950	0.598342
C39	C	0.660351	0.110951	-0.033685
C40	C	1.160351	0.610951	0.466315
C41	C	0.577879	0.109577	-0.038465
C42	C	1.077879	0.609577	0.461535
C43	C	0.536627	0.108880	0.025159
C44	C	1.036627	0.608880	0.525159
N45	N	0.415489	0.106855	0.077065
N46	N	0.915489	0.606855	0.577065
N47	N	0.452329	0.107468	0.020267
N48	N	0.952329	0.607468	0.520267
C49	C	0.939836	-0.037401	0.057537
C50	C	1.439836	0.462599	0.557537
C51	C	0.938371	-0.125177	0.062621
C52	C	1.438371	0.374823	0.562621
C53	C	0.937695	-0.166406	-0.001001
C54	C	1.437695	0.333594	0.498999
C55	C	0.936314	-0.248879	0.003778
C56	C	1.436314	0.251121	0.503778
C57	C	0.935613	-0.290123	0.072179
C58	C	1.435613	0.209877	0.572179
C59	C	0.936286	-0.248888	0.135806
C60	C	1.436286	0.251112	0.635806
C61	C	0.937662	-0.166415	0.131026
C62	C	1.437662	0.333585	0.631026
C63	C	0.931492	-0.536780	0.093553
C64	C	1.431492	-0.036780	0.593553
C65	C	0.930118	-0.619259	0.098328
C66	C	1.430118	-0.119259	0.598328
C67	C	0.930145	-0.619245	-0.033701
C68	C	1.430145	-0.119245	0.466299
C69	C	0.931525	-0.536771	-0.038474
C70	C	1.431525	-0.036771	0.461526
C71	C	0.932194	-0.495543	0.025152
C72	C	1.432194	0.004457	0.525152
N73	N	0.934204	-0.374425	0.077066
N74	N	1.434204	0.125575	0.577066
N75	N	0.933598	-0.411242	0.020264
N76	N	1.433598	0.088758	0.520264
C77	C	1.078472	0.101233	0.057526
C78	C	1.578472	0.601233	0.557526
C79	C	1.166246	0.102695	0.062603
C80	C	1.666246	0.602695	0.562603
C81	C	0.927978	0.251736	0.039794
C82	C	1.427978	0.751736	0.539794
C83	C	0.929443	0.339512	0.034706
C84	C	1.429443	0.839512	0.534706
N85	N	0.933880	0.107158	0.237333
N86	N	1.433880	0.607158	0.737333
N87	N	0.933940	0.107171	-0.140000
N88	N	1.433940	0.607171	0.360000
C89	C	0.987710	0.053370	0.281774
C90	C	1.487710	0.553370	0.781774
C91	C	0.987715	0.053366	0.358002
C92	C	1.487715	0.553366	0.858002
C93	C	0.933898	0.107164	0.389787
C94	C	1.433898	0.607164	0.889787
C95	C	0.880059	0.160956	0.345336
C96	C	1.380059	0.660956	0.845336
C97	C	0.880050	0.160953	0.269109
C98	C	1.380050	0.660953	0.769109
C99	C	0.923461	0.179188	0.505687
C100	C	1.423461	0.679188	1.005687
C101	C	0.923475	0.179192	0.581912
C102	C	1.423475	0.679192	1.081912
C103	C	0.933920	0.107174	0.624895
C104	C	1.433920	0.607174	1.124895
C105	C	0.944368	0.035148	0.591644
C106	C	1.444368	0.535148	1.091644
C107	C	0.944360	0.035145	0.515418
C108	C	1.444360	0.535145	1.015418
C109	C	0.933901	0.107173	0.472441
C110	C	1.433901	0.607173	0.972441
C111	C	0.987758	0.053378	0.751992
C112	C	1.487758	0.553378	1.251992
C113	C	0.987757	0.053373	0.828221
C114	C	1.487757	0.553373	1.328221
C115	C	0.880106	0.160970	0.815553
C116	C	1.380106	0.660970	1.315553
C117	C	0.880102	0.160968	0.739325
C118	C	1.380102	0.660968	1.239325
C119	C	0.933933	0.107173	0.707549
C120	C	1.433933	0.607173	1.207549
H121	H	0.544326	0.109014	-0.094166
H122	H	1.044326	0.609014	0.405834
N123	N	0.704852	0.111690	-0.102300
N124	N	1.204852	0.611690	0.397700
H125	H	0.696972	0.062457	-0.128717
H126	H	1.196972	0.562457	0.371283
H127	H	0.684024	0.160472	-0.135212
H128	H	1.184024	0.660472	0.364788
N129	N	0.932283	-0.492289	-0.112250
N130	N	1.432283	0.007711	0.387750
H131	H	0.931646	-0.530923	-0.151831
H132	H	1.431646	-0.030923	0.348169
H133	H	0.883863	-0.451605	-0.120375
H134	H	1.383863	0.048395	0.379625
N135	N	0.912203	0.256874	0.617770
N136	N	1.412203	0.756874	1.117770
H137	H	0.863263	0.258619	0.646425
H138	H	1.363263	0.758619	1.146425
H139	H	0.960259	0.261502	0.651898
H140	H	1.460259	0.761502	1.151898
H141	H	0.929599	-0.652822	-0.085502
H142	H	1.429599	-0.152822	0.414498
H143	H	0.914941	0.237838	0.470694
H144	H	1.414941	0.737838	0.970694
H145	H	0.323495	0.105312	0.191492
H146	H	0.823495	0.605312	0.691492
H147	H	0.693869	0.111517	0.154047
H148	H	1.193869	0.611517	0.654047
H149	H	0.938201	-0.132845	0.182833
H150	H	1.438201	0.367155	0.682833
N151	N	0.935625	-0.293314	-0.064864
N152	N	1.435625	0.206686	0.435136
H153	H	0.886073	-0.321077	-0.069138
H154	H	1.386073	0.178923	0.430862
H155	H	0.936325	-0.254593	-0.108853
H156	H	1.436325	0.245407	0.391147
N157	N	0.929365	-0.663747	0.172107
N158	N	1.429365	-0.163747	0.672107
H159	H	0.929996	-0.625115	0.211689
H160	H	1.429996	-0.125115	0.711689
H161	H	0.879804	-0.691506	0.173696
H162	H	1.379804	-0.191506	0.673696
N163	N	0.935536	-0.293370	0.209583
N164	N	1.435536	0.206630	0.709583
H165	H	0.984762	-0.285476	0.240872
H166	H	1.484762	0.214524	0.740872
H167	H	0.886749	-0.272536	0.234286
H168	H	1.386749	0.227464	0.734286
H169	H	0.836239	0.204758	0.371219
H170	H	1.336239	0.704758	0.871219
H171	H	0.952873	-0.023496	0.626640
H172	H	1.452873	0.476504	1.126640
H173	H	0.932052	-0.503224	0.145363
H174	H	1.432052	-0.003224	0.645363
H175	H	0.836273	0.204771	0.703139
H176	H	1.336273	0.704771	1.203139
N177	N	1.045764	-0.004652	0.247501
N178	N	1.545764	0.495348	0.747501
H179	H	1.079865	-0.038729	0.287226
H180	H	1.579865	0.461271	0.787226
H181	H	1.015532	-0.039596	0.216167
H182	H	1.515532	0.460404	0.716167
N183	N	1.045773	-0.004652	0.405948
N184	N	1.545773	0.495348	0.905948
H185	H	1.079871	-0.038732	0.374251
H186	H	1.579871	0.461268	0.874251
H187	H	1.080691	0.025609	0.437834
H188	H	1.580691	0.525609	0.937834
H189	H	0.544262	0.108989	0.145370
H190	H	1.044262	0.608989	0.645370
H191	H	0.323559	0.105316	-0.048036
H192	H	0.823559	0.605316	0.451964
N193	N	0.162963	0.102627	0.199629
N194	N	0.662963	0.602627	0.699629
H195	H	0.201659	0.102712	0.243724
H196	H	0.701659	0.602712	0.743724
H197	H	0.122659	0.151333	0.197481
H198	H	0.622659	0.651333	0.697481
N199	N	0.163052	0.102633	-0.074795
N200	N	0.663052	0.602633	0.425205
H201	H	0.104547	0.101654	-0.068175
H202	H	0.604547	0.601654	0.431825
H203	H	0.171012	0.151864	-0.106060
H204	H	0.671012	0.651864	0.393940
H205	H	0.938270	-0.132832	-0.056701
H206	H	1.438270	0.367168	0.443299
H207	H	0.952864	-0.023501	0.488348
H208	H	1.452864	0.476499	0.988348
H209	H	0.836215	0.204754	0.232924
H210	H	1.336215	0.704754	0.732924
N211	N	1.045812	-0.004642	0.717712
N212	N	1.545812	0.495358	1.217712
H213	H	1.079910	-0.038723	0.757435
H214	H	1.579910	0.461277	1.257435
H215	H	1.015580	-0.039582	0.686373
H216	H	1.515580	0.460418	1.186373
H217	H	1.031589	0.009568	0.864406
H218	H	1.531589	0.509568	1.364406
N219	N	0.822053	0.218991	0.849823
N220	N	1.322053	0.718991	1.349823
H221	H	0.830224	0.210831	0.904857
H222	H	1.330224	0.710831	1.404857
H223	H	0.831119	0.275081	0.833720
H224	H	1.331119	0.775081	1.333720
