data_functionalizedCrystal
_audit_creation_method	'MofGen! by Chris Wilmer'
_symmetry_space_group_name_H-M	'P1'
_symmetry_Int_Tables_number	1
_symmetry_cell_setting	triclinic
loop_
_symmetry_equiv_pos_as_xyz
  x,y,z
_cell_length_a	29.839134
_cell_length_b	19.805405
_cell_length_c	19.805399
_cell_angle_alpha	90.029301
_cell_angle_beta	90.028355
_cell_angle_gamma	90.021271
loop_
_atom_site_label
_atom_site_type_symbol
_atom_site_fract_x
_atom_site_fract_y
_atom_site_fract_z
Zn1	Zn	0.686795	-0.269572	0.382870
Zn2	Zn	0.686738	-0.382760	0.269678
Zn3	Zn	0.611669	-0.269580	0.269677
Zn4	Zn	0.611645	-0.382714	0.382808
O5	O	0.649212	-0.326156	0.326258
O6	O	0.749654	-0.284602	0.367882
O7	O	0.676767	-0.367769	0.174962
O8	O	0.621669	-0.174862	0.284718
O9	O	0.749613	-0.367761	0.284720
O10	O	0.676863	-0.174856	0.367880
O11	O	0.621614	-0.284617	0.174961
O12	O	0.548799	-0.284572	0.284658
O13	O	0.621627	-0.367682	0.477533
O14	O	0.548781	-0.367691	0.367774
O15	O	0.676840	-0.284557	0.477578
O16	O	0.676743	-0.477470	0.284660
O17	O	0.621572	-0.477437	0.367775
C18	C	0.649161	-0.502012	0.326226
C19	C	0.649181	-0.577244	0.326234
C20	C	0.532489	-0.326128	0.326210
C21	C	0.482555	-0.326132	0.326205
C22	C	0.677936	-0.612584	0.283001
C23	C	0.677955	-0.683272	0.283016
C24	C	0.649216	-0.718620	0.326261
C25	C	0.620460	-0.683276	0.369499
C26	C	0.620443	-0.612589	0.369487
C27	C	0.620526	-0.968349	0.369549
C28	C	0.620544	-1.039041	0.369557
C29	C	0.678038	-1.039033	0.283079
C30	C	0.678021	-0.968345	0.283066
C31	C	0.649267	-0.933007	0.326306
C32	C	0.649247	-0.856359	0.326291
C33	C	0.649233	-0.795267	0.326274
C34	C	0.172912	-0.369500	0.369484
C35	C	-0.014761	-0.369519	0.369514
O36	O	-0.039026	-0.406361	0.406283
N37	N	-0.038230	-0.326181	0.326309
C38	C	-0.014778	-0.282832	0.283097
O39	O	-0.039046	-0.245966	0.246354
C40	C	0.172894	-0.282810	0.283071
C41	C	0.196361	-0.326156	0.326274
C42	C	0.196378	-0.412842	0.412684
C43	C	0.243294	-0.412840	0.412673
C44	C	0.266743	-0.369495	0.369463
C45	C	0.243276	-0.326153	0.326263
C46	C	0.196346	-0.239458	0.239863
C47	C	0.243267	-0.239455	0.239861
C48	C	0.266733	-0.282801	0.283064
C49	C	0.313641	-0.282806	0.283042
N50	N	0.337109	-0.326144	0.326247
C51	C	0.313660	-0.369489	0.369457
C52	C	-0.113309	-0.282848	0.283113
C53	C	-0.160226	-0.282854	0.283119
C54	C	-0.160207	-0.369541	0.369537
C55	C	-0.113288	-0.369537	0.369527
C56	C	-0.089840	-0.326186	0.326318
C57	C	0.412186	-0.369481	0.369432
C58	C	0.459106	-0.369476	0.369415
C59	C	0.459082	-0.282787	0.283000
C60	C	0.412166	-0.282794	0.283013
C61	C	0.388720	-0.326143	0.326235
O62	O	0.337934	-0.245978	0.246298
O63	O	0.337936	-0.406339	0.406205
C64	C	0.125996	-0.369503	0.369495
C65	C	0.102530	-0.326161	0.326295
C66	C	0.125979	-0.282817	0.283084
C67	C	0.055612	-0.326167	0.326300
C68	C	0.032163	-0.369512	0.369511
C69	C	0.055632	-0.412850	0.412716
C70	C	0.102547	-0.412847	0.412705
C71	C	0.102510	-0.239478	0.239880
C72	C	0.055594	-0.239485	0.239893
C73	C	0.032145	-0.282830	0.283104
C74	C	0.766390	-0.326186	0.326308
C75	C	0.816325	-0.326198	0.326329
C76	C	0.649237	-0.326114	0.502801
C77	C	0.649248	-0.326096	0.578033
C78	C	0.649275	-0.149614	0.326306
C79	C	0.649302	-0.074382	0.326326
C80	C	0.649213	-0.326150	0.150402
C81	C	0.649289	-0.325978	0.075171
C82	C	0.677997	-0.282810	0.613402
C83	C	0.678002	-0.282791	0.684091
C84	C	0.649259	-0.326060	0.719409
C85	C	0.620506	-0.369348	0.684035
C86	C	0.620500	-0.369363	0.613348
C87	C	0.620531	-0.369284	0.969108
C88	C	0.620541	-0.369267	1.039801
C89	C	0.678034	-0.282712	1.039851
C90	C	0.678027	-0.282727	0.969164
C91	C	0.649273	-0.326012	0.933796
C92	C	0.649268	-0.326032	0.857148
C93	C	0.649266	-0.326044	0.796056
H94	H	0.701336	-0.583808	0.247783
H95	H	0.597124	-0.404539	0.940320
O96	O	0.708969	-0.721385	0.236381
H97	H	0.704157	-0.776477	0.243658
H98	H	0.597142	-1.067819	0.404777
O99	O	0.709001	-0.236139	0.575316
H100	H	0.731848	-0.266447	0.543121
O101	O	0.709059	-1.077142	0.236442
H102	H	0.744308	-1.063515	0.248104
H103	H	0.597101	-0.404576	0.712797
H104	H	0.701434	-0.247495	0.940412
O105	O	0.589500	-0.930237	0.416163
H106	H	0.569512	-0.966695	0.446223
O107	O	0.589532	-0.415932	1.077893
H108	H	0.609627	-0.450374	1.110095
H109	H	0.597084	-0.404604	0.584551
H110	H	-0.179307	-0.404833	0.404720
O111	O	0.709037	-0.236004	1.077997
H112	H	0.704207	-0.243249	1.133084
O113	O	0.030283	-0.192735	0.193292
H114	H	0.039303	-0.139629	0.205003
O115	O	0.386846	-0.236069	0.236400
H116	H	0.365484	-0.201675	0.266751
O117	O	0.709020	-0.930218	0.236428
H118	H	0.729023	-0.966668	0.206373
H119	H	0.597062	-0.712062	0.404713
O120	O	0.709015	-0.236108	0.722237
H121	H	0.688926	-0.201651	0.754436
H122	H	0.597028	-0.583816	0.404693
H123	H	0.478210	-0.404776	0.404597
O124	O	0.386900	-0.416284	0.415997
H125	H	0.411106	-0.446440	0.446009
H126	H	0.177291	-0.448139	0.447875
O127	O	0.268602	-0.459581	0.459281
H128	H	0.244408	-0.489711	0.489331
H129	H	-0.179329	-0.247564	0.247932
O130	O	-0.087978	-0.416281	0.416131
H131	H	-0.112171	-0.446416	0.446179
H132	H	-0.094221	-0.247545	0.247923
O133	O	0.171042	-0.192700	0.193271
H134	H	0.195237	-0.162556	0.163236
H135	H	0.262356	-0.204148	0.204678
H136	H	0.478183	-0.247499	0.247817
H137	H	0.121649	-0.448144	0.447886
H138	H	0.121597	-0.204181	0.204692
O139	O	0.030337	-0.459599	0.459327
H140	H	-0.006230	-0.452309	0.452074
