data_functionalizedCrystal
_audit_creation_method	'MofGen! by Chris Wilmer'
_symmetry_space_group_name_H-M	'P1'
_symmetry_Int_Tables_number	1
_symmetry_cell_setting	triclinic
loop_
_symmetry_equiv_pos_as_xyz
  x,y,z
_cell_length_a	10.686220
_cell_length_b	21.295417
_cell_length_c	10.686551
_cell_angle_alpha	94.411227
_cell_angle_beta	89.691918
_cell_angle_gamma	94.411800
loop_
_atom_site_label
_atom_site_type_symbol
_atom_site_fract_x
_atom_site_fract_y
_atom_site_fract_z
Zn1	Zn	1.972206	-0.153472	0.562356
Zn2	Zn	2.472206	0.346528	1.062356
Zn3	Zn	1.955916	-0.267412	0.352576
Zn4	Zn	2.455916	0.232588	0.852576
Zn5	Zn	1.746316	-0.169576	0.368671
Zn6	Zn	2.246316	0.330424	0.868671
Zn7	Zn	1.762347	-0.266137	0.578354
Zn8	Zn	2.262347	0.233863	1.078354
O9	O	1.859196	-0.214149	0.465489
O10	O	2.359196	0.285851	0.965489
O11	O	2.145590	-0.162381	0.521098
O12	O	2.645590	0.337619	1.021098
O13	O	1.914586	-0.261707	0.179164
O14	O	2.414586	0.238293	0.679164
O15	O	1.776389	-0.079345	0.394404
O16	O	2.276389	0.420655	0.894404
O17	O	2.133622	-0.246092	0.366973
O18	O	2.633622	0.253908	0.866973
O19	O	1.942350	-0.067514	0.536704
O20	O	2.442350	0.432486	1.036704
O21	O	1.760594	-0.189827	0.190989
O22	O	2.260594	0.310173	0.690989
O23	O	1.572897	-0.188590	0.409916
O24	O	2.072897	0.311410	0.909916
O25	O	1.803712	-0.243918	0.751778
O26	O	2.303712	0.256082	1.251778
O27	O	1.584676	-0.259533	0.563969
O28	O	2.084676	0.240467	1.063969
O29	O	1.957894	-0.161144	0.740025
O30	O	2.457894	0.338856	1.240025
O31	O	1.930131	-0.355338	0.382485
O32	O	2.430131	0.144662	0.882485
O33	O	1.787916	-0.354401	0.548363
O34	O	2.287916	0.145599	1.048363
C35	C	1.533270	-0.225671	0.490426
C36	C	2.033270	0.274329	0.990426
C37	C	1.393839	-0.230614	0.501124
C38	C	1.893839	0.269386	1.001124
C39	C	1.859032	-0.377709	0.465438
C40	C	2.359032	0.122291	0.965438
C41	C	1.859079	-0.447675	0.465449
C42	C	2.359079	0.052325	0.965449
C43	C	1.945453	-0.474323	0.539605
C44	C	2.445453	0.025677	1.039605
C45	C	1.945500	-0.540063	0.539633
C46	C	2.445500	-0.040063	1.039633
C47	C	1.859184	-0.579152	0.465481
C48	C	2.359184	-0.079152	0.965481
C49	C	1.772794	-0.552497	0.391320
C50	C	2.272794	-0.052497	0.891320
C51	C	1.772741	-0.486758	0.391304
C52	C	2.272741	0.013242	0.891304
N53	N	1.841275	-0.687283	0.356418
N54	N	2.341275	-0.187283	0.856418
N55	N	1.841332	-0.749732	0.356436
N56	N	2.341332	-0.249732	0.856436
C57	C	1.859335	-0.777219	0.465526
C58	C	2.359335	-0.277219	0.965526
N59	N	1.877303	-0.739899	0.574598
N60	N	2.377303	-0.239899	1.074598
N61	N	1.877252	-0.677444	0.574578
N62	N	2.377252	-0.177444	1.074578
C63	C	1.859231	-0.650436	0.465490
C64	C	2.359231	-0.150436	0.965490
C65	C	1.945764	-0.875150	0.539719
C66	C	2.445764	-0.375150	1.039719
C67	C	1.945802	-0.940891	0.539749
C68	C	2.445802	-0.440891	1.039749
C69	C	1.773102	-0.953324	0.391424
C70	C	2.273102	-0.453324	0.891424
C71	C	1.773058	-0.887584	0.391406
C72	C	2.273058	-0.387584	0.891406
C73	C	1.859396	-0.848500	0.465551
C74	C	2.359396	-0.348500	0.965551
C75	C	2.186396	-0.202583	0.440455
C76	C	2.686396	0.297417	0.940455
C77	C	2.325829	-0.197654	0.429788
C78	C	2.825829	0.302346	0.929788
C79	C	1.884408	-0.200593	0.792692
C80	C	2.384408	0.299407	1.292692
C81	C	1.895152	-0.194816	0.932126
C82	C	2.395152	0.305184	1.432126
C83	C	1.859398	-0.049948	0.465565
C84	C	2.359398	0.450052	0.965565
C85	C	1.859484	0.020024	0.465598
C86	C	2.359484	0.520024	0.965598
C87	C	1.834155	-0.227605	0.139554
C88	C	2.334155	0.272395	0.639554
C89	C	1.823654	-0.233196	0.000101
C90	C	2.323654	0.266804	0.500101
H91	H	1.345390	-0.262620	0.570380
H92	H	1.845390	0.237380	1.070380
H93	H	1.964594	-0.157537	0.980607
H94	H	2.464594	0.342463	1.480607
H95	H	1.374271	-0.165654	0.360528
H96	H	1.874271	0.334346	0.860528
N97	N	1.679592	-0.458010	0.311304
N98	N	2.179592	0.041990	0.811304
H99	H	1.625322	-0.430696	0.366677
H100	H	2.125322	0.069304	0.866677
H101	H	1.624999	-0.492780	0.264341
H102	H	2.124999	0.007220	0.764341
N103	N	2.038562	-0.432170	0.619582
N104	N	2.538562	0.067830	1.119582
H105	H	2.093285	-0.459031	0.666567
H106	H	2.593285	0.040969	1.166567
H107	H	1.991896	-0.404313	0.681500
H108	H	2.491896	0.095687	1.181500
N109	N	2.038664	-0.568816	0.619618
N110	N	2.538664	-0.068816	1.119618
H111	H	2.093349	-0.534081	0.666586
H112	H	2.593349	-0.034081	1.166586
H113	H	2.092841	-0.596133	0.564151
H114	H	2.592841	-0.096133	1.064151
H115	H	1.754226	-0.270477	0.951626
H116	H	2.254226	0.229523	1.451626
H117	H	1.702512	-0.584328	0.330948
H118	H	2.202512	-0.084328	0.830948
H119	H	2.016062	-0.843327	0.600097
H120	H	2.516062	-0.343327	1.100097
N121	N	2.038924	-0.969636	0.619787
N122	N	2.538924	-0.469636	1.119787
H123	H	2.093595	-0.934899	0.666764
H124	H	2.593595	-0.434899	1.166764
H125	H	2.093120	-0.996966	0.564370
H126	H	2.593120	-0.496966	1.064370
H127	H	1.702814	-0.985150	0.331057
H128	H	2.202814	-0.485150	0.831057
N129	N	1.679914	-0.858839	0.311398
N130	N	2.179914	-0.358839	0.811398
H131	H	1.692978	-0.811263	0.322638
H132	H	2.192978	-0.311263	0.822638
H133	H	1.591812	-0.872731	0.337705
H134	H	2.091812	-0.372731	0.837705
