data_functionalizedCrystal
_audit_creation_method	'MofGen! by Chris Wilmer'
_symmetry_space_group_name_H-M	'P1'
_symmetry_Int_Tables_number	1
_symmetry_cell_setting	triclinic
loop_
_symmetry_equiv_pos_as_xyz
  x,y,z
_cell_length_a	16.109301
_cell_length_b	11.026607
_cell_length_c	14.586319
_cell_angle_alpha	89.998207
_cell_angle_beta	89.999213
_cell_angle_gamma	96.023749
loop_
_atom_site_label
_atom_site_type_symbol
_atom_site_fract_x
_atom_site_fract_y
_atom_site_fract_z
O1	O	1.126503	0.155971	-0.076179
O2	O	0.887350	0.175382	-0.076193
O3	O	0.987106	-0.010969	-0.076183
O4	O	1.026747	0.342322	-0.076188
O5	O	0.987097	-0.010971	0.076297
O6	O	0.887341	0.175379	0.076288
O7	O	1.126494	0.155969	0.076302
Cu8	Cu	1.006916	0.165674	0.090218
Cu9	Cu	1.006927	0.165677	-0.090108
O10	O	1.026738	0.342319	0.076293
C11	C	0.856253	0.174594	0.000046
C12	C	0.763604	0.172237	0.000040
C13	C	0.557080	0.277333	0.000050
C14	C	0.470027	0.275108	0.000056
C15	C	0.456769	0.054010	0.000055
C16	C	0.543821	0.056235	0.000055
C17	C	0.593975	0.167900	0.000048
C18	C	0.419869	0.163450	0.000053
C19	C	0.325481	0.161038	0.000060
C20	C	0.688369	0.170314	0.000043
C21	C	0.979788	-0.056178	0.000055
C22	C	0.957987	-0.190883	0.000051
C23	C	1.018183	-0.264713	0.000053
C24	C	0.995652	-0.403938	0.000048
C25	C	1.157591	0.156756	0.000062
C26	C	1.250240	0.159114	0.000061
C27	C	1.034056	0.387529	0.000052
C28	C	1.055857	0.522234	0.000051
N29	N	1.006915	0.165671	0.217050
N30	N	1.006934	0.165670	-0.216940
C31	C	1.051109	0.083182	0.452060
C32	C	1.051111	0.083179	0.548041
C33	C	0.962734	0.248163	0.548043
C34	C	0.962728	0.248159	0.452063
C35	C	1.006920	0.165670	0.404074
C36	C	1.006929	0.165671	0.596035
C37	C	1.006930	0.165668	0.700102
C38	C	1.006918	0.165671	0.300001
H39	H	0.573861	-0.032883	0.000056
O40	O	1.093980	0.002887	0.594553
C41	C	1.062476	-0.117241	0.571120
H42	H	1.030447	-0.117104	0.501435
H43	H	1.015479	-0.154787	0.625142
C44	C	1.174154	-0.198097	0.652269
C45	C	1.134822	-0.197931	0.566676
H46	H	1.218779	-0.247873	0.649531
H47	H	1.195377	-0.117165	0.668059
H48	H	1.134981	-0.229383	0.697278
H49	H	1.173992	-0.166632	0.521671
H50	H	1.113607	-0.278860	0.550878
O51	O	1.137215	-0.430087	-0.000066
C52	C	1.153418	-0.357742	-0.079047
H53	H	1.092576	-0.326311	-0.105380
H54	H	1.181885	-0.413611	-0.134344
C55	C	1.289575	-0.284310	-0.022713
C56	C	1.214849	-0.245697	-0.055050
H57	H	1.327471	-0.215198	-0.007913
H58	H	1.278661	-0.333053	0.030497
H59	H	1.313287	-0.330868	-0.068799
H60	H	1.191133	-0.199154	-0.008960
H61	H	1.225760	-0.196943	-0.108252
H62	H	0.415924	-0.036904	0.000066
O63	O	0.605834	0.385769	-0.000113
C64	C	0.656601	0.393670	-0.079073
H65	H	0.626607	0.330269	-0.134271
H66	H	0.720796	0.365660	-0.061221
C67	C	0.702691	0.603649	-0.047084
C68	C	0.665849	0.525787	-0.114882
H69	H	0.708400	0.685146	-0.069171
H70	H	0.668491	0.598326	0.006115
H71	H	0.756184	0.580293	-0.032213
H72	H	0.612354	0.549135	-0.129743
H73	H	0.700040	0.531117	-0.168084
H74	H	0.889771	-0.230748	0.000041
H75	H	0.926755	0.315325	0.587125
O76	O	1.099524	-0.216966	0.000100
C77	C	1.103911	-0.088585	0.000078
H78	H	1.043444	-0.058964	0.028942
H79	H	1.113187	-0.053338	-0.073074
C80	C	1.252124	-0.072359	0.024431
C81	C	1.177859	-0.035977	0.059889
H82	H	1.297740	-0.039906	0.061321
H83	H	1.249169	-0.158851	0.024442
H84	H	1.259842	-0.042983	-0.036529
H85	H	1.170136	-0.065366	0.120842
H86	H	1.180814	0.050512	0.059889
H87	H	0.927432	-0.443797	0.000038
H88	H	1.087092	0.016013	0.412990
O89	O	0.919787	0.328411	0.405586
C90	C	0.880772	0.401205	0.468521
H91	H	0.915068	0.402599	0.536936
H92	H	0.813114	0.361778	0.478736
C93	C	0.841099	0.530385	0.347021
C94	C	0.883226	0.532106	0.431048
H95	H	0.842609	0.611130	0.323906
H96	H	0.867381	0.481341	0.304620
H97	H	0.784721	0.497524	0.355546
H98	H	0.939605	0.564953	0.422521
H99	H	0.856953	0.581160	0.473447
H100	H	0.439992	0.364219	0.000059
