data_functionalizedCrystal
_audit_creation_method	'MofGen! by Chris Wilmer'
_symmetry_space_group_name_H-M	'P1'
_symmetry_Int_Tables_number	1
_symmetry_cell_setting	triclinic
loop_
_symmetry_equiv_pos_as_xyz
  x,y,z
_cell_length_a	14.853567
_cell_length_b	16.974800
_cell_length_c	16.053789
_cell_angle_alpha	89.238068
_cell_angle_beta	92.881114
_cell_angle_gamma	83.511964
loop_
_atom_site_label
_atom_site_type_symbol
_atom_site_fract_x
_atom_site_fract_y
_atom_site_fract_z
O1	O	0.114767	1.049210	-0.001497
O2	O	0.614767	1.549210	0.498503
O3	O	0.130173	0.819685	0.014018
O4	O	0.630173	1.319685	0.514018
O5	O	-0.008796	0.940579	0.005848
O6	O	0.491204	1.440579	0.505848
O7	O	0.253737	0.928317	0.006672
O8	O	0.753737	1.428317	0.506672
O9	O	-0.015553	0.934631	-0.132609
O10	O	0.484447	1.434631	0.367391
O11	O	0.123417	0.813737	-0.124439
O12	O	0.623417	1.313737	0.375561
O13	O	0.108010	1.043262	-0.139954
O14	O	0.608010	1.543262	0.360046
Zn15	Zn	0.114641	0.927555	-0.154180
Zn16	Zn	0.614641	1.427555	0.345820
Zn17	Zn	0.123543	0.935392	0.028243
Zn18	Zn	0.623543	1.435392	0.528243
O19	O	0.246980	0.922369	-0.131785
O20	O	0.746980	1.422369	0.368215
C21	C	0.126337	0.787337	-0.053225
C22	C	0.626337	1.287337	0.446775
C23	C	0.124961	0.699812	-0.047308
C24	C	0.624961	1.199812	0.452692
C25	C	0.120630	0.655455	-0.120003
C26	C	0.620630	1.155455	0.379997
C27	C	0.119322	0.573218	-0.114446
C28	C	0.619322	1.073218	0.385554
C29	C	0.122354	0.535338	-0.036193
C30	C	0.622354	1.035338	0.463807
C31	C	0.126683	0.579701	0.036507
C32	C	0.626683	1.079701	0.536507
C33	C	0.127984	0.661938	0.030949
C34	C	0.627984	1.161938	0.530949
C35	C	0.118853	0.289735	-0.011478
C36	C	0.618853	0.789735	0.488522
C37	C	0.117554	0.207492	-0.005926
C38	C	0.617554	0.707492	0.494074
C39	C	0.110192	0.201015	-0.156880
C40	C	0.610192	0.701015	0.343120
C41	C	0.111499	0.283252	-0.162431
C42	C	0.611499	0.783252	0.337569
C43	C	0.115823	0.327609	-0.089731
C44	C	0.615823	0.827609	0.410269
N45	N	0.121020	0.451278	-0.030511
N46	N	0.621020	0.951278	0.469489
N47	N	0.117150	0.411668	-0.095413
N48	N	0.617150	0.911668	0.404587
C49	C	-0.045760	0.937049	-0.063340
C50	C	0.454240	1.437049	0.436660
C51	C	-0.145833	0.935385	-0.063220
C52	C	0.354167	1.435385	0.436780
C53	C	-0.557892	0.856532	-0.057906
C54	C	-0.057892	1.356532	0.442094
C55	C	-0.580040	1.000157	-0.067615
C56	C	-0.080040	1.500157	0.432385
C57	C	-0.486015	1.001723	-0.067716
C58	C	0.013985	1.501723	0.432284
C59	C	-0.427925	0.930692	-0.062913
C60	C	0.072075	1.430692	0.437087
C61	C	-0.463859	0.858096	-0.058009
C62	C	0.036141	1.358096	0.441991
C63	C	-0.450074	1.074317	-0.072628
C64	C	0.049926	1.574317	0.427372
C65	C	-0.356045	1.075886	-0.072730
C66	C	0.143955	1.575886	0.427270
C67	C	-0.297952	1.004855	-0.067921
C68	C	0.202048	1.504855	0.432079
C69	C	-0.333891	0.932255	-0.063016
C70	C	0.166109	1.432255	0.436984
C71	C	-0.275801	0.861225	-0.058214
C72	C	0.224199	1.361225	0.441786
C73	C	-0.311738	0.788625	-0.053303
C74	C	0.188262	1.288625	0.446697
C75	C	-0.405766	0.787065	-0.053201
C76	C	0.094234	1.287065	0.446799
C77	C	-0.203924	1.006415	-0.068023
C78	C	0.296076	1.506415	0.431977
C79	C	-0.181767	0.862788	-0.058317
C80	C	0.318233	1.362788	0.441683
C81	C	0.283944	0.925898	-0.062595
C82	C	0.783944	1.425898	0.437405
C83	C	0.384017	0.927563	-0.062709
C84	C	0.884017	1.427563	0.437291
C85	C	0.111847	1.075610	-0.072710
C86	C	0.611847	1.575610	0.427290
C87	C	0.113223	1.163135	-0.078621
C88	C	0.613223	1.663135	0.421379
N89	N	0.108564	0.922213	-0.278679
N90	N	0.608564	1.422213	0.221321
C91	C	0.160931	0.968218	-0.325481
C92	C	0.660931	1.468218	0.174519
C93	C	0.156675	0.964491	-0.412636
C94	C	0.656675	1.464491	0.087364
C95	C	0.100056	0.914754	-0.452988
C96	C	0.600056	1.414754	0.047012
C97	C	0.047683	0.868747	-0.406180
C98	C	0.547683	1.368747	0.093820
C99	C	0.051935	0.872479	-0.319027
C100	C	0.551935	1.372479	0.180973
C101	C	0.081491	0.898465	-0.713297
C102	C	0.581491	1.398465	-0.213297
C103	C	0.077245	0.894736	-0.800456
C104	C	0.577245	1.394736	-0.300456
C105	C	0.186236	0.990481	-0.806906
C106	C	0.686236	1.490481	-0.306906
C107	C	0.190487	0.994204	-0.719751
C108	C	0.690487	1.494204	-0.219751
C109	C	0.138111	0.948201	-0.672951
C110	C	0.638111	1.448201	-0.172951
N111	N	0.095706	0.910942	-0.542074
N112	N	0.595706	1.410942	-0.042074
N113	N	0.142457	0.952018	-0.583867
N114	N	0.642457	1.452018	-0.083867
N115	N	0.129612	0.940741	0.152742
N116	N	0.629612	1.440741	0.652742
H117	H	0.106670	0.164891	-0.216069
H118	H	0.606670	0.664891	0.283931
Cl119	Cl	-0.450950	0.695806	-0.047026
Cl120	Cl	0.049050	1.195806	0.452974
H121	H	0.001578	0.828255	-0.439042
H122	H	0.501578	1.328255	0.060958
Cl123	Cl	0.113893	0.517456	-0.205839
Cl124	Cl	0.613893	1.017456	0.294161
H125	H	-0.627343	1.057986	-0.071531
H126	H	-0.127343	1.557986	0.428469
H127	H	0.109026	0.314089	-0.226153
H128	H	0.609026	0.814089	0.273847
H129	H	0.009293	0.835016	-0.280922
H130	H	0.509293	1.335016	0.219078
Cl131	Cl	-0.158749	1.097675	-0.074211
Cl132	Cl	0.341251	1.597675	0.425789
H133	H	-0.497378	1.132146	-0.076545
H134	H	0.002622	1.632146	0.423455
H135	H	0.207042	1.008714	-0.292633
H136	H	0.707042	1.508714	0.207367
Cl137	Cl	0.116824	0.703066	-0.218384
Cl138	Cl	0.616824	1.203066	0.281616
H139	H	0.120026	0.176653	0.057800
H140	H	0.620026	0.676653	0.557800
H141	H	0.129145	0.548854	0.100223
H142	H	0.629145	1.048854	0.600223
Cl143	Cl	0.124291	0.345487	0.079918
Cl144	Cl	0.624291	0.845487	0.579918
Cl145	Cl	-0.310874	1.167152	-0.078889
Cl146	Cl	0.189126	1.667152	0.421111
Cl147	Cl	0.133425	0.717702	0.122342
Cl148	Cl	0.633425	1.217702	0.622342
Cl149	Cl	-0.108746	0.773487	-0.052272
Cl150	Cl	0.391254	1.273487	0.447728
Cl151	Cl	-0.238700	0.699333	-0.047273
Cl152	Cl	0.261300	1.199333	0.452727
H153	H	-0.587156	0.797424	-0.053905
H154	H	-0.087156	1.297424	0.446095
Cl155	Cl	0.222513	1.022328	-0.471468
Cl156	Cl	0.722513	1.522328	0.028532
H157	H	0.236590	1.034708	-0.686903
H158	H	0.736590	1.534708	-0.186903
H159	H	0.228877	1.027935	-0.845020
H160	H	0.728877	1.527935	-0.345020
Cl161	Cl	0.006060	0.832206	-0.851183
Cl162	Cl	0.506060	1.332206	-0.351183
H163	H	0.038842	0.861006	-0.675203
H164	H	0.538842	1.361006	-0.175203
