data_functionalizedCrystal
_audit_creation_method	'MofGen! by Chris Wilmer'
_symmetry_space_group_name_H-M	'P1'
_symmetry_Int_Tables_number	1
_symmetry_cell_setting	triclinic
loop_
_symmetry_equiv_pos_as_xyz
  x,y,z
_cell_length_a	18.215405
_cell_length_b	18.215407
_cell_length_c	18.215399
_cell_angle_alpha	89.983115
_cell_angle_beta	89.970161
_cell_angle_gamma	90.021264
loop_
_atom_site_label
_atom_site_type_symbol
_atom_site_fract_x
_atom_site_fract_y
_atom_site_fract_z
Zn1	Zn	-0.293039	1.125074	-0.416060
Zn2	Zn	0.206961	1.625074	0.083940
Zn3	Zn	-0.416111	1.124986	-0.292990
Zn4	Zn	0.083889	1.624986	0.207010
Zn5	Zn	-0.293058	1.002007	-0.293013
Zn6	Zn	0.206942	1.502007	0.206987
Zn7	Zn	-0.416063	1.001975	-0.416021
Zn8	Zn	0.083937	1.501975	0.083979
O9	O	-0.354568	1.063510	-0.354521
O10	O	0.145432	1.563510	0.145479
O11	O	-0.309377	1.228046	-0.399742
O12	O	0.190623	1.728046	0.100258
O13	O	-0.399816	1.108649	-0.190009
O14	O	0.100184	1.608649	0.309991
O15	O	-0.190071	1.018383	-0.309361
O16	O	0.309929	1.518383	0.190639
O17	O	-0.399798	1.227982	-0.309323
O18	O	0.100202	1.727982	0.190677
O19	O	-0.190057	1.108800	-0.399763
O20	O	0.309943	1.608800	0.100237
O21	O	-0.309409	1.018298	-0.190025
O22	O	0.190591	1.518298	0.309975
O23	O	-0.309362	0.899019	-0.309323
O24	O	0.190638	1.399019	0.190677
O25	O	-0.399715	1.018327	-0.519010
O26	O	0.100285	1.518327	-0.019010
O27	O	-0.399733	0.898995	-0.399696
O28	O	0.100267	1.398995	0.100304
O29	O	-0.309330	1.108768	-0.519039
O30	O	0.190670	1.608768	-0.019039
O31	O	-0.519089	1.108617	-0.309285
O32	O	-0.019089	1.608617	0.190715
O33	O	-0.519054	1.018242	-0.399675
O34	O	-0.019054	1.518242	0.100325
C35	C	-0.354545	0.872304	-0.354508
C36	C	0.145455	1.372304	0.145492
C37	C	-0.354553	0.790505	-0.354520
C38	C	0.145447	1.290505	0.145480
C39	C	-0.307568	0.602344	-0.401675
C40	C	0.192432	1.102344	0.098325
C41	C	-0.307574	0.525485	-0.401678
C42	C	0.192426	1.025485	0.098322
C43	C	-0.401588	0.525429	-0.307379
C44	C	0.098412	1.025429	0.192621
C45	C	-0.401577	0.602286	-0.307374
C46	C	0.098423	1.102286	0.192626
C47	C	-0.354568	0.640742	-0.354526
C48	C	0.145432	1.140742	0.145474
C49	C	-0.354585	0.487026	-0.354534
C50	C	0.145415	0.987026	0.145466
C51	C	-0.354593	0.403692	-0.354536
C52	C	0.145407	0.903692	0.145464
C53	C	-0.354560	0.724081	-0.354523
C54	C	0.145440	1.224081	0.145477
C55	C	-0.545774	1.063436	-0.354489
C56	C	-0.045774	1.563436	0.145511
C57	C	-0.627573	1.063472	-0.354500
C58	C	-0.127573	1.563472	0.145500
C59	C	-0.892624	1.110668	-0.307534
C60	C	-0.392624	1.610668	0.192466
C61	C	-0.815766	1.110638	-0.307517
C62	C	-0.315766	1.610638	0.192483
C63	C	-0.815770	1.016444	-0.401558
C64	C	-0.315770	1.516444	0.098442
C65	C	-0.892627	1.016471	-0.401570
C66	C	-0.392627	1.516471	0.098430
C67	C	-0.931052	1.063587	-0.354559
C68	C	-0.431052	1.563587	0.145441
C69	C	-0.777336	1.063530	-0.354530
C70	C	-0.277336	1.563530	0.145470
C71	C	-0.694003	1.063497	-0.354512
C72	C	-0.194003	1.563497	0.145488
C73	C	-1.014391	1.063620	-0.354576
C74	C	-0.514391	1.563620	0.145424
C75	C	-0.162615	1.063605	-0.354569
C76	C	0.337385	1.563605	0.145431
C77	C	-0.080816	1.063645	-0.354589
C78	C	0.419184	1.563645	0.145411
C79	C	-0.354515	1.063554	-0.546474
C80	C	0.145485	1.563554	-0.046474
C81	C	-0.354493	1.063572	-0.628273
C82	C	0.145507	1.563572	-0.128273
C83	C	-0.354591	1.255463	-0.354534
C84	C	0.145409	1.755463	0.145466
C85	C	-0.354601	1.337262	-0.354540
C86	C	0.145399	1.837262	0.145460
C87	C	-0.307366	1.110692	-0.893347
C88	C	0.192634	1.610692	-0.393347
C89	C	-0.307386	1.110683	-0.816488
C90	C	0.192614	1.610683	-0.316488
C91	C	-0.401514	1.016512	-0.816448
C92	C	0.098486	1.516512	-0.316448
C93	C	-0.401497	1.016525	-0.893305
C94	C	0.098503	1.516525	-0.393305
C95	C	-0.354419	1.063614	-0.931753
C96	C	0.145581	1.563614	-0.431753
C97	C	-0.354456	1.063592	-0.778036
C98	C	0.145544	1.563592	-0.278036
C99	C	-0.354478	1.063582	-0.694703
C100	C	0.145522	1.563582	-0.194703
C101	C	-0.354398	1.063625	-1.015092
C102	C	0.145602	1.563625	-0.515092
C103	C	-0.354566	1.063510	-0.163315
C104	C	0.145434	1.563510	0.336685
C105	C	-0.354381	1.063634	-0.081516
C106	C	0.145619	1.563634	0.418484
H107	H	-0.439852	0.633550	-0.268975
H108	H	0.060148	1.133550	0.231025
C109	C	-0.934900	0.964675	-0.453304
C110	C	-0.434900	1.464675	0.046696
N111	N	-0.966740	0.925662	-0.492268
N112	N	-0.466740	1.425662	0.007732
H113	H	-0.784476	0.978083	-0.439834
H114	H	-0.284476	1.478083	0.060166
H115	H	-0.269301	0.494225	-0.440070
H116	H	0.230699	0.994225	0.059930
H117	H	-0.439817	0.978188	-0.924576
H118	H	0.060183	1.478188	-0.424576
H119	H	-0.923908	1.149033	-0.269254
H120	H	-0.423908	1.649033	0.230746
C121	C	-0.255851	0.644643	-0.453537
C122	C	0.244149	1.144643	0.046463
N123	N	-0.216893	0.676500	-0.492599
N124	N	0.283107	1.176500	0.007401
H125	H	-0.439862	0.494109	-0.268991
H126	H	0.060138	0.994109	0.231009
H127	H	-0.439842	0.978173	-0.785134
H128	H	0.060158	1.478173	-0.285134
H129	H	-0.269032	1.149034	-0.924649
H130	H	0.230968	1.649034	-0.424649
C131	C	-0.773498	1.162426	-0.255780
C132	C	-0.273498	1.662426	0.244220
N133	N	-0.741663	1.201433	-0.216807
N134	N	-0.241663	1.701433	0.283193
C135	C	-0.255621	1.162468	-0.774245
C136	C	0.244379	1.662468	-0.274245
N137	N	-0.216627	1.201475	-0.742428
N138	N	0.283373	1.701475	-0.242428
