data_functionalizedCrystal
_audit_creation_method	'MofGen! by Chris Wilmer'
_symmetry_space_group_name_H-M	'P1'
_symmetry_Int_Tables_number	1
_symmetry_cell_setting	triclinic
loop_
_symmetry_equiv_pos_as_xyz
  x,y,z
_cell_length_a	12.645330
_cell_length_b	12.759401
_cell_length_c	12.759393
_cell_angle_alpha	90.020120
_cell_angle_beta	89.969952
_cell_angle_gamma	89.986338
loop_
_atom_site_label
_atom_site_type_symbol
_atom_site_fract_x
_atom_site_fract_y
_atom_site_fract_z
Zn1	Zn	-0.422091	-1.606234	-0.594038
Zn2	Zn	-0.599395	-1.606119	-0.418363
Zn3	Zn	-0.422133	-1.430536	-0.418372
Zn4	Zn	-0.599300	-1.430515	-0.593999
O5	O	-0.510730	-1.518351	-0.506193
O6	O	-0.445632	-1.753239	-0.570746
O7	O	-0.575938	-1.582788	-0.271343
O8	O	-0.273780	-1.453899	-0.441695
O9	O	-0.575897	-1.753155	-0.441678
O10	O	-0.273749	-1.582983	-0.570756
O11	O	-0.445705	-1.453788	-0.271350
O12	O	-0.445613	-1.283512	-0.441657
O13	O	-0.575736	-1.453864	-0.741025
O14	O	-0.575777	-1.283497	-0.570690
O15	O	-0.445541	-1.582964	-0.741054
O16	O	-0.747730	-1.582768	-0.441641
O17	O	-0.747660	-1.453753	-0.570680
C18	C	-0.510690	-1.245383	-0.506171
C19	C	-0.510699	-1.128607	-0.506187
C20	C	-0.442995	-1.073782	-0.573495
C21	C	-0.443009	-0.964058	-0.573498
C22	C	-0.578440	-0.963993	-0.438883
C23	C	-0.578420	-1.073715	-0.438874
C24	C	-0.364808	-1.073818	-0.651217
C25	C	-0.364823	-0.964094	-0.651221
C26	C	-0.786160	-1.518274	-0.506178
C27	C	-0.903990	-1.518337	-0.506207
C28	C	-1.071554	-1.437509	-0.587636
C29	C	-0.948995	-1.437095	-0.587374
C30	C	-0.948592	-1.488364	-0.395485
C31	C	-1.071190	-1.487871	-0.395979
C32	C	-1.071084	-1.629634	-0.534602
C33	C	-0.948477	-1.628952	-0.537024
C34	C	-0.234225	-1.518456	-0.506231
C35	C	-0.116394	-1.518501	-0.506247
C36	C	-0.510623	-1.518424	-0.780226
C37	C	-0.510577	-1.518456	-0.897003
C38	C	-0.510757	-0.792384	-0.506209
C39	C	-0.510734	-0.909161	-0.506198
C40	C	-0.442778	-1.585687	-0.951882
C41	C	-0.442740	-1.585712	-1.061606
C42	C	-0.578309	-1.451271	-1.061563
C43	C	-0.578341	-1.451242	-0.951841
C44	C	-0.364512	-1.663309	-0.951907
C45	C	-0.364474	-1.663334	-1.061631
C46	C	-0.510760	-1.518338	-0.233226
C47	C	-0.510507	-1.518510	-0.116449
H48	H	-0.386914	-0.934348	-0.732557
O49	O	-0.256022	-1.113269	-0.622516
H50	H	-0.202780	-1.045566	-0.608461
H51	H	-0.393949	-1.740579	-0.917874
O52	O	-0.393609	-1.771112	-1.101086
H53	H	-0.393546	-1.771067	-1.188077
H54	H	-0.919321	-1.651556	-0.618509
O55	O	-0.909980	-1.564022	-0.312960
H56	H	-0.978800	-1.603029	-0.275619
O57	O	-0.907940	-1.713097	-0.464193
H58	H	-0.855217	-1.677231	-0.404628
H59	H	-1.100082	-1.689976	-0.475323
O60	O	-0.651434	-1.132845	-0.366264
H61	H	-0.640037	-1.218364	-0.377556
H62	H	-1.099878	-1.406632	-0.371958
H63	H	-0.633546	-1.396492	-0.907163
H64	H	-0.919756	-1.354706	-0.568589
O65	O	-0.908054	-1.381873	-0.363081
H66	H	-0.856155	-1.350123	-0.425651
O67	O	-0.255765	-1.634479	-0.912482
H68	H	-0.255858	-1.634487	-0.825491
O69	O	-0.651484	-0.904791	-0.366286
H70	H	-0.640128	-0.819283	-0.377600
O71	O	-0.403864	-1.118955	-0.753530
H72	H	-0.424583	-1.054152	-0.807781
H73	H	-0.286796	-0.930056	-0.622219
O74	O	-0.909030	-1.461853	-0.696139
H75	H	-0.977269	-1.474235	-0.749399
H76	H	-1.101923	-1.656976	-0.613969
H77	H	-1.100960	-1.456089	-0.670005
H78	H	-1.102451	-1.355635	-0.569090
O79	O	-0.651395	-1.378783	-1.120715
H80	H	-0.633195	-1.296330	-1.099654
O81	O	-1.110512	-1.562606	-0.312914
H82	H	-1.081064	-1.537082	-0.235050
H83	H	-0.286465	-1.634224	-1.095676
