data_functionalizedCrystal
_audit_creation_method	'MofGen! by Chris Wilmer'
_symmetry_space_group_name_H-M	'P1'
_symmetry_Int_Tables_number	1
_symmetry_cell_setting	triclinic
loop_
_symmetry_equiv_pos_as_xyz
  x,y,z
_cell_length_a	16.992694
_cell_length_b	13.596369
_cell_length_c	14.519709
_cell_angle_alpha	90.013196
_cell_angle_beta	92.825815
_cell_angle_gamma	90.012208
loop_
_atom_site_label
_atom_site_type_symbol
_atom_site_fract_x
_atom_site_fract_y
_atom_site_fract_z
O1	O	1.040653	-0.081699	-0.195571
O2	O	0.812365	-0.081728	-0.193425
O3	O	0.932562	-0.081685	-0.060694
O4	O	0.920456	-0.081742	-0.328302
O5	O	0.932576	0.081898	-0.060687
O6	O	0.812379	0.081855	-0.193419
O7	O	1.040668	0.081884	-0.195564
Zn8	Zn	0.926526	0.107842	-0.194490
Zn9	Zn	0.926506	-0.107686	-0.194499
O10	O	0.920471	0.081841	-0.328296
C11	C	0.783156	0.000060	-0.190662
C12	C	0.696100	0.000051	-0.182427
C13	C	0.645971	0.000035	-0.261887
C14	C	0.564173	0.000050	-0.254143
C15	C	0.532507	0.000074	-0.166939
C16	C	0.582642	0.000093	-0.087473
C17	C	0.664438	0.000085	-0.095217
C18	C	0.288864	0.000107	-0.134842
C19	C	0.207062	0.000113	-0.127103
C20	C	0.188598	0.000071	-0.293774
C21	C	0.270397	0.000057	-0.301511
C22	C	0.320525	0.000081	-0.222045
N23	N	0.448897	0.000087	-0.159022
N24	N	0.404133	0.000076	-0.229963
N25	N	0.926494	-0.254778	-0.194499
C26	C	0.926496	-0.343775	-0.194500
C27	C	0.926508	-0.455427	-0.194498
C28	C	0.926521	-0.544417	-0.194493
C29	C	0.926532	-0.656076	-0.194490
C30	C	1.069877	0.000093	-0.198328
C31	C	1.156932	0.000097	-0.206563
C32	C	0.932005	0.000111	-0.026290
C33	C	0.930314	0.000126	0.076212
N34	N	0.926545	0.254934	-0.194484
C35	C	0.924090	0.000152	0.451555
C36	C	0.925819	0.000145	0.347123
C37	C	0.927202	0.000140	0.263887
C38	C	0.928931	0.000131	0.159448
C39	C	0.921028	0.000078	0.637301
C40	C	0.922718	0.000161	0.534798
H41	H	0.181282	0.000131	-0.056088
C42	C	0.343994	0.000127	-0.047432
H43	H	0.313417	0.000132	0.005610
H44	H	0.376298	0.057171	-0.046984
H45	H	0.376275	-0.056926	-0.046988
C46	C	0.305225	0.000045	-0.397435
H47	H	0.263654	0.000048	-0.443651
H48	H	0.336740	-0.057001	-0.403928
H49	H	0.336759	0.057096	-0.403911
H50	H	0.523361	0.000036	-0.318848
H51	H	0.671747	0.000014	-0.332897
C52	C	0.547811	0.000118	0.008450
H53	H	0.491916	0.000110	0.001683
H54	H	0.565021	0.057168	0.041425
H55	H	0.564999	-0.056929	0.041416
H56	H	0.147776	0.000054	-0.358470
H57	H	0.705253	0.000098	-0.030512
