data_functionalizedCrystal
_audit_creation_method	'MofGen! by Chris Wilmer'
_symmetry_space_group_name_H-M	'P1'
_symmetry_Int_Tables_number	1
_symmetry_cell_setting	triclinic
loop_
_symmetry_equiv_pos_as_xyz
  x,y,z
_cell_length_a	29.839135
_cell_length_b	29.839131
_cell_length_c	29.839125
_cell_angle_alpha	89.974637
_cell_angle_beta	89.984512
_cell_angle_gamma	90.037758
loop_
_atom_site_label
_atom_site_type_symbol
_atom_site_fract_x
_atom_site_fract_y
_atom_site_fract_z
Zn1	Zn	0.686739	-0.178886	-0.254023
Zn2	Zn	1.020072	0.154447	0.079310
Zn3	Zn	1.353406	0.487781	0.412643
Zn4	Zn	0.686679	-0.253998	-0.178883
Zn5	Zn	1.020013	0.079335	0.154450
Zn6	Zn	1.353346	0.412669	0.487783
Zn7	Zn	0.611622	-0.178886	-0.178901
Zn8	Zn	0.944955	0.154447	0.154432
Zn9	Zn	1.278288	0.487781	0.487765
Zn10	Zn	0.611578	-0.253993	-0.253980
Zn11	Zn	0.944911	0.079340	0.079353
Zn12	Zn	1.278244	0.412674	0.412686
O13	O	0.649154	-0.216441	-0.216447
O14	O	0.982488	0.116893	0.116886
O15	O	1.315821	0.450226	0.450220
O16	O	0.749598	-0.188852	-0.244066
O17	O	1.082931	0.144482	0.089267
O18	O	1.416265	0.477815	0.422600
O19	O	0.676716	-0.244036	-0.116019
O20	O	1.010049	0.089297	0.217315
O21	O	1.343383	0.422630	0.550648
O22	O	0.621630	-0.116019	-0.188892
O23	O	0.954963	0.217314	0.144441
O24	O	1.288296	0.550648	0.477774
O25	O	0.749554	-0.244036	-0.188861
O26	O	1.082888	0.089297	0.144472
O27	O	1.416221	0.422630	0.477805
O28	O	0.676818	-0.116019	-0.244084
O29	O	1.010151	0.217314	0.089249
O30	O	1.343485	0.550648	0.422583
O31	O	0.621572	-0.188852	-0.116032
O32	O	0.954905	0.144481	0.217301
O33	O	1.288238	0.477815	0.550635
O34	O	0.548749	-0.188847	-0.188850
O35	O	0.882082	0.144486	0.144483
O36	O	1.215415	0.477819	0.477816
O37	O	0.621554	-0.244028	-0.316853
O38	O	0.954888	0.089306	0.016480
O39	O	1.288221	0.422639	0.349814
O40	O	0.548716	-0.244028	-0.244010
O41	O	0.882050	0.089305	0.089323
O42	O	1.215383	0.422639	0.422656
O43	O	0.676775	-0.188847	-0.316885
O44	O	1.010108	0.144486	0.016449
O45	O	1.343442	0.477820	0.349782
O46	O	0.676673	-0.316864	-0.188819
O47	O	1.010007	0.016469	0.144514
O48	O	1.343340	0.349802	0.477847
O49	O	0.621497	-0.316861	-0.243993
O50	O	0.954830	0.016473	0.089341
O51	O	1.288163	0.349806	0.422674
C52	C	0.532432	-0.216437	-0.216428
C53	C	0.865765	0.116896	0.116905
C54	C	1.199098	0.450229	0.450239
C55	C	0.482497	-0.216447	-0.216430
C56	C	0.815831	0.116887	0.116903
C57	C	1.149164	0.450220	0.450236
C58	C	0.172874	-0.187750	-0.245235
C59	C	0.506207	0.145584	0.088099
C60	C	0.839541	0.478917	0.421432
C61	C	-0.014799	-0.187753	-0.245247
C62	C	0.318534	0.145580	0.088086
C63	C	0.651867	0.478914	0.421419
O64	O	-0.039047	-0.163344	-0.269717
O65	O	0.294286	0.169990	0.063617
O66	O	0.627620	0.503323	0.396950
N67	N	-0.038288	-0.216441	-0.216464
N68	N	0.295046	0.116892	0.116870
N69	N	0.628379	0.450225	0.450203
C70	C	-0.014855	-0.245129	-0.187672
C71	C	0.318478	0.088204	0.145661
C72	C	0.651812	0.421538	0.478994
O73	O	-0.039140	-0.269527	-0.163187
O74	O	0.294194	0.063806	0.170147
O75	O	0.627527	0.397140	0.503480
C76	C	0.172817	-0.245123	-0.187658
C77	C	0.506150	0.088210	0.145676
C78	C	0.839484	0.421544	0.479009
C79	C	0.196303	-0.216436	-0.216447
C80	C	0.529637	0.116897	0.116887
C81	C	0.862970	0.450231	0.450220
C82	C	0.196360	-0.159065	-0.274021
C83	C	0.529693	0.174269	0.059312
C84	C	0.863027	0.507602	0.392646
C85	C	0.243275	-0.159066	-0.274019
C86	C	0.576609	0.174267	0.059314
C87	C	0.909942	0.507601	0.392647
C88	C	0.266705	-0.187752	-0.245231
C89	C	0.600038	0.145581	0.088102
C90	C	0.933371	0.478914	0.421436
C91	C	0.243219	-0.216437	-0.216445
C92	C	0.576552	0.116896	0.116888
C93	C	0.909885	0.450229	0.450222
C94	C	0.196249	-0.273808	-0.158864
C95	C	0.529582	0.059525	0.174469
C96	C	0.862916	0.392859	0.507802
C97	C	0.243170	-0.273803	-0.158862
C98	C	0.576503	0.059530	0.174471
C99	C	0.909837	0.392863	0.507804
C100	C	0.266656	-0.245116	-0.187651
C101	C	0.599989	0.088217	0.145682
C102	C	0.933323	0.421550	0.479015
C103	C	0.313563	-0.245125	-0.187655
C104	C	0.646897	0.088208	0.145678
C105	C	0.980230	0.421542	0.479012
N106	N	0.337052	-0.216437	-0.216439
N107	N	0.670385	0.116897	0.116894
N108	N	1.003719	0.450230	0.450228
C109	C	0.313623	-0.187750	-0.245227
C110	C	0.646956	0.145583	0.088106
C111	C	0.980289	0.478916	0.421440
C112	C	-0.113386	-0.245130	-0.187683
C113	C	0.219948	0.088203	0.145651
C114	C	0.553281	0.421536	0.478984
C115	C	-0.160304	-0.245133	-0.187687
C116	C	0.173030	0.088201	0.145647
C117	C	0.506363	0.421534	0.478980
C118	C	-0.160244	-0.187756	-0.245262
C119	C	0.173089	0.145578	0.088072
C120	C	0.506422	0.478911	0.421405
C121	C	-0.113326	-0.187756	-0.245259
C122	C	0.220008	0.145577	0.088074
C123	C	0.553341	0.478910	0.421407
C124	C	-0.089897	-0.216442	-0.216467
C125	C	0.243436	0.116891	0.116867
C126	C	0.576769	0.450225	0.450200
C127	C	0.412148	-0.187755	-0.245221
C128	C	0.745482	0.145578	0.088112
C129	C	1.078815	0.478911	0.421445
C130	C	0.459068	-0.187760	-0.245218
C131	C	0.792401	0.145573	0.088115
C132	C	1.125735	0.478906	0.421448
C133	C	0.459005	-0.245135	-0.187642
C134	C	0.792338	0.088198	0.145691
C135	C	1.125672	0.421531	0.479024
C136	C	0.412089	-0.245132	-0.187647
C137	C	0.745423	0.088201	0.145687
C138	C	1.078756	0.421535	0.479020
C139	C	0.388662	-0.216438	-0.216438
C140	C	0.721996	0.116895	0.116896
C141	C	1.055329	0.450228	0.450229
O142	O	0.337840	-0.269518	-0.163195
O143	O	0.671174	0.063815	0.170138
O144	O	1.004507	0.397149	0.503472
O145	O	0.337915	-0.163349	-0.269702
O146	O	0.671249	0.169985	0.063632
O147	O	1.004582	0.503318	0.396965
C148	C	0.125958	-0.187749	-0.245236
C149	C	0.459292	0.145585	0.088097
C150	C	0.792625	0.478918	0.421430
C151	C	0.102472	-0.216434	-0.216450
C152	C	0.435806	0.116900	0.116883
C153	C	0.769139	0.450233	0.450217
C154	C	0.125902	-0.245120	-0.187662
C155	C	0.459235	0.088213	0.145671
C156	C	0.792568	0.421547	0.479005
C157	C	0.055554	-0.216436	-0.216454
C158	C	0.388888	0.116898	0.116879
C159	C	0.722221	0.450231	0.450212
C160	C	0.032125	-0.187749	-0.245242
C161	C	0.365458	0.145584	0.088091
C162	C	0.698792	0.478917	0.421424
C163	C	0.055614	-0.159061	-0.274026
C164	C	0.388947	0.174272	0.059307
C165	C	0.722280	0.507606	0.392640
C166	C	0.102529	-0.159062	-0.274025
C167	C	0.435862	0.174271	0.059309
C168	C	0.769196	0.507604	0.392642
C169	C	0.102413	-0.273808	-0.158878
C170	C	0.435746	0.059525	0.174455
C171	C	0.769080	0.392858	0.507789
C172	C	0.055498	-0.273805	-0.158883
C173	C	0.388831	0.059528	0.174451
C174	C	0.722164	0.392862	0.507784
C175	C	0.032068	-0.245119	-0.187671
C176	C	0.365402	0.088215	0.145663
C177	C	0.698735	0.421548	0.478996
C178	C	0.649086	-0.333163	-0.216409
C179	C	0.982419	0.000170	0.116924
C180	C	1.315753	0.333503	0.450257
C181	C	0.649098	-0.383098	-0.216408
C182	C	0.982431	-0.049764	0.116925
C183	C	1.315764	0.283569	0.450259
C184	C	0.677885	-0.692706	-0.245226
C185	C	1.011218	-0.359373	0.088107
C186	C	1.344551	-0.026040	0.421440
C187	C	0.677933	-0.880379	-0.245253
C188	C	1.011267	-0.547046	0.088080
C189	C	1.344600	-0.213713	0.421413
O190	O	0.702342	-0.904614	-0.269728
O191	O	1.035675	-0.571281	0.063606
O192	O	1.369009	-0.237948	0.396939
N193	N	0.649231	-0.903883	-0.216497
N194	N	0.982564	-0.570549	0.116836
N195	N	1.315897	-0.237216	0.450170
C196	C	0.620512	-0.880465	-0.187734
C197	C	0.953845	-0.547132	0.145600
C198	C	1.287178	-0.213799	0.478933
O199	O	0.596096	-0.904763	-0.163279
O200	O	0.929429	-0.571429	0.170055
O201	O	1.262763	-0.238096	0.503388
C202	C	0.620461	-0.692793	-0.187709
C203	C	0.953794	-0.359460	0.145624
C204	C	1.287128	-0.026126	0.478957
C205	C	0.649169	-0.669292	-0.216464
C206	C	0.982502	-0.335959	0.116869
C207	C	1.315835	-0.002625	0.450202
C208	C	0.706590	-0.669205	-0.273979
C209	C	1.039923	-0.335872	0.059354
C210	C	1.373256	-0.002538	0.392687
C211	C	0.706579	-0.622290	-0.273971
C212	C	1.039912	-0.288956	0.059363
C213	C	1.373246	0.044377	0.392696
C214	C	0.677863	-0.598875	-0.245209
C215	C	1.011196	-0.265542	0.088125
C216	C	1.344530	0.067791	0.421458
C217	C	0.649158	-0.622377	-0.216456
C218	C	0.982491	-0.289043	0.116878
C219	C	1.315825	0.044290	0.450211
C220	C	0.591740	-0.669376	-0.158949
C221	C	0.925073	-0.336043	0.174385
C222	C	1.258407	-0.002710	0.507718
C223	C	0.591729	-0.622455	-0.158946
C224	C	0.925062	-0.289122	0.174387
C225	C	1.258396	0.044211	0.507721
C226	C	0.620437	-0.598954	-0.187701
C227	C	0.953770	-0.265621	0.145632
C228	C	1.287103	0.067712	0.478965
C229	C	0.620431	-0.552047	-0.187685
C230	C	0.953765	-0.218713	0.145648
C231	C	1.287098	0.114620	0.478982
N232	N	0.649134	-0.528543	-0.216441
N233	N	0.982467	-0.195210	0.116892
N234	N	1.315801	0.138123	0.450225
C235	C	0.677850	-0.551957	-0.245203
C236	C	1.011183	-0.218624	0.088130
C237	C	1.344517	0.114709	0.421463
C238	C	0.620541	-0.978996	-0.187748
C239	C	0.953874	-0.645663	0.145585
C240	C	1.287208	-0.312329	0.478919
C241	C	0.620554	-1.025914	-0.187753
C242	C	0.953887	-0.692580	0.145580
C243	C	1.287221	-0.359247	0.478913
C244	C	0.677975	-1.025824	-0.245274
C245	C	1.011309	-0.692491	0.088060
C246	C	1.344642	-0.359158	0.421393
C247	C	0.677964	-0.978906	-0.245266
C248	C	1.011297	-0.645572	0.088068
C249	C	1.344631	-0.312239	0.421401
C250	C	0.649244	-0.955492	-0.216504
C251	C	0.982577	-0.622159	0.116829
C252	C	1.315910	-0.288826	0.450162
C253	C	0.677826	-0.453432	-0.245183
C254	C	1.011159	-0.120098	0.088151
C255	C	1.344492	0.213235	0.421484
C256	C	0.677814	-0.406512	-0.245170
C257	C	1.011147	-0.073179	0.088163
C258	C	1.344480	0.260155	0.421497
C259	C	0.620391	-0.406605	-0.187651
C260	C	0.953724	-0.073272	0.145682
C261	C	1.287057	0.260061	0.479015
C262	C	0.620404	-0.453521	-0.187662
C263	C	0.953738	-0.120188	0.145671
C264	C	1.287071	0.213146	0.479004
C265	C	0.649123	-0.476933	-0.216431
C266	C	0.982456	-0.143600	0.116902
C267	C	1.315790	0.189734	0.450235
O268	O	0.596032	-0.527783	-0.163227
O269	O	0.929365	-0.194449	0.170106
O270	O	1.262699	0.138884	0.503440
O271	O	0.702255	-0.527652	-0.269662
O272	O	1.035588	-0.194319	0.063671
O273	O	1.368922	0.139015	0.397005
C274	C	0.677895	-0.739622	-0.245235
C275	C	1.011229	-0.406288	0.088098
C276	C	1.344562	-0.072955	0.421432
C277	C	0.649190	-0.763123	-0.216482
C278	C	0.982524	-0.429790	0.116851
C279	C	1.315857	-0.096456	0.450185
C280	C	0.620474	-0.739709	-0.187720
C281	C	0.953808	-0.406375	0.145613
C282	C	1.287141	-0.073042	0.478947
C283	C	0.649203	-0.810041	-0.216487
C284	C	0.982537	-0.476707	0.116846
C285	C	1.315870	-0.143374	0.450179
C286	C	0.677919	-0.833455	-0.245249
C287	C	1.011253	-0.500122	0.088084
C288	C	1.344586	-0.166788	0.421417
C289	C	0.706622	-0.809951	-0.274006
C290	C	1.039955	-0.476618	0.059328
C291	C	1.373289	-0.143285	0.392661
C292	C	0.706611	-0.763036	-0.273997
C293	C	1.039945	-0.429703	0.059336
C294	C	1.373278	-0.096369	0.392670
C295	C	0.591772	-0.763212	-0.158964
C296	C	0.925105	-0.429879	0.174370
C297	C	1.258438	-0.096545	0.507703
C298	C	0.591785	-0.810128	-0.158974
C299	C	0.925118	-0.476794	0.174359
C300	C	1.258452	-0.143461	0.507692
C301	C	0.620501	-0.833542	-0.187736
C302	C	0.953834	-0.500209	0.145597
C303	C	1.287168	-0.166875	0.478930
C304	C	0.766333	-0.216445	-0.216467
C305	C	1.099666	0.116889	0.116867
C306	C	1.432999	0.450222	0.450200
C307	C	0.816267	-0.216446	-0.216475
C308	C	1.149600	0.116887	0.116858
C309	C	1.482934	0.450220	0.450192
C310	C	0.649167	-0.216437	-0.333625
C311	C	0.982500	0.116897	-0.000292
C312	C	1.315833	0.450230	0.333041
C313	C	0.649172	-0.216435	-0.383560
C314	C	0.982505	0.116898	-0.050227
C315	C	1.315838	0.450232	0.283107
C316	C	0.649235	-0.099262	-0.216495
C317	C	0.982569	0.234071	0.116838
C318	C	1.315902	0.567404	0.450172
C319	C	0.649270	-0.049328	-0.216515
C320	C	0.982603	0.284005	0.116818
C321	C	1.315937	0.617339	0.450151
C322	C	0.677955	-0.187627	-0.693223
C323	C	1.011289	0.145706	-0.359890
C324	C	1.344622	0.479040	-0.026556
C325	C	0.677978	-0.187589	-0.880896
C326	C	1.011311	0.145744	-0.547563
C327	C	1.344644	0.479078	-0.214229
O328	O	0.702417	-0.163138	-0.905177
O329	O	1.035750	0.170195	-0.571844
O330	O	1.369084	0.503529	-0.238511
N331	N	0.649231	-0.216315	-0.904345
N332	N	0.982565	0.117019	-0.571012
N333	N	1.315898	0.450352	-0.237679
C334	C	0.620475	-0.245050	-0.880873
C335	C	0.953809	0.088283	-0.547540
C336	C	1.287142	0.421617	-0.214207
O337	O	0.596022	-0.269479	-0.905124
O338	O	0.929355	0.063854	-0.571791
O339	O	1.262689	0.397188	-0.238458
C340	C	0.620451	-0.245086	-0.693201
C341	C	0.953784	0.088247	-0.359868
C342	C	1.287118	0.421581	-0.026534
C343	C	0.649202	-0.216361	-0.669754
C344	C	0.982536	0.116972	-0.336421
C345	C	1.315869	0.450305	-0.003088
C346	C	0.706704	-0.158905	-0.669776
C347	C	1.040037	0.174429	-0.336443
C348	C	1.373371	0.507762	-0.003110
C349	C	0.706700	-0.158916	-0.622861
C350	C	1.040033	0.174417	-0.289527
C351	C	1.373367	0.507750	0.043806
C352	C	0.677947	-0.187650	-0.599392
C353	C	1.011280	0.145683	-0.266059
C354	C	1.344614	0.479016	0.067275
C355	C	0.649198	-0.216373	-0.622839
C356	C	0.982532	0.116960	-0.289505
C357	C	1.315865	0.450294	0.043828
C358	C	0.591693	-0.273819	-0.669730
C359	C	0.925026	0.059515	-0.336396
C360	C	1.258360	0.392848	-0.003063
C361	C	0.591689	-0.273824	-0.622809
C362	C	0.925022	0.059509	-0.289475
C363	C	1.258355	0.392842	0.043858
C364	C	0.620440	-0.245100	-0.599362
C365	C	0.953773	0.088234	-0.266029
C366	C	1.287107	0.421567	0.067305
C367	C	0.620441	-0.245119	-0.552455
C368	C	0.953775	0.088215	-0.219121
C369	C	1.287108	0.421548	0.114212
N370	N	0.649188	-0.216393	-0.529005
N371	N	0.982521	0.116941	-0.195672
N372	N	1.315854	0.450274	0.137661
C373	C	0.677941	-0.187659	-0.552474
C374	C	1.011274	0.145675	-0.219141
C375	C	1.344607	0.479008	0.114193
C376	C	0.620491	-0.245030	-0.979404
C377	C	0.953824	0.088303	-0.646070
C378	C	1.287157	0.421637	-0.312737
C379	C	0.620497	-0.245022	-1.026322
C380	C	0.953830	0.088312	-0.692988
C381	C	1.287164	0.421645	-0.359655
C382	C	0.677999	-0.187560	-1.026341
C383	C	1.011332	0.145774	-0.693008
C384	C	1.344666	0.479107	-0.359675
C385	C	0.677994	-0.187571	-0.979423
C386	C	1.011328	0.145763	-0.646089
C387	C	1.344661	0.479096	-0.312756
C388	C	0.649237	-0.216304	-0.955955
C389	C	0.982570	0.117029	-0.622621
C390	C	1.315904	0.450363	-0.289288
C391	C	0.677930	-0.187685	-0.453948
C392	C	1.011263	0.145648	-0.120615
C393	C	1.344597	0.478981	0.212718
C394	C	0.677925	-0.187701	-0.407029
C395	C	1.011258	0.145632	-0.073695
C396	C	1.344591	0.478966	0.259638
C397	C	0.620421	-0.245161	-0.407013
C398	C	0.953755	0.088172	-0.073680
C399	C	1.287088	0.421506	0.259654
C400	C	0.620428	-0.245147	-0.453929
C401	C	0.953761	0.088186	-0.120595
C402	C	1.287095	0.421519	0.212738
C403	C	0.649184	-0.216406	-0.477395
C404	C	0.982517	0.116927	-0.144062
C405	C	1.315851	0.450261	0.189272
O406	O	0.596011	-0.269553	-0.528144
O407	O	0.929344	0.063780	-0.194811
O408	O	1.262678	0.397113	0.138523
O409	O	0.702383	-0.163226	-0.528215
O410	O	1.035717	0.170107	-0.194882
O411	O	1.369050	0.503440	0.138452
C412	C	0.677960	-0.187616	-0.740138
C413	C	1.011293	0.145718	-0.406805
C414	C	1.344626	0.479051	-0.073472
C415	C	0.649211	-0.216338	-0.763585
C416	C	0.982544	0.116995	-0.430252
C417	C	1.315877	0.450329	-0.096918
C418	C	0.620458	-0.245072	-0.740116
C419	C	0.953791	0.088261	-0.406783
C420	C	1.287124	0.421594	-0.073450
C421	C	0.649217	-0.216330	-0.810503
C422	C	0.982551	0.117003	-0.477170
C423	C	1.315884	0.450337	-0.143836
C424	C	0.677970	-0.187596	-0.833972
C425	C	1.011304	0.145738	-0.500638
C426	C	1.344637	0.479071	-0.167305
C427	C	0.706717	-0.158870	-0.810523
C428	C	1.040050	0.174464	-0.477189
C429	C	1.373383	0.507797	-0.143856
C430	C	0.706712	-0.158881	-0.763607
C431	C	1.040046	0.174452	-0.430274
C432	C	1.373379	0.507785	-0.096940
C433	C	0.591711	-0.273798	-0.763566
C434	C	0.925045	0.059535	-0.430232
C435	C	1.258378	0.392869	-0.096899
C436	C	0.591718	-0.273785	-0.810481
C437	C	0.925052	0.059549	-0.477148
C438	C	1.258385	0.392882	-0.143814
C439	C	0.620471	-0.245050	-0.833950
C440	C	0.953805	0.088283	-0.500616
C441	C	1.287138	0.421616	-0.167283
C442	C	0.649168	-0.216412	-0.099725
C443	C	0.982501	0.116921	0.233609
C444	C	1.315835	0.450254	0.566942
C445	C	0.649250	-0.216288	-0.049790
C446	C	0.982583	0.117046	0.283543
C447	C	1.315917	0.450379	0.616876
H448	H	-0.179329	-0.164398	-0.268702
H449	H	0.154005	0.168935	0.064631
H450	H	0.487338	0.502268	0.397964
H451	H	0.729954	-0.603158	-0.297387
H452	H	1.063287	-0.269824	0.035946
H453	H	1.396621	0.063509	0.369280
H454	H	0.730112	-0.135525	-0.603775
H455	H	1.063445	0.197808	-0.270441
H456	H	1.396778	0.531142	0.062892
N457	N	0.707312	-0.158335	-0.477913
N458	N	1.040645	0.174998	-0.144580
N459	N	1.373978	0.508331	0.188753
N460	N	0.735935	-0.174137	-0.504091
N461	N	1.069268	0.159196	-0.170758
N462	N	1.402601	0.492530	0.162575
H463	H	0.756688	-0.153411	-0.521017
H464	H	1.090021	0.179923	-0.187683
H465	H	1.423355	0.513256	0.145650
H466	H	0.177289	-0.135702	-0.297464
H467	H	0.510622	0.197631	0.035869
H468	H	0.843955	0.530964	0.369203
N469	N	0.591137	-0.274367	-1.050276
N470	N	0.924471	0.058967	-0.716942
N471	N	1.257804	0.392300	-0.383609
N472	N	0.606924	-0.302992	-1.076451
N473	N	0.940258	0.030342	-0.743118
N474	N	1.273591	0.363675	-0.409785
H475	H	0.586187	-0.323716	-1.093368
H476	H	0.919520	0.009617	-0.760035
H477	H	1.252854	0.342951	-0.426702
N478	N	-0.089451	-0.274431	-0.158271
N479	N	0.243882	0.058903	0.175062
N480	N	0.577216	0.392236	0.508395
N481	N	-0.063272	-0.258584	-0.129669
N482	N	0.270061	0.074749	0.203665
N483	N	0.603394	0.408082	0.536998
H484	H	-0.046370	-0.279278	-0.108897
H485	H	0.286964	0.054055	0.224436
H486	H	0.620297	0.387388	0.557769
N487	N	0.736078	-0.129546	-0.693737
N488	N	1.069411	0.203788	-0.360404
N489	N	1.402745	0.537121	-0.027071
N490	N	0.761741	-0.103905	-0.672788
N491	N	1.095074	0.229429	-0.339455
N492	N	1.428407	0.562762	-0.006121
H493	H	0.782490	-0.083169	-0.689707
H494	H	1.115823	0.250164	-0.356374
H495	H	1.449157	0.583497	-0.023041
H496	H	0.701411	-0.164164	-1.045458
H497	H	1.034745	0.169170	-0.712124
H498	H	1.368078	0.502503	-0.378791
N499	N	0.126523	-0.129762	-0.303429
N500	N	0.459857	0.203571	0.029904
N501	N	0.793190	0.536905	0.363237
N502	N	0.152703	-0.145608	-0.332027
N503	N	0.486036	0.187725	0.001307
N504	N	0.819370	0.521059	0.334640
H505	H	0.169647	-0.124913	-0.352795
H506	H	0.502981	0.208420	-0.019461
H507	H	0.836314	0.541754	0.313872
H508	H	0.701406	-0.164180	-0.960335
H509	H	1.034739	0.169154	-0.627002
H510	H	1.368072	0.502487	-0.293669
H511	H	0.597020	-0.268541	-0.473020
H512	H	0.930354	0.064792	-0.139687
H513	H	1.263687	0.398125	0.193647
H514	H	0.701339	-0.164310	-0.387940
H515	H	1.034672	0.169024	-0.054607
H516	H	1.368006	0.502357	0.278726
N517	N	0.031683	-0.129755	-0.303436
N518	N	0.365016	0.203578	0.029898
N519	N	0.698350	0.536911	0.363231
N520	N	0.052653	-0.104142	-0.329138
N521	N	0.385987	0.229191	0.004195
N522	N	0.719320	0.562524	0.337528
H523	H	0.035751	-0.083446	-0.349908
H524	H	0.369084	0.249888	-0.016574
H525	H	0.702418	0.583221	0.316759
N526	N	0.562452	-0.834130	-0.129606
N527	N	0.895785	-0.500797	0.203728
N528	N	1.229118	-0.167463	0.537061
N529	N	0.533816	-0.860322	-0.145392
N530	N	0.867150	-0.526988	0.187941
N531	N	1.200483	-0.193655	0.521274
H532	H	0.513097	-0.877272	-0.124654
H533	H	0.846430	-0.543939	0.208679
H534	H	1.179764	-0.210606	0.542012
H535	H	0.597153	-0.959936	-0.164326
H536	H	0.930486	-0.626602	0.169007
H537	H	1.263819	-0.293269	0.502341
N538	N	0.562333	-0.303146	-0.739598
N539	N	0.895667	0.030187	-0.406265
N540	N	1.229000	0.363520	-0.072932
N541	N	0.520882	-0.300164	-0.744836
N542	N	0.854215	0.033170	-0.411503
N543	N	1.187549	0.366503	-0.078170
H544	H	0.500132	-0.320894	-0.727911
H545	H	0.833466	0.012440	-0.394578
H546	H	1.166799	0.345773	-0.061245
N547	N	0.562391	-0.598533	-0.129571
N548	N	0.895724	-0.265200	0.203762
N549	N	1.229058	0.068134	0.537095
N550	N	0.533746	-0.572369	-0.145347
N551	N	0.867080	-0.239035	0.187987
N552	N	1.200413	0.094298	0.521320
H553	H	0.513027	-0.555473	-0.124601
H554	H	0.846360	-0.222140	0.208732
H555	H	1.179694	0.111193	0.542066
H556	H	-0.094206	-0.164396	-0.268701
H557	H	0.239127	0.168937	0.064632
H558	H	0.572460	0.502271	0.397966
H559	H	0.597073	-0.268431	-0.960301
H560	H	0.930406	0.064902	-0.626967
H561	H	1.263740	0.398235	-0.293634
N562	N	0.735940	-0.739041	-0.303372
N563	N	1.069273	-0.405707	0.029962
N564	N	1.402607	-0.072374	0.363295
N565	N	0.761575	-0.759960	-0.329047
N566	N	1.094908	-0.426626	0.004286
N567	N	1.428242	-0.093293	0.337620
H568	H	0.782290	-0.743016	-0.349795
H569	H	1.115624	-0.409683	-0.016462
H570	H	1.448957	-0.076349	0.316872
H571	H	-0.179422	-0.268497	-0.164249
H572	H	0.153911	0.064836	0.169084
H573	H	0.487245	0.398169	0.502418
H574	H	0.597032	-0.472657	-0.164244
H575	H	0.930365	-0.139323	0.169089
H576	H	1.263698	0.194010	0.502423
H577	H	0.177135	-0.297168	-0.135421
H578	H	0.510468	0.036166	0.197913
H579	H	0.843801	0.369499	0.531246
H580	H	0.568306	-0.297180	-0.829567
H581	H	0.901639	0.036154	-0.496234
H582	H	1.234973	0.369487	-0.162901
H583	H	0.262243	-0.297163	-0.135415
H584	H	0.595576	0.036171	0.197919
H585	H	0.928910	0.369504	0.531252
H586	H	0.597012	-0.387534	-0.164232
H587	H	0.930345	-0.054201	0.169101
H588	H	1.263679	0.279132	0.502434
N589	N	0.388103	-0.274442	-0.158242
N590	N	0.721436	0.058891	0.175091
N591	N	1.054770	0.392225	0.508424
N592	N	0.409030	-0.300054	-0.132543
N593	N	0.742363	0.033279	0.200791
N594	N	1.075697	0.366612	0.534124
H595	H	0.392093	-0.320753	-0.111772
H596	H	0.725426	0.012580	0.221561
H597	H	1.058760	0.345914	0.554894
N598	N	0.562329	-0.303172	-0.693665
N599	N	0.895662	0.030162	-0.360332
N600	N	1.228995	0.363495	-0.026998
N601	N	0.536664	-0.328824	-0.672696
N602	N	0.869997	0.004509	-0.339363
N603	N	1.203330	0.337842	-0.006030
H604	H	0.515925	-0.349559	-0.689600
H605	H	0.849259	-0.016226	-0.356266
H606	H	1.182592	0.317107	-0.022933
H607	H	0.701340	-0.959774	-0.268681
H608	H	1.034674	-0.626441	0.064653
H609	H	1.368007	-0.293107	0.397986
N610	N	0.562307	-0.303176	-0.598845
N611	N	0.895640	0.030157	-0.265511
N612	N	1.228974	0.363491	0.067822
N613	N	0.536640	-0.328817	-0.619789
N614	N	0.869973	0.004516	-0.286455
N615	N	1.203306	0.337850	0.046878
H616	H	0.515889	-0.349547	-0.602865
H617	H	0.849222	-0.016214	-0.269532
H618	H	1.182555	0.317120	0.063802
N619	N	0.591059	-0.274512	-0.383028
N620	N	0.924392	0.058822	-0.049695
N621	N	1.257725	0.392155	0.283638
N622	N	0.591062	-0.274514	-0.341138
N623	N	0.924396	0.058820	-0.007805
N624	N	1.257729	0.392153	0.325529
H625	H	0.570323	-0.295242	-0.324197
H626	H	0.903657	0.038092	0.009136
H627	H	1.236990	0.371425	0.342470
N628	N	0.482949	-0.274436	-0.158243
N629	N	0.816283	0.058897	0.175090
N630	N	1.149616	0.392230	0.508424
N631	N	0.524840	-0.274429	-0.158248
N632	N	0.858173	0.058905	0.175085
N633	N	1.191506	0.392238	0.508418
H634	H	0.541752	-0.295121	-0.137483
H635	H	0.875086	0.038212	0.195850
H636	H	1.208419	0.371546	0.529183
H637	H	0.701208	-0.472488	-0.268612
H638	H	1.034541	-0.139155	0.064721
H639	H	1.367875	0.194179	0.398054
N640	N	0.736086	-0.129538	-0.739668
N641	N	1.069419	0.203795	-0.406334
N642	N	1.402752	0.537129	-0.073001
N643	N	0.761754	-0.103887	-0.760635
N644	N	1.095087	0.229446	-0.427302
N645	N	1.428420	0.562779	-0.093968
H646	H	0.782500	-0.083161	-0.743731
H647	H	1.115834	0.250172	-0.410397
H648	H	1.449167	0.583505	-0.077064
H649	H	0.730130	-0.135475	-0.829639
H650	H	1.063463	0.197858	-0.496306
H651	H	1.396796	0.531192	-0.162972
H652	H	0.036379	-0.297170	-0.135440
H653	H	0.369713	0.036163	0.197893
H654	H	0.703046	0.369497	0.531227
H655	H	0.478188	-0.164399	-0.268663
H656	H	0.811522	0.168934	0.064670
H657	H	1.144855	0.502267	0.398003
H658	H	0.393080	-0.164389	-0.268665
H659	H	0.726413	0.168944	0.064669
H660	H	1.059746	0.502278	0.398002
N661	N	0.735956	-0.833880	-0.303380
N662	N	1.069289	-0.500547	0.029954
N663	N	1.402622	-0.167214	0.363287
N664	N	0.735958	-0.875771	-0.303377
N665	N	1.069291	-0.542438	0.029956
N666	N	1.402624	-0.209104	0.363289
H667	H	0.756672	-0.892673	-0.324122
H668	H	1.090005	-0.559340	0.009211
H669	H	1.423339	-0.226007	0.342544
H670	H	0.262394	-0.135705	-0.297462
H671	H	0.595727	0.197628	0.035872
H672	H	0.929060	0.530961	0.369205
N673	N	0.126335	-0.303114	-0.129466
N674	N	0.459668	0.030219	0.203867
N675	N	0.793001	0.363553	0.537201
N676	N	0.105352	-0.328723	-0.103770
N677	N	0.438686	0.004610	0.229564
N678	N	0.772019	0.337943	0.562897
H679	H	0.122245	-0.349424	-0.082997
H680	H	0.455578	-0.016091	0.250337
H681	H	0.788911	0.317242	0.583670
H682	H	0.701192	-0.387379	-0.268586
H683	H	1.034526	-0.054046	0.064748
H684	H	1.367859	0.279288	0.398081
N685	N	0.735926	-0.693110	-0.303367
N686	N	1.069259	-0.359777	0.029967
N687	N	1.402592	-0.026444	0.363300
N688	N	0.761549	-0.672113	-0.329035
N689	N	1.094883	-0.338779	0.004298
N690	N	1.428216	-0.005446	0.337631
H691	H	0.782272	-0.688992	-0.349791
H692	H	1.115605	-0.355659	-0.016457
H693	H	1.448939	-0.022326	0.316876
H694	H	0.701358	-1.044896	-0.268692
H695	H	1.034691	-0.711563	0.064641
H696	H	1.368024	-0.378230	0.397974
N697	N	0.591235	-1.049910	-0.158370
N698	N	0.924568	-0.716576	0.174963
N699	N	1.257901	-0.383243	0.508297
N700	N	0.565600	-1.028993	-0.132693
N701	N	0.898933	-0.695659	0.200641
N702	N	1.232267	-0.362326	0.533974
H703	H	0.544891	-1.045938	-0.111940
H704	H	0.878224	-0.712605	0.221393
H705	H	1.211558	-0.379271	0.554727
N706	N	0.562413	-0.693371	-0.129575
N707	N	0.895746	-0.360038	0.203758
N708	N	1.229080	-0.026705	0.537092
N709	N	0.565410	-0.688149	-0.088122
N710	N	0.898743	-0.354816	0.245211
N711	N	1.232077	-0.021483	0.578544
H712	H	0.544694	-0.705094	-0.067377
H713	H	0.878027	-0.371761	0.265957
H714	H	1.211360	-0.038427	0.599290
N715	N	0.562433	-0.739306	-0.129581
N716	N	0.895766	-0.405973	0.203752
N717	N	1.229100	-0.072639	0.537086
N718	N	0.536809	-0.760302	-0.103911
N719	N	0.870142	-0.426968	0.229422
N720	N	1.203476	-0.093635	0.562756
H721	H	0.516088	-0.743420	-0.083156
H722	H	0.849421	-0.410087	0.250177
H723	H	1.182754	-0.076754	0.583510
