data_functionalizedCrystal
_audit_creation_method	'MofGen! by Chris Wilmer'
_symmetry_space_group_name_H-M	'P1'
_symmetry_Int_Tables_number	1
_symmetry_cell_setting	triclinic
loop_
_symmetry_equiv_pos_as_xyz
  x,y,z
_cell_length_a	19.077105
_cell_length_b	18.101395
_cell_length_c	19.077174
_cell_angle_alpha	92.274090
_cell_angle_beta	85.483752
_cell_angle_gamma	87.727498
loop_
_atom_site_label
_atom_site_type_symbol
_atom_site_fract_x
_atom_site_fract_y
_atom_site_fract_z
Zn1	Zn	1.093667	-0.359826	-0.441848
Zn2	Zn	1.088839	-0.478484	-0.323961
Zn3	Zn	0.971053	-0.349474	-0.319245
Zn4	Zn	0.975733	-0.478436	-0.437079
O5	O	1.032323	-0.416555	-0.380533
O6	O	1.191676	-0.379919	-0.430179
O7	O	1.069236	-0.457058	-0.224686
O8	O	0.987380	-0.247218	-0.335530
O9	O	1.188129	-0.467097	-0.343568
O10	O	1.077464	-0.254824	-0.425606
O11	O	0.982699	-0.362276	-0.221221
O12	O	0.873024	-0.362229	-0.330906
O13	O	0.995356	-0.467014	-0.536361
O14	O	0.876463	-0.456976	-0.417479
O15	O	1.082002	-0.379872	-0.539865
O16	O	1.073774	-0.582107	-0.338945
O17	O	0.990675	-0.582071	-0.422052
C18	C	0.849165	-0.408474	-0.373164
C19	C	0.770810	-0.405036	-0.370028
C20	C	1.032228	-0.608961	-0.380509
C21	C	1.032253	-0.691276	-0.380524
C22	C	0.735804	-0.452818	-0.413557
C23	C	0.662181	-0.449578	-0.410614
C24	C	0.623565	-0.398558	-0.364137
C25	C	0.658576	-0.350770	-0.320606
C26	C	0.732197	-0.354007	-0.323554
C27	C	0.403185	-0.383575	-0.350501
C28	C	0.329559	-0.380343	-0.347555
C29	C	0.333169	-0.479150	-0.437564
C30	C	0.406792	-0.482386	-0.440504
C31	C	0.441796	-0.434596	-0.396976
N32	N	0.548310	-0.395246	-0.361126
N33	N	0.517050	-0.437904	-0.399991
C34	C	1.032409	-0.990376	-0.380568
C35	C	0.980257	-0.959071	-0.432998
C36	C	0.979992	-0.873434	-0.432816
C37	C	1.032331	-0.841989	-0.380547
C38	C	1.009238	-0.868986	-0.305444
C39	C	1.008901	-0.954630	-0.305757
C40	C	1.107747	-0.962841	-0.402593
C41	C	1.107374	-0.877242	-0.404205
C42	C	1.032289	-0.758127	-0.380531
C43	C	1.032450	-1.074237	-0.380580
C44	C	1.216197	-0.424668	-0.387932
C45	C	1.294553	-0.428125	-0.391085
C46	C	1.039740	-0.424592	-0.564407
C47	C	1.042900	-0.428018	-0.642763
C48	C	1.032439	-0.223400	-0.380574
C49	C	1.032488	-0.141088	-0.380591
C50	C	0.999332	-0.380279	-0.677771
C51	C	1.002299	-0.383504	-0.751394
C52	C	1.048838	-0.434463	-0.790009
C53	C	1.092408	-0.482206	-0.754997
C54	C	1.089437	-0.478985	-0.681374
C55	C	1.062551	-0.449392	-1.010391
C56	C	1.065521	-0.452608	-1.084019
C57	C	0.975410	-0.353906	-1.080411
C58	C	0.972446	-0.350686	-1.006787
C59	C	1.016013	-0.398432	-0.971781
N60	N	1.051873	-0.437758	-0.865265
N61	N	1.012974	-0.395140	-0.896527
C62	C	1.024976	-0.408497	-0.197376
C63	C	1.021952	-0.404870	-0.119026
H64	H	0.767240	-0.494367	-0.451401
H65	H	0.760698	-0.315094	-0.288111
C66	C	0.449264	-0.538515	-0.491629
N67	N	0.481254	-0.580796	-0.530134
H68	H	0.298119	-0.338788	-0.309713
C69	C	0.294658	-0.531711	-0.485447
N70	N	0.265652	-0.571299	-0.521518
C71	C	1.137369	-0.531498	-0.642867
N72	N	1.173473	-0.571053	-0.613864
H73	H	0.966818	-0.344633	-0.779894
H74	H	0.994786	-0.855347	-0.488411
C75	C	1.162967	-0.848662	-0.356697
N76	N	1.204839	-0.827137	-0.320907
H77	H	0.924210	-0.850022	-0.417991
C78	C	0.616095	-0.294645	-0.269483
N79	N	0.584100	-0.252373	-0.230975
H80	H	0.633682	-0.488488	-0.446060
C81	C	0.441681	-0.331008	-0.302613
N82	N	0.470678	-0.291413	-0.266541
H83	H	1.146638	-0.983124	-0.364444
C84	C	1.130845	-0.853854	-0.478880
N85	N	1.148526	-0.836223	-0.535122
C86	C	1.000078	-0.990861	-0.508339
N87	N	1.015007	-1.014813	-0.565087
C88	C	0.905358	-0.984214	-0.413197
N89	N	0.848943	-1.003150	-0.398280
H90	H	0.953741	-0.971563	-0.287447
C91	C	0.948134	-0.324219	-0.635300
N92	N	0.909568	-0.281996	-0.603314
H93	H	1.045077	-0.975164	-0.265200
C94	C	1.058757	-0.841258	-0.251052
N95	N	1.096054	-0.820370	-0.210084
C96	C	0.935480	-0.835920	-0.280351
N97	N	0.879923	-0.811017	-0.261456
C98	C	0.921248	-0.294628	-0.964316
N99	N	0.882685	-0.252403	-0.932326
H100	H	1.128220	-0.987539	-0.456582
H101	H	0.939939	-0.315034	-1.108921
C102	C	1.116717	-0.508672	-1.126494
N103	N	1.155276	-0.550898	-1.158486
C104	C	1.110517	-0.501875	-0.971895
N105	N	1.146661	-0.541393	-0.942899
H106	H	1.130298	-0.523702	-0.786443
