data_functionalizedCrystal
_audit_creation_method	'MofGen! by Chris Wilmer'
_symmetry_space_group_name_H-M	'P1'
_symmetry_Int_Tables_number	1
_symmetry_cell_setting	triclinic
loop_
_symmetry_equiv_pos_as_xyz
  x,y,z
_cell_length_a	12.759401
_cell_length_b	18.050582
_cell_length_c	12.759399
_cell_angle_alpha	89.980436
_cell_angle_beta	90.015378
_cell_angle_gamma	89.985796
loop_
_atom_site_label
_atom_site_type_symbol
_atom_site_fract_x
_atom_site_fract_y
_atom_site_fract_z
Zn1	Zn	1.606182	-0.419914	-0.418326
Zn2	Zn	1.606096	-0.295730	-0.594007
Zn3	Zn	1.430505	-0.295740	-0.418343
Zn4	Zn	1.430471	-0.419880	-0.593964
O5	O	1.518314	-0.357816	-0.506160
O6	O	1.753192	-0.403451	-0.441641
O7	O	1.582781	-0.191807	-0.570729
O8	O	1.453859	-0.312229	-0.271320
O9	O	1.753128	-0.312214	-0.570713
O10	O	1.582928	-0.403460	-0.271307
O11	O	1.453775	-0.191814	-0.441670
O12	O	1.283479	-0.312197	-0.441629
O13	O	1.453802	-0.523810	-0.570640
O14	O	1.283455	-0.403403	-0.570657
O15	O	1.582896	-0.523834	-0.441600
O16	O	1.582749	-0.312181	-0.741022
O17	O	1.453718	-0.403394	-0.740991
C18	C	1.245346	-0.357798	-0.506141
C19	C	1.128570	-0.357807	-0.506158
C20	C	1.518355	-0.551522	-0.506113
C21	C	1.518372	-0.634068	-0.506093
C22	C	1.073671	-0.310239	-0.573259
C23	C	0.963947	-0.310259	-0.573277
C24	C	0.964030	-0.405417	-0.439084
C25	C	1.073752	-0.405400	-0.439073
C26	C	0.813959	-0.283594	-0.697146
C27	C	0.759057	-0.236014	-0.764237
C28	C	0.794618	-0.163525	-0.780220
C29	C	0.885080	-0.138601	-0.729096
C30	C	0.939977	-0.186177	-0.661997
C31	C	0.904417	-0.258676	-0.646034
C32	C	1.223741	-0.432057	-0.315202
C33	C	1.278640	-0.479630	-0.248097
C34	C	1.243081	-0.552120	-0.232103
C35	C	1.152615	-0.577042	-0.283208
C36	C	1.097717	-0.529469	-0.350313
C37	C	1.133283	-0.456980	-0.366309
C38	C	1.448225	-0.833505	-0.576170
C39	C	1.544083	-0.882896	-0.601851
C40	C	1.518424	-0.785198	-0.506013
C41	C	1.422618	-0.882888	-0.480303
C42	C	1.518466	-0.931183	-0.505938
C43	C	1.614333	-0.833502	-0.531745
C44	C	1.492803	-0.833490	-0.410152
C45	C	1.588728	-0.882859	-0.435797
C46	C	1.518399	-0.701100	-0.506059
C47	C	1.518502	-1.015280	-0.505891
C48	C	1.792347	-0.357835	-0.506180
C49	C	1.909123	-0.357843	-0.506188
C50	C	1.518249	-0.357799	-0.779127
C51	C	1.518318	-0.357817	-0.895904
C52	C	1.518333	-0.164864	-0.506130
C53	C	1.518519	-0.082319	-0.505854
C54	C	1.585581	-0.310376	-0.950747
C55	C	1.585648	-0.310401	-1.060471
C56	C	1.451181	-0.405309	-1.060499
C57	C	1.451119	-0.405287	-0.950777
C58	C	1.709662	-0.283975	-1.210342
C59	C	1.776915	-0.236523	-1.265189
C60	C	1.793092	-0.164062	-1.229628
C61	C	1.742000	-0.139038	-1.139223
C62	C	1.674738	-0.186486	-1.084381
C63	C	1.658582	-0.258957	-1.119940
C64	C	1.327104	-0.431706	-0.800904
C65	C	1.259837	-0.479151	-0.746061
C66	C	1.243649	-0.551613	-0.781619
C67	C	1.294723	-0.576634	-0.872028
C68	C	1.361991	-0.529189	-0.926872
C69	C	1.378180	-0.456728	-0.891306
C70	C	1.518407	-0.357849	-0.232127
C71	C	1.518447	-0.357863	-0.115350
H72	H	1.118300	-0.271487	-0.627886
H73	H	0.914020	-0.079569	-0.742106
H74	H	1.403582	-0.549569	-1.000485
N75	N	1.716028	-0.806422	-0.559123
N76	N	1.788507	-0.850943	-0.578559
H77	H	1.860328	-0.831817	-0.597900
H78	H	1.847853	-0.125426	-1.274292
N79	N	1.343663	-0.357696	-0.764541
N80	N	1.298065	-0.335369	-0.683811
H81	H	1.309765	-0.283102	-0.658121
N82	N	1.663288	-0.909876	-0.361311
N83	N	1.654585	-0.893091	-0.266676
H84	H	1.707245	-0.912172	-0.214072
H85	H	1.755168	-0.080030	-1.110283
N86	N	1.693125	-0.357996	-1.246656
N87	N	1.633072	-0.400355	-1.197682
H88	H	1.621389	-0.452634	-1.223332
N89	N	1.622571	-0.160925	-0.992034
N90	N	1.674864	-0.139341	-0.915028
H91	H	1.638027	-0.121287	-0.849802
N92	N	1.116278	-0.651091	-0.266898
N93	N	1.035507	-0.673332	-0.312537
H94	H	1.009844	-0.725630	-0.301015
H95	H	1.565779	-0.904598	-0.682887
H96	H	0.919384	-0.444164	-0.384464
N97	N	1.032368	-0.160713	-0.609778
N98	N	1.064106	-0.095983	-0.624046
H99	H	1.129361	-0.077997	-0.587170
N100	N	0.738546	-0.114911	-0.848741
N101	N	0.701269	-0.055681	-0.814313
H102	H	0.661666	-0.021349	-0.862707
H103	H	1.471080	-0.811772	-0.329140
H104	H	1.396469	-0.443957	-1.105190
H105	H	1.341579	-0.904582	-0.458589
H106	H	1.818515	-0.256904	-1.338797
H107	H	1.281543	-0.635639	-0.900981
N108	N	1.174923	-0.600066	-0.725592
N109	N	1.129315	-0.577720	-0.644879
H110	H	1.080780	-0.611940	-0.605311
H111	H	1.218256	-0.458774	-0.672440
H112	H	1.640299	-0.271724	-0.906072
H113	H	0.785004	-0.342623	-0.684149
N114	N	0.666656	-0.261482	-0.816447
N115	N	0.634919	-0.326212	-0.802181
H116	H	0.569658	-0.344196	-0.839050
H117	H	1.024046	-0.549763	-0.391915
H118	H	1.287783	-0.590850	-0.177448
N119	N	1.371037	-0.454159	-0.195885
N120	N	1.402781	-0.389433	-0.210172
H121	H	1.468034	-0.371443	-0.173296
N122	N	1.373809	-0.806306	-0.650670
N123	N	1.279139	-0.823016	-0.642041
H124	H	1.226586	-0.803804	-0.694656
N125	N	1.260083	-0.358010	-0.331532
N126	N	1.340848	-0.335766	-0.285885
H127	H	1.366515	-0.283469	-0.297412
