data_functionalizedCrystal
_audit_creation_method	'MofGen! by Chris Wilmer'
_symmetry_space_group_name_H-M	'P1'
_symmetry_Int_Tables_number	1
_symmetry_cell_setting	triclinic
loop_
_symmetry_equiv_pos_as_xyz
  x,y,z
_cell_length_a	16.109318
_cell_length_b	14.853559
_cell_length_c	13.330367
_cell_angle_alpha	89.992841
_cell_angle_beta	90.003321
_cell_angle_gamma	83.550009
loop_
_atom_site_label
_atom_site_type_symbol
_atom_site_fract_x
_atom_site_fract_y
_atom_site_fract_z
O1	O	1.103287	0.115943	0.083335
O2	O	1.603287	0.615943	0.583335
O3	O	0.861247	0.130348	0.083355
O4	O	1.361247	0.630348	0.583355
O5	O	0.988736	-0.008095	0.083343
O6	O	1.488736	0.491905	0.583343
O7	O	0.975798	0.254386	0.083347
O8	O	1.475798	0.754386	0.583347
O9	O	0.988716	-0.008072	-0.083504
O10	O	1.488716	0.491928	0.416496
O11	O	0.861227	0.130371	-0.083492
O12	O	1.361227	0.630371	0.416508
O13	O	1.103267	0.115966	-0.083512
O14	O	1.603267	0.615966	0.416488
Cu15	Cu	0.982245	0.123170	-0.098737
Cu16	Cu	1.482245	0.623170	0.401263
Cu17	Cu	0.982268	0.123144	0.098579
Cu18	Cu	1.482268	0.623144	0.598579
O19	O	0.975778	0.254409	-0.083501
O20	O	1.475778	0.754409	0.416499
C21	C	0.830261	0.129773	-0.000066
C22	C	1.330261	0.629773	0.499934
C23	C	0.737964	0.128016	-0.000058
C24	C	1.237964	0.628016	0.499942
C25	C	0.438894	0.122327	0.090872
C26	C	0.938894	0.622327	0.590872
C27	C	0.525617	0.123972	0.090878
C28	C	1.025617	0.623972	0.590878
C29	C	0.525615	0.123984	-0.091028
C30	C	1.025615	0.623984	0.408972
C31	C	0.438893	0.122332	-0.091033
C32	C	0.938893	0.622332	0.408967
C33	C	0.395535	0.121508	-0.000080
C34	C	0.895535	0.621508	0.499920
C35	C	0.568979	0.124806	-0.000069
C36	C	1.068979	0.624806	0.499931
C37	C	0.663009	0.126590	-0.000063
C38	C	1.163009	0.626590	0.499937
C39	C	0.301499	0.119722	-0.000085
C40	C	0.801499	0.619722	0.499915
C41	C	0.988141	-0.041671	-0.000078
C42	C	1.488141	0.458329	0.499922
C43	C	0.986388	-0.141753	-0.000073
C44	C	1.486388	0.358247	0.499927
C45	C	0.978962	-0.564928	0.090877
C46	C	1.478962	-0.064928	0.590877
C47	C	0.978941	-0.564899	-0.091027
C48	C	1.478941	-0.064899	0.408973
C49	C	0.980595	-0.470868	-0.091028
C50	C	1.480595	0.029132	0.408972
C51	C	0.981431	-0.423863	-0.000075
C52	C	1.481431	0.076137	0.499925
C53	C	0.980614	-0.470888	0.090878
C54	C	1.480614	0.029112	0.590878
C55	C	0.981404	-0.423834	-0.181979
C56	C	1.481404	0.076166	0.318021
C57	C	0.983057	-0.329798	-0.181984
C58	C	1.483057	0.170202	0.318016
C59	C	0.983899	-0.282792	-0.091030
C60	C	1.483899	0.217208	0.408970
C61	C	0.983083	-0.329823	-0.000073
C62	C	1.483083	0.170177	0.499927
C63	C	0.983919	-0.282818	0.090879
C64	C	1.483919	0.217182	0.590879
C65	C	0.983109	-0.329849	0.181837
C66	C	1.483109	0.170151	0.681837
C67	C	0.981456	-0.423882	0.181832
C68	C	1.481456	0.076118	0.681832
C69	C	0.985552	-0.188758	-0.091025
C70	C	1.485552	0.311242	0.408975
C71	C	0.985571	-0.188778	0.090881
C72	C	1.485571	0.311222	0.590881
C73	C	1.134252	0.116541	-0.000089
C74	C	1.634252	0.616541	0.499911
C75	C	1.226549	0.118298	-0.000090
C76	C	1.726549	0.618298	0.499910
C77	C	0.976373	0.287985	-0.000077
C78	C	1.476373	0.787985	0.499923
C79	C	0.978126	0.388067	-0.000076
C80	C	1.478126	0.888067	0.499924
N81	N	0.982235	0.123188	-0.237518
N82	N	1.482235	0.623188	0.262482
C83	C	1.032762	0.177827	-0.710134
C84	C	1.532762	0.677827	-0.210134
C85	C	0.931800	0.068424	-0.710116
C86	C	1.431800	0.568424	-0.210116
C87	C	0.931788	0.068438	-0.605098
C88	C	1.431788	0.568438	-0.105098
C89	C	0.982265	0.123147	-0.552593
C90	C	1.482265	0.623147	-0.052593
C91	C	1.032754	0.177841	-0.605106
C92	C	1.532754	0.677841	-0.105106
C93	C	0.881306	0.013738	-0.552576
C94	C	1.381306	0.513738	-0.052576
C95	C	0.881292	0.013749	-0.447552
C96	C	1.381292	0.513749	0.052448
C97	C	0.931765	0.068463	-0.395045
C98	C	1.431765	0.568463	0.104955
C99	C	0.982256	0.123160	-0.447565
C100	C	1.482256	0.623160	0.052435
C101	C	1.032733	0.177869	-0.395060
C102	C	1.532733	0.677869	0.104940
C103	C	1.083219	0.232572	-0.447578
C104	C	1.583219	0.732572	0.052422
C105	C	1.083227	0.232555	-0.552599
C106	C	1.583227	0.732555	-0.052599
C107	C	0.931758	0.068480	-0.290023
C108	C	1.431758	0.568480	0.209977
C109	C	1.032724	0.177882	-0.290032
C110	C	1.532724	0.677882	0.209968
N111	N	0.982285	0.123119	0.237361
N112	N	1.482285	0.623119	0.737361
H113	H	0.986256	-0.150514	0.164947
H114	H	1.486256	0.349486	0.664947
H115	H	0.980795	-0.462183	0.255885
H116	H	1.480795	0.037817	0.755885
F117	F	1.086445	0.236117	-0.234160
F118	F	1.586445	0.736117	0.265840
F119	F	0.878044	0.010251	-0.234134
F120	F	1.378044	0.510251	0.265866
H121	H	0.978254	-0.603175	-0.165076
H122	H	1.478254	-0.103175	0.334924
F123	F	0.986412	-0.138708	-0.187822
F124	F	1.486412	0.361292	0.312178
H125	H	1.124332	0.277089	-0.595369
H126	H	1.624332	0.777089	-0.095369
F127	F	0.983916	-0.279752	-0.278788
F128	F	1.483916	0.220248	0.221212
F129	F	0.571760	0.124840	0.187682
F130	F	1.071760	0.624840	0.687682
H131	H	1.124321	0.277111	-0.404814
H132	H	1.624321	0.777111	0.095186
H133	H	0.403593	0.121655	0.164932
H134	H	0.903593	0.621655	0.664932
H135	H	0.983783	-0.291564	0.255891
H136	H	1.483783	0.208436	0.755891
F137	F	0.571766	0.124868	-0.187821
F138	F	1.071766	0.624868	0.312179
H139	H	0.403590	0.121665	-0.165101
H140	H	0.903590	0.621665	0.334899
H141	H	0.978306	-0.603225	0.164933
H142	H	1.478306	-0.103225	0.664933
F143	F	0.980497	-0.473862	-0.278770
F144	F	1.480497	0.026138	0.221230
F145	F	1.086486	0.236049	-0.766027
F146	F	1.586486	0.736049	-0.266027
F147	F	0.878084	0.010201	-0.765998
F148	F	1.378084	0.510201	-0.265998
F149	F	0.827588	-0.044482	-0.608460
F150	F	1.327588	0.455518	-0.108460
F151	F	0.827550	-0.044458	-0.391667
F152	F	1.327550	0.455542	0.108333
