data_functionalizedCrystal
_audit_creation_method	'MofGen! by Chris Wilmer'
_symmetry_space_group_name_H-M	'P1'
_symmetry_Int_Tables_number	1
_symmetry_cell_setting	triclinic
loop_
_symmetry_equiv_pos_as_xyz
  x,y,z
_cell_length_a	9.065218
_cell_length_b	12.837942
_cell_length_c	7.540329
_cell_angle_alpha	89.996889
_cell_angle_beta	89.996962
_cell_angle_gamma	89.922413
loop_
_atom_site_label
_atom_site_type_symbol
_atom_site_fract_x
_atom_site_fract_y
_atom_site_fract_z
O1	O	1.978903	0.152196	-0.147486
O2	O	1.551136	0.164680	-0.147489
O3	O	1.755535	0.007446	-0.147477
O4	O	1.774505	0.309430	-0.147498
O5	O	1.755521	0.007444	0.147488
O6	O	1.551123	0.164678	0.147476
O7	O	1.978890	0.152194	0.147479
Cu8	Cu	1.765005	0.158436	0.174410
Cu9	Cu	1.765021	0.158438	-0.174420
O10	O	1.774491	0.309428	0.147467
C11	C	1.495997	0.163479	-0.000007
C12	C	1.331718	0.159892	-0.000007
C13	C	1.749119	-0.031235	0.000005
C14	C	1.730006	-0.146492	0.000002
C15	C	1.959783	-0.385293	-0.000034
C16	C	1.941831	-0.493587	-0.000037
C17	C	1.676152	-0.471377	-0.000020
C18	C	1.694104	-0.363083	-0.000017
C19	C	1.835924	-0.320045	-0.000021
C20	C	1.853874	-0.211748	-0.000006
C21	C	1.588196	-0.189540	-0.000001
C22	C	1.570245	-0.297835	-0.000004
C23	C	2.034029	0.153395	-0.000007
C24	C	2.198308	0.156983	-0.000018
C25	C	1.780907	0.348110	-0.000019
C26	C	1.800020	0.463366	-0.000027
N27	N	1.765004	0.158434	0.419759
N28	N	1.765032	0.158433	-0.419769
H29	H	2.075258	-0.350251	-0.000020
O30	O	1.538372	-0.513150	-0.000348
C31	C	1.461941	-0.479902	-0.153089
H32	H	1.544605	-0.456609	-0.259852
H33	H	1.389514	-0.410130	-0.118540
C34	C	1.263094	-0.597912	-0.091257
C35	C	1.364624	-0.569311	-0.222391
H36	H	1.203058	-0.653060	-0.134003
H37	H	1.314583	-0.620309	0.011651
H38	H	1.202753	-0.539761	-0.062479
H39	H	1.424974	-0.627458	-0.251151
H40	H	1.313142	-0.546925	-0.325306
H41	H	1.454779	-0.332891	-0.000008
O42	O	1.467913	-0.126116	-0.000308
C43	C	1.470362	-0.062780	-0.153043
H44	H	1.540336	-0.101707	-0.259827
H45	H	1.519650	0.016310	-0.118498
C46	C	1.225991	-0.000039	-0.091146
C47	C	1.311924	-0.047854	-0.222305
H48	H	1.128259	0.009173	-0.133868
H49	H	1.224342	-0.042706	0.011758
H50	H	1.267081	0.065864	-0.062371
H51	H	1.270844	-0.113761	-0.251062
H52	H	1.313563	-0.005197	-0.325217
H53	H	1.969351	-0.176709	-0.000002
H54	H	2.042690	-0.546709	-0.000053
