data_functionalizedCrystal
_audit_creation_method	'MofGen! by Chris Wilmer'
_symmetry_space_group_name_H-M	'P1'
_symmetry_Int_Tables_number	1
_symmetry_cell_setting	triclinic
loop_
_symmetry_equiv_pos_as_xyz
  x,y,z
_cell_length_a	12.759401
_cell_length_b	13.897448
_cell_length_c	12.759393
_cell_angle_alpha	89.966654
_cell_angle_beta	89.981504
_cell_angle_gamma	90.017853
loop_
_atom_site_label
_atom_site_type_symbol
_atom_site_fract_x
_atom_site_fract_y
_atom_site_fract_z
Zn1	Zn	1.606234	-0.383954	-0.593968
Zn2	Zn	2.106234	0.116046	-0.093968
Zn3	Zn	1.606119	-0.545283	-0.418283
Zn4	Zn	2.106119	-0.045283	0.081717
Zn5	Zn	1.430536	-0.384004	-0.418308
Zn6	Zn	1.930536	0.115996	0.081692
Zn7	Zn	1.430515	-0.545209	-0.593924
Zn8	Zn	1.930515	-0.045209	-0.093924
O9	O	1.518351	-0.464613	-0.506121
O10	O	2.018351	0.035387	-0.006121
O11	O	1.753239	-0.405365	-0.570671
O12	O	2.253239	0.094635	-0.070671
O13	O	1.582788	-0.523942	-0.271265
O14	O	2.082788	-0.023942	0.228735
O15	O	1.453899	-0.249016	-0.441638
O16	O	1.953899	0.250984	0.058362
O17	O	1.753155	-0.523893	-0.441596
O18	O	2.253155	-0.023893	0.058404
O19	O	1.582983	-0.248979	-0.570695
O20	O	2.082983	0.251021	-0.070695
O21	O	1.453788	-0.405451	-0.271283
O22	O	1.953788	0.094549	0.228717
O23	O	1.283512	-0.405379	-0.441596
O24	O	1.783512	0.094621	0.058404
O25	O	1.453864	-0.523766	-0.740951
O26	O	1.953864	-0.023766	-0.240951
O27	O	1.283497	-0.523815	-0.570621
O28	O	1.783497	-0.023815	-0.070621
O29	O	1.582964	-0.405293	-0.740984
O30	O	2.082964	0.094707	-0.240984
O31	O	1.582768	-0.680255	-0.441554
O32	O	2.082768	-0.180255	0.058446
O33	O	1.453753	-0.680201	-0.570597
O34	O	1.953753	-0.180201	-0.070597
C35	C	1.245383	-0.464595	-0.506107
C36	C	1.745383	0.035405	-0.006107
C37	C	1.128607	-0.464611	-0.506125
C38	C	1.628607	0.035389	-0.006125
C39	C	1.073764	-0.526379	-0.573198
C40	C	1.573764	-0.026379	-0.073198
C41	C	0.964040	-0.526391	-0.573209
C42	C	1.464040	-0.026391	-0.073209
C43	C	0.964011	-0.402864	-0.439067
C44	C	1.464011	0.097136	0.060933
C45	C	1.073733	-0.402847	-0.439062
C46	C	1.573733	0.097153	0.060938
C47	C	1.128638	-0.588142	-0.640261
C48	C	1.628638	-0.088142	-0.140261
C49	C	1.073796	-0.649917	-0.707338
C50	C	1.573796	-0.149917	-0.207338
C51	C	0.964072	-0.649929	-0.707349
C52	C	1.464072	-0.149929	-0.207349
C53	C	0.909190	-0.588167	-0.640284
C54	C	1.409190	-0.088167	-0.140284
C55	C	1.518274	-0.715227	-0.506090
C56	C	2.018274	-0.215227	-0.006090
C57	C	1.518337	-0.822441	-0.506113
C58	C	2.018337	-0.322441	-0.006113
C59	C	1.518448	-1.018736	-0.506178
C60	C	2.018448	-0.518736	-0.006178
C61	C	1.518383	-0.909503	-0.506145
C62	C	2.018383	-0.409503	-0.006145
C63	C	1.792384	-0.464631	-0.506136
C64	C	2.292384	0.035369	-0.006136
C65	C	1.909161	-0.464639	-0.506142
C66	C	2.409161	0.035361	-0.006142
C67	C	1.518424	-0.464515	-0.780154
C68	C	2.018424	0.035485	-0.280154
C69	C	1.518456	-0.464474	-0.896931
C70	C	2.018456	0.035526	-0.396931
C71	C	1.518456	-0.213020	-0.506174
C72	C	2.018456	0.286980	-0.006174
C73	C	1.518501	-0.105806	-0.506197
C74	C	2.018501	0.394194	-0.006197
C75	C	1.585687	-0.402779	-0.951812
C76	C	2.085687	0.097221	-0.451812
C77	C	1.585712	-0.402744	-1.061536
C78	C	2.085712	0.097256	-0.561536
C79	C	1.451271	-0.526107	-1.061489
C80	C	1.951271	-0.026107	-0.561489
C81	C	1.451242	-0.526137	-0.951767
C82	C	1.951242	-0.026137	-0.451767
C83	C	1.652901	-0.341116	-0.896976
C84	C	2.152901	0.158884	-0.396976
C85	C	1.720139	-0.279417	-0.951856
C86	C	2.220139	0.220583	-0.451856
C87	C	1.720164	-0.279382	-1.061580
C88	C	2.220164	0.220618	-0.561580
C89	C	1.652951	-0.341046	-1.116424
C90	C	2.152951	0.158954	-0.616424
C91	C	1.518338	-0.464640	-0.233154
C92	C	2.018338	0.035360	0.266846
C93	C	1.518510	-0.464410	-0.116377
C94	C	2.018510	0.035590	0.383623
H95	H	0.819845	-0.588173	-0.640308
H96	H	1.319845	-0.088173	-0.140308
H97	H	1.396480	-0.576359	-0.907082
H98	H	1.896480	-0.076359	-0.407082
O99	O	1.126971	-0.342958	-0.373752
O100	O	1.626971	0.157042	0.126248
C101	C	1.100101	-0.363918	-0.269002
C102	C	1.600101	0.136082	0.230998
H103	H	1.069914	-0.440972	-0.263556
H104	H	1.569914	0.059028	0.236444
H105	H	1.172245	-0.355553	-0.217114
H106	H	1.672245	0.144447	0.282886
H107	H	1.036419	-0.312177	-0.241634
H108	H	1.536419	0.187823	0.258366
H109	H	0.919422	-0.700221	-0.761974
H110	H	1.419422	-0.200221	-0.261974
H111	H	1.652964	-0.341002	-1.205769
H112	H	2.152964	0.158998	-0.705769
H113	H	1.217981	-0.588141	-0.640258
H114	H	1.717981	-0.088141	-0.140258
H115	H	1.774854	-0.229206	-0.907196
H116	H	2.274854	0.270794	-0.407196
O117	O	1.386044	-0.586145	-1.114645
O118	O	1.886044	-0.086145	-0.614645
C119	C	1.408975	-0.682291	-1.087822
C120	C	1.908975	-0.182291	-0.587822
H121	H	1.449338	-0.684313	-1.008156
H122	H	1.949338	-0.184313	-0.508156
H123	H	1.333133	-0.725541	-1.084053
H124	H	1.833133	-0.225541	-0.584053
H125	H	1.462997	-0.714767	-1.149565
H126	H	1.962997	-0.214767	-0.649565
O127	O	0.910539	-0.342973	-0.373947
O128	O	1.410539	0.157027	0.126053
C129	C	0.801936	-0.356220	-0.388349
C130	C	1.301936	0.143780	0.111651
H131	H	0.786955	-0.430697	-0.422624
H132	H	1.286955	0.069303	0.077376
H133	H	0.760209	-0.349609	-0.309666
H134	H	1.260209	0.150391	0.190334
H135	H	0.770823	-0.299067	-0.444402
H136	H	1.270823	0.200933	0.055598
H137	H	1.118488	-0.700195	-0.761947
H138	H	1.618488	-0.200195	-0.261947
H139	H	1.652890	-0.341139	-0.807633
H140	H	2.152890	0.158861	-0.307633
H141	H	1.774904	-0.229136	-1.106261
H142	H	2.274904	0.270864	-0.606261
