data_functionalizedCrystal
_audit_creation_method	'MofGen! by Chris Wilmer'
_symmetry_space_group_name_H-M	'P1'
_symmetry_Int_Tables_number	1
_symmetry_cell_setting	triclinic
loop_
_symmetry_equiv_pos_as_xyz
  x,y,z
_cell_length_a	12.759401
_cell_length_b	18.050589
_cell_length_c	12.759401
_cell_angle_alpha	90.006500
_cell_angle_beta	90.002448
_cell_angle_gamma	90.028382
loop_
_atom_site_label
_atom_site_type_symbol
_atom_site_fract_x
_atom_site_fract_y
_atom_site_fract_z
Zn1	Zn	1.605990	-0.295789	0.593988
Zn2	Zn	1.605892	-0.419947	0.418311
Zn3	Zn	1.430341	-0.295776	0.418327
Zn4	Zn	1.430239	-0.419942	0.593952
O5	O	1.518116	-0.357864	0.506145
O6	O	1.752998	-0.312267	0.570692
O7	O	1.582607	-0.403472	0.271292
O8	O	1.453725	-0.191853	0.441651
O9	O	1.752926	-0.403485	0.441623
O10	O	1.582774	-0.191863	0.570708
O11	O	1.453630	-0.312244	0.271304
O12	O	1.283307	-0.312239	0.441616
O13	O	1.453551	-0.403477	0.740978
O14	O	1.283232	-0.403464	0.570647
O15	O	1.582675	-0.312262	0.741004
O16	O	1.582508	-0.523871	0.441588
O17	O	1.453456	-0.523868	0.570631
C18	C	1.245148	-0.357850	0.506130
C19	C	1.128372	-0.357862	0.506149
C20	C	1.073498	-0.405439	0.573224
C21	C	0.963774	-0.405448	0.573236
C22	C	0.963807	-0.310302	0.439088
C23	C	1.073529	-0.310290	0.439082
C24	C	1.128341	-0.453011	0.640291
C25	C	1.073467	-0.500592	0.707371
C26	C	0.963743	-0.500602	0.707382
C27	C	0.908893	-0.453030	0.640314
C28	C	1.517989	-0.550816	0.506127
C29	C	1.518031	-0.633362	0.506155
C30	C	1.447922	-0.832837	0.576304
C31	C	1.422334	-0.882257	0.480436
C32	C	1.518134	-0.784492	0.506168
C33	C	1.543773	-0.882153	0.602048
C34	C	1.518232	-0.930477	0.506190
C35	C	1.492496	-0.832825	0.410249
C36	C	1.613980	-0.832717	0.531926
C37	C	1.588429	-0.882114	0.435992
C38	C	1.518075	-0.700394	0.506157
C39	C	1.518291	-1.014574	0.506190
C40	C	1.792149	-0.357878	0.506159
C41	C	1.908926	-0.357884	0.506166
C42	C	1.518113	-0.357870	0.780178
C43	C	1.518111	-0.357873	0.896954
C44	C	1.518272	-0.164158	0.506185
C45	C	1.518338	-0.081612	0.506202
C46	C	1.450886	-0.405369	1.061529
C47	C	1.450883	-0.405365	0.951805
C48	C	1.585338	-0.310378	0.951833
C49	C	1.585335	-0.310379	1.061555
C50	C	1.383661	-0.452869	1.116375
C51	C	1.316432	-0.500364	1.061503
C52	C	1.316429	-0.500359	0.951779
C53	C	1.383656	-0.452860	0.896926
C54	C	1.518110	-0.357876	1.233177
C55	C	1.518110	-0.357879	1.116401
H56	H	1.118208	-0.271543	0.384472
F57	F	0.905428	-0.259678	0.367712
F58	F	1.245119	-0.453007	0.640281
F59	F	1.244881	-0.550907	1.119883
H60	H	1.383646	-0.452858	0.807582
F61	F	1.370202	-0.804553	0.653719
F62	F	1.656877	-0.259827	0.893452
H63	H	1.470756	-0.811247	0.329152
H64	H	1.341327	-0.904035	0.458669
H65	H	1.383657	-0.452879	1.205717
F66	F	1.666095	-0.910218	0.358394
H67	H	1.694969	-0.810941	0.553739
H68	H	1.261680	-0.539025	0.907106
H69	H	1.118134	-0.539318	0.761982
F70	F	1.656860	-0.259819	1.119957
H71	H	1.565420	-0.903821	0.683123
F72	F	0.905346	-0.551235	0.778781
H73	H	0.819548	-0.453035	0.640338
