data_functionalizedCrystal
_audit_creation_method	'MofGen! by Chris Wilmer'
_symmetry_space_group_name_H-M	'P1'
_symmetry_Int_Tables_number	1
_symmetry_cell_setting	triclinic
loop_
_symmetry_equiv_pos_as_xyz
  x,y,z
_cell_length_a	17.077404
_cell_length_b	13.897448
_cell_length_c	17.077396
_cell_angle_alpha	89.972632
_cell_angle_beta	89.980499
_cell_angle_gamma	90.017917
loop_
_atom_site_label
_atom_site_type_symbol
_atom_site_fract_x
_atom_site_fract_y
_atom_site_fract_z
Zn1	Zn	1.200083	-0.384009	-0.443849
Zn2	Zn	1.200002	-0.545322	-0.312585
Zn3	Zn	1.068815	-0.384043	-0.312597
Zn4	Zn	1.068795	-0.545264	-0.443809
O5	O	1.134424	-0.464660	-0.378210
O6	O	1.309919	-0.405417	-0.426448
O7	O	1.182574	-0.523966	-0.202740
O8	O	1.086270	-0.249057	-0.330029
O9	O	1.309860	-0.523933	-0.330010
O10	O	1.182712	-0.249032	-0.426459
O11	O	1.086192	-0.405475	-0.202748
O12	O	0.958965	-0.405420	-0.329990
O13	O	1.086236	-0.523835	-0.553661
O14	O	0.958950	-0.523868	-0.426391
O15	O	1.182693	-0.405362	-0.553690
O16	O	1.182555	-0.680296	-0.329971
O17	O	1.086157	-0.680254	-0.426380
C18	C	0.930476	-0.464642	-0.378188
C19	C	0.843226	-0.464658	-0.378198
C20	C	1.134366	-0.715274	-0.378187
C21	C	1.134414	-0.822488	-0.378204
C22	C	0.802249	-0.526427	-0.428313
C23	C	0.720268	-0.526429	-0.428326
C24	C	0.679267	-0.464666	-0.378218
C25	C	0.720250	-0.402890	-0.328100
C26	C	0.802229	-0.402884	-0.328092
C27	C	0.549380	-0.402909	-0.328119
C28	C	0.467395	-0.402916	-0.328126
C29	C	0.467419	-0.526454	-0.428353
C30	C	0.549398	-0.526448	-0.428345
C31	C	0.590376	-0.464673	-0.378226
C32	C	1.134496	-1.018783	-0.378253
C33	C	1.134448	-0.909550	-0.378228
C34	C	1.339168	-0.464678	-0.378232
C35	C	1.426418	-0.464686	-0.378242
C36	C	1.134471	-0.464588	-0.582954
C37	C	1.134491	-0.464558	-0.670204
C38	C	1.134502	-0.213067	-0.378250
C39	C	1.134536	-0.105853	-0.378267
C40	C	1.184718	-0.402864	-0.711211
C41	C	1.184728	-0.402832	-0.793191
C42	C	1.134514	-0.464500	-0.834164
C43	C	1.084281	-0.526197	-0.793151
C44	C	1.084268	-0.526223	-0.711172
C45	C	1.084313	-0.526139	-0.964021
C46	C	1.084326	-0.526114	-1.046006
C47	C	1.184772	-0.402747	-1.046040
C48	C	1.184759	-0.402774	-0.964061
C49	C	1.134528	-0.464472	-0.923055
C50	C	1.134421	-0.464661	-0.174262
C51	C	1.134553	-0.464419	-0.087013
H52	H	0.835626	-0.576725	-0.469114
H53	H	0.686908	-0.576729	-0.469134
C54	C	0.422961	-0.335908	-0.273616
C55	C	0.442859	-0.356740	-0.195908
C56	C	0.401943	-0.295022	-0.145678
H57	H	0.368260	-0.344714	-0.280705
H58	H	0.436423	-0.271099	-0.285159
H59	H	0.429392	-0.421533	-0.184368
H60	H	0.497553	-0.347928	-0.188793
H61	H	0.415405	-0.230213	-0.157221
H62	H	0.347244	-0.303833	-0.152775
H63	H	0.415443	-0.309142	-0.092948
H64	H	1.043393	-0.576404	-0.826517
C65	C	1.029717	-0.593326	-0.666789
C66	C	0.985764	-0.647352	-0.720215
C67	C	0.935511	-0.709190	-0.679359
H68	H	0.995449	-0.556553	-0.634802
H69	H	1.059718	-0.635416	-0.634829
H70	H	0.955765	-0.605268	-0.752162
H71	H	1.020011	-0.684145	-0.752204
H72	H	0.965512	-0.751279	-0.647399
H73	H	0.901248	-0.672409	-0.647373
H74	H	0.905688	-0.745860	-0.715602
H75	H	0.582741	-0.352597	-0.287314
H76	H	0.686860	-0.352597	-0.287305
C77	C	1.239141	-0.335745	-0.919484
C78	C	1.194692	-0.273952	-0.872419
C79	C	1.244757	-0.212189	-0.831340
H80	H	1.269067	-0.298903	-0.955564
H81	H	1.273321	-0.372613	-0.887452
H82	H	1.160526	-0.237087	-0.904449
H83	H	1.164768	-0.310767	-0.836325
H84	H	1.278937	-0.249056	-0.799307
H85	H	1.274680	-0.175353	-0.867425
H86	H	1.214606	-0.170261	-0.799396
H87	H	0.582779	-0.576746	-0.469142
C88	C	0.422792	-0.593416	-0.482743
C89	C	0.342223	-0.580183	-0.472046
C90	C	0.301085	-0.641843	-0.522140
H91	H	0.436112	-0.658246	-0.471209
H92	H	0.436211	-0.579374	-0.535520
H93	H	0.328809	-0.594233	-0.419281
H94	H	0.328879	-0.515366	-0.483586
H95	H	0.314504	-0.627800	-0.574917
H96	H	0.314411	-0.706669	-0.510601
H97	H	0.246415	-0.632867	-0.514894
H98	H	0.835591	-0.352580	-0.287287
C99	C	1.239141	-0.335745	-0.666773
C100	C	1.222064	-0.240300	-0.686716
C101	C	1.272174	-0.178439	-0.645791
H102	H	1.291909	-0.349732	-0.680183
H103	H	1.231937	-0.344528	-0.612068
H104	H	1.229275	-0.231521	-0.741409
H105	H	1.169305	-0.226283	-0.673304
H106	H	1.264970	-0.187222	-0.591086
H107	H	1.324939	-0.192434	-0.659204
H108	H	1.260590	-0.113673	-0.659311
H109	H	1.225629	-0.352596	-0.826575
C110	C	1.239172	-0.335625	-1.090594
C111	C	1.194749	-0.273758	-1.137637
C112	C	1.244833	-0.211905	-1.178684
H113	H	1.273386	-0.372394	-1.122644
H114	H	1.269061	-0.298850	-1.054472
H115	H	1.164874	-0.310529	-1.173755
H116	H	1.160537	-0.236967	-1.105607
H117	H	1.274722	-0.175130	-1.142562
H118	H	1.279044	-0.248682	-1.210729
H119	H	1.214699	-0.169915	-1.210601
C120	C	1.029762	-0.593251	-0.919640
C121	C	0.985812	-0.647281	-0.973066
C122	C	0.935571	-0.709133	-0.932210
H123	H	0.995491	-0.556487	-0.887648
H124	H	1.059771	-0.635336	-0.887684
H125	H	0.955805	-0.605200	-1.005008
H126	H	1.020062	-0.684064	-1.005059
H127	H	0.965580	-0.751218	-0.900254
H128	H	0.901305	-0.672361	-0.900219
H129	H	0.905750	-0.745806	-0.968453
C130	C	1.029929	-0.593167	-1.090540
C131	C	1.074354	-0.655003	-1.137591
C132	C	1.024268	-0.716788	-1.178622
H133	H	0.995740	-0.556348	-1.122582
H134	H	1.000015	-0.629969	-1.054408
H135	H	1.104255	-0.618205	-1.173719
H136	H	1.108541	-0.691843	-1.105569
H137	H	0.994354	-0.753590	-1.142490
H138	H	0.990081	-0.679961	-1.210659
H139	H	1.054403	-0.758756	-1.210545
