data_functionalizedCrystal
_audit_creation_method	'MofGen! by Chris Wilmer'
_symmetry_space_group_name_H-M	'P1'
_symmetry_Int_Tables_number	1
_symmetry_cell_setting	triclinic
loop_
_symmetry_equiv_pos_as_xyz
  x,y,z
_cell_length_a	12.759401
_cell_length_b	18.050589
_cell_length_c	18.050583
_cell_angle_alpha	90.031910
_cell_angle_beta	90.014203
_cell_angle_gamma	90.029746
loop_
_atom_site_label
_atom_site_type_symbol
_atom_site_fract_x
_atom_site_fract_y
_atom_site_fract_z
Zn1	Zn	1.606098	-0.295576	0.419899
Zn2	Zn	1.605968	-0.419789	0.295719
Zn3	Zn	1.430417	-0.295621	0.295727
Zn4	Zn	1.430347	-0.419732	0.419871
O5	O	1.518208	-0.357679	0.357804
O6	O	1.753102	-0.312058	0.403434
O7	O	1.582656	-0.403360	0.191795
O8	O	1.453805	-0.191690	0.312214
O9	O	1.753006	-0.403317	0.312200
O10	O	1.582877	-0.191657	0.403443
O11	O	1.453680	-0.312134	0.191801
O12	O	1.283387	-0.312079	0.312187
O13	O	1.453686	-0.403220	0.523799
O14	O	1.283335	-0.403263	0.403395
O15	O	1.582809	-0.312003	0.523820
O16	O	1.582588	-0.523706	0.312172
O17	O	1.453560	-0.523664	0.403387
C18	C	1.245240	-0.357670	0.357789
C19	C	1.128464	-0.357684	0.357801
C20	C	1.073602	-0.405236	0.405218
C21	C	0.963878	-0.405239	0.405233
C22	C	0.963886	-0.310136	0.310406
C23	C	1.073608	-0.310130	0.310396
C24	C	0.813959	-0.431883	0.492786
C25	C	0.759094	-0.479447	0.540197
C26	C	0.794665	-0.551922	0.551471
C27	C	0.885100	-0.576849	0.515324
C28	C	0.939960	-0.529289	0.467907
C29	C	0.904390	-0.456804	0.456647
C30	C	1.223530	-0.283493	0.222841
C31	C	1.278391	-0.235937	0.175421
C32	C	1.242822	-0.163461	0.164139
C33	C	1.152383	-0.138536	0.200273
C34	C	1.097522	-0.186093	0.247694
C35	C	1.133099	-0.258569	0.258977
C36	C	1.518081	-0.550632	0.357792
C37	C	1.518123	-0.633177	0.357811
C38	C	1.448026	-0.832632	0.407396
C39	C	1.422421	-0.882083	0.339629
C40	C	1.518226	-0.784308	0.357821
C41	C	1.543882	-0.881939	0.425595
C42	C	1.518324	-0.930293	0.357836
C43	C	1.492571	-0.832671	0.290018
C44	C	1.614076	-0.832523	0.376030
C45	C	1.588508	-0.881951	0.308216
C46	C	1.518167	-0.700209	0.357813
C47	C	1.518383	-1.014389	0.357836
C48	C	1.792241	-0.357689	0.357819
C49	C	1.909017	-0.357693	0.357826
C50	C	1.518254	-0.357600	0.551510
C51	C	1.518274	-0.357566	0.634055
C52	C	1.518364	-0.163974	0.357833
C53	C	1.518430	-0.081428	0.357845
C54	C	1.518222	-0.357705	0.164852
C55	C	1.518406	-0.357529	0.082306
C56	C	1.588561	-0.307939	0.833517
C57	C	1.492739	-0.289764	0.882913
C58	C	1.518316	-0.357554	0.785186
C59	C	1.614177	-0.375681	0.882872
C60	C	1.518365	-0.357540	0.931171
C61	C	1.422443	-0.339344	0.833494
C62	C	1.543945	-0.425292	0.833449
C63	C	1.448057	-0.407144	0.882822
C64	C	1.518289	-0.357560	0.701088
C65	C	1.518381	-0.357534	1.015268
H66	H	1.352031	-0.256237	0.145998
O67	O	1.325733	-0.321067	0.807646
C68	C	1.286187	-0.379640	0.764125
H69	H	1.354052	-0.414564	0.742533
H70	H	1.232252	-0.415678	0.799282
C71	C	1.140822	-0.304871	0.724778
C72	C	1.224175	-0.347762	0.698254
H73	H	1.102565	-0.285208	0.684147
H74	H	1.167461	-0.265409	0.754101
H75	H	1.095887	-0.334909	0.754075
H76	H	1.269115	-0.317721	0.668965
H77	H	1.197542	-0.387218	0.668924
H78	H	1.252506	-0.342508	0.232030
H79	H	1.647915	-0.903470	0.266250
H80	H	1.341410	-0.903868	0.324242
H81	H	1.565543	-0.903580	0.482905
O82	O	0.779556	-0.361428	0.481917
C83	C	0.857828	-0.311001	0.504322
H84	H	0.912197	-0.338990	0.545874
H85	H	0.904966	-0.292563	0.453948
C86	C	0.739432	-0.208639	0.489678
C87	C	0.806204	-0.243014	0.540718
H88	H	0.707589	-0.166700	0.512126
H89	H	0.686699	-0.242612	0.474581
H90	H	0.778724	-0.193281	0.447703
H91	H	0.766909	-0.258380	0.582687
H92	H	0.858928	-0.209042	0.555823
H93	H	1.695069	-0.810739	0.391450
O94	O	1.659197	-0.257755	0.807716
C95	C	1.631814	-0.186406	0.832938
H96	H	1.544675	-0.185001	0.846793
H97	H	1.679271	-0.172476	0.884627
C98	C	1.762536	-0.130907	0.754931
C99	C	1.655507	-0.129180	0.771943
H100	H	1.777154	-0.095607	0.717309
H101	H	1.780987	-0.178977	0.737941
H102	H	1.802070	-0.119301	0.798011
H103	H	1.615975	-0.140795	0.728866
H104	H	1.637049	-0.081111	0.788924
O105	O	1.466584	-0.806842	0.221680
C106	C	1.466828	-0.728736	0.222501
H107	H	1.455076	-0.708260	0.281672
H108	H	1.545030	-0.707549	0.200490
C109	C	1.391764	-0.724843	0.100524
C110	C	1.377321	-0.699694	0.173199
H111	H	1.336556	-0.706928	0.070110
H112	H	1.391603	-0.777464	0.099970
H113	H	1.456935	-0.707185	0.082192
H114	H	1.312158	-0.717359	0.191533
H115	H	1.377469	-0.647075	0.173755
H116	H	1.471077	-0.232473	0.904640
O117	O	1.376963	-0.806825	0.457257
C118	C	1.276065	-0.832098	0.437794
H119	H	1.274148	-0.845994	0.376193
H120	H	1.256368	-0.883773	0.471311
C121	C	1.197398	-0.754062	0.530128
C122	C	1.195042	-0.771123	0.454468
H123	H	1.147418	-0.716452	0.540416
H124	H	1.265375	-0.737037	0.543243
H125	H	1.180987	-0.797129	0.558050
H126	H	1.211465	-0.728058	0.426547
H127	H	1.127066	-0.788140	0.441348
H128	H	1.388605	-0.449096	0.904335
H129	H	1.023887	-0.165791	0.277121
O130	O	1.570002	-0.493597	0.807538
C131	C	1.671139	-0.512512	0.832667
H132	H	1.716514	-0.459886	0.846564
H133	H	1.664497	-0.548536	0.884312
C134	C	1.673567	-0.620236	0.754513
C135	C	1.729299	-0.555599	0.771576
H136	H	1.709442	-0.646817	0.716831
H137	H	1.605427	-0.607495	0.737584
H138	H	1.668035	-0.650247	0.797555
H139	H	1.734819	-0.525585	0.728536
H140	H	1.797442	-0.568337	0.788495
H141	H	1.123410	-0.079525	0.191076
O142	O	1.710942	-0.393898	0.908661
C143	C	1.784715	-0.341436	0.883555
H144	H	1.753592	-0.313151	0.831566
H145	H	1.798504	-0.298180	0.928563
C146	C	1.926942	-0.415508	0.929415
C147	C	1.888720	-0.380773	0.865557
H148	H	1.991099	-0.439771	0.918316
H149	H	1.877240	-0.450851	0.946332
H150	H	1.938424	-0.379455	0.966915
H151	H	1.877226	-0.416826	0.828062
H152	H	1.938422	-0.345436	0.848634
H153	H	1.118262	-0.443956	0.443820
H154	H	0.685462	-0.459144	0.569629
O155	O	0.919710	-0.647222	0.526396
C156	C	0.942021	-0.657646	0.602181
H157	H	0.957961	-0.601695	0.629266
H158	H	0.872144	-0.685127	0.630357
C159	C	1.019673	-0.776212	0.577050
C160	C	1.039259	-0.707493	0.610315
H161	H	1.079651	-0.806962	0.582069
H162	H	1.004639	-0.769191	0.525993
H163	H	0.961440	-0.799103	0.600534
H164	H	1.097483	-0.684599	0.586825
H165	H	1.054306	-0.714512	0.661369
O166	O	1.027800	-0.553606	0.432869
C167	C	1.047411	-0.627787	0.452961
H168	H	1.008234	-0.640103	0.508357
H169	H	1.014340	-0.666343	0.408697
C170	C	1.214549	-0.624971	0.391831
C171	C	1.166438	-0.640096	0.459873
H172	H	1.287970	-0.632565	0.396091
H173	H	1.201336	-0.574995	0.378292
H174	H	1.186979	-0.657102	0.354951
H175	H	1.193999	-0.607958	0.496748
H176	H	1.179659	-0.690067	0.473418
H177	H	0.919210	-0.271420	0.271810
O178	O	0.741309	-0.598194	0.597420
C179	C	0.707264	-0.660813	0.557347
H180	H	0.702610	-0.646531	0.495924
H181	H	0.765114	-0.708179	0.565767
C182	C	0.603930	-0.702063	0.660615
C183	C	0.598206	-0.684520	0.585174
H184	H	0.536661	-0.716689	0.677781
H185	H	0.626870	-0.659877	0.687614
H186	H	0.652143	-0.741533	0.667621
H187	H	0.550004	-0.645045	0.578170
H188	H	0.575255	-0.726699	0.558174
H189	H	1.287495	-0.124743	0.125519
