data_functionalizedCrystal
_audit_creation_method	'MofGen! by Chris Wilmer'
_symmetry_space_group_name_H-M	'P1'
_symmetry_Int_Tables_number	1
_symmetry_cell_setting	triclinic
loop_
_symmetry_equiv_pos_as_xyz
  x,y,z
_cell_length_a	23.532407
_cell_length_b	14.586319
_cell_length_c	16.109301
_cell_angle_alpha	90.005214
_cell_angle_beta	96.844921
_cell_angle_gamma	90.001839
loop_
_atom_site_label
_atom_site_type_symbol
_atom_site_fract_x
_atom_site_fract_y
_atom_site_fract_z
O1	O	0.755631	-0.076129	-0.100925
O2	O	1.005631	0.173871	0.149075
O3	O	1.255631	0.423871	0.399075
O4	O	1.505631	0.673871	0.649075
O5	O	0.589822	-0.076156	-0.115528
O6	O	0.839822	0.173844	0.134472
O7	O	1.089822	0.423844	0.384472
O8	O	1.339822	0.673844	0.634472
O9	O	0.677281	-0.076132	0.012841
O10	O	0.927281	0.173868	0.262841
O11	O	1.177281	0.423868	0.512841
O12	O	1.427281	0.673868	0.762841
O13	O	0.668171	-0.076153	-0.229293
O14	O	0.918171	0.173847	0.020707
O15	O	1.168171	0.423847	0.270707
O16	O	1.418171	0.673847	0.520707
O17	O	0.677275	0.076348	0.012843
O18	O	0.927275	0.326348	0.262843
O19	O	1.177275	0.576348	0.512843
O20	O	1.427275	0.826348	0.762843
O21	O	0.589816	0.076325	-0.115526
O22	O	0.839816	0.326325	0.134474
O23	O	1.089816	0.576325	0.384474
O24	O	1.339816	0.826325	0.634474
O25	O	0.755625	0.076352	-0.100923
O26	O	1.005625	0.326352	0.149077
O27	O	1.255625	0.576352	0.399077
O28	O	1.505625	0.826352	0.649077
Cu29	Cu	0.672720	0.090261	-0.108224
Cu30	Cu	0.922720	0.340261	0.141776
Cu31	Cu	1.172720	0.590261	0.391776
Cu32	Cu	1.422720	0.840261	0.641776
Cu33	Cu	0.672727	-0.090065	-0.108226
Cu34	Cu	0.922727	0.159935	0.141774
Cu35	Cu	1.172727	0.409935	0.391774
Cu36	Cu	1.422727	0.659935	0.641774
O37	O	0.668165	0.076328	-0.229291
O38	O	0.918165	0.326328	0.020709
O39	O	1.168165	0.576328	0.270709
O40	O	1.418165	0.826328	0.520709
C41	C	0.568601	0.000081	-0.115155
C42	C	0.818601	0.250081	0.134845
C43	C	1.068601	0.500081	0.384845
C44	C	1.318601	0.750081	0.634845
C45	C	0.505380	0.000071	-0.114037
C46	C	0.755380	0.250071	0.135963
C47	C	1.005380	0.500071	0.385963
C48	C	1.255380	0.750071	0.635963
N49	N	0.672719	0.217093	-0.108222
N50	N	0.922719	0.467093	0.141778
N51	N	1.172719	0.717093	0.391778
N52	N	1.422719	0.967093	0.641778
N53	N	0.672732	-0.216897	-0.108222
N54	N	0.922732	0.033103	0.141778
N55	N	1.172732	0.283103	0.391778
N56	N	1.422732	0.533103	0.641778
C57	C	0.106531	0.000107	-0.182990
C58	C	0.356531	0.250107	0.067010
C59	C	0.606531	0.500107	0.317010
C60	C	0.856531	0.750107	0.567010
C61	C	0.047127	0.000112	-0.181951
C62	C	0.297127	0.250112	0.068049
C63	C	0.547127	0.500112	0.318049
C64	C	0.797127	0.750112	0.568049
O65	O	0.010619	0.000140	-0.245872
O66	O	0.260619	0.250140	0.004128
O67	O	0.510619	0.500140	0.254128
O68	O	0.760619	0.750140	0.504128
N69	N	0.024220	0.000117	-0.105636
N70	N	0.274220	0.250117	0.144364
N71	N	0.524220	0.500117	0.394364
N72	N	0.774220	0.750117	0.644364
C73	C	0.060719	0.000126	-0.030355
C74	C	0.310719	0.250126	0.219645
C75	C	0.560719	0.500126	0.469645
C76	C	0.810719	0.750126	0.719645
O77	O	0.035780	0.000131	0.034652
O78	O	0.285780	0.250131	0.284652
O79	O	0.535780	0.500131	0.534652
O80	O	0.785780	0.750131	0.784652
C81	C	0.120122	0.000126	-0.031395
C82	C	0.370122	0.250126	0.218605
C83	C	0.620122	0.500126	0.468605
C84	C	0.870122	0.750126	0.718605
C85	C	0.143027	0.000112	-0.107715
C86	C	0.393027	0.250112	0.142285
C87	C	0.643027	0.500112	0.392285
C88	C	0.893027	0.750112	0.642285
C89	C	0.129436	0.000093	-0.259304
C90	C	0.379436	0.250093	-0.009304
C91	C	0.629436	0.500093	0.240696
C92	C	0.879436	0.750093	0.490696
C93	C	0.188836	0.000086	-0.260342
C94	C	0.438836	0.250086	-0.010342
C95	C	0.688836	0.500086	0.239658
C96	C	0.938836	0.750086	0.489658
C97	C	0.225331	0.000092	-0.185066
C98	C	0.475331	0.250092	0.064934
C99	C	0.725331	0.500092	0.314934
C100	C	0.975331	0.750092	0.564934
C101	C	0.202427	0.000105	-0.108753
C102	C	0.452427	0.250105	0.141247
C103	C	0.702427	0.500105	0.391247
C104	C	0.952427	0.750105	0.641247
C105	C	0.156621	0.000141	0.043886
C106	C	0.406621	0.250141	0.293886
C107	C	0.656621	0.500141	0.543886
C108	C	0.906621	0.750141	0.793886
C109	C	0.216027	0.000143	0.042840
C110	C	0.466027	0.250143	0.292840
C111	C	0.716027	0.500143	0.542840
C112	C	0.966027	0.750143	0.792840
C113	C	0.238932	0.000129	-0.033480
C114	C	0.488932	0.250129	0.216520
C115	C	0.738932	0.500129	0.466520
C116	C	0.988932	0.750129	0.716520
C117	C	0.298322	0.000103	-0.034516
C118	C	0.548322	0.250103	0.215484
C119	C	0.798322	0.500103	0.465484
C120	C	1.048322	0.750103	0.715484
N121	N	0.321229	0.000098	-0.110831
N122	N	0.571229	0.250098	0.139169
N123	N	0.821229	0.500098	0.389169
N124	N	1.071229	0.750098	0.639169
C125	C	0.284734	0.000093	-0.186106
C126	C	0.534734	0.250093	0.063894
C127	C	0.784734	0.500093	0.313894
C128	C	1.034734	0.750093	0.563894
C129	C	-0.064031	0.000125	-0.028178
C130	C	0.185969	0.250125	0.221822
C131	C	0.435969	0.500125	0.471822
C132	C	0.685969	0.750125	0.721822
C133	C	-0.123433	0.000118	-0.027138
C134	C	0.126567	0.250118	0.222862
C135	C	0.376567	0.500118	0.472862
C136	C	0.626567	0.750118	0.722862
C137	C	-0.137021	0.000106	-0.178734
C138	C	0.112979	0.250106	0.071266
C139	C	0.362979	0.500106	0.321266
C140	C	0.612979	0.750106	0.571266
C141	C	-0.077618	0.000107	-0.179774
C142	C	0.172382	0.250107	0.070226
C143	C	0.422382	0.500107	0.320226
C144	C	0.672382	0.750107	0.570226
C145	C	-0.041123	0.000120	-0.104493
C146	C	0.208877	0.250120	0.145507
C147	C	0.458877	0.500120	0.395507
C148	C	0.708877	0.750120	0.645507
C149	C	0.409479	0.000076	-0.188281
C150	C	0.659479	0.250076	0.061719
C151	C	0.909479	0.500076	0.311719
C152	C	1.159479	0.750076	0.561719
C153	C	0.468885	0.000065	-0.189312
C154	C	0.718885	0.250065	0.060688
C155	C	0.968885	0.500065	0.310688
C156	C	1.218885	0.750065	0.560688
C157	C	0.482468	0.000081	-0.037716
C158	C	0.732468	0.250081	0.212284
C159	C	0.982468	0.500081	0.462284
C160	C	1.232468	0.750081	0.712284
C161	C	0.423067	0.000088	-0.036684
C162	C	0.673067	0.250088	0.213316
C163	C	0.923067	0.500088	0.463316
C164	C	1.173067	0.750088	0.713316
C165	C	0.386574	0.000088	-0.111973
C166	C	0.636574	0.250088	0.138027
C167	C	0.886574	0.500088	0.388027
C168	C	1.136574	0.750088	0.638027
O169	O	0.334865	0.000079	0.029371
O170	O	0.584865	0.250079	0.279371
O171	O	0.834865	0.500079	0.529371
O172	O	1.084865	0.750079	0.779371
O173	O	0.309682	0.000099	-0.251102
O174	O	0.559682	0.250099	-0.001102
O175	O	0.809682	0.500099	0.248898
O176	O	1.059682	0.750099	0.498898
C177	C	0.776846	0.000113	-0.101295
C178	C	1.026846	0.250113	0.148705
C179	C	1.276846	0.500113	0.398705
C180	C	1.526846	0.750113	0.648705
C181	C	0.840067	0.000117	-0.102414
C182	C	1.090067	0.250117	0.147586
C183	C	1.340067	0.500117	0.397586
C184	C	1.590067	0.750117	0.647586
C185	C	0.676909	0.000108	0.043814
C186	C	0.926909	0.250108	0.293814
C187	C	1.176909	0.500108	0.543814
C188	C	1.426909	0.750108	0.793814
C189	C	0.675803	0.000110	0.136100
C190	C	0.925803	0.250110	0.386100
C191	C	1.175803	0.500110	0.636100
C192	C	1.425803	0.750110	0.886100
C193	C	0.711459	0.452110	-0.051399
C194	C	0.961459	0.702110	0.198601
C195	C	1.211459	0.952110	0.448601
C196	C	1.461459	1.202110	0.698601
C197	C	0.711460	0.548091	-0.051397
C198	C	0.961460	0.798091	0.198603
C199	C	1.211460	1.048091	0.448603
C200	C	1.461460	1.298091	0.698603
C201	C	0.633988	0.548079	-0.165047
C202	C	0.883988	0.798079	0.084953
C203	C	1.133988	1.048079	0.334953
C204	C	1.383988	1.298079	0.584953
C205	C	0.633984	0.452100	-0.165045
C206	C	0.883984	0.702100	0.084955
C207	C	1.133984	0.952100	0.334955
C208	C	1.383984	1.202100	0.584955
C209	C	0.672723	0.404117	-0.108222
C210	C	0.922723	0.654117	0.141778
C211	C	1.172723	0.904117	0.391778
C212	C	1.422723	1.154117	0.641778
C213	C	0.672728	0.596078	-0.108222
C214	C	0.922728	0.846078	0.141778
C215	C	1.172728	1.096078	0.391778
C216	C	1.422728	1.346078	0.641778
C217	C	0.672730	0.700145	-0.108220
C218	C	0.922730	0.950145	0.141780
C219	C	1.172730	1.200145	0.391780
C220	C	1.422730	1.450145	0.641780
C221	C	0.672721	0.300044	-0.108222
C222	C	0.922721	0.550044	0.141778
C223	C	1.172721	0.800044	0.391778
C224	C	1.422721	1.050044	0.641778
C225	C	0.668537	0.000085	-0.260264
C226	C	0.918537	0.250085	-0.010264
C227	C	1.168537	0.500085	0.239736
C228	C	1.418537	0.750085	0.489736
C229	C	0.669644	0.000078	-0.352551
C230	C	0.919644	0.250078	-0.102551
C231	C	1.169644	0.500078	0.147449
C232	C	1.419644	0.750078	0.397449
C233	C	0.725127	0.000103	0.358760
C234	C	0.975127	0.250103	0.608760
C235	C	1.225127	0.500103	0.858760
C236	C	1.475127	0.750103	1.108760
C237	C	0.724083	0.000095	0.445473
C238	C	0.974083	0.250095	0.695473
C239	C	1.224083	0.500095	0.945473
C240	C	1.474083	0.750095	1.195473
C241	C	0.620315	0.000082	0.424782
C242	C	0.870315	0.250082	0.674782
C243	C	1.120315	0.500082	0.924782
C244	C	1.370315	0.750082	1.174782
C245	C	0.621360	0.000083	0.338072
C246	C	0.871360	0.250083	0.588072
C247	C	1.121360	0.500083	0.838072
C248	C	1.371360	0.750083	1.088072
C249	C	0.673768	0.000098	0.305063
C250	C	0.923768	0.250098	0.555063
C251	C	1.173768	0.500098	0.805063
C252	C	1.423768	0.750098	1.055063
C253	C	0.671679	0.000089	0.478486
C254	C	0.921679	0.250089	0.728486
C255	C	1.171679	0.500089	0.978486
C256	C	1.421679	0.750089	1.228486
C257	C	0.670547	0.000081	0.572503
C258	C	0.920547	0.250081	0.822503
C259	C	1.170547	0.500081	1.072503
C260	C	1.420547	0.750081	1.322503
C261	C	0.674900	0.000105	0.211040
C262	C	0.924900	0.250105	0.461040
C263	C	1.174900	0.500105	0.711040
C264	C	1.424900	0.750105	0.961040
H265	H	0.487530	0.000053	-0.251464
H266	H	0.737530	0.250053	-0.001464
H267	H	0.987530	0.500053	0.248536
H268	H	1.237530	0.750053	0.498536
F269	F	-0.147802	0.000112	0.054092
F270	F	0.102198	0.250112	0.304092
F271	F	0.352198	0.500112	0.554092
F272	F	0.602198	0.750112	0.804092
F273	F	0.370648	0.000077	-0.268412
F274	F	0.620648	0.250077	-0.018412
F275	F	0.870648	0.500077	0.231588
F276	F	1.120648	0.750077	0.481588
H277	H	0.579534	0.000076	0.294349
H278	H	0.829534	0.250076	0.544349
H279	H	1.079534	0.500076	0.794349
H280	H	1.329534	0.750076	1.044349
F281	F	-0.025195	0.000131	0.051952
F282	F	0.224805	0.250131	0.301952
F283	F	0.474805	0.500131	0.551952
F284	F	0.724805	0.750131	0.801952
H285	H	-0.058974	0.000101	-0.241920
H286	H	0.191026	0.250101	0.008080
H287	H	0.441026	0.500101	0.258080
H288	H	0.691026	0.750101	0.508080
H289	H	0.765906	0.000097	0.489190
H290	H	1.015906	0.250097	0.739190
H291	H	1.265906	0.500097	0.989190
H292	H	1.515906	0.750097	1.239190
H293	H	0.137983	0.000154	0.106033
H294	H	0.387983	0.250154	0.356033
H295	H	0.637983	0.500154	0.606033
H296	H	0.887983	0.750154	0.856033
H297	H	0.245739	0.000154	0.104144
H298	H	0.495739	0.250154	0.354144
H299	H	0.745739	0.500154	0.604144
H300	H	0.995739	0.750154	0.854144
H301	H	0.577647	0.000071	0.451669
H302	H	0.827647	0.250071	0.701669
H303	H	1.077647	0.500071	0.951669
H304	H	1.327647	0.750071	1.201669
H305	H	0.207479	0.000074	-0.322489
H306	H	0.457479	0.250074	-0.072489
H307	H	0.707479	0.500074	0.177511
H308	H	0.957479	0.750074	0.427511
F309	F	0.752687	0.599165	0.009082
F310	F	1.002687	0.849165	0.259082
F311	F	1.252687	1.099165	0.509082
F312	F	1.502687	1.349165	0.759082
H313	H	0.602438	0.413022	-0.211316
H314	H	0.852438	0.663022	0.038684
H315	H	1.102438	0.913022	0.288684
H316	H	1.352438	1.163022	0.538684
H317	H	-0.166747	0.000106	-0.240027
H318	H	0.083253	0.250106	0.009973
H319	H	0.333253	0.500106	0.259973
H320	H	0.583253	0.750106	0.509973
F321	F	0.090603	0.000087	-0.339430
F322	F	0.340603	0.250087	-0.089430
F323	F	0.590603	0.500087	0.160570
F324	F	0.840603	0.750087	0.410570
F325	F	0.780904	0.000118	0.323633
F326	F	1.030904	0.250118	0.573633
F327	F	1.280904	0.500118	0.823633
F328	F	1.530904	0.750118	1.073633
F329	F	0.592763	0.599152	-0.225521
F330	F	0.842763	0.849152	0.024479
F331	F	1.092763	1.099152	0.274479
F332	F	1.342763	1.349152	0.524479
H333	H	0.512193	0.000083	0.023571
H334	H	0.762193	0.250083	0.273571
H335	H	1.012193	0.500083	0.523571
H336	H	1.262193	0.750083	0.773571
F337	F	0.752686	0.401047	0.009079
F338	F	1.002686	0.651047	0.259079
F339	F	1.252686	0.901047	0.509079
F340	F	1.502686	1.151047	0.759079
F341	F	0.398690	0.000103	0.044543
F342	F	0.648690	0.250103	0.294543
F343	F	0.898690	0.500103	0.544543
F344	F	1.148690	0.750103	0.794543
