data_functionalizedCrystal
_audit_creation_method	'MofGen! by Chris Wilmer'
_symmetry_space_group_name_H-M	'P1'
_symmetry_Int_Tables_number	1
_symmetry_cell_setting	triclinic
loop_
_symmetry_equiv_pos_as_xyz
  x,y,z
_cell_length_a	27.440280
_cell_length_b	27.440280
_cell_length_c	20.919309
_cell_angle_alpha	62.585108
_cell_angle_beta	90.005478
_cell_angle_gamma	59.999099
loop_
_atom_site_label
_atom_site_type_symbol
_atom_site_fract_x
_atom_site_fract_y
_atom_site_fract_z
Zr1	Zr	0.471880	0.528624	-0.080897
O2	O	0.396975	0.624472	-0.179319
O3	O	0.494844	0.428734	-0.050711
O4	O	0.498653	0.522783	-0.179282
O5	O	0.390160	0.536440	0.050656
O6	O	0.578855	0.522775	-0.179270
O7	O	0.393167	0.530423	-0.050747
O8	O	0.572043	0.354538	0.050722
O9	O	0.396973	0.704677	-0.179335
O10	O	0.564490	0.471311	-0.037844
O11	O	0.502392	0.475808	0.037822
O12	O	0.506876	0.586539	-0.113554
O13	O	0.444778	0.591036	-0.037888
Zr14	Zr	0.594998	0.538208	0.080850
Zr15	Zr	0.599794	0.528611	-0.080876
Zr16	Zr	0.467085	0.538221	0.080830
Zr17	Zr	0.471876	0.656542	-0.080923
Zr18	Zr	0.595002	0.410290	0.080876
O19	O	0.572034	0.638098	0.050664
O20	O	0.578852	0.624452	-0.179290
O21	O	0.390157	0.638118	0.050636
O22	O	0.669903	0.442360	0.179273
O23	O	0.676721	0.428714	-0.050682
O24	O	0.488026	0.442380	0.179244
O25	O	0.676718	0.530392	-0.050702
O26	O	0.568225	0.544049	0.179236
O27	O	0.488023	0.544057	0.179223
O28	O	0.673711	0.536409	0.050701
O29	O	0.498647	0.704666	-0.179319
O30	O	0.568231	0.362166	0.179273
O31	O	0.669905	0.362155	0.179289
O32	O	0.673717	0.354527	0.050738
O33	O	0.393161	0.712305	-0.050784
O34	O	0.494835	0.712294	-0.050768
O35	O	0.560002	0.480293	0.113508
O36	O	0.622100	0.475796	0.037841
O37	O	0.564486	0.591024	-0.037869
O38	O	0.502388	0.595521	0.037798
C39	C	0.533444	0.373410	0.000009
C40	C	0.533446	0.319106	0.000020
C41	C	0.373439	0.533433	-0.000049
C42	C	0.319136	0.533439	-0.000057
C43	C	0.490910	0.023293	-0.055925
C44	C	0.490909	-0.027725	-0.055933
O45	O	0.454753	-0.019349	-0.103474
N46	N	0.533438	-0.094118	-0.000053
C47	C	0.575973	-0.109494	0.055834
O48	O	0.612147	-0.170651	0.103363
C49	C	0.575975	-0.058477	0.055838
C50	C	0.533440	0.007917	-0.000041
C51	C	0.448379	0.089683	-0.111800
C52	C	0.448378	0.140697	-0.111791
C53	C	0.490909	0.125321	-0.055907
C54	C	0.533440	0.058930	-0.000032
C55	C	0.618512	-0.073854	0.111722
C56	C	0.618511	-0.022830	0.111721
C57	C	0.575976	0.043564	0.055841
C58	C	0.575970	0.094568	0.055861
N59	N	0.533442	0.160961	-0.000019
C60	C	0.490911	0.176338	-0.055903
C61	C	0.575966	-0.216630	0.055821
C62	C	0.575961	-0.267646	0.055820
C63	C	0.490898	-0.185873	-0.055948
C64	C	0.490901	-0.134856	-0.055944
C65	C	0.533437	-0.150236	-0.000059
C66	C	0.490913	0.283467	-0.055880
C67	C	0.490915	0.334482	-0.055864
C68	C	0.575980	0.252705	0.055901
C69	C	0.575976	0.201695	0.055888
C70	C	0.533440	0.217080	-0.000009
O71	O	0.612110	0.086242	0.103376
O72	O	0.454748	0.237495	-0.103430
C73	C	0.012511	0.473258	0.039517
C74	C	-0.038508	0.473255	0.039524
O75	O	-0.039320	0.422103	0.073157
N76	N	-0.094099	0.533402	0.000004
C77	C	-0.098670	0.593557	-0.039520
O78	O	-0.150639	0.644716	-0.073134
C79	C	-0.047652	0.593559	-0.039522
C80	C	0.007938	0.533408	-0.000005
C81	C	0.068098	0.413112	0.079032
C82	C	0.119113	0.413115	0.079024
C83	C	0.114541	0.473265	0.039501
C84	C	0.058953	0.533412	-0.000013
C85	C	-0.052224	0.653714	-0.079040
C86	C	-0.001200	0.653712	-0.079038
C87	C	0.054390	0.593560	-0.039522
C88	C	0.105395	0.593565	-0.039543
N89	N	0.160986	0.533418	-0.000023
C90	C	0.165559	0.473268	0.039500
C91	C	-0.205809	0.593546	-0.039512
C92	C	-0.256826	0.593543	-0.039515
C93	C	-0.196661	0.473241	0.039530
C94	C	-0.145643	0.473244	0.039528
C95	C	-0.150218	0.533399	0.000008
C96	C	0.272692	0.473280	0.039479
C97	C	0.323709	0.473289	0.039465
C98	C	0.263539	0.593591	-0.039577
C99	C	0.212526	0.593582	-0.039566
C100	C	0.217106	0.533422	-0.000033
O101	O	0.106253	0.644691	-0.073157
O102	O	0.217529	0.422118	0.073116
C103	C	0.693439	0.533399	0.000002
C104	C	0.747742	0.533393	0.000011
C105	C	0.539437	0.521412	-0.202319
C106	C	0.541473	0.517337	-0.270976
C107	C	0.533434	0.693422	-0.000056
C108	C	0.533432	0.747726	-0.000066
C109	C	0.512357	0.575569	-0.342751
C110	C	0.514277	0.571737	-0.407259
C111	C	0.545311	0.509672	-0.399991
C112	C	0.574431	0.451436	-0.328208
C113	C	0.572514	0.455269	-0.263701
C114	C	0.552608	0.495091	-0.592781
C115	C	0.554521	0.491263	-0.657295
C116	C	0.494368	0.611565	-0.736342
C117	C	0.492451	0.615392	-0.671831
C118	C	0.521573	0.557155	-0.600054
C119	C	0.547273	0.505754	-0.465927
C120	C	0.519614	0.561074	-0.534119
C121	C	0.527441	0.545421	0.202272
C122	C	0.525405	0.549495	0.270929
C123	C	0.693445	0.373393	0.000034
C124	C	0.747749	0.319083	0.000054
C125	C	0.527446	0.385415	0.202305
C126	C	0.525412	0.335185	0.270973
C127	C	0.687446	0.385398	0.202330
C128	C	0.739715	0.335162	0.271007
C129	C	0.379432	0.681434	-0.202376
C130	C	0.327163	0.731671	-0.271053
C131	C	0.373434	0.693439	-0.000081
C132	C	0.319129	0.747749	-0.000100
C133	C	0.539432	0.681417	-0.202351
C134	C	0.541466	0.731647	-0.271019
C135	C	0.743179	0.291237	-0.039451
C136	C	0.794199	0.240213	-0.039447
C137	C	0.849789	0.217032	0.000065
C138	C	0.854357	0.244883	0.039571
C139	C	0.803338	0.295910	0.039563
C140	C	0.554528	0.313937	0.342734
C141	C	0.552615	0.266748	0.407261
C142	C	0.521588	0.240804	0.400026
C143	C	0.492467	0.262056	0.328257
C144	C	0.494378	0.309248	0.263731
C145	C	0.796681	0.309223	0.263761
C146	C	0.845798	0.262027	0.328284
C147	C	0.837948	0.240768	0.400052
C148	C	0.780976	0.266712	0.407296
C149	C	0.731860	0.313910	0.342774
C150	C	0.270198	0.757616	-0.263807
C151	C	0.221081	0.804827	-0.328330
C152	C	0.228931	0.826089	-0.400098
C153	C	0.285902	0.800142	-0.407343
C154	C	0.335018	0.752935	-0.342820
C155	C	0.323699	0.775600	0.039398
C156	C	0.272679	0.826637	0.039376
C157	C	0.217090	0.849819	-0.000139
C158	C	0.212521	0.821966	-0.039642
C159	C	0.263541	0.770933	-0.039624
C160	C	0.572499	0.757577	-0.263759
C161	C	0.574421	0.804767	-0.328274
C162	C	0.545308	0.826030	-0.400048
C163	C	0.514275	0.800096	-0.407307
C164	C	0.512356	0.752903	-0.342792
H165	H	0.456274	0.388544	-0.101367
H166	H	0.610606	0.240196	0.101402
H167	H	0.263794	0.740307	-0.205376
Cl168	Cl	0.613447	0.373411	-0.319070
Cl169	Cl	0.073861	0.337484	0.128726
Cl170	Cl	0.671987	-0.157311	0.181975
H171	H	0.790468	0.217543	-0.071618
H172	H	0.520037	0.202378	0.452573
H173	H	0.596207	0.740272	-0.205323
Cl174	Cl	0.924246	0.215732	0.089245
Cl175	Cl	0.589194	0.421879	-0.502556
H176	H	0.467206	0.240925	0.322377
Cl177	Cl	0.437428	-0.051394	-0.126196
Cl178	Cl	0.917412	0.229419	0.319159
Cl179	Cl	0.673302	0.320370	-0.089134
Cl180	Cl	0.152956	0.913975	-0.000151
H181	H	0.188932	0.864528	-0.452630
H182	H	0.174696	0.825945	-0.322417
Cl183	Cl	0.295761	0.826875	-0.497572
H184	H	0.596223	0.407850	-0.205259
H185	H	0.546875	0.864458	-0.452574
Cl186	Cl	0.394905	0.224158	-0.182045
H187	H	0.490571	0.817416	-0.465754
H188	H	0.877946	0.202336	0.452584
H189	H	0.494349	0.611607	-0.540034
H190	H	0.368958	0.756729	0.071581
H191	H	0.572541	0.455221	-0.460017
Cl192	Cl	0.771117	0.239978	0.497525
Cl193	Cl	0.437433	-0.166552	-0.126205
H194	H	0.576330	0.249450	0.465692
H195	H	0.487083	0.731796	-0.348714
H196	H	0.891328	0.175482	0.000067
Cl197	Cl	0.593539	0.413232	-0.648153
H198	H	0.579794	0.335056	0.348640
Cl199	Cl	0.437439	0.302818	-0.126151
H200	H	0.470670	0.326541	0.205302
H201	H	0.685478	0.335023	0.348684
Cl202	Cl	0.406631	0.720318	-0.351943
H203	H	0.276411	0.849307	0.071547
H204	H	0.167254	0.840849	-0.071814
Cl205	Cl	0.613433	0.837365	-0.319132
H206	H	0.807067	0.318576	0.071737
Cl207	Cl	0.257801	0.669205	-0.089247
H208	H	-0.100382	0.424264	0.071713
H209	H	0.803084	0.326524	0.205329
Cl210	Cl	0.257785	0.735922	-0.089279
H211	H	0.413745	0.102215	-0.157312
H212	H	0.490569	0.619156	-0.465699
H213	H	0.610592	-0.321703	0.101330
H214	H	0.610603	-0.229162	0.101335
H215	H	0.610606	0.147633	0.101397
Cl216	Cl	0.393593	0.397664	0.089146
Cl217	Cl	0.278458	0.397649	0.089177
Cl218	Cl	0.188992	0.337492	0.128711
Cl219	Cl	0.671990	-0.042172	0.181978
H220	H	-0.192945	0.424263	0.071709
Cl221	Cl	-0.326706	0.669165	-0.089207
H222	H	-0.209543	0.642534	-0.071698
H223	H	-0.004933	0.702699	-0.111211
Cl224	Cl	-0.122099	0.729338	-0.128715
Cl225	Cl	0.142641	0.669201	-0.089260
H226	H	0.467181	0.665932	-0.677758
Cl227	Cl	0.473340	0.653598	-0.351898
H228	H	0.470659	0.658977	-0.794788
