data_functionalizedCrystal
_audit_creation_method	'MofGen! by Chris Wilmer'
_symmetry_space_group_name_H-M	'P1'
_symmetry_Int_Tables_number	1
_symmetry_cell_setting	triclinic
loop_
_symmetry_equiv_pos_as_xyz
  x,y,z
_cell_length_a	17.640112
_cell_length_b	18.050589
_cell_length_c	17.640968
_cell_angle_alpha	101.226882
_cell_angle_beta	87.860920
_cell_angle_gamma	101.252307
loop_
_atom_site_label
_atom_site_type_symbol
_atom_site_fract_x
_atom_site_fract_y
_atom_site_fract_z
Zn1	Zn	1.247776	-0.021338	0.195082
Zn2	Zn	1.747776	0.478662	0.695082
Zn3	Zn	1.221993	-0.174558	0.068112
Zn4	Zn	1.721993	0.325442	0.568112
Zn5	Zn	1.095104	-0.069647	0.093732
Zn6	Zn	1.595104	0.430353	0.593732
Zn7	Zn	1.120735	-0.164782	0.220693
Zn8	Zn	1.620735	0.335218	0.720693
O9	O	1.171402	-0.107581	0.144405
O10	O	1.671402	0.392419	0.644405
O11	O	1.350627	-0.025537	0.156798
O12	O	1.850627	0.474463	0.656798
O13	O	1.183644	-0.184950	-0.034761
O14	O	1.683644	0.315050	0.465239
O15	O	1.115420	0.040699	0.107180
O16	O	1.615420	0.540699	0.607180
O17	O	1.331684	-0.138107	0.063514
O18	O	1.831684	0.361893	0.563514
O19	O	1.227588	0.076191	0.181641
O20	O	1.727588	0.576191	0.681641
O21	O	1.090420	-0.107872	-0.015938
O22	O	1.590420	0.392128	0.484062
O23	O	0.992234	-0.098393	0.132014
O24	O	1.492234	0.401607	0.632014
O25	O	1.159104	-0.121445	0.323567
O26	O	1.659104	0.378555	0.823567
O27	O	1.011064	-0.168289	0.225292
O28	O	1.511064	0.331711	0.725292
O29	O	1.252441	-0.016058	0.304750
O30	O	1.752441	0.483942	0.804750
O31	O	1.208498	-0.277199	0.088349
O32	O	1.708498	0.222801	0.588349
O33	O	1.134104	-0.270016	0.200449
O34	O	1.634104	0.229984	0.700449
C35	C	0.974094	-0.137523	0.184213
C36	C	1.474094	0.362477	0.684213
C37	C	0.889689	-0.150346	0.201261
C38	C	1.389689	0.349654	0.701261
C39	C	0.563038	-0.010153	0.014899
C40	C	1.063038	0.489847	0.514899
C41	C	0.483728	-0.022215	0.030928
C42	C	0.983728	0.477785	0.530928
C43	C	0.503357	-0.095166	0.127891
C44	C	1.003357	0.404834	0.627891
C45	C	0.582671	-0.083107	0.111873
C46	C	1.082671	0.416893	0.611873
C47	C	0.612505	-0.040601	0.055375
C48	C	1.112505	0.459399	0.555375
C49	C	0.632138	-0.113555	0.152349
C50	C	1.132138	0.386445	0.652349
C51	C	0.711444	-0.101501	0.136328
C52	C	1.211444	0.398499	0.636328
C53	C	0.741283	-0.058998	0.079832
C54	C	1.241283	0.441002	0.579832
C55	C	0.691811	-0.028547	0.039354
C56	C	1.191811	0.471453	0.539354
C57	C	0.602302	-0.156066	0.208842
C58	C	1.102302	0.343934	0.708842
C59	C	0.651768	-0.186514	0.249318
C60	C	1.151768	0.313486	0.749318
C61	C	0.731077	-0.174455	0.233302
C62	C	1.231077	0.325545	0.733302
C63	C	0.760916	-0.131952	0.176805
C64	C	1.260916	0.368048	0.676805
C65	C	0.780549	-0.204906	0.273779
C66	C	1.280549	0.295094	0.773779
C67	C	0.859855	-0.192852	0.257758
C68	C	1.359855	0.307148	0.757758
C69	C	0.840222	-0.119898	0.160785
C70	C	1.340222	0.380102	0.660785
C71	C	1.171308	-0.300550	0.144411
C72	C	1.671308	0.199450	0.644411
C73	C	1.171342	-0.383087	0.144424
C74	C	1.671342	0.116913	0.644424
C75	C	1.130933	-0.578655	0.205357
C76	C	1.630933	-0.078655	0.705357
C77	C	1.098407	-0.646737	0.139793
C78	C	1.598407	-0.146737	0.639793
C79	C	1.171419	-0.534204	0.144419
C80	C	1.671419	-0.034204	0.644419
C81	C	1.203984	-0.613197	0.209983
C82	C	1.703984	-0.113197	0.709983
C83	C	1.171493	-0.680174	0.144421
C84	C	1.671493	-0.180174	0.644421
C85	C	1.138849	-0.601212	0.078826
C86	C	1.638849	-0.101212	0.578826
C87	C	1.244468	-0.567652	0.149057
C88	C	1.744468	-0.067652	0.649057
C89	C	1.211958	-0.635718	0.083440
C90	C	1.711958	-0.135718	0.583440
C91	C	1.171375	-0.450114	0.144420
C92	C	1.671375	0.049886	0.644420
C93	C	1.171536	-0.764264	0.144412
C94	C	1.671536	-0.264264	0.644412
C95	C	1.369481	-0.077524	0.104442
C96	C	1.869481	0.422476	0.604442
C97	C	1.453890	-0.064715	0.087412
C98	C	1.953890	0.435285	0.587412
C99	C	1.211508	-0.062272	0.342484
C100	C	1.711508	0.437728	0.842484
C101	C	1.228598	-0.042964	0.426893
C102	C	1.728598	0.457036	0.926893
C103	C	1.171521	0.086148	0.144411
C104	C	1.671521	0.586148	0.644411
C105	C	1.171572	0.168704	0.144414
C106	C	1.671572	0.668704	0.644414
C107	C	1.131497	-0.152654	-0.052913
C108	C	1.631497	0.347346	0.447087
C109	C	1.114553	-0.171730	-0.137352
C110	C	1.614553	0.328270	0.362648
C111	C	1.041859	-0.253814	0.753484
C112	C	1.541859	0.246186	1.253484
C113	C	1.057934	-0.235659	0.832796
C114	C	1.557934	0.264341	1.332796
C115	C	1.155117	-0.125928	0.813194
C116	C	1.655117	0.374072	1.313194
C117	C	1.139048	-0.144071	0.733879
C118	C	1.639048	0.355929	1.233879
C119	C	1.082418	-0.208016	0.704030
C120	C	1.582418	0.291984	1.204030
C121	C	1.179607	-0.098273	0.684425
C122	C	1.679607	0.401727	1.184425
C123	C	1.163541	-0.116418	0.605116
C124	C	1.663541	0.383582	1.105116
C125	C	1.106916	-0.180360	0.575261
C126	C	1.606916	0.319640	1.075261
C127	C	1.066352	-0.226160	0.624721
C128	C	1.566352	0.273840	1.124721
C129	C	1.236240	-0.034333	0.714274
C130	C	1.736240	0.465667	1.214274
C131	C	1.276799	0.011465	0.664820
C132	C	1.776799	0.511465	1.164820
C133	C	1.260730	-0.006676	0.585511
C134	C	1.760730	0.493324	1.085511
C135	C	1.204105	-0.070618	0.555656
C136	C	1.704105	0.429382	1.055656
C137	C	1.301293	0.039124	0.536051
C138	C	1.801293	0.539124	1.036051
C139	C	1.285228	0.020980	0.456742
C140	C	1.785228	0.520980	0.956742
C141	C	1.188039	-0.088763	0.476347
C142	C	1.688039	0.411237	0.976347
H143	H	0.587332	0.024473	-0.031096
H144	H	1.087332	0.524473	0.468904
C145	C	1.101580	-0.593404	0.003919
C146	C	1.601580	-0.093404	0.503919
N147	N	1.073507	-0.587522	-0.052498
N148	N	1.573507	-0.087522	0.447502
H149	H	1.318254	0.058274	0.416475
H150	H	1.818254	0.558274	0.916475
H151	H	1.020221	-0.278215	0.600421
H152	H	1.520221	0.221785	1.100421
C153	C	0.747720	-0.251666	0.335920
C154	C	1.247720	0.248334	0.835920
N155	N	0.722993	-0.286886	0.382726
N156	N	1.222993	0.213114	0.882726
H157	H	0.900133	-0.217645	0.290719
H158	H	1.400133	0.282355	0.790719
H159	H	0.864516	-0.085271	0.114790
H160	H	1.364516	0.414729	0.614790
C161	C	1.339083	0.081807	0.697665
C162	C	1.839083	0.581807	1.197665
N163	N	1.385992	0.134794	0.722403
N164	N	1.885992	0.634794	1.222403
C165	C	1.258239	-0.669227	0.013756
C166	C	1.758239	-0.169227	0.513756
N167	N	1.293093	-0.694469	-0.038731
N168	N	1.793093	-0.194469	0.461269
H169	H	0.995727	-0.305868	0.729184
H170	H	1.495727	0.194132	1.229184
H171	H	1.096620	-0.553748	0.256842
H172	H	1.596620	-0.053748	0.756842
C173	C	1.241154	-0.621147	0.284888
C174	C	1.741154	-0.121147	0.784888
N175	N	1.269145	-0.627132	0.341308
N176	N	1.769145	-0.127132	0.841308
C177	C	1.014992	-0.693010	0.134487
C178	C	1.514992	-0.193010	0.634487
N179	N	0.952164	-0.727861	0.130495
N180	N	1.452164	-0.227861	0.630495
H181	H	1.093839	-0.195135	0.510682
H182	H	1.593839	0.304865	1.010682
C183	C	1.363583	0.109461	0.568896
C184	C	1.863583	0.609461	1.068896
N185	N	1.410498	0.162442	0.593635
N186	N	1.910498	0.662442	1.093635
C187	C	1.125743	-0.159104	0.443510
C188	C	1.625743	0.340896	0.943510
N189	N	1.078825	-0.212085	0.418776
N190	N	1.578825	0.287915	0.918776
C191	C	1.327862	-0.521339	0.154405
C192	C	1.827862	-0.021339	0.654405
N193	N	1.390674	-0.486449	0.158443
N194	N	1.890674	0.013551	0.658443
C195	C	1.013309	-0.286044	0.887195
C196	C	1.513309	0.213956	1.387195
N197	N	0.979698	-0.323994	0.928167
N198	N	1.479698	0.176006	1.428167
H199	H	0.627466	-0.221125	0.295316
H200	H	1.127466	0.278875	0.795316
C201	C	1.217401	-0.055586	0.846038
C202	C	1.717401	0.444414	1.346038
N203	N	1.264311	-0.002600	0.870776
N204	N	1.764311	0.497400	1.370776
C205	C	0.470531	-0.141920	0.190038
C206	C	0.970531	0.358080	0.690038
N207	N	0.445808	-0.177133	0.236851
N208	N	0.945808	0.322867	0.736851
C209	C	0.828523	-0.045736	0.062210
C210	C	1.328523	0.454264	0.562210
N211	N	0.894233	-0.035745	0.048940
N212	N	1.394233	0.464255	0.548940
H213	H	0.716105	0.006080	-0.006640
H214	H	1.216105	0.506080	0.493360
H215	H	0.443455	0.002589	-0.002031
H216	H	0.943455	0.502589	0.497969
H217	H	0.537725	-0.165879	0.221884
H218	H	1.037725	0.334121	0.721884
H219	H	1.249320	-0.019563	0.778853
H220	H	1.749320	0.480437	1.278853
