data_functionalizedCrystal
_audit_creation_method	'MofGen! by Chris Wilmer'
_symmetry_space_group_name_H-M	'P1'
_symmetry_Int_Tables_number	1
_symmetry_cell_setting	triclinic
loop_
_symmetry_equiv_pos_as_xyz
  x,y,z
_cell_length_a	18.050589
_cell_length_b	16.120566
_cell_length_c	16.120256
_cell_angle_alpha	89.874858
_cell_angle_beta	92.877403
_cell_angle_gamma	92.875476
loop_
_atom_site_label
_atom_site_type_symbol
_atom_site_fract_x
_atom_site_fract_y
_atom_site_fract_z
Zn1	Zn	-0.376254	-1.247401	-0.534657
Zn2	Zn	-0.494475	-1.254340	-0.395606
Zn3	Zn	-0.363701	-1.115393	-0.388566
Zn4	Zn	-0.493796	-1.108297	-0.527568
O5	O	-0.432056	-1.181358	-0.461599
O6	O	-0.397474	-1.364687	-0.522124
O7	O	-0.472158	-1.241782	-0.278306
O8	O	-0.261446	-1.132969	-0.407966
O9	O	-0.484330	-1.369785	-0.419964
O10	O	-0.270668	-1.229955	-0.515298
O11	O	-0.376080	-1.139698	-0.273134
O12	O	-0.375421	-0.998086	-0.401092
O13	O	-0.483172	-1.120876	-0.644874
O14	O	-0.471001	-0.992873	-0.503216
O15	O	-0.396815	-1.223074	-0.650082
O16	O	-0.598305	-1.234902	-0.413091
O17	O	-0.597806	-1.127605	-0.510042
C18	C	-0.421776	-0.965307	-0.450622
C19	C	-0.417396	-0.872879	-0.445945
C20	C	-0.409383	-0.703650	-0.437414
C21	C	-0.454794	-0.659905	-0.485791
C22	C	-0.450335	-0.565740	-0.481045
C23	C	-0.413841	-0.797823	-0.442160
C24	C	-0.625003	-1.181258	-0.461580
C25	C	-0.707551	-1.181290	-0.461604
C26	C	-0.906759	-1.122997	-0.514310
C27	C	-0.951979	-1.106574	-0.437403
C28	C	-0.858686	-1.181371	-0.461619
C29	C	-0.960550	-1.197834	-0.538537
C30	C	-1.004676	-1.181448	-0.461640
C31	C	-0.902815	-1.164910	-0.384670
C32	C	-0.911386	-1.256203	-0.485857
C33	C	-0.956582	-1.239812	-0.408899
C34	C	-0.774585	-1.181325	-0.461608
C35	C	-1.088774	-1.181494	-0.461643
C36	C	-0.238358	-1.181479	-0.461638
C37	C	-0.155815	-1.181531	-0.461654
C38	C	-0.441318	-1.170409	-0.678494
C39	C	-0.445265	-1.165744	-0.770922
C40	C	-0.442380	-0.398252	-0.472607
C41	C	-0.446783	-0.490682	-0.477263
C42	C	-0.411455	-1.205686	-0.983906
C43	C	-0.452439	-1.157198	-0.940142
C44	C	-0.448446	-1.161955	-0.845979
C45	C	-0.415447	-1.200931	-1.078077
C46	C	-0.422779	-1.192311	-0.245551
C47	C	-0.418631	-1.197138	-0.153131
H48	H	-0.497018	-0.693173	-0.530774
O49	O	-0.359079	-0.663840	-0.383770
C50	C	-0.365768	-0.577322	-0.390927
H51	H	-0.423730	-0.564179	-0.417476
H52	H	-0.322529	-0.550464	-0.434074
C53	C	-0.281998	-0.552994	-0.271987
C54	C	-0.353190	-0.536850	-0.304588
H55	H	-0.274236	-0.528027	-0.218730
H56	H	-0.277489	-0.611282	-0.267167
H57	H	-0.245974	-0.530611	-0.307951
H58	H	-0.389212	-0.559242	-0.268630
H59	H	-0.357705	-0.478564	-0.309400
O60	O	-0.880683	-1.063924	-0.567286
C61	C	-0.901221	-0.985167	-0.541441
H62	H	-0.912074	-0.987144	-0.472389
H63	H	-0.953770	-0.967677	-0.578179
C64	C	-0.824676	-0.917667	-0.641669
C65	C	-0.838001	-0.920093	-0.556857
H66	H	-0.785681	-0.877525	-0.651181
H67	H	-0.810841	-0.970727	-0.659084
H68	H	-0.868472	-0.903095	-0.672274
H69	H	-0.794208	-0.934675	-0.526254
H70	H	-0.851827	-0.867034	-0.539437
O71	O	-0.973525	-1.031122	-0.413065
C72	C	-1.018901	-0.996988	-0.476812
H73	H	-1.044721	-1.048999	-0.518306
H74	H	-0.983885	-0.952213	-0.515425
C75	C	-1.049179	-0.886046	-0.387272
C76	C	-1.080896	-0.949928	-0.438232
H77	H	-1.087419	-0.857014	-0.363476
H78	H	-1.018606	-0.909040	-0.344325
H79	H	-1.019999	-0.848742	-0.419458
H80	H	-1.110067	-0.987235	-0.406044
H81	H	-1.111476	-0.926938	-0.481173
H82	H	-0.877681	-1.150942	-0.319608
O83	O	-0.982470	-1.298658	-0.355573
C84	C	-0.952748	-1.281037	-0.274611
H85	H	-0.935670	-1.212123	-0.269467
H86	H	-0.902091	-1.319284	-0.261095
C87	C	-1.032754	-1.387857	-0.217699
C88	C	-1.011784	-1.303214	-0.211378
H89	H	-1.069168	-1.401540	-0.178693
H90	H	-1.052777	-1.399731	-0.272245
H91	H	-0.990534	-1.419720	-0.206438
H92	H	-1.054001	-1.271353	-0.222650
H93	H	-0.991770	-1.291335	-0.156833
H94	H	-0.893393	-1.319434	-0.506375
O95	O	-0.366091	-1.259454	-0.944117
C96	C	-0.372152	-1.252282	-0.857596
H97	H	-0.427676	-1.225583	-0.844457
H98	H	-0.324967	-1.209256	-0.830682
C99	C	-0.299315	-1.371428	-0.833326
C100	C	-0.367513	-1.338642	-0.817189
H101	H	-0.296449	-1.424697	-0.808400
H102	H	-0.295228	-1.376258	-0.891617
H103	H	-0.260001	-1.335564	-0.810897
H104	H	-0.406824	-1.374500	-0.839627
H105	H	-0.371606	-1.333820	-0.758902
H106	H	-0.985770	-1.211729	-0.603577
H107	H	-0.490520	-1.112110	-0.973393
