data_functionalizedCrystal
_audit_creation_method	'MofGen! by Chris Wilmer'
_symmetry_space_group_name_H-M	'P1'
_symmetry_Int_Tables_number	1
_symmetry_cell_setting	triclinic
loop_
_symmetry_equiv_pos_as_xyz
  x,y,z
_cell_length_a	17.077404
_cell_length_b	12.759400
_cell_length_c	12.759393
_cell_angle_alpha	90.023884
_cell_angle_beta	90.022648
_cell_angle_gamma	90.003670
loop_
_atom_site_label
_atom_site_type_symbol
_atom_site_fract_x
_atom_site_fract_y
_atom_site_fract_z
Zn1	Zn	1.200185	-0.418209	0.594116
Zn2	Zn	1.200129	-0.593925	0.418457
Zn3	Zn	1.068910	-0.418261	0.418446
Zn4	Zn	1.068929	-0.593847	0.594089
O5	O	1.134538	-0.506060	0.506277
O6	O	1.310025	-0.441529	0.570831
O7	O	1.182691	-0.570677	0.271434
O8	O	1.086339	-0.271233	0.441756
O9	O	1.309984	-0.570626	0.441774
O10	O	1.182786	-0.271195	0.570821
O11	O	1.086285	-0.441617	0.271427
O12	O	0.959065	-0.441542	0.441730
O13	O	1.086372	-0.570494	0.741113
O14	O	0.959080	-0.570545	0.570773
O15	O	1.182805	-0.441454	0.741134
O16	O	1.182711	-0.740935	0.441748
O17	O	1.086318	-0.740879	0.570784
C18	C	0.930591	-0.506041	0.506248
C19	C	0.843341	-0.506059	0.506261
C20	C	1.134532	-0.779028	0.506287
C21	C	1.134601	-0.895804	0.506326
C22	C	1.134597	-0.505960	0.780310
C23	C	1.134622	-0.505917	0.897087
C24	C	0.802379	-0.573332	0.573346
C25	C	0.720398	-0.573334	0.573363
C26	C	0.679381	-0.506068	0.506288
C27	C	0.720349	-0.438787	0.439200
C28	C	0.802328	-0.438781	0.439189
C29	C	0.549479	-0.438808	0.439225
C30	C	0.467494	-0.438816	0.439234
C31	C	0.467549	-0.573361	0.573399
C32	C	0.549528	-0.573354	0.573388
C33	C	0.590490	-0.506075	0.506298
C34	C	1.339283	-0.506080	0.506307
C35	C	1.426532	-0.506089	0.506319
C36	C	1.134566	-0.232027	0.506290
C37	C	1.134578	-0.115251	0.506296
C38	C	1.084371	-0.060407	0.439105
C39	C	1.084380	0.049317	0.439122
C40	C	1.184810	0.049344	0.573524
C41	C	1.184796	-0.060378	0.573512
C42	C	1.134525	-0.506085	0.233310
C43	C	1.134652	-0.505832	0.116533
C44	C	1.184839	-0.438714	0.951961
C45	C	1.184852	-0.438669	1.061686
C46	C	1.084430	-0.573037	1.061652
C47	C	1.084413	-0.573076	0.951929
H48	H	0.835769	-0.628111	0.627962
O49	O	1.233532	-0.113545	0.638931
C50	C	1.216387	-0.086721	0.743644
H51	H	1.186226	-0.007048	0.745827
H52	H	1.176025	-0.148455	0.779013
C53	C	1.329969	-0.179507	0.804621
C54	C	1.292930	-0.081647	0.807302
H55	H	1.377183	-0.176382	0.843891
H56	H	1.341519	-0.197583	0.734074
H57	H	1.296326	-0.230942	0.834093
H58	H	1.326569	-0.030217	0.777819
H59	H	1.281388	-0.063562	0.877846
O60	O	1.035547	-0.113826	0.373968
C61	C	0.984840	-0.177248	0.433772
H62	H	1.012542	-0.193668	0.513392
H63	H	0.926677	-0.134948	0.445315
C64	C	0.936573	-0.261320	0.278160
C65	C	0.970601	-0.281494	0.375948
H66	H	0.927786	-0.325622	0.242491
H67	H	0.970734	-0.218589	0.237868
H68	H	0.888108	-0.226068	0.287794
H69	H	1.019069	-0.316734	0.366313
H70	H	0.936448	-0.324234	0.416237
H71	H	1.225697	0.094032	0.628249
O72	O	1.233557	-0.373420	1.115152
C73	C	1.222818	-0.387796	1.223757
H74	H	1.162238	-0.422194	1.238724
H75	H	1.269378	-0.443733	1.254910
C76	C	1.304432	-0.239220	1.261706
C77	C	1.230024	-0.281461	1.280089
H78	H	1.308881	-0.173630	1.296456
H79	H	1.311670	-0.229537	1.188537
H80	H	1.343224	-0.285845	1.287667
H81	H	1.191235	-0.234842	1.254117
H82	H	1.222781	-0.291134	1.353255
O83	O	1.035738	-0.638244	1.115090
C84	C	1.046506	-0.623784	1.223701
H85	H	1.107092	-0.589379	1.238705
H86	H	0.999957	-0.567818	1.254830
C87	C	0.964895	-0.772322	1.261597
C88	C	1.039310	-0.730074	1.280025
H89	H	0.960453	-0.837885	1.296342
H90	H	0.957638	-0.782063	1.188424
H91	H	0.926113	-0.725674	1.287538
H92	H	1.078091	-0.776716	1.254072
H93	H	1.046575	-0.720344	1.353196
H94	H	0.687051	-0.628115	0.627989
O95	O	1.035716	-0.638513	0.898664
C96	C	1.052848	-0.743218	0.925488
H97	H	1.115561	-0.748522	0.955670
H98	H	1.010767	-0.770656	0.989161
C99	C	0.966668	-0.806848	0.790938
C100	C	1.043695	-0.813364	0.827999
H101	H	0.961019	-0.850120	0.730804
H102	H	0.955123	-0.736307	0.772868
H103	H	0.931609	-0.829711	0.844008
H104	H	1.078751	-0.790489	0.774935
H105	H	1.055246	-0.883904	0.846058
O106	O	0.589252	-0.638731	0.638640
C107	C	0.535521	-0.698133	0.697840
H108	H	0.477083	-0.655114	0.701560
H109	H	0.526790	-0.777881	0.659238
C110	C	0.639337	-0.766243	0.805056
C111	C	0.567565	-0.713402	0.809633
H112	H	0.659104	-0.775666	0.874014
H113	H	0.675538	-0.726226	0.765170
H114	H	0.632052	-0.832693	0.772883
H115	H	0.574853	-0.646948	0.841793
H116	H	0.531366	-0.753408	0.849527
H117	H	0.434194	-0.628139	0.628029
H118	H	0.434101	-0.384029	0.384629
H119	H	0.686947	-0.384014	0.384591
O120	O	0.589149	-0.373427	0.373948
C121	C	0.535370	-0.314045	0.314760
H122	H	0.476929	-0.357074	0.311072
H123	H	0.526671	-0.234291	0.353351
C124	C	0.639098	-0.245938	0.207488
C125	C	0.567321	-0.298791	0.202950
H126	H	0.658808	-0.236524	0.138520
H127	H	0.675331	-0.285941	0.247366
H128	H	0.631839	-0.179482	0.239651
H129	H	0.574583	-0.365250	0.170800
H130	H	0.531090	-0.258798	0.163064
H131	H	1.043497	0.093968	0.384410
H132	H	0.835678	-0.383994	0.384567
H133	H	1.225720	-0.384026	0.907312
