data_functionalizedCrystal
_audit_creation_method	'MofGen! by Chris Wilmer'
_symmetry_space_group_name_H-M	'P1'
_symmetry_Int_Tables_number	1
_symmetry_cell_setting	triclinic
loop_
_symmetry_equiv_pos_as_xyz
  x,y,z
_cell_length_a	42.795324
_cell_length_b	42.779590
_cell_length_c	42.784893
_cell_angle_alpha	119.999958
_cell_angle_beta	90.000498
_cell_angle_gamma	59.987998
loop_
_atom_site_label
_atom_site_type_symbol
_atom_site_fract_x
_atom_site_fract_y
_atom_site_fract_z
O1	O	-0.214288	-0.275767	-0.009302
O2	O	-0.168865	-0.211747	0.009251
O3	O	-0.168848	-0.275766	-0.054754
O4	O	-0.214305	-0.211749	0.054703
O5	O	-0.220834	-0.223766	-0.054750
O6	O	-0.220851	-0.159748	0.009256
O7	O	-0.266274	-0.223767	-0.009298
Cu8	Cu	-0.248309	-0.187009	-0.000021
Cu9	Cu	-0.186830	-0.248505	-0.000026
O10	O	-0.266291	-0.159749	0.054707
C11	C	-0.079112	0.005332	0.028111
C12	C	-0.098001	-0.013389	0.028378
C13	C	-0.022515	-0.051278	0.028115
C14	C	-0.041490	-0.069913	0.028382
C15	C	-0.079101	-0.051276	0.028117
C16	C	-0.041502	-0.013390	0.028377
C17	C	-0.113690	0.131594	0.017853
C18	C	-0.131508	0.167354	0.014952
C19	C	-0.168778	0.185293	0.013497
C20	C	-0.188096	0.224062	0.010345
C21	C	-0.188230	0.167471	0.014946
C22	C	-0.170415	0.131717	0.017851
C23	C	-0.133143	0.113778	0.019304
C24	C	-0.170748	-0.096092	0.017875
C25	C	-0.188679	-0.116808	0.014980
C26	C	-0.169338	-0.155545	0.013527
C27	C	-0.188774	-0.178013	0.010383
C28	C	-0.132063	-0.173563	0.014974
C29	C	-0.114135	-0.152845	0.017876
C30	C	-0.133481	-0.114107	0.019324
C31	C	0.113950	-0.096099	0.017868
C32	C	0.152599	-0.116819	0.014967
C33	C	0.171992	-0.155557	0.013515
C34	C	0.213898	-0.178026	0.010367
C35	C	0.152736	-0.173573	0.014962
C36	C	0.114089	-0.152853	0.017862
C37	C	0.094697	-0.114113	0.019318
C38	C	-0.113826	0.075006	0.022451
C39	C	-0.098429	0.044102	0.024961
C40	C	0.019389	-0.073744	0.024969
C41	C	0.052791	-0.091650	0.022463
C42	C	-0.098540	-0.073741	0.024972
C43	C	-0.114037	-0.091646	0.022467
C44	C	-0.079020	-0.384495	-0.361620
C45	C	-0.041403	-0.422387	-0.380519
C46	C	-0.079020	-0.384496	-0.305021
C47	C	-0.041403	-0.422387	-0.324007
C48	C	-0.022420	-0.441111	-0.361624
C49	C	-0.097917	-0.365858	-0.324003
C50	C	-0.170704	-0.282540	-0.396173
C51	C	-0.188645	-0.261696	-0.413986
C52	C	-0.169305	-0.279587	-0.451262
C53	C	-0.188754	-0.256985	-0.470575
C54	C	-0.132024	-0.318325	-0.470726
C55	C	-0.114087	-0.339168	-0.452914
C56	C	-0.133429	-0.321274	-0.415636
C57	C	0.114068	-0.567387	-0.453312
C58	C	0.152719	-0.603152	-0.471255
C59	C	0.172111	-0.621093	-0.451918
C60	C	0.214020	-0.659866	-0.471366
C61	C	0.152845	-0.603268	-0.414636
C62	C	0.114193	-0.567510	-0.396697
C63	C	0.094807	-0.549569	-0.416039
C64	C	-0.170703	-0.282540	-0.168527
C65	C	-0.188643	-0.261694	-0.129872
C66	C	-0.169303	-0.279584	-0.110483
C67	C	-0.188752	-0.256982	-0.068571
C68	C	-0.132023	-0.318318	-0.129750
C69	C	-0.114085	-0.339162	-0.168404
C70	C	-0.133430	-0.321271	-0.187790
C71	C	-0.113975	-0.343877	-0.396325
C72	C	-0.098470	-0.361893	-0.380931
C73	C	-0.098470	-0.361893	-0.263110
C74	C	-0.113975	-0.343877	-0.229703
C75	C	0.019490	-0.479884	-0.381076
C76	C	0.052896	-0.510792	-0.396582
C77	C	-0.356010	-0.440874	-0.028197
C78	C	-0.393621	-0.422150	-0.028460
C79	C	-0.356026	-0.384258	-0.028191
C80	C	-0.393638	-0.365620	-0.028454
C81	C	-0.412610	-0.384259	-0.028192
C82	C	-0.337123	-0.422149	-0.028459
C83	C	-0.264318	-0.567153	-0.017962
C84	C	-0.246372	-0.602918	-0.015069
C85	C	-0.265702	-0.620859	-0.013616
C86	C	-0.246248	-0.659634	-0.010471
C87	C	-0.302978	-0.603035	-0.015061
C88	C	-0.320918	-0.567276	-0.017959
C89	C	-0.301587	-0.549335	-0.019410
C90	C	-0.549075	-0.339439	-0.017942
C91	C	-0.587723	-0.318722	-0.015043
C92	C	-0.607121	-0.279980	-0.013583
C93	C	-0.649026	-0.257510	-0.010435
C94	C	-0.587865	-0.261960	-0.015027
C95	C	-0.549217	-0.282680	-0.017933
C96	C	-0.529825	-0.321422	-0.019388
C97	C	-0.264384	-0.339434	-0.017940
C98	C	-0.246456	-0.318712	-0.015035
C99	C	-0.265802	-0.279970	-0.013577
C100	C	-0.246366	-0.257499	-0.010426
C101	C	-0.303076	-0.261951	-0.015020
C102	C	-0.321002	-0.282673	-0.017923
C103	C	-0.301651	-0.321417	-0.019386
C104	C	-0.321046	-0.510557	-0.022550
C105	C	-0.336555	-0.479648	-0.025054
C106	C	-0.336589	-0.361790	-0.025042
C107	C	-0.321094	-0.343882	-0.022533
C108	C	-0.454516	-0.361792	-0.025043
C109	C	-0.487918	-0.343885	-0.022535
O110	O	0.337150	-0.223779	-0.009306
O111	O	0.227709	-0.159761	0.009240
O112	O	0.291712	-0.223787	-0.054762
O113	O	0.273148	-0.159752	0.054696
O114	O	0.291723	-0.275780	-0.054757
O115	O	0.227720	-0.211754	0.009245
O116	O	0.337161	-0.275772	-0.009301
Cu117	Cu	0.282441	-0.248510	-0.000028
Cu118	Cu	0.282429	-0.187022	-0.000034
O119	O	0.273158	-0.211745	0.054701
O120	O	-0.266145	0.327673	-0.009342
O121	O	-0.220686	0.236755	0.009214
O122	O	-0.220680	0.236741	-0.054792
O123	O	-0.266150	0.327687	0.054665
O124	O	-0.168708	0.236740	-0.054793
O125	O	-0.168714	0.236754	0.009213
O126	O	-0.214173	0.327672	-0.009343
Cu127	Cu	-0.186698	0.282213	-0.000065
Cu128	Cu	-0.248161	0.282214	-0.000063
O129	O	-0.214178	0.327686	0.054663
O130	O	0.337289	-0.763491	-0.496919
O131	O	0.227839	-0.672559	-0.451462
O132	O	0.291823	-0.672558	-0.451460
O133	O	0.273306	-0.763492	-0.496921
O134	O	0.291824	-0.672559	-0.503445
O135	O	0.227841	-0.672560	-0.503447
O136	O	0.337290	-0.763492	-0.548904
Cu137	Cu	0.282566	-0.718026	-0.530922
Cu138	Cu	0.282564	-0.718025	-0.469444
O139	O	0.273307	-0.763493	-0.548906
O140	O	-0.214310	-0.211744	-0.548617
O141	O	-0.168849	-0.275765	-0.503172
O142	O	-0.168867	-0.211745	-0.503165
O143	O	-0.214291	-0.275764	-0.548624
O144	O	-0.220852	-0.159746	-0.451176
O145	O	-0.220833	-0.223766	-0.451183
O146	O	-0.266294	-0.159746	-0.496628
Cu147	Cu	-0.248311	-0.187008	-0.469159
Cu148	Cu	-0.186833	-0.248502	-0.530641
O149	O	-0.266276	-0.223766	-0.496635
C150	C	-0.412477	0.005353	0.361577
C151	C	-0.393494	-0.013370	0.380472
C152	C	-0.355877	-0.051262	0.304974
C153	C	-0.336979	-0.069900	0.323956
C154	C	-0.355877	-0.051261	0.361573
C155	C	-0.393493	-0.013371	0.323960
C156	C	-0.548964	0.131630	0.396146
C157	C	-0.587616	0.167395	0.413963
C158	C	-0.607006	0.185335	0.451239
C159	C	-0.648917	0.224109	0.470557
C160	C	-0.587740	0.167511	0.470699
C161	C	-0.549090	0.131753	0.452884
C162	C	-0.529702	0.113812	0.415606
C163	C	-0.321313	-0.096082	0.453249
C164	C	-0.303498	-0.116799	0.471188
C165	C	-0.266223	-0.155540	0.451847
C166	C	-0.246905	-0.178010	0.471291
C167	C	-0.246762	-0.173560	0.414565
C168	C	-0.264574	-0.152839	0.396630
C169	C	-0.301854	-0.114098	0.415976
C170	C	-0.321310	-0.096084	0.168484
C171	C	-0.303496	-0.116806	0.129829
C172	C	-0.266220	-0.155546	0.110436
C173	C	-0.246903	-0.178017	0.068524
C174	C	-0.246761	-0.173566	0.129699
C175	C	-0.264577	-0.152844	0.168353
C176	C	-0.301852	-0.114100	0.187743
C177	C	-0.487792	0.075035	0.396290
C178	C	-0.454386	0.044127	0.380893
C179	C	-0.336561	-0.073729	0.263063
C180	C	-0.321165	-0.091637	0.229656
C181	C	-0.336562	-0.073728	0.381020
C182	C	-0.321167	-0.091635	0.396523
C183	C	0.310622	-0.440908	-0.361624
C184	C	0.310882	-0.422188	-0.380524
C185	C	0.310612	-0.384291	-0.305026
C186	C	0.310872	-0.365658	-0.324013
C187	C	0.310610	-0.384299	-0.361629
C188	C	0.310883	-0.422180	-0.324007
C189	C	0.300402	-0.567174	-0.396174
C190	C	0.297512	-0.602937	-0.413986
C191	C	0.296060	-0.620881	-0.451262
C192	C	0.292920	-0.659653	-0.470575
C193	C	0.297502	-0.603061	-0.470726
C194	C	0.300397	-0.567304	-0.452916
C195	C	0.301847	-0.549361	-0.415638
C196	C	0.300354	-0.339495	-0.453317
C197	C	0.297452	-0.318782	-0.471260
C198	C	0.295989	-0.280043	-0.451923
C199	C	0.292838	-0.257577	-0.471372
C200	C	0.297432	-0.262020	-0.414643
C201	C	0.300340	-0.282736	-0.396703
C202	C	0.301799	-0.321475	-0.416044
C203	C	0.300361	-0.339454	-0.168533
C204	C	0.297457	-0.318730	-0.129878
C205	C	0.295995	-0.279991	-0.110491
C206	C	0.292844	-0.257517	-0.068578
C207	C	0.297435	-0.261976	-0.129758
C208	C	0.300338	-0.282700	-0.168411
C209	C	0.301805	-0.321443	-0.187797
C210	C	0.304982	-0.510586	-0.396327
C211	C	0.307483	-0.479679	-0.380934
C212	C	0.307462	-0.361820	-0.263116
C213	C	0.304953	-0.343910	-0.229709
C214	C	0.307459	-0.361837	-0.381081
C215	C	0.304948	-0.343934	-0.396587
C216	C	0.254260	-0.050989	0.361568
C217	C	0.253988	-0.013100	0.380462
C218	C	0.254259	-0.050997	0.304965
C219	C	0.253987	-0.013108	0.323946
C220	C	0.254249	0.005619	0.361562
C221	C	0.253998	-0.069630	0.323951
C222	C	0.264525	-0.152928	0.396140
C223	C	0.267427	-0.173767	0.413957
C224	C	0.268878	-0.155873	0.451233
C225	C	0.272031	-0.178470	0.470551
C226	C	0.267425	-0.117137	0.470691
C227	C	0.264519	-0.096299	0.452876
C228	C	0.263069	-0.114196	0.415598
C229	C	0.264471	0.131893	0.453234
C230	C	0.267361	0.167657	0.471172
C231	C	0.268813	0.185592	0.451830
C232	C	0.271952	0.224364	0.471273
C233	C	0.267370	0.167764	0.414549
C234	C	0.264473	0.132008	0.396615
C235	C	0.263026	0.114072	0.415962
C236	C	0.264520	-0.152961	0.168477
C237	C	0.267425	-0.173811	0.129822
C238	C	0.268875	-0.155925	0.110429
C239	C	0.272026	-0.178531	0.068517
C240	C	0.267424	-0.117193	0.129691
C241	C	0.264521	-0.096346	0.168344
C242	C	0.263065	-0.114232	0.187735
C243	C	0.259921	-0.091599	0.396282
C244	C	0.257411	-0.073586	0.380884
C245	C	0.257408	-0.073603	0.263055
C246	C	0.259918	-0.091622	0.229647
C247	C	0.257388	0.044391	0.381009
C248	C	0.259889	0.075297	0.396510
C249	C	-0.022478	-0.051362	-0.361660
C250	C	-0.041451	-0.070002	-0.380558
C251	C	-0.079081	0.005260	-0.305060
C252	C	-0.097967	-0.013466	-0.324043
C253	C	-0.079063	-0.051362	-0.361660
C254	C	-0.041468	-0.013467	-0.324044
C255	C	0.113988	-0.096187	-0.396223
C256	C	0.152637	-0.116906	-0.414038
C257	C	0.172033	-0.155651	-0.451314
C258	C	0.213941	-0.178123	-0.470630
C259	C	0.152778	-0.173673	-0.470775
C260	C	0.114131	-0.152950	-0.452962
C261	C	0.094736	-0.114205	-0.415684
C262	C	-0.113586	-0.153326	-0.453339
C263	C	-0.131390	-0.174172	-0.471279
C264	C	-0.168660	-0.156282	-0.451940
C265	C	-0.187965	-0.178882	-0.471386
C266	C	-0.188127	-0.117540	-0.414659
C267	C	-0.170327	-0.096692	-0.396722
C268	C	-0.133052	-0.114591	-0.416067
C269	C	-0.113673	0.131553	-0.168569
C270	C	-0.131493	0.167320	-0.129914
C271	C	-0.168765	0.185263	-0.110524
C272	C	-0.188088	0.224042	-0.068611
C273	C	-0.188214	0.167436	-0.129788
C274	C	-0.170392	0.131669	-0.168441
C275	C	-0.133122	0.113733	-0.187830
C276	C	0.052831	-0.091740	-0.396370
C277	C	0.019427	-0.073831	-0.380974
C278	C	-0.098402	0.044039	-0.263149
C279	C	-0.113803	0.074951	-0.229742
C280	C	-0.098365	-0.073966	-0.381109
C281	C	-0.113751	-0.091984	-0.396613
O282	O	0.273124	-0.159827	-0.496921
O283	O	0.291693	-0.223838	-0.451465
O284	O	0.227688	-0.159834	-0.451470
O285	O	0.337129	-0.223831	-0.496916
O286	O	0.227714	-0.211845	-0.503460
O287	O	0.291719	-0.275849	-0.503455
O288	O	0.273150	-0.211838	-0.548911
Cu289	Cu	0.282437	-0.248593	-0.530930
Cu290	Cu	0.282406	-0.187083	-0.469446
O291	O	0.337155	-0.275842	-0.548906
C292	C	-0.356042	0.615789	0.361531
C293	C	-0.393655	0.634429	0.380429
C294	C	-0.356024	0.559167	0.304931
C295	C	-0.393637	0.577893	0.323915
C296	C	-0.412627	0.615789	0.361531
C297	C	-0.337138	0.577893	0.323915
C298	C	-0.264400	0.660614	0.396093
C299	C	-0.246470	0.681333	0.413908
C300	C	-0.265818	0.720078	0.451184
C301	C	-0.246382	0.742551	0.470499
C302	C	-0.303094	0.738100	0.470645
C303	C	-0.321019	0.717377	0.452832
C304	C	-0.301670	0.678632	0.415554
C305	C	-0.549111	0.717753	0.453212
C306	C	-0.587760	0.738598	0.471152
C307	C	-0.607141	0.720708	0.451813
C308	C	-0.649046	0.743309	0.471259
C309	C	-0.587868	0.681966	0.414532
C310	C	-0.549219	0.661118	0.396595
C311	C	-0.529843	0.679018	0.415939
C312	C	-0.264327	0.432873	0.168440
C313	C	-0.246381	0.397107	0.129785
C314	C	-0.265711	0.379164	0.110395
C315	C	-0.246256	0.340385	0.068483
C316	C	-0.302986	0.396991	0.129660
C317	C	-0.320930	0.432757	0.168313
C318	C	-0.301595	0.450694	0.187701
C319	C	-0.321110	0.656167	0.396240
C320	C	-0.336605	0.638258	0.380845
C321	C	-0.336568	0.520388	0.263021
C322	C	-0.321057	0.489476	0.229614
C323	C	-0.454533	0.638393	0.380981
C324	C	-0.487936	0.656411	0.396485
H325	H	-0.083787	-0.167516	0.019056
C326	C	0.092906	-0.172668	0.019458
C327	C	0.107015	-0.219793	-0.013916
C328	C	0.085833	-0.239609	-0.012319
C329	C	0.050542	-0.212299	0.022650
C330	C	0.036431	-0.165171	0.056026
C331	C	0.057614	-0.145356	0.054430
H332	H	0.133141	-0.240012	-0.039805
H333	H	0.096279	-0.274496	-0.037027
H334	H	0.034861	-0.226967	0.023832
H335	H	0.010305	-0.144952	0.081915
H336	H	0.047168	-0.110468	0.079138
C337	C	-0.139748	0.007778	0.028952
C338	C	-0.160613	-0.012814	0.029247
C339	C	-0.202358	0.008351	0.029821
C340	C	-0.223238	0.050107	0.030100
C341	C	-0.202373	0.070701	0.029806
C342	C	-0.160628	0.049536	0.029232
H343	H	-0.145156	-0.043727	0.029040
H344	H	-0.217803	-0.006895	0.030039
H345	H	-0.254140	0.065774	0.030525
H346	H	-0.217830	0.101613	0.030013
H347	H	-0.145183	0.064781	0.029014
C348	C	0.295905	-0.622798	-0.511727
C349	C	0.263327	-0.593684	-0.520560
C350	C	0.261730	-0.613420	-0.561562
C351	C	0.292711	-0.662270	-0.593731
C352	C	0.325291	-0.691386	-0.584899
C353	C	0.326888	-0.671650	-0.543897
H354	H	0.240391	-0.557520	-0.496745
H355	H	0.237612	-0.591866	-0.568100
H356	H	0.291528	-0.676879	-0.624084
H357	H	0.348227	-0.727550	-0.608714
H358	H	0.351007	-0.693205	-0.537359
C359	C	-0.528020	0.618506	0.355590
C360	C	-0.549333	0.598823	0.334313
C361	C	-0.528135	0.556211	0.293307
C362	C	-0.485624	0.533284	0.273576
C363	C	-0.464309	0.552967	0.294853
C364	C	-0.485507	0.595578	0.335860
H365	H	-0.580805	0.615795	0.348919
H366	H	-0.543914	0.541640	0.277557
H367	H	-0.469932	0.501740	0.243221
H368	H	-0.432837	0.535994	0.280247
H369	H	-0.469728	0.610149	0.351610
C370	C	0.174066	-0.216183	0.013368
C371	C	0.160066	-0.215874	0.046743
C372	C	0.181395	-0.258482	0.045151
C373	C	0.216724	-0.301398	0.010183
C374	C	0.230727	-0.301709	-0.023194
C375	C	0.209398	-0.259101	-0.021601
H376	H	0.133911	-0.184104	0.072630
H377	H	0.171029	-0.258252	0.069859
H378	H	0.232514	-0.332939	0.009004
H379	H	0.256882	-0.333479	-0.049081
H380	H	0.219763	-0.259331	-0.046310
C381	C	-0.020921	0.007776	0.028951
C382	C	0.020535	-0.012816	0.029246
C383	C	0.041116	0.008349	0.029821
C384	C	0.020240	0.050107	0.030103
C385	C	-0.021219	0.070701	0.029808
C386	C	-0.041799	0.049536	0.029233
H387	H	0.035991	-0.043729	0.029038
H388	H	0.071806	-0.006896	0.030039
H389	H	0.035475	0.065775	0.030529
H390	H	-0.036674	0.101615	0.030017
H391	H	-0.072490	0.064781	0.029015
C392	C	-0.243113	0.617994	0.355090
C393	C	-0.259769	0.616799	0.322918
C394	C	-0.238485	0.574181	0.281915
C395	C	-0.200545	0.532757	0.273084
C396	C	-0.183888	0.533951	0.305257
C397	C	-0.205172	0.576569	0.346260
H398	H	-0.287856	0.647464	0.329455
H399	H	-0.250816	0.573297	0.258099
H400	H	-0.184790	0.501209	0.242731
H401	H	-0.155801	0.503286	0.298720
H402	H	-0.192841	0.577453	0.370076
C403	C	-0.139715	0.007705	-0.303453
C404	C	-0.149969	-0.019142	-0.297523
C405	C	-0.191715	0.002028	-0.276934
C406	C	-0.223208	0.050044	-0.262275
C407	C	-0.212955	0.076893	-0.268205
C408	C	-0.171209	0.055723	-0.288794
H409	H	-0.126655	-0.054688	-0.308375
H410	H	-0.199304	-0.017848	-0.272545
H411	H	-0.254110	0.065715	-0.247034
H412	H	-0.236269	0.112439	-0.257353
H413	H	-0.163620	0.075599	-0.293183
H414	H	-0.318843	0.769645	0.500995
C415	C	-0.324249	0.377253	0.108333
C416	C	-0.337943	0.357883	0.122336
C417	C	-0.359206	0.338146	0.101010
C418	C	-0.366775	0.337779	0.065681
C419	C	-0.353081	0.357150	0.051675
C420	C	-0.331818	0.376887	0.073001
H421	H	-0.332341	0.358154	0.148491
H422	H	-0.369344	0.323806	0.111378
H423	H	-0.382515	0.323169	0.049894
H424	H	-0.358683	0.356880	0.025520
H425	H	-0.321681	0.391227	0.062633
H426	H	0.168275	-0.102147	0.013788
C427	C	-0.020812	-0.443560	-0.303423
C428	C	-0.041685	-0.422966	-0.261956
C429	C	-0.021094	-0.444139	-0.241374
C430	C	0.020368	-0.485907	-0.262258
C431	C	0.041243	-0.506503	-0.303727
C432	C	0.020653	-0.485329	-0.324309
H433	H	-0.072380	-0.392045	-0.246494
H434	H	-0.036548	-0.428893	-0.210676
H435	H	0.035611	-0.501580	-0.247022
H436	H	0.071939	-0.537423	-0.319188
H437	H	0.036106	-0.500576	-0.355007
C438	C	0.269018	-0.097515	0.108361
C439	C	0.301589	-0.092158	0.104882
C440	C	0.303184	-0.072482	0.083552
C441	C	0.272206	-0.058163	0.065702
C442	C	0.239632	-0.063520	0.069181
C443	C	0.238038	-0.083196	0.090510
H444	H	0.324523	-0.102758	0.118096
H445	H	0.327297	-0.068516	0.080977
H446	H	0.273386	-0.043597	0.049913
H447	H	0.216699	-0.052920	0.055967
H448	H	0.213924	-0.087162	0.093085
H449	H	0.268605	-0.102570	0.501042
H450	H	-0.248730	-0.167518	0.184034
H451	H	-0.533542	-0.268006	-0.019109
C452	C	0.092952	-0.172773	-0.474366
C453	C	0.114285	-0.215391	-0.515367
C454	C	0.093106	-0.235215	-0.536771
C455	C	0.050595	-0.212421	-0.517175
C456	C	0.029260	-0.169802	-0.476172
C457	C	0.050439	-0.149977	-0.454768
H458	H	0.145756	-0.232266	-0.529875
H459	H	0.108900	-0.266765	-0.567124
H460	H	0.034918	-0.227097	-0.533020
H461	H	-0.002211	-0.152926	-0.461664
H462	H	0.034645	-0.118427	-0.424415
C463	C	0.253410	0.008076	0.422216
C464	C	0.253110	0.049841	0.443087
C465	C	0.252531	0.071016	0.484839
C466	C	0.252253	0.050427	0.505719
C467	C	0.252552	0.008660	0.484848
C468	C	0.253131	-0.012515	0.443096
H469	H	0.253317	0.065084	0.427630
H470	H	0.252309	0.101935	0.500289
H471	H	0.251824	0.066103	0.536626
H472	H	0.252346	-0.006583	0.500305
H473	H	0.253353	-0.043434	0.427646
H474	H	-0.306244	0.562243	0.308665
H475	H	0.268611	-0.205306	0.398111
C476	C	-0.110750	-0.338004	-0.511727
C477	C	-0.072818	-0.343368	-0.520561
C478	C	-0.051542	-0.363049	-0.561564
C479	C	-0.068199	-0.377366	-0.593733
C480	C	-0.106133	-0.372002	-0.584900
C481	C	-0.127409	-0.352321	-0.543897
H482	H	-0.060486	-0.332769	-0.496746
H483	H	-0.023460	-0.367019	-0.568102
H484	H	-0.052449	-0.391935	-0.624086
H485	H	-0.118466	-0.382601	-0.608715
H486	H	-0.155491	-0.348351	-0.537359
H487	H	0.263297	0.117496	0.366262
C488	C	-0.295376	-0.443315	-0.029036
C489	C	-0.263893	-0.460151	-0.062385
C490	C	-0.222147	-0.481314	-0.062961
C491	C	-0.211884	-0.485641	-0.030189
C492	C	-0.243367	-0.468804	0.003162
C493	C	-0.285113	-0.447641	0.003738
H494	H	-0.271490	-0.456949	-0.086647
H495	H	-0.198842	-0.493778	-0.087650
H496	H	-0.180981	-0.501307	-0.030616
H497	H	-0.235770	-0.472006	0.027424
H498	H	-0.308418	-0.435177	0.028427
C499	C	-0.229214	0.187171	-0.108462
C500	C	-0.261387	0.236016	-0.090613
C501	C	-0.302385	0.255750	-0.069289
C502	C	-0.311211	0.226639	-0.065814
C503	C	-0.279038	0.177791	-0.083663
C504	C	-0.238039	0.158057	-0.104987
H505	H	-0.254854	0.257568	-0.093185
H506	H	-0.326202	0.291910	-0.056076
H507	H	-0.341561	0.241247	-0.050028
H508	H	-0.285570	0.156239	-0.081091
H509	H	-0.214222	0.121897	-0.118201
H510	H	0.301583	-0.552569	-0.365822
H511	H	-0.026164	-0.438056	-0.411427
C512	C	-0.414086	0.007809	0.303381
C513	C	-0.420013	-0.019027	0.266275
C514	C	-0.440608	0.002156	0.245701
C515	C	-0.455276	0.050176	0.262232
C516	C	-0.449349	0.077015	0.299340
C517	C	-0.428754	0.055831	0.319914
H518	H	-0.409155	-0.054577	0.254036
H519	H	-0.444995	-0.017712	0.218231
H520	H	-0.470521	0.065857	0.247002
H521	H	-0.460207	0.112565	0.311579
H522	H	-0.424367	0.075700	0.347384
H523	H	-0.186231	0.117157	-0.184124
C524	C	0.268954	0.187261	0.512175
C525	C	0.237972	0.236077	0.544417
C526	C	0.239566	0.255680	0.585420
C527	C	0.272141	0.226467	0.594182
C528	C	0.303125	0.177647	0.561939
C529	C	0.301531	0.158044	0.520936
H530	H	0.213856	0.257705	0.537932
H531	H	0.216630	0.291819	0.609289
H532	H	0.273321	0.240978	0.624535
H533	H	0.327241	0.156019	0.568424
H534	H	0.324468	0.121905	0.497067
H535	H	-0.603398	-0.333395	-0.013865
C536	C	-0.608807	0.186996	0.392557
C537	C	-0.594718	0.206276	0.378822
C538	C	-0.615910	0.225877	0.357416
C539	C	-0.651191	0.226197	0.349744
C540	C	-0.665282	0.206916	0.363480
C541	C	-0.644090	0.187315	0.384886
H542	H	-0.568599	0.206040	0.384501
H543	H	-0.605478	0.240150	0.347248
H544	H	-0.666878	0.240706	0.333898
H545	H	-0.691400	0.207152	0.357801
H546	H	-0.654521	0.173042	0.395054
C547	C	0.268963	0.187492	0.393272
C548	C	0.237982	0.236340	0.409939
C549	C	0.239577	0.256067	0.388661
C550	C	0.272154	0.226947	0.350715
C551	C	0.303137	0.178096	0.334046
C552	C	0.301542	0.158369	0.355325
H553	H	0.213865	0.257899	0.438030
H554	H	0.216641	0.292229	0.401000
H555	H	0.273335	0.241550	0.334964
H556	H	0.327255	0.156537	0.305955
H557	H	0.324478	0.122207	0.342985
C558	C	-0.527794	0.737431	0.474494
C559	C	-0.485282	0.714500	0.454767
C560	C	-0.463962	0.734173	0.476049
C561	C	-0.485156	0.776777	0.517057
C562	C	-0.527671	0.799710	0.536786
C563	C	-0.548990	0.780037	0.515505
H564	H	-0.469591	0.682960	0.424409
H565	H	-0.432490	0.717196	0.461444
H566	H	-0.469374	0.791340	0.532811
H567	H	-0.543361	0.831250	0.567145
H568	H	-0.580463	0.797014	0.530109
H569	H	-0.026201	-0.100500	-0.411463
H570	H	0.263337	-0.064808	0.184025
C571	C	-0.109975	-0.216787	-0.512283
C572	C	-0.096238	-0.216433	-0.545298
C573	C	-0.074823	-0.259049	-0.586302
C574	C	-0.067144	-0.302020	-0.594290
C575	C	-0.080881	-0.302375	-0.561275
C576	C	-0.102296	-0.259759	-0.520271
H577	H	-0.101923	-0.184622	-0.539385
H578	H	-0.064654	-0.258786	-0.610742
H579	H	-0.051291	-0.333567	-0.624644
H580	H	-0.075196	-0.334186	-0.567187
H581	H	-0.112465	-0.260022	-0.495830
C582	C	-0.205380	0.377497	0.108594
C583	C	-0.196614	0.406700	0.105222
C584	C	-0.155611	0.387088	0.084032
C585	C	-0.123374	0.338273	0.066214
C586	C	-0.132139	0.309067	0.069586
C587	C	-0.173142	0.328679	0.090776
H588	H	-0.220478	0.442838	0.118412
H589	H	-0.149123	0.408708	0.081536
H590	H	-0.093021	0.323755	0.050527
H591	H	-0.108275	0.272928	0.056395
H592	H	-0.179630	0.307058	0.093272
C593	C	0.174171	-0.623002	-0.393364
C594	C	0.160183	-0.642381	-0.379667
C595	C	0.181511	-0.662114	-0.358394
C596	C	0.216826	-0.662468	-0.350818
C597	C	0.230815	-0.643087	-0.364515
C598	C	0.209488	-0.623355	-0.385788
H599	H	0.134040	-0.642121	-0.385275
H600	H	0.171155	-0.676461	-0.348254
H601	H	0.232613	-0.677075	-0.335070
H602	H	0.256959	-0.643348	-0.358907
H603	H	0.219844	-0.609008	-0.395928
C604	C	-0.110110	0.186953	0.013354
C605	C	-0.102438	0.187266	-0.021619
C606	C	-0.081039	0.206864	-0.023218
C607	C	-0.067312	0.226148	0.010156
C608	C	-0.074984	0.225836	0.045132
C609	C	-0.096383	0.206238	0.046731
H610	H	-0.112599	0.172990	-0.046326
H611	H	-0.075360	0.207095	-0.049109
H612	H	-0.051471	0.240655	0.008973
H613	H	-0.064822	0.240112	0.069839
H614	H	-0.102062	0.206007	0.072622
C615	C	-0.205471	0.661514	0.392500
C616	C	-0.197487	0.688816	0.384826
C617	C	-0.156488	0.668997	0.363418
C618	C	-0.123474	0.621876	0.349683
C619	C	-0.131457	0.594571	0.357357
C620	C	-0.172456	0.614390	0.378765
H621	H	-0.221928	0.723701	0.394994
H622	H	-0.150579	0.689210	0.357738
H623	H	-0.093124	0.607204	0.333835
H624	H	-0.107016	0.559686	0.347189
H625	H	-0.178365	0.594177	0.384445
H626	H	-0.318829	-0.230404	-0.013832
H627	H	-0.351352	-0.267998	-0.019098
C628	C	-0.205455	-0.338533	-0.013448
C629	C	-0.173227	-0.352949	-0.044431
C630	C	-0.132225	-0.372772	-0.042846
C631	C	-0.123452	-0.378178	-0.010278
C632	C	-0.155681	-0.363762	0.020707
C633	C	-0.196683	-0.343939	0.019122
H634	H	-0.179720	-0.348948	-0.068541
H635	H	-0.108367	-0.383444	-0.065783
H636	H	-0.093100	-0.392853	-0.009105
H637	H	-0.149188	-0.367763	0.044817
H638	H	-0.220541	-0.333266	0.042059
H639	H	-0.603647	0.667396	0.398788
C640	C	-0.020900	0.007712	-0.303443
C641	C	-0.014991	0.012055	-0.266333
C642	C	0.005573	0.033236	-0.245727
C643	C	0.020228	0.050074	-0.262231
C644	C	0.014319	0.045732	-0.299343
C645	C	-0.006245	0.024551	-0.319949
H646	H	-0.025839	-0.000410	-0.254114
H647	H	0.009947	0.036450	-0.218255
H648	H	0.035451	0.065753	-0.246978
H649	H	0.025168	0.058197	-0.311562
H650	H	-0.010618	0.021337	-0.347421
H651	H	-0.218998	-0.230157	-0.398136
H652	H	-0.408867	0.562219	0.308672
H653	H	-0.218476	-0.102970	-0.398914
H654	H	-0.319345	-0.102125	0.501541
C655	C	-0.110100	0.186928	-0.108723
C656	C	-0.072132	0.157722	-0.105351
C657	C	-0.050739	0.177332	-0.084160
C658	C	-0.067315	0.226147	-0.066340
C659	C	-0.105285	0.255355	-0.069711
C660	C	-0.126678	0.235746	-0.090902
H661	H	-0.059860	0.121584	-0.118543
H662	H	-0.022631	0.155709	-0.081665
H663	H	-0.051479	0.240663	-0.050653
H664	H	-0.117557	0.291494	-0.056519
H665	H	-0.154786	0.257369	-0.093398
H666	H	0.098510	-0.553001	-0.366344
C667	C	0.262925	-0.172613	0.355138
C668	C	0.227957	-0.145208	0.347212
C669	C	0.226357	-0.164891	0.306211
C670	C	0.259725	-0.211979	0.273135
C671	C	0.294696	-0.239387	0.281060
C672	C	0.296296	-0.219704	0.322061
H673	H	0.203253	-0.110348	0.371697
H674	H	0.200469	-0.144602	0.300344
H675	H	0.258541	-0.226550	0.242784
H676	H	0.319400	-0.274247	0.256575
H677	H	0.322184	-0.239993	0.327928
H678	H	0.168574	-0.205218	-0.501125
H679	H	-0.603449	0.770142	0.501505
H680	H	-0.026246	-0.100399	0.028812
H681	H	0.253588	-0.100125	0.308711
H682	H	0.098163	-0.064556	0.019052
C683	C	-0.229224	0.187203	0.013343
C684	C	-0.261397	0.236052	0.044320
C685	C	-0.302392	0.255782	0.042716
C686	C	-0.311214	0.226663	0.010137
C687	C	-0.279041	0.177811	-0.020842
C688	C	-0.238045	0.158081	-0.019239
H689	H	-0.254868	0.257611	0.068439
H690	H	-0.326210	0.291946	0.065649
H691	H	-0.341561	0.241269	0.008950
H692	H	-0.285570	0.156252	-0.044961
H693	H	-0.214228	0.121917	-0.042171
C694	C	0.173817	-0.097087	-0.392631
C695	C	0.177182	-0.091684	-0.354659
C696	C	0.198363	-0.071865	-0.333252
C697	C	0.216178	-0.057449	-0.349817
C698	C	0.212813	-0.062851	-0.387791
C699	C	0.191633	-0.082670	-0.409198
H700	H	0.163994	-0.102357	-0.342395
H701	H	0.200854	-0.067866	-0.305141
H702	H	0.231857	-0.042777	-0.333970
H703	H	0.226002	-0.052178	-0.400055
H704	H	0.189142	-0.086669	-0.437309
H705	H	-0.603659	-0.230417	-0.013842
H706	H	-0.306072	-0.100390	0.308712
C707	C	0.269021	-0.216416	0.108635
C708	C	0.235648	-0.216037	0.122741
C709	C	0.237243	-0.258641	0.101554
C710	C	0.272210	-0.301623	0.066261
C711	C	0.305585	-0.302003	0.052153
C712	C	0.303991	-0.259399	0.073340
H713	H	0.209761	-0.184218	0.148868
H714	H	0.212536	-0.258359	0.111998
H715	H	0.273390	-0.333161	0.050577
H716	H	0.331473	-0.333822	0.026026
H717	H	0.328698	-0.259681	0.062896
H718	H	-0.533406	0.117245	0.468731
H719	H	-0.083343	0.116992	0.019037
H720	H	0.263337	-0.167528	0.184263
H721	H	0.311288	-0.335167	-0.308771
H722	H	-0.351659	-0.064533	0.184271
H723	H	0.263334	-0.064760	0.468721
H724	H	-0.083330	0.116959	-0.184356
C725	C	-0.205374	-0.622519	-0.013475
C726	C	-0.172366	-0.641798	-0.046848
C727	C	-0.131369	-0.661399	-0.045253
C728	C	-0.123378	-0.661720	-0.010285
C729	C	-0.156387	-0.642440	0.023092
C730	C	-0.197385	-0.622840	0.021497
H731	H	-0.178281	-0.641561	-0.072737
H732	H	-0.106934	-0.675671	-0.069961
H733	H	-0.093029	-0.676229	-0.009104
H734	H	-0.150473	-0.642677	0.048980
H735	H	-0.221820	-0.608568	0.046204
H736	H	-0.186256	0.117211	0.019032
H737	H	-0.186503	-0.064551	0.019056
C738	C	-0.229649	-0.219087	-0.108678
C739	C	-0.238431	-0.177733	-0.105306
C740	C	-0.279438	-0.135127	-0.084113
C741	C	-0.311664	-0.133874	-0.066293
C742	C	-0.302884	-0.175230	-0.069665
C743	C	-0.261876	-0.217836	-0.090858
H744	H	-0.214574	-0.178659	-0.118498
H745	H	-0.285938	-0.104513	-0.081617
H746	H	-0.342020	-0.102335	-0.050605
H747	H	-0.326740	-0.174304	-0.056473
H748	H	-0.255376	-0.248449	-0.093354
H749	H	-0.186456	-0.267968	-0.184309
H750	H	-0.128820	-0.335360	-0.308757
C751	C	0.311464	-0.443362	-0.422278
C752	C	0.311754	-0.422775	-0.443156
C753	C	0.312337	-0.443948	-0.484910
C754	C	0.312631	-0.485709	-0.505785
C755	C	0.312341	-0.506299	-0.484907
C756	C	0.311757	-0.485125	-0.443154
H757	H	0.311536	-0.391859	-0.427703
H758	H	0.312552	-0.428706	-0.500365
H759	H	0.313063	-0.501383	-0.536693
H760	H	0.312559	-0.537215	-0.500360
H761	H	0.311543	-0.500367	-0.427698
C762	C	-0.073081	-0.381775	-0.474322
C763	C	-0.051805	-0.401456	-0.515323
C764	C	-0.010798	-0.444062	-0.536730
C765	C	0.008934	-0.466988	-0.517136
C766	C	-0.012342	-0.447307	-0.476133
C767	C	-0.053350	-0.404701	-0.454726
H768	H	-0.066411	-0.384484	-0.529829
H769	H	0.004952	-0.458630	-0.567083
H770	H	0.039290	-0.498527	-0.532983
H771	H	0.002264	-0.464278	-0.461627
H772	H	-0.069099	-0.390132	-0.424373
H773	H	0.263292	0.117294	0.468989
C774	C	-0.110745	-0.338003	-0.108427
C775	C	-0.097033	-0.385088	-0.122432
C776	C	-0.075755	-0.404772	-0.101110
C777	C	-0.068189	-0.377370	-0.065783
C778	C	-0.081901	-0.330282	-0.051776
C779	C	-0.103180	-0.310598	-0.073098
H780	H	-0.102633	-0.405375	-0.148584
H781	H	-0.065604	-0.439630	-0.111479
H782	H	-0.052437	-0.391942	-0.049999
H783	H	-0.076301	-0.309995	-0.025623
H784	H	-0.113330	-0.275740	-0.062729
H785	H	-0.219028	-0.102135	0.013802
C786	C	-0.243169	-0.172659	0.355624
C787	C	-0.202169	-0.215272	0.334345
C788	C	-0.180764	-0.235094	0.293338
C789	C	-0.200361	-0.212303	0.273609
C790	C	-0.241364	-0.169688	0.294888
C791	C	-0.262768	-0.149866	0.335895
H792	H	-0.187660	-0.232146	0.348949
H793	H	-0.150411	-0.266641	0.277586
H794	H	-0.184516	-0.226976	0.243253
H795	H	-0.255872	-0.152814	0.280284
H796	H	-0.293122	-0.118319	0.351647
C797	C	0.295860	-0.338602	-0.512263
C798	C	0.263292	-0.343994	-0.521022
C799	C	0.261698	-0.363815	-0.562025
C800	C	0.292673	-0.378243	-0.594270
C801	C	0.325244	-0.372851	-0.585512
C802	C	0.326837	-0.353031	-0.544509
H803	H	0.240360	-0.333313	-0.497152
H804	H	0.237587	-0.367806	-0.568508
H805	H	0.291494	-0.392915	-0.624623
H806	H	0.348175	-0.383532	-0.609382
H807	H	0.350948	-0.349040	-0.538026
C808	C	-0.191981	-0.262858	-0.355169
C809	C	-0.232986	-0.220254	-0.333762
C810	C	-0.254261	-0.200573	-0.292759
C811	C	-0.234530	-0.223497	-0.273163
C812	C	-0.193523	-0.266104	-0.294571
C813	C	-0.172248	-0.285784	-0.335574
H814	H	-0.247594	-0.203282	-0.348267
H815	H	-0.284618	-0.169033	-0.276911
H816	H	-0.250279	-0.208928	-0.242810
H817	H	-0.178915	-0.283075	-0.280066
H818	H	-0.141891	-0.317325	-0.351422
H819	H	0.311310	-0.437847	-0.308765
H820	H	-0.603530	0.182123	0.501050
H821	H	-0.116316	-0.205101	0.013796
H822	H	-0.351666	-0.064537	0.469004
H823	H	0.098285	-0.552785	-0.469064
H824	H	0.168403	-0.617661	-0.501608
H825	H	-0.248582	0.447477	0.184224
H826	H	0.301572	-0.552800	-0.468766
H827	H	-0.083731	-0.370700	-0.184088
H828	H	-0.408882	-0.335128	-0.028875
H829	H	-0.408852	-0.437823	-0.028887
C830	C	-0.414080	0.007795	0.422226
C831	C	-0.451169	0.012119	0.432488
C832	C	-0.471753	0.033282	0.474239
C833	C	-0.455248	0.050120	0.505728
C834	C	-0.418157	0.045796	0.495467
C835	C	-0.397573	0.024634	0.453716
H836	H	-0.463389	-0.000345	0.409177
H837	H	-0.499211	0.036482	0.481835
H838	H	-0.470486	0.065785	0.536635
H839	H	-0.405937	0.058261	0.518778
H840	H	-0.370116	0.021433	0.446120
H841	H	-0.083237	-0.167902	-0.469093
C842	C	-0.361918	-0.547670	-0.019548
C843	C	-0.383183	-0.567400	-0.017949
C844	C	-0.424184	-0.547793	-0.019536
C845	C	-0.443921	-0.508456	-0.022721
C846	C	-0.422656	-0.488723	-0.024320
C847	C	-0.381655	-0.508330	-0.022733
H848	H	-0.368573	-0.596523	-0.015591
H849	H	-0.439926	-0.562401	-0.018352
H850	H	-0.474272	-0.493941	-0.023895
H851	H	-0.437266	-0.459601	-0.026678
H852	H	-0.365913	-0.493723	-0.023917
C853	C	-0.324898	-0.096984	0.108640
C854	C	-0.338631	-0.049863	0.122745
C855	C	-0.360031	-0.030039	0.101557
C856	C	-0.367698	-0.057336	0.066263
C857	C	-0.353964	-0.104459	0.052156
C858	C	-0.332564	-0.124283	0.073344
H859	H	-0.332957	-0.029654	0.148874
H860	H	-0.370198	0.004845	0.112000
H861	H	-0.383539	-0.042661	0.050578
H862	H	-0.359638	-0.124668	0.026027
H863	H	-0.322397	-0.159167	0.062901
H864	H	-0.248626	-0.370979	-0.019127
H865	H	0.098200	-0.064639	-0.365871
H866	H	-0.248573	-0.552549	-0.019145
H867	H	-0.318712	-0.617647	-0.013880
H868	H	-0.533288	-0.370984	-0.019129
C869	C	0.253409	0.008057	0.303355
C870	C	0.253111	0.049821	0.324233
C871	C	0.252534	0.070986	0.303644
C872	C	0.252256	0.050387	0.262177
C873	C	0.252554	0.008621	0.241297
C874	C	0.253131	-0.012544	0.261886
H875	H	0.253317	0.065072	0.354931
H876	H	0.252314	0.101904	0.319101
H877	H	0.251829	0.066054	0.246936
H878	H	0.252348	-0.006630	0.210599
H879	H	0.253351	-0.043462	0.246429
H880	H	-0.408899	0.664922	0.411337
H881	H	-0.533181	0.117027	0.365794
H882	H	0.301516	-0.268060	-0.366350
C883	C	-0.205759	-0.216172	0.393288
C884	C	-0.196915	-0.257597	0.355344
C885	C	-0.155913	-0.300212	0.334067
C886	C	-0.123753	-0.301402	0.350733
C887	C	-0.132596	-0.259975	0.388679
C888	C	-0.173598	-0.217361	0.409957
H889	H	-0.220723	-0.256718	0.343005
H890	H	-0.149367	-0.330878	0.305976
H891	H	-0.093401	-0.332948	0.334982
H892	H	-0.108789	-0.260855	0.401018
H893	H	-0.180144	-0.186694	0.438047
H894	H	-0.216408	-0.205112	0.113908
C895	C	0.295871	-0.338545	-0.108684
C896	C	0.263310	-0.343945	-0.105310
C897	C	0.261726	-0.363761	-0.084117
C898	C	0.292704	-0.378177	-0.066297
C899	C	0.325268	-0.372777	-0.069671
C900	C	0.326852	-0.352961	-0.090864
H901	H	0.240376	-0.333273	-0.118502
H902	H	0.237620	-0.367758	-0.081619
H903	H	0.291532	-0.392846	-0.050608
H904	H	0.348202	-0.383449	-0.056479
H905	H	0.350958	-0.348964	-0.093361
H906	H	-0.351280	0.447269	0.183996
H907	H	0.301558	-0.371002	-0.184316
H908	H	0.296331	-0.617438	-0.398134
H909	H	0.301543	-0.371038	-0.469068
C910	C	0.295826	-0.219409	-0.393371
C911	C	0.326797	-0.218224	-0.410042
C912	C	0.325188	-0.175611	-0.388770
C913	C	0.292609	-0.134183	-0.350826
C914	C	0.261636	-0.135366	-0.334153
C915	C	0.263245	-0.177979	-0.355425
H916	H	0.350916	-0.248893	-0.438132
H917	H	0.348117	-0.174735	-0.401113
H918	H	0.291418	-0.102638	-0.335079
H919	H	0.237517	-0.104697	-0.306062
H920	H	0.240316	-0.178855	-0.343082
C921	C	0.301926	-0.262887	-0.189605
C922	C	0.300321	-0.220278	-0.168283
C923	C	0.301909	-0.200464	-0.189476
C924	C	0.305102	-0.223259	-0.231992
C925	C	0.306707	-0.265870	-0.253317
C926	C	0.305119	-0.285684	-0.232123
H927	H	0.297958	-0.203402	-0.136807
H928	H	0.300721	-0.168920	-0.173690
H929	H	0.306278	-0.208591	-0.247681
H930	H	0.309071	-0.282746	-0.284792
H931	H	0.306308	-0.317228	-0.247910
H932	H	0.296243	-0.230430	-0.113970
H933	H	-0.186180	-0.065148	-0.366370
H934	H	-0.351368	0.732053	0.468679
