data_functionalizedCrystal
_audit_creation_method	'MofGen! by Chris Wilmer'
_symmetry_space_group_name_H-M	'P1'
_symmetry_Int_Tables_number	1
_symmetry_cell_setting	triclinic
loop_
_symmetry_equiv_pos_as_xyz
  x,y,z
_cell_length_a	16.704494
_cell_length_b	21.606444
_cell_length_c	21.606444
_cell_angle_alpha	60.000398
_cell_angle_beta	89.999383
_cell_angle_gamma	56.631089
loop_
_atom_site_label
_atom_site_type_symbol
_atom_site_fract_x
_atom_site_fract_y
_atom_site_fract_z
Zr1	Zr	0.815190	0.612743	-0.048843
O2	O	0.680071	0.752589	-0.153028
O3	O	0.856613	0.480336	-0.016908
O4	O	0.856612	0.609457	-0.146025
O5	O	0.680071	0.623465	0.077942
O6	O	0.995868	0.598403	-0.140497
O7	O	0.680072	0.623467	-0.023911
O8	O	0.995870	0.367429	0.090470
O9	O	0.680070	0.854439	-0.153025
O10	O	0.978203	0.523792	0.000841
O11	O	0.874276	0.532040	0.072728
O12	O	0.874276	0.684063	-0.079291
O13	O	0.770349	0.692311	-0.007404
Zr14	Zr	1.037287	0.595109	0.122417
Zr15	Zr	1.037288	0.595113	-0.040027
Zr16	Zr	0.815189	0.612739	0.113601
Zr17	Zr	0.815188	0.775183	-0.048838
Zr18	Zr	1.037289	0.432669	0.122411
O19	O	0.995865	0.727516	0.090481
O20	O	0.995867	0.727522	-0.140493
O21	O	0.680069	0.752583	0.077946
O22	O	1.172406	0.455263	0.226602
O23	O	1.172408	0.455269	-0.004373
O24	O	0.856611	0.480330	0.214067
O25	O	1.172406	0.584387	-0.004369
O26	O	0.995865	0.598395	0.219598
O27	O	0.856609	0.609449	0.214071
O28	O	1.172405	0.584385	0.097484
O29	O	0.856608	0.840426	-0.146017
O30	O	0.995869	0.367426	0.219591
O31	O	1.172407	0.353413	0.226598
O32	O	1.172408	0.353416	0.097477
O33	O	0.680069	0.854436	-0.023903
O34	O	0.856607	0.840423	-0.016896
O35	O	0.978202	0.523789	0.152865
O36	O	1.082128	0.515541	0.080978
O37	O	0.978201	0.675812	0.000846
O38	O	0.874274	0.684060	0.072733
C39	C	0.926242	0.400738	0.036780
C40	C	0.926243	0.331778	0.036778
C41	C	0.648427	0.625978	0.025760
C42	C	0.554141	0.633462	0.022017
C43	C	0.980489	0.295075	-0.000747
C44	C	0.980492	0.230275	-0.000742
C45	C	0.926243	0.202183	0.036784
C46	C	0.871995	0.238888	0.074315
C47	C	0.871998	0.303683	0.074314
C48	C	0.871983	-0.022420	0.074320
C49	C	0.871982	-0.087217	0.074317
C50	C	0.980477	-0.095828	-0.000735
C51	C	0.980480	-0.031034	-0.000736
C52	C	0.926237	0.005662	0.036797
C53	C	0.926235	0.075925	0.036792
C54	C	0.926238	0.131927	0.036785
C55	C	0.485474	0.480187	0.098661
C56	C	0.396887	0.487215	0.095147
C57	C	0.288376	0.654544	0.011479
C58	C	0.376964	0.647516	0.014993
C59	C	0.475512	0.560335	0.058585
C60	C	0.564101	0.553308	0.062094
C61	C	0.455590	0.720636	-0.021568
C62	C	0.367002	0.727664	-0.025083
C63	C	1.204050	0.581874	0.047814
C64	C	1.298336	0.574390	0.051556
C65	C	0.926240	0.603931	-0.166406
C66	C	0.926241	0.603932	-0.235368
C67	C	0.926236	0.807114	0.036793
C68	C	0.926235	0.876075	0.036795
C69	C	1.002958	0.597844	-0.264721
C70	C	1.002961	0.597838	-0.329514
C71	C	0.926242	0.603926	-0.364955
C72	C	0.849520	0.610012	-0.335597
C73	C	0.849522	0.610012	-0.270802
C74	C	0.849512	0.610012	-0.596907
C75	C	0.849514	0.610014	-0.661708
C76	C	1.002951	0.597838	-0.655619
C77	C	1.002953	0.597838	-0.590824
C78	C	0.926235	0.603919	-0.561468
C79	C	0.926233	0.603924	-0.491212
C80	C	0.926238	0.603928	-0.435214
C81	C	0.926237	0.603921	0.239979
C82	C	0.926236	0.603920	0.308941
C83	C	1.204053	0.378686	0.047807
C84	C	1.298340	0.302242	0.051548
C85	C	0.926240	0.400733	0.239973
C86	C	0.926240	0.331771	0.308932
C87	C	1.204051	0.378681	0.251000
C88	C	1.298338	0.302235	0.323702
C89	C	0.648426	0.829171	-0.177426
C90	C	0.554139	0.905617	-0.250128
C91	C	0.648424	0.829166	0.025766
C92	C	0.554137	0.905610	0.022026
C93	C	0.926237	0.807119	-0.166399
C94	C	0.926237	0.876081	-0.235359
C95	C	1.288371	0.270650	0.011467
C96	C	1.376956	0.198832	0.014966
C97	C	1.475509	0.158603	0.058550
C98	C	1.485476	0.190201	0.098632
C99	C	1.396892	0.262022	0.095129
C100	C	0.980488	0.295079	0.383154
C101	C	0.980485	0.230292	0.447955
C102	C	0.926239	0.202192	0.438533
C103	C	0.871984	0.238891	0.364303
C104	C	0.871982	0.303683	0.299504
C105	C	1.396874	0.262030	0.320320
C106	C	1.485475	0.190209	0.388625
C107	C	1.475538	0.158591	0.460312
C108	C	1.376992	0.198804	0.463692
C109	C	1.288393	0.270628	0.395388
C110	C	0.455603	0.945830	-0.246746
C111	C	0.367002	1.017671	-0.315052
C112	C	0.376939	1.049293	-0.386738
C113	C	0.475485	1.009076	-0.390119
C114	C	0.564084	0.937240	-0.321814
C115	C	0.564106	0.937209	0.062100
C116	C	0.475521	1.009045	0.058583
C117	C	0.376968	1.049276	0.014996
C118	C	0.367001	1.017675	-0.025083
C119	C	0.455585	0.945844	-0.021570
C120	C	0.980494	0.904159	-0.225912
C121	C	0.980513	0.968945	-0.290700
C122	C	0.926270	1.005658	-0.364934
C123	C	0.872012	0.977574	-0.374379
C124	C	0.871998	0.912784	-0.309592
H125	H	1.024664	0.200391	-0.031297
C126	C	0.764732	-0.020420	0.148502
C127	C	0.812352	0.017917	0.115570
H128	H	0.727911	0.004490	0.173964
H129	H	0.816064	-0.085661	0.184781
H130	H	0.717909	-0.006075	0.109089
H131	H	0.859181	0.003566	0.154984
H132	H	0.761013	0.083173	0.079288
C133	C	0.247199	1.100070	-0.150386
C134	C	0.258666	1.061895	-0.072985
H135	H	0.180314	1.127371	-0.179954
H136	H	0.298516	1.052775	-0.154033
H137	H	0.254975	1.145967	-0.169668
H138	H	0.250898	1.015993	-0.053701
H139	H	0.207335	1.109196	-0.069335
H140	H	1.024695	0.991804	-0.282994
C141	C	0.985362	1.093771	-0.412167
C142	C	0.926285	1.076882	-0.436145
H143	H	0.985366	1.137747	-0.456129
H144	H	1.054466	1.037729	-0.380118
H145	H	0.956307	1.117307	-0.384003
H146	H	0.955345	1.053340	-0.464304
H147	H	0.857167	1.132935	-0.468207
C148	C	0.438634	1.031952	-0.510451
C149	C	0.486321	1.043852	-0.468948
H150	H	0.445305	1.053421	-0.559124
H151	H	0.367297	1.066156	-0.518151
H152	H	0.470975	0.968204	-0.482229
H153	H	0.453975	1.107601	-0.497168
H154	H	0.557672	1.009650	-0.461251
H155	H	0.827810	0.333549	0.239072
H156	H	0.827804	-0.110087	0.104877
C157	C	1.168651	0.352960	0.438357
C158	C	1.180084	0.314807	0.399116
H159	H	1.101789	0.380226	0.440667
H160	H	1.176393	0.398871	0.411734
H161	H	1.220011	0.305651	0.489290
H162	H	1.128729	0.362117	0.348181
H163	H	1.172331	0.268891	0.425738
H164	H	0.827848	1.007476	-0.434829
H165	H	1.547631	0.100121	0.061397
H166	H	1.368916	0.173049	0.522069
H167	H	0.827831	0.216006	0.104874
H168	H	1.024651	-0.008160	-0.031297
C169	C	0.726683	0.798520	0.167511
C170	C	0.672431	0.892997	0.110013
H171	H	0.793554	0.771234	0.197092
H172	H	0.733436	0.769419	0.144151
H173	H	0.689859	0.790837	0.200294
H174	H	0.709251	0.900681	0.077227
H175	H	0.665682	0.922107	0.133374
H176	H	0.447483	0.785899	-0.054204
H177	H	0.565715	0.409200	0.134160
H178	H	0.405006	0.421950	0.127782
C179	C	0.748076	0.823329	-0.250453
C180	C	0.672396	0.893053	-0.325539
H181	H	0.814940	0.796063	-0.252759
H182	H	0.740326	0.777421	-0.223847
H183	H	0.740296	0.849222	-0.223836
H184	H	0.680171	0.867158	-0.352154
H185	H	0.680149	0.938968	-0.352155
C186	C	0.339454	0.961583	-0.179426
C187	C	0.444661	0.911095	-0.167954
H188	H	0.332696	0.940149	-0.130783
H189	H	0.307152	0.953522	-0.207623
H190	H	0.307170	1.025318	-0.207641
H191	H	0.476944	0.847360	-0.139743
H192	H	0.476977	0.919147	-0.139744
C193	C	0.390344	0.878170	-0.038863
C194	C	0.444615	0.911105	-0.065613
H195	H	0.383573	0.856721	-0.066053
H196	H	0.323497	0.926709	-0.047194
H197	H	0.427169	0.828732	0.014798
H198	H	0.407787	0.960548	-0.119273
H199	H	0.511474	0.862561	-0.057288
C200	C	1.513023	0.246203	0.252999
C201	C	1.407816	0.296701	0.241527
H202	H	1.519782	0.267589	0.204357
H203	H	1.545315	0.182469	0.281263
H204	H	1.545318	0.254319	0.281148
H205	H	1.375522	0.288580	0.213383
H206	H	1.375511	0.360451	0.213251
C207	C	1.154632	0.585790	-0.591310
C208	C	1.087288	0.591141	-0.551865
H209	H	1.206702	0.581647	-0.567253
H210	H	1.116740	0.639562	-0.643465
H211	H	1.186138	0.532521	-0.589951
H212	H	1.055775	0.644414	-0.553229
H213	H	1.125185	0.537364	-0.499696
C214	C	0.204433	1.156337	-0.348283
C215	C	0.258689	1.061862	-0.311322
H216	H	0.137571	1.183613	-0.345974
H217	H	0.197662	1.185453	-0.400748
H218	H	0.241267	1.164013	-0.323184
H219	H	0.221860	1.054185	-0.336425
H220	H	0.265456	1.032737	-0.258847
H221	H	0.208127	0.725523	-0.024000
C222	C	1.087761	0.228290	0.524120
C223	C	1.040137	0.189952	0.529542
H224	H	1.124593	0.203381	0.574488
H225	H	1.036429	0.293531	0.495161
H226	H	1.134574	0.213944	0.499045
H227	H	0.993319	0.204303	0.554613
H228	H	1.091476	0.124696	0.558513
C229	C	1.648026	0.157408	0.421850
C230	C	1.593784	0.146030	0.384887
H231	H	1.714884	0.130145	0.419534
H232	H	1.654808	0.128289	0.474317
H233	H	1.611178	0.221511	0.396758
H234	H	1.630628	0.081927	0.409984
H235	H	1.587006	0.175147	0.332411
H236	H	0.827812	0.889931	-0.317295
C237	C	0.867182	0.114047	0.485830
C238	C	0.926250	0.130969	0.509766
H239	H	0.867190	0.070079	0.529810
H240	H	0.896227	0.090497	0.457680
H241	H	0.798064	0.170088	0.453778
H242	H	0.995371	0.074928	0.541814
H243	H	0.897208	0.154515	0.537930
C244	C	0.707164	0.284891	0.310108
C245	C	0.812372	0.207985	0.353962
H246	H	0.670370	0.265800	0.303733
H247	H	0.699390	0.328721	0.260893
H248	H	0.680379	0.312298	0.335966
H249	H	0.839160	0.180581	0.328101
H250	H	0.820153	0.164138	0.403186
H251	H	0.827823	0.333568	0.104868
C252	C	0.220490	1.101603	-0.464138
C253	C	0.279543	1.128248	-0.461816
H254	H	0.160363	1.150344	-0.510488
H255	H	0.200480	1.088528	-0.420961
H256	H	0.260576	1.047871	-0.462552
H257	H	0.239459	1.181976	-0.463396
H258	H	0.299551	1.141335	-0.505005
H259	H	0.483657	1.034763	0.091224
C260	C	0.220544	1.207445	-0.065718
C261	C	0.279606	1.128236	0.011141
H262	H	0.160445	1.256191	-0.068094
H263	H	0.200488	1.194389	-0.095818
H264	H	0.260642	1.225479	-0.085364
H265	H	0.239510	1.110197	0.030784
H266	H	0.299661	1.141292	0.041251
C267	C	0.183020	0.812736	-0.067624
C268	C	0.258675	0.823490	-0.073000
H269	H	0.116146	0.871897	-0.097213
H270	H	0.190790	0.779525	-0.015121
H271	H	0.190809	0.779503	-0.086904
H272	H	0.250892	0.856717	-0.053714
H273	H	0.250902	0.856715	-0.125514
C274	C	1.028671	-0.198988	-0.034055
C275	C	1.040117	-0.136177	-0.041983
H276	H	1.065494	-0.223898	-0.059517
H277	H	0.957309	-0.168047	-0.056481
H278	H	1.055466	-0.247626	0.019211
H279	H	1.013316	-0.087535	-0.095250
H280	H	1.111494	-0.167119	-0.019561
H281	H	1.565730	0.157437	0.134118
H282	H	1.547690	0.100106	0.515924
H283	H	1.024665	0.874277	-0.165472
H284	H	0.644341	0.482320	0.097594
C285	C	1.145323	0.249017	-0.008925
C286	C	1.040125	0.325949	-0.041995
H287	H	1.182142	0.268077	-0.034386
H288	H	1.153076	0.205186	-0.014298
H289	H	1.172098	0.221623	0.044338
H290	H	1.013348	0.353339	-0.095257
H291	H	1.032365	0.369796	-0.036629
H292	H	1.065431	0.592880	-0.353412
C293	C	1.154635	0.585799	-0.265212
C294	C	1.087294	0.591149	-0.225765
H295	H	1.206706	0.581657	-0.241158
H296	H	1.116741	0.639570	-0.317368
H297	H	1.186141	0.532529	-0.263852
H298	H	1.055782	0.644423	-0.227130
H299	H	1.125193	0.537372	-0.173596
C300	C	1.309304	0.368263	0.126936
C301	C	1.407860	0.296731	0.139204
H302	H	1.316084	0.389687	0.154147
H303	H	1.272501	0.345907	0.145063
H304	H	1.272496	0.417714	0.073278
H305	H	1.444666	0.247276	0.192862
H306	H	1.444679	0.319085	0.121081
H307	H	1.065421	0.592883	-0.679525
H308	H	0.787044	0.614965	-0.573012
C309	C	0.697852	0.622024	-0.661208
C310	C	0.765186	0.616694	-0.700661
H311	H	0.645800	0.626141	-0.685255
H312	H	0.666329	0.675289	-0.662569
H313	H	0.735763	0.568245	-0.609046
H314	H	0.727276	0.670476	-0.752822
H315	H	0.796710	0.563423	-0.699308
H316	H	1.368820	0.173113	-0.017675
H317	H	1.024662	0.317950	0.390840
C318	C	0.811667	0.538182	-0.372555
C319	C	0.765191	0.616703	-0.374556
H320	H	0.759602	0.542320	-0.396612
H321	H	0.849551	0.484417	-0.320397
H322	H	0.857356	0.534567	-0.399312
H323	H	0.719507	0.620315	-0.347793
H324	H	0.727289	0.670482	-0.426723
C325	C	0.667573	0.699294	-0.295484
C326	C	0.765190	0.616709	-0.238535
H327	H	0.615513	0.703427	-0.275560
H328	H	0.656597	0.700160	-0.339137
H329	H	0.664405	0.750306	-0.310367
H330	H	0.768361	0.565697	-0.223656
H331	H	0.776169	0.615836	-0.194869
H332	H	1.208132	0.303403	-0.024034
