data_functionalizedCrystal
_audit_creation_method	'MofGen! by Chris Wilmer'
_symmetry_space_group_name_H-M	'P1'
_symmetry_Int_Tables_number	1
_symmetry_cell_setting	triclinic
loop_
_symmetry_equiv_pos_as_xyz
  x,y,z
_cell_length_a	14.853567
_cell_length_b	11.792241
_cell_length_c	13.330367
_cell_angle_alpha	89.995231
_cell_angle_beta	89.995418
_cell_angle_gamma	83.914173
loop_
_atom_site_label
_atom_site_type_symbol
_atom_site_fract_x
_atom_site_fract_y
_atom_site_fract_z
O1	O	1.196946	0.148181	-0.083355
O2	O	0.934555	0.165833	-0.083372
O3	O	1.072118	-0.008203	-0.083356
O4	O	1.059383	0.322217	-0.083371
O5	O	1.072098	-0.008206	0.083491
O6	O	0.934535	0.165829	0.083475
O7	O	1.196926	0.148177	0.083492
Cu8	Cu	1.065728	0.157003	0.098718
Cu9	Cu	1.065752	0.157008	-0.098598
O10	O	1.059363	0.322213	0.083476
C11	C	0.900953	0.165032	0.000049
C12	C	0.800860	0.162635	0.000043
C13	C	0.387884	0.049122	0.000071
C14	C	0.367408	0.255880	0.000060
C15	C	0.461451	0.258134	0.000057
C16	C	0.518715	0.155880	0.000059
C17	C	0.481936	0.051372	0.000064
C18	C	0.498237	0.362640	0.000042
C19	C	0.592285	0.364898	0.000037
C20	C	0.649550	0.262642	0.000046
C21	C	0.612766	0.158131	0.000053
C22	C	0.670030	0.055877	0.000055
C23	C	0.633248	-0.048637	0.000068
C24	C	0.539201	-0.050883	0.000073
C25	C	0.743596	0.264889	0.000041
C26	C	0.764081	0.058127	0.000048
C27	C	1.071308	-0.050491	0.000067
C28	C	1.068913	-0.176489	0.000066
C29	C	1.064511	-0.407174	0.000049
C30	C	1.066957	-0.278804	0.000058
C31	C	1.230527	0.148979	0.000069
C32	C	1.330621	0.151376	0.000069
C33	C	1.060173	0.364501	0.000051
C34	C	1.062567	0.490500	0.000046
N35	N	1.065718	0.156999	0.237500
N36	N	1.065769	0.157003	-0.237379
C37	C	1.004837	0.234040	0.710116
C38	C	1.126692	0.079966	0.710098
C39	C	1.126682	0.079962	0.605079
C40	C	1.065749	0.157000	0.552574
C41	C	1.004826	0.234042	0.605087
C42	C	1.187610	0.002930	0.552558
C43	C	1.187602	0.002925	0.447534
C44	C	1.126665	0.079958	0.395027
C45	C	1.065739	0.157001	0.447546
C46	C	1.004806	0.234039	0.395041
C47	C	0.943875	0.311078	0.447559
C48	C	0.943888	0.311075	0.552580
C49	C	1.126651	0.079961	0.290005
C50	C	1.004796	0.234040	0.290013
H51	H	0.357932	-0.035970	0.000086
H52	H	0.810700	-0.025142	0.000054
H53	H	0.622224	0.449998	0.000026
H54	H	0.955225	0.296762	0.752878
H55	H	1.237214	-0.059805	0.404780
O56	O	1.246665	-0.072009	0.603613
C57	C	1.265090	-0.226914	0.722256
C58	C	1.198112	-0.142123	0.664470
H59	H	1.225861	-0.283607	0.771488
H60	H	1.308629	-0.282063	0.666739
H61	H	1.310374	-0.177780	0.771375
H62	H	1.152769	-0.191165	0.615350
H63	H	1.154636	-0.086974	0.720041
H64	H	0.509244	-0.135972	0.000108
O65	O	0.884584	0.385792	0.603554
C66	C	0.728158	0.451975	0.635690
C67	C	0.795217	0.367278	0.577912
H68	H	0.655892	0.437052	0.614964
H69	H	0.738561	0.438738	0.719782
H70	H	0.740387	0.542902	0.615046
H71	H	0.783029	0.276318	0.598472
H72	H	0.784799	0.380614	0.493835
H73	H	1.176306	0.017249	0.752851
O74	O	0.311693	0.355128	-0.000076
C75	C	0.193664	0.472610	-0.086546
C76	C	0.256700	0.360155	-0.086506
H77	H	0.149200	0.476723	-0.156427
H78	H	0.149056	0.476733	-0.016767
H79	H	0.236124	0.547674	-0.086500
H80	H	0.214311	0.285028	-0.086588
H81	H	0.301312	0.356132	-0.156279
O82	O	0.779178	0.366498	0.000070
C83	C	0.748939	0.571339	-0.000018
C84	C	0.708524	0.456340	-0.000028
H85	H	0.691835	0.644007	-0.000118
H86	H	0.792420	0.577646	0.069822
H87	H	0.792492	0.577493	-0.069829
H88	H	0.664930	0.450109	0.069736
H89	H	0.665095	0.450083	-0.069914
O90	O	0.689006	-0.147858	0.000112
C91	C	0.842973	-0.236002	0.000033
C92	C	0.779927	-0.123555	0.000008
H93	H	0.916496	-0.216392	-0.000073
H94	H	0.829611	-0.287442	0.069881
H95	H	0.829479	-0.287428	-0.069770
H96	H	0.793385	-0.072038	0.069763
H97	H	0.793303	-0.072202	-0.069886
O98	O	1.185742	0.004992	0.239023
C99	C	1.237670	-0.192224	0.206904
C100	C	1.170681	-0.107449	0.264692
H101	H	1.225530	-0.283151	0.227652
H102	H	1.227186	-0.179076	0.122814
H103	H	1.309940	-0.177194	0.227517
H104	H	1.098385	-0.122428	0.244163
H105	H	1.181244	-0.120618	0.348768
O106	O	0.442485	0.461857	0.000086
C107	C	0.288521	0.550013	0.000047
C108	C	0.351562	0.437561	0.000015
H109	H	0.214997	0.530409	-0.000032
H110	H	0.301896	0.601448	0.069884
H111	H	0.302009	0.601440	-0.069767
H112	H	0.338110	0.386043	0.069781
H113	H	0.338174	0.386213	-0.069868
O114	O	0.945694	0.309035	0.239059
C115	C	0.893782	0.506268	0.206977
C116	C	0.960778	0.421464	0.264726
H117	H	0.905941	0.597185	0.227723
H118	H	0.904239	0.493143	0.122881
H119	H	0.821515	0.491247	0.227628
H120	H	1.033071	0.436433	0.244159
H121	H	0.950242	0.434609	0.348807
O122	O	0.884778	0.386069	0.396596
C123	C	0.832870	0.583299	0.364491
C124	C	0.899859	0.498501	0.422256
H125	H	0.845027	0.674218	0.385232
H126	H	0.843338	0.570164	0.280398
H127	H	0.760601	0.568281	0.385132
H128	H	0.972155	0.513467	0.401698
H129	H	0.889313	0.511656	0.506335
