data_functionalizedCrystal
_audit_creation_method	'MofGen! by Chris Wilmer'
_symmetry_space_group_name_H-M	'P1'
_symmetry_Int_Tables_number	1
_symmetry_cell_setting	triclinic
loop_
_symmetry_equiv_pos_as_xyz
  x,y,z
_cell_length_a	16.120530
_cell_length_b	16.120531
_cell_length_c	16.959447
_cell_angle_alpha	92.863042
_cell_angle_beta	92.912567
_cell_angle_gamma	89.826117
loop_
_atom_site_label
_atom_site_type_symbol
_atom_site_fract_x
_atom_site_fract_y
_atom_site_fract_z
Zn1	Zn	1.254386	0.395580	0.526140
Zn2	Zn	1.754386	0.895580	1.026140
Zn3	Zn	1.247223	0.534645	0.400287
Zn4	Zn	1.747223	1.034645	0.900287
Zn5	Zn	1.115337	0.388554	0.386961
Zn6	Zn	1.615337	0.888554	0.886961
Zn7	Zn	1.108223	0.527532	0.525408
Zn8	Zn	1.608223	1.027532	1.025408
O9	O	1.181292	0.461578	0.459699
O10	O	1.681292	0.961578	0.959699
O11	O	1.369800	0.419944	0.515328
O12	O	1.869800	0.919944	1.015328
O13	O	1.229707	0.515302	0.287909
O14	O	1.729707	1.015302	0.787909
O15	O	1.139758	0.273123	0.400152
O16	O	1.639758	0.773123	0.900152
O17	O	1.364537	0.522115	0.422866
O18	O	1.864537	1.022115	0.922866
O19	O	1.241916	0.278286	0.502406
O20	O	1.741916	0.778286	1.002406
O21	O	1.132812	0.407969	0.278118
O22	O	1.632812	0.907969	0.778118
O23	O	0.998029	0.401072	0.399442
O24	O	1.498029	0.901072	0.899442
O25	O	1.127632	0.509993	0.636115
O26	O	1.627632	1.009993	1.136115
O27	O	0.992802	0.503179	0.501159
O28	O	1.492802	1.003179	1.001159
O29	O	1.235018	0.413048	0.636653
O30	O	1.735018	0.913048	1.136653
O31	O	1.222809	0.650064	0.422156
O32	O	1.722809	1.150064	0.922156
O33	O	1.120686	0.644838	0.514082
O34	O	1.620686	1.144838	1.014082
C35	C	0.965244	0.450592	0.448776
C36	C	1.465244	0.950592	0.948776
C37	C	0.872816	0.445913	0.444122
C38	C	1.372816	0.945913	0.944122
C39	C	0.703591	0.437349	0.435633
C40	C	1.203591	0.937349	0.935633
C41	C	0.659831	0.485867	0.483826
C42	C	1.159831	0.985867	0.983826
C43	C	0.565668	0.481103	0.479102
C44	C	1.065668	0.981103	0.979102
C45	C	0.797762	0.442113	0.440355
C46	C	1.297762	0.942113	0.940355
C47	C	1.170221	0.677623	0.469504
C48	C	1.670221	1.177623	0.969504
C49	C	1.165560	0.770053	0.473729
C50	C	1.665560	1.270053	0.973729
C51	C	1.157056	0.939282	0.481459
C52	C	1.657056	1.439282	0.981459
C53	C	1.205559	0.983034	0.437896
C54	C	1.705559	1.483034	0.937896
C55	C	1.200828	1.077200	0.442197
C56	C	1.700828	1.577200	0.942197
C57	C	1.161787	0.845108	0.477159
C58	C	1.661787	1.345108	0.977159
C59	C	1.398184	0.472607	0.470665
C60	C	1.898184	0.972607	0.970665
C61	C	1.490611	0.477307	0.475338
C62	C	1.990611	0.977307	0.975338
C63	C	1.181330	0.461511	0.665866
C64	C	1.681330	0.961511	1.165866
C65	C	1.181347	0.461482	0.753722
C66	C	1.681347	0.961482	1.253722
C67	C	1.192400	1.244688	0.449858
C68	C	1.692400	1.744688	0.949858
C69	C	1.197058	1.152259	0.445623
C70	C	1.697058	1.652259	0.945623
C71	C	1.181305	0.461587	0.254334
C72	C	1.681305	0.961587	0.754334
C73	C	1.181462	0.461389	0.166476
C74	C	1.681462	0.961389	0.666476
C75	C	1.125540	0.511874	1.124921
C76	C	1.625540	1.011874	1.624921
C77	C	1.237361	0.410925	1.125476
C78	C	1.737361	0.910925	1.625476
C79	C	1.237338	0.410941	1.042930
C80	C	1.737338	0.910941	1.542930
C81	C	1.181416	0.461426	1.001376
C82	C	1.681416	0.961426	1.501376
C83	C	1.125516	0.511894	1.042368
C84	C	1.625516	1.011894	1.542368
C85	C	1.293242	0.360480	1.001932
C86	C	1.793242	0.860480	1.501932
C87	C	1.293222	0.360495	0.919381
C88	C	1.793222	0.860495	1.419381
C89	C	1.237295	0.410976	0.877825
C90	C	1.737295	0.910976	1.377825
C91	C	1.181393	0.461446	0.918822
C92	C	1.681393	0.961446	1.418822
C93	C	1.125470	0.511930	0.877268
C94	C	1.625470	1.011930	1.377268
C95	C	1.069564	0.562396	0.918263
C96	C	1.569564	1.062396	1.418263
C97	C	1.069589	0.562375	1.000811
C98	C	1.569589	1.062375	1.500811
C99	C	1.237269	0.410997	0.795276
C100	C	1.737269	0.910997	1.295276
C101	C	1.125447	0.511950	0.794714
C102	C	1.625447	1.011950	1.294714
H103	H	1.250637	0.949771	0.397369
H104	H	1.750637	1.449771	0.897369
Cl105	Cl	1.087460	0.990634	0.544022
Cl106	Cl	1.587460	1.490634	1.044022
H107	H	0.670338	0.392238	0.390828
H108	H	1.170338	0.892238	0.890828
Cl109	Cl	1.307551	0.347566	0.743744
Cl110	Cl	1.807551	0.847566	1.243744
Cl111	Cl	1.055136	0.575416	0.742480
Cl112	Cl	1.555136	1.075416	1.242480
H113	H	0.693086	0.530982	0.528634
H114	H	1.193086	1.030982	1.028634
H115	H	1.024035	0.603504	0.884419
H116	H	1.524035	1.103504	1.384419
H117	H	1.338776	0.319384	1.035772
H118	H	1.838776	0.819384	1.535772
Cl119	Cl	0.999318	0.625816	1.052353
Cl120	Cl	1.499318	1.125816	1.552353
H121	H	1.080019	0.552960	1.158303
H122	H	1.580019	1.052960	1.658303
H123	H	1.282895	0.369827	1.159315
H124	H	1.782895	0.869827	1.659315
H125	H	1.338744	0.319403	0.886010
H126	H	1.838744	0.819403	1.386010
