data_functionalizedCrystal
_audit_creation_method	'MofGen! by Chris Wilmer'
_symmetry_space_group_name_H-M	'P1'
_symmetry_Int_Tables_number	1
_symmetry_cell_setting	triclinic
loop_
_symmetry_equiv_pos_as_xyz
  x,y,z
_cell_length_a	15.944493
_cell_length_b	15.944545
_cell_length_c	10.868271
_cell_angle_alpha	89.998467
_cell_angle_beta	90.010614
_cell_angle_gamma	96.514391
loop_
_atom_site_label
_atom_site_type_symbol
_atom_site_fract_x
_atom_site_fract_y
_atom_site_fract_z
O1	O	-0.108310	1.114505	-0.102258
O2	O	-0.121672	0.869951	-0.102280
O3	O	0.007287	0.998932	-0.102243
O4	O	-0.237270	0.985524	-0.102295
O5	O	0.007292	0.998921	0.102402
O6	O	-0.121667	0.869941	0.102365
O7	O	-0.108305	1.114494	0.102387
Zn8	Zn	-0.114986	0.992216	0.134868
Zn9	Zn	-0.114992	0.992230	-0.134760
O10	O	-0.237265	0.985514	0.102350
C11	C	-0.121116	0.838652	0.000040
C12	C	-0.119456	0.745406	0.000033
C13	C	-0.034560	0.474791	0.000064
C14	C	-0.075488	0.525359	0.100959
C15	C	-0.113535	0.409764	0.000055
C16	C	-0.075514	0.525350	-0.100805
C17	C	-0.116440	0.574677	0.000042
C18	C	-0.154442	0.459103	0.101034
C19	C	-0.154456	0.459091	-0.100821
C20	C	-0.195442	0.509626	0.000099
C21	C	-0.111859	0.314762	0.000064
C22	C	-0.118122	0.669676	0.000043
C23	C	-0.268562	0.986067	0.000021
C24	C	-0.361811	0.987710	0.000002
C25	C	-0.597572	0.911789	0.000036
C26	C	-0.648151	0.952736	-0.100856
C27	C	-0.532532	0.990754	0.000031
C28	C	-0.648104	0.952744	0.100908
C29	C	-0.697441	0.993689	0.000064
C30	C	-0.581882	1.031679	-0.100944
C31	C	-0.581831	1.031675	0.100910
C32	C	-0.632377	1.072680	-0.000006
C33	C	-0.437532	0.989061	0.000011
C34	C	-0.792438	0.995388	0.000076
C35	C	0.038584	0.998378	0.000083
C36	C	0.131833	0.996735	0.000095
C37	C	-0.108862	1.145793	0.000064
C38	C	-0.110522	1.239039	0.000063
N39	N	-0.114981	0.992212	0.318882
N40	N	-0.114991	0.992240	-0.318775
C41	C	-0.114990	0.992225	0.569888
C42	C	-0.114987	0.992215	0.430210
H43	H	0.033454	0.459152	0.000176
H44	H	-0.187768	0.430283	0.186424
N45	N	-0.031327	0.563670	-0.213789
H46	H	-0.033245	0.626768	-0.213369
H47	H	0.029385	0.551226	-0.213613
H48	H	-0.263508	0.525104	0.000144
N49	N	-0.031302	0.563669	0.213971
H50	H	0.017647	0.605826	0.188254
H51	H	-0.072353	0.593117	0.264473
H52	H	-0.553072	1.065009	-0.186340
H53	H	-0.581946	0.843771	-0.000074
H54	H	-0.187782	0.430142	-0.186137
H55	H	-0.677107	0.919393	-0.186163
H56	H	-0.647842	1.140751	-0.000052
N57	N	-0.543452	1.075809	0.213906
H58	H	-0.567659	1.045910	0.290087
H59	H	-0.480237	1.074824	0.212513
N60	N	-0.686412	0.908552	0.213898
H61	H	-0.674040	0.847815	0.213794
H62	H	-0.661334	0.937811	0.290046
