data_functionalizedCrystal
_audit_creation_method	'MofGen! by Chris Wilmer'
_symmetry_space_group_name_H-M	'P1'
_symmetry_Int_Tables_number	1
_symmetry_cell_setting	triclinic
loop_
_symmetry_equiv_pos_as_xyz
  x,y,z
_cell_length_a	25.639243
_cell_length_b	13.897448
_cell_length_c	13.897441
_cell_angle_alpha	90.030599
_cell_angle_beta	89.975549
_cell_angle_gamma	89.979584
loop_
_atom_site_label
_atom_site_type_symbol
_atom_site_fract_x
_atom_site_fract_y
_atom_site_fract_z
Zn1	Zn	0.799345	0.383914	-0.545477
Zn2	Zn	1.299345	0.883914	-0.045477
Zn3	Zn	0.799288	0.545236	-0.384178
Zn4	Zn	1.299288	1.045236	0.115822
Zn5	Zn	0.711909	0.383964	-0.384185
Zn6	Zn	1.211909	0.883964	0.115815
Zn7	Zn	0.711899	0.545176	-0.545420
Zn8	Zn	1.211899	1.045176	-0.045420
O9	O	0.755610	0.464572	-0.464815
O10	O	1.255610	0.964572	0.035185
O11	O	0.872503	0.405318	-0.524101
O12	O	1.372503	0.905318	-0.024101
O13	O	0.787677	0.523888	-0.249197
O14	O	1.287677	1.023888	0.250803
O15	O	0.723535	0.248976	-0.405607
O16	O	1.223535	0.748976	0.094393
O17	O	0.872461	0.523840	-0.405596
O18	O	1.372461	1.023840	0.094404
O19	O	0.787775	0.248939	-0.524108
O20	O	1.287775	0.748939	-0.024108
O21	O	0.723480	0.405403	-0.249202
O22	O	1.223480	0.905403	0.250798
O23	O	0.638742	0.405345	-0.405552
O24	O	1.138742	0.905345	0.094448
O25	O	0.723519	0.523739	-0.680410
O26	O	1.223519	1.023739	-0.180410
O27	O	0.638735	0.523787	-0.524011
O28	O	1.138735	1.023787	-0.024011
O29	O	0.787765	0.405260	-0.680451
O30	O	1.287765	0.905260	-0.180451
O31	O	0.787667	0.680209	-0.405541
O32	O	1.287667	1.180209	0.094459
O33	O	0.723463	0.680166	-0.524005
O34	O	1.223463	1.180166	-0.024005
C35	C	0.619767	0.464566	-0.464777
C36	C	1.119767	0.964566	0.035223
C37	C	0.561653	0.464586	-0.464783
C38	C	1.061653	0.964586	0.035217
C39	C	0.201307	0.402955	-0.526624
C40	C	0.701307	0.902955	-0.026624
C41	C	0.146702	0.402954	-0.526630
C42	C	0.646702	0.902954	-0.026630
O43	O	0.118480	0.350535	-0.579161
O44	O	0.618480	0.850535	-0.079161
N45	N	0.119371	0.464570	-0.464842
N46	N	0.619371	0.964570	0.035158
C47	C	0.146647	0.526183	-0.403037
C48	C	0.646647	1.026183	0.096963
O49	O	0.118385	0.578591	-0.350481
O50	O	0.618385	1.078591	0.149519
C51	C	0.201250	0.526178	-0.403026
C52	C	0.701250	1.026178	0.096974
C53	C	0.228579	0.464566	-0.464826
C54	C	0.728579	0.964566	0.035174
C55	C	0.228636	0.341346	-0.588417
C56	C	0.728636	0.841346	-0.088417
C57	C	0.283236	0.341349	-0.588412
C58	C	0.783236	0.841349	-0.088412
C59	C	0.310508	0.402960	-0.526614
C60	C	0.810508	0.902960	-0.026614
C61	C	0.283179	0.464568	-0.464821
C62	C	0.783179	0.964568	0.035179
C63	C	0.228525	0.587786	-0.341217
C64	C	0.728525	1.087786	0.158783
C65	C	0.283132	0.587776	-0.341212
C66	C	0.783132	1.087776	0.158788
C67	C	0.310460	0.526163	-0.403011
C68	C	0.810460	1.026163	0.096989
C69	C	0.365051	0.526181	-0.403017
C70	C	0.865051	1.026181	0.096983
N71	N	0.392383	0.464566	-0.464805
N72	N	0.892383	0.964566	0.035195
C73	C	0.365111	0.402955	-0.526604
C74	C	0.865111	0.902955	-0.026604
C75	C	0.031976	0.526187	-0.403061
C76	C	0.531976	1.026187	0.096939
C77	C	-0.022626	0.526198	-0.403076
C78	C	0.477374	1.026198	0.096924
C79	C	-0.022567	0.402967	-0.526668
C80	C	0.477433	0.902967	-0.026668
C81	C	0.032037	0.402962	-0.526658
C82	C	0.532037	0.902962	-0.026658
C83	C	0.059307	0.464572	-0.464849
C84	C	0.559307	0.964572	0.035151
C85	C	0.479776	0.402965	-0.526589
C86	C	0.979776	0.902965	-0.026589
C87	C	0.534382	0.402976	-0.526582
C88	C	1.034382	0.902976	-0.026582
C89	C	0.534317	0.526202	-0.402986
C90	C	1.034317	1.026202	0.097014
C91	C	0.479717	0.526196	-0.402997
C92	C	0.979717	1.026196	0.097003
C93	C	0.452447	0.464569	-0.464802
C94	C	0.952447	0.964569	0.035198
O95	O	0.393309	0.578571	-0.350510
O96	O	0.893309	1.078571	0.149490
O97	O	0.393379	0.350546	-0.579142
O98	O	0.893379	0.850546	-0.079142
C99	C	0.755572	0.715187	-0.464787
C100	C	1.255572	1.215187	0.035213
C101	C	0.755603	0.822401	-0.464807
C102	C	1.255603	1.322401	0.035193
C103	C	0.755647	0.464487	-0.716408
C104	C	1.255647	0.964487	-0.216408
C105	C	0.755663	0.464451	-0.823622
C106	C	1.255663	0.964451	-0.323622
C107	C	0.891983	0.464580	-0.464854
C108	C	1.391983	0.964580	0.035146
C109	C	0.950097	0.464583	-0.464871
C110	C	1.450097	0.964583	0.035129
C111	C	0.755663	0.212979	-0.464864
C112	C	1.255663	0.712979	0.035136
C113	C	0.755685	0.105766	-0.464885
C114	C	1.255685	0.605766	0.035115
C115	C	0.755658	1.018696	-0.464868
C116	C	1.255658	1.518696	0.035132
C117	C	0.755626	0.909463	-0.464837
C118	C	1.255626	1.409463	0.035163
C119	C	0.755677	0.464386	-1.019918
C120	C	1.255677	0.964386	-0.519918
C121	C	0.755668	0.464425	-0.910685
C122	C	1.255668	0.964425	-0.410685
C123	C	0.755603	0.464588	-0.214201
C124	C	1.255603	0.964588	0.285799
C125	C	0.755689	0.464352	-0.106987
C126	C	1.255689	0.964352	0.393013
H127	H	0.556630	0.352802	-0.576909
H128	H	1.056630	0.852802	-0.076909
C129	C	0.485145	0.648008	-0.280836
C130	C	0.985145	1.148008	0.219164
C131	C	0.449674	0.593927	-0.335075
C132	C	0.949674	1.093927	0.164925
H133	H	0.466600	0.689815	-0.238896
H134	H	0.966600	1.189815	0.261104
H135	H	0.506442	0.684955	-0.322799
H136	H	1.006442	1.184955	0.177201
H137	H	0.506445	0.605929	-0.244015
H138	H	1.006445	1.105929	0.255985
H139	H	0.428377	0.636007	-0.371901
H140	H	0.928377	1.136007	0.128099
H141	H	0.428368	0.556978	-0.293106
H142	H	0.928368	1.056978	0.206894
H143	H	0.457580	0.352780	-0.576914
H144	H	0.957580	0.852780	-0.076914
C145	C	0.167106	0.717541	-0.327565
C146	C	0.667106	1.217541	0.172435
C147	C	0.198497	0.655515	-0.273281
C148	C	0.698497	1.155515	0.226719
H149	H	0.148573	0.759360	-0.285619
H150	H	0.648573	1.259360	0.214381
H151	H	0.143043	0.680859	-0.364355
H152	H	0.643043	1.180859	0.135645
H153	H	0.188417	0.754481	-0.369525
H154	H	0.688417	1.254481	0.130475
H155	H	0.177186	0.618569	-0.231326
H156	H	0.677186	1.118569	0.268674
H157	H	0.222563	0.692201	-0.236475
H158	H	0.722563	1.192201	0.263525
C159	C	0.093465	0.273218	-0.540284
C160	C	0.593465	0.773218	-0.040284
C161	C	0.062075	0.335232	-0.594583
C162	C	0.562075	0.835232	-0.094583
H163	H	0.112009	0.231406	-0.582221
H164	H	0.612009	0.731406	-0.082221
H165	H	0.072157	0.236278	-0.498334
H166	H	0.572157	0.736278	0.001666
H167	H	0.117524	0.309915	-0.503483
H168	H	0.617524	0.809915	-0.003483
H169	H	0.038013	0.298535	-0.631378
H170	H	0.538013	0.798535	-0.131378
H171	H	0.083385	0.372176	-0.636549
H172	H	0.583385	0.872176	-0.136549
C173	C	0.277793	0.219529	-0.710559
C174	C	0.777793	0.719529	-0.210559
C175	C	0.313271	0.273606	-0.656330
C176	C	0.813271	0.773606	-0.156330
H177	H	0.296334	0.177699	-0.752483
H178	H	0.796334	0.677699	-0.252483
H179	H	0.256503	0.261603	-0.747388
H180	H	0.756503	0.761603	-0.247388
H181	H	0.256488	0.182599	-0.668581
H182	H	0.756488	0.682599	-0.168581
H183	H	0.334574	0.310542	-0.698308
H184	H	0.834574	0.810542	-0.198308
H185	H	0.334570	0.231528	-0.619498
H186	H	0.834570	0.731528	-0.119498
H187	H	-0.044781	0.352798	-0.576985
H188	H	0.455219	0.852798	-0.076985
H189	H	0.206437	0.291170	-0.638741
H190	H	0.706437	0.791170	-0.138741
C191	C	-0.017187	0.648003	-0.280911
C192	C	0.482813	1.148003	0.219089
C193	C	-0.052662	0.593931	-0.335150
C194	C	0.447338	1.093931	0.164850
H195	H	-0.035730	0.689812	-0.238969
H196	H	0.464270	1.189812	0.261031
H197	H	0.004112	0.684946	-0.322874
H198	H	0.504112	1.184946	0.177126
H199	H	0.004110	0.605918	-0.244092
H200	H	0.504110	1.105918	0.255908
H201	H	-0.073957	0.636015	-0.371975
H202	H	0.426043	1.136015	0.128025
H203	H	-0.073970	0.556984	-0.293182
H204	H	0.426030	1.056984	0.206818
C205	C	0.093336	0.539457	-0.273263
C206	C	0.593336	1.039457	0.226737
C207	C	0.061949	0.593927	-0.335126
C208	C	0.561949	1.093927	0.164874
H209	H	0.111835	0.581277	-0.231321
H210	H	0.611835	1.081277	0.268679
H211	H	0.117430	0.502774	-0.310055
H212	H	0.617430	1.002774	0.189945
H213	H	0.072027	0.497388	-0.236447
H214	H	0.572027	0.997388	0.263553
H215	H	0.083259	0.635991	-0.371948
H216	H	0.583259	1.135991	0.128052
H217	H	0.037853	0.630626	-0.298331
H218	H	0.537853	1.130626	0.201669
H219	H	0.305333	0.637946	-0.290878
H220	H	0.805333	1.137946	0.209122
H221	H	0.556532	0.576366	-0.352674
H222	H	1.056532	1.076366	0.147326
