data_functionalizedCrystal
_audit_creation_method	'MofGen! by Chris Wilmer'
_symmetry_space_group_name_H-M	'P1'
_symmetry_Int_Tables_number	1
_symmetry_cell_setting	triclinic
loop_
_symmetry_equiv_pos_as_xyz
  x,y,z
_cell_length_a	19.188930
_cell_length_b	19.188924
_cell_length_c	17.666332
_cell_angle_alpha	90.008552
_cell_angle_beta	90.023234
_cell_angle_gamma	83.143372
loop_
_atom_site_label
_atom_site_type_symbol
_atom_site_fract_x
_atom_site_fract_y
_atom_site_fract_z
O1	O	0.926147	0.087169	0.063195
O2	O	1.426147	0.587169	0.563195
O3	O	0.722836	0.098903	0.063144
O4	O	1.222836	0.598903	0.563144
O5	O	0.830361	-0.008620	0.063162
O6	O	1.330361	0.491380	0.563162
O7	O	0.818622	0.194692	0.063177
O8	O	1.318622	0.694692	0.563177
O9	O	0.830343	-0.008625	-0.062735
O10	O	1.330343	0.491375	0.437265
O11	O	0.722817	0.098898	-0.062753
O12	O	1.222817	0.598898	0.437247
O13	O	0.926129	0.087163	-0.062702
O14	O	1.426129	0.587163	0.437298
Cu15	Cu	0.824471	0.093030	-0.074223
Cu16	Cu	1.324471	0.593030	0.425777
Cu17	Cu	0.824493	0.093037	0.074665
Cu18	Cu	1.324493	0.593037	0.574665
O19	O	0.818603	0.194687	-0.062720
O20	O	1.318603	0.694687	0.437280
C21	C	0.696815	0.098521	0.000189
C22	C	1.196815	0.598521	0.500189
C23	C	0.619311	0.097380	0.000169
C24	C	1.119311	0.597380	0.500169
C25	C	0.829973	-0.034634	0.000213
C26	C	1.329973	0.465366	0.500213
C27	C	0.828834	-0.112138	0.000210
C28	C	1.328834	0.387862	0.500210
C29	C	0.574386	0.160471	0.000185
C30	C	1.074386	0.660471	0.500185
C31	C	0.501562	0.159399	0.000193
C32	C	1.001562	0.659399	0.500193
C33	C	0.473667	0.095233	0.000200
C34	C	0.973667	0.595233	0.500200
C35	C	0.518602	0.032134	0.000180
C36	C	1.018602	0.532134	0.500180
C37	C	0.591424	0.033207	0.000164
C38	C	1.091424	0.533207	0.500164
N39	N	0.365694	0.046188	0.043075
N40	N	0.865694	0.546188	0.543075
N41	N	0.296516	0.045172	0.043092
N42	N	0.796516	0.545172	0.543092
C43	C	0.254258	0.091995	0.000246
C44	C	0.754258	0.591995	0.500246
N45	N	0.283791	0.139882	-0.042607
N46	N	0.783791	0.639882	0.457393
N47	N	0.352976	0.140899	-0.042620
N48	N	0.852976	0.640899	0.457380
C49	C	0.394704	0.094062	0.000217
C50	C	0.894704	0.594062	0.500217
C51	C	0.130368	0.153928	0.000271
C52	C	0.630368	0.653928	0.500271
C53	C	0.057543	0.152854	0.000274
C54	C	0.557543	0.652854	0.500274
C55	C	0.074585	0.025586	0.000268
C56	C	0.574585	0.525586	0.500268
C57	C	0.147409	0.026663	0.000257
C58	C	0.647409	0.526663	0.500257
C59	C	0.175295	0.090835	0.000262
C60	C	0.675295	0.590835	0.500262
C61	C	0.828313	-0.148534	0.068837
C62	C	1.328313	0.351466	0.568837
C63	C	0.827233	-0.221357	0.068842
C64	C	1.327233	0.278643	0.568842
C65	C	0.826688	-0.257783	0.000217
C66	C	1.326688	0.242217	0.500217
C67	C	0.827205	-0.221378	-0.068418
C68	C	1.327205	0.278622	0.431582
C69	C	0.828278	-0.148556	-0.068421
C70	C	1.328278	0.351444	0.431579
N71	N	0.864728	-0.377448	-0.050849
N72	N	1.364728	0.122552	0.449151
N73	N	0.863710	-0.446627	-0.050841
N74	N	1.363710	0.053373	0.449159
C75	C	0.823454	-0.477192	0.000224
C76	C	1.323454	0.022808	0.500224
N77	N	0.784262	-0.435967	0.051292
N78	N	1.284262	0.064033	0.551292
N79	N	0.785283	-0.366783	0.051286
N80	N	1.285283	0.133217	0.551286
C81	C	0.825524	-0.336746	0.000214
C82	C	1.325524	0.163254	0.500214
C83	C	0.821761	-0.592550	0.068861
C84	C	1.321761	-0.092550	0.568861
C85	C	0.820676	-0.665374	0.068864
C86	C	1.320676	-0.165374	0.568864
C87	C	0.820656	-0.665394	-0.068399
C88	C	1.320656	-0.165394	0.431601
C89	C	0.821734	-0.592571	-0.068399
C90	C	1.321734	-0.092571	0.431601
C91	C	0.822289	-0.556154	0.000233
C92	C	1.322289	-0.056154	0.500233
C93	C	0.952149	0.087546	0.000255
C94	C	1.452149	0.587546	0.500255
C95	C	1.029654	0.088687	0.000280
C96	C	1.529654	0.588687	0.500280
C97	C	0.818992	0.220700	0.000231
C98	C	1.318992	0.720700	0.500231
C99	C	0.820131	0.298205	0.000238
C100	C	1.320131	0.798205	0.500238
N101	N	0.824461	0.093025	-0.178942
N102	N	1.324461	0.593025	0.321058
C103	C	0.872088	0.045437	-0.218544
C104	C	1.372088	0.545437	0.281456
C105	C	0.872092	0.045433	-0.297791
C106	C	1.372092	0.545433	0.202209
C107	C	0.824475	0.093030	-0.337434
C108	C	1.324475	0.593030	0.162566
C109	C	0.776839	0.140622	-0.297823
C110	C	1.276839	0.640622	0.202177
C111	C	0.776831	0.140619	-0.218577
C112	C	1.276831	0.640619	0.281423
N113	N	0.815398	0.154838	-0.461850
N114	N	1.315398	0.654838	0.038150
N115	N	0.815409	0.154838	-0.537130
N116	N	1.315409	0.654838	-0.037130
C117	C	0.824494	0.093040	-0.576198
C118	C	1.324494	0.593040	-0.076198
N119	N	0.833581	0.031239	-0.537142
N120	N	1.333581	0.531239	-0.037142
N121	N	0.833573	0.031240	-0.461855
N122	N	1.333573	0.531240	0.038145
C123	C	0.824478	0.093038	-0.423363
C124	C	1.324478	0.593038	0.076637
C125	C	0.872128	0.045444	-0.701729
C126	C	1.372128	0.545444	-0.201729
C127	C	0.872128	0.045440	-0.780978
C128	C	1.372128	0.545440	-0.280978
C129	C	0.776878	0.140634	-0.781009
C130	C	1.276878	0.640634	-0.281009
C131	C	0.776875	0.140633	-0.701761
C132	C	1.276875	0.640633	-0.201761
C133	C	0.824504	0.093038	-0.662126
C134	C	1.324504	0.593038	-0.162126
N135	N	0.824509	0.093036	0.179384
N136	N	1.324509	0.593036	0.679384
H137	H	0.597086	0.212725	0.000191
H138	H	1.097086	0.712725	0.500191
O139	O	0.195868	-0.041388	0.000242
O140	O	0.695868	0.458612	0.500242
H141	H	0.229487	-0.043941	0.051544
H142	H	0.729487	0.456059	0.551544
O143	O	0.044505	-0.043622	0.000266
O144	O	0.544505	0.456378	0.500266
H145	H	0.087983	-0.087314	0.000248
H146	H	0.587983	0.412686	0.500248
H147	H	0.826760	-0.251040	-0.124293
H148	H	1.326760	0.248960	0.375707
O149	O	0.453092	0.227449	0.000219
O150	O	0.953092	0.727449	0.500219
H151	H	0.484718	0.272252	0.000225
H152	H	0.984718	0.772252	0.500225
O153	O	0.488522	-0.037077	0.000187
O154	O	0.988522	0.462923	0.500187
H155	H	0.430336	-0.027225	0.000209
H156	H	0.930336	0.472775	0.500209
H157	H	0.822209	-0.562898	0.124745
H158	H	1.322209	-0.062898	0.624745
O159	O	0.639887	-0.034843	0.000150
O160	O	1.139887	0.465157	0.500150
H161	H	0.608259	-0.079645	0.000158
H162	H	1.108259	0.420355	0.500158
H163	H	0.828763	-0.118888	0.124722
H164	H	1.328763	0.381112	0.624722
H165	H	0.826804	-0.250996	0.124728
H166	H	1.326804	0.249004	0.624728
H167	H	0.828700	-0.118922	-0.124307
H168	H	1.328700	0.381078	0.375693
O169	O	0.820087	-0.704632	0.142885
O170	O	1.320087	-0.204632	0.642885
H171	H	0.820651	-0.667071	0.190605
H172	H	1.320651	-0.167071	0.690605
O173	O	0.820074	-0.704671	-0.142419
O174	O	1.320074	-0.204671	0.357581
H175	H	0.819246	-0.761425	-0.130889
H176	H	1.319246	-0.261425	0.369111
H177	H	0.153075	0.206181	0.000264
H178	H	0.653075	0.706181	0.500264
H179	H	0.822164	-0.562938	-0.124282
H180	H	1.322164	-0.062938	0.375718
O181	O	0.923448	-0.005903	-0.175793
O182	O	1.423448	0.494097	0.324207
H183	H	0.956562	-0.039000	-0.216650
H184	H	1.456562	0.461000	0.283350
H185	H	0.910878	0.006680	-0.330041
H186	H	1.410878	0.506680	0.169959
H187	H	0.738047	0.179372	-0.186333
H188	H	1.238047	0.679372	0.313667
H189	H	0.738067	0.179375	-0.330104
H190	H	1.238067	0.679375	0.169896
H191	H	0.020965	0.204232	0.000283
H192	H	0.520965	0.704232	0.500283
H193	H	0.910909	0.006688	-0.669457
H194	H	1.410909	0.506688	-0.169457
H195	H	0.910910	0.006684	-0.813223
H196	H	1.410910	0.506684	-0.313223
O197	O	0.725518	0.191975	-0.823753
O198	O	1.225518	0.691975	-0.323753
H199	H	0.733527	0.183986	-0.885512
H200	H	1.233527	0.683986	-0.385512
H201	H	0.738095	0.179386	-0.669515
H202	H	1.238095	0.679386	-0.169515
