data_functionalizedCrystal
_audit_creation_method	'MofGen! by Chris Wilmer'
_symmetry_space_group_name_H-M	'P1'
_symmetry_Int_Tables_number	1
_symmetry_cell_setting	triclinic
loop_
_symmetry_equiv_pos_as_xyz
  x,y,z
_cell_length_a	17.640280
_cell_length_b	19.077105
_cell_length_c	19.077271
_cell_angle_alpha	89.892926
_cell_angle_beta	76.990907
_cell_angle_gamma	76.093206
loop_
_atom_site_label
_atom_site_type_symbol
_atom_site_fract_x
_atom_site_fract_y
_atom_site_fract_z
Zn1	Zn	-0.348276	1.123449	-0.380422
Zn2	Zn	0.151724	1.623449	0.119578
Zn3	Zn	-0.488236	1.154280	-0.238799
Zn4	Zn	0.011764	1.654280	0.261201
Zn5	Zn	-0.348725	1.010750	-0.258136
Zn6	Zn	0.151275	1.510750	0.241864
Zn7	Zn	-0.477408	1.030076	-0.353420
Zn8	Zn	0.022592	1.530076	0.146580
O9	O	-0.415661	1.079639	-0.307694
O10	O	0.084339	1.579639	0.192306
O11	O	-0.371186	1.226684	-0.364844
O12	O	0.128814	1.726684	0.135156
O13	O	-0.474450	1.140055	-0.142218
O14	O	0.025550	1.640055	0.357782
O15	O	-0.236238	1.004709	-0.293750
O16	O	0.263762	1.504709	0.206250
O17	O	-0.474014	1.249335	-0.260794
O18	O	0.025986	1.749335	0.239206
O19	O	-0.235908	1.087509	-0.383593
O20	O	0.264092	1.587509	0.116407
O21	O	-0.371952	1.034604	-0.156424
O22	O	0.128048	1.534604	0.343576
O23	O	-0.361451	0.914169	-0.267567
O24	O	0.138549	1.414169	0.232433
O25	O	-0.455558	1.037647	-0.456148
O26	O	0.044442	1.537647	0.043852
O27	O	-0.455994	0.928368	-0.337572
O28	O	0.044006	1.428368	0.162428
O29	O	-0.360686	1.106248	-0.475987
O30	O	0.139314	1.606248	0.024013
O31	O	-0.599228	1.158795	-0.234611
O32	O	-0.099228	1.658795	0.265389
O33	O	-0.591272	1.067543	-0.318822
O34	O	-0.091272	1.567543	0.181178
C35	C	-0.407597	0.895561	-0.301738
C36	C	0.092403	1.395561	0.198262
C37	C	-0.404165	0.816815	-0.299203
C38	C	0.095835	1.316815	0.200797
C39	C	-0.451857	0.787249	-0.334376
C40	C	0.048143	1.287249	0.165624
C41	C	-0.448622	0.713256	-0.331999
C42	C	0.051378	1.213256	0.168001
C43	C	-0.397699	0.668832	-0.294446
C44	C	0.102301	1.168832	0.205554
C45	C	-0.350001	0.698402	-0.259273
C46	C	0.149999	1.198402	0.240727
C47	C	-0.353233	0.772393	-0.261654
C48	C	0.146767	1.272393	0.238346
C49	C	-0.382743	0.446746	-0.283430
C50	C	0.117257	0.946746	0.216570
C51	C	-0.379517	0.372751	-0.281050
C52	C	0.120483	0.872751	0.218950
C53	C	-0.478137	0.387609	-0.353778
C54	C	0.021863	0.887609	0.146222
C55	C	-0.481367	0.461601	-0.356152
C56	C	0.018633	0.961601	0.143848
C57	C	-0.433667	0.491165	-0.320982
C58	C	0.066333	0.991165	0.179018
N59	N	-0.394392	0.593199	-0.292014
N60	N	0.105608	1.093199	0.207986
N61	N	-0.436969	0.566795	-0.323418
N62	N	0.063031	1.066795	0.176582
C63	C	-0.624401	1.118630	-0.271704
C64	C	-0.124401	1.618630	0.228296
C65	C	-0.713703	1.135374	-0.256333
C66	C	-0.213703	1.635374	0.243667
C67	C	-0.986834	0.952713	-0.424732
C68	C	-0.486834	1.452713	0.075268
C69	C	-1.070748	0.968450	-0.410266
C70	C	-0.570748	1.468450	0.089734
C71	C	-1.078965	1.063522	-0.322670
C72	C	-0.578965	1.563522	0.177330
C73	C	-0.995050	1.047796	-0.337131
C74	C	-0.495050	1.547796	0.162869
C75	C	-0.948991	0.992390	-0.388162
C76	C	-0.448991	1.492390	0.111838
C77	C	-0.957208	1.087473	-0.300562
C78	C	-0.457208	1.587473	0.199438
C79	C	-0.873301	1.071746	-0.315019
C80	C	-0.373301	1.571746	0.184981
C81	C	-0.827236	1.016341	-0.366046
C82	C	-0.327236	1.516341	0.133954
C83	C	-0.865084	0.976663	-0.402620
C84	C	-0.365084	1.476663	0.097380
C85	C	-1.003268	1.142875	-0.249527
C86	C	-0.503268	1.642875	0.250473
C87	C	-0.965425	1.182552	-0.212958
C88	C	-0.465425	1.682552	0.287042
C89	C	-0.881517	1.166829	-0.227419
C90	C	-0.381517	1.666829	0.272581
C91	C	-0.835452	1.111424	-0.278446
C92	C	-0.335452	1.611424	0.221554
C93	C	-0.843668	1.206507	-0.190845
C94	C	-0.343668	1.706507	0.309155
C95	C	-0.759761	1.190780	-0.205302
C96	C	-0.259761	1.690780	0.294698
C97	C	-0.751545	1.095697	-0.292903
C98	C	-0.251545	1.595697	0.207097
C99	C	-0.206107	1.040514	-0.343841
C100	C	0.293893	1.540514	0.156159
C101	C	-0.116807	1.023842	-0.359244
C102	C	0.383193	1.523842	0.140756
C103	C	-0.406864	1.070665	-0.492494
C104	C	0.093136	1.570665	0.007506
C105	C	-0.403115	1.066840	-0.571244
C106	C	0.096885	1.566840	-0.071244
C107	C	-0.423758	1.264435	-0.313674
C108	C	0.076242	1.764435	0.186326
C109	C	-0.427209	1.343184	-0.316222
C110	C	0.072791	1.843184	0.183778
C111	C	-0.376292	1.039424	-1.015320
C112	C	0.123708	1.539424	-0.515320
C113	C	-0.379811	1.043020	-0.941326
C114	C	0.120189	1.543020	-0.441326
C115	C	-0.434940	1.099717	-0.896931
C116	C	0.065060	1.599717	-0.396931
C117	C	-0.486548	1.152826	-0.926534
C118	C	0.013452	1.652826	-0.426534
C119	C	-0.483024	1.149232	-1.000527
C120	C	0.016976	1.649232	-0.500527
C121	C	-0.451199	1.116355	-0.674841
C122	C	0.048801	1.616355	-0.174841
C123	C	-0.454721	1.119944	-0.600842
C124	C	0.045279	1.619944	-0.100842
C125	C	-0.347983	1.010138	-0.615640
C126	C	0.152017	1.510138	-0.115640
C127	C	-0.344467	1.006547	-0.689633
C128	C	0.155533	1.506547	-0.189633
C129	C	-0.396071	1.059657	-0.719231
C130	C	0.103929	1.559657	-0.219231
N131	N	-0.438541	1.103393	-0.821297
N132	N	0.061459	1.603393	-0.321297
N133	N	-0.392466	1.055984	-0.794864
N134	N	0.107534	1.555984	-0.294864
C135	C	-0.424368	1.088608	-0.123625
C136	C	0.075632	1.588608	0.376375
C137	C	-0.427897	1.092527	-0.044918
C138	C	0.072103	1.592527	0.455082
H139	H	-0.314393	0.796463	-0.233017
H140	H	0.185607	1.296463	0.266983
O141	O	-0.514179	1.181102	-0.552955
O142	O	-0.014179	1.681102	-0.052955
H143	H	-0.549466	1.217434	-0.585967
H144	H	-0.049466	1.717434	-0.085967
O145	O	-1.111555	0.925644	-0.449715
O146	O	-0.611555	1.425644	0.050285
H147	H	-1.149747	0.898332	-0.410212
H148	H	-0.649747	1.398332	0.089788
H149	H	-0.728950	1.223088	-0.175523
H150	H	-0.228950	1.723088	0.324477
O151	O	-0.529598	0.355701	-0.391672
O152	O	-0.029598	0.855701	0.108328
H153	H	-0.593828	0.382270	-0.368987
H154	H	-0.093828	0.882270	0.131013
H155	H	-0.338040	0.336580	-0.250475
H156	H	0.161960	0.836580	0.249525
H157	H	-0.949331	0.907601	-0.466292
H158	H	-0.449331	1.407601	0.033708
H159	H	-1.116477	1.108631	-0.281119
H160	H	-0.616477	1.608631	0.218881
O161	O	-0.546008	1.213983	-0.878657
O162	O	-0.046008	1.713983	-0.378657
H163	H	-0.587105	1.191542	-0.836875
H164	H	-0.087105	1.691542	-0.336875
H165	H	-0.343908	0.470808	-0.254785
H166	H	0.156092	0.970808	0.245215
O167	O	-0.284999	0.945400	-0.737519
O168	O	0.215001	1.445400	-0.237519
H169	H	-0.249699	0.909081	-0.704507
H170	H	0.250301	1.409081	-0.204507
H171	H	-0.337790	0.999776	-0.917231
H172	H	0.162210	1.499776	-0.417231
O173	O	-0.536289	0.509507	-0.396664
O174	O	-0.036289	1.009507	0.103336
H175	H	-0.599283	0.507665	-0.373099
H176	H	-0.099283	1.007665	0.126901
O177	O	-0.538694	1.206504	-1.032449
O178	O	-0.038694	1.706504	-0.532449
H179	H	-0.528040	1.260230	-1.022417
H180	H	-0.028040	1.760230	-0.522417
O181	O	-0.506778	0.835162	-0.374883
O182	O	-0.006778	1.335162	0.125117
H183	H	-0.539390	0.802167	-0.398948
H184	H	-0.039390	1.302167	0.101052
O185	O	-0.316827	0.978273	-1.063203
O186	O	0.183173	1.478273	-0.563203
H187	H	-0.281529	0.941956	-1.030189
H188	H	0.218471	1.441956	-0.530189
H189	H	-0.881182	1.251613	-0.149291
H190	H	-0.381182	1.751613	0.350709
O191	O	-0.736734	0.999351	-0.381634
O192	O	-0.236734	1.499351	0.118366
H193	H	-0.712655	1.006862	-0.439366
H194	H	-0.212655	1.506862	0.060634
O195	O	-1.093769	1.159844	-0.233926
O196	O	-0.593769	1.659844	0.266074
H197	H	-1.113954	1.175677	-0.284027
H198	H	-0.613954	1.675677	0.215973
H199	H	-0.305968	0.966899	-0.591533
H200	H	0.194032	1.466899	-0.091533
O201	O	-1.015103	1.242328	-0.157939
O202	O	-0.515103	1.742328	0.342061
H203	H	-1.079807	1.246609	-0.154038
H204	H	-0.579807	1.746609	0.345962
O205	O	-0.506878	1.173619	-0.706756
O206	O	-0.006878	1.673619	-0.206756
H207	H	-0.545816	1.213637	-0.663450
H208	H	-0.045816	1.713637	-0.163450
H209	H	-0.714042	1.050585	-0.334463
H210	H	-0.214042	1.550585	0.165537
H211	H	-0.487458	0.689187	-0.360640
H212	H	0.012542	1.189187	0.139360
H213	H	-0.308535	0.662225	-0.228700
H214	H	0.191465	1.162225	0.271300
H215	H	-0.827581	0.931551	-0.444180
H216	H	-0.327581	1.431551	0.055820
