data_functionalizedCrystal
_audit_creation_method	'MofGen! by Chris Wilmer'
_symmetry_space_group_name_H-M	'P1'
_symmetry_Int_Tables_number	1
_symmetry_cell_setting	triclinic
loop_
_symmetry_equiv_pos_as_xyz
  x,y,z
_cell_length_a	16.120490
_cell_length_b	18.101397
_cell_length_c	16.120297
_cell_angle_alpha	92.869027
_cell_angle_beta	90.129683
_cell_angle_gamma	87.112663
loop_
_atom_site_label
_atom_site_type_symbol
_atom_site_fract_x
_atom_site_fract_y
_atom_site_fract_z
Zn1	Zn	1.247471	-0.375252	-0.534508
Zn2	Zn	1.747471	0.124748	-0.034508
Zn3	Zn	1.254429	-0.493146	-0.395442
Zn4	Zn	1.754429	0.006854	0.104558
Zn5	Zn	1.115459	-0.362732	-0.388430
Zn6	Zn	1.615459	0.137268	0.111570
Zn7	Zn	1.108384	-0.492457	-0.527415
Zn8	Zn	1.608384	0.007543	-0.027415
O9	O	1.181436	-0.430897	-0.461449
O10	O	1.681436	0.069103	0.038551
O11	O	1.364761	-0.396420	-0.521964
O12	O	1.864761	0.103580	-0.021964
O13	O	1.241867	-0.470895	-0.278147
O14	O	1.741867	0.029105	0.221853
O15	O	1.133020	-0.260764	-0.407842
O16	O	1.633020	0.239236	0.092158
O17	O	1.369873	-0.483035	-0.419793
O18	O	1.869873	0.016965	0.080207
O19	O	1.230008	-0.269962	-0.515165
O20	O	1.730008	0.230038	-0.015165
O21	O	1.139767	-0.375080	-0.272995
O22	O	1.639767	0.124920	0.227005
O23	O	0.998154	-0.374412	-0.400964
O24	O	1.498154	0.125588	0.099036
O25	O	1.120962	-0.481861	-0.644721
O26	O	1.620962	0.018139	-0.144721
O27	O	0.992956	-0.469720	-0.503075
O28	O	1.492956	0.030280	-0.003075
O29	O	1.223148	-0.395751	-0.649932
O30	O	1.723148	0.104249	-0.149932
O31	O	1.235007	-0.596684	-0.412915
O32	O	1.735007	-0.096684	0.087085
O33	O	1.127709	-0.596177	-0.509874
O34	O	1.627709	-0.096177	-0.009874
C35	C	0.965382	-0.420633	-0.450489
C36	C	1.465382	0.079367	0.049511
C37	C	0.872952	-0.416261	-0.445821
C38	C	1.372952	0.083739	0.054179
C39	C	0.659993	-0.453570	-0.485668
C40	C	1.159993	0.046430	0.014332
C41	C	0.703727	-0.408285	-0.437296
C42	C	1.203727	0.091715	0.062704
C43	C	0.797893	-0.412724	-0.442040
C44	C	1.297893	0.087276	0.057960
C45	C	0.565818	-0.449132	-0.480924
C46	C	1.065818	0.050868	0.019076
C47	C	1.181367	-0.623302	-0.461405
C48	C	1.681367	-0.123302	0.038595
C49	C	1.181412	-0.705619	-0.461418
C50	C	1.681412	-0.205619	0.038582
C51	C	1.181514	-1.004718	-0.461499
C52	C	1.681514	-0.504718	0.038501
C53	C	1.248853	-0.973665	-0.400313
C54	C	1.748853	-0.473665	0.099687
C55	C	1.249066	-0.888064	-0.400491
C56	C	1.749066	-0.388064	0.099509
C57	C	1.181463	-0.856331	-0.461458
C58	C	1.681463	-0.356331	0.038542
C59	C	1.200776	-0.892215	-0.550311
C60	C	1.700776	-0.392215	-0.050311
C61	C	1.201290	-0.977868	-0.549985
C62	C	1.701290	-0.477868	-0.049985
C63	C	1.094654	-0.968092	-0.434582
C64	C	1.594654	-0.468092	0.065418
C65	C	1.095187	-0.882379	-0.432648
C66	C	1.595187	-0.382379	0.067352
C67	C	1.181433	-0.772470	-0.461440
C68	C	1.681433	-0.272470	0.038560
C69	C	1.181546	-1.088580	-0.461523
C70	C	1.681546	-0.588580	0.038477
C71	C	1.398333	-0.441201	-0.472452
C72	C	1.898333	0.058799	0.027548
C73	C	1.490762	-0.445592	-0.477140
C74	C	1.990762	0.054408	0.022860
C75	C	1.170489	-0.440126	-0.678343
C76	C	1.670489	0.059874	-0.178343
C77	C	1.165824	-0.444059	-0.770770
C78	C	1.665824	0.055941	-0.270770
C79	C	1.181527	-0.237742	-0.461512
C80	C	1.681527	0.262258	0.038488
C81	C	1.181566	-0.155431	-0.461539
C82	C	1.681566	0.344569	0.038461
C83	C	1.157277	-0.451222	-0.939994
C84	C	1.657277	0.048778	-0.439994
C85	C	1.205758	-0.410358	-0.983764
C86	C	1.705758	0.089642	-0.483764
C87	C	1.201003	-0.414343	-1.077926
C88	C	1.701003	0.085657	-0.577926
C89	C	1.162032	-0.447237	-0.845823
C90	C	1.662032	0.052763	-0.345823
C91	C	1.192388	-0.421652	-0.245401
C92	C	1.692388	0.078348	0.254599
C93	C	1.197214	-0.417518	-0.152983
C94	C	1.697214	0.082482	0.347017
H95	H	0.670448	-0.366182	-0.392319
H96	H	1.170448	0.133818	0.107681
F97	F	1.026549	-0.853741	-0.486163
F98	F	1.526549	-0.353741	0.013837
H99	H	0.693269	-0.495670	-0.530640
H100	H	1.193269	0.004330	-0.030640
F101	F	1.098363	-0.500860	-0.983446
F102	F	1.598363	-0.000860	-0.483446
F103	F	1.233987	-0.996095	-0.314138
F104	F	1.733987	-0.496095	0.185862
F105	F	1.233903	-0.856106	-0.314568
F106	F	1.733903	-0.356106	0.185432
H107	H	1.312937	-0.998836	-0.418286
H108	H	1.812937	-0.498836	0.081714
H109	H	1.313498	-0.871248	-0.418653
H110	H	1.813498	-0.371248	0.081347
F111	F	1.284104	-1.008958	-0.579109
F112	F	1.784104	-0.508958	-0.079109
H113	H	1.154149	-0.998603	-0.597385
H114	H	1.654149	-0.498603	-0.097385
F115	F	1.138373	-0.865564	-0.611751
F116	F	1.638373	-0.365564	-0.111751
F117	F	1.282628	-0.869131	-0.579812
F118	F	1.782628	-0.369131	-0.079812
H119	H	1.076226	-0.986041	-0.370682
H120	H	1.576226	-0.486041	0.129318
F121	F	1.076043	-0.851180	-0.347154
F122	F	1.576043	-0.351180	0.152846
H123	H	1.044536	-0.988101	-0.479092
H124	H	1.544536	-0.488101	0.020908
H125	H	1.250836	-0.372379	-0.950518
H126	H	1.750836	0.127621	-0.450518
