data_functionalizedCrystal
_audit_creation_method	'MofGen! by Chris Wilmer'
_symmetry_space_group_name_H-M	'P1'
_symmetry_Int_Tables_number	1
_symmetry_cell_setting	triclinic
loop_
_symmetry_equiv_pos_as_xyz
  x,y,z
_cell_length_a	19.188940
_cell_length_b	14.971491
_cell_length_c	18.266242
_cell_angle_alpha	89.998961
_cell_angle_beta	90.008010
_cell_angle_gamma	96.617525
loop_
_atom_site_label
_atom_site_type_symbol
_atom_site_fract_x
_atom_site_fract_y
_atom_site_fract_z
O1	O	0.091007	-1.186458	0.060913
O2	O	0.591007	-0.686458	0.560913
O3	O	0.101899	-0.926001	0.060908
O4	O	0.601899	-0.426001	0.560908
O5	O	-0.005178	-1.063741	0.060905
O6	O	0.494822	-0.563741	0.560905
O7	O	0.198084	-1.048718	0.060916
O8	O	0.698084	-0.548718	0.560916
O9	O	-0.005189	-1.063744	-0.060857
O10	O	0.494811	-0.563744	0.439143
O11	O	0.101888	-0.926004	-0.060854
O12	O	0.601888	-0.426004	0.439146
O13	O	0.090996	-1.186461	-0.060849
O14	O	0.590996	-0.686461	0.439151
Zn15	Zn	0.096441	-1.056233	-0.080184
Zn16	Zn	0.596441	-0.556233	0.419816
Zn17	Zn	0.096454	-1.056229	0.080243
Zn18	Zn	0.596454	-0.556229	0.580243
O19	O	0.198073	-1.048721	-0.060846
O20	O	0.698073	-0.548721	0.439154
C21	C	0.101406	-0.892681	0.000026
C22	C	0.601406	-0.392681	0.500026
C23	C	0.099944	-0.793391	0.000024
C24	C	0.599944	-0.293391	0.500024
C25	C	-0.031196	-1.063255	0.000024
C26	C	0.468804	-0.563255	0.500024
C27	C	-0.108705	-1.061790	0.000024
C28	C	0.391295	-0.561790	0.500024
C29	C	0.091489	-1.219781	0.000034
C30	C	0.591489	-0.719781	0.500034
C31	C	0.092951	-1.319070	0.000041
C32	C	0.592951	-0.819070	0.500041
C33	C	-0.662003	-1.051371	-0.066331
C34	C	-0.162003	-0.551371	0.433669
C35	C	-0.589174	-1.052737	-0.066335
C36	C	-0.089174	-0.552737	0.433665
C37	C	-0.552747	-1.053423	0.000037
C38	C	-0.052747	-0.553423	0.500037
C39	C	-0.589152	-1.052719	0.066417
C40	C	-0.089152	-0.552719	0.566417
C41	C	-0.661979	-1.051344	0.066419
C42	C	-0.161979	-0.551344	0.566419
N43	N	-0.443547	-1.106479	0.049439
N44	N	0.056453	-0.606479	0.549439
N45	N	-0.374365	-1.107788	0.049433
N46	N	0.125635	-0.607788	0.549433
C47	C	-0.333324	-1.057566	0.000034
C48	C	0.166676	-0.557566	0.500034
N49	N	-0.364080	-1.005997	-0.049369
N50	N	0.135920	-0.505997	0.450631
N51	N	-0.433269	-1.004692	-0.049365
N52	N	0.066731	-0.504692	0.450635
C53	C	-0.473779	-1.054914	0.000042
C54	C	0.026221	-0.554914	0.500042
C55	C	-0.217958	-1.059745	-0.066347
C56	C	0.282042	-0.559745	0.433653
C57	C	-0.145127	-1.061106	-0.066348
C58	C	0.354873	-0.561106	0.433652
C59	C	-0.145107	-1.061097	0.066406
C60	C	0.354893	-0.561097	0.566406
C61	C	-0.217936	-1.059727	0.066406
C62	C	0.282064	-0.559727	0.566406
C63	C	-0.254357	-1.059055	0.000027
C64	C	0.245643	-0.559055	0.500027
C65	C	0.224091	-1.049207	0.000036
C66	C	0.724091	-0.549207	0.500036
C67	C	0.301600	-1.050672	0.000041
C68	C	0.801600	-0.550672	0.500041
C69	C	0.093643	-0.365717	0.066413
C70	C	0.593643	0.134283	0.566413
C71	C	0.095014	-0.459010	0.066410
C72	C	0.595014	0.040990	0.566410
C73	C	0.095698	-0.505654	0.000035
C74	C	0.595698	-0.005654	0.500035
C75	C	0.095005	-0.459001	-0.066341
C76	C	0.595005	0.040999	0.433659
C77	C	0.093628	-0.365711	-0.066338
C78	C	0.593628	0.134289	0.433662
C79	C	0.097875	-0.653448	-0.066344
C80	C	0.597875	-0.153448	0.433656
C81	C	0.099252	-0.746745	-0.066348
C82	C	0.599252	-0.246745	0.433652
C83	C	0.099260	-0.746748	0.066404
C84	C	0.599260	-0.246748	0.566404
C85	C	0.097884	-0.653457	0.066408
C86	C	0.597884	-0.153457	0.566408
C87	C	0.097192	-0.606810	0.000031
C88	C	0.597192	-0.106810	0.500031
N89	N	0.096459	-1.056227	0.189730
N90	N	0.596459	-0.556227	0.689730
N91	N	0.096431	-1.056242	-0.189671
N92	N	0.596431	-0.556242	0.310329
C93	C	0.049138	-1.117327	0.228037
C94	C	0.549138	-0.617327	0.728037
C95	C	0.049136	-1.117335	0.304682
C96	C	0.549136	-0.617335	0.804682
C97	C	0.096449	-1.056228	0.343017
C98	C	0.596449	-0.556228	0.843017
C99	C	0.143779	-0.995123	0.304700
C100	C	0.643779	-0.495123	0.804700
C101	C	0.143783	-0.995123	0.228056
C102	C	0.643783	-0.495123	0.728056
N103	N	0.105119	-0.977049	0.463354
N104	N	0.605119	-0.477049	0.963354
N105	N	0.105110	-0.977052	0.536162
N106	N	0.605110	-0.477052	1.036162
C107	C	0.096439	-1.056226	0.573939
C108	C	0.596439	-0.556226	1.073939
N109	N	0.087762	-1.135400	0.536157
N110	N	0.587762	-0.635400	1.036157
N111	N	0.087767	-1.135396	0.463342
N112	N	0.587767	-0.635396	0.963342
C113	C	0.096449	-1.056221	0.426123
C114	C	0.596449	-0.556221	0.926123
C115	C	0.049114	-1.117340	0.695354
C116	C	0.549114	-0.617340	1.195354
C117	C	0.049117	-1.117349	0.772000
C118	C	0.549117	-0.617349	1.272000
C119	C	0.143756	-0.995130	0.772016
C120	C	0.643756	-0.495130	1.272016
C121	C	0.143756	-0.995128	0.695371
C122	C	0.643756	-0.495128	1.195371
C123	C	0.096431	-1.056232	0.657045
C124	C	0.596431	-0.556232	1.157045
H125	H	-0.691653	-1.050822	-0.120382
H126	H	-0.191653	-0.550822	0.379618
H127	H	0.010581	-1.167097	0.664147
H128	H	0.510581	-0.667097	1.164147
H129	H	0.099814	-0.784719	-0.120396
H130	H	0.599814	-0.284719	0.379604
H131	H	0.010585	-1.167108	0.803191
H132	H	0.510585	-0.667108	1.303191
H133	H	0.095573	-0.496987	0.120457
H134	H	0.595573	0.003013	0.620457
C135	C	0.097128	-0.602151	0.139423
C136	C	0.597128	-0.102151	0.639423
N137	N	0.096555	-0.563508	0.194420
N138	N	0.596555	-0.063508	0.694420
C139	C	0.195802	-0.927912	0.814179
C140	C	0.695802	-0.427912	1.314179
N141	N	0.235005	-0.877282	0.845940
N142	N	0.735005	-0.377282	1.345940
H143	H	-0.115448	-1.061645	0.120447
H144	H	0.384552	-0.561645	0.620447
H145	H	0.182286	-0.945371	0.664179
H146	H	0.682286	-0.445371	1.164179
C147	C	0.100019	-0.798061	0.139420
C148	C	0.600019	-0.298061	0.639420
N149	N	0.100592	-0.836715	0.194413
N150	N	0.600592	-0.336715	0.694413
H151	H	0.097319	-0.615470	-0.120395
H152	H	0.597319	-0.115470	0.379605
C153	C	0.095787	-0.510308	-0.139355
C154	C	0.595787	-0.010308	0.360645
N155	N	0.096390	-0.548949	-0.194350
N156	N	0.596390	-0.048949	0.305650
C157	C	0.092870	-0.314399	-0.139352
C158	C	0.592870	0.185601	0.360648
N159	N	0.092298	-0.275753	-0.194348
N160	N	0.592298	0.224247	0.305652
C161	C	0.092889	-0.314418	0.139432
C162	C	0.592889	0.185582	0.639432
N163	N	0.092317	-0.275782	0.194432
N164	N	0.592317	0.224218	0.694432
C165	C	-0.257979	-1.059013	0.139421
C166	C	0.242021	-0.559013	0.639421
N167	N	-0.288141	-1.058491	0.194419
N168	N	0.211859	-0.558491	0.694419
C169	C	-0.002931	-1.184531	0.185883
C170	C	0.497069	-0.684531	0.685883
N171	N	-0.042153	-1.235145	0.154130
N172	N	0.457847	-0.735145	0.654130
C173	C	-0.549131	-1.053514	-0.139352
C174	C	-0.049131	-0.553514	0.360648
N175	N	-0.518972	-1.054102	-0.194349
N176	N	-0.018972	-0.554102	0.305651
H177	H	-0.559488	-1.053274	0.120457
H178	H	-0.059488	-0.553274	0.620457
C179	C	-0.002926	-1.184547	0.346829
C180	C	0.497074	-0.684547	0.846829
N181	N	-0.042141	-1.235170	0.378572
N182	N	0.457859	-0.735170	0.878572
H183	H	0.182302	-0.945370	0.335915
H184	H	0.682302	-0.445370	0.835915
C185	C	0.195838	-0.927900	0.185916
C186	C	0.695838	-0.427900	0.685916
N187	N	0.235044	-0.877264	0.154176
N188	N	0.735044	-0.377264	0.654176
C189	C	-0.105090	-1.061870	-0.139366
C190	C	0.394910	-0.561870	0.360634
N191	N	-0.074934	-1.062446	-0.194365
N192	N	0.425066	-0.562446	0.305635
C193	C	-0.702020	-1.050608	0.139437
C194	C	-0.202020	-0.550608	0.639437
N195	N	-0.732181	-1.050067	0.194435
N196	N	-0.232181	-0.550067	0.694435
H197	H	-0.247613	-1.059190	-0.120396
H198	H	0.252387	-0.559190	0.379604
