data_functionalizedCrystal
_audit_creation_method	'MofGen! by Chris Wilmer'
_symmetry_space_group_name_H-M	'P1'
_symmetry_Int_Tables_number	1
_symmetry_cell_setting	triclinic
loop_
_symmetry_equiv_pos_as_xyz
  x,y,z
_cell_length_a	11.169417
_cell_length_b	16.625539
_cell_length_c	11.169416
_cell_angle_alpha	89.977153
_cell_angle_beta	90.011589
_cell_angle_gamma	89.983071
loop_
_atom_site_label
_atom_site_type_symbol
_atom_site_fract_x
_atom_site_fract_y
_atom_site_fract_z
Zn1	Zn	1.834932	-0.455862	-0.477765
Zn2	Zn	2.334932	0.044138	0.022235
Zn3	Zn	1.834830	-0.321042	-0.678477
Zn4	Zn	2.334830	0.178958	-0.178477
Zn5	Zn	1.634227	-0.321051	-0.477811
Zn6	Zn	2.134227	0.178949	0.022189
Zn7	Zn	1.634225	-0.455840	-0.678409
Zn8	Zn	2.134225	0.044160	-0.178409
O9	O	1.734553	-0.388449	-0.578116
O10	O	2.234553	0.111551	-0.078116
O11	O	2.002868	-0.437983	-0.504399
O12	O	2.502868	0.062017	-0.004399
O13	O	1.808178	-0.208210	-0.651907
O14	O	2.308178	0.291790	-0.151907
O15	O	1.660894	-0.338946	-0.309856
O16	O	2.160894	0.161054	0.190144
O17	O	2.002793	-0.338931	-0.651862
O18	O	2.502793	0.161069	-0.151862
O19	O	1.808351	-0.437991	-0.309821
O20	O	2.308351	0.062009	0.190179
O21	O	1.660795	-0.208217	-0.504478
O22	O	2.160795	0.291783	-0.004478
O23	O	1.466277	-0.338926	-0.504412
O24	O	1.966277	0.161074	-0.004412
O25	O	1.660891	-0.568675	-0.651745
O26	O	2.160891	-0.068675	-0.151745
O27	O	1.466276	-0.437955	-0.651790
O28	O	1.966276	0.062045	-0.151790
O29	O	1.808349	-0.568691	-0.504333
O30	O	2.308349	-0.068691	-0.004333
O31	O	1.808176	-0.338910	-0.846418
O32	O	2.308176	0.161090	-0.346418
O33	O	1.660793	-0.437946	-0.846368
O34	O	2.160793	0.062054	-0.346368
C35	C	1.422729	-0.388439	-0.578100
C36	C	1.922729	0.111561	-0.078100
C37	C	1.289329	-0.388455	-0.578122
C38	C	1.789329	0.111545	-0.078122
C39	C	1.734631	-0.598758	-0.578026
C40	C	2.234631	-0.098758	-0.078026
C41	C	1.734665	-0.688379	-0.577988
C42	C	2.234665	-0.188379	-0.077988
C43	C	1.734720	-1.016555	-0.577854
C44	C	2.234720	-0.516555	-0.077854
C45	C	1.734701	-0.925246	-0.577895
C46	C	2.234701	-0.425246	-0.077895
C47	C	1.734693	-0.852470	-0.577922
C48	C	2.234693	-0.352470	-0.077922
C49	C	1.734673	-0.761155	-0.577961
C50	C	2.234673	-0.261155	-0.077961
C51	C	2.047596	-0.388458	-0.578133
C52	C	2.547596	0.111542	-0.078133
C53	C	2.180996	-0.388462	-0.578140
C54	C	2.680996	0.111538	-0.078140
C55	C	1.734506	-0.388442	-0.889940
C56	C	2.234506	0.111558	-0.389940
C57	C	1.734595	-0.388467	-1.023340
C58	C	2.234595	0.111533	-0.523340
C59	C	1.734545	-0.178958	-0.578118
C60	C	2.234545	0.321042	-0.078118
C61	C	1.734744	-0.089337	-0.577818
C62	C	2.234744	0.410663	-0.077818
C63	C	1.734634	-0.388472	-0.265073
C64	C	2.234634	0.111528	0.234927
C65	C	1.734668	-0.388483	-0.131673
C66	C	2.234668	0.111517	0.368327
