data_functionalizedCrystal
_audit_creation_method	'MofGen! by Chris Wilmer'
_symmetry_space_group_name_H-M	'P1'
_symmetry_Int_Tables_number	1
_symmetry_cell_setting	triclinic
loop_
_symmetry_equiv_pos_as_xyz
  x,y,z
_cell_length_a	10.654550
_cell_length_b	10.654551
_cell_length_c	8.140239
_cell_angle_alpha	89.999303
_cell_angle_beta	89.993751
_cell_angle_gamma	84.485132
loop_
_atom_site_label
_atom_site_type_symbol
_atom_site_fract_x
_atom_site_fract_y
_atom_site_fract_z
O1	O	1.667839	0.176397	-0.136737
O2	O	1.302360	0.193203	-0.136710
O3	O	1.493502	0.002061	-0.136725
O4	O	1.476697	0.367539	-0.136722
O5	O	1.493491	0.002058	0.136502
O6	O	1.302350	0.193201	0.136517
O7	O	1.667828	0.176394	0.136490
Zn8	Zn	1.485087	0.184797	0.179884
Zn9	Zn	1.485101	0.184800	-0.180104
O10	O	1.476687	0.367537	0.136505
C11	C	1.255557	0.191968	-0.000093
C12	C	1.116114	0.188276	-0.000083
C13	C	1.492263	-0.044739	-0.000115
C14	C	1.488570	-0.184182	-0.000126
C15	C	1.036629	0.300817	-0.000106
C16	C	0.905608	0.297341	-0.000135
C17	C	0.933570	0.068771	-0.000124
C18	C	1.064589	0.072249	-0.000084
C19	C	1.088154	0.416844	-0.000106
C20	C	1.008667	0.529395	-0.000130
C21	C	0.877647	0.525918	-0.000159
C22	C	0.826112	0.409891	-0.000162
C23	C	1.486844	-0.249692	-0.149059
C24	C	1.483363	-0.380713	-0.149051
C25	C	1.483342	-0.380701	0.148836
C26	C	1.486813	-0.249682	0.148826
C27	C	1.488601	-0.184192	-0.298011
C28	C	1.486876	-0.249703	-0.446957
C29	C	1.483396	-0.380724	-0.446949
C30	C	1.481641	-0.446233	-0.297996
C31	C	1.714632	0.177629	-0.000131
C32	C	1.854075	0.181321	-0.000152
C33	C	1.477926	0.414336	-0.000109
C34	C	1.481619	0.553779	-0.000109
N35	N	1.485087	0.184794	0.425567
N36	N	1.485112	0.184793	-0.425787
H37	H	1.194836	0.419687	-0.000090
C38	C	1.150955	-0.049900	0.000273
C39	C	1.226928	-0.054593	0.140887
C40	C	1.306491	-0.167107	0.141289
H41	H	1.202790	-0.053413	-0.094880
H42	H	1.101546	-0.119532	0.000343
H43	H	1.276332	0.015020	0.140802
H44	H	1.175127	-0.051100	0.236062
H45	H	1.257083	-0.236740	0.141359
H46	H	1.358318	-0.170611	0.046131
H47	H	1.358041	-0.170312	0.236701
H48	H	1.488293	-0.196356	-0.568228
H49	H	0.719425	0.407069	-0.000160
H50	H	1.050636	0.623860	-0.000114
H51	H	1.481978	-0.434058	-0.568227
C52	C	0.877793	-0.057282	-0.000403
C53	C	0.918162	-0.125394	-0.140943
C54	C	0.866821	-0.241528	-0.141253
H55	H	0.788382	-0.043413	-0.000520
H56	H	0.905016	-0.103741	0.094834
H57	H	0.890932	-0.078945	-0.236155
H58	H	1.007566	-0.139297	-0.140856
H59	H	0.894044	-0.287987	-0.046016
H60	H	0.777412	-0.227646	-0.141365
H61	H	0.894213	-0.287761	-0.236599
H62	H	1.478788	-0.552917	-0.298002
H63	H	1.491438	-0.077510	-0.298035
H64	H	1.481913	-0.434049	0.270106
H65	H	0.812931	0.617562	-0.000163
H66	H	1.488192	-0.196338	0.270101
