data_functionalizedCrystal
_audit_creation_method	'MofGen! by Chris Wilmer'
_symmetry_space_group_name_H-M	'P1'
_symmetry_Int_Tables_number	1
_symmetry_cell_setting	triclinic
loop_
_symmetry_equiv_pos_as_xyz
  x,y,z
_cell_length_a	17.052862
_cell_length_b	14.560438
_cell_length_c	14.560438
_cell_angle_alpha	59.996306
_cell_angle_beta	90.000118
_cell_angle_gamma	50.261293
loop_
_atom_site_label
_atom_site_type_symbol
_atom_site_fract_x
_atom_site_fract_y
_atom_site_fract_z
Zr1	Zr	0.914397	0.682277	0.040943
O2	O	0.762838	0.927431	-0.132492
O3	O	0.960858	0.474254	0.094119
O4	O	0.960856	0.665866	-0.097498
O5	O	0.762842	0.735815	0.210267
O6	O	1.117057	0.610683	-0.069904
O7	O	0.762839	0.735818	0.059125
O8	O	1.117060	0.267924	0.272863
O9	O	0.762839	1.078574	-0.132501
O10	O	1.097245	0.504882	0.137380
O11	O	0.980675	0.546062	0.229582
O12	O	0.980673	0.771660	0.003978
O13	O	0.864104	0.812840	0.096180
Zr14	Zr	1.163525	0.594260	0.326005
Zr15	Zr	1.163521	0.594266	0.084952
Zr16	Zr	0.914401	0.682271	0.281996
Zr17	Zr	0.914399	0.923333	0.040928
Zr18	Zr	1.163523	0.353204	0.326021
O19	O	1.117064	0.802283	0.272830
O20	O	1.117059	0.802291	-0.069916
O21	O	0.762843	0.927422	0.210255
O22	O	1.315084	0.349106	0.499440
O23	O	1.315079	0.349115	0.156694
O24	O	0.960863	0.474246	0.436865
O25	O	1.315080	0.540722	0.156682
O26	O	1.117066	0.610671	0.464447
O27	O	0.960865	0.665854	0.436853
O28	O	1.315083	0.540719	0.307823
O29	O	0.960859	1.008617	-0.097520
O30	O	1.117063	0.267920	0.464468
O31	O	1.315083	0.197963	0.499450
O32	O	1.315080	0.197968	0.307845
O33	O	0.762842	1.078569	0.059104
O34	O	0.960862	1.008613	0.094085
O35	O	1.097249	0.504877	0.362971
O36	O	1.213818	0.463697	0.270768
O37	O	1.097247	0.730475	0.137366
O38	O	0.980677	0.771655	0.229568
C39	C	1.038959	0.336744	0.183493
C40	C	1.038958	0.234409	0.183500
C41	C	0.952902	0.300027	0.085015
C42	C	0.952907	0.203885	0.084987
C43	C	1.125029	-0.023492	0.281940
C44	C	1.125028	0.072647	0.281963
C45	C	0.727346	0.748356	0.128426
C46	C	0.621587	0.785719	0.109743
C47	C	0.566871	0.334003	0.335618
C48	C	0.666239	0.298893	0.353168
C49	C	0.655082	0.420596	0.292313
C50	C	0.544545	0.577415	0.213906
C51	C	0.445167	0.612528	0.196348
C52	C	0.533377	0.699122	0.153043
C53	C	0.422840	0.855941	0.074635
C54	C	0.323474	0.891047	0.057081
C55	C	0.334631	0.769344	0.117935
C56	C	0.632755	0.664009	0.170601
C57	C	0.511051	0.942535	0.031330
C58	C	0.411683	0.977644	0.013781
C59	C	1.350576	0.528181	0.238523
C60	C	1.456335	0.490818	0.257206
C61	C	1.038956	0.638276	-0.118046
C62	C	1.038954	0.638278	-0.220380
C63	C	1.038963	0.939793	0.183455
C64	C	1.038964	1.042128	0.183449
C65	C	0.978115	0.777521	-0.434243
C66	C	0.978105	0.777532	-0.338097
C67	C	1.099809	0.499007	-0.198810
C68	C	1.099812	0.498999	-0.294957
C69	C	1.038966	0.638261	0.484995
C70	C	1.038968	0.638259	0.587328
C71	C	1.350574	0.226656	0.238542
C72	C	1.456332	0.086959	0.257231
C73	C	1.038964	0.336737	0.485014
C74	C	1.038964	0.234399	0.587354
C75	C	1.350579	0.226649	0.540063
C76	C	1.456339	0.086949	0.661085
C77	C	0.727343	1.049888	-0.173114
C78	C	0.621583	1.189588	-0.294137
C79	C	0.727348	1.049881	0.128407
C80	C	0.621590	1.189578	0.109717
C81	C	1.038958	0.939800	-0.118065
C82	C	1.038957	1.042138	-0.220405
C83	C	1.445148	0.042853	0.196371
C84	C	1.544509	-0.088390	0.213907
C85	C	1.655055	-0.175534	0.292312
C86	C	1.666237	-0.131418	0.353174
C87	C	1.566876	-0.000170	0.335630
C88	C	1.566863	-0.000155	0.669792
C89	C	1.666246	-0.131408	0.783498
C90	C	1.655101	-0.175561	0.888496
C91	C	1.544565	-0.088443	0.879785
C92	C	1.445185	0.042813	0.766080
C93	C	0.511059	1.276703	-0.302844
C94	C	0.411676	1.407986	-0.416550
C95	C	0.422821	1.452144	-0.521548
C96	C	0.533357	1.365021	-0.512837
C97	C	0.632737	1.233747	-0.399132
C98	C	0.632774	1.233694	0.170568
C99	C	0.533413	1.364964	0.153005
C100	C	0.422867	1.452111	0.074597
C101	C	0.411685	1.407991	0.013740
C102	C	0.511045	1.276729	0.031297
C103	C	1.099814	0.164821	0.705060
C104	C	1.099801	0.068679	0.801213
C105	C	0.978089	0.111697	0.661939
C106	C	0.978095	0.207847	0.565787
H107	H	0.882833	0.257326	0.004790
Br108	Br	0.548462	1.424968	-0.655346
Br109	Br	0.782757	0.451190	0.277006
Br110	Br	1.182391	0.309991	-0.265683
H111	H	0.575940	0.234929	0.385152
H112	H	0.928533	0.090063	0.644394
H113	H	1.195103	-0.155206	0.362105
Br114	Br	1.816273	-0.249705	0.459579
Br115	Br	1.789987	-0.353701	1.042803
H116	H	0.928538	0.264505	0.469937
Br117	Br	0.288031	1.630250	0.050783
Br118	Br	1.295134	0.161097	0.089954
H119	H	1.756240	-0.202327	0.790570
Br120	Br	1.241833	-0.016413	0.415625
H121	H	1.149373	0.186443	0.722626
H122	H	1.575999	0.035723	0.385199
H123	H	1.535508	-0.124413	0.965290
H124	H	1.149349	0.012033	0.897052
H125	H	0.735995	0.392001	0.306607
Br126	Br	0.836097	0.519556	-0.048614
H127	H	0.928569	0.890916	-0.530089
H128	H	1.355195	0.113721	0.759007
Br129	Br	0.173460	1.103872	-0.049341
Br130	Br	1.529306	-0.148234	0.131301
Br131	Br	0.782731	1.115526	-0.387336
Br132	Br	0.782788	1.115453	0.276982
H133	H	0.501962	1.240763	-0.217362
H134	H	1.575960	0.035773	0.584310
H135	H	0.542540	1.400862	0.202570
H136	H	0.253722	0.797921	0.103657
H137	H	0.756233	0.171211	0.416994
Br138	Br	0.261678	1.526197	-0.428343
H139	H	0.341890	1.559039	-0.614126
Br140	Br	0.261662	1.190462	-0.092622
H141	H	1.735951	-0.282402	0.306587
H142	H	0.501962	1.041635	-0.018225
Br143	Br	0.895498	0.966545	-0.367383
H144	H	1.149348	0.385626	-0.102957
Br145	Br	0.261649	1.526275	-0.092664
H146	H	0.501922	1.240819	-0.018255
