data_functionalizedCrystal
_audit_creation_method	'MofGen! by Chris Wilmer'
_symmetry_space_group_name_H-M	'P1'
_symmetry_Int_Tables_number	1
_symmetry_cell_setting	triclinic
loop_
_symmetry_equiv_pos_as_xyz
  x,y,z
_cell_length_a	12.759395
_cell_length_b	16.625546
_cell_length_c	12.759387
_cell_angle_alpha	89.964440
_cell_angle_beta	89.979491
_cell_angle_gamma	90.024005
loop_
_atom_site_label
_atom_site_type_symbol
_atom_site_fract_x
_atom_site_fract_y
_atom_site_fract_z
Zn1	Zn	1.606212	-0.320926	-0.593970
Zn2	Zn	2.106212	0.179074	-0.093970
Zn3	Zn	1.606079	-0.455781	-0.418276
Zn4	Zn	2.106079	0.044219	0.081724
Zn5	Zn	1.430510	-0.320970	-0.418307
Zn6	Zn	1.930510	0.179030	0.081693
Zn7	Zn	1.430479	-0.455724	-0.593915
Zn8	Zn	1.930479	0.044276	-0.093915
O9	O	1.518320	-0.388350	-0.506117
O10	O	2.018320	0.111650	-0.006117
O11	O	1.753215	-0.338820	-0.570674
O12	O	2.253215	0.161180	-0.070674
O13	O	1.582747	-0.437941	-0.271259
O14	O	2.082747	0.062059	0.228741
O15	O	1.453886	-0.208132	-0.441645
O16	O	1.953886	0.291868	0.058355
O17	O	1.753118	-0.437898	-0.441592
O18	O	2.253118	0.062102	0.058408
O19	O	1.582974	-0.208099	-0.570704
O20	O	2.082974	0.291901	-0.070704
O21	O	1.453757	-0.338895	-0.271282
O22	O	1.953757	0.161105	0.228718
O23	O	1.283485	-0.338840	-0.441592
O24	O	1.783485	0.161160	0.058408
O25	O	1.453833	-0.437800	-0.740944
O26	O	1.953833	0.062200	-0.240944
O27	O	1.283462	-0.437843	-0.570610
O28	O	1.783462	0.062157	-0.070610
O29	O	1.582943	-0.338765	-0.740984
O30	O	2.082943	0.161235	-0.240984
O31	O	1.582716	-0.568606	-0.441539
O32	O	2.082716	-0.068606	0.058461
O33	O	1.453704	-0.568564	-0.570580
O34	O	1.953704	-0.068564	-0.070580
C35	C	1.245352	-0.388341	-0.506099
C36	C	1.745352	0.111659	-0.006099
C37	C	1.128576	-0.388356	-0.506116
C38	C	1.628576	0.111644	-0.006116
C39	C	1.128590	-0.491615	-0.640246
C40	C	1.628590	0.008385	-0.140246
C41	C	1.073737	-0.543250	-0.707314
C42	C	1.573737	-0.043250	-0.207314
C43	C	0.964015	-0.543260	-0.707327
C44	C	1.464015	-0.043260	-0.207327
C45	C	0.909144	-0.491627	-0.640267
C46	C	1.409144	0.008373	-0.140267
C47	C	0.963998	-0.439991	-0.573199
C48	C	1.463998	0.060009	-0.073199
C49	C	1.073722	-0.439989	-0.573191
C50	C	1.573722	0.060011	-0.073191
C51	C	0.963984	-0.336730	-0.439076
C52	C	1.463984	0.163270	0.060924
C53	C	1.073705	-0.336723	-0.439056
C54	C	1.573705	0.163277	0.060944
C55	C	0.909113	-0.285096	-0.372016
C56	C	1.409113	0.214904	0.127984
C57	C	0.963967	-0.233463	-0.304942
C58	C	1.463967	0.266537	0.195058
C59	C	1.073695	-0.233456	-0.304931
C60	C	1.573695	0.266544	0.195069
C61	C	1.128559	-0.285087	-0.371989
C62	C	1.628559	0.214913	0.128011
C63	C	1.518220	-0.597841	-0.506073
C64	C	2.018220	-0.097841	-0.006073
C65	C	1.518274	-0.687462	-0.506090
C66	C	2.018274	-0.187462	-0.006090
C67	C	1.518457	-1.015638	-0.506199
C68	C	2.018457	-0.515638	-0.006199
C69	C	1.518403	-0.924329	-0.506171
C70	C	2.018403	-0.424329	-0.006171
C71	C	1.518365	-0.851553	-0.506144
C72	C	2.018365	-0.351553	-0.006144
C73	C	1.518312	-0.760239	-0.506117
C74	C	2.018312	-0.260239	-0.006117
C75	C	1.792353	-0.388361	-0.506136
C76	C	2.292353	0.111639	-0.006136
C77	C	1.909130	-0.388365	-0.506144
C78	C	2.409130	0.111635	-0.006144
C79	C	1.518399	-0.388271	-0.780151
C80	C	2.018399	0.111729	-0.280151
C81	C	1.518433	-0.388238	-0.896928
C82	C	2.018433	0.111762	-0.396928
C83	C	1.518448	-0.178041	-0.506184
C84	C	2.018448	0.321959	-0.006184
C85	C	1.518503	-0.088420	-0.506213
C86	C	2.018503	0.411580	-0.006213
C87	C	1.652885	-0.285119	-0.896990
C88	C	2.152885	0.214881	-0.396990
C89	C	1.720126	-0.233547	-0.951881
C90	C	2.220126	0.266453	-0.451881
C91	C	1.720151	-0.233518	-1.061603
C92	C	2.220151	0.266482	-0.561603
C93	C	1.652927	-0.285064	-1.116435
C94	C	2.152927	0.214936	-0.616435
C95	C	1.585686	-0.336635	-1.061544
C96	C	2.085686	0.163365	-0.561544
C97	C	1.585670	-0.336661	-0.951819
C98	C	2.085670	0.163339	-0.451819
C99	C	1.451230	-0.439749	-1.061482
C100	C	1.951230	0.060251	-0.561482
C101	C	1.451209	-0.439784	-0.951760
C102	C	1.951209	0.060216	-0.451760
C103	C	1.384006	-0.491295	-1.116314
C104	C	1.884006	0.008705	-0.616314
C105	C	1.316769	-0.542872	-1.061422
C106	C	1.816769	-0.042872	-0.561422
C107	C	1.316747	-0.542900	-0.951694
C108	C	1.816747	-0.042900	-0.451694
C109	C	1.383968	-0.491355	-0.896868
C110	C	1.883968	0.008645	-0.396868
C111	C	1.518301	-0.388371	-0.233150
C112	C	2.018301	0.111629	0.266850
C113	C	1.518471	-0.388177	-0.116374
C114	C	2.018471	0.111823	0.383626
H115	H	1.118424	-0.585288	-0.761914
H116	H	1.618424	-0.085288	-0.261914
C117	C	1.249287	-0.491609	-0.640237
C118	C	1.749287	0.008391	-0.140237
N119	N	1.340197	-0.491605	-0.640235
N120	N	1.840197	0.008395	-0.140235
C121	C	1.242774	-0.599632	-0.891322
C122	C	1.742774	-0.099632	-0.391322
N123	N	1.187056	-0.642365	-0.845853
N124	N	1.687056	-0.142365	-0.345853
C125	C	0.903675	-0.600062	-0.781103
C126	C	1.403675	-0.100062	-0.281103
N127	N	0.858226	-0.642847	-0.836670
N128	N	1.358226	-0.142847	-0.336670
H129	H	1.652945	-0.285028	-1.205777
H130	H	2.152945	0.214972	-0.705777
H131	H	0.819803	-0.491632	-0.640292
H132	H	1.319803	0.008368	-0.140292
C133	C	0.788416	-0.285101	-0.372043
C134	C	1.288416	0.214899	0.127957
N135	N	0.697506	-0.285103	-0.372062
N136	N	1.197506	0.214897	0.127938
H137	H	1.384028	-0.491264	-1.205655
H138	H	1.884028	0.008736	-0.705655
C139	C	1.242822	-0.599559	-1.121745
C140	C	1.742822	-0.099559	-0.621745
N141	N	1.187123	-0.642257	-1.167184
N142	N	1.687123	-0.142257	-0.667184
H143	H	1.383961	-0.491376	-0.807527
H144	H	1.883961	0.008624	-0.307527
H145	H	1.118350	-0.191402	-0.250323
H146	H	1.618350	0.308598	0.249677
C147	C	0.903602	-0.176671	-0.231187
C148	C	1.403602	0.323329	0.268813
N149	N	0.858132	-0.133895	-0.175632
N150	N	1.358132	0.366105	0.324368
H151	H	1.217900	-0.285088	-0.371983
H152	H	1.717900	0.214912	0.128017
C153	C	1.652870	-0.285152	-0.776293
C154	C	2.152870	0.214848	-0.276293
N155	N	1.652860	-0.285175	-0.685382
N156	N	2.152860	0.214825	-0.185382
C157	C	1.794068	-0.176848	-0.891558
C158	C	2.294068	0.323152	-0.391558
N159	N	1.849760	-0.134142	-0.846125
N160	N	2.349760	0.365858	-0.346125
H161	H	1.774898	-0.191519	-1.106296
H162	H	2.274898	0.308481	-0.606296
