data_functionalizedCrystal
_audit_creation_method	'MofGen! by Chris Wilmer'
_symmetry_space_group_name_H-M	'P1'
_symmetry_Int_Tables_number	1
_symmetry_cell_setting	triclinic
loop_
_symmetry_equiv_pos_as_xyz
  x,y,z
_cell_length_a	12.759401
_cell_length_b	12.759399
_cell_length_c	12.759393
_cell_angle_alpha	90.032031
_cell_angle_beta	90.020937
_cell_angle_gamma	90.015378
loop_
_atom_site_label
_atom_site_type_symbol
_atom_site_fract_x
_atom_site_fract_y
_atom_site_fract_z
Zn1	Zn	1.606252	-0.418196	0.594048
Zn2	Zn	1.606145	-0.593915	0.418367
Zn3	Zn	1.430554	-0.418252	0.418380
Zn4	Zn	1.430541	-0.593835	0.594001
O5	O	1.518373	-0.506050	0.506199
O6	O	1.753259	-0.441517	0.570758
O7	O	1.582813	-0.570670	0.271347
O8	O	1.453911	-0.271224	0.441708
O9	O	1.753180	-0.570617	0.441686
O10	O	1.582995	-0.271183	0.570770
O11	O	1.453807	-0.441611	0.271357
O12	O	1.283531	-0.441533	0.441662
O13	O	1.453889	-0.570479	0.741028
O14	O	1.283522	-0.570533	0.570690
O15	O	1.582983	-0.441438	0.741063
O16	O	1.582801	-0.740926	0.441640
O17	O	1.453785	-0.740866	0.570677
C18	C	1.245406	-0.506031	0.506173
C19	C	1.128629	-0.506048	0.506186
C20	C	1.073722	-0.573163	0.438892
C21	C	0.963998	-0.573181	0.438920
C22	C	0.964097	-0.438960	0.573539
C23	C	1.073819	-0.438948	0.573516
C24	C	0.814006	-0.697058	0.401197
C25	C	0.759096	-0.764164	0.333887
C26	C	0.794645	-0.780170	0.231337
C27	C	0.885103	-0.729054	0.196077
C28	C	0.940008	-0.661940	0.263382
C29	C	0.904460	-0.645955	0.365947
C30	C	1.223813	-0.315069	0.611227
C31	C	1.278720	-0.247949	0.678528
C32	C	1.243173	-0.231933	0.781079
C33	C	1.152711	-0.283031	0.816335
C34	C	1.097805	-0.350150	0.749035
C35	C	1.133359	-0.366168	0.646484
C36	C	1.518309	-0.779017	0.506175
C37	C	1.518377	-0.895794	0.506200
C38	C	1.585632	-0.950652	0.439086
C39	C	1.585700	-1.060376	0.439122
C40	C	1.451248	-1.060374	0.573387
C41	C	1.451187	-0.950652	0.573356
C42	C	1.709709	-1.210255	0.401736
C43	C	1.776955	-1.265116	0.334607
C44	C	1.793119	-1.229578	0.232097
C45	C	1.742023	-1.139180	0.196696
C46	C	1.674770	-1.084324	0.263820
C47	C	1.658625	-1.119860	0.366345
C48	C	1.327176	-0.800771	0.610730
C49	C	1.259917	-0.745913	0.677850
C50	C	1.243741	-0.781449	0.780362
C51	C	1.294819	-0.871851	0.815759
C52	C	1.362079	-0.926709	0.748639
C53	C	1.378256	-0.891165	0.646128
C54	C	1.792406	-0.506069	0.506226
C55	C	1.909183	-0.506078	0.506237
C56	C	1.518446	-0.505943	0.780232
C57	C	1.518478	-0.505898	0.897009
C58	C	1.518466	-0.232016	0.506246
C59	C	1.518506	-0.115240	0.506266
C60	C	1.518360	-0.506080	0.233231
C61	C	1.518533	-0.505829	0.116455
C62	C	1.451328	-0.438685	0.951875
C63	C	1.451353	-0.438652	1.061600
C64	C	1.585685	-0.573050	1.061581
C65	C	1.585654	-0.573087	0.951859
C66	C	1.327503	-0.401053	1.211548
C67	C	1.260363	-0.333823	1.266418
C68	C	1.244259	-0.231319	1.230828
C69	C	1.295311	-0.196024	1.140371
C70	C	1.362459	-0.263248	1.085506
C71	C	1.378542	-0.365767	1.121094
C72	C	1.709506	-0.610675	0.801909
C73	C	1.776660	-0.677895	0.747043
C74	C	1.792774	-0.780401	0.782630
C75	C	1.741741	-0.815692	0.873091
C76	C	1.674587	-0.748472	0.927958
C77	C	1.658471	-0.645968	0.892363
H78	H	0.919458	-0.384328	0.628354
H79	H	1.847467	-0.835126	0.737953
H80	H	0.685444	-0.805782	0.362605
F81	F	1.416441	-1.022924	0.786315
H82	H	1.013655	-0.620320	0.234673
H83	H	1.340596	-0.484524	1.240525
H84	H	1.396629	-0.383976	0.907220
H85	H	1.640379	-0.627752	1.106253
F86	F	1.692524	-1.248075	0.510846
H87	H	1.281649	-0.900785	0.899233
H88	H	1.118345	-0.627803	0.384070
F89	F	1.379741	-1.118767	0.644853
F90	F	1.620272	-0.786035	1.024236
F91	F	0.776176	-0.680045	0.510350
F92	F	1.344393	-0.762940	0.501625
H93	H	0.749932	-0.834813	0.176534
F94	F	1.758896	-0.924788	0.910974
H95	H	0.914033	-0.742082	0.112566
H96	H	1.287881	-0.177266	0.835870
F97	F	1.001525	-0.404532	0.786560
H98	H	1.352374	-0.206336	0.649810
H99	H	1.818225	-0.649148	0.673392
F100	F	1.261658	-0.332119	0.502081
H101	H	1.123762	-0.269982	0.899838
F102	F	1.692342	-0.501582	0.764015
F103	F	1.657144	-0.892271	0.367615
F104	F	1.620386	-0.988125	0.226148
H105	H	1.755182	-1.110258	0.113218
H106	H	1.818558	-1.338718	0.363440
H107	H	1.188969	-0.736775	0.835009
H108	H	1.847874	-1.274254	0.177440
H109	H	1.282203	-0.112550	1.111408
F110	F	1.205525	-0.649719	0.640162
H111	H	1.404029	-0.234510	1.011860
H112	H	1.189592	-0.176580	1.275512
F113	F	1.206031	-0.371390	1.362686
