data_functionalizedCrystal
_audit_creation_method	'MofGen! by Chris Wilmer'
_symmetry_space_group_name_H-M	'P1'
_symmetry_Int_Tables_number	1
_symmetry_cell_setting	triclinic
loop_
_symmetry_equiv_pos_as_xyz
  x,y,z
_cell_length_a	12.827893
_cell_length_b	18.101397
_cell_length_c	12.827885
_cell_angle_alpha	89.963418
_cell_angle_beta	89.980728
_cell_angle_gamma	90.020436
loop_
_atom_site_label
_atom_site_type_symbol
_atom_site_fract_x
_atom_site_fract_y
_atom_site_fract_z
Zn1	Zn	1.597633	-0.294794	-0.590799
Zn2	Zn	2.097633	0.205206	-0.090799
Zn3	Zn	1.597511	-0.418654	-0.416039
Zn4	Zn	2.097511	0.081346	0.083961
Zn5	Zn	1.422874	-0.294830	-0.416073
Zn6	Zn	1.922874	0.205170	0.083927
Zn7	Zn	1.422844	-0.418598	-0.590739
Zn8	Zn	1.922844	0.081402	-0.090739
O9	O	1.510216	-0.356719	-0.503412
O10	O	2.010216	0.143281	-0.003412
O11	O	1.743853	-0.311232	-0.567628
O12	O	2.243853	0.188768	-0.067628
O13	O	1.574307	-0.402266	-0.269807
O14	O	2.074307	0.097734	0.230193
O15	O	1.446120	-0.191193	-0.439290
O16	O	1.946120	0.308807	0.060710
O17	O	1.743763	-0.402231	-0.439232
O18	O	2.243763	0.097769	0.060768
O19	O	1.574514	-0.191166	-0.567661
O20	O	2.074514	0.308834	-0.067661
O21	O	1.446002	-0.311294	-0.269832
O22	O	1.946002	0.188706	0.230168
O23	O	1.276634	-0.311240	-0.439232
O24	O	1.776634	0.188760	0.060768
O25	O	1.446068	-0.402137	-0.736983
O26	O	1.946068	0.097863	-0.236983
O27	O	1.276612	-0.402172	-0.567558
O28	O	1.776612	0.097828	-0.067558
O29	O	1.574485	-0.311179	-0.737027
O30	O	2.074485	0.188821	-0.237027
O31	O	1.574278	-0.522279	-0.439174
O32	O	2.074278	-0.022279	0.060826
O33	O	1.445951	-0.522239	-0.567525
O34	O	1.945951	-0.022239	-0.067525
C35	C	1.238706	-0.356705	-0.503393
C36	C	1.738706	0.143295	-0.003393
C37	C	1.122553	-0.356717	-0.503409
C38	C	1.622553	0.143283	-0.003409
C39	C	1.070784	-0.401783	-0.566811
C40	C	1.570784	0.098217	-0.066811
C41	C	0.950734	-0.401796	-0.566829
C42	C	1.450734	0.098204	-0.066829
C43	C	1.510126	-0.549130	-0.503362
C44	C	2.010126	-0.049130	-0.003362
C45	C	1.510183	-0.631444	-0.503375
C46	C	2.010183	-0.131444	-0.003375
C47	C	1.510317	-0.930535	-0.503470
C48	C	2.010317	-0.430535	-0.003470
C49	C	1.590832	-0.899204	-0.422499
C50	C	2.090832	-0.399204	0.077501
C51	C	1.591111	-0.813586	-0.422709
C52	C	2.091111	-0.313586	0.077291
C53	C	1.510251	-0.782152	-0.503422
C54	C	2.010251	-0.282152	-0.003422
C55	C	1.540108	-0.813151	-0.613572
C56	C	2.040108	-0.313151	-0.113572
C57	C	1.540731	-0.898796	-0.613131
C58	C	2.040731	-0.398796	-0.113131
C59	C	1.399730	-0.899046	-0.475245
C60	C	1.899730	-0.399046	0.024755
C61	C	1.400276	-0.813396	-0.472786
C62	C	1.900276	-0.313396	0.027214
C63	C	1.510212	-0.698293	-0.503402
C64	C	2.010212	-0.198293	-0.003402
C65	C	1.510359	-1.014394	-0.503498
C66	C	2.010359	-0.514394	-0.003498
C67	C	1.782786	-0.356734	-0.503433
C68	C	2.282786	0.143266	-0.003433
C69	C	1.898939	-0.356740	-0.503442
C70	C	2.398939	0.143260	-0.003442
C71	C	1.510287	-0.356648	-0.775983
C72	C	2.010287	0.143352	-0.275983
C73	C	1.510317	-0.356618	-0.892136
C74	C	2.010317	0.143382	-0.392136
C75	C	1.510334	-0.163557	-0.503486
C76	C	2.010334	0.336443	-0.003486
C77	C	1.510384	-0.081243	-0.503518
C78	C	2.010384	0.418757	-0.003518
C79	C	1.573868	-0.311600	-0.943943
C80	C	2.073868	0.188400	-0.443943
C81	C	1.573901	-0.311567	-1.063993
C82	C	2.073901	0.188433	-0.563993
C83	C	1.510205	-0.356737	-0.231903
C84	C	2.010205	0.143263	0.268097
C85	C	1.510377	-0.356558	-0.115750
C86	C	2.010377	0.143442	0.384250
H87	H	0.906215	-0.440381	-0.621107
H88	H	1.406215	0.059619	-0.121107
H89	H	1.620037	-0.791642	-0.637886
H90	H	2.120037	-0.291642	-0.137886
H91	H	1.372568	-0.920712	-0.396317
H92	H	1.872568	-0.420712	0.103683
H93	H	1.077996	-0.318141	-0.449146
H94	H	1.577996	0.181859	0.050854
Cl95	Cl	1.426341	-0.416085	-0.960867
Cl96	Cl	1.926341	0.083915	-0.460867
H97	H	0.943451	-0.318158	-0.449155
H98	H	1.443451	0.181842	0.050845
Cl99	Cl	1.657812	-0.252110	-0.875211
Cl100	Cl	2.157812	0.247890	-0.375211
Cl101	Cl	1.365508	-0.782123	-0.347637
Cl102	Cl	1.865508	-0.282123	0.152363
H103	H	1.572431	-0.792630	-0.341034
H104	H	2.072431	-0.292630	0.158966
H105	H	1.572377	-0.919853	-0.340579
H106	H	2.072377	-0.419853	0.159421
H107	H	1.115341	-0.440353	-0.621082
H108	H	1.615341	0.059647	-0.121082
Cl109	Cl	1.716617	-0.932342	-0.450998
Cl110	Cl	2.216617	-0.432342	0.049002
Cl111	Cl	1.717583	-0.781860	-0.451548
Cl112	Cl	2.217583	-0.281860	0.048452
H113	H	1.337059	-0.792007	-0.527443
H114	H	1.837059	-0.292007	-0.027443
H115	H	1.621565	-0.918714	-0.637041
H116	H	2.121565	-0.418714	-0.137041
Cl117	Cl	1.454114	-0.930793	-0.709442
Cl118	Cl	1.954114	-0.430793	-0.209442
Cl119	Cl	1.657915	-0.252063	-1.132773
Cl120	Cl	2.157915	0.247937	-0.632773
H121	H	1.483258	-0.792787	-0.675525
H122	H	1.983258	-0.292787	-0.175525
H123	H	1.339740	-0.919307	-0.534220
H124	H	1.839740	-0.419307	-0.034220
H125	H	1.455969	-0.395104	-1.071204
H126	H	1.955969	0.104896	-0.571204
