data_functionalizedCrystal
_audit_creation_method	'MofGen! by Chris Wilmer'
_symmetry_space_group_name_H-M	'P1'
_symmetry_Int_Tables_number	1
_symmetry_cell_setting	triclinic
loop_
_symmetry_equiv_pos_as_xyz
  x,y,z
_cell_length_a	12.645331
_cell_length_b	12.645330
_cell_length_c	12.827885
_cell_angle_alpha	89.971022
_cell_angle_beta	89.985301
_cell_angle_gamma	90.016927
loop_
_atom_site_label
_atom_site_type_symbol
_atom_site_fract_x
_atom_site_fract_y
_atom_site_fract_z
Zn1	Zn	1.620720	-0.422010	-0.590722
Zn2	Zn	1.620605	-0.599310	-0.415984
Zn3	Zn	1.443438	-0.422059	-0.416010
Zn4	Zn	1.443417	-0.599229	-0.590699
O5	O	1.532045	-0.510652	-0.503354
O6	O	1.769052	-0.445542	-0.567541
O7	O	1.597064	-0.575852	-0.269752
O8	O	1.467012	-0.273705	-0.439206
O9	O	1.768968	-0.575804	-0.439163
O10	O	1.597261	-0.273669	-0.567566
O11	O	1.466901	-0.445626	-0.269770
O12	O	1.295088	-0.445548	-0.439184
O13	O	1.466976	-0.575666	-0.736938
O14	O	1.295072	-0.575714	-0.567527
O15	O	1.597240	-0.445464	-0.736955
O16	O	1.597044	-0.747647	-0.439141
O17	O	1.466864	-0.747587	-0.567503
C18	C	1.256615	-0.510628	-0.503356
C19	C	1.138785	-0.510643	-0.503382
C20	C	1.531968	-0.786082	-0.503339
C21	C	1.532032	-0.903912	-0.503368
C22	C	0.971247	-0.592980	-0.583702
C23	C	1.093807	-0.592714	-0.584038
C24	C	1.094307	-0.398986	-0.533469
C25	C	0.971709	-0.399489	-0.534035
C26	C	0.971542	-0.539065	-0.392721
C27	C	1.094148	-0.541506	-0.393318
C28	C	1.450473	-1.071482	-0.584369
C29	C	1.450056	-0.948923	-0.584109
C30	C	1.501788	-0.948514	-0.393239
C31	C	1.501290	-1.071112	-0.393731
C32	C	1.644332	-1.071001	-0.531602
C33	C	1.643644	-0.948394	-0.534010
C34	C	1.808550	-0.510677	-0.503352
C35	C	1.926380	-0.510688	-0.503351
C36	C	1.532118	-0.510550	-0.775924
C37	C	1.532149	-0.510507	-0.892077
C38	C	1.532152	-0.234147	-0.503391
C39	C	1.532197	-0.116317	-0.503407
C40	C	1.467761	-0.446054	-0.943871
C41	C	1.467791	-0.446008	-1.063922
C42	C	1.532033	-0.510677	-0.231844
C43	C	1.532208	-0.510422	-0.115691
H44	H	1.123879	-0.675514	-0.565182
H45	H	1.587296	-0.565654	-0.936611
H46	H	1.469222	-1.100889	-0.666297
H47	H	1.587340	-0.565601	-1.071156
C48	C	1.578202	-1.111188	-0.309450
N49	N	1.636125	-1.141368	-0.245965
H50	H	0.941756	-0.676054	-0.565054
C51	C	1.393264	-0.371543	-0.883713
N52	N	1.337156	-0.315414	-0.838403
C53	C	0.929658	-0.567932	-0.693803
N54	N	0.898333	-0.549062	-0.776731
C55	C	1.392197	-0.907172	-0.360390
N56	N	1.309649	-0.876036	-0.335654
C57	C	1.393317	-0.371458	-1.124092
N58	N	1.337220	-0.315306	-1.169415
C59	C	1.730235	-0.906997	-0.460143
N60	N	1.795454	-0.875820	-0.404497
H61	H	0.940620	-0.619097	-0.365374
H62	H	0.943132	-0.375420	-0.614911
C63	C	1.133459	-0.567379	-0.694788
N64	N	1.163323	-0.548308	-0.778214
H65	H	1.367861	-1.102383	-0.565930
H66	H	0.942029	-0.335977	-0.478194
C67	C	1.133624	-0.313907	-0.456850
N68	N	1.163225	-0.249830	-0.399127
H69	H	1.671921	-1.101839	-0.610541
C70	C	1.133461	-0.652494	-0.362646
N71	N	1.163092	-0.736083	-0.339540
C72	C	1.135804	-0.365880	-0.641549
N73	N	1.167057	-0.340951	-0.722957
H74	H	1.124766	-0.485917	-0.330238
H75	H	0.942526	-0.479123	-0.332852
H76	H	1.666451	-0.919237	-0.615058
C77	C	1.579645	-0.909122	-0.309515
N78	N	1.638286	-0.879448	-0.246454
H79	H	1.468978	-0.918763	-0.665769
C80	C	1.337730	-0.909424	-0.558952
N81	N	1.253115	-0.879674	-0.540029
C82	C	1.726588	-1.110175	-0.451944
N83	N	1.788536	-1.139689	-0.391944
C84	C	1.390549	-1.109876	-0.361470
N85	N	1.307134	-1.139068	-0.337173
