data_functionalizedCrystal
_audit_creation_method	'MofGen! by Chris Wilmer'
_symmetry_space_group_name_H-M	'P1'
_symmetry_Int_Tables_number	1
_symmetry_cell_setting	triclinic
loop_
_symmetry_equiv_pos_as_xyz
  x,y,z
_cell_length_a	27.732048
_cell_length_b	27.732048
_cell_length_c	18.366186
_cell_angle_alpha	89.996446
_cell_angle_beta	89.998500
_cell_angle_gamma	97.357346
loop_
_atom_site_label
_atom_site_type_symbol
_atom_site_fract_x
_atom_site_fract_y
_atom_site_fract_z
O1	O	-0.057518	0.640930	-0.060444
O2	O	-0.066263	0.500137	-0.060465
O3	O	0.008506	0.574906	-0.060463
O4	O	-0.132287	0.566161	-0.060445
O5	O	0.008510	0.574894	0.060636
O6	O	-0.066260	0.500124	0.060635
O7	O	-0.057514	0.640918	0.060655
Zn8	Zn	-0.061886	0.570519	0.079872
Zn9	Zn	-0.061891	0.570535	-0.079682
O10	O	-0.132284	0.566148	0.060654
C11	C	-0.066078	0.482124	0.000082
C12	C	-0.065525	0.428469	0.000074
C13	C	-0.106229	0.089654	0.000111
C14	C	-0.104178	-0.112006	0.000117
O15	O	-0.141398	-0.143262	0.000153
N16	N	-0.059843	-0.131130	0.000110
C17	C	-0.016017	-0.099835	0.000106
O18	O	0.021740	-0.120728	0.000108
C19	C	-0.018068	0.101824	0.000105
C20	C	-0.062407	0.120944	0.000105
C21	C	-0.150563	0.108775	0.000111
C22	C	-0.151075	0.159187	0.000106
C23	C	-0.107253	0.190477	0.000100
C24	C	-0.062919	0.171356	0.000099
C25	C	0.025757	0.133117	0.000107
C26	C	0.025240	0.183535	0.000108
C27	C	-0.019098	0.202655	0.000108
C28	C	-0.019609	0.253059	0.000088
N29	N	-0.063944	0.272183	0.000095
C30	C	-0.107766	0.240892	0.000101
C31	C	-0.014943	-0.205709	0.000105
C32	C	-0.014430	-0.256124	0.000104
C33	C	-0.102591	-0.268291	0.000116
C34	C	-0.103104	-0.217876	0.000112
C35	C	-0.059278	-0.186585	0.000112
C36	C	-0.108839	0.346761	0.000088
C37	C	-0.109347	0.397178	0.000080
C38	C	-0.021186	0.409341	0.000072
C39	C	-0.020678	0.358929	0.000076
C40	C	-0.064508	0.327639	0.000087
O41	O	0.017592	0.284343	0.000060
O42	O	-0.145518	0.261794	0.000115
C43	C	-0.105716	0.039242	0.000116
C44	C	-0.061382	0.020120	0.000116
C45	C	-0.017560	0.051411	0.000110
C46	C	-0.060869	-0.030294	0.000115
C47	C	-0.104691	-0.061585	0.000121
C48	C	-0.149026	-0.042461	0.000128
C49	C	-0.149539	0.007951	0.000122
C50	C	0.026775	0.032287	0.000103
C51	C	0.027284	-0.018125	0.000108
C52	C	-0.016538	-0.049416	0.000114
C53	C	-0.150292	0.566338	0.000107
C54	C	-0.203947	0.566891	0.000114
C55	C	-0.542762	0.526187	0.000073
C56	C	-0.744422	0.528238	0.000065
O57	O	-0.775677	0.491017	0.000027
N58	N	-0.763546	0.572573	0.000072
C59	C	-0.732251	0.616399	0.000077
O60	O	-0.753144	0.654156	0.000075
C61	C	-0.530592	0.614347	0.000080
C62	C	-0.511472	0.570009	0.000080
C63	C	-0.523641	0.481853	0.000072
C64	C	-0.473229	0.481340	0.000078
C65	C	-0.441938	0.525162	0.000085
C66	C	-0.461060	0.569497	0.000086
C67	C	-0.499299	0.658172	0.000080
C68	C	-0.448881	0.657656	0.000078
C69	C	-0.429761	0.613317	0.000078
C70	C	-0.379357	0.612807	0.000099
N71	N	-0.360233	0.568472	0.000092
C72	C	-0.391524	0.524649	0.000085
C73	C	-0.838125	0.617473	0.000077
C74	C	-0.888539	0.617986	0.000077
C75	C	-0.900707	0.529825	0.000064
C76	C	-0.850291	0.529312	0.000068
C77	C	-0.819001	0.573138	0.000069
C78	C	-0.285655	0.523577	0.000098
C79	C	-0.235238	0.523069	0.000107
C80	C	-0.223075	0.611229	0.000117
C81	C	-0.273487	0.611738	0.000112
C82	C	-0.304777	0.567908	0.000100
O83	O	-0.348073	0.650008	0.000128
O84	O	-0.370621	0.486898	0.000070
C85	C	-0.593174	0.526699	0.000067
C86	C	-0.612295	0.571034	0.000068
C87	C	-0.581005	0.614856	0.000075
C88	C	-0.662710	0.571547	0.000068
C89	C	-0.694001	0.527725	0.000061
C90	C	-0.674877	0.483389	0.000054
C91	C	-0.624465	0.482877	0.000060
C92	C	-0.600129	0.659191	0.000082
C93	C	-0.650541	0.659700	0.000077
C94	C	-0.681832	0.615878	0.000070
C95	C	0.026515	0.574716	0.000082
C96	C	0.080170	0.574164	0.000070
C97	C	-0.057699	0.658931	0.000107
C98	C	-0.058252	0.712586	0.000110
N99	N	-0.061883	0.570511	0.188763
N100	N	-0.061891	0.570547	-0.188573
C101	C	-0.028791	0.603630	0.226864
C102	C	-0.028789	0.603633	0.303092
C103	C	-0.061887	0.570522	0.341216
C104	C	-0.094981	0.537397	0.303106
C105	C	-0.094979	0.537392	0.226880
C106	C	-0.105958	0.563860	0.461981
C107	C	-0.105961	0.563869	0.538206
C108	C	-0.061893	0.570536	0.576324
C109	C	-0.017820	0.577204	0.538206
C110	C	-0.017818	0.577199	0.461980
C111	C	-0.061892	0.570524	0.423871
C112	C	-0.028796	0.603659	0.697079
C113	C	-0.028793	0.603659	0.773309
C114	C	-0.094989	0.537426	0.773321
C115	C	-0.094988	0.537424	0.697093
C116	C	-0.061892	0.570543	0.658977
H117	H	0.061861	0.117558	0.000108
H118	H	-0.185643	0.023514	0.000123
Cl119	Cl	-0.204116	-0.081807	0.000132
Cl120	Cl	-0.205662	0.069446	0.000117
H121	H	-0.197589	0.646908	0.000126
Cl122	Cl	0.083029	-0.042156	0.000099
Cl123	Cl	-0.523323	0.713915	0.000062
H124	H	-0.141846	0.558422	0.430953
H125	H	-0.001843	0.630627	0.804331
H126	H	-0.926193	0.494143	0.000061
Cl127	Cl	-0.158845	-0.193844	0.000114
Cl128	Cl	-0.674571	0.715445	0.000076
H129	H	-0.121929	0.510437	0.334150
Cl130	Cl	-0.165091	0.421212	0.000077
H131	H	-0.121927	0.510422	0.195857
H132	H	-0.001841	0.630596	0.195832
H133	H	-0.608902	0.446773	0.000061
Cl134	Cl	-0.826260	0.473571	0.000066
H135	H	0.062462	0.057760	0.000100
Cl136	Cl	0.033901	0.448687	0.000068
H137	H	-0.904103	0.654090	0.000089
Cl138	Cl	0.035062	0.334890	0.000080
Cl139	Cl	-0.136594	0.495789	0.649190
Cl140	Cl	-0.157681	-0.307637	0.000127
H141	H	0.021674	-0.271687	0.000093
H142	H	-0.121937	0.510464	0.804361
H143	H	-0.700363	0.447708	0.000053
Cl144	Cl	-0.560799	0.714288	0.000094
Cl145	Cl	-0.562970	0.426754	0.000062
Cl146	Cl	-0.211204	0.467325	0.000108
H147	H	0.020747	-0.180236	0.000105
H148	H	-0.001840	0.630603	0.334119
H149	H	-0.423407	0.693344	0.000075
Cl150	Cl	-0.798795	0.672573	0.000083
Cl151	Cl	-0.163940	0.307434	0.000101
Cl152	Cl	-0.449199	0.425598	0.000069
H153	H	0.018065	0.582633	0.569240
Cl154	Cl	-0.206818	0.183216	0.000110
Cl155	Cl	0.037585	0.585576	0.414064
H156	H	-0.311125	0.487886	0.000088
Cl157	Cl	0.080338	0.222868	0.000110
H158	H	-0.141847	0.558442	0.569235
H159	H	-0.289056	0.647842	0.000122
Cl160	Cl	0.012813	0.645292	0.649161
