data_functionalizedCrystal
_audit_creation_method	'MofGen! by Chris Wilmer'
_symmetry_space_group_name_H-M	'P1'
_symmetry_Int_Tables_number	1
_symmetry_cell_setting	triclinic
loop_
_symmetry_equiv_pos_as_xyz
  x,y,z
_cell_length_a	31.640172
_cell_length_b	19.377369
_cell_length_c	19.377372
_cell_angle_alpha	62.058157
_cell_angle_beta	90.000920
_cell_angle_gamma	48.633885
loop_
_atom_site_label
_atom_site_type_symbol
_atom_site_fract_x
_atom_site_fract_y
_atom_site_fract_z
Zr1	Zr	0.331136	0.759380	0.055874
O2	O	0.233092	0.943826	-0.042071
O3	O	0.369178	0.607566	0.064542
O4	O	0.332792	0.806412	-0.072850
O5	O	0.289096	0.696501	0.227993
O6	O	0.402353	0.806392	-0.072836
O7	O	0.269478	0.744980	0.095321
O8	O	0.467441	0.450692	0.172935
O9	O	0.224008	1.052200	-0.017778
O10	O	0.427667	0.657908	0.094053
O11	O	0.390394	0.621744	0.193053
O12	O	0.347555	0.855860	0.031291
O13	O	0.310282	0.819695	0.130291
Zr14	Zr	0.473365	0.682030	0.267492
Zr15	Zr	0.442078	0.759348	0.055897
Zr16	Zr	0.362424	0.682062	0.267469
Zr17	Zr	0.316648	0.932225	0.094619
Zr18	Zr	0.487854	0.509185	0.228747
O19	O	0.435324	0.833844	0.258823
O20	O	0.390836	0.943780	-0.042038
O21	O	0.277579	0.833889	0.258790
O22	O	0.571410	0.497584	0.365437
O23	O	0.526923	0.607520	0.064576
O24	O	0.413665	0.497629	0.365404
O25	O	0.515406	0.744909	0.095373
O26	O	0.471710	0.634997	0.396216
O27	O	0.402149	0.635018	0.396202
O28	O	0.535024	0.696430	0.228044
O29	O	0.312191	1.052175	-0.017759
O30	O	0.492310	0.389235	0.341125
O31	O	0.580494	0.389209	0.341144
O32	O	0.555625	0.450667	0.172953
O33	O	0.248877	0.990743	0.150412
O34	O	0.337061	0.990717	0.150431
O35	O	0.456947	0.585550	0.292075
O36	O	0.494219	0.621714	0.193075
O37	O	0.414107	0.819665	0.130313
O38	O	0.376835	0.783501	0.229313
C39	C	0.420374	0.504502	0.113218
C40	C	0.426525	0.431125	0.096770
C41	C	0.349737	0.094999	0.301338
C42	C	0.355598	0.025933	0.285953
C43	C	0.394507	0.063696	0.182604
C44	C	0.388653	0.132761	0.197984
C45	C	0.366266	0.148408	0.257351
C46	C	0.405182	0.186170	0.153997
C47	C	0.399324	0.255234	0.169373
C48	C	0.376938	0.270890	0.228735
C49	C	0.360409	0.217472	0.272727
C50	C	0.427564	0.170529	0.094626
C51	C	0.444093	0.223937	0.050639
C52	C	0.438240	0.292996	0.066019
C53	C	0.415853	0.308652	0.125381
C54	C	0.454768	0.346414	0.022027
C55	C	0.448911	0.415479	0.037403
C56	C	0.409995	0.377717	0.140757
C57	C	0.263480	0.720745	0.161654
C58	C	0.216383	0.720758	0.161644
C59	C	-0.033792	0.617360	0.194462
C60	C	-0.210773	0.617337	0.194478
O61	O	-0.198089	0.529446	0.222376
N62	N	-0.274720	0.720665	0.161715
C63	C	-0.294422	0.824005	0.128952
O64	O	-0.352873	0.911889	0.101094
C65	C	-0.117441	0.824025	0.128942
C66	C	-0.053494	0.720693	0.161699
C67	C	0.030151	0.514036	0.227217
C68	C	0.074393	0.514044	0.227208
C69	C	0.054691	0.617377	0.194445
C70	C	-0.009253	0.720701	0.161690
C71	C	-0.137142	0.927361	0.096185
C72	C	-0.092890	0.927356	0.096187
C73	C	-0.028943	0.824024	0.128944
C74	C	0.015287	0.824042	0.128918
N75	N	0.079234	0.720714	0.161680
C76	C	0.098936	0.617381	0.194444
C77	C	-0.387337	0.823988	0.128958
C78	C	-0.431583	0.823984	0.128959
C79	C	-0.347930	0.617314	0.194486
C80	C	-0.303685	0.617322	0.194479
C81	C	-0.323390	0.720659	0.161720
C82	C	0.191843	0.617407	0.194422
C83	C	0.236085	0.617426	0.194407
C84	C	0.152429	0.824093	0.128884
C85	C	0.108191	0.824076	0.128894
C86	C	0.127903	0.720723	0.161669
O87	O	0.002650	0.911884	0.101043
O88	O	0.157392	0.529504	0.222315
C89	C	-0.078034	0.617352	0.194471
C90	C	-0.141977	0.720676	0.161716
C91	C	-0.161679	0.824008	0.128953
C92	C	-0.186223	0.720672	0.161717
C93	C	-0.166521	0.617339	0.194480
C94	C	-0.102573	0.514010	0.227243
C95	C	-0.058332	0.514019	0.227234
C96	C	-0.225627	0.927337	0.096190
C97	C	-0.269865	0.927320	0.096200
C98	C	-0.250163	0.823988	0.128964
C99	C	0.541022	0.720665	0.161712
C100	C	0.588119	0.720651	0.161722
C101	C	0.363115	0.817418	-0.102991
C102	C	0.349832	0.850242	-0.192819
C103	C	0.384128	0.936907	0.210148
C104	C	0.377977	1.010284	0.226596
C105	C	0.515218	0.441563	-0.324449
C106	C	0.502723	0.472433	-0.408865
C107	C	0.419093	0.679080	-0.474374
C108	C	0.431582	0.648227	-0.389963
C109	C	0.479645	0.529467	-0.315005
C110	C	0.396009	0.736130	-0.380519
C111	C	0.408495	0.705280	-0.296114
C112	C	0.456555	0.586525	-0.221154
C113	C	0.492131	0.498616	-0.230601
C114	C	0.347944	0.854890	-0.455477
C115	C	0.312371	0.942793	-0.446033
C116	C	0.324860	0.911943	-0.361628
C117	C	0.372919	0.793189	-0.286667
C118	C	0.289283	0.999852	-0.352180
C119	C	0.301769	0.969002	-0.267776
C120	C	0.385405	0.762338	-0.202263
C121	C	0.441387	0.623991	0.426357
C122	C	0.454669	0.591168	0.516185
C123	C	0.559145	0.504462	0.113247
C124	C	0.612393	0.431071	0.096809
C125	C	0.459510	0.407789	0.377892
C126	C	0.478943	0.301588	0.451271
C127	C	0.598281	0.407749	0.377921
C128	C	0.664812	0.301535	0.451310
C129	C	0.206221	1.033661	-0.054555
C130	C	0.139690	1.139875	-0.127945
C131	C	0.245357	0.936947	0.210118
C132	C	0.192109	1.010338	0.226557
C133	C	0.344992	1.033620	-0.054526
C134	C	0.325558	1.139821	-0.127906
C135	C	0.602658	0.415503	0.037392
C136	C	0.652682	0.346561	0.021928
C137	C	0.712443	0.293182	0.065888
C138	C	0.722177	0.308758	0.125308
C139	C	0.672151	0.377705	0.140766
C140	C	0.522810	0.232819	0.537428
C141	C	0.541068	0.133039	0.606386
C142	C	0.515462	0.102025	0.589184
C143	C	0.471589	0.170805	0.503019
C144	C	0.453329	0.270588	0.434064
C145	C	0.715515	0.270533	0.434098
C146	C	0.778030	0.170745	0.503049
C147	C	0.789841	0.101957	0.589211
C148	C	0.739131	0.132967	0.606423
C149	C	0.676617	0.232757	0.537474
C150	C	0.088986	1.170885	-0.110730
C151	C	0.026469	1.270694	-0.179676
C152	C	0.014658	1.339486	-0.265838
C153	C	0.065369	1.308472	-0.283051
C154	C	0.127884	1.208669	-0.214104
C155	C	0.201842	1.025917	0.285967
C156	C	0.151812	1.094886	0.301411
C157	C	0.092051	1.148268	0.257450
C158	C	0.082318	1.132689	0.198033
C159	C	0.132346	1.063727	0.182584
C160	C	0.351177	1.170801	-0.110677
C161	C	0.332929	1.270576	-0.179618
C162	C	0.289060	1.339374	-0.265787
C163	C	0.263442	1.308386	-0.283016
C164	C	0.281693	1.208608	-0.214076
H165	H	0.372166	0.327132	0.241249
O166	O	0.182566	1.175255	-0.232679
H167	H	0.228024	1.094314	-0.170265
O168	O	-0.028216	1.304120	-0.161095
H169	H	-0.073675	1.385083	-0.223505
O170	O	0.266292	0.968366	0.333374
H171	H	0.264642	0.990814	0.377266
H172	H	0.098591	1.114880	-0.040579
H173	H	0.748757	0.076945	0.676585
H174	H	0.753171	0.237043	0.053294
O175	O	0.162319	1.111666	0.365509
H176	H	0.212284	1.062936	0.393493
H177	H	0.331508	0.107738	0.349682
O178	O	0.254056	1.175206	-0.232671
H179	H	0.274117	1.094261	-0.170265
H180	H	0.033654	1.176162	0.162243
O181	O	0.121847	1.046914	0.118513
H182	H	0.071888	1.095613	0.090551
H183	H	0.466717	0.561409	-0.152428
O184	O	0.385868	0.394600	0.204801
H185	H	0.337186	0.436872	0.181990
O186	O	0.213110	0.505936	0.229761
H187	H	0.203051	0.480992	0.285993
O188	O	0.588391	0.058860	0.699315
H189	H	0.630765	-0.032161	0.723204
H190	H	-0.331895	0.533179	0.221158
H191	H	-0.036248	1.420748	-0.321970
H192	H	0.530336	0.020773	0.645340
O193	O	0.642172	0.329773	-0.042160
H194	H	0.686991	0.272878	-0.045541
H195	H	0.417611	0.326571	0.363912
O196	O	0.143363	0.402591	0.262545
H197	H	0.149621	0.330743	0.285332
O198	O	0.398501	1.096596	-0.017743
H199	H	0.413251	1.134906	-0.017362
H200	H	0.680088	0.390368	0.189153
H201	H	0.770840	0.265287	0.161095
O202	O	0.052628	1.382666	-0.375985
H203	H	0.000638	1.457261	-0.421029
H204	H	0.353794	1.295792	-0.165573
H205	H	-0.483651	0.908132	0.102272
H206	H	0.543666	0.258056	0.551452
O207	O	0.336282	0.234356	0.336771
H208	H	0.287599	0.276627	0.313961
H209	H	0.051321	1.204418	0.270037
O210	O	0.269368	1.447003	-0.340139
H211	H	0.294550	1.456987	-0.313672
H212	H	0.046205	0.429884	0.253901
O213	O	0.216119	1.382602	-0.375954
H214	H	0.207730	1.457194	-0.420987
H215	H	0.412732	0.050951	0.134265
O216	O	0.337774	-0.031684	0.333404
H217	H	0.321229	-0.009205	0.377272
H218	H	0.554358	0.344857	-0.263413
O219	O	0.433882	0.096042	0.078034
H220	H	0.467507	0.005108	0.140947
H221	H	0.819313	0.145511	0.489018
O222	O	0.468232	0.207068	-0.013397
H223	H	0.469530	0.150069	-0.016699
H224	H	0.450744	0.145538	0.489025
H225	H	0.531693	0.400843	-0.416545
H226	H	-0.403392	0.908144	0.102275
H227	H	0.472989	0.333674	-0.026316
H228	H	0.462370	0.458967	0.001583
O229	O	0.367263	0.807167	-0.555220
H230	H	0.364561	0.813855	-0.615500
O231	O	0.305058	0.505971	0.229741
H232	H	0.311322	0.434116	0.252532
O233	O	-0.234714	0.505871	0.229816
H234	H	-0.228454	0.434021	0.252600
O235	O	0.702784	0.344727	0.341171
H236	H	0.748550	0.306401	0.340803
H237	H	-0.189204	1.011505	0.069512
H238	H	-0.108940	1.011504	0.069523
H239	H	0.840747	0.020704	0.645346
H240	H	0.635336	0.257985	0.551500
O241	O	0.039217	0.935523	0.093563
H242	H	0.032953	1.007376	0.070783
H243	H	0.554000	0.458970	0.001582
H244	H	0.136396	0.908225	0.102205
O245	O	0.010637	0.402568	0.262565
H246	H	0.030283	0.333052	0.332928
O247	O	-0.081325	0.402554	0.262584
H248	H	-0.122837	0.419919	0.257087
H249	H	-0.321935	1.011475	0.069518
O250	O	-0.246882	1.038797	0.060840
H251	H	-0.298783	1.110640	0.038055
O252	O	0.334479	0.888167	-0.546515
H253	H	0.320594	0.851690	-0.554633
H254	H	0.424545	0.665632	-0.141226
H255	H	0.531271	0.401910	-0.169565
H256	H	0.250147	1.096546	-0.413221
O257	O	0.260541	1.070881	-0.526879
H258	H	0.257839	1.077568	-0.587159
O259	O	0.263407	1.063805	-0.257579
H260	H	0.227894	1.151568	-0.323881
