data_functionalizedCrystal
_audit_creation_method	'MofGen! by Chris Wilmer'
_symmetry_space_group_name_H-M	'P1'
_symmetry_Int_Tables_number	1
_symmetry_cell_setting	triclinic
loop_
_symmetry_equiv_pos_as_xyz
  x,y,z
_cell_length_a	19.288864
_cell_length_b	19.188930
_cell_length_c	18.366186
_cell_angle_alpha	89.988632
_cell_angle_beta	89.977106
_cell_angle_gamma	83.140512
loop_
_atom_site_label
_atom_site_type_symbol
_atom_site_fract_x
_atom_site_fract_y
_atom_site_fract_z
O1	O	0.921359	0.087099	-0.060791
O2	O	1.254693	0.420432	0.272542
O3	O	1.588026	0.753766	0.605875
O4	O	0.719099	0.098849	-0.060743
O5	O	1.052433	0.432182	0.272591
O6	O	1.385766	0.765515	0.605924
O7	O	0.826066	-0.008682	-0.060754
O8	O	1.159400	0.324651	0.272579
O9	O	1.492733	0.657984	0.605913
O10	O	0.814393	0.194630	-0.060780
O11	O	1.147726	0.527963	0.272554
O12	O	1.481059	0.861297	0.605887
O13	O	0.826048	-0.008687	0.060345
O14	O	1.159381	0.324646	0.393679
O15	O	1.492715	0.657979	0.727012
O16	O	0.719081	0.098843	0.060357
O17	O	1.052415	0.432177	0.393690
O18	O	1.385748	0.765510	0.727023
O19	O	0.921341	0.087094	0.060308
O20	O	1.254674	0.420427	0.393641
O21	O	1.588008	0.753761	0.726975
Zn22	Zn	0.820208	0.092968	0.079560
Zn23	Zn	1.153542	0.426301	0.412893
Zn24	Zn	1.486875	0.759634	0.746226
Zn25	Zn	0.820232	0.092975	-0.079994
Zn26	Zn	1.153566	0.426308	0.253339
Zn27	Zn	1.486899	0.759641	0.586673
O28	O	0.814374	0.194625	0.060320
O29	O	1.147708	0.527958	0.393653
O30	O	1.481041	0.861291	0.726986
C31	C	0.693214	0.098468	-0.000186
C32	C	1.026547	0.431801	0.333147
C33	C	1.359881	0.765135	0.666480
C34	C	0.616110	0.097333	-0.000167
C35	C	0.949444	0.430666	0.333166
C36	C	1.282777	0.764000	0.666499
C37	C	0.825679	-0.034696	-0.000202
C38	C	1.159012	0.298638	0.333131
C39	C	1.492346	0.631971	0.666464
C40	C	0.824544	-0.112200	-0.000196
C41	C	1.157878	0.221133	0.333138
C42	C	1.491211	0.554466	0.666471
C43	C	0.571419	0.160427	-0.000187
C44	C	0.904752	0.493761	0.333147
C45	C	1.238085	0.827094	0.666480
C46	C	0.498972	0.159361	-0.000195
C47	C	0.832305	0.492694	0.333139
C48	C	1.165638	0.826028	0.666472
C49	C	0.471219	0.095197	-0.000198
C50	C	0.804553	0.428530	0.333136
C51	C	1.137886	0.761864	0.666469
C52	C	0.515921	0.032095	-0.000174
C53	C	0.849254	0.365428	0.333159
C54	C	1.182587	0.698761	0.666493
C55	C	0.588366	0.033163	-0.000159
C56	C	0.921700	0.366496	0.333174
C57	C	1.255033	0.699829	0.666508
C58	C	0.362960	0.044759	-0.042642
C59	C	0.696293	0.378092	0.290691
C60	C	1.029626	0.711426	0.624024
C61	C	0.290515	0.043694	-0.042662
C62	C	0.623849	0.377027	0.290671
C63	C	0.957182	0.710360	0.624005
C64	C	0.247773	0.091900	-0.000241
C65	C	0.581107	0.425234	0.333092
C66	C	0.914440	0.758567	0.666425
C67	C	0.277483	0.141184	0.042190
C68	C	0.610817	0.474518	0.375523
C69	C	0.944150	0.807851	0.708856
C70	C	0.349929	0.142253	0.042205
C71	C	0.683262	0.475586	0.375538
C72	C	1.016596	0.808919	0.708872
C73	C	0.392665	0.094032	-0.000214
C74	C	0.725998	0.427365	0.333120
C75	C	1.059332	0.760699	0.666453
C76	C	0.124526	0.153843	-0.000268
C77	C	0.457859	0.487176	0.333065
C78	C	0.791192	0.820510	0.666398
C79	C	0.052078	0.152774	-0.000272
C80	C	0.385411	0.486107	0.333062
C81	C	0.718744	0.819441	0.666395
C82	C	0.069028	0.025506	-0.000259
C83	C	0.402362	0.358839	0.333075
C84	C	0.735695	0.692172	0.666408
C85	C	0.141475	0.026576	-0.000248
C86	C	0.474808	0.359910	0.333085
C87	C	0.808142	0.693243	0.666419
C88	C	0.169219	0.090747	-0.000256
C89	C	0.502552	0.424080	0.333077
C90	C	0.835886	0.757414	0.666410
C91	C	0.887309	-0.157129	-0.000207
C92	C	1.220642	0.176204	0.333126
C93	C	1.553975	0.509538	0.666459
C94	C	0.886243	-0.229953	-0.000219
C95	C	1.219576	0.103381	0.333115
C96	C	1.552909	0.436714	0.666448
C97	C	0.822408	-0.257844	-0.000204
C98	C	1.155742	0.075489	0.333129
C99	C	1.489075	0.408822	0.666463
C100	C	0.759636	-0.212906	-0.000196
C101	C	1.092969	0.120427	0.333137
C102	C	1.426302	0.453761	0.666470
C103	C	0.760704	-0.140084	-0.000192
C104	C	1.094037	0.193250	0.333141
C105	C	1.427370	0.526583	0.666474
N106	N	0.773609	-0.365847	0.041020
N107	N	1.106942	-0.032514	0.374354
N108	N	1.440275	0.300819	0.707687
N109	N	0.772598	-0.435026	0.041018
N110	N	1.105932	-0.101693	0.374351
N111	N	1.439265	0.231641	0.707685
C112	C	0.819187	-0.477253	-0.000218
C113	C	1.152520	-0.143919	0.333116
C114	C	1.485854	0.189414	0.666449
N115	N	0.866835	-0.447689	-0.041442
N116	N	1.200168	-0.114356	0.291891
N117	N	1.533501	0.218978	0.625225
N118	N	0.867847	-0.378504	-0.041436
N119	N	1.201180	-0.045171	0.291897
N120	N	1.534514	0.288162	0.625230
C121	C	0.821243	-0.336807	-0.000209
C122	C	1.154577	-0.003473	0.333125
C123	C	1.487910	0.329860	0.666458
C124	C	0.880800	-0.601146	-0.000243
C125	C	1.214133	-0.267813	0.333090
C126	C	1.547467	0.065521	0.666424
C127	C	0.879731	-0.673971	-0.000259
C128	C	1.213065	-0.340637	0.333075
C129	C	1.546398	-0.007304	0.666408
C130	C	0.753122	-0.656922	-0.000229
C131	C	1.086456	-0.323589	0.333104
C132	C	1.419789	0.009745	0.666438
C133	C	0.754193	-0.584099	-0.000220
C134	C	1.087526	-0.250766	0.333113
C135	C	1.420860	0.082568	0.666446
C136	C	0.818034	-0.556216	-0.000224
C137	C	1.151367	-0.222882	0.333109
C138	C	1.484700	0.110451	0.666443
C139	C	0.947227	0.087475	-0.000250
C140	C	1.280560	0.420808	0.333084
C141	C	1.613893	0.754141	0.666417
C142	C	1.024330	0.088609	-0.000274
C143	C	1.357664	0.421943	0.333060
C144	C	1.690997	0.755276	0.666393
C145	C	0.814762	0.220638	-0.000234
C146	C	1.148095	0.553972	0.333100
C147	C	1.481428	0.887305	0.666433
C148	C	0.815896	0.298143	-0.000245
C149	C	1.149230	0.631476	0.333088
C150	C	1.482563	0.964809	0.666422
N151	N	0.820197	0.092963	0.188451
N152	N	1.153530	0.426296	0.521784
N153	N	1.486864	0.759629	0.855117
N154	N	0.820249	0.092974	-0.188885
N155	N	1.153582	0.426308	0.144448
N156	N	1.486916	0.759641	0.477781
C157	C	0.867577	0.045371	0.226546
C158	C	1.200911	0.378705	0.559879
C159	C	1.534244	0.712038	0.893213
C160	C	0.867582	0.045368	0.302774
C161	C	1.200915	0.378701	0.636107
C162	C	1.534249	0.712035	0.969441
C163	C	0.820213	0.092968	0.340903
C164	C	1.153546	0.426302	0.674237
C165	C	1.486879	0.759635	1.007570
C166	C	0.772823	0.140563	0.302799
C167	C	1.106157	0.473897	0.636132
C168	C	1.439490	0.807230	0.969466
C169	C	0.772816	0.140560	0.226573
C170	C	1.106149	0.473894	0.559906
C171	C	1.439482	0.807227	0.893239
C172	C	0.810919	0.156585	0.461657
C173	C	1.144252	0.489919	0.794990
C174	C	1.477586	0.823252	1.128324
C175	C	0.810932	0.156589	0.537882
C176	C	1.144265	0.489922	0.871215
C177	C	1.477598	0.823256	1.204549
C178	C	0.820232	0.092977	0.576011
C179	C	1.153566	0.426310	0.909344
C180	C	1.486899	0.759644	1.242678
C181	C	0.829535	0.029359	0.537906
C182	C	1.162868	0.362692	0.871239
C183	C	1.496202	0.696025	1.204572
C184	C	0.829527	0.029356	0.461679
C185	C	1.162861	0.362689	0.795013
C186	C	1.496194	0.696022	1.128346
C187	C	0.820215	0.092977	0.423558
C188	C	1.153549	0.426310	0.756892
C189	C	1.486882	0.759643	1.090225
C190	C	0.867620	0.045378	0.696761
C191	C	1.200953	0.378712	1.030095
C192	C	1.534287	0.712045	1.363428
C193	C	0.867620	0.045374	0.772990
C194	C	1.200953	0.378708	1.106324
C195	C	1.534286	0.712041	1.439657
C196	C	0.772864	0.140576	0.773014
C197	C	1.106198	0.473909	1.106347
C198	C	1.439531	0.807242	1.439681
C199	C	0.772862	0.140574	0.696786
C200	C	1.106195	0.473907	1.030120
C201	C	1.439528	0.807240	1.363453
C202	C	0.820243	0.092976	0.658664
C203	C	1.153576	0.426309	0.991998
C204	C	1.486910	0.759642	1.325331
H205	H	0.594003	0.212680	-0.000195
H206	H	0.927336	0.546013	0.333139
H207	H	1.260670	0.879347	0.666472
H208	H	0.397755	0.005502	-0.077191
H209	H	0.731089	0.338835	0.256143
H210	H	1.064422	0.672168	0.589476
H211	H	0.015690	0.204155	-0.000283
H212	H	0.349023	0.537488	0.333050
H213	H	0.682356	0.870822	0.666383
H214	H	0.939293	-0.134431	-0.000213
H215	H	1.272626	0.198902	0.333121
H216	H	1.605960	0.532235	0.666454
H217	H	0.701147	-0.679631	-0.000221
H218	H	1.034481	-0.346297	0.333113
H219	H	1.367814	-0.012964	0.666446
H220	H	0.906199	0.006619	0.665721
H221	H	1.239532	0.339953	0.999054
H222	H	1.572866	0.673286	1.332388
O223	O	0.918731	-0.005961	0.814075
O224	O	1.252064	0.327373	1.147408
O225	O	1.585398	0.660706	1.480742
H226	H	0.889609	-0.039832	0.848821
H227	H	1.222942	0.293501	1.182154
H228	H	1.556275	0.626835	1.515487
H229	H	0.046433	-0.026738	-0.000306
H230	H	0.379767	0.306595	0.333027
H231	H	0.713100	0.639929	0.666360
O232	O	0.949653	-0.571065	-0.000263
O233	O	1.282987	-0.237732	0.333070
O234	O	1.616320	0.095601	0.666403
H235	H	0.979802	-0.589147	0.049081
H236	H	1.313136	-0.255814	0.382414
H237	H	1.646469	0.077520	0.715747
H238	H	0.624755	-0.018218	-0.000144
H239	H	0.958088	0.315115	0.333190
H240	H	1.291422	0.648449	0.666523
O241	O	0.947430	-0.722436	-0.000265
O242	O	1.280763	-0.389102	0.333068
O243	O	1.614097	-0.055769	0.666401
H244	H	0.991998	-0.690808	-0.000258
H245	H	1.325332	-0.357475	0.333076
H246	H	1.658665	-0.024142	0.666409
H247	H	0.734293	0.179330	0.804059
H248	H	1.067626	0.512663	1.137392
H249	H	1.400959	0.845997	1.470725
H250	H	0.734283	0.179330	0.665767
H251	H	1.067616	0.512663	0.999100
H252	H	1.400949	0.845996	1.332434
O253	O	0.800902	0.225202	0.578980
O254	O	1.134235	0.558535	0.912313
O255	O	1.467569	0.891868	1.245647
H256	H	0.847289	0.229567	0.613674
H257	H	1.180622	0.562900	0.947007
H258	H	1.513955	0.896233	1.280341
O259	O	0.686497	-0.535633	-0.000190
O260	O	1.019830	-0.202299	0.333144
O261	O	1.353164	0.131034	0.666477
H262	H	0.641928	-0.567259	-0.000173
H263	H	0.975262	-0.233926	0.333161
H264	H	1.308595	0.099407	0.666494
H265	H	0.906157	0.006613	0.195509
H266	H	1.239490	0.339946	0.528843
H267	H	1.572823	0.673279	0.862176
H268	H	0.707661	-0.235620	-0.000186
H269	H	1.040995	0.097713	0.333147
H270	H	1.374328	0.431047	0.666481
H271	H	0.374116	0.182379	0.076756
H272	H	0.707449	0.515712	0.410089
H273	H	1.040783	0.849046	0.743423
O274	O	0.800892	0.225199	0.420534
O275	O	1.134226	0.558533	0.753867
O276	O	1.467559	0.891866	1.087200
H277	H	0.794438	0.269436	0.459834
H278	H	1.127771	0.602769	0.793168
H279	H	1.461105	0.936102	1.126501
H280	H	0.906166	0.006612	0.333797
H281	H	1.239499	0.339945	0.667130
H282	H	1.572832	0.673279	1.000463
O283	O	0.953941	-0.278424	-0.000218
O284	O	1.287274	0.054909	0.333115
O285	O	1.620608	0.388242	0.666448
H286	H	0.984522	-0.268528	-0.049574
H287	H	1.317855	0.064805	0.283759
H288	H	1.651189	0.398139	0.617093
H289	H	0.493320	-0.020148	-0.000187
H290	H	0.826653	0.313185	0.333147
H291	H	1.159987	0.646518	0.666480
H292	H	0.837100	-0.022445	0.430657
H293	H	1.170434	0.310889	0.763990
H294	H	1.503767	0.644222	1.097323
O295	O	0.839562	-0.039260	0.579016
O296	O	1.172895	0.294073	0.912350
O297	O	1.506228	0.627407	1.245683
H298	H	0.837994	-0.028574	0.638423
H299	H	1.171328	0.304760	0.971756
H300	H	1.504661	0.638093	1.305089
O301	O	0.450760	0.227418	-0.000213
O302	O	0.784093	0.560751	0.333121
O303	O	1.117426	0.894085	0.666454
H304	H	0.395723	0.215893	-0.000216
H305	H	0.729056	0.549226	0.333118
H306	H	1.062390	0.882559	0.666451
O307	O	0.231396	0.193182	0.087953
O308	O	0.564730	0.526515	0.421287
O309	O	0.898063	0.859849	0.754620
H310	H	0.176030	0.184156	0.080825
H311	H	0.509363	0.517489	0.414158
H312	H	0.842697	0.850822	0.747492
O313	O	0.154459	0.223050	-0.000262
O314	O	0.487792	0.556384	0.333071
O315	O	0.821126	0.889717	0.666404
H316	H	0.111207	0.266746	-0.000263
H317	H	0.444540	0.600080	0.333070
H318	H	0.777874	0.933413	0.666403
O319	O	0.721734	0.191909	0.343918
O320	O	1.055067	0.525243	0.677251
O321	O	1.388401	0.858576	1.010584
H322	H	0.729705	0.183922	0.403324
H323	H	1.063038	0.517256	0.736657
H324	H	1.396371	0.850589	1.069990
O325	O	0.721714	0.191892	0.185472
O326	O	1.055047	0.525225	0.518806
O327	O	1.388380	0.858558	0.852139
H328	H	0.730397	0.246301	0.200076
H329	H	1.063730	0.579635	0.533410
H330	H	1.397063	0.912968	0.866743
O331	O	0.189686	-0.041475	-0.000233
O332	O	0.523019	0.291858	0.333100
O333	O	0.856352	0.625191	0.666433
H334	H	0.158219	-0.086273	-0.000241
H335	H	0.491552	0.247060	0.333092
H336	H	0.824886	0.580393	0.666426
O337	O	0.693003	-0.091621	-0.000166
O338	O	1.026336	0.241712	0.333167
O339	O	1.359670	0.575045	0.666501
H340	H	0.662445	-0.101499	-0.049514
H341	H	0.995778	0.231834	0.283819
H342	H	1.329112	0.565168	0.617153
O343	O	0.258472	-0.009466	-0.088414
O344	O	0.591805	0.323867	0.244919
O345	O	0.925139	0.657200	0.578252
H346	H	0.300364	-0.042820	-0.117895
H347	H	0.633697	0.290513	0.215439
H348	H	0.967030	0.623846	0.548772
