data_functionalizedCrystal
_audit_creation_method	'MofGen! by Chris Wilmer'
_symmetry_space_group_name_H-M	'P1'
_symmetry_Int_Tables_number	1
_symmetry_cell_setting	triclinic
loop_
_symmetry_equiv_pos_as_xyz
  x,y,z
_cell_length_a	25.639242
_cell_length_b	16.994747
_cell_length_c	25.639233
_cell_angle_alpha	89.993240
_cell_angle_beta	90.022166
_cell_angle_gamma	90.006589
loop_
_atom_site_label
_atom_site_type_symbol
_atom_site_fract_x
_atom_site_fract_y
_atom_site_fract_z
Zn1	Zn	0.799326	-0.314218	0.295835
Zn2	Zn	0.799291	-0.446103	0.208438
Zn3	Zn	0.711902	-0.314207	0.208399
Zn4	Zn	0.711889	-0.446074	0.295828
O5	O	0.755602	-0.380150	0.252125
O6	O	0.872486	-0.331730	0.284261
O7	O	0.787690	-0.428614	0.135268
O8	O	0.723518	-0.203827	0.219984
O9	O	0.872461	-0.428625	0.220051
O10	O	0.787748	-0.203835	0.284223
O11	O	0.723485	-0.331710	0.135239
O12	O	0.638735	-0.331682	0.219977
O13	O	0.723497	-0.428575	0.368994
O14	O	0.638726	-0.428564	0.284211
O15	O	0.787736	-0.331702	0.368999
O16	O	0.787677	-0.556480	0.220044
O17	O	0.723463	-0.556459	0.284249
C18	C	0.619759	-0.380119	0.252090
C19	C	0.561645	-0.380125	0.252087
C20	C	0.755572	-0.585090	0.252149
C21	C	0.755575	-0.674412	0.252147
Zn22	Zn	0.711917	-0.945293	0.208384
Zn23	Zn	0.799349	-0.945283	0.295812
Zn24	Zn	0.711907	-0.813466	0.295819
Zn25	Zn	0.799301	-0.813358	0.208421
O26	O	0.755618	-0.879350	0.252109
O27	O	0.723539	-1.055673	0.219963
O28	O	0.787765	-0.927838	0.368978
O29	O	0.638743	-0.831003	0.284209
O30	O	0.787775	-1.055666	0.284196
O31	O	0.638750	-0.927855	0.219971
O32	O	0.723522	-0.830993	0.368984
O33	O	0.723476	-0.703071	0.284244
O34	O	0.787693	-0.830819	0.135251
O35	O	0.787683	-0.702991	0.220033
O36	O	0.723492	-0.927751	0.135224
O37	O	0.872508	-0.927734	0.284232
O38	O	0.872472	-0.830809	0.220026
C39	C	0.201286	-0.430681	0.285540
C40	C	0.146682	-0.430686	0.285548
O41	O	0.118449	-0.473632	0.313961
N42	N	0.119363	-0.380172	0.252159
C43	C	0.146651	-0.329644	0.218764
O44	O	0.118400	-0.286678	0.190365
C45	C	0.201254	-0.329636	0.218758
C46	C	0.228570	-0.380159	0.252146
C47	C	0.228603	-0.481199	0.318925
C48	C	0.283203	-0.481195	0.318916
C49	C	0.310487	-0.430673	0.285522
C50	C	0.283171	-0.380155	0.252137
C51	C	0.228541	-0.279105	0.185366
C52	C	0.283148	-0.279101	0.185364
C53	C	0.310464	-0.329624	0.218751
C54	C	0.365056	-0.329629	0.218733
N55	N	0.392375	-0.380143	0.252122
C56	C	0.365091	-0.430665	0.285517
C57	C	0.031980	-0.329664	0.218778
C58	C	-0.022622	-0.329676	0.218780
C59	C	-0.022587	-0.430717	0.285565
C60	C	0.032016	-0.430709	0.285560
C61	C	0.059299	-0.380178	0.252167
C62	C	0.479756	-0.430653	0.285495
C63	C	0.534361	-0.430647	0.285481
C64	C	0.534321	-0.329604	0.218698
C65	C	0.479721	-0.329612	0.218709
C66	C	0.452439	-0.380140	0.252112
O67	O	0.393324	-0.286702	0.190336
O68	O	0.393348	-0.473617	0.313916
C69	C	0.891975	-0.380182	0.252161
C70	C	0.950089	-0.380196	0.252176
C71	C	0.755619	-0.380137	0.388498
C72	C	0.755626	-0.380131	0.446612
C73	C	0.755635	-0.174410	0.252098
C74	C	0.755651	-0.085088	0.252087
C75	C	0.755615	-0.380107	0.116283
C76	C	0.755709	-0.379891	0.058169
C77	C	0.789118	-0.329539	0.806984
C78	C	0.789124	-0.329517	0.861588
O79	O	0.817558	-0.286595	0.889832
N80	N	0.755684	-0.379946	0.888895
C81	C	0.722231	-0.430394	0.861595
O82	O	0.693787	-0.473285	0.889835
C83	C	0.722222	-0.430411	0.806991
C84	C	0.755668	-0.379985	0.779687
C85	C	0.822561	-0.279115	0.779680
C86	C	0.822555	-0.279139	0.725079
C87	C	0.789106	-0.329585	0.697783
C88	C	0.755662	-0.380008	0.725087
C89	C	0.688767	-0.480855	0.779692
C90	C	0.688761	-0.480868	0.725085
C91	C	0.722207	-0.430441	0.697781
C92	C	0.722207	-0.430477	0.643190
N93	N	0.755648	-0.380048	0.615883
C94	C	0.789097	-0.329602	0.643179
C95	C	0.722251	-0.430353	0.976265
C96	C	0.722262	-0.430340	1.030868
C97	C	0.789155	-0.329462	1.030857
C98	C	0.789146	-0.329479	0.976254
C99	C	0.755691	-0.379924	0.948958
C100	C	0.789083	-0.329655	0.528514
C101	C	0.789075	-0.329684	0.473909
C102	C	0.722181	-0.430560	0.473924
C103	C	0.722190	-0.430533	0.528524
C104	C	0.755642	-0.380074	0.555818
O105	O	0.693787	-0.473375	0.614911
O106	O	0.817531	-0.286711	0.614932
C107	C	0.891461	-0.879261	0.252133
C108	C	0.949575	-0.879245	0.252159
C109	C	0.755588	-0.879274	0.115736
C110	C	0.755576	-0.879241	0.057622
C111	C	0.619245	-0.879442	0.252086
C112	C	0.561131	-0.879481	0.252077
C113	C	0.755611	-0.879471	0.387952
C114	C	0.755477	-0.879654	0.446065
C115	C	0.976869	-0.929749	0.285572
C116	C	1.031473	-0.929750	0.285597
C117	C	1.058783	-0.879243	0.252210
C118	C	1.031485	-0.828737	0.218793
C119	C	0.976881	-0.828741	0.218766
C120	C	0.722140	-0.929694	0.030314
C121	C	0.722118	-0.929663	-0.024290
C122	C	0.755534	-0.879184	-0.051586
C123	C	0.788971	-0.828726	-0.024274
C124	C	0.788991	-0.828753	0.030330
C125	C	0.533834	-0.829068	0.285518
C126	C	0.479229	-0.829089	0.285509
C127	C	0.451924	-0.879529	0.252061
C128	C	0.479225	-0.929944	0.218616
C129	C	0.533828	-0.929919	0.218623
C130	C	0.722207	-0.828952	0.473337
C131	C	0.722071	-0.829124	0.527941
C132	C	0.755210	-0.879994	0.555273
C133	C	0.788482	-0.930701	0.527998
C134	C	0.788615	-0.930533	0.473394
H135	H	0.556600	-0.471792	0.312670
O136	O	0.689655	-0.479547	0.554970
C137	C	0.623328	-0.579640	0.549211
C138	C	0.660143	-0.524165	0.519202
H139	H	0.599466	-0.615740	0.520305
H140	H	0.595961	-0.543446	0.574740
H141	H	0.647335	-0.620845	0.574809
H142	H	0.636178	-0.482950	0.493575
H143	H	0.687511	-0.560408	0.493705
O144	O	0.560295	-0.780105	0.318082
C145	C	0.577034	-0.741873	0.407028
C146	C	0.547029	-0.797366	0.370207
H147	H	0.566328	-0.755819	0.449179
H148	H	0.566273	-0.678260	0.397894
H149	H	0.620748	-0.750494	0.401267
H150	H	0.503308	-0.788815	0.375948
H151	H	0.557833	-0.860959	0.379351
O152	O	0.690086	-0.779453	0.446771
C153	C	0.683666	-0.672721	0.385225
C154	C	0.720109	-0.728716	0.415282
H155	H	0.707925	-0.631696	0.359751
H156	H	0.659875	-0.636464	0.414081
H157	H	0.656213	-0.708594	0.359564
H158	H	0.747594	-0.692904	0.440944
H159	H	0.743864	-0.764975	0.386398
H160	H	0.694927	-0.970803	0.052531
H161	H	0.954663	-0.787610	0.191558
O162	O	0.821425	-0.779769	0.056934
C163	C	0.851117	-0.735098	0.141054
C164	C	0.814350	-0.790605	0.110994
H165	H	0.845418	-0.743852	0.184766
H166	H	0.841917	-0.671479	0.130363
H167	H	0.893268	-0.748911	0.130282
H168	H	0.772187	-0.776863	0.121750
H169	H	0.823595	-0.854208	0.121688
H170	H	0.954641	-0.970877	0.312763
O171	O	0.398882	-0.879479	0.252142
C172	C	0.320533	-0.824140	0.288827
C173	C	0.380602	-0.824131	0.288792
H174	H	0.305736	-0.779385	0.318448
H175	H	0.305692	-0.885213	0.299698
H176	H	0.305702	-0.807792	0.248328
H177	H	0.395478	-0.840446	0.329278
H178	H	0.395407	-0.763051	0.277892
O179	O	0.855032	-0.229999	0.806131
C180	C	0.880429	-0.095821	0.822818
C181	C	0.843624	-0.151357	0.792827
H182	H	0.871212	-0.032227	0.812081
H183	H	0.922589	-0.109629	0.812077
H184	H	0.874710	-0.104499	0.866535
H185	H	0.849297	-0.142710	0.749104
H186	H	0.801478	-0.137535	0.803612
H187	H	0.206394	-0.522341	0.346122
O188	O	1.058076	-0.779785	0.186340
C189	C	1.119725	-0.769043	0.115781
C190	C	1.089649	-0.824572	0.152505
H191	H	1.145250	-0.805232	0.088408
H192	H	1.145321	-0.727862	0.139807
H193	H	1.090834	-0.732921	0.091914
H194	H	1.118502	-0.860746	0.176379
H195	H	1.064044	-0.865702	0.128448
H196	H	1.053692	-0.970877	0.312811
H197	H	0.695032	-0.471411	1.053094
O198	O	0.821649	-0.280417	0.949814
C199	C	0.888022	-0.180393	0.955582
C200	C	0.851229	-0.235907	0.985586
H201	H	0.911955	-0.144405	0.984490
H202	H	0.864047	-0.139094	0.930020
H203	H	0.915329	-0.216631	0.930016
H204	H	0.823915	-0.199733	1.011180
H205	H	0.875236	-0.277209	1.011115
O206	O	0.452616	-0.978917	0.186178
C207	C	0.368487	-1.023617	0.156518
C208	C	0.398559	-0.968126	0.193285
H209	H	0.324777	-1.014901	0.162243
H210	H	0.379193	-1.087238	0.165694
H211	H	0.379235	-1.009755	0.114365
H212	H	0.387827	-0.981917	0.235450
H213	H	0.387850	-0.904522	0.184063
O214	O	-0.049235	-0.280692	0.186351
C215	C	-0.133363	-0.235903	0.156760
C216	C	-0.103292	-0.291428	0.193507
H217	H	-0.177073	-0.244552	0.162541
H218	H	-0.122680	-0.249682	0.114580
H219	H	-0.122591	-0.172323	0.165980
H220	H	-0.114047	-0.355027	0.184334
H221	H	-0.113978	-0.277582	0.235676
H222	H	0.815462	-0.972120	0.550259
H223	H	1.103244	-0.879248	0.252237
H224	H	0.694888	-0.970753	-0.046520
O225	O	0.560262	-0.978975	0.186124
C226	C	0.554479	-1.078989	0.119761
C227	C	0.524483	-1.023483	0.156550
H228	H	0.525566	-1.114977	0.095833
H229	H	0.580038	-1.120290	0.143738
H230	H	0.580048	-1.042746	0.092450
H231	H	0.498886	-1.059663	0.183869
H232	H	0.498958	-0.982180	0.132540
O233	O	0.755472	-0.879300	-0.104627
C234	C	0.718752	-0.934654	-0.182987
C235	C	0.718775	-0.934602	-0.122919
H236	H	0.689078	-0.979349	-0.197794
H237	H	0.759227	-0.951042	-0.197830
H238	H	0.707910	-0.873558	-0.197808
H239	H	0.729595	-0.995680	-0.108054
H240	H	0.678296	-0.918169	-0.108111
H241	H	0.815711	-0.971818	0.451195
O242	O	0.689679	-0.779897	0.554369
C243	C	0.600879	-0.740757	0.570885
C244	C	0.637504	-0.796542	0.540916
H245	H	0.558688	-0.754205	0.560028
H246	H	0.610343	-0.677206	0.560243
H247	H	0.606496	-0.749596	0.614605
H248	H	0.631908	-0.787774	0.497190
H249	H	0.628032	-0.860072	0.551602
H250	H	0.816178	-0.787627	-0.046506
H251	H	0.457008	-0.788034	0.312745
O252	O	0.755032	-0.880025	0.608314
C253	C	0.718378	-0.824545	0.686633
C254	C	0.718537	-0.824424	0.626565
H255	H	0.688867	-0.779608	0.701407
H256	H	0.758890	-0.808588	0.701620
H257	H	0.707236	-0.885578	0.701343
H258	H	0.729657	-0.763409	0.611811
H259	H	0.678020	-0.840424	0.611614
O260	O	0.855012	-0.230202	0.698479
C261	C	0.884600	-0.185422	0.614364
C262	C	0.847834	-0.240913	0.644418
H263	H	0.878802	-0.194050	0.570651
H264	H	0.926776	-0.199251	0.625067
H265	H	0.875415	-0.121834	0.625130
H266	H	0.856972	-0.304520	0.633669
H267	H	0.805669	-0.227016	0.633712
O268	O	0.453316	-0.479696	0.318013
C269	C	0.436642	-0.518159	0.406920
C270	C	0.466627	-0.462581	0.370155
H271	H	0.447385	-0.504331	0.449085
H272	H	0.447384	-0.581753	0.397721
H273	H	0.392925	-0.509505	0.401170
H274	H	0.510351	-0.471165	0.375885
H275	H	0.455842	-0.399008	0.379364
O276	O	0.309654	-0.530293	0.351402
C277	C	0.303905	-0.630539	0.417625
C278	C	0.273890	-0.574963	0.380867
H279	H	0.275003	-0.666681	0.441449
H280	H	0.329467	-0.594422	0.445031
H281	H	0.329470	-0.671700	0.393578
H282	H	0.248296	-0.533791	0.404872
H283	H	0.248360	-0.611129	0.353459
H284	H	0.054253	-0.471848	0.312748
H285	H	0.816390	-0.288384	1.053092
H286	H	-0.044812	-0.471852	0.312759
H287	H	0.054191	-0.288517	0.191581
O288	O	0.656324	-0.529991	0.698591
C289	C	0.630907	-0.664169	0.681938
C290	C	0.667677	-0.608624	0.711965
H291	H	0.640066	-0.727755	0.692747
H292	H	0.636651	-0.655594	0.638215
H293	H	0.588753	-0.650268	0.692649
H294	H	0.709845	-0.622491	0.701298
H295	H	0.661888	-0.617209	0.755680
O296	O	0.202096	-0.229948	0.152919
C297	C	0.207848	-0.129746	0.086666
C298	C	0.237861	-0.185369	0.123395
H299	H	0.236751	-0.093702	0.062779
H300	H	0.182314	-0.088503	0.110688
H301	H	0.182253	-0.165901	0.059314
H302	H	0.263484	-0.149278	0.150755
H303	H	0.263361	-0.226614	0.099341
O304	O	0.689741	-0.479445	0.949833
C305	C	0.623380	-0.579478	0.955618
C306	C	0.660177	-0.523935	0.985613
H307	H	0.599460	-0.615451	0.984532
H308	H	0.647350	-0.620790	0.930086
H309	H	0.596062	-0.543264	0.930023
H310	H	0.687503	-0.560085	1.011236
H311	H	0.636174	-0.482620	1.011112
O312	O	0.656254	-0.529732	0.806268
C313	C	0.585649	-0.540315	0.867875
C314	C	0.622443	-0.484868	0.837819
H315	H	0.558296	-0.504064	0.893383
H316	H	0.609621	-0.581546	0.893488
H317	H	0.561765	-0.576388	0.838972
H318	H	0.646335	-0.448744	0.866684
H319	H	0.598441	-0.443689	0.812198
O320	O	0.309709	-0.230127	0.152897
C321	C	0.371293	-0.219350	0.082284
C322	C	0.341256	-0.274897	0.119028
H323	H	0.396797	-0.255525	0.054884
H324	H	0.396907	-0.178169	0.106292
H325	H	0.342377	-0.183227	0.058448
H326	H	0.370134	-0.311071	0.142871
H327	H	0.315634	-0.316025	0.094989
H328	H	0.556546	-0.288472	0.191507
O329	O	0.453263	-0.280467	0.186257
C330	C	0.458998	-0.180280	0.119993
C331	C	0.489021	-0.235891	0.156723
H332	H	0.487895	-0.144239	0.096097
H333	H	0.433467	-0.139035	0.144015
H334	H	0.433401	-0.216445	0.092649
H335	H	0.514647	-0.199790	0.184074
H336	H	0.514519	-0.277139	0.132669
H337	H	0.816313	-0.288620	0.451680
O338	O	0.689705	-0.479485	0.447322
C339	C	0.660072	-0.524237	0.363200
C340	C	0.696872	-0.468782	0.393263
H341	H	0.665862	-0.515615	0.319488
H342	H	0.617906	-0.510365	0.373881
H343	H	0.669232	-0.587834	0.373981
H344	H	0.687759	-0.405167	0.382498
H345	H	0.739028	-0.482723	0.382580
H346	H	0.816321	-0.288564	0.550730
