data_functionalizedCrystal
_audit_creation_method	'MofGen! by Chris Wilmer'
_symmetry_space_group_name_H-M	'P1'
_symmetry_Int_Tables_number	1
_symmetry_cell_setting	triclinic
loop_
_symmetry_equiv_pos_as_xyz
  x,y,z
_cell_length_a	10.540539
_cell_length_b	10.540510
_cell_length_c	11.892095
_cell_angle_alpha	93.930478
_cell_angle_beta	86.063735
_cell_angle_gamma	84.519401
loop_
_atom_site_label
_atom_site_type_symbol
_atom_site_fract_x
_atom_site_fract_y
_atom_site_fract_z
O1	O	1.693907	0.170866	-0.093943
O2	O	1.324493	0.187721	-0.093957
O3	O	1.517648	-0.005416	-0.093949
O4	O	1.500753	0.364002	-0.093951
O5	O	1.501543	0.010663	0.094058
O6	O	1.308388	0.203799	0.094050
O7	O	1.677802	0.186944	0.094064
Zn8	Zn	1.490538	0.197924	0.123907
Zn9	Zn	1.511757	0.176740	-0.123800
O10	O	1.484648	0.380080	0.094056
C11	C	1.269138	0.194496	0.000045
C12	C	1.128191	0.190713	0.000040
C13	C	1.508337	-0.044680	0.000052
C14	C	1.504570	-0.185631	0.000045
C15	C	1.638717	-0.403049	0.000480
C16	C	1.642772	-0.256490	0.000051
C17	C	1.443021	-0.239571	-0.107316
C18	C	1.439989	-0.386339	-0.107401
C19	C	1.418796	-0.367864	0.106398
C20	C	1.425231	-0.221402	0.107812
C21	C	0.944742	0.045832	0.000479
C22	C	1.091397	0.049628	0.000044
C23	C	1.075708	0.249428	-0.107317
C24	C	0.929170	0.244606	-0.107396
C25	C	0.910367	0.265761	0.106403
C26	C	1.057228	0.267180	0.107811
C27	C	1.733158	0.180169	0.000059
C28	C	1.874105	0.183951	0.000057
C29	C	1.493959	0.419345	0.000053
C30	C	1.497726	0.560295	0.000052
N31	N	1.476066	0.212381	0.292961
N32	N	1.526239	0.162274	-0.292854
C33	C	1.626943	0.061604	0.529614
C34	C	1.616837	0.071719	0.647956
C35	C	1.445741	0.242717	0.647987
C36	C	1.455847	0.232603	0.529646
C37	C	1.546453	0.142045	0.470463
C38	C	1.556565	0.131937	0.352120
C39	C	1.385464	0.302929	0.352153
C40	C	1.375357	0.313043	0.470495
H41	H	1.691534	-0.220565	0.077010
F42	F	1.702503	-0.013900	0.710905
F43	F	1.138491	-0.011599	0.100633
H44	H	1.125145	0.195430	-0.187215
F45	F	1.305431	-0.416946	-0.113780
F46	F	1.283091	-0.396736	0.107341
H47	H	1.301584	0.386771	0.518695
F48	F	1.466708	-0.414318	0.212762
F49	F	0.860035	0.215175	0.212769
H50	H	1.371963	0.316439	0.696189
F51	F	1.101756	0.211123	0.211621
F52	F	0.848545	0.399038	0.107352
H53	H	1.685964	-0.438420	0.077475
F54	F	1.292620	-0.156547	0.116282
H55	H	1.700726	-0.012123	0.481427
F56	F	1.088145	0.402355	0.116282
H57	H	1.341621	-0.192524	-0.111312
F58	F	1.717262	-0.468468	-0.099582
H59	H	1.705051	-0.234677	-0.077039
H60	H	1.630343	0.058204	0.303934
H61	H	1.495211	-0.433418	-0.187651
H62	H	0.881608	0.345656	-0.112269
H63	H	1.319926	0.368433	0.303979
H64	H	1.469904	-0.185997	0.187237
F65	F	1.105388	0.384395	-0.112561
H66	H	0.921099	-0.016217	-0.076083
H67	H	1.498996	-0.215547	-0.187211
F68	F	0.898760	-0.018414	0.101114
H69	H	1.139752	-0.010765	-0.077047
H70	H	0.907840	0.187562	-0.187646
