data_functionalizedCrystal
_audit_creation_method	'MofGen! by Chris Wilmer'
_symmetry_space_group_name_H-M	'P1'
_symmetry_Int_Tables_number	1
_symmetry_cell_setting	triclinic
loop_
_symmetry_equiv_pos_as_xyz
  x,y,z
_cell_length_a	8.634740
_cell_length_b	6.394989
_cell_length_c	7.088929
_cell_angle_alpha	96.401883
_cell_angle_beta	97.174953
_cell_angle_gamma	86.465991
loop_
_atom_site_label
_atom_site_type_symbol
_atom_site_fract_x
_atom_site_fract_y
_atom_site_fract_z
O1	O	2.043878	-0.702040	-0.158955
O2	O	1.593811	-0.644711	-0.158961
O3	O	1.825233	-0.370597	-0.158959
O4	O	1.812456	-0.976154	-0.158957
O5	O	1.856158	-0.333868	0.159016
O6	O	1.624736	-0.607981	0.159014
O7	O	2.074803	-0.665311	0.159021
Cu8	Cu	1.852593	-0.633292	0.188051
Cu9	Cu	1.816021	-0.676730	-0.187992
O10	O	1.843381	-0.939424	0.159019
C11	C	1.551571	-0.613359	0.000025
C12	C	1.379635	-0.574636	0.000022
C13	C	2.117043	-0.696663	0.000030
C14	C	2.288978	-0.735388	0.000021
C15	C	1.838168	-0.273904	0.000021
C16	C	1.830448	-0.036115	0.000019
N17	N	1.878328	-0.602742	0.452539
N18	N	1.790298	-0.707266	-0.452480
H19	H	1.699065	-0.815581	0.465873
H20	H	1.969579	-0.494436	0.534196
H21	H	1.342907	-0.902648	0.000034
O22	O	1.315059	-0.375242	-0.000067
C23	C	1.152012	-0.379664	-0.000021
H24	H	1.111574	-0.542705	-0.060216
H25	H	1.090928	-0.256951	-0.092342
H26	H	1.121688	-0.342910	0.152527
