data_functionalizedCrystal
_audit_creation_method	'MofGen! by Chris Wilmer'
_symmetry_space_group_name_H-M	'P1'
_symmetry_Int_Tables_number	1
_symmetry_cell_setting	triclinic
loop_
_symmetry_equiv_pos_as_xyz
  x,y,z
_cell_length_a	12.645331
_cell_length_b	12.759400
_cell_length_c	12.759393
_cell_angle_alpha	90.030448
_cell_angle_beta	89.978326
_cell_angle_gamma	89.986337
loop_
_atom_site_label
_atom_site_type_symbol
_atom_site_fract_x
_atom_site_fract_y
_atom_site_fract_z
Zn1	Zn	1.620743	0.418244	-0.594076
Zn2	Zn	1.620637	0.593960	-0.418396
Zn3	Zn	1.443461	0.418292	-0.418405
Zn4	Zn	1.443449	0.593879	-0.594027
O5	O	1.532072	0.506094	-0.506226
O6	O	1.769076	0.441567	-0.570789
O7	O	1.597095	0.570711	-0.271376
O8	O	1.467027	0.271265	-0.441732
O9	O	1.768998	0.570665	-0.441717
O10	O	1.597275	0.271230	-0.570797
O11	O	1.466924	0.441649	-0.271383
O12	O	1.295112	0.441571	-0.441685
O13	O	1.467006	0.570527	-0.741055
O14	O	1.295103	0.570573	-0.570714
O15	O	1.597264	0.441489	-0.741091
O16	O	1.597083	0.740970	-0.441670
O17	O	1.466904	0.740911	-0.570705
C18	C	1.532009	0.779061	-0.506204
C19	C	1.532079	0.895838	-0.506230
C20	C	1.256643	0.506069	-0.506196
C21	C	1.138813	0.506084	-0.506208
C22	C	1.532146	0.505993	-0.780260
C23	C	1.532177	0.505950	-0.897036
C24	C	0.971219	0.424555	-0.425484
C25	C	1.093778	0.424766	-0.425128
C26	C	1.094299	0.616761	-0.475963
C27	C	0.971700	0.616316	-0.475412
C28	C	0.971660	0.477988	-0.617489
C29	C	1.094265	0.475516	-0.616871
C30	C	1.808577	0.506120	-0.506257
C31	C	1.926408	0.506131	-0.506271
C32	C	1.532164	0.232061	-0.506271
C33	C	1.532204	0.115284	-0.506290
C34	C	1.599939	0.950696	-0.439116
C35	C	1.600004	1.060420	-0.439148
C36	C	1.464341	1.060418	-0.573412
C37	C	1.464282	0.950696	-0.573384
C38	C	1.678260	0.950698	-0.361596
C39	C	1.678325	1.060422	-0.361628
C40	C	1.599960	0.573127	-0.951892
C41	C	1.599992	0.573083	-1.061617
C42	C	1.464448	0.438681	-1.061619
C43	C	1.464423	0.438721	-0.951897
C44	C	1.678212	0.650727	-0.951892
C45	C	1.678244	0.650682	-1.061616
C46	C	1.532060	0.506118	-0.233259
C47	C	1.532234	0.505865	-0.116483
H48	H	0.941750	0.342236	-0.444238
C49	C	1.389646	0.890347	-0.647218
C50	C	1.435511	0.814818	-0.729719
C51	C	1.360874	0.754466	-0.803556
C52	C	1.240372	0.769643	-0.794893
C53	C	1.194500	0.845176	-0.712389
C54	C	1.269137	0.905527	-0.638552
H55	H	1.524720	0.803580	-0.736135
H56	H	1.394832	0.698552	-0.864631
H57	H	1.185121	0.724968	-0.849552
H58	H	1.105291	0.856414	-0.705973
H59	H	1.235179	0.961441	-0.577477
H60	H	1.656230	0.732038	-1.091379
H61	H	0.940373	0.442950	-0.343551
H62	H	0.942683	0.537405	-0.677682
C63	C	1.789123	0.621309	-0.911675
C64	C	1.851187	0.698563	-0.842286
C65	C	1.962094	0.669144	-0.802068
C66	C	2.010937	0.562473	-0.831239
C67	C	1.948872	0.485213	-0.900632
C68	C	1.837965	0.514631	-0.940850
H69	H	1.815031	0.777533	-0.820688
H70	H	2.008038	0.726338	-0.750699
H71	H	2.093037	0.540696	-0.801467
H72	H	1.985028	0.406242	-0.922229
H73	H	1.792021	0.457438	-0.992219
C74	C	0.931646	0.701210	-0.551426
C75	C	0.812025	0.718120	-0.566428
C76	C	0.771976	0.803016	-0.642435
C77	C	0.851548	0.871002	-0.703441
C78	C	0.971176	0.854093	-0.688441
C79	C	1.011225	0.769198	-0.612434
H80	H	0.753115	0.667791	-0.521266
H81	H	0.683419	0.815532	-0.653539
H82	H	0.821901	0.933847	-0.759707
H83	H	1.030087	0.904422	-0.733603
H84	H	1.099782	0.756681	-0.601330
H85	H	1.760337	0.920842	-0.383452
H86	H	1.648777	0.728033	-0.917842
H87	H	0.943057	0.640181	-0.394106
C88	C	1.133576	0.365489	-0.647692
C89	C	1.100687	0.317295	-0.753441
C90	C	1.140007	0.207270	-0.784261
C91	C	1.212217	0.145439	-0.709330
C92	C	1.245111	0.193632	-0.603573
C93	C	1.205790	0.303658	-0.572754
H94	H	1.047229	0.363067	-0.808916
H95	H	1.115656	0.171595	-0.862549
H96	H	1.241324	0.063992	-0.732144
H97	H	1.298569	0.147861	-0.548099
H98	H	1.230141	0.339333	-0.494466
H99	H	1.124925	0.530597	-0.680282
H100	H	1.123470	0.679166	-0.532957
H101	H	1.123059	0.443367	-0.342711
C102	C	1.135702	0.649560	-0.367299
C103	C	1.209843	0.576118	-0.305918
C104	C	1.251244	0.608909	-0.197251
C105	C	1.218504	0.715143	-0.149967
C106	C	1.144359	0.788591	-0.211349
C107	C	1.102958	0.755800	-0.320015
H108	H	1.234083	0.497471	-0.340920
H109	H	1.306131	0.554537	-0.151813
H110	H	1.249151	0.739417	-0.069525
H111	H	1.120119	0.867238	-0.176346
H112	H	1.048071	0.810172	-0.365454
C113	C	1.648697	1.100784	-0.251696
C114	C	1.726693	1.170158	-0.190242
C115	C	1.697067	1.210525	-0.080317
C116	C	1.589446	1.181518	-0.031846
C117	C	1.511443	1.112140	-0.093301
C118	C	1.541069	1.071773	-0.203226
H119	H	1.806367	1.191634	-0.226123
H120	H	1.754811	1.261883	-0.034824
H121	H	1.567516	1.211400	0.049527
H122	H	1.431769	1.090665	-0.057420
H123	H	1.483325	1.020415	-0.248719
C124	C	1.638582	0.904815	-0.257131
C125	C	1.540318	0.833570	-0.255376
C126	C	1.500644	0.787682	-0.150912
C127	C	1.559234	0.813038	-0.048203
C128	C	1.657504	0.884286	-0.049955
C129	C	1.697178	0.930174	-0.154419
H130	H	1.496941	0.814797	-0.331410
H131	H	1.427898	0.734939	-0.149615
H132	H	1.529865	0.779068	0.029128
H133	H	1.700881	0.903059	0.026079
H134	H	1.769924	0.982917	-0.155715
H135	H	1.409143	1.105097	-0.628088
C136	C	1.783695	1.106290	-0.401099
C137	C	1.887409	1.080931	-0.343193
C138	C	1.992774	1.126798	-0.382667
C139	C	1.994425	1.198025	-0.480047
C140	C	1.890708	1.223388	-0.537959
C141	C	1.785343	1.177520	-0.498485
H142	H	1.886189	1.028201	-0.271101
H143	H	2.069552	1.108023	-0.339796
H144	H	2.072423	1.231979	-0.509268
H145	H	1.891927	1.276117	-0.610051
H146	H	1.708564	1.196295	-0.541356
C147	C	1.389917	0.364737	-1.121969
C148	C	1.306691	0.410221	-1.197384
C149	C	1.232157	0.336276	-1.257732
C150	C	1.240849	0.216846	-1.242664
C151	C	1.324079	0.171356	-1.167246
C152	C	1.398613	0.245301	-1.106898
H153	H	1.300253	0.498635	-1.208541
H154	H	1.170545	0.369951	-1.313561
H155	H	1.185675	0.162108	-1.287337
H156	H	1.330516	0.082942	-1.156089
H157	H	1.460225	0.211626	-1.051069
H158	H	1.409236	0.384011	-0.907237
C159	C	0.929920	0.370863	-0.654655
C160	C	0.810173	0.353263	-0.667707
C161	C	0.768432	0.246134	-0.704861
C162	C	0.846438	0.156604	-0.728963
C163	C	0.966193	0.174201	-0.715911
C164	C	1.007933	0.281330	-0.678757
H165	H	0.752422	0.419541	-0.649865
H166	H	0.679782	0.233109	-0.714523
H167	H	0.815539	0.077301	-0.756466
H168	H	1.023944	0.107923	-0.733753
H169	H	1.096584	0.294356	-0.669095
H170	H	1.756259	0.621537	-1.095661
H171	H	1.123874	0.342694	-0.444085
