data_functionalizedCrystal
_audit_creation_method	'MofGen! by Chris Wilmer'
_symmetry_space_group_name_H-M	'P1'
_symmetry_Int_Tables_number	1
_symmetry_cell_setting	triclinic
loop_
_symmetry_equiv_pos_as_xyz
  x,y,z
_cell_length_a	16.625547
_cell_length_b	19.805406
_cell_length_c	19.805399
_cell_angle_alpha	89.985648
_cell_angle_beta	89.977137
_cell_angle_gamma	89.999905
loop_
_atom_site_label
_atom_site_type_symbol
_atom_site_fract_x
_atom_site_fract_y
_atom_site_fract_z
Zn1	Zn	1.232791	-0.269480	-0.382841
Zn2	Zn	1.232752	-0.382668	-0.269679
Zn3	Zn	1.097957	-0.269498	-0.269659
Zn4	Zn	1.097976	-0.382632	-0.382819
O5	O	1.165369	-0.326070	-0.326250
O6	O	1.345618	-0.284502	-0.367848
O7	O	1.214847	-0.367679	-0.174960
O8	O	1.115852	-0.174779	-0.284674
O9	O	1.345589	-0.367661	-0.284708
O10	O	1.214914	-0.174766	-0.367828
O11	O	1.115814	-0.284534	-0.174945
O12	O	0.985128	-0.284499	-0.284653
O13	O	1.115884	-0.367599	-0.477539
O14	O	0.985141	-0.367617	-0.367791
O15	O	1.214932	-0.284467	-0.477555
O16	O	1.214865	-0.477380	-0.284687
O17	O	1.115846	-0.477353	-0.367810
C18	C	0.955878	-0.326057	-0.326218
C19	C	0.866257	-0.326067	-0.326220
C20	C	0.793475	-0.326069	-0.326229
C21	C	0.702166	-0.326072	-0.326246
C22	C	0.629390	-0.326078	-0.326263
C23	C	0.538076	-0.326083	-0.326279
C24	C	1.165375	-0.501926	-0.326263
C25	C	1.165451	-0.577158	-0.326291
C26	C	1.165414	-0.326027	-0.502793
C27	C	1.165434	-0.326009	-0.578025
C28	C	1.375678	-0.326083	-0.326282
C29	C	1.465299	-0.326089	-0.326296
C30	C	1.165385	-0.149527	-0.326251
C31	C	1.165392	-0.074295	-0.326252
C32	C	1.113822	-0.038957	-0.282960
C33	C	1.113827	0.031732	-0.282967
C34	C	1.165407	0.067081	-0.326264
C35	C	1.216979	0.031738	-0.369561
C36	C	1.216969	-0.038950	-0.369557
C37	C	1.217018	0.316811	-0.369581
C38	C	1.217026	0.387503	-0.369581
C39	C	1.113877	0.387492	-0.282992
C40	C	1.113867	0.316805	-0.282987
C41	C	1.165435	0.281468	-0.326286
C42	C	1.165428	0.204820	-0.326279
C43	C	1.165419	0.143728	-0.326269
C44	C	1.217009	-0.282720	-0.613378
C45	C	1.217017	-0.282700	-0.684067
C46	C	1.165454	-0.325974	-0.719400
C47	C	1.113872	-0.369265	-0.684042
C48	C	1.113861	-0.369280	-0.613355
C49	C	1.113918	-0.369202	-0.969115
C50	C	1.113935	-0.369184	-1.039807
C51	C	1.217074	-0.282621	-1.039827
C52	C	1.217063	-0.282637	-0.969140
C53	C	1.165479	-0.325925	-0.933788
C54	C	1.165470	-0.325945	-0.857139
C55	C	1.165466	-0.325958	-0.796047
C56	C	1.165370	-0.326063	-0.150394
C57	C	1.165507	-0.325891	-0.075162
H58	H	1.071835	0.060504	-0.247716
C59	C	1.273760	0.426389	-0.417211
H60	H	1.266385	0.473548	-0.411005
H61	H	1.261967	0.414818	-0.462686
H62	H	1.327936	0.414798	-0.407314
C63	C	1.273747	0.277949	-0.417203
H64	H	1.304472	0.309127	-0.442983
H65	H	1.242910	0.250383	-0.446690
H66	H	1.308872	0.250366	-0.391312
C67	C	1.273716	0.070619	-0.417185
H68	H	1.266344	0.117780	-0.410983
H69	H	1.261929	0.059047	-0.462661
H70	H	1.327890	0.059026	-0.407281
H71	H	1.071868	0.288027	-0.247728
H72	H	1.071886	-0.404496	-0.712816
C73	C	1.057130	-0.416897	-0.574462
H74	H	1.064501	-0.410705	-0.527304
H75	H	1.068924	-0.462374	-0.586046
H76	H	1.002956	-0.406979	-0.586037
H77	H	1.259054	-0.247401	-0.940375
C78	C	1.273700	-0.077822	-0.417174
H79	H	1.304427	-0.046646	-0.442956
H80	H	1.242862	-0.105389	-0.446659
H81	H	1.308824	-0.105403	-0.391281
H82	H	1.259001	-0.247483	-0.584615
H83	H	1.071943	-0.404424	-1.068574
C84	C	1.057162	-0.416803	-0.930236
H85	H	1.026456	-0.442571	-0.961406
H86	H	1.022033	-0.390900	-0.902665
H87	H	1.087981	-0.446312	-0.902658
C88	C	1.273811	-0.234999	-1.078717
H89	H	1.266430	-0.241180	-1.125876
H90	H	1.327982	-0.244914	-1.067143
H91	H	1.262011	-0.189522	-1.067129
H92	H	1.071884	0.416271	-0.247737
C93	C	1.057082	-0.077835	-0.235335
H94	H	1.026364	-0.046662	-0.209558
H95	H	1.087910	-0.105420	-0.205845
H96	H	1.021950	-0.105399	-0.261225
H97	H	1.259017	-0.247451	-0.712849
