data_functionalizedCrystal
_audit_creation_method	'MofGen! by Chris Wilmer'
_symmetry_space_group_name_H-M	'P1'
_symmetry_Int_Tables_number	1
_symmetry_cell_setting	triclinic
loop_
_symmetry_equiv_pos_as_xyz
  x,y,z
_cell_length_a	6.394989
_cell_length_b	17.699083
_cell_length_c	16.176319
_cell_angle_alpha	90.007696
_cell_angle_beta	90.006825
_cell_angle_gamma	84.890363
loop_
_atom_site_label
_atom_site_type_symbol
_atom_site_fract_x
_atom_site_fract_y
_atom_site_fract_z
O1	O	-2.770874	-0.123990	-0.068740
O2	O	-2.162714	-0.130236	-0.068744
O3	O	-2.483976	-0.017099	-0.068735
O4	O	-2.449612	-0.237127	-0.068749
O5	O	-2.483932	-0.017091	0.068758
O6	O	-2.162670	-0.130228	0.068749
O7	O	-2.770830	-0.123982	0.068753
Cu8	Cu	-2.466746	-0.127104	0.081305
Cu9	Cu	-2.466798	-0.127114	-0.081296
O10	O	-2.449568	-0.237119	0.068744
C11	C	-2.482722	0.011114	0.000012
C12	C	-2.479028	0.095170	0.000012
C13	C	-2.450821	-0.265332	-0.000005
C14	C	-2.454515	-0.349388	-0.000011
N15	N	-2.466724	-0.127097	0.195671
C16	C	-2.084876	-0.128997	0.000007
C17	C	-1.848661	-0.125223	0.000010
N18	N	-2.466836	-0.127115	-0.195662
C19	C	-2.667602	0.141867	0.000015
C20	C	-2.664119	0.220846	0.000007
C21	C	-2.472059	0.253126	0.000004
C22	C	-2.283471	0.206424	-0.000001
C23	C	-2.286956	0.127446	0.000000
C24	C	-2.269410	0.524930	-0.000008
C25	C	-2.265939	0.603914	-0.000007
C26	C	-2.646572	0.618330	-0.000001
C27	C	-2.650058	0.539352	0.000000
C28	C	-2.461471	0.492657	-0.000009
C29	C	-2.465250	0.407019	-0.000002
C30	C	-2.468278	0.338763	0.000003
C31	C	-2.609022	-0.077022	0.238939
C32	C	-2.609032	-0.077021	0.325486
C33	C	-2.466754	-0.127100	0.368763
C34	C	-2.324441	-0.177178	0.325489
C35	C	-2.324422	-0.177175	0.238943
C36	C	-2.324512	-0.177193	0.674517
C37	C	-2.324547	-0.177194	0.761069
C38	C	-2.609123	-0.077040	0.761060
C39	C	-2.609104	-0.077036	0.674514
C40	C	-2.466785	-0.127111	0.631247
C41	C	-2.466772	-0.127110	0.537403
C42	C	-2.466774	-0.127105	0.462606
H43	H	-2.824000	0.115590	0.000023
C44	C	-2.079531	0.076077	-0.000003
H45	H	-2.109112	0.024418	-0.000010
H46	H	-2.000734	0.086061	0.047941
H47	H	-2.000789	0.086054	-0.047958
H48	H	-2.115850	0.486920	-0.000015
C49	C	-2.765643	-0.021965	0.626910
H50	H	-2.745273	-0.029144	0.569169
H51	H	-2.743270	0.028772	0.641096
H52	H	-2.904984	-0.031563	0.641087
C53	C	-2.168027	-0.232291	0.626930
H54	H	-2.188379	-0.225120	0.569188
H55	H	-2.190490	-0.283018	0.641111
H56	H	-2.028663	-0.222723	0.641123
H57	H	-2.817675	0.258863	0.000011
C58	C	-2.072209	0.241931	-0.000003
H59	H	-2.097138	0.295655	0.000006
H60	H	-1.994590	0.226021	-0.047949
H61	H	-1.994575	0.226029	0.047951
C62	C	-2.861322	0.503847	0.000001
H63	H	-2.973135	0.542970	-0.000007
H64	H	-2.870586	0.473342	0.047946
H65	H	-2.870597	0.473334	-0.047954
H66	H	-2.724890	-0.036245	0.203708
H67	H	-2.208546	-0.217950	0.203715
H68	H	-2.724900	-0.036245	0.360714
C69	C	-2.854018	0.669697	-0.000004
H70	H	-2.824447	0.721357	-0.000016
H71	H	-2.932775	0.659724	0.047943
H72	H	-2.932798	0.659706	-0.047956
H73	H	-2.725001	-0.036263	0.796297
C74	C	-2.167995	-0.232270	0.808672
H75	H	-2.083210	-0.262085	0.770510
H76	H	-2.242936	-0.264515	0.842426
H77	H	-2.081225	-0.204178	0.842441
C78	C	-2.167941	-0.232266	0.373091
H79	H	-2.188345	-0.225102	0.430832
H80	H	-2.028590	-0.222688	0.358924
H81	H	-2.190373	-0.282999	0.358893
H82	H	-2.109532	0.630193	-0.000008
