data_functionalizedCrystal
_audit_creation_method	'MofGen! by Chris Wilmer'
_symmetry_space_group_name_H-M	'P1'
_symmetry_Int_Tables_number	1
_symmetry_cell_setting	triclinic
loop_
_symmetry_equiv_pos_as_xyz
  x,y,z
_cell_length_a	14.560438
_cell_length_b	14.560438
_cell_length_c	14.560438
_cell_angle_alpha	59.996693
_cell_angle_beta	90.002315
_cell_angle_gamma	60.001584
loop_
_atom_site_label
_atom_site_type_symbol
_atom_site_fract_x
_atom_site_fract_y
_atom_site_fract_z
Zr1	Zr	0.884773	1.005299	-0.120562
O2	O	0.738122	1.196913	-0.267227
O3	O	0.929728	0.813689	-0.075592
O4	O	0.929725	1.005301	-0.267209
O5	O	0.738129	1.005299	0.075530
O6	O	1.080866	1.005298	-0.267204
O7	O	0.738125	1.005301	-0.075611
O8	O	1.080872	0.662540	0.075563
O9	O	0.738123	1.348056	-0.267237
O10	O	1.061697	0.892498	-0.056420
O11	O	0.948905	0.892498	0.056371
O12	O	0.948901	1.118096	-0.169233
O13	O	0.836109	1.118096	-0.056442
Zr14	Zr	1.125831	1.005291	0.120498
Zr15	Zr	1.125825	1.005295	-0.120554
Zr16	Zr	0.884779	1.005295	0.120490
Zr17	Zr	0.884775	1.246356	-0.120577
Zr18	Zr	1.125830	0.764234	0.120514
O19	O	1.080876	1.196900	0.075529
O20	O	1.080867	1.196906	-0.267216
O21	O	0.738130	1.196907	0.075518
O22	O	1.272482	0.813677	0.267164
O23	O	1.272474	0.813683	-0.075581
O24	O	0.929737	0.813684	0.267153
O25	O	1.272475	1.005291	-0.075593
O26	O	1.080879	1.005289	0.267146
O27	O	0.929738	1.005292	0.267141
O28	O	1.272479	1.005289	0.075548
O29	O	0.929727	1.348053	-0.267231
O30	O	1.080877	0.662537	0.267168
O31	O	1.272481	0.662533	0.267174
O32	O	1.272476	0.662537	0.075570
O33	O	0.738128	1.348053	-0.075633
O34	O	0.929732	1.348050	-0.075627
O35	O	1.061703	0.892494	0.169169
O36	O	1.174495	0.892494	0.056379
O37	O	1.061699	1.118092	-0.056434
O38	O	0.948907	1.118092	0.056357
C39	C	1.005300	0.703769	-0.000012
C40	C	1.005299	0.601434	-0.000006
C41	C	0.703782	1.005301	-0.000042
C42	C	0.601449	1.005302	-0.000045
C43	C	0.922030	0.636651	-0.083291
C44	C	0.922035	0.540511	-0.083320
C45	C	1.088582	0.373939	0.083232
C46	C	1.088581	0.470078	0.083255
C47	C	0.553364	1.005306	-0.083308
C48	C	0.457218	1.005294	-0.083293
C49	C	0.457249	1.005280	0.083253
C50	C	0.553398	1.005283	0.083241
C51	C	0.553342	1.005320	-0.179464
C52	C	0.457197	1.005307	-0.179449
C53	C	1.306822	1.005289	-0.000022
C54	C	1.409155	1.005287	-0.000018
C55	C	1.005294	1.005300	-0.301551
C56	C	1.005292	1.005302	-0.403884
C57	C	1.005304	1.306820	-0.000051
C58	C	1.005305	1.409155	-0.000058
C59	C	0.946415	1.123059	-0.510847
C60	C	0.946428	1.123053	-0.606996
C61	C	1.064197	0.887521	-0.489205
C62	C	1.064190	0.887529	-0.393058
C63	C	1.005310	1.005290	0.301488
C64	C	1.005312	1.005288	0.403821
C65	C	1.306820	0.703764	-0.000002
C66	C	1.409152	0.601427	0.000008
C67	C	1.005308	0.703764	0.301507
C68	C	1.005309	0.601428	0.403847
C69	C	1.306827	0.703759	0.301517
C70	C	1.409162	0.601420	0.403860
C71	C	0.703777	1.306831	-0.301580
C72	C	0.601442	1.409170	-0.403923
C73	C	0.703785	1.306826	-0.000061
C74	C	0.601452	1.409163	-0.000071
C75	C	1.005297	1.306825	-0.301570
C76	C	1.005295	1.409162	-0.403910
C77	C	1.398352	0.553348	-0.058865
C78	C	1.494508	0.457200	-0.058859
C79	C	1.612261	0.457213	0.058900
C80	C	1.516106	0.553366	0.058887
C81	C	1.064188	0.553346	0.510806
C82	C	1.064177	0.457198	0.606961
C83	C	0.946407	0.457220	0.489184
C84	C	0.946412	0.553372	0.393032
C85	C	1.516116	0.553339	0.393068
C86	C	1.612266	0.457189	0.489234
C87	C	1.494496	0.457207	0.606980
C88	C	1.398348	0.553361	0.510816
H89	H	0.854210	0.743604	-0.151081
C90	C	0.360858	1.127450	-0.290383
N91	N	0.288296	1.219447	-0.373934
C92	C	0.830423	0.579261	-0.174931
N93	N	0.761415	0.608452	-0.243934
H94	H	1.156387	0.266979	0.151021
H95	H	1.112142	0.592474	0.519618
C96	C	1.482618	0.404312	-0.123619
N97	N	1.473659	0.364477	-0.172397
C98	C	1.280704	0.606222	-0.123644
N99	N	1.192092	0.646048	-0.172443
C100	C	1.729916	0.404327	0.123674
N101	N	1.818534	0.364490	0.172468
C102	C	1.280688	0.606263	0.522691
N103	N	1.192069	0.646113	0.531634
C104	C	0.881637	1.252613	-0.522761
N105	N	0.832848	1.350196	-0.531739
H106	H	1.112148	0.791635	-0.480404
C107	C	1.180188	0.431331	0.174880
N108	N	1.249186	0.402150	0.243888
H109	H	0.474014	0.912027	-0.162640
C110	C	0.881639	0.606264	0.275366
N111	N	0.832852	0.646103	0.186742
H112	H	1.524909	0.592516	0.106828
H113	H	1.112121	0.418056	0.694048
H114	H	0.592556	1.005263	0.151049
H115	H	0.536522	1.098596	-0.255950
H116	H	0.898456	0.418079	0.480392
H117	H	1.524926	0.592468	0.305984
H118	H	1.699350	0.418046	0.480439
H119	H	1.485705	0.418064	0.694073
H120	H	0.418116	1.005263	0.151063
H121	H	0.898486	1.218943	-0.694088
H122	H	0.624636	0.914910	-0.171166
H123	H	1.112140	0.791631	-0.305958
