data_functionalizedCrystal
_audit_creation_method	'MofGen! by Chris Wilmer'
_symmetry_space_group_name_H-M	'P1'
_symmetry_Int_Tables_number	1
_symmetry_cell_setting	triclinic
loop_
_symmetry_equiv_pos_as_xyz
  x,y,z
_cell_length_a	19.188930
_cell_length_b	16.992694
_cell_length_c	15.455313
_cell_angle_alpha	92.857794
_cell_angle_beta	92.650876
_cell_angle_gamma	93.093497
loop_
_atom_site_label
_atom_site_type_symbol
_atom_site_fract_x
_atom_site_fract_y
_atom_site_fract_z
O1	O	0.145160	-1.043326	-0.072038
O2	O	0.143535	-0.815047	-0.072064
O3	O	0.043078	-0.935773	-0.072033
O4	O	0.245617	-0.922600	-0.072069
O5	O	0.048798	-0.928870	0.072227
O6	O	0.149255	-0.808144	0.072197
O7	O	0.150879	-1.036422	0.072222
Cu8	Cu	0.150589	-0.921653	0.085382
Cu9	Cu	0.143825	-0.929817	-0.085223
O10	O	0.251336	-0.915696	0.072192
C11	C	0.144306	-0.782390	0.000064
C12	C	0.138072	-0.695368	0.000055
C13	C	0.019902	-0.931895	0.000099
C14	C	-0.057677	-0.930614	0.000107
C15	C	0.150109	-1.069079	0.000093
C16	C	0.156342	-1.156102	0.000096
C17	C	-0.098455	-1.001452	0.000119
C18	C	-0.171350	-1.000250	0.000105
C19	C	-0.203463	-0.928204	0.000096
C20	C	-0.162676	-0.857356	0.000079
C21	C	-0.089783	-0.858561	0.000085
N22	N	-0.312744	-0.870784	0.049185
N23	N	-0.381990	-0.869644	0.049181
C24	C	-0.423085	-0.924569	0.000078
N25	N	-0.392319	-0.980688	-0.049011
N26	N	-0.323067	-0.981830	-0.049004
C27	C	-0.282503	-0.926889	0.000090
C28	C	-0.542904	-0.994108	0.000074
C29	C	-0.615801	-0.992903	0.000054
C30	C	-0.607124	-0.850007	0.000038
C31	C	-0.534230	-0.851215	0.000048
C32	C	-0.502124	-0.923267	0.000070
C33	C	0.274513	-0.919575	0.000057
C34	C	0.352092	-0.920856	0.000044
N35	N	0.155346	-0.915916	0.205376
C36	C	0.198212	-0.644922	0.000045
C37	C	0.192351	-0.563155	0.000058
C38	C	0.126351	-0.531836	0.000075
C39	C	0.066208	-0.582288	0.000087
C40	C	0.072069	-0.664053	0.000080
C41	C	0.102059	-0.288320	0.000102
C42	C	0.096203	-0.206548	0.000106
C43	C	0.222347	-0.187420	0.000079
C44	C	0.228202	-0.269188	0.000067
C45	C	0.168059	-0.319633	0.000084
N46	N	0.120360	-0.448257	0.000085
N47	N	0.174051	-0.403210	0.000079
N48	N	0.139063	-0.935560	-0.205217
C49	C	0.112686	-0.967222	0.250783
C50	C	0.116291	-0.962891	0.341590
C51	C	0.162559	-0.907257	0.386988
C52	C	0.205221	-0.855945	0.341574
C53	C	0.201613	-0.860273	0.250769
C54	C	0.178116	-0.888576	0.658564
C55	C	0.181723	-0.884253	0.749376
C56	C	0.092792	-0.991199	0.749385
C57	C	0.089190	-0.995525	0.658578
C58	C	0.131849	-0.944211	0.613173
N59	N	0.166246	-0.902830	0.479807
N60	N	0.128158	-0.948634	0.520355
H61	H	-0.204558	-1.057937	0.000111
N62	N	0.046777	-1.046537	0.798356
H63	H	0.057323	-1.102899	0.782541
H64	H	0.056102	-1.035288	0.862753
H65	H	0.251956	-0.670415	0.000031
H66	H	0.242891	-0.810642	0.378543
N67	N	-0.508272	-1.071818	0.000096
H68	H	-0.455906	-1.061833	0.000109
H69	H	-0.520802	-1.100239	0.053581
H70	H	0.053086	-0.329383	0.000117
N71	N	0.299385	-0.302975	0.000058
H72	H	0.302503	-0.339025	-0.053423
H73	H	0.336558	-0.258571	0.000088
H74	H	0.219403	-0.838947	0.786335
H75	H	-0.633270	-0.791346	0.000026
N76	N	0.247620	-0.804932	0.201790
H77	H	0.277479	-0.769031	0.244326
H78	H	0.278674	-0.836628	0.164097
N79	N	0.224121	-0.833228	0.609598
H80	H	0.253979	-0.797330	0.652139
H81	H	0.255177	-0.864920	0.571903
N82	N	0.039286	-1.055534	0.609619
H83	H	0.051091	-1.110386	0.625418
H84	H	-0.010119	-1.045858	0.625458
N85	N	0.287213	-0.133013	0.000062
H86	H	0.273488	-0.076462	0.000069
H87	H	0.317900	-0.140578	0.053535
N88	N	0.025014	-0.172766	0.000119
H89	H	-0.012198	-0.217129	0.000129
H90	H	0.021958	-0.136702	0.053598
H91	H	-0.072320	-1.060123	0.000134
H92	H	-0.188827	-0.798696	0.000070
H93	H	-0.649002	-1.050591	0.000059
N94	N	-0.004979	-0.548513	0.000119
H95	H	0.000432	-0.489060	0.000121
H96	H	-0.033622	-0.569533	-0.053353
N97	N	0.007205	-0.718467	0.000097
H98	H	-0.035495	-0.686221	0.000108
H99	H	0.004766	-0.755363	-0.053382
H100	H	-0.056581	-0.800874	0.000075
H101	H	0.241323	-0.522084	0.000049
N102	N	-0.490242	-0.774810	0.000040
H103	H	-0.521644	-0.728985	0.000033
H104	H	-0.457697	-0.769639	0.053522
N105	N	0.062787	-1.027233	0.201821
H106	H	0.036308	-1.059077	0.244369
H107	H	0.028738	-0.999126	0.164158
H108	H	0.081553	-1.004668	0.378560
