data_functionalizedCrystal
_audit_creation_method	'MofGen! by Chris Wilmer'
_symmetry_space_group_name_H-M	'P1'
_symmetry_Int_Tables_number	1
_symmetry_cell_setting	triclinic
loop_
_symmetry_equiv_pos_as_xyz
  x,y,z
_cell_length_a	14.853558
_cell_length_b	22.610064
_cell_length_c	14.853569
_cell_angle_alpha	90.005598
_cell_angle_beta	83.633349
_cell_angle_gamma	90.014758
loop_
_atom_site_label
_atom_site_type_symbol
_atom_site_fract_x
_atom_site_fract_y
_atom_site_fract_z
O1	O	1.196385	0.049179	0.117662
O2	O	0.933924	0.049182	0.131692
O3	O	1.072165	0.049175	-0.006553
O4	O	1.058145	0.049186	0.255907
O5	O	1.072124	-0.049195	-0.006553
O6	O	0.933884	-0.049187	0.131692
O7	O	1.196344	-0.049190	0.117662
Zn8	Zn	1.065108	-0.064807	0.124677
Zn9	Zn	1.065161	0.064799	0.124677
O10	O	1.058104	-0.049183	0.255907
C11	C	0.900315	-0.000002	0.131058
C12	C	0.800231	-0.000001	0.129158
C13	C	0.753233	0.053622	0.128266
C14	C	0.753187	-0.053624	0.128255
C15	C	0.659153	-0.053625	0.126465
C16	C	0.612155	-0.000002	0.125574
C17	C	0.659191	0.053622	0.126473
C18	C	0.612112	-0.107248	0.125556
C19	C	0.518073	-0.107252	0.123765
C20	C	0.471072	-0.053628	0.122880
C21	C	0.518113	-0.000001	0.123780
C22	C	0.471115	0.053622	0.122889
C23	C	0.518154	0.107249	0.123796
C24	C	0.612190	0.107246	0.125588
C25	C	0.377036	-0.053625	0.121088
C26	C	0.377073	0.053623	0.121096
N27	N	1.065078	-0.153259	0.124676
C28	C	1.119907	-0.561899	0.179445
C29	C	1.119918	-0.623819	0.179443
O30	O	1.166499	-0.655836	0.226003
N31	N	1.065178	-0.654797	0.124667
C32	C	1.010431	-0.623851	0.069883
O33	O	0.963872	-0.655886	0.023291
C34	C	1.010425	-0.561932	0.069881
C35	C	1.065161	-0.530958	0.124667
C36	C	1.174639	-0.530925	0.234226
C37	C	1.174626	-0.469009	0.234230
C38	C	1.119881	-0.438068	0.179452
C39	C	1.065148	-0.469042	0.124670
C40	C	0.955683	-0.530988	0.015092
C41	C	0.955682	-0.469065	0.015095
C42	C	1.010419	-0.438091	0.069881
C43	C	1.010390	-0.376185	0.069896
N44	N	1.065130	-0.345208	0.124672
C45	C	1.119875	-0.376149	0.179450
C46	C	1.010448	-0.753885	0.069890
C47	C	1.010449	-0.815802	0.069896
C48	C	1.119937	-0.815766	0.179455
C49	C	1.119932	-0.753847	0.179453
C50	C	1.065188	-0.722907	0.124666
C51	C	1.119843	-0.246122	0.179453
C52	C	1.119823	-0.184201	0.179454
C53	C	1.010338	-0.184242	0.069892
C54	C	1.010355	-0.246158	0.069894
C55	C	1.065115	-0.277096	0.124677
O56	O	0.963835	-0.344129	0.023356
O57	O	1.166435	-0.344107	0.226025
C58	C	1.229953	-0.000005	0.118296
C59	C	1.330038	-0.000002	0.120197
C60	C	1.071509	-0.000010	-0.040141
C61	C	1.069604	-0.000011	-0.140225
N62	N	1.065198	0.153251	0.124671
C63	C	0.986593	-0.000011	-0.176599
C64	C	1.150826	-0.000006	-0.197894
C65	C	1.149040	-0.000004	-0.291928
C66	C	1.066029	-0.000004	-0.328302
C67	C	0.984804	-0.000006	-0.270641
C68	C	1.230263	0.000005	-0.349595
C69	C	1.228480	0.000008	-0.443635
C70	C	1.145468	0.000004	-0.480011
C71	C	1.064240	0.000001	-0.422344
C72	C	0.981229	0.000000	-0.458718
C73	C	0.900000	-0.000007	-0.401053
C74	C	0.901792	-0.000011	-0.307017
C75	C	1.143675	0.000008	-0.574047
C76	C	0.979439	0.000005	-0.552760
C77	C	1.058760	0.000003	0.289496
C78	C	1.060664	0.000007	0.389579
H79	H	0.338813	0.097290	0.120376
N80	N	0.801196	-0.108392	0.129202
N81	N	0.782448	-0.144284	0.192514
H82	H	0.816360	-0.182965	0.193193
N83	N	0.470130	0.162017	0.122874
N84	N	0.386170	0.162004	0.121262
H85	H	0.352249	0.200683	0.120609
H86	H	1.219224	-0.556110	0.278833
H87	H	1.164513	-0.840970	0.224060
N88	N	1.235608	0.000003	-0.160727
N89	N	1.237192	0.000005	-0.076764
H90	H	1.297072	0.000012	-0.050511
N91	N	0.328975	-0.108391	0.120151
N92	N	0.284728	-0.120350	0.055650
H93	H	0.250784	-0.159032	0.054988
N94	N	1.175755	-0.152562	0.235402
N95	N	1.235311	-0.118000	0.200303
H96	H	1.274815	-0.095657	0.239812
H97	H	0.835660	-0.000015	-0.260058
N98	N	0.660144	-0.162008	0.126483
N99	N	0.704376	-0.173956	0.190990
H100	H	0.738309	-0.212630	0.191650
H101	H	0.650498	0.150907	0.126325
H102	H	0.791536	0.097284	0.129008
N103	N	0.954540	-0.847447	0.013941
N104	N	0.954551	-0.902731	0.013937
H105	H	0.915066	-0.925080	-0.025586
N106	N	0.894635	-0.000004	-0.589897
N107	N	0.822123	-0.000014	-0.538399
H108	H	0.762229	-0.000021	-0.564625
H109	H	0.479782	-0.150918	0.123025
H110	H	1.164434	-0.271304	0.224062
H111	H	0.832412	-0.000003	-0.430681
N112	N	1.226646	0.000009	-0.632936
N113	N	1.281818	-0.041453	-0.629565
H114	H	1.340421	-0.041454	-0.671155
H115	H	1.219202	-0.443795	0.278839
N116	N	1.175855	-0.722220	0.235414
N117	N	1.224729	-0.749860	0.284315
H118	H	1.264232	-0.727527	0.323836
H119	H	0.920459	-0.000019	-0.129644
N120	N	1.315059	-0.000004	-0.312456
N121	N	1.387574	-0.000002	-0.363948
H122	H	1.447466	-0.000011	-0.337717
N123	N	0.954520	-0.722292	0.013916
N124	N	0.905657	-0.749963	-0.034987
H125	H	0.866160	-0.727654	-0.074522
H126	H	0.911112	-0.556197	-0.029522
N127	N	0.954441	-0.277813	0.013950
N128	N	0.894893	-0.312383	0.049041
H129	H	0.855409	-0.334737	0.009525
N130	N	0.899774	-0.437471	-0.040895
N131	N	0.850922	-0.465139	-0.089813
H132	H	0.811441	-0.442827	-0.129360
N133	N	0.954420	-0.152621	0.013951
N134	N	0.954426	-0.097337	0.013966
H135	H	0.914937	-0.075002	-0.025546
H136	H	1.294622	0.000013	-0.490579
