data_functionalizedCrystal
_audit_creation_method	'MofGen! by Chris Wilmer'
_symmetry_space_group_name_H-M	'P1'
_symmetry_Int_Tables_number	1
_symmetry_cell_setting	triclinic
loop_
_symmetry_equiv_pos_as_xyz
  x,y,z
_cell_length_a	19.188930
_cell_length_b	14.853559
_cell_length_c	13.930277
_cell_angle_alpha	89.997639
_cell_angle_beta	89.978906
_cell_angle_gamma	83.388118
loop_
_atom_site_label
_atom_site_type_symbol
_atom_site_fract_x
_atom_site_fract_y
_atom_site_fract_z
O1	O	0.926520	0.112552	-0.080135
O2	O	0.723259	0.127704	-0.080069
O3	O	0.830322	-0.011132	-0.080103
O4	O	0.819457	0.251389	-0.080101
O5	O	0.830307	-0.011135	0.079559
O6	O	0.723244	0.127701	0.079593
O7	O	0.926505	0.112550	0.079527
Zn8	Zn	0.824873	0.120125	0.104910
Zn9	Zn	0.824892	0.120129	-0.105452
O10	O	0.819442	0.251386	0.079561
C11	C	0.697239	0.127212	-0.000229
C12	C	0.619730	0.125739	-0.000204
C13	C	0.829824	-0.044720	-0.000273
C14	C	0.828352	-0.144796	-0.000278
C15	C	0.822115	-0.567934	-0.087308
C16	C	0.822098	-0.567932	0.086762
C17	C	0.823487	-0.473907	0.086762
C18	C	0.824189	-0.426891	-0.000274
C19	C	0.823502	-0.473900	-0.087310
C20	C	0.824168	-0.426889	0.173797
C21	C	0.825556	-0.332858	0.173801
C22	C	0.826262	-0.285841	0.086764
C23	C	0.825576	-0.332856	-0.000276
C24	C	0.826277	-0.285840	-0.087312
C25	C	0.825596	-0.332854	-0.174353
C26	C	0.824208	-0.426883	-0.174347
C27	C	0.827650	-0.191812	0.086758
C28	C	0.827664	-0.191805	-0.087314
C29	C	0.575076	0.207204	-0.000219
C30	C	0.502247	0.205820	-0.000229
C31	C	0.474076	0.122967	-0.000244
C32	C	0.518740	0.041492	-0.000224
C33	C	0.591567	0.042878	-0.000204
N34	N	0.365891	0.059637	-0.054623
N35	N	0.296708	0.058326	-0.054645
C36	C	0.254654	0.118786	-0.000303
N37	N	0.284394	0.180620	0.054048
N38	N	0.353583	0.181934	0.054065
C39	C	0.395109	0.121455	-0.000266
C40	C	0.131030	0.198756	-0.000328
C41	C	0.058201	0.197368	-0.000332
C42	C	0.074696	0.033038	-0.000337
C43	C	0.147523	0.034427	-0.000323
C44	C	0.175686	0.117289	-0.000323
C45	C	0.952526	0.113042	-0.000315
C46	C	1.030035	0.114515	-0.000346
C47	C	0.819941	0.284973	-0.000271
C48	C	0.821413	0.385049	-0.000272
N49	N	0.824864	0.120122	0.248476
N50	N	0.824906	0.120125	-0.249018
C51	C	0.777483	0.181581	0.700760
C52	C	0.872321	0.058669	0.700699
C53	C	0.872312	0.058666	0.600204
C54	C	0.824889	0.120123	0.549982
C55	C	0.777474	0.181582	0.600255
C56	C	0.919731	-0.002786	0.549923
C57	C	0.919725	-0.002791	0.449421
C58	C	0.872298	0.058662	0.399197
C59	C	0.824881	0.120124	0.449477
C60	C	0.777458	0.181580	0.399254
C61	C	0.730036	0.243038	0.449532
C62	C	0.730047	0.243035	0.550031
C63	C	0.872287	0.058665	0.298698
C64	C	0.777449	0.181581	0.298749
H65	H	0.828239	-0.153532	-0.158191
Cl66	Cl	0.979336	-0.080052	0.386221
Cl67	Cl	0.002062	0.299791	-0.000346
H68	H	0.910900	0.008631	0.257766
H69	H	0.910935	0.008637	0.741594
H70	H	0.051760	-0.034423	-0.000409
Cl71	Cl	0.203663	-0.067992	-0.000311
Cl72	Cl	0.483326	-0.062667	-0.000238
Cl73	Cl	0.610476	0.311372	-0.000214
H74	H	0.465883	0.272160	-0.000238
Cl75	Cl	0.821204	-0.627037	0.196172
H76	H	0.823593	-0.465176	0.244656
Cl77	Cl	0.717824	0.258841	0.235621
Cl78	Cl	0.828505	-0.132712	0.196171
Cl79	Cl	0.826481	-0.273737	-0.283765
H80	H	0.691427	0.293080	0.408630
H81	H	0.691439	0.293073	0.590974
Cl82	Cl	0.717867	0.258836	0.763961
H83	H	0.627925	-0.023463	-0.000193
Cl84	Cl	0.979351	-0.080037	0.613056
H85	H	0.823653	-0.465170	-0.245211
H86	H	0.821562	-0.606218	-0.158174
H87	H	0.826113	-0.294587	0.244674
H88	H	0.153961	0.266226	-0.000314
