data_functionalizedCrystal
_audit_creation_method	'MofGen! by Chris Wilmer'
_symmetry_space_group_name_H-M	'P1'
_symmetry_Int_Tables_number	1
_symmetry_cell_setting	triclinic
loop_
_symmetry_equiv_pos_as_xyz
  x,y,z
_cell_length_a	9.065218
_cell_length_b	7.540329
_cell_length_c	9.065218
_cell_angle_alpha	90.003743
_cell_angle_beta	94.984081
_cell_angle_gamma	89.997391
loop_
_atom_site_label
_atom_site_type_symbol
_atom_site_fract_x
_atom_site_fract_y
_atom_site_fract_z
O1	O	-1.960393	0.147565	0.216361
O2	O	-1.460393	0.647565	0.716361
O3	O	-1.531108	0.147548	0.234107
O4	O	-1.031108	0.647548	0.734107
O5	O	-1.754623	0.147554	0.010591
O6	O	-1.254623	0.647554	0.510591
O7	O	-1.736877	0.147560	0.439876
O8	O	-1.236877	0.647560	0.939876
O9	O	-1.754621	-0.147411	0.010579
O10	O	-1.254621	0.352589	0.510579
O11	O	-1.531106	-0.147417	0.234094
O12	O	-1.031106	0.352583	0.734094
O13	O	-1.960391	-0.147400	0.216348
O14	O	-1.460391	0.352600	0.716348
Cu15	Cu	-1.745748	-0.174341	0.225220
Cu16	Cu	-1.245748	0.325659	0.725220
Cu17	Cu	-1.745750	0.174489	0.225235
Cu18	Cu	-1.245750	0.674489	0.725235
O19	O	-1.736875	-0.147405	0.439864
O20	O	-1.236875	0.352595	0.939864
C21	C	-1.476120	0.000064	0.232395
C22	C	-0.976120	0.500064	0.732395
C23	C	-1.312277	0.000057	0.227295
C24	C	-0.812277	0.500057	0.727295
C25	C	-1.752917	0.000074	-0.044402
C26	C	-1.252917	0.500074	0.455598
C27	C	-1.747817	0.000082	-0.208244
C28	C	-1.247817	0.500082	0.291756
C29	C	-1.015378	0.000078	0.218060
C30	C	-0.515378	0.500078	0.718060
C31	C	-1.179221	0.000063	0.223159
C32	C	-0.679221	0.500063	0.723159
N33	N	-1.745753	0.419838	0.225234
N34	N	-1.245753	0.919838	0.725234
N35	N	-1.745757	-0.419689	0.225209
N36	N	-1.245757	0.080311	0.725209
C37	C	-1.738581	0.000079	0.494856
C38	C	-1.238581	0.500079	0.994856
C39	C	-1.743681	0.000082	0.658699
C40	C	-1.243681	0.500082	1.158699
