data_functionalizedCrystal
_audit_creation_method	'MofGen! by Chris Wilmer'
_symmetry_space_group_name_H-M	'P1'
_symmetry_Int_Tables_number	1
_symmetry_cell_setting	triclinic
loop_
_symmetry_equiv_pos_as_xyz
  x,y,z
_cell_length_a	29.839131
_cell_length_b	19.805407
_cell_length_c	29.839126
_cell_angle_alpha	90.019086
_cell_angle_beta	90.024152
_cell_angle_gamma	90.038737
loop_
_atom_site_label
_atom_site_type_symbol
_atom_site_fract_x
_atom_site_fract_y
_atom_site_fract_z
Zn1	Zn	-0.178920	1.034674	0.253999
Zn2	Zn	-0.254040	1.034556	0.178869
Zn3	Zn	-0.178922	0.921486	0.178882
Zn4	Zn	-0.254020	0.921422	0.253971
O5	O	-0.216476	0.978034	0.216430
O6	O	-0.188893	1.129375	0.244038
O7	O	-0.244085	1.019535	0.116003
O8	O	-0.116054	0.936576	0.188864
O9	O	-0.244083	1.129288	0.188841
O10	O	-0.116053	1.019735	0.244051
O11	O	-0.188896	0.936462	0.116013
O12	O	-0.188876	0.826761	0.188837
O13	O	-0.244049	0.936468	0.316842
O14	O	-0.244050	0.826714	0.244004
O15	O	-0.188873	1.019673	0.316862
O16	O	-0.316905	1.019473	0.188814
O17	O	-0.316890	0.936354	0.243991
C18	C	-0.216461	0.802178	0.216419
C19	C	-0.216466	0.726946	0.216425
C20	C	-0.187779	0.691648	0.245210
C21	C	-0.187782	0.620959	0.245212
C22	C	-0.216474	0.585571	0.216430
C23	C	-0.245162	0.620874	0.187642
C24	C	-0.245157	0.691562	0.187638
C25	C	-0.245182	0.335801	0.187656
C26	C	-0.245186	0.265109	0.187663
C27	C	-0.187807	0.265199	0.245229
C28	C	-0.187802	0.335886	0.245226
C29	C	-0.216488	0.371183	0.216436
C30	C	-0.216485	0.447832	0.216434
C31	C	-0.216480	0.508924	0.216435
C32	C	-0.333198	0.977912	0.216408
C33	C	-0.383133	0.977922	0.216413
C34	C	-0.692771	1.021393	0.187741
C35	C	-0.880444	1.021477	0.187759
O36	O	-0.904705	1.058341	0.163363
N37	N	-0.903918	0.978175	0.216464
C38	C	-0.880470	0.934852	0.245169
O39	O	-0.904742	0.898028	0.269588
C40	C	-0.692798	0.934772	0.245153
C41	C	-0.669327	0.978072	0.216443
C42	C	-0.669300	1.064690	0.159033
C43	C	-0.622384	1.064666	0.159028
C44	C	-0.598940	1.021345	0.187730
C45	C	-0.622411	0.978048	0.216437
C46	C	-0.669351	0.891453	0.273860
C47	C	-0.622430	0.891438	0.273855
C48	C	-0.598959	0.934738	0.245144
C49	C	-0.552051	0.934703	0.245133
N50	N	-0.528578	0.978005	0.216428
C51	C	-0.552022	1.021326	0.187726
C52	C	-0.979001	0.934896	0.245174
C53	C	-1.025918	0.934915	0.245178
C54	C	-1.025889	1.021541	0.187768
C55	C	-0.978971	1.021518	0.187763
C56	C	-0.955527	0.978198	0.216469
C57	C	-0.453496	1.021273	0.187716
C58	C	-0.406577	1.021243	0.187711
C59	C	-0.406610	0.934620	0.245123
C60	C	-0.453526	0.934647	0.245126
C61	C	-0.476968	0.977978	0.216421
O62	O	-0.527762	0.897864	0.269519
O63	O	-0.527742	1.058156	0.163318
C64	C	-0.739686	1.021417	0.187747
C65	C	-0.763158	0.978120	0.216455
C66	C	-0.739713	0.934799	0.245156
C67	C	-0.810075	0.978139	0.216458
C68	C	-0.833520	1.021460	0.187756
C69	C	-0.810046	1.064762	0.159051
C70	C	-0.763131	1.064738	0.159045
C71	C	-0.763187	0.891497	0.273862
C72	C	-0.810102	0.891524	0.273865
C73	C	-0.833547	0.934845	0.245163
C74	C	-0.099297	0.978176	0.216462
C75	C	-0.049363	0.978236	0.216476
C76	C	-0.216458	0.978076	0.333608
C77	C	-0.216451	0.978094	0.383543
C78	C	-0.216490	1.154577	0.216441
C79	C	-0.216496	1.229809	0.216446
C80	C	-0.216460	0.978032	0.099707
C81	C	-0.216341	0.978145	0.049773
C82	C	-0.187669	0.934852	0.693194
C83	C	-0.187638	0.934871	0.880867
O84	O	-0.163211	0.898071	0.905139
N85	N	-0.216367	0.978126	0.904328
C86	C	-0.245108	1.021377	0.880868
O87	O	-0.269546	1.058163	0.905129
C88	C	-0.245141	1.021354	0.693195
C89	C	-0.216407	0.978100	0.669737
C90	C	-0.158938	0.891602	0.669736
C91	C	-0.158944	0.891600	0.622821
C92	C	-0.187682	0.934848	0.599363
C93	C	-0.216413	0.978099	0.622822
C94	C	-0.273884	1.064600	0.669736
C95	C	-0.273890	1.064589	0.622815
C96	C	-0.245156	1.021336	0.599356
C97	C	-0.245157	1.021345	0.552449
N98	N	-0.216428	0.978090	0.528988
C99	C	-0.187690	0.934842	0.552446
C100	C	-0.245088	1.021387	0.979398
C101	C	-0.245079	1.021393	1.026316
C102	C	-0.187609	0.934887	1.026313
C103	C	-0.187616	0.934884	0.979394
C104	C	-0.216359	0.978131	0.955938
C105	C	-0.187706	0.934842	0.453920
C106	C	-0.187713	0.934846	0.407000
C107	C	-0.245184	1.021350	0.407007
C108	C	-0.245175	1.021348	0.453923
C109	C	-0.216434	0.978089	0.477378
O110	O	-0.269575	1.058121	0.528148
O111	O	-0.163263	0.898050	0.528176
C112	C	-0.187663	0.934854	0.740110
C113	C	-0.216394	0.978104	0.763568
C114	C	-0.245132	1.021352	0.740111
C115	C	-0.216385	0.978111	0.810486
C116	C	-0.187647	0.934862	0.833943
C117	C	-0.158918	0.891607	0.810482
C118	C	-0.158925	0.891605	0.763567
C119	C	-0.273861	1.064608	0.763571
C120	C	-0.273852	1.064606	0.810487
C121	C	-0.245114	1.021358	0.833944
H122	H	-0.387468	1.056503	0.164330
H123	H	-0.268580	1.056563	0.387900
H124	H	-0.268516	0.720301	0.164198
H125	H	-0.268521	0.592055	0.164206
C126	C	-0.156225	0.582134	0.276879
N127	N	-0.132455	0.552891	0.300733
H128	H	-0.472637	0.899390	0.268505
C129	C	-0.156244	0.226365	0.276892
N130	N	-0.132470	0.197117	0.300738
H131	H	-0.268551	0.236298	0.164224
C132	C	-0.276740	0.374619	0.155988
N133	N	-0.300511	0.403859	0.132135
H134	H	-0.472577	1.056559	0.164343
C135	C	-0.156215	0.730569	0.276872
N136	N	-0.132438	0.759882	0.300720
C137	C	-0.596572	1.112295	0.127440
N138	N	-0.577134	1.148169	0.103645
C139	C	-0.156104	0.887260	0.381199
N140	N	-0.132297	0.851418	0.361767
H141	H	-0.268495	1.056604	0.960304
H142	H	-0.387514	0.899346	0.268490
C143	C	-0.695081	1.112347	0.127454
N144	N	-0.714497	1.148241	0.103663
C145	C	-1.051731	0.887275	0.276757
N146	N	-1.071172	0.851394	0.300546
C147	C	-0.953157	1.069153	0.156181
N148	N	-0.933716	1.105035	0.132392
C149	C	-0.596645	0.843782	0.305435
N150	N	-0.577225	0.807886	0.329221
C151	C	-1.051687	1.069198	0.156198
N152	N	-1.071120	1.105095	0.132424
H153	H	-0.959916	0.899618	0.268551
C154	C	-0.156237	0.374809	0.276886
N155	N	-0.132460	0.404126	0.300731
H156	H	-0.688453	0.856190	0.297237
C157	C	-0.835844	1.112415	0.127478
N158	N	-0.855277	1.148307	0.103701
H159	H	-0.829208	0.856258	0.297244
H160	H	-0.744024	1.099997	0.135666
H161	H	-0.744102	0.856221	0.297235
C162	C	-0.156087	0.887258	0.479713
N163	N	-0.132268	0.851423	0.499141
C164	C	-0.276781	1.068933	0.479728
N165	N	-0.300591	1.104769	0.499161
C166	C	-0.127338	0.844011	0.597023
N167	N	-0.103532	0.808162	0.577595
H168	H	-0.135536	0.856380	0.688830
C169	C	-0.156010	0.887298	0.953594
N170	N	-0.132204	0.851452	0.934164
H171	H	-0.297282	1.099821	0.688827
C172	C	-0.156000	0.887309	1.052124
N173	N	-0.132196	0.851472	1.071568
H174	H	-0.268472	1.056622	1.045412
C175	C	-0.305507	1.112170	0.597015
N176	N	-0.329319	1.148011	0.577584
H177	H	-0.135527	0.856384	0.744471
H178	H	-0.135517	0.856395	0.829590
C179	C	-0.305464	1.112191	0.836286
N180	N	-0.329277	1.148027	0.855716
C181	C	-0.305462	1.112208	0.737775
N182	N	-0.329260	1.148074	0.718347
