data_functionalizedCrystal
_audit_creation_method	'MofGen! by Chris Wilmer'
_symmetry_space_group_name_H-M	'P1'
_symmetry_Int_Tables_number	1
_symmetry_cell_setting	triclinic
loop_
_symmetry_equiv_pos_as_xyz
  x,y,z
_cell_length_a	14.908571
_cell_length_b	19.121063
_cell_length_c	14.908308
_cell_angle_alpha	95.554627
_cell_angle_beta	90.175053
_cell_angle_gamma	89.303906
loop_
_atom_site_label
_atom_site_type_symbol
_atom_site_fract_x
_atom_site_fract_y
_atom_site_fract_z
Zn1	Zn	1.324072	-0.366417	-0.606393
Zn2	Zn	1.326220	-0.477475	-0.461735
Zn3	Zn	1.183168	-0.352931	-0.446699
Zn4	Zn	1.167296	-0.476641	-0.603344
O5	O	1.250189	-0.418366	-0.529543
O6	O	1.449836	-0.387142	-0.594773
O7	O	1.314785	-0.455659	-0.333644
O8	O	1.207604	-0.256469	-0.462866
O9	O	1.451414	-0.468736	-0.488493
O10	O	1.311125	-0.266377	-0.580193
O11	O	1.209686	-0.364157	-0.322597
O12	O	1.055584	-0.363348	-0.459909
O13	O	1.180551	-0.467315	-0.729845
O14	O	1.043922	-0.454238	-0.574995
O15	O	1.295734	-0.386334	-0.732085
O16	O	1.299394	-0.575616	-0.485536
O17	O	1.182633	-0.575003	-0.589576
C18	C	1.017218	-0.407239	-0.515490
C19	C	0.917550	-0.402497	-0.509501
C20	C	0.718169	-0.488362	-0.617938
C21	C	0.624521	-0.483909	-0.612314
C22	C	0.636605	-0.389134	-0.492633
C23	C	0.730253	-0.393588	-0.498257
C24	C	0.771031	-0.443204	-0.560911
C25	C	0.864680	-0.447660	-0.566530
C26	C	0.876762	-0.352883	-0.446854
C27	C	0.783115	-0.348429	-0.441230
C28	C	1.239548	-0.600787	-0.538878
C29	C	1.235075	-0.678833	-0.542906
C30	C	1.293807	-0.715799	-0.490682
C31	C	1.289606	-0.789131	-0.494476
C32	C	1.226668	-0.825496	-0.550491
C33	C	1.167934	-0.788525	-0.602722
C34	C	1.172140	-0.715194	-0.598932
C35	C	1.210929	-1.046893	-0.564648
C36	C	1.206726	-1.120229	-0.568432
C37	C	1.328400	-1.120830	-0.460187
C38	C	1.332596	-1.047498	-0.456398
C39	C	1.273865	-1.010533	-0.508632
C40	C	1.222371	-0.900454	-0.554369
C41	C	1.278168	-0.935578	-0.504758
C42	C	1.484070	-0.429537	-0.543650
C43	C	1.583736	-0.434297	-0.549662
C44	C	1.236132	-0.428235	-0.764574
C45	C	1.230142	-0.432441	-0.864731
C46	C	1.260895	-0.235235	-0.520192
C47	C	1.265458	-0.157195	-0.516207
C48	C	1.338824	-0.356002	-1.055270
C49	C	1.333199	-0.359951	-1.149376
C50	C	1.213262	-0.444285	-1.147051
C51	C	1.218888	-0.440335	-1.052945
C52	C	1.281672	-0.396193	-1.007057
C53	C	1.287301	-0.392248	-0.912950
C54	C	1.167360	-0.476578	-0.910626
C55	C	1.161735	-0.480527	-1.004732
C56	C	1.264246	-0.408487	-0.295425
C57	C	1.270421	-0.404092	-0.195270
H58	H	0.751371	-0.528765	-0.668948
H59	H	1.120825	-0.509307	-0.871362
H60	H	0.749900	-0.308032	-0.390222
H61	H	1.124315	-0.685097	-0.641460
H62	H	1.155484	-1.149837	-0.614063
C63	C	1.363041	-0.675800	-0.429064
C64	C	1.361357	-0.681278	-0.326708
C65	C	1.430594	-0.641281	-0.265091
C66	C	1.501516	-0.595808	-0.305830
C67	C	1.503203	-0.590328	-0.408192
C68	C	1.433965	-0.630324	-0.469809
H69	H	1.308854	-0.714942	-0.296545
H70	H	1.429346	-0.645338	-0.189316
H71	H	1.552770	-0.566200	-0.260218
H72	H	1.555705	-0.556664	-0.438355
H73	H	1.435214	-0.626268	-0.545584
H74	H	1.338424	-0.356306	-0.875590
H75	H	0.919813	-0.316113	-0.400417
C76	C	1.354217	-0.829790	-0.437029
C77	C	1.353686	-0.815101	-0.333630
C78	C	1.418305	-0.855758	-0.276182
C79	C	1.483456	-0.911103	-0.322134
C80	C	1.483990	-0.925794	-0.425538
C81	C	1.419371	-0.885137	-0.482986
H82	H	1.305455	-0.774129	-0.299609
H83	H	1.417910	-0.844882	-0.199635
H84	H	1.531291	-0.941199	-0.279607
H85	H	1.532221	-0.966766	-0.459559
H86	H	1.419766	-0.896013	-0.559533
H87	H	1.110617	-0.516465	-1.042106
H88	H	1.383845	-1.017891	-0.410786
C89	C	0.909540	-0.502234	-0.635449
C90	C	0.892468	-0.581117	-0.631253
C91	C	0.937324	-0.635690	-0.700175
C92	C	0.999254	-0.611382	-0.773293
C93	C	1.016329	-0.532496	-0.777492
C94	C	0.971472	-0.477922	-0.708569
H95	H	0.846621	-0.599114	-0.577124
H96	H	0.924684	-0.694087	-0.697067
H97	H	1.032460	-0.651781	-0.824314
H98	H	1.062176	-0.514498	-0.831621
H99	H	0.984113	-0.419525	-0.711678
C100	C	1.153139	-0.940460	-0.615982
C101	C	1.082226	-0.985939	-0.575238
C102	C	1.012999	-1.025950	-0.636853
C103	C	1.014685	-1.020481	-0.739211
C104	C	1.085601	-0.975000	-0.779960
C105	C	1.154828	-0.934990	-0.718345
H106	H	1.080975	-0.989989	-0.499462
H107	H	0.960502	-1.059617	-0.606688
H108	H	0.963439	-1.050099	-0.784822
H109	H	1.086852	-0.970950	-0.855736
H110	H	1.207325	-0.901322	-0.748510
C111	C	1.393006	-1.161493	-0.402740
C112	C	1.355552	-1.207135	-0.332232
C113	C	1.420165	-1.247798	-0.274785
C114	C	1.522232	-1.242820	-0.287847
C115	C	1.559691	-1.197177	-0.358359
C116	C	1.495079	-1.156513	-0.415806
H117	H	1.279991	-1.210821	-0.322560
H118	H	1.392434	-1.281586	-0.222588
H119	H	1.570062	-1.272921	-0.245322
H120	H	1.635252	-1.193490	-0.368031
H121	H	1.522809	-1.122725	-0.468003
C122	C	0.566371	-0.533585	-0.675041
C123	C	0.611230	-0.588159	-0.743955
C124	C	0.553080	-0.637837	-0.806687
C125	C	0.450071	-0.632941	-0.800505
C126	C	0.405207	-0.578365	-0.731589
C127	C	0.463357	-0.528687	-0.668857
H128	H	0.687489	-0.591785	-0.748533
H129	H	0.586293	-0.678237	-0.857703
H130	H	0.407025	-0.669716	-0.846943
H131	H	0.328948	-0.574739	-0.727010
H132	H	0.430144	-0.488287	-0.617841
C133	C	1.098704	-0.828526	-0.664342
C134	C	1.027779	-0.873998	-0.623604
C135	C	0.958546	-0.913998	-0.685224
C136	C	0.960240	-0.908526	-0.787581
C137	C	1.031167	-0.863053	-0.828324
C138	C	1.100400	-0.823053	-0.766704
H139	H	1.026523	-0.878050	-0.547828
H140	H	0.906041	-0.947660	-0.655062
H141	H	0.908990	-0.938137	-0.833195
H142	H	1.032423	-0.859001	-0.904100
H143	H	1.152905	-0.789390	-0.796866
C144	C	1.144217	-0.492836	-1.197557
C145	C	1.176014	-0.552513	-1.267421
C146	C	1.106975	-0.601065	-1.317937
C147	C	1.006139	-0.589942	-1.298590
C148	C	0.974338	-0.530263	-1.228723
C149	C	1.043377	-0.481710	-1.178207
H150	H	1.250663	-0.560750	-1.281745
H151	H	1.130517	-0.645244	-1.369658
H152	H	0.955033	-0.625883	-1.335986
H153	H	0.899689	-0.522026	-1.214398
H154	H	1.019834	-0.437532	-1.126486
H155	H	0.603387	-0.348735	-0.441629
C156	C	1.407887	-0.307453	-1.004786
C157	C	1.376125	-0.247761	-0.934927
C158	C	1.445190	-0.199213	-0.884445
C159	C	1.546017	-0.210356	-0.903821
C160	C	1.577785	-0.270051	-0.973683
C161	C	1.508719	-0.318599	-1.024166
H162	H	1.301482	-0.239510	-0.920581
H163	H	1.421673	-0.155023	-0.832728
H164	H	1.597144	-0.174418	-0.866451
H165	H	1.652428	-0.278302	-0.988030
H166	H	1.532236	-0.362789	-1.075883
H167	H	1.329415	-0.905967	-0.459154
H168	H	1.163106	-1.016803	-0.607177
H169	H	1.379736	-0.327221	-1.188626
