data_functionalizedCrystal
_audit_creation_method	'MofGen! by Chris Wilmer'
_symmetry_space_group_name_H-M	'P1'
_symmetry_Int_Tables_number	1
_symmetry_cell_setting	triclinic
loop_
_symmetry_equiv_pos_as_xyz
  x,y,z
_cell_length_a	11.792254
_cell_length_b	11.792241
_cell_length_c	10.868271
_cell_angle_alpha	89.999844
_cell_angle_beta	89.998414
_cell_angle_gamma	84.196007
loop_
_atom_site_label
_atom_site_type_symbol
_atom_site_fract_x
_atom_site_fract_y
_atom_site_fract_z
O1	O	0.155561	1.506916	-0.102203
O2	O	0.171594	1.176576	-0.102232
O3	O	-0.001592	1.349755	-0.102208
O4	O	0.328747	1.333737	-0.102227
O5	O	-0.001586	1.349739	0.102436
O6	O	0.171600	1.176560	0.102413
O7	O	0.155567	1.506900	0.102441
Zn8	Zn	0.163584	1.341728	0.134919
Zn9	Zn	0.163577	1.341748	-0.134709
O10	O	0.328753	1.333721	0.102418
C11	C	-0.043880	1.348738	0.000114
C12	C	-0.169893	1.345718	0.000112
C13	C	0.170590	1.134277	0.000087
C14	C	0.167576	1.008263	0.000076
C15	C	-0.272229	1.343264	0.000108
C16	C	-0.400616	1.340196	0.000096
C17	C	0.162033	0.777551	0.000112
C18	C	0.165112	0.905936	0.000092
C19	C	0.371041	1.334738	0.000093
C20	C	0.497054	1.337758	0.000086
C21	C	0.156571	1.549199	0.000120
C22	C	0.159586	1.675213	0.000123
N23	N	0.163589	1.341722	0.318933
N24	N	0.163564	1.341763	-0.318724
C25	C	0.163589	1.341731	0.430270
C26	C	0.163579	1.341745	0.569948
