data_functionalizedCrystal
_audit_creation_method	'MofGen! by Chris Wilmer'
_symmetry_space_group_name_H-M	'P1'
_symmetry_Int_Tables_number	1
_symmetry_cell_setting	triclinic
loop_
_symmetry_equiv_pos_as_xyz
  x,y,z
_cell_length_a	12.594517
_cell_length_b	12.594509
_cell_length_c	15.298853
_cell_angle_alpha	80.297508
_cell_angle_beta	80.332618
_cell_angle_gamma	89.977786
loop_
_atom_site_label
_atom_site_type_symbol
_atom_site_fract_x
_atom_site_fract_y
_atom_site_fract_z
Zn1	Zn	1.700611	-0.528601	-0.359133
Zn2	Zn	1.731315	-0.319835	-0.510007
Zn3	Zn	1.522623	-0.350619	-0.359171
Zn4	Zn	1.553397	-0.497775	-0.509944
O5	O	1.626986	-0.424207	-0.434564
O6	O	1.853632	-0.500925	-0.379158
O7	O	1.703602	-0.174964	-0.490041
O8	O	1.520505	-0.400013	-0.232925
O9	O	1.876190	-0.347545	-0.490005
O10	O	1.651272	-0.530775	-0.232898
O11	O	1.550277	-0.197581	-0.379222
O12	O	1.377757	-0.370122	-0.379160
O13	O	1.572955	-0.650819	-0.489896
O14	O	1.400367	-0.478237	-0.489933
O15	O	1.681113	-0.673466	-0.379096
O16	O	1.733442	-0.317655	-0.636239
O17	O	1.602726	-0.448387	-0.636193
C18	C	1.350441	-0.424176	-0.434544
C19	C	1.232139	-0.424183	-0.434558
C20	C	1.079780	-0.365555	-0.374242
C21	C	1.146150	-0.467167	-0.352262
C22	C	1.167332	-0.322590	-0.456497
C23	C	1.087722	-0.525925	-0.412570
C24	C	1.108905	-0.381276	-0.516843
C25	C	1.175250	-0.482947	-0.494895
C26	C	1.627042	-0.701845	-0.434485
C27	C	1.627065	-0.820157	-0.434451
C28	C	1.568253	-0.877099	-0.494681
C29	C	1.669876	-0.943393	-0.516723
C30	C	1.525507	-0.964673	-0.412354
C31	C	1.728747	-0.884884	-0.456537
C32	C	1.584305	-0.906166	-0.352129
C33	C	1.685988	-0.972434	-0.374140
C34	C	1.904611	-0.424240	-0.434584
C35	C	2.022919	-0.424253	-0.434593
C36	C	1.674784	-0.376359	-0.668949
C37	C	1.695330	-0.355924	-0.769220
C38	C	1.626979	-0.147664	-0.434577
C39	C	1.627110	-0.029404	-0.434357
C40	C	1.773088	-0.278318	-0.816317
C41	C	1.792401	-0.259123	-0.910527
C42	C	1.733951	-0.317527	-0.957648
C43	C	1.656185	-0.395129	-0.910550
C44	C	1.636877	-0.414332	-0.816331
C45	C	1.597740	-0.453541	-0.957662
C46	C	1.519974	-0.531144	-0.910564
C47	C	1.500669	-0.550342	-0.816355
C48	C	1.559118	-0.491939	-0.769234
C49	C	1.617048	-0.434338	-1.051881
C50	C	1.480837	-0.570352	-1.051895
C51	C	1.461524	-0.589547	-0.957686
C52	C	1.579031	-0.472266	-0.199264
C53	C	1.558595	-0.492746	-0.098993
H54	H	1.202152	-0.236645	-0.475038
C55	C	1.753284	-1.028201	-0.305276
C56	C	1.765085	-1.151317	-0.291916
C57	C	1.832382	-1.207089	-0.223056
C58	C	1.887878	-1.139746	-0.167555
C59	C	1.876078	-1.016622	-0.180913
C60	C	1.808782	-0.960850	-0.249773
H61	H	1.724003	-1.201175	-0.333003
H62	H	1.841117	-1.298234	-0.213168
H63	H	1.937695	-1.181032	-0.116581
H64	H	1.917161	-0.966764	-0.139827
H65	H	1.800047	-0.869706	-0.259661
C66	C	1.375990	-0.674914	-0.905871
C67	C	1.279201	-0.641892	-0.841188
C68	C	1.193668	-0.727258	-0.789373
C69	C	1.204924	-0.845644	-0.802240
C70	C	1.301717	-0.878671	-0.866926
C71	C	1.387250	-0.793306	-0.918741
H72	H	1.270865	-0.554250	-0.831661
H73	H	1.122015	-0.702808	-0.741489
H74	H	1.141607	-0.908837	-0.763884
H75	H	1.310053	-0.966313	-0.876454
H76	H	1.458903	-0.817755	-0.966626
C77	C	1.416531	-0.634600	-1.103718
C78	C	1.437763	-0.613475	-1.207349
C79	C	1.373465	-0.677719	-1.259178
C80	C	1.287935	-0.763086	-1.207376
C81	C	1.266699	-0.784215	-1.103739
C82	C	1.330998	-0.719971	-1.051910
H83	H	1.501081	-0.550278	-1.245701
H84	H	1.389185	-0.662078	-1.335897
H85	H	1.240337	-0.810643	-1.245743
H86	H	1.203382	-0.847412	-1.065387
H87	H	1.315277	-0.735612	-0.975191
H88	H	1.706067	-0.960300	-0.586301
C89	C	1.169010	-0.516241	-0.258278
C90	C	1.229865	-0.448896	-0.206310
C91	C	1.252719	-0.497961	-0.112324
C92	C	1.214718	-0.614371	-0.070304
C93	C	1.153858	-0.681723	-0.122272
C94	C	1.131004	-0.632658	-0.216259
H95	H	1.258000	-0.362716	-0.237415
H96	H	1.297771	-0.448102	-0.073854
H97	H	1.231635	-0.650692	-0.000730
H98	H	1.125724	-0.767903	-0.091167
H99	H	1.085952	-0.682517	-0.254728
H100	H	1.548090	-0.889231	-0.282572
C101	C	1.409455	-1.011811	-0.387148
C102	C	1.324875	-0.971844	-0.446120
C103	C	1.208823	-1.018974	-0.420921
C104	C	1.177351	-1.106072	-0.336752
C105	C	1.261933	-1.146044	-0.277774
C106	C	1.377985	-1.098913	-0.302973
H107	H	1.348171	-0.907364	-0.508432
H108	H	1.146209	-0.989384	-0.464581
H109	H	1.091442	-1.140961	-0.318098
H110	H	1.238637	-1.210523	-0.215462
H111	H	1.440599	-1.128504	-0.259313
C112	C	1.877940	-0.173767	-0.962327
C113	C	1.866688	-0.055381	-0.949454
C114	C	1.952234	0.029980	-1.001253
C115	C	2.049033	-0.003045	-1.065925
C116	C	2.060289	-0.121436	-1.078800
C117	C	1.974743	-0.206796	-1.027001
H118	H	1.795028	-0.030930	-0.901578
H119	H	1.943901	0.117620	-0.991722
H120	H	2.112360	0.060144	-1.104270
H121	H	2.131949	-0.145887	-1.126676
H122	H	1.983076	-0.294437	-1.036532
H123	H	1.038257	-0.316028	-0.323182
H124	H	1.680367	-0.371155	-1.090219
C125	C	1.844856	-0.837908	-0.481848
C126	C	1.939535	-0.912312	-0.502397
C127	C	2.055640	-0.865333	-0.527711
C128	C	2.077067	-0.743950	-0.532478
C129	C	1.982385	-0.669538	-0.511929
C130	C	1.866280	-0.716517	-0.486614
H131	H	1.923676	-1.002174	-0.498869
H132	H	2.125730	-0.920418	-0.542923
H133	H	2.163015	-0.709173	-0.551217
H134	H	1.998244	-0.579676	-0.515457
H135	H	1.796190	-0.661432	-0.471403
H136	H	1.053017	-0.611911	-0.393948
C137	C	1.086009	-0.332174	-0.610804
C138	C	1.122233	-0.215088	-0.652086
C139	C	1.099336	-0.165973	-0.746048
C140	C	1.040215	-0.233943	-0.798728
C141	C	1.003987	-0.351035	-0.757446
C142	C	1.026884	-0.400151	-0.663485
H143	H	1.166001	-0.164767	-0.613089
H144	H	1.126154	-0.079293	-0.776607
H145	H	1.023265	-0.197585	-0.868284
H146	H	0.960219	-0.401357	-0.796444
H147	H	1.000066	-0.486830	-0.632926
H148	H	1.216571	-0.532626	-0.545916
C149	C	1.837377	-0.214087	-0.764482
C150	C	1.831433	-0.090423	-0.777503
C151	C	1.895728	-0.026189	-0.725665
C152	C	1.965969	-0.085619	-0.660806
C153	C	1.971916	-0.209289	-0.647782
C154	C	1.907620	-0.273523	-0.699620
H155	H	1.779434	-0.046423	-0.825518
H156	H	1.891325	0.065361	-0.735306
H157	H	2.013564	-0.038069	-0.622432
H158	H	2.023915	-0.253289	-0.599767
H159	H	1.912023	-0.365073	-0.689978
H160	H	1.749680	-0.301894	-1.034357
C161	C	1.501150	-0.821066	-0.563591
C162	C	1.533650	-0.828561	-0.663945
C163	C	1.466554	-0.772525	-0.732856
C164	C	1.366957	-0.708994	-0.701412
C165	C	1.334452	-0.701496	-0.601053
C166	C	1.401548	-0.757532	-0.532142
H167	H	1.607382	-0.875593	-0.687226
H168	H	1.490617	-0.778076	-0.807149
H169	H	1.317288	-0.667513	-0.752424
H170	H	1.260720	-0.654464	-0.577772
H171	H	1.377485	-0.751981	-0.457849
H172	H	1.543398	-0.507563	-0.692521
H173	H	1.437356	-0.613539	-0.778008
