data_functionalizedCrystal
_audit_creation_method	'MofGen! by Chris Wilmer'
_symmetry_space_group_name_H-M	'P1'
_symmetry_Int_Tables_number	1
_symmetry_cell_setting	triclinic
loop_
_symmetry_equiv_pos_as_xyz
  x,y,z
_cell_length_a	16.109318
_cell_length_b	14.044190
_cell_length_c	14.586319
_cell_angle_alpha	89.991348
_cell_angle_beta	90.000075
_cell_angle_gamma	88.330170
loop_
_atom_site_label
_atom_site_type_symbol
_atom_site_fract_x
_atom_site_fract_y
_atom_site_fract_z
O1	O	1.112195	0.121914	-0.076174
O2	O	1.445528	0.455247	0.257159
O3	O	1.778862	0.788580	0.590493
O4	O	0.871262	0.137059	-0.076194
O5	O	1.204595	0.470392	0.257140
O6	O	1.537929	0.803725	0.590473
O7	O	0.988109	-0.008498	-0.076166
O8	O	1.321442	0.324836	0.257167
O9	O	1.654776	0.658169	0.590501
O10	O	0.995348	0.267470	-0.076202
O11	O	1.328681	0.600803	0.257132
O12	O	1.662015	0.934137	0.590465
O13	O	0.988100	-0.008500	0.076315
O14	O	1.321433	0.324833	0.409648
O15	O	1.654767	0.658167	0.742981
O16	O	0.871253	0.137057	0.076287
O17	O	1.204586	0.470390	0.409620
O18	O	1.537920	0.803723	0.742954
O19	O	1.112186	0.121911	0.076307
O20	O	1.445519	0.455245	0.409640
O21	O	1.778853	0.788578	0.742974
Cu22	Cu	0.991719	0.129484	0.090220
Cu23	Cu	1.325052	0.462817	0.423553
Cu24	Cu	1.658385	0.796150	0.756886
Cu25	Cu	0.991729	0.129486	-0.090107
Cu26	Cu	1.325063	0.462820	0.243227
Cu27	Cu	1.658396	0.796153	0.576560
O28	O	0.995339	0.267468	0.076279
O29	O	1.328672	0.600801	0.409613
O30	O	1.662006	0.934135	0.742946
C31	C	0.840237	0.136441	0.000044
C32	C	1.173570	0.469775	0.333378
C33	C	1.506904	0.803108	0.666711
C34	C	0.747805	0.134593	0.000038
C35	C	1.081138	0.467927	0.333371
C36	C	1.414472	0.801260	0.666704
C37	C	0.984938	-0.043813	0.000077
C38	C	1.318271	0.289521	0.333410
C39	C	1.651604	0.622854	0.666743
C40	C	0.975492	-0.149036	0.000084
C41	C	1.308825	0.184297	0.333417
C42	C	1.642158	0.517630	0.666751
C43	C	0.448292	0.128626	-0.083063
C44	C	0.781625	0.461960	0.250271
C45	C	1.114959	0.795293	0.583604
C46	C	0.535142	0.130356	-0.083069
C47	C	0.868475	0.463690	0.250265
C48	C	1.201809	0.797023	0.583598
C49	C	0.535150	0.130341	0.083174
C50	C	0.868483	0.463674	0.416508
C51	C	1.201817	0.797008	0.749841
C52	C	0.448302	0.128604	0.083179
C53	C	0.781635	0.461937	0.416512
C54	C	1.114968	0.795271	0.749846
C55	C	0.404875	0.127752	0.000058
C56	C	0.738208	0.461085	0.333391
C57	C	1.071541	0.794418	0.666725
C58	C	0.578573	0.131218	0.000047
C59	C	0.911906	0.464552	0.333380
C60	C	1.245240	0.797885	0.666714
C61	C	0.672740	0.133094	0.000041
C62	C	1.006073	0.466427	0.333375
C63	C	1.339406	0.799761	0.666708
C64	C	0.310702	0.125874	0.000063
C65	C	0.644036	0.459207	0.333397
C66	C	0.977369	0.792541	0.666730
C67	C	1.025216	-0.399335	0.000052
C68	C	1.358549	-0.066001	0.333385
C69	C	1.691883	0.267332	0.666719
C70	C	0.958235	-0.341690	0.000053
C71	C	1.291569	-0.008356	0.333386
C72	C	1.624902	0.324977	0.666720
C73	C	0.967839	-0.234488	0.000070
C74	C	1.301172	0.098846	0.333404
C75	C	1.634506	0.432179	0.666737
C76	C	1.015614	-0.506547	0.000035
C77	C	1.348947	-0.173213	0.333368
C78	C	1.682280	0.160120	0.666702
C79	C	1.143211	0.122529	0.000067
C80	C	1.476544	0.455862	0.333400
C81	C	1.809878	0.789196	0.666733
C82	C	1.235643	0.124377	0.000068
C83	C	1.568976	0.457710	0.333401
C84	C	1.902310	0.791043	0.666734
C85	C	0.998510	0.302783	0.000034
C86	C	1.331844	0.636116	0.333368
C87	C	1.665177	0.969449	0.666701
C88	C	1.007956	0.408006	0.000021
C89	C	1.341290	0.741340	0.333354
C90	C	1.674623	1.074673	0.666688
N91	N	0.991717	0.129481	0.217051
N92	N	1.325050	0.462815	0.550385
N93	N	1.658384	0.796148	0.883718
N94	N	0.991737	0.129481	-0.216938
N95	N	1.325070	0.462815	0.116395
N96	N	1.658403	0.796148	0.449728
C97	C	1.043477	0.065051	0.452070
C98	C	1.376811	0.398384	0.785403
C99	C	1.710144	0.731717	1.118737
C100	C	1.043479	0.065048	0.548051
C101	C	1.376813	0.398382	0.881385
C102	C	1.710146	0.731715	1.214718
C103	C	0.939971	0.193915	0.548036
C104	C	1.273304	0.527248	0.881370
C105	C	1.606637	0.860582	1.214703
C106	C	0.939965	0.193912	0.452057
C107	C	1.273298	0.527245	0.785390
C108	C	1.606632	0.860579	1.118723
C109	C	0.991723	0.129481	0.404076
C110	C	1.325056	0.462814	0.737409
C111	C	1.658390	0.796148	1.070743
C112	C	0.991731	0.129482	0.596037
C113	C	1.325064	0.462815	0.929370
C114	C	1.658398	0.796148	1.262704
C115	C	0.991733	0.129480	0.700104
C116	C	1.325066	0.462813	1.033437
C117	C	1.658400	0.796146	1.366771
C118	C	0.991720	0.129481	0.300002
C119	C	1.325053	0.462815	0.633336
C120	C	1.658387	0.796148	0.966669
H121	H	0.570488	0.131067	-0.150754
H122	H	0.903822	0.464400	0.182579
H123	H	1.237155	0.797734	0.515913
H124	H	1.089767	-0.368176	0.000067
H125	H	1.423101	-0.034843	0.333400
H126	H	1.756434	0.298490	0.666734
H127	H	0.893679	-0.372850	0.000042
H128	H	1.227012	-0.039516	0.333376
H129	H	1.560346	0.293817	0.666709
H130	H	0.412936	0.127931	-0.150746
H131	H	0.746270	0.461264	0.182588
H132	H	1.079603	0.794598	0.515921
H133	H	1.085620	0.012586	0.413007
H134	H	1.418954	0.345919	0.746340
H135	H	1.752287	0.679252	1.079673
H136	H	0.570519	0.131037	0.150849
H137	H	0.903852	0.464370	0.484182
H138	H	1.237185	0.797704	0.817515
O139	O	1.099311	-0.004432	0.599820
O140	O	1.432644	0.328901	0.933153
O141	O	1.765978	0.662235	1.266487
H142	H	1.135305	-0.049224	0.550328
H143	H	1.468638	0.284109	0.883661
H144	H	1.801972	0.617442	1.216995
O145	O	0.884157	0.263418	0.599785
O146	O	1.217491	0.596752	0.933119
O147	O	1.550824	0.930085	1.266452
H148	H	0.892863	0.252606	0.674589
H149	H	1.226196	0.585939	1.007923
H150	H	1.559530	0.919272	1.341256
H151	H	0.897816	0.246379	0.412978
H152	H	1.231150	0.579713	0.746311
H153	H	1.564483	0.913046	1.079644
H154	H	0.412951	0.127891	0.150870
H155	H	0.746284	0.461224	0.484203
H156	H	1.079617	0.794558	0.817537
