data_functionalizedCrystal
_audit_creation_method	'MofGen! by Chris Wilmer'
_symmetry_space_group_name_H-M	'P1'
_symmetry_Int_Tables_number	1
_symmetry_cell_setting	triclinic
loop_
_symmetry_equiv_pos_as_xyz
  x,y,z
_cell_length_a	16.109301
_cell_length_b	8.559649
_cell_length_c	7.681481
_cell_angle_alpha	85.069100
_cell_angle_beta	95.724535
_cell_angle_gamma	76.620073
loop_
_atom_site_label
_atom_site_type_symbol
_atom_site_fract_x
_atom_site_fract_y
_atom_site_fract_z
O1	O	1.081226	0.220511	-0.146311
O2	O	0.837534	0.246074	-0.146338
O3	O	0.980850	0.000679	-0.146321
O4	O	0.937911	0.465906	-0.146329
O5	O	0.998494	-0.029593	0.146539
O6	O	0.855178	0.215802	0.146522
O7	O	1.098870	0.190239	0.146549
Zn8	Zn	0.979826	0.198214	0.193033
Zn9	Zn	0.956579	0.238099	-0.192823
O10	O	0.955555	0.435634	0.146531
C11	C	0.815447	0.229903	0.000088
C12	C	0.723349	0.226800	0.000078
C13	C	0.992926	-0.073988	0.000106
C14	C	1.002611	-0.251372	0.000098
C15	C	0.492261	0.365192	0.000095
C16	C	0.405728	0.362262	0.000107
C17	C	0.444151	0.071111	0.000105
C18	C	0.530683	0.074042	0.000106
C19	C	0.554734	0.221088	0.000092
C20	C	0.381669	0.215227	0.000102
C21	C	0.287846	0.212049	0.000115
C22	C	0.648563	0.224267	0.000083
C23	C	1.120957	0.206410	0.000118
C24	C	1.213055	0.209515	0.000117
C25	C	0.943479	0.510302	0.000100
C26	C	0.933793	0.687687	0.000097
N27	N	0.995697	0.170993	0.456369
N28	N	0.940715	0.265308	-0.456159
H29	H	0.354864	0.479606	0.000113
O30	O	1.062762	0.056303	0.546002
C31	C	1.216665	-0.043506	0.602622
C32	C	1.140798	0.086500	0.501039
H33	H	1.279775	-0.019157	0.566280
H34	H	1.214679	-0.039962	0.750198
H35	H	1.211699	-0.167728	0.566500
H36	H	1.145715	0.210784	0.537014
H37	H	1.142809	0.082813	0.353488
O38	O	0.591427	-0.065938	0.000409
C39	C	0.720601	-0.247227	0.152075
C40	C	0.651856	-0.088693	0.151965
H41	H	0.769485	-0.265658	0.274576
H42	H	0.688601	-0.352901	0.152182
H43	H	0.754643	-0.240427	0.029459
H44	H	0.617790	-0.095334	0.274560
H45	H	0.683905	0.016916	0.151766
H46	H	0.511840	0.484925	0.000098
H47	H	0.867464	-0.228781	0.000095
H48	H	1.068946	-0.334915	0.000119
H49	H	0.424558	-0.048610	0.000126
H50	H	0.884589	0.361576	0.468637
