data_functionalizedCrystal
_audit_creation_method	'MofGen! by Chris Wilmer'
_symmetry_space_group_name_H-M	'P1'
_symmetry_Int_Tables_number	1
_symmetry_cell_setting	triclinic
loop_
_symmetry_equiv_pos_as_xyz
  x,y,z
_cell_length_a	10.489741
_cell_length_b	17.038272
_cell_length_c	9.565339
_cell_angle_alpha	89.999972
_cell_angle_beta	89.999100
_cell_angle_gamma	87.825365
loop_
_atom_site_label
_atom_site_type_symbol
_atom_site_fract_x
_atom_site_fract_y
_atom_site_fract_z
O1	O	1.704376	0.110370	-0.116175
O2	O	1.334150	0.120730	-0.116197
O3	O	1.517063	0.001722	-0.116175
O4	O	1.521463	0.229378	-0.116197
O5	O	1.517048	0.001729	0.116345
O6	O	1.334135	0.120738	0.116323
O7	O	1.704362	0.110377	0.116345
Zn8	Zn	1.519246	0.115558	0.153252
Zn9	Zn	1.519265	0.115549	-0.153103
O10	O	1.521449	0.229385	0.116324
C11	C	1.286537	0.119951	0.000061
C12	C	1.144689	0.117610	0.000053
C13	C	1.069466	0.041889	0.000073
C14	C	0.980692	0.077655	-0.114572
C15	C	0.980714	0.077680	0.114675
C16	C	1.057783	0.153408	-0.114687
C17	C	1.057813	0.153423	0.114662
C18	C	0.969072	0.189244	-0.000011
C19	C	1.513053	-0.027426	0.000085
C20	C	1.501111	-0.114288	0.000084
C21	C	1.610749	-0.163767	0.000092
C22	C	1.599521	-0.245383	0.000078
C23	C	1.478654	-0.277518	0.000066
C24	C	1.369007	-0.228032	0.000054
C25	C	1.380237	-0.146418	0.000058
C26	C	1.438983	-0.523505	0.000044
C27	C	1.427762	-0.605126	0.000045
C28	C	1.658277	-0.622471	0.000066
C29	C	1.669495	-0.540855	0.000078
C30	C	1.559849	-0.491376	0.000059
C31	C	1.467174	-0.360942	0.000056
C32	C	1.571330	-0.407954	0.000059
C33	C	1.751974	0.111156	0.000085
C34	C	1.893822	0.113497	0.000084
C35	C	1.525458	0.258533	0.000061
C36	C	1.537400	0.345395	0.000053
N37	N	1.519242	0.115565	0.362331
N38	N	1.519279	0.115536	-0.362183
C39	C	1.434621	0.170584	0.453524
C40	C	1.551599	0.186413	0.546708
C41	C	1.402315	0.099741	0.546703
C42	C	1.636281	0.131430	0.453464
C43	C	1.486918	0.044727	0.453450
C44	C	1.603976	0.060527	0.546592
H45	H	1.091847	0.185439	0.211587
O46	O	1.688834	-0.376871	0.000006
C47	C	1.916291	-0.402678	0.000118
C48	C	1.783297	-0.437992	0.000141
H49	H	1.992700	-0.452077	0.000257
H50	H	1.927399	-0.364931	-0.097213
H51	H	1.927225	-0.364874	0.097405
H52	H	1.772272	-0.475833	-0.097080
H53	H	1.772249	-0.475695	0.097537
H54	H	1.688801	-0.285666	0.000087
O55	O	1.121713	-0.032393	-0.000304
C56	C	1.141736	-0.156213	-0.121562
C57	C	1.082500	-0.072110	-0.121314
H58	H	1.110034	-0.188354	-0.219373
H59	H	1.250192	-0.153773	-0.120661
H60	H	1.108763	-0.188795	-0.024765
H61	H	1.115374	-0.039480	-0.218094
H62	H	0.974052	-0.074607	-0.122142
O63	O	1.098273	0.191669	-0.230309
C64	C	1.211932	0.301010	-0.320594
C65	C	1.166179	0.257750	-0.189538
H66	H	1.266820	0.354455	-0.287677
H67	H	1.276848	0.259769	-0.384917
H68	H	1.125906	0.320861	-0.386223
H69	H	1.252128	0.237896	-0.123801
H70	H	1.101222	0.299019	-0.125319
H71	H	1.767918	-0.514697	0.000088
O72	O	0.917199	0.263617	0.000100
C73	C	0.899241	0.387960	0.119888
C74	C	0.958100	0.303764	0.119929
H75	H	0.932265	0.420438	0.216774
H76	H	0.931020	0.420140	0.022148
H77	H	0.790776	0.385613	0.120753
H78	H	1.066570	0.306039	0.119113
H79	H	0.926221	0.271616	0.217661
O80	O	0.940226	0.039565	0.230454
C81	C	0.935452	0.035490	0.482207
C82	C	0.981352	0.078750	0.351216
H83	H	0.968706	0.067144	0.579876
H84	H	0.826836	0.034593	0.481745
H85	H	0.976911	-0.027335	0.481966
H86	H	0.939985	0.141594	0.351372
H87	H	1.089971	0.079583	0.351728
O88	O	1.689377	0.004907	0.594878
C89	C	1.752961	-0.132455	0.600225
C90	C	1.656168	-0.069549	0.545417
H91	H	1.726132	-0.192669	0.560283
H92	H	1.852580	-0.118896	0.561665
H93	H	1.751781	-0.132372	0.719400
H94	H	1.657234	-0.069598	0.426246
H95	H	1.556595	-0.083131	0.584084
H96	H	1.368763	-0.387115	0.000050
O97	O	1.728064	-0.132426	0.000164
C98	C	1.847531	-0.014387	0.000087
C99	C	1.714591	-0.049773	0.000045
H100	H	1.836683	0.052442	-0.000039
H101	H	1.902180	-0.034657	0.097420
H102	H	1.902155	-0.034759	-0.097199
H103	H	1.659862	-0.029418	0.097265
H104	H	1.660039	-0.029507	-0.097353
O105	O	1.764872	-0.670455	-0.000116
C106	C	1.958421	-0.710283	-0.120622
C107	C	1.837764	-0.655884	-0.120565
H108	H	2.017373	-0.698533	-0.218009
H109	H	2.017552	-0.698507	-0.023377
H110	H	1.929608	-0.774128	-0.120561
H111	H	1.866462	-0.592019	-0.120675
H112	H	1.778662	-0.667727	-0.217801
H113	H	1.303417	0.086370	0.587662
H114	H	1.329333	-0.631286	0.000058
H115	H	1.459519	-0.015148	0.412454
O116	O	1.251693	-0.259374	0.000104
C117	C	1.132231	-0.377415	0.000015
C118	C	1.265169	-0.342027	-0.000015
H119	H	1.143081	-0.444244	-0.000111
H120	H	1.077571	-0.357146	0.097343
H121	H	1.077617	-0.357044	-0.097276
H122	H	1.319889	-0.362381	0.097210
H123	H	1.319732	-0.362292	-0.097408
H124	H	1.349700	-0.483229	0.000029
O125	O	1.349181	0.226093	0.404925
C126	C	1.129603	0.272965	0.399140
C127	C	1.226222	0.210060	0.454305
H128	H	1.030165	0.260016	0.439017
H129	H	1.157314	0.333331	0.437498
H130	H	1.129797	0.272089	0.279968
H131	H	1.226077	0.210865	0.573473
H132	H	1.198476	0.149723	0.415840
H133	H	1.290957	-0.106132	0.000051
O134	O	1.584066	0.257861	0.595759
C135	C	1.520973	0.370909	0.734266
C136	C	1.484071	0.289996	0.678848
H137	H	1.440137	0.396921	0.801430
H138	H	1.611419	0.364029	0.799907
H139	H	1.538655	0.411704	0.642391
H140	H	1.466322	0.249157	0.770637
H141	H	1.393660	0.296936	0.613165
H142	H	0.946687	0.045613	-0.211492
H143	H	1.735209	0.144873	0.412680
