data_functionalizedCrystal
_audit_creation_method	'MofGen! by Chris Wilmer'
_symmetry_space_group_name_H-M	'P1'
_symmetry_Int_Tables_number	1
_symmetry_cell_setting	triclinic
loop_
_symmetry_equiv_pos_as_xyz
  x,y,z
_cell_length_a	14.519709
_cell_length_b	14.185569
_cell_length_c	15.538191
_cell_angle_alpha	97.872928
_cell_angle_beta	114.523881
_cell_angle_gamma	103.184626
loop_
_atom_site_label
_atom_site_type_symbol
_atom_site_fract_x
_atom_site_fract_y
_atom_site_fract_z
O1	O	1.154348	-0.083283	-0.144690
O2	O	0.880973	-0.083313	-0.159231
O3	O	1.070874	-0.083297	-0.014921
O4	O	0.964447	-0.083299	-0.289001
O5	O	1.126970	0.083542	0.027706
O6	O	0.937069	0.083526	-0.116605
O7	O	1.210445	0.083556	-0.102064
Cu8	Cu	1.078879	0.098775	-0.105442
Cu9	Cu	1.012538	-0.098532	-0.155853
O10	O	1.020544	0.083540	-0.246375
C11	C	0.874888	0.000102	-0.137242
C12	C	0.773185	0.000091	-0.135215
C13	C	1.110056	0.000120	0.041469
C14	C	1.143221	0.000114	0.145985
N15	N	1.125547	0.237550	-0.069986
C16	C	0.400818	0.000136	-0.127731
C17	C	0.504424	0.000123	-0.129810
C18	C	0.586998	0.000113	-0.131473
C19	C	0.690611	0.000102	-0.133552
C20	C	1.216529	0.000138	-0.124054
C21	C	1.318229	0.000143	-0.126082
N22	N	0.965880	-0.237307	-0.191302
C23	C	0.828785	0.605174	-0.295432
C24	C	0.864139	0.710199	-0.268580
C25	C	1.032306	0.710174	-0.140841
C26	C	0.996963	0.605148	-0.167678
C27	C	0.895202	0.552656	-0.244975
C28	C	1.063381	0.552629	-0.117222
C29	C	1.028044	0.447612	-0.144061
C30	C	0.926288	0.395113	-0.221357
C31	C	0.859865	0.447638	-0.271814
C32	C	1.165145	0.605123	-0.039930
C33	C	1.231563	0.552604	0.010527
C34	C	1.196222	0.447585	-0.016308
C35	C	1.094467	0.395086	-0.093603
C36	C	1.262646	0.395059	0.034150
C37	C	1.227308	0.290041	0.007311
C38	C	1.059129	0.290068	-0.120443
C39	C	0.981361	0.000120	-0.302764
C40	C	0.948193	0.000120	-0.407282
C41	C	0.813708	0.000099	0.434327
C42	C	0.844899	0.000105	0.532542
C43	C	1.020336	0.000124	0.554694
C44	C	0.989158	0.000113	0.456478
C45	C	0.885843	0.000102	0.396302
C46	C	1.061293	0.000116	0.418453
C47	C	1.030119	0.000111	0.320246
C48	C	0.926810	0.000103	0.260065
C49	C	0.854669	0.000097	0.298096
C50	C	1.164610	0.000134	0.478632
C51	C	1.236745	0.000137	0.440607
C52	C	1.205569	0.000125	0.342397
C53	C	1.102260	0.000117	0.282216
C54	C	1.277710	0.000130	0.304367
C55	C	1.246536	0.000125	0.206161
C56	C	1.071086	0.000111	0.184010
H57	H	0.976261	0.247328	-0.183379
H58	H	1.104456	0.000137	0.603703
H59	H	0.897519	0.309601	-0.243211
H60	H	1.361832	0.000149	0.353379
H61	H	1.281393	0.247280	0.048397
H62	H	0.776997	0.404898	-0.334750
H63	H	0.810045	0.752954	-0.309676
H64	H	1.320866	0.000150	0.489616
H65	H	0.786155	0.000117	0.563500
H66	H	1.193915	0.690635	-0.018084
H67	H	0.745916	0.562434	-0.358368
H68	H	1.115162	0.752925	-0.077907
H69	H	1.189985	0.000130	0.558595
H70	H	1.314419	0.595355	0.073460
H71	H	1.345504	0.437811	0.097080
H72	H	0.986955	0.000095	0.135009
H73	H	0.901432	0.000104	0.180101
H74	H	1.305277	0.000129	0.175201
H75	H	0.770538	0.000080	0.249094
H76	H	0.729576	0.000083	0.385326
