data_functionalizedCrystal
_audit_creation_method	'MofGen! by Chris Wilmer'
_symmetry_space_group_name_H-M	'P1'
_symmetry_Int_Tables_number	1
_symmetry_cell_setting	triclinic
loop_
_symmetry_equiv_pos_as_xyz
  x,y,z
_cell_length_a	12.759394
_cell_length_b	12.759401
_cell_length_c	12.759393
_cell_angle_alpha	90.017380
_cell_angle_beta	89.969376
_cell_angle_gamma	89.985270
loop_
_atom_site_label
_atom_site_type_symbol
_atom_site_fract_x
_atom_site_fract_y
_atom_site_fract_z
Zn1	Zn	-0.418198	-1.606245	-0.593990
Zn2	Zn	-0.593917	-1.606143	-0.418313
Zn3	Zn	-0.418254	-1.430550	-0.418329
Zn4	Zn	-0.593836	-1.430536	-0.593955
O5	O	-0.506051	-1.518368	-0.506147
O6	O	-0.441518	-1.753252	-0.570694
O7	O	-0.570673	-1.582814	-0.271294
O8	O	-0.271225	-1.453905	-0.441652
O9	O	-0.570619	-1.753177	-0.441625
O10	O	-0.271184	-1.582987	-0.570709
O11	O	-0.441613	-1.453806	-0.271306
O12	O	-0.441534	-1.283527	-0.441618
O13	O	-0.570480	-1.453881	-0.740981
O14	O	-0.570534	-1.283517	-0.570650
O15	O	-0.441439	-1.582973	-0.741006
O16	O	-0.740928	-1.582800	-0.441591
O17	O	-0.740868	-1.453782	-0.570634
C18	C	-0.506032	-1.245401	-0.506132
C19	C	-0.506049	-1.128624	-0.506151
C20	C	-0.779019	-1.518307	-0.506130
C21	C	-0.895795	-1.518376	-0.506158
C22	C	-0.505944	-1.518437	-0.780180
C23	C	-0.505899	-1.518466	-0.896957
C24	C	-1.115447	-1.384185	-0.371715
C25	C	-1.060690	-1.317002	-0.304455
C26	C	-0.950968	-1.316942	-0.304426
C27	C	-0.896002	-1.384071	-0.371667
C28	C	-0.950759	-1.451253	-0.438927
C29	C	-1.060483	-1.451308	-0.438947
C30	C	-0.950553	-1.585559	-0.573419
C31	C	-1.060275	-1.585626	-0.573444
C32	C	-0.895586	-1.652687	-0.640659
C33	C	-0.950344	-1.719877	-0.707916
C34	C	-1.060072	-1.719935	-0.707941
C35	C	-1.115032	-1.652809	-0.640704
C36	C	-0.232018	-1.518459	-0.506186
C37	C	-0.115241	-1.518498	-0.506203
C38	C	-0.506071	-1.792402	-0.506162
C39	C	-0.506080	-1.909178	-0.506168
C40	C	-0.573327	-1.073784	-0.573227
C41	C	-0.573340	-0.964060	-0.573238
C42	C	-0.438795	-0.964026	-0.439090
C43	C	-0.438777	-1.073748	-0.439084
C44	C	-0.651008	-1.073803	-0.650673
C45	C	-0.651022	-0.964079	-0.650685
C46	C	-0.438685	-1.451320	-0.951831
C47	C	-0.438654	-1.451352	-1.061555
C48	C	-0.573053	-1.585684	-1.061521
C49	C	-0.573089	-1.585646	-0.951799
C50	C	-0.361087	-1.373768	-0.951851
C51	C	-0.361056	-1.373799	-1.061576
C52	C	-0.506082	-1.518361	-0.233179
C53	C	-0.505832	-1.518535	-0.116403
H54	H	-1.105456	-1.262346	-0.249711
H55	H	-0.627755	-1.640381	-1.106187
O56	O	-0.399619	-1.271409	-1.106656
H57	H	-0.481051	-1.256772	-1.079727
O58	O	-0.366265	-0.904840	-0.366728
H59	H	-0.377589	-0.819329	-0.377988
O60	O	-0.612549	-0.919036	-0.753141
H61	H	-0.614136	-0.832161	-0.748921
H62	H	-0.383986	-1.118395	-0.384472
H63	H	-0.806661	-1.384007	-0.371647
H64	H	-0.629309	-1.103610	-0.732080
O65	O	-0.389955	-1.265966	-0.912395
H66	H	-0.324849	-1.234455	-0.864103
O67	O	-0.753334	-1.118876	-0.611892
H68	H	-0.807600	-1.054038	-0.591341
O69	O	-0.758767	-0.924601	-0.621616
H70	H	-0.816782	-0.953653	-0.679531
H71	H	-0.906385	-1.262233	-0.249661
O72	O	-0.645575	-1.658073	-0.892608
H73	H	-0.692276	-1.704803	-0.949180
O74	O	-0.777244	-1.652637	-0.640627
H75	H	-0.748399	-1.594654	-0.582552
O76	O	-0.258730	-1.412405	-0.906780
H77	H	-0.193990	-1.360915	-0.933689
O78	O	-1.233790	-1.384255	-0.371746
H79	H	-1.262812	-1.326290	-0.313696
O80	O	-0.891064	-1.792278	-0.780430
H81	H	-0.805569	-1.780950	-0.769109
H82	H	-0.279674	-1.395617	-1.091371
H83	H	-1.104649	-1.774634	-0.762722
H84	H	-1.204373	-1.652853	-0.640715
