data_functionalizedCrystal
_audit_creation_method	'MofGen! by Chris Wilmer'
_symmetry_space_group_name_H-M	'P1'
_symmetry_Int_Tables_number	1
_symmetry_cell_setting	triclinic
loop_
_symmetry_equiv_pos_as_xyz
  x,y,z
_cell_length_a	11.792241
_cell_length_b	10.868271
_cell_length_c	10.723024
_cell_angle_alpha	90.003962
_cell_angle_beta	95.669357
_cell_angle_gamma	90.000539
loop_
_atom_site_label
_atom_site_type_symbol
_atom_site_fract_x
_atom_site_fract_y
_atom_site_fract_z
O1	O	-1.507283	0.102181	0.171039
O2	O	-1.007283	0.602181	0.671039
O3	O	-1.176980	0.102213	0.188667
O4	O	-0.676980	0.602213	0.688667
O5	O	-1.349750	0.102192	-0.001743
O6	O	-0.849750	0.602192	0.498257
O7	O	-1.334513	0.102202	0.361449
O8	O	-0.834513	0.602202	0.861449
O9	O	-1.349736	-0.102453	-0.001751
O10	O	-0.849736	0.397547	0.498249
O11	O	-1.176966	-0.102431	0.188659
O12	O	-0.676966	0.397569	0.688659
O13	O	-1.507268	-0.102464	0.171032
O14	O	-1.007268	0.397536	0.671032
Zn15	Zn	-1.342115	-0.134939	0.179844
Zn16	Zn	-0.842115	0.365061	0.679844
Zn17	Zn	-1.342134	0.134689	0.179854
Zn18	Zn	-0.842134	0.634689	0.679854
O19	O	-1.334498	-0.102442	0.361442
O20	O	-0.834498	0.397558	0.861442
C21	C	-1.134680	-0.000105	0.187556
C22	C	-0.634680	0.499895	0.687556
C23	C	-1.008659	-0.000093	0.184242
C24	C	-0.508659	0.499907	0.684242
N25	N	-1.342110	-0.318953	0.179837
N26	N	-0.842110	0.181047	0.679837
C27	C	-0.777933	-0.000125	0.178147
C28	C	-0.277933	0.499875	0.678147
C29	C	-0.906326	-0.000107	0.181533
C30	C	-0.406326	0.499893	0.681533
C31	C	-1.342128	-0.569959	0.179852
C32	C	-0.842128	-0.069959	0.679852
C33	C	-1.342114	-0.430282	0.179847
C34	C	-0.842114	0.069718	0.679847
C35	C	-0.549569	-0.000140	0.172143
C36	C	-0.049569	0.499860	0.672143
C37	C	-0.675590	-0.000135	0.175457
C38	C	-0.175590	0.499865	0.675457
C39	C	-1.348634	-0.000129	-0.048244
C40	C	-0.848634	0.499871	0.451756
C41	C	-1.345317	-0.000124	-0.186789
C42	C	-0.845317	0.499876	0.313211
N43	N	-1.342147	0.318703	0.179852
N44	N	-0.842147	0.818703	0.679852
C45	C	-1.441990	-0.000132	-0.262028
C46	C	-0.941990	0.499868	0.237972
C47	C	-1.438563	-0.000127	-0.405222
C48	C	-0.938563	0.499873	0.094778
C49	C	-1.335614	-0.000119	0.407942
C50	C	-0.835614	0.499881	0.907942
C51	C	-1.338932	-0.000115	0.546488
C52	C	-0.838932	0.499885	1.046488
H53	H	-1.521323	-0.000139	-0.469874
H54	H	-1.021323	0.499861	0.030126
H55	H	-1.260014	-0.000108	-0.228386
H56	H	-0.760014	0.499892	0.271614
H57	H	-1.256168	-0.000117	-0.388868
H58	H	-0.756168	0.499883	0.111132
H59	H	-1.527292	-0.000148	-0.220431
H60	H	-1.027292	0.499852	0.279569
