data_functionalizedCrystal
_audit_creation_method	'MofGen! by Chris Wilmer'
_symmetry_space_group_name_H-M	'P1'
_symmetry_Int_Tables_number	1
_symmetry_cell_setting	triclinic
loop_
_symmetry_equiv_pos_as_xyz
  x,y,z
_cell_length_a	19.188933
_cell_length_b	10.654541
_cell_length_c	9.730217
_cell_angle_alpha	90.003041
_cell_angle_beta	90.000010
_cell_angle_gamma	96.185251
loop_
_atom_site_label
_atom_site_type_symbol
_atom_site_fract_x
_atom_site_fract_y
_atom_site_fract_z
O1	O	0.927166	-0.156790	-0.114244
O2	O	0.723992	-0.177892	-0.114256
O3	O	0.830251	0.015497	-0.114241
O4	O	0.820907	-0.350179	-0.114259
O5	O	0.830248	0.015499	0.114339
O6	O	0.723989	-0.177891	0.114324
O7	O	0.927162	-0.156788	0.114337
Zn8	Zn	0.825575	-0.167339	0.150622
Zn9	Zn	0.825580	-0.167341	-0.150542
O10	O	0.820903	-0.350178	0.114321
C11	C	0.829564	0.062282	0.000048
C12	C	0.827512	0.201682	0.000045
C13	C	0.697975	-0.177208	0.000032
C14	C	0.620457	-0.175155	0.000027
N15	N	0.825577	-0.167337	0.356159
C16	C	0.067108	-0.160506	-0.124556
C17	C	0.139945	-0.162427	-0.124561
C18	C	0.176366	-0.163393	0.000037
C19	C	0.139947	-0.162405	0.124650
C20	C	0.067113	-0.160471	0.124652
N21	N	0.285872	-0.237887	0.092778
N22	N	0.355062	-0.239727	0.092768
C23	C	0.395813	-0.169216	0.000039
N24	N	0.364760	-0.096812	-0.092700
N25	N	0.295564	-0.094978	-0.092694
C26	C	0.255343	-0.165489	0.000049
C27	C	0.511202	-0.172278	-0.124572
C28	C	0.584041	-0.174192	-0.124572
C29	C	0.584041	-0.174182	0.124643
C30	C	0.511204	-0.172256	0.124640
C31	C	0.474789	-0.171310	0.000028
C32	C	0.953179	-0.157473	0.000045
C33	C	1.030697	-0.159525	0.000041
C34	C	0.821591	-0.396962	0.000029
C35	C	0.823643	-0.536362	0.000023
C36	C	0.954573	0.232340	0.000071
C37	C	1.017137	0.313157	0.000086
C38	C	1.015205	0.444134	0.000082
C39	C	0.950702	0.494295	0.000058
C40	C	0.888138	0.413478	0.000042
C41	C	0.890077	0.282500	0.000051
C42	C	0.761079	0.382821	0.000007
C43	C	0.763009	0.251843	0.000022
C44	C	0.696576	0.432982	-0.000017
C45	C	0.634011	0.352164	-0.000022
C46	C	0.635945	0.221179	-0.000016
C47	C	0.700445	0.171026	0.000006
N48	N	0.825583	-0.167334	-0.356078
C49	C	0.919708	0.003861	0.356163
C50	C	0.966778	0.089456	0.428104
C51	C	0.966786	0.089457	0.571984
C52	C	0.919716	0.003856	0.643925
C53	C	0.872646	-0.081739	0.571984
C54	C	0.872645	-0.081733	0.428101
C55	C	0.778513	-0.252929	0.571980
C56	C	0.778508	-0.252938	0.428100
C57	C	0.731443	-0.338530	0.643921
C58	C	0.684375	-0.424133	0.571979
C59	C	0.684371	-0.424132	0.428091
C60	C	0.731438	-0.338533	0.356158
H61	H	0.037463	-0.159731	-0.226025
F62	F	1.085782	0.259763	0.000105
H63	H	0.481551	-0.171504	-0.226038
H64	H	0.169596	-0.163233	-0.226026
F65	F	1.081792	0.530148	0.000087
F66	F	0.731440	-0.338528	0.203028
F67	F	1.016869	0.180560	0.351533
H68	H	0.949135	0.600945	0.000037
F69	F	0.569355	0.135176	-0.000042
F70	F	0.702510	0.031630	0.000022
F71	F	0.694521	0.572380	-0.000092
F72	F	0.622800	-0.175193	0.257251
F73	F	0.565370	0.405557	-0.000062
H74	H	0.169607	-0.163188	0.226099
H75	H	1.005112	0.159161	0.630560
F76	F	0.919717	0.003873	0.797056
F77	F	0.028360	-0.159430	0.257271
H78	H	0.646051	-0.493818	0.630562
H79	H	0.613686	-0.174981	-0.226038
F80	F	0.956635	0.092943	0.000102
H81	H	0.919713	0.003859	0.239008
F82	F	0.731447	-0.338523	0.797051
F83	F	0.472451	-0.171229	0.257254
F84	F	0.634267	-0.515230	0.351536
