data_functionalizedCrystal
_audit_creation_method	'MofGen! by Chris Wilmer'
_symmetry_space_group_name_H-M	'P1'
_symmetry_Int_Tables_number	1
_symmetry_cell_setting	triclinic
loop_
_symmetry_equiv_pos_as_xyz
  x,y,z
_cell_length_a	15.944499
_cell_length_b	15.944551
_cell_length_c	14.421503
_cell_angle_alpha	90.003340
_cell_angle_beta	89.989779
_cell_angle_gamma	83.488174
loop_
_atom_site_label
_atom_site_type_symbol
_atom_site_fract_x
_atom_site_fract_y
_atom_site_fract_z
O1	O	1.114556	0.108114	-0.077169
O2	O	0.870001	0.121515	-0.077159
O3	O	0.998957	-0.007462	-0.077156
O4	O	0.985600	0.237090	-0.077172
O5	O	0.998935	-0.007442	0.077067
O6	O	0.869979	0.121534	0.077064
O7	O	1.114535	0.108133	0.077054
Cu8	Cu	0.992255	0.114835	0.091141
Cu9	Cu	0.992281	0.114813	-0.091246
O10	O	0.985579	0.237110	0.077051
C11	C	0.838695	0.120976	-0.000046
C12	C	0.745447	0.119331	-0.000042
C13	C	0.453911	0.194263	-0.000061
C14	C	0.514951	0.155302	-0.076100
C15	C	0.409810	0.113355	-0.000063
C16	C	0.514916	0.155299	0.075952
C17	C	0.574719	0.116296	-0.000051
C18	C	0.469622	0.074371	-0.076165
C19	C	0.469581	0.074380	0.075955
C20	C	0.530603	0.035360	-0.000102
C21	C	0.314810	0.111663	-0.000071
C22	C	0.669718	0.117981	-0.000050
C23	C	0.998392	-0.038746	-0.000044
C24	C	0.996729	-0.131992	-0.000044
C25	C	0.912823	-0.346833	-0.000053
C26	C	0.951776	-0.407848	0.075987
C27	C	0.993722	-0.302717	-0.000051
C28	C	0.951816	-0.407850	-0.076065
C29	C	0.990811	-0.467629	-0.000061
C30	C	1.032697	-0.362504	0.076052
C31	C	1.032726	-0.362500	-0.076069
C32	C	1.071737	-0.423497	-0.000010
C33	C	0.995397	-0.207715	-0.000044
C34	C	0.989143	-0.562630	-0.000062
C35	C	1.145840	0.108672	-0.000061
C36	C	1.239089	0.110317	-0.000071
C37	C	0.986144	0.268394	-0.000063
C38	C	0.987806	0.361640	-0.000069
N39	N	0.992244	0.114851	0.219422
N40	N	0.992299	0.114791	-0.219527
C41	C	0.932604	0.174463	0.469075
C42	C	1.008506	0.190756	0.530873
C43	C	0.992264	0.114831	0.408584
C44	C	0.916382	0.098557	0.530879
C45	C	0.992277	0.114813	0.591305
C46	C	1.068204	0.131162	0.469021
C47	C	0.976030	0.038930	0.469022
C48	C	1.051987	0.055191	0.530793
C49	C	0.992255	0.114843	0.303323
C50	C	0.992294	0.114800	0.696564
H51	H	0.420581	0.261409	-0.000139
O52	O	1.026686	0.275757	0.566918
H53	H	0.977065	0.325156	0.542226
O54	O	0.906484	-0.434460	-0.161214
H55	H	0.906185	-0.504037	-0.160771
H56	H	0.882202	0.224932	0.441976
H57	H	1.138946	-0.456668	0.000030
O58	O	0.541590	0.200615	-0.161257
H59	H	0.510581	0.266556	-0.161106
H60	H	0.449455	0.040195	0.140247
H61	H	0.449652	0.040174	-0.140523
O62	O	1.153236	0.149491	0.433194
H63	H	1.152552	0.149388	0.356234
O64	O	1.078025	-0.335839	-0.161224
H65	H	1.044321	-0.353787	-0.224255
H66	H	0.563780	-0.031846	-0.000138
O67	O	1.118890	-0.011619	0.566483
H68	H	1.181783	0.002088	0.541576
O69	O	0.957801	-0.046055	0.432994
H70	H	0.894740	-0.059413	0.457723
H71	H	0.852204	0.084801	0.558053
O72	O	0.541504	0.200653	0.161101
H73	H	0.522449	0.167676	0.224159
O74	O	0.823883	-0.302678	0.000045
H75	H	0.778371	-0.350439	0.000749
O76	O	0.906451	-0.434467	0.161150
H77	H	0.840507	-0.403466	0.161000
O78	O	1.077968	-0.336034	0.161306
H79	H	1.078813	-0.266524	0.160660
