data_functionalizedCrystal
_audit_creation_method	'MofGen! by Chris Wilmer'
_symmetry_space_group_name_H-M	'P1'
_symmetry_Int_Tables_number	1
_symmetry_cell_setting	triclinic
loop_
_symmetry_equiv_pos_as_xyz
  x,y,z
_cell_length_a	16.120542
_cell_length_b	16.120444
_cell_length_c	16.120297
_cell_angle_alpha	84.384883
_cell_angle_beta	90.127087
_cell_angle_gamma	89.835691
loop_
_atom_site_label
_atom_site_type_symbol
_atom_site_fract_x
_atom_site_fract_y
_atom_site_fract_z
Zn1	Zn	-1.224978	-0.422357	0.554850
Zn2	Zn	-0.974978	-0.172357	0.804850
Zn3	Zn	-0.724978	0.077643	1.054850
Zn4	Zn	-0.474978	0.327643	1.304850
Zn5	Zn	-1.224871	-0.555041	0.422156
Zn6	Zn	-0.974871	-0.305041	0.672156
Zn7	Zn	-0.724871	-0.055041	0.922156
Zn8	Zn	-0.474871	0.194959	1.172156
Zn9	Zn	-1.093718	-0.408262	0.408089
Zn10	Zn	-0.843718	-0.158262	0.658089
Zn11	Zn	-0.593718	0.091738	0.908089
Zn12	Zn	-0.343718	0.341738	1.158089
Zn13	Zn	-1.078868	-0.554263	0.554085
Zn14	Zn	-0.828868	-0.304263	0.804085
Zn15	Zn	-0.578868	-0.054263	1.054085
Zn16	Zn	-0.328868	0.195737	1.304085
O17	O	-1.155609	-0.484981	0.484795
O18	O	-0.905609	-0.234981	0.734795
O19	O	-0.655609	0.015019	0.984795
O20	O	-0.405609	0.265019	1.234795
O21	O	-1.340999	-0.446182	0.543455
O22	O	-1.090999	-0.196182	0.793455
O23	O	-0.840999	0.053818	1.043455
O24	O	-0.590999	0.303818	1.293455
O25	O	-1.213643	-0.529998	0.303658
O26	O	-0.963643	-0.279998	0.553658
O27	O	-0.713643	-0.029998	0.803658
O28	O	-0.463643	0.220002	1.053658
O29	O	-1.117389	-0.293501	0.421990
O30	O	-0.867389	-0.043501	0.671990
O31	O	-0.617389	0.206499	0.921990
O32	O	-0.367389	0.456499	1.171990
O33	O	-1.340921	-0.543664	0.445966
O34	O	-1.090921	-0.293664	0.695966
O35	O	-0.840921	-0.043664	0.945966
O36	O	-0.590921	0.206336	1.195966
O37	O	-1.213825	-0.303856	0.529814
O38	O	-0.963825	-0.053856	0.779814
O39	O	-0.713825	0.196144	1.029814
O40	O	-0.463825	0.446144	1.279814
O41	O	-1.117285	-0.422160	0.293322
O42	O	-0.867285	-0.172160	0.543322
O43	O	-0.617285	0.077840	0.793322
O44	O	-0.367285	0.327840	1.043322
O45	O	-0.975712	-0.421406	0.421248
O46	O	-0.725712	-0.171406	0.671248
O47	O	-0.475712	0.078594	0.921248
O48	O	-0.225712	0.328594	1.171248
O49	O	-1.092080	-0.542338	0.670819
O50	O	-0.842080	-0.292338	0.920819
O51	O	-0.592080	-0.042338	1.170819
O52	O	-0.342080	0.207662	1.420819
O53	O	-0.964803	-0.528671	0.528511
O54	O	-0.714803	-0.278671	0.778511
O55	O	-0.464803	-0.028671	1.028511
O56	O	-0.214803	0.221329	1.278511
O57	O	-1.199427	-0.445427	0.671381
O58	O	-0.949427	-0.195427	0.921381
O59	O	-0.699427	0.054573	1.171381
O60	O	-0.449427	0.304573	1.421381
O61	O	-1.199244	-0.671568	0.445224
O62	O	-0.949244	-0.421568	0.695224
O63	O	-0.699244	-0.171568	0.945224
O64	O	-0.449244	0.078432	1.195224
O65	O	-1.091977	-0.670997	0.542152
O66	O	-0.841977	-0.420997	0.792152
O67	O	-0.591977	-0.170997	1.042152
O68	O	-0.341977	0.079003	1.292152
C69	C	-0.940171	-0.473425	0.473271
C70	C	-0.690171	-0.223425	0.723271
C71	C	-0.440171	0.026575	0.973271
C72	C	-0.190171	0.276575	1.223271
C73	C	-0.848003	-0.468503	0.468361
C74	C	-0.598003	-0.218503	0.718361
C75	C	-0.348003	0.031497	0.968361
C76	C	-0.098003	0.281497	1.218361
C77	C	-0.632809	-0.510488	0.510215
C78	C	-0.382809	-0.260488	0.760215
C79	C	-0.132809	-0.010488	1.010215
C80	C	0.117191	0.239512	1.260215
C81	C	-0.679257	-0.459523	0.459397
C82	C	-0.429257	-0.209523	0.709397
C83	C	-0.179257	0.040477	0.959397
C84	C	0.070743	0.290477	1.209397
C85	C	-0.773156	-0.464521	0.464386
C86	C	-0.523156	-0.214521	0.714386
C87	C	-0.273156	0.035479	0.964386
C88	C	-0.023156	0.285479	1.214386
C89	C	-0.538901	-0.505492	0.505227
C90	C	-0.288901	-0.255492	0.755227
C91	C	-0.038901	-0.005492	1.005227
C92	C	0.211099	0.244508	1.255227
C93	C	-1.144009	-0.701526	0.495151
C94	C	-0.894009	-0.451526	0.745151
C95	C	-0.644009	-0.201526	0.995151
C96	C	-0.394009	0.048474	1.245151
C97	C	-1.139121	-0.794170	0.499613
C98	C	-0.889121	-0.544170	0.749613
C99	C	-0.639121	-0.294170	0.999613
C100	C	-0.389121	-0.044170	1.249613
C101	C	-0.371889	-0.496577	0.496353
C102	C	-0.121889	-0.246577	0.746353
C103	C	0.128111	0.003423	0.996353
C104	C	0.378111	0.253423	1.246353
C105	C	-0.464057	-0.501506	0.501248
C106	C	-0.214057	-0.251506	0.751248
C107	C	0.035943	-0.001506	1.001248
C108	C	0.285943	0.248494	1.251248
C109	C	-1.181159	-1.005331	0.461837
C110	C	-0.931159	-0.755331	0.711837
C111	C	-0.681159	-0.505331	0.961837
C112	C	-0.431159	-0.255331	1.211837
C113	C	-1.130212	-0.963788	0.507769
C114	C	-0.880212	-0.713788	0.757769
C115	C	-0.630212	-0.463788	1.007769
C116	C	-0.380212	-0.213788	1.257769
C117	C	-1.135170	-0.869403	0.503230
C118	C	-0.885170	-0.619403	0.753230
C119	C	-0.635170	-0.369403	1.003230
C120	C	-0.385170	-0.119403	1.253230
C121	C	-1.176202	-1.099724	0.466376
C122	C	-0.926202	-0.849724	0.716376
C123	C	-0.676202	-0.599724	0.966376
C124	C	-0.426202	-0.349724	1.216376
C125	C	-1.144109	-0.495368	0.702187
C126	C	-0.894109	-0.245368	0.952187
C127	C	-0.644109	0.004632	1.202187
C128	C	-0.394109	0.254632	1.452187
C129	C	-1.139209	-0.499794	0.794827
C130	C	-0.889209	-0.249794	1.044827
C131	C	-0.639209	0.000206	1.294827
C132	C	-0.389209	0.250206	1.544827
C133	C	-1.167275	-0.267592	0.474418
C134	C	-0.917275	-0.017592	0.724418
C135	C	-0.667275	0.232408	0.974418
C136	C	-0.417275	0.482408	1.224418
C137	C	-1.172247	-0.174954	0.469996
C138	C	-0.922247	0.075046	0.719996
C139	C	-0.672247	0.325046	0.969996
C140	C	-0.422247	0.575046	1.219996
C141	C	-1.167115	-0.474577	0.268248
C142	C	-0.917115	-0.224577	0.518248
C143	C	-0.667115	0.025423	0.768248
C144	C	-0.417115	0.275423	1.018248
C145	C	-1.172188	-0.469924	0.175607
C146	C	-0.922188	-0.219924	0.425607
C147	C	-0.672188	0.030076	0.675607
C148	C	-0.422188	0.280076	0.925607
C149	C	-1.130232	-0.507855	0.964438
C150	C	-0.880232	-0.257855	1.214438
C151	C	-0.630232	-0.007855	1.464438
C152	C	-0.380232	0.242145	1.714438
C153	C	-1.181162	-0.461865	1.006001
C154	C	-0.931162	-0.211865	1.256001
C155	C	-0.681162	0.038135	1.506001
C156	C	-0.431162	0.288135	1.756001
C157	C	-1.176168	-0.466351	1.100378
C158	C	-0.926168	-0.216351	1.350378
C159	C	-0.676168	0.033649	1.600378
C160	C	-0.426168	0.283649	1.850378
C161	C	-1.135226	-0.503371	0.870052
C162	C	-0.885226	-0.253371	1.120052
C163	C	-0.635226	-0.003371	1.370052
C164	C	-0.385226	0.246629	1.620052
H165	H	-0.663562	-0.557871	0.557464
H166	H	-0.413562	-0.307871	0.807464
H167	H	-0.163562	-0.057871	1.057464
H168	H	0.086438	0.192129	1.307464
C169	C	-1.245106	-0.957629	0.404106
C170	C	-0.995106	-0.707629	0.654106
C171	C	-0.745106	-0.457629	0.904106
C172	C	-0.495106	-0.207629	1.154106
H173	H	-1.276425	-0.996104	0.375884
H174	H	-1.026425	-0.746104	0.625884
H175	H	-0.776425	-0.496104	0.875884
H176	H	-0.526425	-0.246104	1.125884
H177	H	-1.217079	-0.920278	0.364476
H178	H	-0.967079	-0.670278	0.614476
H179	H	-0.717079	-0.420278	0.864476
H180	H	-0.467079	-0.170278	1.114476
H181	H	-1.281276	-0.927077	0.436349
H182	H	-1.031276	-0.677077	0.686349
H183	H	-0.781276	-0.427077	0.936349
H184	H	-0.531276	-0.177077	1.186349
H185	H	-1.082870	-0.999106	0.550502
H186	H	-0.832870	-0.749106	0.800502
H187	H	-0.582870	-0.499106	1.050502
H188	H	-0.332870	-0.249106	1.300502
C189	C	-1.245139	-0.404131	0.958325
C190	C	-0.995139	-0.154131	1.208325
C191	C	-0.745139	0.095869	1.458325
C192	C	-0.495139	0.345869	1.708325
H193	H	-1.240152	-0.408659	0.900228
H194	H	-0.990152	-0.158659	1.150228
H195	H	-0.740152	0.091341	1.400228
H196	H	-0.490152	0.341341	1.650228
H197	H	-1.235280	-0.348141	0.969207
H198	H	-0.985280	-0.098141	1.219207
H199	H	-0.735280	0.151859	1.469207
H200	H	-0.485280	0.401859	1.719207
H201	H	-1.299460	-0.419992	0.976117
H202	H	-1.049460	-0.169992	1.226117
H203	H	-0.799460	0.080008	1.476117
H204	H	-0.549460	0.330008	1.726117
H205	H	-1.082883	-0.550594	0.999732
H206	H	-0.832883	-0.300594	1.249732
H207	H	-0.582883	-0.050594	1.499732
H208	H	-0.332883	0.199406	1.749732
H209	H	-0.648501	-0.412137	0.412144
H210	H	-0.398501	-0.162137	0.662144
H211	H	-0.148501	0.087863	0.912144
H212	H	0.101499	0.337863	1.162144
