data_functionalizedCrystal
_audit_creation_method	'MofGen! by Chris Wilmer'
_symmetry_space_group_name_H-M	'P1'
_symmetry_Int_Tables_number	1
_symmetry_cell_setting	triclinic
loop_
_symmetry_equiv_pos_as_xyz
  x,y,z
_cell_length_a	12.759401
_cell_length_b	12.594516
_cell_length_c	12.594510
_cell_angle_alpha	89.967679
_cell_angle_beta	89.980999
_cell_angle_gamma	90.017577
loop_
_atom_site_label
_atom_site_type_symbol
_atom_site_fract_x
_atom_site_fract_y
_atom_site_fract_z
Zn1	Zn	1.606236	-0.423602	-0.601815
Zn2	Zn	2.106236	0.076398	-0.101815
Zn3	Zn	1.606129	-0.601632	-0.423843
Zn4	Zn	2.106129	-0.101632	0.076157
Zn5	Zn	1.430541	-0.423672	-0.423850
Zn6	Zn	1.930541	0.076328	0.076150
Zn7	Zn	1.430523	-0.601544	-0.601779
Zn8	Zn	1.930523	-0.101544	-0.101779
O9	O	1.518357	-0.512613	-0.512822
O10	O	2.018357	-0.012613	-0.012822
O11	O	1.753243	-0.447226	-0.578218
O12	O	2.253243	0.052774	-0.078218
O13	O	1.582800	-0.578091	-0.274898
O14	O	2.082800	-0.078091	0.225102
O15	O	1.453900	-0.274717	-0.447476
O16	O	1.953900	0.225283	0.052524
O17	O	1.753165	-0.578023	-0.447463
O18	O	2.253165	-0.078023	0.052537
O19	O	1.582983	-0.274666	-0.578226
O20	O	2.082983	0.225334	-0.078226
O21	O	1.453796	-0.447345	-0.274903
O22	O	1.953796	0.052655	0.225097
O23	O	1.283518	-0.447260	-0.447441
O24	O	1.783518	0.052740	0.052559
O25	O	1.453869	-0.577874	-0.750730
O26	O	1.953869	-0.077874	-0.250730
O27	O	1.283504	-0.577942	-0.578165
O28	O	1.783504	-0.077942	-0.078165
O29	O	1.582965	-0.447141	-0.750756
O30	O	2.082965	0.052859	-0.250756
O31	O	1.582782	-0.750566	-0.447428
O32	O	2.082782	-0.250566	0.052572
O33	O	1.453765	-0.750501	-0.578158
O34	O	1.953765	-0.250501	-0.078158
C35	C	1.245390	-0.512600	-0.512801
C36	C	1.745390	-0.012600	-0.012801
C37	C	1.128613	-0.512620	-0.512817
C38	C	1.628613	-0.012620	-0.012817
C39	C	1.073772	-0.580769	-0.580778
C40	C	1.573772	-0.080769	-0.080778
C41	C	0.964048	-0.580773	-0.580799
C42	C	1.464048	-0.080773	-0.080799
C43	C	0.964016	-0.444475	-0.444889
C44	C	1.464016	0.055525	0.055111
C45	C	1.073738	-0.444467	-0.444874
C46	C	1.573738	0.055533	0.055126
C47	C	1.518289	-0.789154	-0.512811
C48	C	2.018289	-0.289154	-0.012811
C49	C	1.518355	-0.907459	-0.512843
C50	C	2.018355	-0.407459	-0.012843
C51	C	1.448176	-0.976716	-0.583896
C52	C	1.948176	-0.476716	-0.083896
C53	C	1.422578	-1.047592	-0.486774
C54	C	1.922578	-0.547592	0.013226
C55	C	1.544049	-1.047382	-0.609981
C56	C	2.044049	-0.547382	-0.109981
C57	C	1.492707	-0.976777	-0.415669
C58	C	1.992707	-0.476777	0.084331
C59	C	1.614222	-0.976560	-0.538942
C60	C	2.114222	-0.476560	-0.038942
C61	C	1.588661	-1.047405	-0.441753
C62	C	2.088661	-0.547405	0.058247
C63	C	1.792391	-0.512626	-0.512844
C64	C	2.292391	-0.012626	-0.012844
C65	C	1.909167	-0.512632	-0.512853
C66	C	2.409167	-0.012632	-0.012853
C67	C	1.518427	-0.512490	-0.790443
C68	C	2.018427	-0.012490	-0.290443
C69	C	1.518456	-0.512437	-0.908748
C70	C	2.018456	-0.012437	-0.408748
C71	C	1.518455	-0.234992	-0.512856
C72	C	2.018455	0.265008	-0.012856
C73	C	1.518497	-0.116686	-0.512870
C74	C	2.018497	0.383314	-0.012870
C75	C	1.588693	-0.441327	-0.978016
C76	C	2.088693	0.058673	-0.478016
C77	C	1.492871	-0.415276	-1.048809
C78	C	1.992871	0.084724	-0.548809
C79	C	1.614334	-0.538413	-1.048754
C80	C	2.114334	-0.038413	-0.548754
C81	C	1.422584	-0.486337	-0.977984
C82	C	1.922584	0.013663	-0.477984
C83	C	1.544111	-0.609519	-0.977922
C84	C	2.044111	-0.109519	-0.477922
C85	C	1.448224	-0.583506	-1.048684
C86	C	1.948224	-0.083506	-0.548684
C87	C	1.518349	-0.512658	-0.236281
C88	C	2.018349	-0.012658	0.263719
C89	C	1.518523	-0.512411	-0.117976
C90	C	2.018523	-0.012411	0.382024
H91	H	1.388721	-0.945676	-0.643897
H92	H	1.888721	-0.445676	-0.143897
H93	H	1.471194	-0.333165	-1.079947
H94	H	1.971194	0.166835	-0.579947
H95	H	1.695388	-0.560393	-1.079844
H96	H	2.195388	-0.060393	-0.579844
H97	H	1.118392	-0.388965	-0.389533
H98	H	1.618392	0.111035	0.110467
H99	H	1.565723	-1.078396	-0.692120
H100	H	2.065723	-0.578396	-0.192120
H101	H	1.647984	-0.381155	-0.946983
H102	H	2.147984	0.118845	-0.446983
H103	H	0.919324	-0.388989	-0.389571
H104	H	1.419324	0.111011	0.110429
H105	H	1.341571	-1.078816	-0.464721
H106	H	1.841571	-0.578816	0.035279
H107	H	1.118448	-0.636261	-0.636104
H108	H	1.618448	-0.136261	-0.136104
H109	H	1.470938	-0.945891	-0.333508
H110	H	1.970938	-0.445891	0.166492
H111	H	1.648070	-1.078247	-0.381607
H112	H	2.148070	-0.578247	0.118393
H113	H	1.695211	-0.945340	-0.561041
H114	H	2.195211	-0.445340	-0.061041
H115	H	1.341506	-0.464261	-0.947027
H116	H	1.841506	0.035739	-0.447027
H117	H	1.388787	-0.643631	-1.079517
H118	H	1.888787	-0.143631	-0.579517
H119	H	1.565817	-0.691607	-0.946764
H120	H	2.065817	-0.191607	-0.446764
H121	H	0.919401	-0.636266	-0.636141
H122	H	1.419401	-0.136266	-0.136141
