data_functionalizedCrystal
_audit_creation_method	'MofGen! by Chris Wilmer'
_symmetry_space_group_name_H-M	'P1'
_symmetry_Int_Tables_number	1
_symmetry_cell_setting	triclinic
loop_
_symmetry_equiv_pos_as_xyz
  x,y,z
_cell_length_a	17.699083
_cell_length_b	14.519731
_cell_length_c	16.176319
_cell_angle_alpha	90.008567
_cell_angle_beta	89.995231
_cell_angle_gamma	83.485934
loop_
_atom_site_label
_atom_site_type_symbol
_atom_site_fract_x
_atom_site_fract_y
_atom_site_fract_z
O1	O	1.004413	0.116625	0.068632
O2	O	0.784079	0.131798	0.068660
O3	O	0.900079	-0.010050	0.068638
O4	O	0.888413	0.258474	0.068654
O5	O	0.900077	-0.010063	-0.068855
O6	O	0.784077	0.131785	-0.068833
O7	O	1.004411	0.116612	-0.068861
Cu8	Cu	0.894244	0.124198	-0.081401
Cu9	Cu	0.894246	0.124213	0.081200
O10	O	0.888410	0.258461	-0.068839
C11	C	0.755879	0.131248	-0.000083
C12	C	0.671857	0.129617	-0.000073
C13	C	0.899532	-0.044414	-0.000109
C14	C	0.897894	-0.146787	-0.000109
C15	C	0.623479	0.212879	-0.000068
C16	C	0.544531	0.211341	-0.000079
C17	C	0.513962	0.126540	-0.000089
C18	C	0.562346	0.043272	-0.000096
C19	C	0.641292	0.044811	-0.000091
C20	C	0.243965	0.037063	-0.000117
C21	C	0.165012	0.035531	-0.000119
C22	C	0.147204	0.203594	-0.000105
C23	C	0.226150	0.205133	-0.000100
C24	C	0.274527	0.121865	-0.000112
C25	C	0.360131	0.123533	-0.000102
C26	C	0.428360	0.124870	-0.000093
C27	C	0.896563	-0.229926	-0.000107
C28	C	0.894899	-0.334227	-0.000101
C29	C	0.893579	-0.417361	-0.000095
C30	C	0.891916	-0.521669	-0.000090
C31	C	1.032611	0.117162	-0.000116
C32	C	1.116633	0.118793	-0.000121
C33	C	0.888958	0.292824	-0.000090
C34	C	0.890596	0.395198	-0.000085
N35	N	0.894248	0.124217	0.195566
N36	N	0.894247	0.124186	-0.195767
C37	C	0.945709	0.061530	0.238820
C38	C	0.945712	0.061528	0.325367
C39	C	0.894250	0.124209	0.368658
C40	C	0.842787	0.186903	0.325398
C41	C	0.842788	0.186909	0.238852
C42	C	0.842781	0.186882	0.674426
C43	C	0.842782	0.186869	0.760977
C44	C	0.945705	0.061501	0.760941
C45	C	0.945707	0.061507	0.674395
C46	C	0.894246	0.124203	0.631142
C47	C	0.894245	0.124206	0.537298
C48	C	0.894248	0.124203	0.462501
H49	H	0.648362	0.281934	-0.000060
O50	O	0.787276	0.254515	0.372078
H51	H	0.728297	0.242716	0.355453
O52	O	0.787293	0.254531	0.192192
H53	H	0.751507	0.298116	0.236833
H54	H	0.987613	0.010484	0.203578
H55	H	0.107806	0.271394	-0.000100
H56	H	0.987616	0.010484	0.360585
H57	H	0.987609	0.010463	0.639151
H58	H	0.800879	0.237930	0.639216
O59	O	1.001203	-0.006138	0.807590
H60	H	0.992560	0.004385	0.875044
H61	H	0.537451	-0.025775	-0.000116
O62	O	0.492355	0.301148	-0.000076
H63	H	0.455946	0.304469	0.055956
O64	O	0.787278	0.254477	0.807681
H65	H	0.796914	0.326396	0.791100
H66	H	0.251035	0.274186	-0.000088
O67	O	0.132041	-0.055940	-0.000146
H68	H	0.151461	-0.095951	0.055882
O69	O	0.296138	-0.052742	-0.000129
H70	H	0.261616	-0.111965	-0.000130
H71	H	0.680681	-0.022990	-0.000095
