data_functionalizedCrystal
_audit_creation_method	'MofGen! by Chris Wilmer'
_symmetry_space_group_name_H-M	'P1'
_symmetry_Int_Tables_number	1
_symmetry_cell_setting	triclinic
loop_
_symmetry_equiv_pos_as_xyz
  x,y,z
_cell_length_a	10.654545
_cell_length_b	10.868271
_cell_length_c	10.654550
_cell_angle_alpha	90.004980
_cell_angle_beta	84.484005
_cell_angle_gamma	90.003855
loop_
_atom_site_label
_atom_site_type_symbol
_atom_site_fract_x
_atom_site_fract_y
_atom_site_fract_z
O1	O	1.667844	0.102310	0.176373
O2	O	1.302365	0.102315	0.193185
O3	O	1.493508	0.102304	0.002039
O4	O	1.476701	0.102320	0.367518
O5	O	1.493492	-0.102340	0.002032
O6	O	1.302349	-0.102330	0.193177
O7	O	1.667828	-0.102335	0.176365
Zn8	Zn	1.485086	-0.134824	0.184770
Zn9	Zn	1.485107	0.134804	0.184780
O10	O	1.476686	-0.102325	0.367510
C11	C	1.255559	-0.000007	0.191948
C12	C	1.116115	-0.000005	0.188258
N13	N	1.485081	-0.318838	0.184762
C14	C	1.050602	-0.111558	0.186517
C15	C	0.919583	-0.111558	0.183029
C16	C	0.919601	0.111557	0.183029
C17	C	1.050619	0.111556	0.186508
C18	C	1.485100	-0.569844	0.184777
C19	C	1.485086	-0.430167	0.184773
C20	C	1.714634	-0.000011	0.177602
C21	C	1.854078	-0.000004	0.181292
C22	C	1.492266	-0.000017	-0.044762
C23	C	1.488574	-0.000015	-0.184206
N24	N	1.485122	0.318818	0.184778
C25	C	1.601115	-0.000016	-0.263693
C26	C	1.597639	-0.000001	-0.394714
C27	C	1.369069	0.000011	-0.366747
C28	C	1.372547	0.000005	-0.235729
C29	C	1.477927	-0.000000	0.414312
C30	C	1.481619	0.000006	0.553755
H31	H	1.103926	-0.202398	0.187942
H32	H	1.695592	-0.000030	-0.221748
C33	C	0.932778	0.332095	0.183386
C34	C	0.847601	0.234182	0.181125
H35	H	0.888328	0.407799	0.182208
H36	H	0.974937	0.327454	0.257843
H37	H	0.992824	0.327446	0.111625
H38	H	0.787561	0.238826	0.252892
H39	H	0.805422	0.238826	0.106660
C40	C	1.243847	-0.105189	-0.072159
C41	C	1.248834	0.000008	-0.148340
H42	H	1.167479	-0.105176	-0.018205
H43	H	1.247219	-0.176540	-0.123858
H44	H	1.313453	-0.105182	-0.022734
H45	H	1.179233	-0.000004	-0.197773
H46	H	1.245450	0.071377	-0.096636
C47	C	1.823916	-0.000032	-0.409188
C48	C	1.721349	-0.000011	-0.482087
H49	H	1.900291	-0.000045	-0.463131
H50	H	1.820530	0.071324	-0.357497
H51	H	1.820496	-0.071405	-0.357512
H52	H	1.724764	0.071367	-0.533757
H53	H	1.724737	-0.071375	-0.533799
H54	H	1.274604	0.000024	-0.408713
H55	H	1.103961	0.202401	0.187922
C56	C	0.932732	-0.332094	0.183398
C57	C	0.847570	-0.234180	0.181124
H58	H	0.888271	-0.407798	0.182229
H59	H	0.992778	-0.327462	0.111652
H60	H	0.974888	-0.327433	0.257870
H61	H	0.805420	-0.238836	0.106647
H62	H	0.787501	-0.238814	0.252878
