data_functionalizedCrystal
_audit_creation_method	'MofGen! by Chris Wilmer'
_symmetry_space_group_name_H-M	'P1'
_symmetry_Int_Tables_number	1
_symmetry_cell_setting	triclinic
loop_
_symmetry_equiv_pos_as_xyz
  x,y,z
_cell_length_a	10.489716
_cell_length_b	10.489716
_cell_length_c	16.776229
_cell_angle_alpha	89.997416
_cell_angle_beta	89.993252
_cell_angle_gamma	84.529136
loop_
_atom_site_label
_atom_site_type_symbol
_atom_site_fract_x
_atom_site_fract_y
_atom_site_fract_z
O1	O	1.694061	0.179824	-0.066274
O2	O	1.322859	0.196750	-0.066276
O3	O	1.516923	0.002686	-0.066278
O4	O	1.499997	0.373887	-0.066272
O5	O	1.516897	0.002674	0.066299
O6	O	1.322833	0.196737	0.066300
O7	O	1.694035	0.179812	0.066303
Zn8	Zn	1.508430	0.188272	0.087351
Zn9	Zn	1.508464	0.188289	-0.087324
O10	O	1.499971	0.373875	0.066304
C11	C	1.275314	0.195472	0.000012
C12	C	1.133684	0.191667	0.000010
C13	C	1.515638	-0.044852	0.000008
C14	C	1.511833	-0.186483	0.000001
C15	C	1.035999	0.310673	0.000010
C16	C	0.958646	0.247782	0.065380
C17	C	0.958678	0.247765	-0.065330
C18	C	1.058196	0.128826	0.065434
C19	C	1.058234	0.128827	-0.065335
C20	C	0.980929	0.065848	0.000051
C21	C	1.630839	-0.284167	0.000009
C22	C	1.567967	-0.361516	-0.065357
C23	C	1.567913	-0.361492	0.065353
C24	C	1.449011	-0.261966	-0.065419
C25	C	1.448975	-0.261937	0.065350
C26	C	1.386015	-0.339237	-0.000031
C27	C	1.741580	0.181089	0.000013
C28	C	1.883210	0.184894	0.000009
C29	C	1.501256	0.421413	0.000017
C30	C	1.505061	0.563044	0.000019
N31	N	1.508416	0.188261	0.206562
N32	N	1.508488	0.188290	-0.206536
C33	C	1.594374	0.102365	0.248278
C34	C	1.594381	0.102364	0.331731
C35	C	1.508435	0.188266	0.373465
C36	C	1.422468	0.274165	0.331743
C37	C	1.422455	0.274159	0.248292
C38	C	1.422514	0.274191	0.668290
C39	C	1.422535	0.274193	0.751746
C40	C	1.594439	0.102396	0.751728
C41	C	1.594427	0.102390	0.668278
C42	C	1.508456	0.188284	0.626563
C43	C	1.508448	0.188283	0.536075
C44	C	1.508448	0.188275	0.463952
H45	H	0.915148	0.298014	0.120646
H46	H	1.618165	-0.404974	0.120613
C47	C	0.877271	-0.096789	-0.068385
C48	C	0.947975	-0.074002	0.000085
H49	H	0.856941	-0.183130	-0.068365
H50	H	0.800466	-0.040959	-0.068833
H51	H	0.926470	-0.081750	-0.114394
H52	H	0.898772	-0.089032	0.046094
H53	H	1.024792	-0.129848	0.000540
H54	H	1.398812	-0.218653	-0.120742
C55	C	0.927282	0.443704	-0.139806
C56	C	0.900017	0.315605	-0.139939
H57	H	0.891081	0.485585	-0.185868
H58	H	0.891833	0.485104	-0.093398
H59	H	1.017428	0.447295	-0.140073
H60	H	0.809870	0.312014	-0.139665
H61	H	0.935461	0.274194	-0.186358
H62	H	1.282422	-0.363659	-0.000067
C63	C	1.203097	-0.042544	-0.116803
C64	C	1.116997	0.061074	-0.139942
H65	H	1.239369	-0.084367	-0.162868
H66	H	1.269207	-0.012398	-0.085298
H67	H	1.159099	-0.101151	-0.086559
H68	H	1.160998	0.119686	-0.170181
H69	H	1.050878	0.030929	-0.171460
H70	H	1.101506	0.078612	0.120754
H71	H	1.398771	-0.218420	0.120614
H72	H	1.664373	0.032421	0.365696
H73	H	1.664366	0.032420	0.214304
C74	C	1.249153	0.300210	0.574471
C75	C	1.328037	0.368619	0.622439
H76	H	1.190825	0.358514	0.546165
H77	H	1.300332	0.249056	0.537678
H78	H	1.202789	0.246679	0.607042
H79	H	1.374408	0.422143	0.589867
H80	H	1.276852	0.419795	0.659237
H81	H	1.734354	-0.259500	-0.000057
H82	H	1.618214	-0.405010	-0.120619
C83	C	1.764344	-0.067441	0.676644
C84	C	1.688897	0.007960	0.622404
H85	H	1.822657	-0.125746	0.648323
H86	H	1.810715	-0.013898	0.709180
H87	H	1.710824	-0.113832	0.709206
H88	H	1.742417	0.054358	0.589846
H89	H	1.642523	-0.045590	0.589855
H90	H	1.352458	0.344102	0.214327
H91	H	1.664438	0.032452	0.785702
H92	H	1.352543	0.344147	0.785725
C93	C	1.249146	0.300168	0.425621
C94	C	1.327995	0.368588	0.377619
H95	H	1.190830	0.358465	0.453945
H96	H	1.202779	0.246635	0.393076
H97	H	1.300359	0.249015	0.462405
H98	H	1.276783	0.419733	0.340831
H99	H	1.374366	0.422143	0.410167
C100	C	1.018801	0.512440	0.068639
C101	C	1.069318	0.450406	0.000096
H102	H	1.039381	0.598700	0.068696
H103	H	0.928410	0.510952	0.069110
H104	H	1.054371	0.469748	0.114598
H105	H	1.033741	0.493093	-0.045862
H106	H	1.159727	0.451902	-0.000382
