data_functionalizedCrystal
_audit_creation_method	'MofGen! by Chris Wilmer'
_symmetry_space_group_name_H-M	'P1'
_symmetry_Int_Tables_number	1
_symmetry_cell_setting	triclinic
loop_
_symmetry_equiv_pos_as_xyz
  x,y,z
_cell_length_a	18.215407
_cell_length_b	12.594516
_cell_length_c	18.215399
_cell_angle_alpha	90.023782
_cell_angle_beta	90.019833
_cell_angle_gamma	90.012264
loop_
_atom_site_label
_atom_site_type_symbol
_atom_site_fract_x
_atom_site_fract_y
_atom_site_fract_z
Zn1	Zn	1.125139	-0.423740	0.416137
Zn2	Zn	1.125075	-0.601738	0.293080
Zn3	Zn	1.002071	-0.423775	0.293085
Zn4	Zn	1.002065	-0.601679	0.416105
O5	O	1.063588	-0.512733	0.354602
O6	O	1.228115	-0.447362	0.399825
O7	O	1.108734	-0.578170	0.190096
O8	O	1.018426	-0.274825	0.309423
O9	O	1.228068	-0.578136	0.309415
O10	O	1.108843	-0.274799	0.399830
O11	O	1.018364	-0.447422	0.190100
O12	O	0.899086	-0.447364	0.309392
O13	O	1.018415	-0.578035	0.519093
O14	O	0.899082	-0.578069	0.399774
O15	O	1.108837	-0.447305	0.519117
O16	O	1.108729	-0.750676	0.309384
O17	O	1.018354	-0.750632	0.399770
C18	C	0.872381	-0.512715	0.354580
C19	C	0.790583	-0.512733	0.354589
C20	C	0.602406	-0.580898	0.401592
C21	C	0.525547	-0.580901	0.401601
C22	C	0.525522	-0.444588	0.307627
C23	C	0.602379	-0.444580	0.307622
C24	C	0.640819	-0.512741	0.354604
C25	C	0.487103	-0.512752	0.354618
C26	C	0.403769	-0.512755	0.354627
C27	C	0.724158	-0.512736	0.354595
C28	C	1.063554	-0.789274	0.354589
C29	C	1.063606	-0.907579	0.354608
C30	C	1.112818	-0.976817	0.305499
C31	C	1.130801	-1.047521	0.372671
C32	C	1.045716	-1.047675	0.287480
C33	C	1.081623	-0.976724	0.421814
C34	C	0.996507	-0.976872	0.336578
C35	C	1.014464	-1.047544	0.403795
C36	C	1.255541	-0.512752	0.354623
C37	C	1.337339	-0.512760	0.354632
C38	C	1.063633	-0.512660	0.546555
C39	C	1.063652	-0.512628	0.628354
C40	C	1.063642	-0.235112	0.354631
C41	C	1.063665	-0.116807	0.354643
C42	C	1.063585	-0.512729	0.163395
C43	C	1.063709	-0.512461	0.081597
C44	C	1.110751	-0.444493	0.816561
C45	C	1.110760	-0.444462	0.893420
C46	C	1.016604	-0.580599	0.893384
C47	C	1.016592	-0.580624	0.816526
C48	C	1.063670	-0.512572	0.778117
C49	C	1.063691	-0.512517	0.931833
C50	C	1.063700	-0.512483	1.015167
C51	C	1.063660	-0.512604	0.694778
H52	H	0.633656	-0.389071	0.269359
C53	C	0.407743	-0.641433	0.443342
C54	C	0.483322	-0.655821	0.453252
H55	H	0.381677	-0.687683	0.475235
H56	H	0.395127	-0.656923	0.393885
H57	H	0.395169	-0.569936	0.454198
H58	H	0.495897	-0.727317	0.442390
H59	H	0.495943	-0.640339	0.502720
C60	C	1.165831	-0.872909	0.493523
C61	C	1.102181	-0.934844	0.498494
H62	H	1.178526	-0.847060	0.540861
H63	H	1.157240	-0.814734	0.461489
H64	H	1.204899	-0.914938	0.474859
H65	H	1.063111	-0.892813	0.517153
H66	H	1.110769	-0.993028	0.530539
C67	C	0.888243	-1.051962	0.441628
C68	C	0.958316	-1.089213	0.459939
H69	H	0.853584	-1.077685	0.476293
H70	H	0.875407	-1.076395	0.393984
H71	H	0.888214	-0.976541	0.442203
H72	H	0.958347	-1.164634	0.459359
H73	H	0.971156	-1.064786	0.507596
C74	C	1.132811	-0.873794	0.196438
C75	C	1.169002	-0.934886	0.249484
H76	H	1.167498	-0.847913	0.161858
H77	H	1.108976	-0.815643	0.219552
H78	H	1.097422	-0.916401	0.171921
H79	H	1.204388	-0.892276	0.274005
H80	H	1.192849	-0.993046	0.226368
H81	H	0.633701	-0.636396	0.439849
H82	H	0.978248	-0.636061	0.785224
H83	H	0.494215	-0.389095	0.269376
H84	H	1.149083	-0.389079	0.785291
H85	H	1.030559	-1.078839	0.230696
C86	C	1.258856	-1.053737	0.341771
C87	C	1.207435	-1.089430	0.393285
H88	H	1.306165	-1.079614	0.354492
H89	H	1.259500	-0.978329	0.341473
H90	H	1.245779	-1.079080	0.294412
H91	H	1.220508	-1.064080	0.440643
H92	H	1.206792	-1.164854	0.393590
C93	C	0.920531	-0.823765	0.316808
C94	C	0.919892	-0.934933	0.315943
H95	H	0.873230	-0.797875	0.304068
H96	H	0.955584	-0.798502	0.282397
H97	H	0.933202	-0.799526	0.364552
H98	H	0.907226	-0.959172	0.268198
H99	H	0.884828	-0.960206	0.350356
C100	C	1.203834	-0.309913	0.885730
C101	C	1.162517	-0.369632	0.935678
H102	H	1.235790	-0.263719	0.911820
H103	H	1.171774	-0.269209	0.855753
H104	H	1.231968	-0.356315	0.855752
H105	H	1.134378	-0.323231	0.965652
H106	H	1.194581	-0.410340	0.965667
C107	C	0.974819	-0.641014	1.011186
C108	C	0.964864	-0.655406	0.935606
H109	H	0.942879	-0.687205	1.037249
H110	H	0.964060	-0.569504	1.023786
H111	H	1.024268	-0.656591	1.023780
H112	H	0.915416	-0.639822	0.923011
H113	H	0.975617	-0.726933	0.923001
