data_functionalizedCrystal
_audit_creation_method	'MofGen! by Chris Wilmer'
_symmetry_space_group_name_H-M	'P1'
_symmetry_Int_Tables_number	1
_symmetry_cell_setting	triclinic
loop_
_symmetry_equiv_pos_as_xyz
  x,y,z
_cell_length_a	16.959454
_cell_length_b	16.959455
_cell_length_c	16.959447
_cell_angle_alpha	89.983056
_cell_angle_beta	89.973182
_cell_angle_gamma	90.017022
loop_
_atom_site_label
_atom_site_type_symbol
_atom_site_fract_x
_atom_site_fract_y
_atom_site_fract_z
Zn1	Zn	-0.314730	1.208404	-0.446928
Zn2	Zn	0.185270	1.708404	0.053072
Zn3	Zn	-0.446922	1.208321	-0.314758
Zn4	Zn	0.053078	1.708321	0.185242
Zn5	Zn	-0.314755	1.076227	-0.314766
Zn6	Zn	0.185245	1.576227	0.185234
Zn7	Zn	-0.446863	1.076197	-0.446897
Zn8	Zn	0.053137	1.576197	0.053103
O9	O	-0.380817	1.142287	-0.380837
O10	O	0.119183	1.642287	0.119163
O11	O	-0.332280	1.319004	-0.429406
O12	O	0.167720	1.819004	0.070594
O13	O	-0.429425	1.190775	-0.204148
O14	O	0.070575	1.690775	0.295852
O15	O	-0.204140	1.093807	-0.332314
O16	O	0.295860	1.593807	0.167686
O17	O	-0.429401	1.318943	-0.332301
O18	O	0.070599	1.818943	0.167699
O19	O	-0.204122	1.190918	-0.429413
O20	O	0.295878	1.690918	0.070587
O21	O	-0.332322	1.093726	-0.204154
O22	O	0.167678	1.593726	0.295846
O23	O	-0.332265	0.965612	-0.332283
O24	O	0.167735	1.465612	0.167717
O25	O	-0.429300	1.093758	-0.557512
O26	O	0.070700	1.593758	-0.057512
O27	O	-0.429324	0.965590	-0.429359
O28	O	0.070676	1.465590	0.070641
O29	O	-0.332222	1.190889	-0.557535
O30	O	0.167778	1.690889	-0.057535
O31	O	-0.557525	1.190747	-0.332270
O32	O	-0.057525	1.690747	0.167730
O33	O	-0.557482	1.093677	-0.429352
O34	O	-0.057482	1.593677	0.070648
C35	C	-0.380791	0.936921	-0.380819
C36	C	0.119209	1.436921	0.119181
C37	C	-0.380799	0.849064	-0.380830
C38	C	0.119201	1.349064	0.119170
C39	C	-0.330237	0.477576	-0.330395
C40	C	0.169763	0.977576	0.169605
C41	C	-0.431463	0.477602	-0.431324
C42	C	0.068537	0.977602	0.068676
C43	C	-0.431451	0.560148	-0.431320
C44	C	0.068549	1.060148	0.068680
C45	C	-0.380833	0.601411	-0.380851
C46	C	0.119167	1.101411	0.119149
C47	C	-0.330226	0.560129	-0.330387
C48	C	0.169774	1.060129	0.169613
C49	C	-0.482063	0.601436	-0.481777
C50	C	0.017937	1.101436	0.018223
C51	C	-0.482055	0.683987	-0.481773
C52	C	0.017945	1.183987	0.018227
C53	C	-0.431432	0.725252	-0.431308
C54	C	0.068568	1.225252	0.068692
C55	C	-0.380822	0.683965	-0.380843
C56	C	0.119178	1.183965	0.119157
C57	C	-0.330203	0.725228	-0.330374
C58	C	0.169797	1.225228	0.169626
C59	C	-0.279589	0.683943	-0.279913
C60	C	0.220411	1.183943	0.220087
C61	C	-0.279603	0.601394	-0.279922
C62	C	0.220397	1.101394	0.220078
C63	C	-0.431418	0.807801	-0.431299
C64	C	0.068582	1.307801	0.068701
C65	C	-0.330192	0.807782	-0.330366
C66	C	0.169808	1.307782	0.169634
C67	C	-0.586184	1.142221	-0.380824
C68	C	-0.086184	1.642221	0.119176
C69	C	-0.674040	1.142265	-0.380844
C70	C	-0.174040	1.642265	0.119156
C71	C	-1.045523	1.091816	-0.431382
C72	C	-0.545523	1.591816	0.068618
C73	C	-1.045509	1.192979	-0.330373
C74	C	-0.545509	1.692979	0.169627
C75	C	-0.962963	1.192951	-0.330365
C76	C	-0.462963	1.692951	0.169635
C77	C	-0.921693	1.142354	-0.380867
C78	C	-0.421693	1.642354	0.119133
C79	C	-0.962970	1.091785	-0.431375
C80	C	-0.462970	1.591785	0.068625
C81	C	-0.921680	1.243514	-0.279852
C82	C	-0.421680	1.743514	0.220148
C83	C	-0.839129	1.243487	-0.279842
C84	C	-0.339129	1.743487	0.220158
C85	C	-0.797858	1.192894	-0.330348
C86	C	-0.297858	1.692894	0.169652
C87	C	-0.839140	1.142323	-0.380859
C88	C	-0.339140	1.642323	0.119141
C89	C	-0.797870	1.091727	-0.431360
C90	C	-0.297870	1.591727	0.068640
C91	C	-0.839150	1.041160	-0.481876
C92	C	-0.339150	1.541160	0.018124
C93	C	-0.921699	1.041192	-0.481881
C94	C	-0.421699	1.541192	0.018119
C95	C	-0.715310	1.192862	-0.330343
C96	C	-0.215310	1.692862	0.169657
C97	C	-0.715317	1.091696	-0.431353
C98	C	-0.215317	1.591696	0.068647
C99	C	-0.174649	1.142375	-0.380868
C100	C	0.325351	1.642375	0.119132
C101	C	-0.086793	1.142413	-0.380881
C102	C	0.413207	1.642413	0.119119
C103	C	-0.380752	1.142330	-0.587006
C104	C	0.119248	1.642330	-0.087006
C105	C	-0.380724	1.142348	-0.674862
C106	C	0.119276	1.642348	-0.174862
C107	C	-0.380844	1.348455	-0.380856
C108	C	0.119156	1.848455	0.119144
C109	C	-0.380856	1.436312	-0.380864
C110	C	0.119144	1.936312	0.119136
C111	C	-0.330083	1.091888	-1.046347
C112	C	0.169917	1.591888	-0.546347
C113	C	-0.431198	1.192946	-1.046329
C114	C	0.068802	1.692946	-0.546329
C115	C	-0.431216	1.192932	-0.963783
C116	C	0.068784	1.692932	-0.463783
C117	C	-0.380668	1.142395	-0.922515
C118	C	0.119332	1.642395	-0.422515
C119	C	-0.330102	1.091871	-0.963794
C120	C	0.169898	1.591871	-0.463794
C121	C	-0.481787	1.243449	-0.922498
C122	C	0.018213	1.743449	-0.422498
C123	C	-0.481808	1.243437	-0.839947
C124	C	0.018192	1.743437	-0.339947
C125	C	-0.431256	1.192903	-0.798678
C126	C	0.068744	1.692903	-0.298678
C127	C	-0.380687	1.142378	-0.839962
C128	C	0.119313	1.642378	-0.339962
C129	C	-0.330139	1.091841	-0.798694
C130	C	0.169861	1.591841	-0.298694
C131	C	-0.279565	1.041319	-0.839976
C132	C	0.220435	1.541319	-0.339976
C133	C	-0.279549	1.041337	-0.922525
C134	C	0.220451	1.541337	-0.422525
C135	C	-0.431272	1.192885	-0.716130
C136	C	0.068728	1.692885	-0.216130
C137	C	-0.330157	1.091824	-0.716141
C138	C	0.169843	1.591824	-0.216141
C139	C	-0.380826	1.142291	-0.175471
C140	C	0.119174	1.642291	0.324529
C141	C	-0.380631	1.142426	-0.087615
C142	C	0.119369	1.642426	0.412385
H143	H	-0.523280	0.567834	-0.522860
H144	H	-0.023280	1.067834	-0.022860
H145	H	-0.522949	1.284585	-0.956104
H146	H	-0.022949	1.784585	-0.456104
C147	C	-0.669906	1.248483	-0.274781
C148	C	-0.169906	1.748483	0.225219
N149	N	-0.635708	1.290382	-0.232930
N150	N	-0.135708	1.790382	0.267070
H151	H	-0.472357	1.234085	-1.079934
H152	H	0.027643	1.734085	-0.579934
C153	C	-0.793743	0.985504	-0.537425
C154	C	-0.293743	1.485504	-0.037425
N155	N	-0.759539	0.943587	-0.579264
N156	N	-0.259539	1.443587	-0.079264
H157	H	-1.079137	1.050648	-0.472513
H158	H	-0.579137	1.550648	0.027487
C159	C	-0.967081	1.299154	-0.224294
C160	C	-0.467081	1.799154	0.275706
N161	N	-1.001281	1.341063	-0.182443
N162	N	-0.501281	1.841063	0.317557
H163	H	-0.472679	0.444000	-0.472409
H164	H	0.027321	0.944000	0.027591
H165	H	-0.522989	1.284574	-0.806343
H166	H	-0.022989	1.784574	-0.306343
C167	C	-0.967113	0.985564	-0.537434
C168	C	-0.467113	1.485564	-0.037434
N169	N	-1.001322	0.943662	-0.579272
N170	N	-0.501322	1.443662	-0.079272
C171	C	-1.090908	1.248624	-0.274817
C172	C	-0.590908	1.748624	0.225183
N173	N	-1.125106	1.290538	-0.232969
N174	N	-0.625106	1.790538	0.267031
C175	C	-0.537728	0.729394	-0.537284
C176	C	-0.037728	1.229394	-0.037284
N177	N	-0.579660	0.763595	-0.579098
N178	N	-0.079660	1.263595	-0.079098
C179	C	-0.486902	1.248452	-0.670724
C180	C	0.013098	1.748452	-0.170724
N181	N	-0.528805	1.290309	-0.636524
N182	N	-0.028805	1.790309	-0.136524
H183	H	-0.472629	0.841412	-0.472381
H184	H	0.027371	1.341412	0.027619
C185	C	-0.793729	1.299107	-0.224270
C186	C	-0.293729	1.799107	0.275730
N187	N	-0.759532	1.340999	-0.182411
N188	N	-0.259532	1.840999	0.317589
C189	C	-0.274549	1.036228	-0.670753
C190	C	0.225451	1.536228	-0.170753
N191	N	-0.232666	0.994351	-0.636567
N192	N	0.267334	1.494351	-0.136567
C193	C	-0.223961	0.985733	-0.794571
C194	C	0.276039	1.485733	-0.294571
N195	N	-0.182079	0.943870	-0.760369
N196	N	0.317921	1.443870	-0.260369
C197	C	-0.223927	0.985765	-0.967941
C198	C	0.276073	1.485765	-0.467941
N199	N	-0.182035	0.943906	-1.002151
N200	N	0.317965	1.443906	-0.502151
H201	H	-0.288967	0.841373	-0.289273
H202	H	0.211033	1.341373	0.210727
H203	H	-0.288905	1.050757	-1.079963
H204	H	0.211095	1.550757	-0.579963
C205	C	-0.274563	0.432161	-0.274891
C206	C	0.225437	0.932161	0.225109
N207	N	-0.232630	0.397954	-0.233084
N208	N	0.267370	0.897954	0.266916
H209	H	-0.681720	1.050497	-0.472480
H210	H	-0.181720	1.550497	0.027520
C211	C	-0.223908	0.729343	-0.224402
C212	C	0.276092	1.229343	0.275598
N213	N	-0.181967	0.763542	-0.182595
N214	N	0.318033	1.263542	0.317405
H215	H	-0.238396	0.567772	-0.238838
H216	H	0.261604	1.067772	0.261162
