data_functionalizedCrystal
_audit_creation_method	'MofGen! by Chris Wilmer'
_symmetry_space_group_name_H-M	'P1'
_symmetry_Int_Tables_number	1
_symmetry_cell_setting	triclinic
loop_
_symmetry_equiv_pos_as_xyz
  x,y,z
_cell_length_a	14.853567
_cell_length_b	10.654550
_cell_length_c	9.130313
_cell_angle_alpha	89.997153
_cell_angle_beta	90.000752
_cell_angle_gamma	95.940069
loop_
_atom_site_label
_atom_site_type_symbol
_atom_site_fract_x
_atom_site_fract_y
_atom_site_fract_z
O1	O	1.197242	-0.163958	0.121698
O2	O	0.934887	-0.183490	0.121723
O3	O	1.072096	0.009078	0.121701
O4	O	1.060032	-0.356526	0.121720
O5	O	1.072086	0.009078	-0.121898
O6	O	0.934876	-0.183490	-0.121876
O7	O	1.197231	-0.163958	-0.121901
Cu8	Cu	1.066053	-0.173724	-0.144131
Cu9	Cu	1.066065	-0.173724	0.143953
O10	O	1.060022	-0.356526	-0.121879
C11	C	0.901288	-0.182605	-0.000073
C12	C	0.801190	-0.179953	-0.000064
N13	N	1.066051	-0.173723	-0.346754
C14	C	1.071205	0.055867	-0.000098
C15	C	1.068555	0.195283	-0.000095
C16	C	0.387984	-0.054353	-0.000103
C17	C	0.367928	-0.283127	-0.000090
C18	C	0.461975	-0.285621	-0.000085
C19	C	0.519031	-0.172479	-0.000087
C20	C	0.482040	-0.056843	-0.000094
C21	C	0.498973	-0.401255	-0.000063
C22	C	0.593026	-0.403753	-0.000057
C23	C	0.650083	-0.290609	-0.000069
C24	C	0.613087	-0.174969	-0.000078
C25	C	0.670143	-0.061826	-0.000080
C26	C	0.633149	0.053816	-0.000099
C27	C	0.539098	0.056301	-0.000107
C28	C	0.744134	-0.293095	-0.000062
C29	C	0.764199	-0.064317	-0.000071
C30	C	1.230830	-0.164843	-0.000101
C31	C	1.330928	-0.167495	-0.000101
C32	C	1.060913	-0.403314	-0.000077
C33	C	1.063563	-0.542730	-0.000070
C34	C	1.149342	0.275608	-0.000103
C35	C	1.146846	0.406602	-0.000085
C36	C	0.982770	0.376935	-0.000058
C37	C	0.985267	0.245942	-0.000066
C38	C	1.121203	-0.250032	-0.423401
C39	C	1.121218	-0.250025	-0.576738
C40	C	1.010920	-0.097397	-0.576766
C41	C	1.010911	-0.097398	-0.423432
N42	N	1.066074	-0.173714	0.346576
H43	H	0.679616	0.145936	-0.000091
H44	H	1.166102	-0.312181	-0.360974
H45	H	1.166130	-0.312162	-0.639138
O46	O	0.951445	-0.015050	-0.340757
H47	H	0.960721	-0.027851	-0.221253
O48	O	0.951438	-0.015090	-0.659466
H49	H	0.960701	-0.027919	-0.778967
H50	H	0.810649	0.027819	-0.000079
O51	O	0.499200	0.181022	-0.000120
H52	H	0.424215	0.163742	-0.000109
O53	O	0.898129	0.159290	-0.000075
H54	H	0.839794	0.216522	-0.000080
O55	O	0.632927	-0.528472	-0.000046
H56	H	0.675301	-0.535067	-0.099329
H57	H	0.452512	-0.493369	-0.000046
O58	O	0.348093	0.070374	-0.000126
H59	H	0.273108	0.053106	-0.000128
H60	H	1.212631	0.471999	-0.000087
H61	H	0.774251	-0.387249	-0.000049
H62	H	1.217161	0.234365	-0.000124
O63	O	0.306389	-0.405151	-0.000103
H64	H	0.263051	-0.409488	0.099173
O65	O	0.892939	0.431573	-0.000058
H66	H	0.904774	0.536155	-0.000075
