data_functionalizedCrystal
_audit_creation_method	'MofGen! by Chris Wilmer'
_symmetry_space_group_name_H-M	'P1'
_symmetry_Int_Tables_number	1
_symmetry_cell_setting	triclinic
loop_
_symmetry_equiv_pos_as_xyz
  x,y,z
_cell_length_a	27.731993
_cell_length_b	27.732048
_cell_length_c	13.930277
_cell_angle_alpha	89.990485
_cell_angle_beta	90.004327
_cell_angle_gamma	82.631525
loop_
_atom_site_label
_atom_site_type_symbol
_atom_site_fract_x
_atom_site_fract_y
_atom_site_fract_z
O1	O	0.640946	0.057391	-0.079583
O2	O	0.500149	0.066164	-0.079643
O3	O	0.574921	-0.008620	-0.079593
O4	O	0.566175	0.132175	-0.079633
O5	O	0.574910	-0.008622	0.080069
O6	O	0.500139	0.066163	0.080019
O7	O	0.640936	0.057390	0.080079
Zn8	Zn	0.570536	0.061776	0.105399
Zn9	Zn	0.570549	0.061778	-0.104963
O10	O	0.566165	0.132174	0.080029
C11	C	0.482137	0.065983	0.000181
C12	C	0.428480	0.065441	0.000159
C13	C	0.045326	0.061511	-0.086825
C14	C	0.246983	0.063578	-0.086852
O15	O	0.273061	0.063827	-0.160871
N16	N	0.272198	0.063836	0.000178
C17	C	0.246995	0.063574	0.087220
O18	O	0.273070	0.063836	0.161243
C19	C	0.045339	0.061503	0.087246
C20	C	0.020127	0.061251	0.000210
C21	C	0.020113	0.061258	-0.173854
C22	C	-0.030299	0.060744	-0.173846
C23	C	-0.055498	0.060483	-0.086810
C24	C	-0.030285	0.060736	0.000218
C25	C	0.020139	0.061238	0.174287
C26	C	-0.030278	0.060719	0.174286
C27	C	-0.055491	0.060466	0.087250
C28	C	-0.105896	0.059962	0.087261
N29	N	-0.131110	0.059704	0.000232
C30	C	-0.105911	0.059965	-0.086804
C31	C	0.352868	0.064662	0.087200
C32	C	0.403281	0.065180	0.087194
C33	C	0.403266	0.065184	-0.086878
C34	C	0.352851	0.064669	-0.086871
C35	C	0.327653	0.064404	0.000171
C36	C	-0.211780	0.058885	-0.086782
C37	C	-0.262196	0.058373	-0.086767
C38	C	-0.262176	0.058367	0.087305
C39	C	-0.211764	0.058882	0.087291
C40	C	-0.186567	0.059139	0.000239
O41	O	-0.132004	0.059707	0.161241
O42	O	-0.131993	0.059692	-0.160817
C43	C	0.095737	0.062025	-0.086833
C44	C	0.120950	0.062279	0.000195
C45	C	0.095751	0.062018	0.087231
C46	C	0.171364	0.062797	0.000189
C47	C	0.196563	0.063058	-0.086847
C48	C	0.171348	0.062800	-0.173876
C49	C	0.120936	0.062286	-0.173869
C50	C	0.120966	0.062276	0.174261
C51	C	0.171377	0.062790	0.174246
C52	C	0.196576	0.063051	0.087210
C53	C	0.574732	-0.026628	0.000241
C54	C	0.574179	-0.080282	0.000248
C55	C	0.614884	-0.419105	0.000217
C56	C	0.612833	-0.620765	0.000202
O57	O	0.650055	-0.652028	0.000176
N58	N	0.568497	-0.639880	0.000184
C59	C	0.524670	-0.608576	0.000164
O60	O	0.486912	-0.629462	0.000138
C61	C	0.526721	-0.406918	0.000171
C62	C	0.571061	-0.387806	0.000199
C63	C	0.659220	-0.399993	0.000243
C64	C	0.659732	-0.349581	0.000252
C65	C	0.615909	-0.318282	0.000234
C66	C	0.571573	-0.337394	0.000207
C67	C	0.482895	-0.375616	0.000143
C68	C	0.483412	-0.325199	0.000143
C69	C	0.527751	-0.306087	0.000170
C70	C	0.528262	-0.255683	0.000198
N71	N	0.572598	-0.236568	0.000216
C72	C	0.616422	-0.267867	0.000234
C73	C	0.523596	-0.714450	0.000162
C74	C	0.523083	-0.764865	0.000161
C75	C	0.611246	-0.777049	0.000198
C76	C	0.611759	-0.726634	0.000205
C77	C	0.567932	-0.695335	0.000180
C78	C	0.617494	-0.161998	0.000254
C79	C	0.618003	-0.111582	0.000266
C80	C	0.529839	-0.099401	0.000224
C81	C	0.529331	-0.149814	0.000217
C82	C	0.573162	-0.181112	0.000228
O83	O	0.491060	-0.224392	0.000214
O84	O	0.654174	-0.246972	0.000238
C85	C	0.614372	-0.469517	0.000208
C86	C	0.570036	-0.488630	0.000181
C87	C	0.526213	-0.457331	0.000163
C88	C	0.569523	-0.539044	0.000181
C89	C	0.613346	-0.570343	0.000199
C90	C	0.657683	-0.551228	0.000217
C91	C	0.658195	-0.500817	0.000226
C92	C	0.481876	-0.476446	0.000145
C93	C	0.481368	-0.526858	0.000137
C94	C	0.525191	-0.558157	0.000155
C95	C	0.658949	0.057570	0.000253
C96	C	0.712605	0.058113	0.000269
C97	C	0.566353	0.150181	0.000193
C98	C	0.566906	0.203836	0.000179
N99	N	0.570530	0.061774	0.248965
N100	N	0.570559	0.061776	-0.248529
C101	C	0.537439	0.094879	0.701212
C102	C	0.603673	0.028672	0.701226
C103	C	0.603667	0.028671	0.600730
C104	C	0.570547	0.061775	0.550471
C105	C	0.537434	0.094880	0.600707
C106	C	0.636783	-0.004430	0.550486
C107	C	0.636779	-0.004433	0.449984
C108	C	0.603657	0.028669	0.399723
C109	C	0.570542	0.061775	0.449966
C110	C	0.537422	0.094879	0.399706
C111	C	0.504304	0.127983	0.449947
C112	C	0.504311	0.127982	0.550446
C113	C	0.603650	0.028670	0.299224
C114	C	0.537416	0.094879	0.299201
H115	H	-0.050822	0.060536	-0.244719
F116	F	0.435702	-0.395945	0.000110
H117	H	0.630616	0.001720	0.258323
H118	H	0.100454	0.062061	0.245137
F119	F	-0.184970	0.059159	-0.179432
F120	F	0.434172	-0.547192	0.000114
H121	H	-0.050792	0.060508	0.245167
F122	F	-0.289027	0.058106	-0.179405
F123	F	0.435231	-0.443141	0.000123
F124	F	0.665196	-0.091245	0.000295
F125	F	0.672025	-0.039665	0.396521
H126	H	0.040625	0.061468	-0.244733
F127	F	0.326022	0.064399	-0.179505
F128	F	0.430108	0.065459	0.179829
H129	H	0.040658	0.061442	0.245161
H130	H	-0.191236	0.059097	0.158162
H131	H	0.646929	-0.802542	0.000213
F132	F	0.705387	-0.480483	0.000249
F133	F	0.430092	0.065463	-0.179509
H134	H	0.487905	-0.688970	0.000141
F135	F	0.326056	0.064385	0.179849
H136	H	0.510444	0.121835	0.258286
F137	F	-0.289003	0.058092	0.179930
F138	F	0.672033	-0.039657	0.603975
F139	F	0.094109	0.062016	-0.266505
H140	H	0.494160	-0.073909	0.000213
F141	F	0.469068	0.163212	0.603919
H142	H	0.477340	0.154939	0.409014
F143	F	0.198175	0.063080	-0.266506
F144	F	0.502192	0.130108	0.754679
F145	F	0.198205	0.063063	0.266888
F146	F	0.664144	-0.195301	0.000265
H147	H	0.630640	0.001723	0.742150
H148	H	0.695838	-0.334025	0.000271
H149	H	0.694908	-0.425472	0.000254
H150	H	0.647864	-0.711077	0.000227
H151	H	0.486977	-0.780421	0.000155
H152	H	0.447722	-0.299717	0.000120
H153	H	0.493226	-0.165375	0.000221
F154	F	0.704323	-0.584548	0.000241
