data_functionalizedCrystal
_audit_creation_method	'MofGen! by Chris Wilmer'
_symmetry_space_group_name_H-M	'P1'
_symmetry_Int_Tables_number	1
_symmetry_cell_setting	triclinic
loop_
_symmetry_equiv_pos_as_xyz
  x,y,z
_cell_length_a	11.169417
_cell_length_b	12.827892
_cell_length_c	11.169409
_cell_angle_alpha	89.966972
_cell_angle_beta	89.979436
_cell_angle_gamma	90.016270
loop_
_atom_site_label
_atom_site_type_symbol
_atom_site_fract_x
_atom_site_fract_y
_atom_site_fract_z
Zn1	Zn	1.834929	-0.415925	-0.678536
Zn2	Zn	2.334929	0.084075	-0.178536
Zn3	Zn	1.834798	-0.590712	-0.477851
Zn4	Zn	2.334798	-0.090712	0.022149
Zn5	Zn	1.634212	-0.415988	-0.477871
Zn6	Zn	2.134212	0.084012	0.022129
Zn7	Zn	1.634205	-0.590627	-0.678496
Zn8	Zn	2.134205	-0.090627	-0.178496
O9	O	1.734536	-0.503313	-0.578188
O10	O	2.234536	-0.003313	-0.078188
O11	O	2.002861	-0.439119	-0.651924
O12	O	2.502861	0.060881	-0.151924
O13	O	1.808138	-0.567596	-0.309904
O14	O	2.308138	-0.067596	0.190096
O15	O	1.660896	-0.269744	-0.504515
O16	O	2.160896	0.230256	-0.004515
O17	O	2.002765	-0.567535	-0.504481
O18	O	2.502765	-0.067535	-0.004481
O19	O	1.808361	-0.269697	-0.651943
O20	O	2.308361	0.230303	-0.151943
O21	O	1.660769	-0.439228	-0.309918
O22	O	2.160769	0.060772	0.190082
O23	O	1.466262	-0.439145	-0.504475
O24	O	1.966262	0.060855	-0.004475
O25	O	1.660883	-0.567390	-0.846451
O26	O	2.160883	-0.067390	-0.346451
O27	O	1.466256	-0.567452	-0.651874
O28	O	1.966256	-0.067452	-0.151874
O29	O	1.808354	-0.439037	-0.846481
O30	O	2.308354	0.060963	-0.346481
O31	O	1.808131	-0.736937	-0.504441
O32	O	2.308131	-0.236937	-0.004441
O33	O	1.660756	-0.736874	-0.651854
O34	O	2.160756	-0.236874	-0.151854
C35	C	1.422711	-0.503297	-0.578173
C36	C	1.922711	-0.003297	-0.078173
C37	C	1.289311	-0.503315	-0.578195
C38	C	1.789311	-0.003315	-0.078195
C39	C	1.734461	-0.774823	-0.578167
C40	C	2.234461	-0.274823	-0.078167
C41	C	1.734539	-0.890976	-0.578198
C42	C	2.234539	-0.390976	-0.078198
C43	C	1.807551	-0.942757	-0.505335
C44	C	2.307551	-0.442757	-0.005335
C45	C	1.807633	-1.062807	-0.505365
C46	C	2.307633	-0.562807	-0.005365
C47	C	2.047578	-0.503329	-0.578205
C48	C	2.547578	-0.003329	-0.078205
C49	C	2.180978	-0.503337	-0.578212
C50	C	2.680978	-0.003337	-0.078212
C51	C	1.734632	-0.503197	-0.891231
C52	C	2.234632	-0.003197	-0.391231
C53	C	1.734673	-0.503148	-1.024631
C54	C	2.234673	-0.003148	-0.524631
C55	C	1.734644	-0.230743	-0.578236
C56	C	2.234644	0.269257	-0.078236
C57	C	1.734690	-0.114589	-0.578256
C58	C	2.234690	0.385411	-0.078256
C59	C	1.734509	-0.503353	-0.266364
C60	C	2.234509	-0.003353	0.233636
C61	C	1.734701	-0.503108	-0.132964
C62	C	2.234701	-0.003108	0.367036
H63	H	1.870005	-0.898214	-0.442935
H64	H	2.370005	-0.398214	0.057065
Br65	Br	1.911815	-1.137020	-0.401376
Br66	Br	2.411815	-0.637020	0.098624
Br67	Br	1.630458	-0.965209	-0.682225
Br68	Br	2.130458	-0.465209	-0.182225
H69	H	1.672173	-1.070067	-0.640637
H70	H	2.172173	-0.570067	-0.140637
