data_functionalizedCrystal
_audit_creation_method	'MofGen! by Chris Wilmer'
_symmetry_space_group_name_H-M	'P1'
_symmetry_Int_Tables_number	1
_symmetry_cell_setting	triclinic
loop_
_symmetry_equiv_pos_as_xyz
  x,y,z
_cell_length_a	14.519731
_cell_length_b	14.519709
_cell_length_c	9.130313
_cell_angle_alpha	89.994534
_cell_angle_beta	89.996385
_cell_angle_gamma	83.684499
loop_
_atom_site_label
_atom_site_type_symbol
_atom_site_fract_x
_atom_site_fract_y
_atom_site_fract_z
O1	O	1.223854	0.120985	-0.121806
O2	O	1.723854	0.620985	0.378194
O3	O	0.955380	0.135201	-0.121808
O4	O	1.455380	0.635201	0.378192
O5	O	1.096735	-0.006145	-0.121794
O6	O	1.596735	0.493855	0.378206
O7	O	1.082499	0.262331	-0.121820
O8	O	1.582499	0.762331	0.378180
O9	O	1.096726	-0.006149	0.121805
O10	O	1.596726	0.493851	0.621805
O11	O	0.955370	0.135197	0.121791
O12	O	1.455370	0.635197	0.621791
O13	O	1.223844	0.120981	0.121793
O14	O	1.723844	0.620981	0.621793
Cu15	Cu	1.089606	0.128088	0.144034
Cu16	Cu	1.589606	0.628088	0.644034
Cu17	Cu	1.089618	0.128093	-0.144050
Cu18	Cu	1.589618	0.628093	0.355950
O19	O	1.082489	0.262326	0.121779
O20	O	1.582489	0.762326	0.621779
C21	C	0.921016	0.134532	-0.000009
C22	C	1.421016	0.634532	0.499991
C23	C	0.818635	0.132536	-0.000010
C24	C	1.318635	0.632536	0.499990
C25	C	0.735491	0.130915	-0.000015
C26	C	1.235491	0.630915	0.499985
C27	C	0.631182	0.128888	-0.000016
C28	C	1.131182	0.628888	0.499984
C29	C	0.548043	0.127280	-0.000016
C30	C	1.048043	0.627280	0.499984
C31	C	0.443728	0.125253	-0.000019
C32	C	0.943728	0.625253	0.499981
C33	C	1.096067	-0.040507	0.000006
C34	C	1.596067	0.459493	0.500006
C35	C	1.094079	-0.142889	0.000007
C36	C	1.594079	0.357111	0.500007
C37	C	1.086759	-0.517785	-0.000031
C38	C	1.586759	-0.017785	0.499969
C39	C	1.088792	-0.413477	-0.000020
C40	C	1.588792	0.086523	0.499980
C41	C	1.090419	-0.330340	-0.000011
C42	C	1.590419	0.169660	0.499989
C43	C	1.092452	-0.226025	-0.000003
C44	C	1.592452	0.273975	0.499997
C45	C	1.258209	0.121649	-0.000009
C46	C	1.758209	0.621649	0.499991
C47	C	1.360589	0.123645	-0.000018
C48	C	1.860589	0.623645	0.499982
C49	C	1.083157	0.296688	-0.000024
C50	C	1.583157	0.796688	0.499976
C51	C	1.085146	0.399070	-0.000035
C52	C	1.585146	0.899070	0.499965
N53	N	1.089605	0.128084	0.346657
N54	N	1.589605	0.628084	0.846657
N55	N	1.089626	0.128090	-0.346672
N56	N	1.589626	0.628090	0.153328
C57	C	1.152218	0.065522	0.423315
C58	C	1.652218	0.565522	0.923315
C59	C	1.152227	0.065523	0.576652
C60	C	1.652227	0.565523	1.076652
C61	C	1.027007	0.190654	0.576659
C62	C	1.527007	0.690654	1.076659
C63	C	1.026994	0.190649	0.423325
C64	C	1.526994	0.690649	0.923325
H65	H	1.203211	0.014578	0.639063
H66	H	1.703211	0.514578	1.139063
H67	H	0.976031	0.241595	0.639097
H68	H	1.476031	0.741595	1.139097
O69	O	0.959449	0.258131	0.340646
O70	O	1.459449	0.758131	0.840646
H71	H	0.914560	0.219193	0.270830
H72	H	1.414560	0.719193	0.770830
H73	H	1.203199	0.014577	0.360896
H74	H	1.703199	0.514577	0.860896
