data_functionalizedCrystal
_audit_creation_method	'MofGen! by Chris Wilmer'
_symmetry_space_group_name_H-M	'P1'
_symmetry_Int_Tables_number	1
_symmetry_cell_setting	triclinic
loop_
_symmetry_equiv_pos_as_xyz
  x,y,z
_cell_length_a	21.395364
_cell_length_b	18.101397
_cell_length_c	21.395355
_cell_angle_alpha	89.980066
_cell_angle_beta	89.975484
_cell_angle_gamma	90.016230
loop_
_atom_site_label
_atom_site_type_symbol
_atom_site_fract_x
_atom_site_fract_y
_atom_site_fract_z
Zn1	Zn	0.957904	-0.294999	-0.354255
Zn2	Zn	1.207904	-0.044999	-0.104255
Zn3	Zn	1.457904	0.205001	0.145745
Zn4	Zn	1.707904	0.455001	0.395745
Zn5	Zn	0.957825	-0.418822	-0.249475
Zn6	Zn	1.207825	-0.168822	0.000525
Zn7	Zn	1.457825	0.081178	0.250525
Zn8	Zn	1.707825	0.331178	0.500525
Zn9	Zn	0.853119	-0.294990	-0.249491
Zn10	Zn	1.103119	-0.044990	0.000509
Zn11	Zn	1.353119	0.205010	0.250509
Zn12	Zn	1.603119	0.455010	0.500509
Zn13	Zn	0.853107	-0.418794	-0.354215
Zn14	Zn	1.103107	-0.168794	-0.104215
Zn15	Zn	1.353107	0.081206	0.145785
Zn16	Zn	1.603107	0.331206	0.395785
O17	O	0.905488	-0.356901	-0.301859
O18	O	1.155488	-0.106901	-0.051859
O19	O	1.405488	0.143099	0.198141
O20	O	1.655488	0.393099	0.448141
O21	O	1.045571	-0.311440	-0.340365
O22	O	1.295571	-0.061440	-0.090365
O23	O	1.545571	0.188560	0.159635
O24	O	1.795571	0.438560	0.409635
O25	O	0.943907	-0.402404	-0.161799
O26	O	1.193907	-0.152404	0.088201
O27	O	1.443907	0.097596	0.338201
O28	O	1.693907	0.347596	0.588201
O29	O	0.867057	-0.191358	-0.263412
O30	O	1.117057	0.058642	-0.013412
O31	O	1.367057	0.308642	0.236588
O32	O	1.617057	0.558642	0.486588
O33	O	1.045513	-0.402412	-0.263383
O34	O	1.295513	-0.152412	-0.013383
O35	O	1.545513	0.097588	0.236617
O36	O	1.795513	0.347588	0.486617
O37	O	0.944042	-0.191365	-0.340381
O38	O	1.194042	0.058635	-0.090381
O39	O	1.444042	0.308635	0.159619
O40	O	1.694042	0.558635	0.409619
O41	O	0.866980	-0.311425	-0.161811
O42	O	1.116980	-0.061425	0.088189
O43	O	1.366980	0.188575	0.338189
O44	O	1.616980	0.438575	0.588189
O45	O	0.765439	-0.311397	-0.263374
O46	O	1.015439	-0.061397	-0.013374
O47	O	1.265439	0.188603	0.236626
O48	O	1.515439	0.438603	0.486626
O49	O	0.867036	-0.402364	-0.441898
O50	O	1.117036	-0.152364	-0.191898
O51	O	1.367036	0.097636	0.058102
O52	O	1.617036	0.347636	0.308102
O53	O	0.765430	-0.402356	-0.340313
O54	O	1.015430	-0.152356	-0.090313
O55	O	1.265430	0.097644	0.159687
O56	O	1.515430	0.347644	0.409687
O57	O	0.944030	-0.311413	-0.441927
O58	O	1.194030	-0.061413	-0.191927
O59	O	1.444030	0.188587	0.058073
O60	O	1.694030	0.438587	0.308073
O61	O	0.943896	-0.522451	-0.263345
O62	O	1.193896	-0.272451	-0.013345
O63	O	1.443896	-0.022451	0.236655
O64	O	1.693896	0.227549	0.486655
O65	O	0.866960	-0.522431	-0.340297
O66	O	1.116960	-0.272431	-0.090297
O67	O	1.366960	-0.022431	0.159703
O68	O	1.616960	0.227569	0.409703
C69	C	0.742701	-0.356873	-0.301841
C70	C	0.992701	-0.106873	-0.051841
C71	C	1.242701	0.143127	0.198159
C72	C	1.492701	0.393127	0.448159
C73	C	0.673060	-0.356879	-0.301849
C74	C	0.923060	-0.106879	-0.051849
C75	C	1.173060	0.143121	0.198151
C76	C	1.423060	0.393121	0.448151
C77	C	0.171293	-0.309644	-0.342017
C78	C	0.421293	-0.059644	-0.092017
C79	C	0.671293	0.190356	0.157983
C80	C	0.921293	0.440356	0.407983
C81	C	0.236728	-0.309638	-0.342017
C82	C	0.486728	-0.059638	-0.092017
C83	C	0.736728	0.190362	0.157983
C84	C	0.986728	0.440362	0.407983
C85	C	0.269421	-0.356924	-0.301873
C86	C	0.519421	-0.106924	-0.051873
C87	C	0.769421	0.143076	0.198127
C88	C	1.019421	0.393076	0.448127
C89	C	0.236673	-0.404232	-0.261737
C90	C	0.486673	-0.154232	-0.011737
C91	C	0.736673	0.095768	0.238263
C92	C	0.986673	0.345768	0.488263
C93	C	0.171239	-0.404242	-0.261743
C94	C	0.421239	-0.154242	-0.011743
C95	C	0.671239	0.095758	0.238257
C96	C	0.921239	0.345758	0.488257
C97	C	0.373059	-0.362659	-0.245406
C98	C	0.623059	-0.112659	0.004594
C99	C	0.873059	0.137341	0.254594
C100	C	1.123059	0.387341	0.504594
C101	C	0.438492	-0.362644	-0.245399
C102	C	0.688492	-0.112644	0.004601
C103	C	0.938492	0.137356	0.254601
C104	C	1.188492	0.387356	0.504601
C105	C	0.471242	-0.356899	-0.301856
C106	C	0.721242	-0.106899	-0.051856
C107	C	0.971242	0.143101	0.198144
C108	C	1.221242	0.393101	0.448144
C109	C	0.438551	-0.351154	-0.358321
C110	C	0.688551	-0.101154	-0.108321
C111	C	0.938551	0.148846	0.141679
C112	C	1.188551	0.398846	0.391679
C113	C	0.373117	-0.351163	-0.358327
C114	C	0.623117	-0.101163	-0.108327
C115	C	0.873117	0.148837	0.141673
C116	C	1.123117	0.398837	0.391673
C117	C	0.340374	-0.356919	-0.301863
C118	C	0.590374	-0.106919	-0.051863
C119	C	0.840374	0.143081	0.198137
C120	C	1.090374	0.393081	0.448137
C121	C	0.574935	-0.309592	-0.341992
C122	C	0.824935	-0.059592	-0.091992
C123	C	1.074935	0.190408	0.158008
C124	C	1.324935	0.440408	0.408008
C125	C	0.640371	-0.309592	-0.341993
C126	C	0.890371	-0.059592	-0.091993
C127	C	1.140371	0.190408	0.158007
C128	C	1.390371	0.440408	0.408007
C129	C	0.640315	-0.404182	-0.261707
C130	C	0.890315	-0.154182	-0.011707
C131	C	1.140315	0.095818	0.238293
C132	C	1.390315	0.345818	0.488293
C133	C	0.574880	-0.404186	-0.261712
C134	C	0.824880	-0.154186	-0.011712
C135	C	1.074880	0.095814	0.238288
C136	C	1.324880	0.345814	0.488288
C137	C	0.542193	-0.356887	-0.301853
C138	C	0.792193	-0.106887	-0.051853
C139	C	1.042193	0.143113	0.198147
C140	C	1.292193	0.393113	0.448147
C141	C	0.905435	-0.549312	-0.301828
C142	C	1.155435	-0.299312	-0.051828
C143	C	1.405435	-0.049312	0.198172
C144	C	1.655435	0.200688	0.448172
C145	C	0.905469	-0.631626	-0.301836
C146	C	1.155469	-0.381626	-0.051836
C147	C	1.405469	-0.131626	0.198164
C148	C	1.655469	0.118374	0.448164
C149	C	0.905549	-0.930717	-0.301894
C150	C	1.155549	-0.680717	-0.051894
C151	C	1.405549	-0.430717	0.198106
C152	C	1.655549	-0.180717	0.448106
C153	C	0.953820	-0.899374	-0.253348
C154	C	1.203820	-0.649374	-0.003348
C155	C	1.453820	-0.399374	0.246652
C156	C	1.703820	-0.149374	0.496652
C157	C	0.953987	-0.813755	-0.253473
C158	C	1.203987	-0.563755	-0.003473
C159	C	1.453987	-0.313755	0.246527
C160	C	1.703987	-0.063755	0.496527
C161	C	0.905510	-0.782334	-0.301865
C162	C	1.155510	-0.532334	-0.051865
C163	C	1.405510	-0.282334	0.198135
C164	C	1.655510	-0.032334	0.448135
C165	C	0.923415	-0.813358	-0.367907
C166	C	1.173415	-0.563358	-0.117907
C167	C	1.423415	-0.313358	0.132093
C168	C	1.673415	-0.063358	0.382093
C169	C	0.923788	-0.899003	-0.367643
C170	C	1.173788	-0.649003	-0.117643
C171	C	1.423788	-0.399003	0.132357
C172	C	1.673788	-0.149003	0.382357
C173	C	0.839244	-0.899216	-0.284968
C174	C	1.089244	-0.649216	-0.034968
C175	C	1.339244	-0.399216	0.215032
C176	C	1.589244	-0.149216	0.465032
C177	C	0.839571	-0.813567	-0.283494
C178	C	1.089571	-0.563567	-0.033494
C179	C	1.339571	-0.313567	0.216506
C180	C	1.589571	-0.063567	0.466506
C181	C	0.905486	-0.698475	-0.301852
C182	C	1.155486	-0.448475	-0.051852
C183	C	1.405486	-0.198475	0.198148
C184	C	1.655486	0.051525	0.448148
C185	C	0.905574	-1.014576	-0.301910
C186	C	1.155574	-0.764576	-0.051910
C187	C	1.405574	-0.514576	0.198090
C188	C	1.655574	-0.264576	0.448090
C189	C	1.068912	-0.356930	-0.301877
C190	C	1.318912	-0.106930	-0.051877
C191	C	1.568912	0.143070	0.198123
C192	C	1.818912	0.393070	0.448123
C193	C	1.138553	-0.356943	-0.301884
C194	C	1.388553	-0.106943	-0.051884
C195	C	1.638553	0.143057	0.198116
C196	C	1.888553	0.393057	0.448116
C197	C	0.905540	-0.356886	-0.465282
C198	C	1.155540	-0.106886	-0.215282
C199	C	1.405540	0.143114	0.034718
C200	C	1.655540	0.393114	0.284718
C201	C	0.905563	-0.356880	-0.534923
C202	C	1.155563	-0.106880	-0.284923
C203	C	1.405563	0.143120	-0.034923
C204	C	1.655563	0.393120	0.215077
C205	C	0.905559	-0.163739	-0.301903
C206	C	1.155559	0.086261	-0.051903
C207	C	1.405559	0.336261	0.198097
C208	C	1.655559	0.586261	0.448097
C209	C	0.905589	-0.081425	-0.301922
C210	C	1.155589	0.168575	-0.051922
C211	C	1.405589	0.418575	0.198078
C212	C	1.655589	0.668575	0.448078
C213	C	0.945652	-0.309519	-0.567653
C214	C	1.195652	-0.059519	-0.317653
C215	C	1.445652	0.190481	-0.067653
C216	C	1.695652	0.440481	0.182347
C217	C	0.945651	-0.309488	-0.633088
C218	C	1.195651	-0.059488	-0.383088
C219	C	1.445651	0.190512	-0.133088
C220	C	1.695651	0.440512	0.116912
C221	C	0.905567	-0.356830	-0.665792
C222	C	1.155567	-0.106830	-0.415792
C223	C	1.405567	0.143170	-0.165792
C224	C	1.655567	0.393170	0.084208
C225	C	0.865471	-0.404193	-0.633055
C226	C	1.115471	-0.154193	-0.383055
C227	C	1.365471	0.095807	-0.133055
C228	C	1.615471	0.345807	0.116945
C229	C	0.865468	-0.404219	-0.567620
C230	C	1.115468	-0.154219	-0.317620
C231	C	1.365468	0.095781	-0.067620
C232	C	1.615468	0.345781	0.182380
C233	C	0.900602	-0.423510	-0.769456
C234	C	1.150602	-0.173510	-0.519456
C235	C	1.400602	0.076490	-0.269456
C236	C	1.650602	0.326490	-0.019456
C237	C	0.900608	-0.423487	-0.834889
C238	C	1.150608	-0.173487	-0.584889
C239	C	1.400608	0.076513	-0.334889
C240	C	1.650608	0.326513	-0.084889
C241	C	0.905571	-0.356751	-0.867613
C242	C	1.155571	-0.106751	-0.617613
C243	C	1.405571	0.143249	-0.367613
C244	C	1.655571	0.393249	-0.117613
C245	C	0.910541	-0.290038	-0.834895
C246	C	1.160541	-0.040038	-0.584895
C247	C	1.410541	0.209962	-0.334895
C248	C	1.660541	0.459962	-0.084895
C249	C	0.910538	-0.290063	-0.769461
C250	C	1.160538	-0.040063	-0.519461
C251	C	1.410538	0.209937	-0.269461
C252	C	1.660538	0.459937	-0.019461
C253	C	0.905565	-0.356807	-0.736744
C254	C	1.155565	-0.106807	-0.486744
C255	C	1.405565	0.143193	-0.236744
C256	C	1.655565	0.393193	0.013256
C257	C	0.945662	-0.309352	-0.971295
C258	C	1.195662	-0.059352	-0.721295
C259	C	1.445662	0.190648	-0.471295
C260	C	1.695662	0.440648	-0.221295
C261	C	0.945656	-0.309319	-1.036731
C262	C	1.195656	-0.059319	-0.786731
C263	C	1.445656	0.190681	-0.536731
C264	C	1.695656	0.440681	-0.286731
C265	C	0.865479	-0.404032	-1.036696
C266	C	1.115479	-0.154032	-0.786696
C267	C	1.365479	0.095968	-0.536696
C268	C	1.615479	0.345968	-0.286696
C269	C	0.865481	-0.404058	-0.971261
C270	C	1.115481	-0.154058	-0.721261
C271	C	1.365481	0.095942	-0.471261
C272	C	1.615481	0.345942	-0.221261
C273	C	0.905576	-0.356719	-0.938564
C274	C	1.155576	-0.106719	-0.688564
C275	C	1.405576	0.143281	-0.438564
C276	C	1.655576	0.393281	-0.188564
C277	C	0.905473	-0.356863	-0.139071
C278	C	1.155473	-0.106863	0.110929
C279	C	1.405473	0.143137	0.360929
C280	C	1.655473	0.393137	0.610929
C281	C	0.905572	-0.356661	-0.069430
C282	C	1.155572	-0.106661	0.180570
C283	C	1.405572	0.143339	0.430570
C284	C	1.655572	0.393339	0.680570
H285	H	0.346503	-0.346487	-0.404303
H286	H	0.596503	-0.096487	-0.154303
H287	H	0.846503	0.153513	0.095697
H288	H	1.096503	0.403513	0.345697
F289	F	0.675215	-0.259252	-0.384714
F290	F	0.925215	-0.009252	-0.134714
F291	F	1.175215	0.240748	0.115286
F292	F	1.425215	0.490748	0.365286
F293	F	1.018184	-0.786909	-0.268113
F294	F	1.268184	-0.536909	-0.018113
F295	F	1.518184	-0.286909	0.231887
F296	F	1.768184	-0.036909	0.481887
F297	F	0.915823	-0.219064	-0.734643
F298	F	1.165823	0.030936	-0.484643
F299	F	1.415823	0.280936	-0.234643
F300	F	1.665823	0.530936	0.015357
H301	H	1.002667	-0.920849	-0.264417
H302	H	1.252667	-0.670849	-0.014417
H303	H	1.502667	-0.420849	0.235583
H304	H	1.752667	-0.170849	0.485583
F305	F	0.822809	-0.454576	-0.667861
F306	F	1.072809	-0.204576	-0.417861
F307	F	1.322809	0.045424	-0.167861
F308	F	1.572809	0.295424	0.082139
F309	F	0.987137	-0.925050	-0.386381
F310	F	1.237137	-0.675050	-0.136381
F311	F	1.487137	-0.425050	0.113619
F312	F	1.737137	-0.175050	0.363619
F313	F	0.988334	-0.258917	-1.071564
F314	F	1.238334	-0.008917	-0.821564
F315	F	1.488334	0.241083	-0.571564
F316	F	1.738334	0.491083	-0.321564
F317	F	0.790031	-0.785620	-0.326325
F318	F	1.040031	-0.535620	-0.076325
F319	F	1.290031	-0.285620	0.173675
F320	F	1.540031	-0.035620	0.423675
F321	F	0.792234	-0.925712	-0.331182
F322	F	1.042234	-0.675712	-0.081182
F323	F	1.292234	-0.425712	0.168818
F324	F	1.542234	-0.175712	0.418818
F325	F	0.675105	-0.454512	-0.218987
F326	F	0.925105	-0.204512	0.031013
F327	F	1.175105	0.045488	0.281013
F328	F	1.425105	0.295488	0.531013
F329	F	0.817954	-0.927513	-0.223114
F330	F	1.067954	-0.677513	0.026886
F331	F	1.317954	-0.427513	0.276886
F332	F	1.567954	-0.177513	0.526886
F333	F	0.988321	-0.259134	-0.532858
F334	F	1.238321	-0.009134	-0.282858
F335	F	1.488321	0.240866	-0.032858
F336	F	1.738321	0.490866	0.217142
H337	H	0.465215	-0.346472	-0.404293
H338	H	0.715215	-0.096472	-0.154293
H339	H	0.965215	0.153528	0.095707
H340	H	1.215215	0.403528	0.345707
H341	H	0.346399	-0.367340	-0.199429
H342	H	0.596399	-0.117340	0.050571
H343	H	0.846399	0.132660	0.300571
H344	H	1.096399	0.382660	0.550571
F345	F	0.271468	-0.454559	-0.219015
F346	F	0.521468	-0.204559	0.030985
F347	F	0.771468	0.045441	0.280985
F348	F	1.021468	0.295441	0.530985
F349	F	0.271580	-0.259293	-0.384733
F350	F	0.521580	-0.009293	-0.134733
F351	F	0.771580	0.240707	0.115267
F352	F	1.021580	0.490707	0.365267
H353	H	0.548320	-0.271078	-0.374677
H354	H	0.798320	-0.021078	-0.124677
H355	H	1.048320	0.228922	0.125323
H356	H	1.298320	0.478922	0.375323
H357	H	0.826071	-0.793296	-0.234892
H358	H	1.076071	-0.543296	0.015108
H359	H	1.326071	-0.293296	0.265108
H360	H	1.576071	-0.043296	0.515108
H361	H	0.465103	-0.367318	-0.199421
H362	H	0.715103	-0.117318	0.050579
H363	H	0.965103	0.132682	0.300579
H364	H	1.215103	0.382682	0.550579
F365	F	0.136509	-0.259309	-0.384743
F366	F	0.386509	-0.009309	-0.134743
F367	F	0.636509	0.240691	0.115257
F368	F	0.886509	0.490691	0.365257
F369	F	0.540034	-0.454519	-0.218988
F370	F	0.790034	-0.204519	0.031012
F371	F	1.040034	0.045481	0.281012
F372	F	1.290034	0.295481	0.531012
H373	H	0.978295	-0.270917	-0.659742
H374	H	1.228295	-0.020917	-0.409742
H375	H	1.478295	0.229083	-0.159742
H376	H	1.728295	0.479083	0.090258
F377	F	0.136394	-0.454584	-0.219024
F378	F	0.386394	-0.204584	0.030976
F379	F	0.636394	0.045416	0.280976
F380	F	0.886394	0.295416	0.530976
H381	H	0.896566	-0.477809	-0.861522
H382	H	1.146566	-0.227809	-0.611522
H383	H	1.396566	0.022191	-0.361522
H384	H	1.646566	0.272191	-0.111522
F385	F	0.879824	-0.926103	-0.416528
F386	F	1.129824	-0.676103	-0.166528
F387	F	1.379824	-0.426103	0.083472
F388	F	1.629824	-0.176103	0.333472
F389	F	0.878863	-0.786762	-0.416457
F390	F	1.128863	-0.536762	-0.166457
F391	F	1.378863	-0.286762	0.083543
F392	F	1.628863	-0.036762	0.333543
H393	H	0.942785	-0.792782	-0.204504
H394	H	1.192785	-0.542782	0.045496
H395	H	1.442785	-0.292782	0.295496
H396	H	1.692785	-0.042782	0.545496
H397	H	0.914583	-0.235696	-0.861538
H398	H	1.164583	0.014304	-0.611538
H399	H	1.414583	0.264304	-0.361538
H400	H	1.664583	0.514304	-0.111538
F401	F	0.822798	-0.454628	-0.532786
F402	F	1.072798	-0.204628	-0.282786
F403	F	1.322798	0.045372	-0.032786
F404	F	1.572798	0.295372	0.217214
F405	F	0.939359	-0.926344	-0.189148
F406	F	1.189359	-0.676344	0.060852
F407	F	1.439359	-0.426344	0.310852
F408	F	1.689359	-0.176344	0.560852
F409	F	0.986055	-0.785258	-0.386965
F410	F	1.236055	-0.535258	-0.136965
F411	F	1.486055	-0.285258	0.113035
F412	F	1.736055	-0.035258	0.363035
F413	F	0.988330	-0.258968	-0.936494
F414	F	1.238330	-0.008968	-0.686494
F415	F	1.488330	0.241032	-0.436494
F416	F	1.738330	0.491032	-0.186494
H417	H	0.832836	-0.442571	-1.063323
H418	H	1.082836	-0.192571	-0.813323
H419	H	1.332836	0.057429	-0.563323
H420	H	1.582836	0.307429	-0.313323
F421	F	0.822815	-0.454469	-0.936427
F422	F	1.072815	-0.204469	-0.686427
F423	F	1.322815	0.045531	-0.436427
F424	F	1.572815	0.295531	-0.186427
H425	H	0.896393	-0.477840	-0.742818
H426	H	1.146393	-0.227840	-0.492818
H427	H	1.396393	0.022160	-0.242818
H428	H	1.646393	0.272160	0.007182
