data_functionalizedCrystal
_audit_creation_method	'MofGen! by Chris Wilmer'
_symmetry_space_group_name_H-M	'P1'
_symmetry_Int_Tables_number	1
_symmetry_cell_setting	triclinic
loop_
_symmetry_equiv_pos_as_xyz
  x,y,z
_cell_length_a	27.732064
_cell_length_b	27.732025
_cell_length_c	16.098538
_cell_angle_alpha	92.714342
_cell_angle_beta	87.291500
_cell_angle_gamma	82.641446
loop_
_atom_site_label
_atom_site_type_symbol
_atom_site_fract_x
_atom_site_fract_y
_atom_site_fract_z
O1	O	0.643092	0.055385	-0.069083
O2	O	0.502300	0.064121	-0.069114
O3	O	0.577076	-0.010645	-0.069123
O4	O	0.568317	0.130151	-0.069074
O5	O	0.572708	-0.006295	0.069391
O6	O	0.497933	0.068472	0.069400
O7	O	0.638725	0.059735	0.069430
Zn8	Zn	0.567635	0.064794	0.091407
Zn9	Zn	0.573390	0.059062	-0.091090
O10	O	0.563949	0.134502	0.069439
C11	C	0.482110	0.066112	0.000139
C12	C	0.428456	0.065555	0.000126
C13	C	0.574710	-0.026477	0.000126
C14	C	0.574162	-0.080133	0.000101
C15	C	0.051386	0.017588	0.000156
C16	C	0.253047	0.019634	0.000135
O17	O	0.284302	-0.017587	0.000154
N18	N	0.272170	0.063969	0.000147
C19	C	0.240875	0.107796	0.000169
O20	O	0.261768	0.145553	0.000187
C21	C	0.039215	0.105750	0.000196
C22	C	0.020095	0.061412	0.000176
C23	C	0.032265	-0.026746	0.000137
C24	C	-0.018147	-0.027257	0.000138
C25	C	-0.049438	0.016566	0.000158
C26	C	-0.030317	0.060901	0.000177
C27	C	0.007920	0.149577	0.000225
C28	C	-0.042497	0.149062	0.000233
C29	C	-0.061617	0.104723	0.000213
C30	C	-0.112021	0.104213	0.000197
N31	N	-0.131144	0.059878	0.000186
C32	C	-0.099853	0.016055	0.000166
C33	C	0.346750	0.108867	0.000154
C34	C	0.397165	0.109379	0.000145
C35	C	0.409333	0.021216	0.000113
C36	C	0.358917	0.020705	0.000115
C37	C	0.327626	0.064532	0.000142
C38	C	-0.205722	0.014985	0.000167
C39	C	-0.256139	0.014477	0.000164
C40	C	-0.268303	0.102640	0.000201
C41	C	-0.217891	0.103147	0.000199
C42	C	-0.186601	0.059316	0.000185
O43	O	-0.143304	0.141415	0.000189
O44	O	-0.120756	-0.021696	0.000166
C45	C	0.101798	0.018100	0.000156
C46	C	0.120919	0.062434	0.000175
C47	C	0.089628	0.106258	0.000195
C48	C	0.171334	0.062946	0.000167
C49	C	0.202625	0.019122	0.000147
C50	C	0.183502	-0.025213	0.000135
C51	C	0.133089	-0.025724	0.000136
C52	C	0.108751	0.150593	0.000206
C53	C	0.159164	0.151100	0.000205
C54	C	0.190455	0.107277	0.000185
C55	C	0.572645	-0.465669	-0.075355
C56	C	0.574698	-0.264010	-0.075382
O57	O	0.577008	-0.239960	-0.139597
N58	N	0.572574	-0.236418	0.000120
C59	C	0.569939	-0.259243	0.075633
O60	O	0.568185	-0.231148	0.139851
C61	C	0.567890	-0.460902	0.075659
C62	C	0.570009	-0.488491	0.000152
C63	C	0.574765	-0.493259	-0.150855
C64	C	0.574249	-0.543670	-0.150848
C65	C	0.571613	-0.566492	-0.075340
C66	C	0.569493	-0.538902	0.000160
C67	C	0.565258	-0.483727	0.151171
C68	C	0.564747	-0.534145	0.151171
C69	C	0.566867	-0.561734	0.075665
C70	C	0.566341	-0.612135	0.075675
N71	N	0.568466	-0.639728	0.000173
C72	C	0.571101	-0.616906	-0.075334
C73	C	0.571015	-0.153370	0.075615
C74	C	0.571526	-0.102955	0.075609
C75	C	0.576286	-0.107726	-0.075407
C76	C	0.575771	-0.158141	-0.075400
C77	C	0.573139	-0.180962	0.000113
C78	C	0.570017	-0.722773	-0.075313
C79	C	0.569499	-0.773188	-0.075299
C80	C	0.564742	-0.768414	0.075716
C81	C	0.565257	-0.718002	0.075702
C82	C	0.567897	-0.695184	0.000181
O83	O	0.564038	-0.636219	0.139856
O84	O	0.572867	-0.645012	-0.139543
C85	C	0.573161	-0.415258	-0.075363
C86	C	0.571041	-0.387668	0.000138
C87	C	0.568405	-0.410490	0.075645
C88	C	0.571553	-0.337254	0.000132
C89	C	0.574188	-0.314432	-0.075376
C90	C	0.576313	-0.342025	-0.150878
C91	C	0.575797	-0.392436	-0.150870
C92	C	0.566281	-0.382898	0.151147
C93	C	0.566796	-0.332487	0.151133
C94	C	0.569432	-0.309665	0.075626
C95	C	0.658915	0.057745	0.000176
C96	C	0.712569	0.058301	0.000184
C97	C	0.566315	0.150334	0.000189
C98	C	0.566863	0.203990	0.000209
N99	N	0.563711	0.068706	0.215957
N100	N	0.577318	0.055147	-0.215640
C101	C	0.595460	0.036983	0.259538
C102	C	0.592720	0.039724	0.346727
C103	C	0.558232	0.074190	0.390334
C104	C	0.526480	0.105914	0.346746
C105	C	0.529218	0.103171	0.259559
C106	C	0.548304	0.084127	0.653585
C107	C	0.545569	0.086870	0.740779
C108	C	0.611809	0.020678	0.740754
C109	C	0.614546	0.017940	0.653564
C110	C	0.582792	0.049662	0.609984
C111	C	0.555431	0.076994	0.479455
C112	C	0.585591	0.046856	0.520865
H113	H	-0.271704	-0.021630	0.000145
H114	H	0.562604	-0.552723	0.212664
H115	H	0.576913	-0.474683	-0.212346
C116	C	0.571847	-0.803536	-0.158365
N117	N	0.573622	-0.826394	-0.220930
H118	H	0.522449	0.109958	0.618109
H119	H	0.498396	0.133976	0.382256
H120	H	0.623546	0.008919	0.224039
H121	H	0.503364	0.129002	0.224076
C122	C	0.623522	0.008940	0.472895
N123	N	0.652092	-0.019618	0.436756
H124	H	0.563512	-0.695535	0.137186
H125	H	0.577496	-0.180601	-0.136884
C126	C	0.572917	-0.697680	-0.158390
N127	N	0.575097	-0.678779	-0.220964
H128	H	0.618572	0.013893	0.382211
C129	C	0.517492	0.114903	0.527431
N130	N	0.488914	0.143453	0.563570
H131	H	0.343353	-0.015399	0.000099
H132	H	0.563538	-0.461272	0.212657
H133	H	0.578455	-0.323434	-0.212359
H134	H	0.412728	0.145483	0.000150
H135	H	0.642629	-0.010125	0.618061
C136	C	0.646732	-0.014218	0.788698
N137	N	0.673036	-0.040505	0.824810
C138	C	0.564464	-0.302143	0.234202
N139	N	0.562711	-0.279291	0.296769
C140	C	-0.196858	0.151921	0.000212
N141	N	-0.181019	0.188658	0.000229
C142	C	0.180189	0.199880	0.000230
N143	N	0.196024	0.236619	0.000259
C144	C	0.576619	-0.574017	-0.233912
N145	N	0.578419	-0.596874	-0.296480
H146	H	0.023479	0.185682	0.000237
H147	H	0.578429	-0.089136	-0.136888
H148	H	-0.180252	-0.020707	0.000155
C149	C	0.569188	-0.072611	0.158671
N150	N	0.567430	-0.049759	0.221238
H151	H	0.517483	0.114938	0.776279
C152	C	0.578149	-0.422781	-0.233934
N153	N	0.579929	-0.445635	-0.296502
C154	C	0.217931	-0.073419	0.000118
N155	N	0.243866	-0.109725	0.000112
C156	C	-0.039173	-0.076033	0.000136
N157	N	-0.055006	-0.112773	0.000143
C158	C	-0.076915	0.197276	0.000260
N159	N	-0.102837	0.233591	0.000278
C160	C	0.066679	-0.074960	0.000112
N161	N	0.092597	-0.111278	0.000086
C162	C	0.312335	0.157084	0.000186
N163	N	0.286416	0.193401	0.000209
C164	C	-0.302733	0.150843	0.000228
N165	N	-0.328668	0.187151	0.000256
C166	C	0.443763	-0.026990	0.000098
N167	N	0.469697	-0.063296	0.000094
H168	H	0.568871	-0.171946	0.137110
H169	H	0.117527	-0.061829	0.000120
H170	H	0.562594	-0.787004	0.137192
C171	C	0.563376	-0.407994	0.234216
N172	N	0.561184	-0.426893	0.296789
C173	C	0.074337	0.198805	0.000233
N174	N	0.048417	0.235122	0.000251
