data_functionalizedCrystal
_audit_creation_method	'MofGen! by Chris Wilmer'
_symmetry_space_group_name_H-M	'P1'
_symmetry_Int_Tables_number	1
_symmetry_cell_setting	triclinic
loop_
_symmetry_equiv_pos_as_xyz
  x,y,z
_cell_length_a	19.188930
_cell_length_b	19.188905
_cell_length_c	17.666332
_cell_angle_alpha	90.016479
_cell_angle_beta	90.011603
_cell_angle_gamma	83.139668
loop_
_atom_site_label
_atom_site_type_symbol
_atom_site_fract_x
_atom_site_fract_y
_atom_site_fract_z
O1	O	-0.087086	-0.926161	-0.063081
O2	O	-0.098838	-0.722847	-0.063057
O3	O	0.008694	-0.830371	-0.063055
O4	O	-0.194618	-0.818637	-0.063083
O5	O	0.008700	-0.830352	0.062842
O6	O	-0.098832	-0.722828	0.062840
O7	O	-0.087080	-0.926142	0.062815
Cu8	Cu	-0.092956	-0.824483	0.074323
Cu9	Cu	-0.092962	-0.824506	-0.074565
O10	O	-0.194612	-0.818618	0.062814
C11	C	0.034708	-0.829982	-0.000104
C12	C	0.112213	-0.828841	-0.000098
C13	C	-0.098458	-0.696826	-0.000105
C14	C	-0.097324	-0.619321	-0.000095
C15	C	-0.087460	-0.952163	-0.000138
C16	C	-0.088594	-1.029668	-0.000153
C17	C	-0.220626	-0.819007	-0.000139
C18	C	-0.298131	-0.820148	-0.000150
C19	C	0.157142	-0.891933	-0.000102
C20	C	0.229966	-0.890861	-0.000114
C21	C	0.257857	-0.826694	-0.000107
C22	C	0.212917	-0.763594	-0.000107
C23	C	0.140095	-0.764668	-0.000102
N24	N	0.365859	-0.777640	0.042744
N25	N	0.435038	-0.776624	0.042742
C26	C	0.477265	-0.823456	-0.000122
N27	N	0.447702	-0.871352	-0.042973
N28	N	0.378517	-0.872369	-0.042967
C29	C	0.336819	-0.825523	-0.000112
C30	C	0.601159	-0.885390	-0.000140
C31	C	0.673984	-0.884315	-0.000156
C32	C	0.656933	-0.757047	-0.000142
C33	C	0.584110	-0.758123	-0.000133
C34	C	0.556228	-0.822296	-0.000128
C35	C	-0.096782	-0.582939	-0.068723
C36	C	-0.095709	-0.510116	-0.068732
C37	C	-0.095164	-0.473678	-0.000110
C38	C	-0.095709	-0.510068	0.068528
C39	C	-0.096789	-0.582889	0.068535
N40	N	-0.053733	-0.364650	0.050966
N41	N	-0.052705	-0.295473	0.050954
C42	C	-0.091911	-0.254272	-0.000127
N43	N	-0.132174	-0.284861	-0.051208
N44	N	-0.133199	-0.354045	-0.051199
C45	C	-0.093993	-0.394716	-0.000110
C46	C	-0.090207	-0.138926	-0.068770
C47	C	-0.089138	-0.066101	-0.068777
C48	C	-0.089131	-0.066055	0.068485
C49	C	-0.090207	-0.138879	0.068490
C50	C	-0.090742	-0.175310	-0.000140
N51	N	-0.092950	-0.824473	0.179042
N52	N	-0.092962	-0.824522	-0.179284
C53	C	-0.045358	-0.872100	0.218653
C54	C	-0.045355	-0.872104	0.297901
C55	C	-0.092956	-0.824488	0.337535
C56	C	-0.140552	-0.776852	0.297915
C57	C	-0.140549	-0.776844	0.218668
N58	N	-0.154764	-0.815411	0.461945
N59	N	-0.154764	-0.815422	0.537226
C60	C	-0.092966	-0.824506	0.576299
N61	N	-0.031164	-0.833592	0.537247
N62	N	-0.031165	-0.833584	0.461960
C63	C	-0.092964	-0.824490	0.423464
C64	C	-0.045366	-0.872140	0.701838
C65	C	-0.045361	-0.872139	0.781087
C66	C	-0.140564	-0.776890	0.781100
C67	C	-0.140562	-0.776888	0.701852
C68	C	-0.092964	-0.824516	0.662226
H69	H	0.134445	-0.944187	-0.000101
H70	H	-0.006598	-0.910889	0.330157
O71	O	-0.090780	-0.178223	-0.142791
H72	H	-0.091607	-0.234976	-0.131257
O73	O	0.005987	-0.923464	0.175919
H74	H	-0.023314	-0.957307	0.139796
H75	H	-0.097218	-0.612597	-0.124607
O76	O	0.535648	-0.690071	-0.000109
H77	H	0.545528	-0.659353	-0.051414
H78	H	-0.088691	-0.036388	0.124360
O79	O	0.687003	-0.687835	-0.000130
H80	H	0.745190	-0.697687	-0.000129
O81	O	0.005991	-0.923479	0.659083
H82	H	-0.023297	-0.957326	0.622950
O83	O	0.005977	-0.923511	0.823810
H84	H	-0.002013	-0.915509	0.885573
O85	O	-0.095123	-0.470768	0.142542
H86	H	-0.095687	-0.508303	0.190267
H87	H	-0.179308	-0.738081	0.330189
O88	O	-0.191888	-0.725479	0.175938
H89	H	-0.224991	-0.692369	0.216808
O90	O	0.091632	-0.696614	-0.000084
H91	H	0.101509	-0.665897	-0.051391
H92	H	0.578456	-0.937644	-0.000139
O93	O	-0.095111	-0.470863	-0.142755
H94	H	-0.095657	-0.508432	-0.190475
O95	O	0.242993	-0.694383	-0.000090
H96	H	0.301179	-0.704235	-0.000084
H97	H	-0.088702	-0.036479	-0.124664
O98	O	0.278440	-0.958911	-0.000108
H99	H	0.246817	-1.003714	-0.000098
O100	O	0.722450	-0.952367	-0.000154
H101	H	0.690823	-0.997168	-0.000141
O102	O	-0.097383	-0.622135	0.142558
H103	H	-0.096826	-0.584567	0.190277
H104	H	-0.090643	-0.168501	0.124374
O105	O	-0.191909	-0.725532	0.823835
H106	H	-0.183919	-0.733540	0.885595
H107	H	-0.179319	-0.738108	0.669599
