data_functionalizedCrystal
_audit_creation_method	'MofGen! by Chris Wilmer'
_symmetry_space_group_name_H-M	'P1'
_symmetry_Int_Tables_number	1
_symmetry_cell_setting	triclinic
loop_
_symmetry_equiv_pos_as_xyz
  x,y,z
_cell_length_a	14.853568
_cell_length_b	13.930277
_cell_length_c	14.853567
_cell_angle_alpha	90.000555
_cell_angle_beta	83.635059
_cell_angle_gamma	90.005027
loop_
_atom_site_label
_atom_site_type_symbol
_atom_site_fract_x
_atom_site_fract_y
_atom_site_fract_z
O1	O	-1.196369	-0.079760	-0.117706
O2	O	-0.933909	-0.079775	-0.131727
O3	O	-1.072150	-0.079770	0.006513
O4	O	-1.058128	-0.079765	-0.255946
O5	O	-1.072129	0.079892	0.006516
O6	O	-0.933889	0.079887	-0.131724
O7	O	-1.196348	0.079902	-0.117704
Zn8	Zn	-1.065115	0.105244	-0.124714
Zn9	Zn	-1.065142	-0.105117	-0.124717
O10	O	-1.058108	0.079897	-0.255944
C11	C	-0.900310	0.000054	-0.131090
C12	C	-0.800227	0.000048	-0.129186
N13	N	-1.065103	0.248810	-0.124711
C14	C	-1.071504	0.000058	0.040103
C15	C	-1.069600	0.000050	0.140187
C16	C	-0.387693	0.000069	-0.039019
C17	C	-0.366412	0.000072	-0.203252
C18	C	-0.460446	0.000068	-0.205043
C19	C	-0.518107	0.000064	-0.123820
C20	C	-0.481736	0.000063	-0.040807
C21	C	-0.496825	0.000059	-0.288054
C22	C	-0.590864	0.000055	-0.289848
C23	C	-0.648527	0.000058	-0.208624
C24	C	-0.612150	0.000058	-0.125608
C25	C	-0.669812	0.000054	-0.044385
C26	C	-0.633437	0.000061	0.038632
C27	C	-0.539399	0.000066	0.040416
C28	C	-0.742565	0.000052	-0.210409
C29	C	-0.763855	0.000047	-0.046173
C30	C	-0.229947	0.000072	-0.118340
C31	C	-0.330031	0.000073	-0.120242
C32	C	-1.003919	0.701077	-0.185909
C33	C	-1.126374	0.701051	-0.063525
C34	C	-1.126364	0.600555	-0.063521
C35	C	-1.065132	0.550316	-0.124714
C36	C	-1.003909	0.600572	-0.185909
C37	C	-1.187592	0.550291	-0.002333
C38	C	-1.187586	0.449790	-0.002328
C39	C	-1.126348	0.399548	-0.063517
C40	C	-1.065122	0.449811	-0.124714
C41	C	-1.003890	0.399572	-0.185906
C42	C	-0.942659	0.449832	-0.247100
C43	C	-0.942671	0.550331	-0.247098
C44	C	-1.126335	0.299050	-0.063519
C45	C	-1.003880	0.299067	-0.185907
N46	N	-1.065151	0.751317	-0.124717
C47	C	-1.058753	0.000067	-0.289534
C48	C	-1.060657	0.000069	-0.389617
C49	C	-0.979435	0.000063	0.552721
C50	C	-1.143667	0.000072	0.574002
C51	C	-1.145457	0.000067	0.479968
C52	C	-1.064235	0.000061	0.422306
C53	C	-0.981222	0.000060	0.458678
C54	C	-1.228469	0.000077	0.443589
C55	C	-1.230262	0.000072	0.349550
C56	C	-1.149039	0.000059	0.291886
C57	C	-1.066023	0.000058	0.328263
C58	C	-0.984800	0.000052	0.270602
C59	C	-0.901783	0.000044	0.306977
C60	C	-0.899999	0.000048	0.401015
C61	C	-1.150823	0.000056	0.197849
C62	C	-0.986588	0.000049	0.176559
H63	H	-0.810798	0.000048	0.019969
C64	C	-1.193724	0.756311	0.003781
H65	H	-1.184958	0.823363	-0.004981
H66	H	-1.253900	0.739827	-0.006116
H67	H	-1.183851	0.739848	0.063971
C68	C	-1.317807	0.000082	0.507011
H69	H	-1.367503	0.000095	0.471881
H70	H	-1.320529	-0.055596	0.544136
H71	H	-1.320512	0.055766	0.544137
H72	H	-0.509774	0.000094	0.108004
H73	H	-0.680397	0.000051	0.104763
H74	H	-0.358072	0.000079	0.028571
C75	C	-0.888121	0.000049	0.592724
H76	H	-0.840007	0.000037	0.544913
H77	H	-0.883995	0.055722	0.628970
H78	H	-0.884021	-0.055640	0.628961
H79	H	-1.218414	0.000069	0.168236
C80	C	-1.233004	0.000081	0.637426
H81	H	-1.220050	0.000078	0.698640
H82	H	-1.267033	0.055757	0.626384
H83	H	-1.267041	-0.055605	0.626392
C84	C	-0.302992	0.000066	-0.292592
H85	H	-0.338124	0.000058	-0.342286
H86	H	-0.265857	0.055741	-0.295310
H87	H	-0.265875	-0.055621	-0.295303
C88	C	-0.433403	0.000051	-0.377392
H89	H	-0.468533	0.000033	-0.427088
H90	H	-0.396272	0.055729	-0.380115
H91	H	-0.396281	-0.055633	-0.380097
H92	H	-1.237450	0.591200	0.047484
C93	C	-1.321572	0.000078	0.309539
H94	H	-1.311007	0.000080	0.245276
H95	H	-1.355030	-0.055595	0.329328
H96	H	-1.355008	0.055768	0.329320
C97	C	-1.193680	0.243762	0.003782
H98	H	-1.184908	0.176713	-0.004984
H99	H	-1.183827	0.260238	0.063971
H100	H	-1.253860	0.260218	-0.006132
H101	H	-1.237442	0.408874	0.047500
C102	C	-0.808689	0.000040	0.441026
H103	H	-0.760570	0.000025	0.393219
H104	H	-0.804569	0.055718	0.477266
H105	H	-0.804591	-0.055645	0.477269
H106	H	-0.620472	0.000049	-0.357445
H107	H	-0.920445	0.000040	0.129616
C108	C	-0.812441	0.000039	0.243548
H109	H	-0.762743	0.000040	0.278675
H110	H	-0.809738	-0.055636	0.206418
H111	H	-0.809722	0.055726	0.206426
C112	C	-0.782580	0.000042	-0.301712
H113	H	-0.846843	0.000033	-0.291146
H114	H	-0.762792	0.055716	-0.335166
H115	H	-0.762800	-0.055647	-0.335153
C116	C	-0.936524	0.243811	-0.253222
H117	H	-0.900067	0.288140	-0.289667
H118	H	-0.898957	0.204609	-0.220724
H119	H	-0.969002	0.204605	-0.290817
C120	C	-0.875308	0.394567	-0.314412
H121	H	-0.838846	0.438888	-0.350862
H122	H	-0.837745	0.355363	-0.281912
H123	H	-0.907791	0.355362	-0.352004
H124	H	-0.892820	0.591260	-0.296921
H125	H	-0.954063	0.742002	-0.235730
