data_functionalizedCrystal
_audit_creation_method	'MofGen! by Chris Wilmer'
_symmetry_space_group_name_H-M	'P1'
_symmetry_Int_Tables_number	1
_symmetry_cell_setting	triclinic
loop_
_symmetry_equiv_pos_as_xyz
  x,y,z
_cell_length_a	14.971486
_cell_length_b	11.792241
_cell_length_c	13.448316
_cell_angle_alpha	89.993264
_cell_angle_beta	89.998199
_cell_angle_gamma	83.903772
loop_
_atom_site_label
_atom_site_type_symbol
_atom_site_fract_x
_atom_site_fract_y
_atom_site_fract_z
O1	O	1.187540	0.147909	-0.082578
O2	O	0.927211	0.165622	-0.082605
O3	O	1.063693	-0.008446	-0.082584
O4	O	1.051058	0.321977	-0.082599
O5	O	1.063676	-0.008456	0.082800
O6	O	0.927194	0.165611	0.082779
O7	O	1.187523	0.147899	0.082806
Cu8	Cu	1.057357	0.156754	0.097893
Cu9	Cu	1.057377	0.156767	-0.097692
O10	O	1.051041	0.321966	0.082785
C11	C	0.893874	0.164824	0.000084
C12	C	0.794568	0.162451	0.000073
C13	C	0.737752	0.264710	0.000070
C14	C	0.644444	0.262473	0.000085
C15	C	0.607953	0.157975	0.000096
C16	C	0.664776	0.055707	0.000102
C17	C	0.758082	0.057946	0.000095
C18	C	0.470294	0.051049	0.000116
C19	C	0.376981	0.048810	0.000122
C20	C	0.356656	0.255577	0.000107
C21	C	0.449963	0.257815	0.000099
C22	C	0.506779	0.155547	0.000103
C23	C	1.062891	-0.050737	0.000108
C24	C	1.060515	-0.176735	0.000107
C25	C	1.056147	-0.407419	0.000089
C26	C	1.058574	-0.279050	0.000099
C27	C	1.220859	0.148696	0.000115
C28	C	1.320166	0.151070	0.000119
C29	C	1.051843	0.364257	0.000091
C30	C	1.054218	0.490256	0.000086
N31	N	1.057349	0.156744	0.235458
N32	N	1.057392	0.156767	-0.235257
C33	C	1.117802	0.079699	0.287507
C34	C	1.117808	0.079698	0.391611
C35	C	1.057363	0.156749	0.443662
C36	C	0.996904	0.233798	0.391605
C37	C	0.996895	0.233792	0.287504
C38	C	0.996929	0.233805	0.608585
C39	C	0.996939	0.233813	0.712694
C40	C	1.117842	0.079711	0.712692
C41	C	1.117832	0.079706	0.608591
C42	C	1.057374	0.156756	0.556541
H43	H	0.598187	0.345744	0.000081
H44	H	1.167026	0.016960	0.245134
H45	H	0.947684	0.296530	0.433992
C46	C	0.819814	-0.053046	0.000299
C47	C	0.873961	-0.057820	0.085395
C48	C	0.930830	-0.160058	0.085628
H49	H	0.856718	-0.056578	-0.057308
H50	H	0.784750	-0.115635	0.000358
H51	H	0.909022	0.004752	0.085326
H52	H	0.837081	-0.054307	0.143016
H53	H	0.895765	-0.222646	0.085688
H54	H	0.967728	-0.163581	0.028017
H55	H	0.967569	-0.163315	0.143369
H56	H	0.947693	0.296545	0.566210
C57	C	0.489626	0.371241	-0.000137
C58	C	0.542569	0.378568	-0.085249
C59	C	0.579108	0.483049	-0.085511
H60	H	0.525671	0.376538	0.057460
H61	H	0.442445	0.431855	-0.000196
H62	H	0.589744	0.317971	-0.085181
H63	H	0.506544	0.373292	-0.142859
H64	H	0.531927	0.543663	-0.085570
H65	H	0.615149	0.488336	-0.027911
H66	H	0.615027	0.488038	-0.143263
H67	H	0.310391	0.338847	0.000108
H68	H	0.947666	0.296529	0.245126
C69	C	1.183344	-0.003906	0.551887
C70	C	1.238412	0.056457	0.491960
C71	C	1.298680	-0.020593	0.439659
H72	H	1.150815	-0.051090	0.511302
H73	H	1.219416	-0.049925	0.597651
H74	H	1.202345	0.102457	0.446201
H75	H	1.270960	0.103637	0.532520
H76	H	1.334752	-0.066612	0.485423
H77	H	1.266144	-0.067773	0.399081
H78	H	1.336056	0.020352	0.399000
C79	C	0.531833	-0.060108	0.000063
C80	C	0.479908	-0.152103	0.000042
C81	C	0.536566	-0.254514	-0.000028
H82	H	0.568680	-0.063705	0.057715
H83	H	0.568636	-0.063584	-0.057638
H84	H	0.443121	-0.148629	0.057738
H85	H	0.443063	-0.148544	-0.057605
H86	H	0.573369	-0.257990	-0.057730
H87	H	0.573411	-0.258100	0.057625
H88	H	0.501344	-0.316945	-0.000052
C89	C	0.777242	0.378252	-0.000098
C90	C	0.748387	0.440095	-0.085172
C91	C	0.784733	0.544704	-0.085351
H92	H	0.840948	0.365107	-0.000155
H93	H	0.757750	0.420419	0.057545
H94	H	0.767885	0.397937	-0.142800
H95	H	0.684687	0.453270	-0.085133
H96	H	0.765241	0.586871	-0.027708
H97	H	0.848438	0.531548	-0.085406
H98	H	0.765154	0.586682	-0.143067
C99	C	1.183441	-0.004129	0.769067
C100	C	1.168424	-0.115695	0.743739
C101	C	1.228847	-0.192950	0.795645
H102	H	1.174856	0.006741	0.838537
H103	H	1.243207	0.008264	0.751972
H104	H	1.108672	-0.128084	0.760841
H105	H	1.177015	-0.126602	0.674279
H106	H	1.288613	-0.180556	0.778549
H107	H	1.220257	-0.182069	0.865111
H108	H	1.218672	-0.268655	0.778460
H109	H	0.347274	-0.036282	0.000133
H110	H	0.635057	-0.029377	0.000126
H111	H	1.167032	0.016961	0.433989
H112	H	0.947718	0.296554	0.755069
