data_functionalizedCrystal
_audit_creation_method	'MofGen! by Chris Wilmer'
_symmetry_space_group_name_H-M	'P1'
_symmetry_Int_Tables_number	1
_symmetry_cell_setting	triclinic
loop_
_symmetry_equiv_pos_as_xyz
  x,y,z
_cell_length_a	15.021413
_cell_length_b	16.109301
_cell_length_c	16.109301
_cell_angle_alpha	83.461481
_cell_angle_beta	90.002593
_cell_angle_gamma	89.995406
loop_
_atom_site_label
_atom_site_type_symbol
_atom_site_fract_x
_atom_site_fract_y
_atom_site_fract_z
O1	O	0.073979	-1.103137	-0.106856
O2	O	0.573979	-0.603137	0.393144
O3	O	0.073993	-0.861075	-0.120155
O4	O	0.573993	-0.361075	0.379845
O5	O	0.073976	-0.988755	0.007525
O6	O	0.573976	-0.488755	0.507525
O7	O	0.073995	-0.975456	-0.234537
O8	O	0.573995	-0.475456	0.265463
O9	O	-0.074088	-0.988735	0.007507
O10	O	0.425912	-0.488735	0.507507
O11	O	-0.074071	-0.861054	-0.120174
O12	O	0.425929	-0.361054	0.379826
O13	O	-0.074086	-1.103116	-0.106874
O14	O	0.425914	-0.603116	0.393126
Zn15	Zn	-0.097587	-0.982082	-0.113527
Zn16	Zn	0.402413	-0.482082	0.386473
Zn17	Zn	0.097494	-0.982109	-0.113503
Zn18	Zn	0.597494	-0.482109	0.386497
O19	O	-0.074069	-0.975436	-0.234555
O20	O	0.425931	-0.475436	0.265445
C21	C	-0.000037	-0.830090	-0.119626
C22	C	0.499963	-0.330090	0.380374
C23	C	-0.000032	-0.737794	-0.118011
C24	C	0.499968	-0.237794	0.381989
C25	C	-0.000056	-0.988206	0.038491
C26	C	0.499944	-0.488206	0.538491
C27	C	-0.000057	-0.986591	0.130786
C28	C	0.499943	-0.486591	0.630786
N29	N	-0.230724	-0.982070	-0.113543
N30	N	0.269276	-0.482070	0.386457
C31	C	-0.470400	-0.923021	-0.172554
C32	C	0.029600	-0.423021	0.327446
C33	C	-0.529737	-0.998143	-0.188671
C34	C	-0.029737	-0.498143	0.311329
C35	C	-0.412331	-0.982091	-0.113522
C36	C	0.087669	-0.482091	0.386478
C37	C	-0.529735	-0.906990	-0.097424
C38	C	-0.029735	-0.406990	0.402576
C39	C	-0.587755	-0.982105	-0.113504
C40	C	-0.087755	-0.482105	0.386496
C41	C	-0.470362	-1.057251	-0.129676
C42	C	0.029638	-0.557251	0.370324
C43	C	-0.470355	-0.966048	-0.038396
C44	C	0.029645	-0.466048	0.461604
C45	C	-0.529666	-1.041224	-0.054481
C46	C	-0.029666	-0.541224	0.445519
C47	C	-0.311274	-0.982082	-0.113535
C48	C	0.188726	-0.482082	0.386465
C49	C	-0.688811	-0.982123	-0.113491
C50	C	-0.188811	-0.482123	0.386509
N51	N	0.230632	-0.982128	-0.113480
N52	N	0.730632	-0.482128	0.386520
C53	C	-0.000053	-1.134101	-0.107404
C54	C	0.499947	-0.634101	0.392596
C55	C	-0.000053	-1.226397	-0.109019
C56	C	0.499947	-0.726397	0.390981
C57	C	-0.000037	-0.515522	-0.190018
C58	C	0.499963	-0.015522	0.309982
C59	C	-0.000043	-0.428801	-0.188494
C60	C	0.499957	0.071199	0.311506
C61	C	-0.000051	-0.448676	-0.037006
C62	C	0.499949	0.051324	0.462994
C63	C	-0.000051	-0.535394	-0.038530
C64	C	0.499949	-0.035394	0.461470
C65	C	-0.000040	-0.568815	-0.115039
C66	C	0.499960	-0.068815	0.384961
C67	C	-0.000045	-0.395376	-0.111990
C68	C	0.499955	0.104624	0.388010
C69	C	-0.000051	-0.301350	-0.110337
C70	C	0.499949	0.198650	0.389663
C71	C	-0.000035	-0.662847	-0.116693
C72	C	0.499965	-0.162847	0.383307
C73	C	-0.000034	-0.975984	-0.265521
C74	C	0.499966	-0.475984	0.234479
C75	C	-0.000027	-0.977600	-0.357816
C76	C	0.499973	-0.477600	0.142184
C77	C	-0.000048	-1.058599	0.353059
C78	C	0.499952	-0.558599	0.853059
C79	C	-0.000040	-1.057075	0.439779
C80	C	0.499960	-0.557075	0.939779
C81	C	-0.000035	-0.905586	0.419905
C82	C	0.499965	-0.405586	0.919905
C83	C	-0.000036	-0.907111	0.333186
C84	C	0.499964	-0.407111	0.833186
C85	C	-0.000047	-0.983620	0.299766
C86	C	0.499953	-0.483620	0.799766
C87	C	-0.000038	-0.980571	0.473205
C88	C	0.499962	-0.480571	0.973205
C89	C	-0.000030	-0.978918	0.567231
C90	C	0.499970	-0.478918	1.067231
C91	C	-0.000053	-0.985273	0.205734
C92	C	0.499947	-0.485273	0.705734
H93	H	-0.444378	-0.873118	-0.222517
H94	H	0.055622	-0.373118	0.277483
F95	F	-0.000058	-1.140026	0.317493
F96	F	0.499942	-0.640026	0.817493
H97	H	-0.000027	-0.843295	0.447127
H98	H	0.499973	-0.343295	0.947127
F99	F	-0.563470	-1.106594	0.010784
F100	F	-0.063470	-0.606594	0.510784
H101	H	-0.000039	-1.118130	0.483168
H102	H	0.499961	-0.618130	0.983168
F103	F	-0.436233	-0.948266	0.044608
F104	F	0.063767	-0.448266	0.544608
F105	F	-0.563826	-0.823969	-0.079636
F106	F	-0.063826	-0.323969	0.420364
F107	F	-0.000060	-0.592117	0.041277
F108	F	0.499940	-0.092117	0.541277
H109	H	-0.000032	-0.846050	0.289792
H110	H	0.499968	-0.346050	0.789792
H111	H	-0.000034	-0.542730	-0.252317
H112	H	0.499966	-0.042730	0.247683
H113	H	-0.555820	-1.011725	-0.252195
H114	H	-0.055820	-0.511725	0.247805
F115	F	-0.000059	-0.413100	0.044416
F116	F	0.499941	0.086900	0.544416
H117	H	-0.444392	-1.120782	-0.143359
H118	H	0.055608	-0.620782	0.356641
F119	F	-0.000041	-0.372086	-0.268298
F120	F	0.499959	0.127914	0.231702
