data_functionalizedCrystal
_audit_creation_method	'MofGen! by Chris Wilmer'
_symmetry_space_group_name_H-M	'P1'
_symmetry_Int_Tables_number	1
_symmetry_cell_setting	triclinic
loop_
_symmetry_equiv_pos_as_xyz
  x,y,z
_cell_length_a	19.121241
_cell_length_b	29.839131
_cell_length_c	19.120904
_cell_angle_alpha	87.598232
_cell_angle_beta	90.124528
_cell_angle_gamma	92.469032
loop_
_atom_site_label
_atom_site_type_symbol
_atom_site_fract_x
_atom_site_fract_y
_atom_site_fract_z
Zn1	Zn	1.054826	-0.162205	0.442145
Zn2	Zn	1.059726	-0.234000	0.324886
Zn3	Zn	0.942592	-0.161938	0.319914
Zn4	Zn	0.937533	-0.240364	0.437070
O5	O	0.998669	-0.199627	0.381004
O6	O	1.153584	-0.169177	0.430794
O7	O	1.048356	-0.221665	0.226123
O8	O	0.957546	-0.099106	0.336171
O9	O	1.157184	-0.221924	0.344644
O10	O	1.040004	-0.099302	0.425973
O11	O	0.962298	-0.168722	0.222470
O12	O	0.843813	-0.174894	0.331251
O13	O	0.948924	-0.232771	0.535847
O14	O	0.840096	-0.232513	0.417325
O15	O	1.035098	-0.175348	0.539575
O16	O	1.043451	-0.297712	0.339724
O17	O	0.953676	-0.302388	0.422146
C18	C	0.816516	-0.204365	0.373199
C19	C	0.738590	-0.206404	0.369876
C20	C	0.700103	-0.179946	0.413237
C21	C	0.626883	-0.181859	0.410109
C22	C	0.592151	-0.210232	0.363624
C23	C	0.630643	-0.236691	0.320258
C24	C	0.703862	-0.234775	0.323383
C25	C	0.371171	-0.217386	0.351938
C26	C	0.297947	-0.219300	0.348818
C27	C	0.294191	-0.164468	0.438669
C28	C	0.367412	-0.162557	0.441793
C29	C	0.405898	-0.189014	0.398424
C30	C	0.517308	-0.212189	0.360427
C31	C	0.480739	-0.187054	0.401618
C32	C	0.998565	-0.316350	0.380940
C33	C	0.998583	-0.366284	0.380939
C34	C	1.041592	-0.675996	0.427827
C35	C	1.041667	-0.863669	0.427873
O36	O	1.078132	-0.887993	0.467690
N37	N	0.998785	-0.887068	0.381087
C38	C	0.955879	-0.863546	0.334289
O39	O	0.919401	-0.887756	0.294501
C40	C	0.955801	-0.675875	0.334248
C41	C	0.998691	-0.652478	0.381032
C42	C	1.084478	-0.652599	0.474608
C43	C	1.084462	-0.605684	0.474594
C44	C	1.041560	-0.582165	0.427798
C45	C	0.998674	-0.605563	0.381017
C46	C	0.912891	-0.652355	0.287454
C47	C	0.912874	-0.605434	0.287449
C48	C	0.955764	-0.582037	0.334233
C49	C	0.955757	-0.535129	0.334208
N50	N	0.998638	-0.511730	0.380994
C51	C	1.041540	-0.535248	0.427789
C52	C	0.955923	-0.962076	0.334313
C53	C	0.955943	-1.008994	0.334323
C54	C	1.041731	-1.009113	0.427907
C55	C	1.041714	-0.962194	0.427894
C56	C	0.998805	-0.938677	0.381099
C57	C	1.041503	-0.436722	0.427755
C58	C	1.041485	-0.389803	0.427734
C59	C	0.955695	-0.389688	0.334153
C60	C	0.955716	-0.436603	0.334170
C61	C	0.998622	-0.460119	0.380977
O62	O	0.919305	-0.510776	0.294416
O63	O	1.078000	-0.511031	0.467582
C64	C	1.041609	-0.722912	0.427842
C65	C	0.998723	-0.746309	0.381061
C66	C	0.955821	-0.722791	0.334265
C67	C	0.998743	-0.793226	0.381070
C68	C	1.041645	-0.816745	0.427865
C69	C	1.084527	-0.793345	0.474651
C70	C	1.084510	-0.746430	0.474637
C71	C	0.912940	-0.746190	0.287479
C72	C	0.912960	-0.793105	0.287497
C73	C	0.955862	-0.816624	0.334292
C74	C	1.181534	-0.194870	0.388840
C75	C	1.259460	-0.192843	0.392179
C76	C	0.990901	-0.204799	0.563859
C77	C	0.987590	-0.207004	0.641782
C78	C	0.998793	-0.082447	0.381084
C79	C	0.998845	-0.032512	0.381118
C80	C	1.006448	-0.194441	0.198861
C81	C	1.009895	-0.192106	0.120945
C82	C	1.030898	-0.178143	0.680332
C83	C	1.027779	-0.180213	0.753547
C84	C	0.981354	-0.211145	0.788212
C85	C	0.938041	-0.240007	0.749657
C86	C	0.941157	-0.237935	0.676442
C87	C	0.969698	-0.218896	1.009175
C88	C	0.966586	-0.220967	1.082395
C89	C	1.056324	-0.161172	1.086281
C90	C	1.059439	-0.159104	1.013065
C91	C	1.016123	-0.187964	0.974516
C92	C	0.978167	-0.213263	0.863050
C93	C	1.019308	-0.185844	0.899679
H94	H	0.489021	-0.235291	0.322578
C95	C	0.746201	-0.263879	0.275686
C96	C	0.739506	-0.258143	0.195571
C97	C	0.781845	-0.287246	0.147870
C98	C	0.830879	-0.322085	0.180284
C99	C	0.837576	-0.327823	0.260404
C100	C	0.795237	-0.298720	0.308105
H101	H	0.703207	-0.232351	0.171572
H102	H	0.776887	-0.282998	0.088560
H103	H	0.862221	-0.343629	0.144973
H104	H	0.873875	-0.353615	0.284403
H105	H	0.800195	-0.302968	0.367414
H106	H	0.878035	-0.812151	0.249393
C107	C	0.592442	-0.267902	0.269121
C108	C	0.602241	-0.318873	0.275111
C109	C	0.564042	-0.350086	0.223974
C110	C	0.516044	-0.330327	0.166847
C111	C	0.506243	-0.279353	0.160855
C112	C	0.544441	-0.248140	0.211992
H113	H	0.637774	-0.333503	0.317402
H114	H	0.571298	-0.387821	0.228411
H115	H	0.487767	-0.353433	0.128993
H116	H	0.470710	-0.264723	0.118564
H117	H	0.537186	-0.210405	0.207555
C118	C	0.518943	-0.155844	0.452751
C119	C	0.566942	-0.175608	0.509872
C120	C	0.605153	-0.144400	0.561006
C121	C	0.595365	-0.093426	0.555019
C122	C	0.547364	-0.073659	0.497895
C123	C	0.509153	-0.104868	0.446761
H124	H	0.574189	-0.213344	0.514306
H125	H	0.640687	-0.159033	0.603293
H126	H	0.623652	-0.070324	0.592872
H127	H	0.540117	-0.035924	0.493461
H128	H	0.473619	-0.090235	0.404474
C129	C	0.405605	-0.131350	0.492941
C130	C	0.453586	-0.151121	0.550073
C131	C	0.491774	-0.119918	0.601232
C132	C	0.481981	-0.068945	0.595259
C133	C	0.433998	-0.049172	0.538124
C134	C	0.395809	-0.080375	0.486966
H135	H	0.460837	-0.188856	0.554497
H136	H	0.527295	-0.134556	0.643527
H137	H	0.510250	-0.045847	0.633130
H138	H	0.426746	-0.011437	0.533701
H139	H	0.360289	-0.065737	0.444671
C140	C	0.893521	-0.269682	0.634031
C141	C	0.813396	-0.268375	0.640678
C142	C	0.765757	-0.300122	0.598266
C143	C	0.798243	-0.333176	0.549209
C144	C	0.878372	-0.334484	0.542561
C145	C	0.926011	-0.302738	0.584972
H146	H	0.789344	-0.243905	0.676995
H147	H	0.706440	-0.299153	0.603188
H148	H	0.762977	-0.356677	0.517814
H149	H	0.902424	-0.358954	0.506244
H150	H	0.985329	-0.303706	0.580050
H151	H	1.076638	-0.943147	0.465990
C152	C	1.110502	-0.125073	0.974940
C153	C	1.082299	-0.089167	0.923330
C154	C	1.133364	-0.055135	0.885207
C155	C	1.212632	-0.057009	0.898694
C156	C	1.240839	-0.092916	0.950306
C157	C	1.189774	-0.126948	0.988429
H158	H	1.023616	-0.087779	0.913344
H159	H	1.112482	-0.028555	0.847000
H160	H	1.250433	-0.031816	0.870473
H161	H	1.299522	-0.094304	0.960292
H162	H	1.210656	-0.153529	1.026636
H163	H	1.057104	-0.160658	0.871452
C164	C	1.088663	-0.364066	0.479203
C165	C	1.135849	-0.389940	0.530680
C166	C	1.183023	-0.364206	0.582148
C167	C	1.183012	-0.312598	0.582140
C168	C	1.135824	-0.286722	0.530661
C169	C	1.088650	-0.312456	0.479193
H170	H	1.135859	-0.428146	0.530688
H171	H	1.217954	-0.383362	0.620256
H172	H	1.217933	-0.293548	0.620240
H173	H	1.135815	-0.248516	0.530653
H174	H	1.053719	-0.293300	0.441085
C175	C	1.088702	-0.462585	0.479239
C176	C	1.145073	-0.492526	0.451276
C177	C	1.192276	-0.518389	0.502756
C178	C	1.183107	-0.514312	0.582198
C179	C	1.126734	-0.484369	0.610164
C180	C	1.079532	-0.458506	0.558684
H181	H	1.151862	-0.495546	0.392465
H182	H	1.234007	-0.540555	0.482053
H183	H	1.218049	-0.533457	0.620306
H184	H	1.119945	-0.481349	0.668975
H185	H	1.037800	-0.436341	0.579387
H186	H	0.877930	-0.586289	0.249344
C187	C	1.103963	-0.129424	1.128685
C188	C	1.100538	-0.131699	1.209219
C189	C	1.148177	-0.099948	1.251622
C190	C	1.199241	-0.065922	1.213493
C191	C	1.202668	-0.063646	1.132955
C192	C	1.155029	-0.095397	1.090551
H193	H	1.062736	-0.156888	1.237448
H194	H	1.145640	-0.101633	1.311242
H195	H	1.234507	-0.042418	1.244883
H196	H	1.240471	-0.038457	1.104726
H197	H	1.157566	-0.093712	1.030932
C198	C	0.922044	-0.250645	0.966793
C199	C	0.841922	-0.249331	0.973469
C200	C	0.794259	-0.281082	0.931090
C201	C	0.826719	-0.314148	0.882034
C202	C	0.906845	-0.315463	0.875355
C203	C	0.954507	-0.283711	0.917734
H204	H	0.817890	-0.224853	1.009785
H205	H	0.734945	-0.280109	0.936034
H206	H	0.791436	-0.337652	0.850662
H207	H	0.930877	-0.339941	0.839039
H208	H	1.013822	-0.284685	0.912790
H209	H	1.063047	-0.156713	0.784932
C210	C	1.131679	-0.678463	0.526086
C211	C	1.211619	-0.669721	0.523833
C212	C	1.258829	-0.695580	0.575310
C213	C	1.226098	-0.730182	0.629040
C214	C	1.146154	-0.738925	0.631295
C215	C	1.098944	-0.713066	0.579818
H216	H	1.235852	-0.644106	0.484057
H217	H	1.318010	-0.689107	0.573641
H218	H	1.261046	-0.749324	0.667147
H219	H	1.121921	-0.764541	0.671071
H220	H	1.039764	-0.719539	0.581487
C221	C	1.088922	-1.034988	0.479386
C222	C	1.145289	-1.064932	0.451423
C223	C	1.192473	-1.090809	0.502903
C224	C	1.183290	-1.086742	0.582346
C225	C	1.126920	-1.056797	0.610312
C226	C	1.079736	-1.030920	0.558832
H227	H	1.152088	-1.067943	0.392612
H228	H	1.234201	-1.112976	0.482200
H229	H	1.218218	-1.105898	0.620454
H230	H	1.120121	-1.053786	0.669124
H231	H	1.038008	-1.008753	0.579536
C232	C	0.908728	-0.936210	0.282828
C233	C	0.852351	-0.906269	0.310780
C234	C	0.805161	-0.880404	0.259292
C235	C	0.814347	-0.884479	0.179851
C236	C	0.870727	-0.914420	0.151896
C237	C	0.917917	-0.940286	0.203384
H238	H	0.845548	-0.903252	0.369590
H239	H	0.763425	-0.858239	0.279987
H240	H	0.779414	-0.865332	0.141737
H241	H	0.877530	-0.917438	0.093086
H242	H	0.959653	-0.962450	0.182689
H243	H	1.119384	-0.586637	0.512691
H244	H	0.728376	-0.156843	0.451093
H245	H	0.900239	-0.265191	0.777886
H246	H	0.262848	-0.142928	0.473976
C247	C	0.259737	-0.250509	0.297677
C248	C	0.273167	-0.244241	0.218420
C249	C	0.234956	-0.275448	0.167283
C250	C	0.183314	-0.312923	0.195403
C251	C	0.169881	-0.319193	0.274665
C252	C	0.208093	-0.287986	0.325802
H253	H	0.311398	-0.216498	0.197599
H254	H	0.244900	-0.270806	0.108608
H255	H	0.155027	-0.336024	0.157549
H256	H	0.131650	-0.346935	0.295485
H257	H	0.198149	-0.292628	0.384476
H258	H	0.595549	-0.160316	0.445420
H259	H	0.921026	-1.028040	0.296219
H260	H	0.940371	-0.238450	0.891283
H261	H	0.402498	-0.238929	0.316625
H262	H	0.877966	-0.671397	0.249357
H263	H	0.920797	-0.455654	0.296070
C264	C	1.131718	-0.819221	0.526128
C265	C	1.188079	-0.849168	0.498163
C266	C	1.235264	-0.875047	0.549640
C267	C	1.226087	-0.870979	0.629083
C268	C	1.169722	-0.841031	0.657052
C269	C	1.122538	-0.815152	0.605575
H270	H	1.194875	-0.852180	0.439351
H271	H	1.276988	-0.897216	0.528935
H272	H	1.261015	-0.890136	0.667189
H273	H	1.162927	-0.838019	0.715864
H274	H	1.080814	-0.792983	0.626281
C275	C	0.865748	-0.720325	0.235996
C276	C	0.874932	-0.724406	0.156557
C277	C	0.827740	-0.698544	0.105065
C278	C	0.771364	-0.668602	0.133013
C279	C	0.762177	-0.664520	0.212457
C280	C	0.809369	-0.690382	0.263948
H281	H	0.916667	-0.746572	0.135864
H282	H	0.834541	-0.701566	0.046256
H283	H	0.736429	-0.649457	0.094897
H284	H	0.720442	-0.642354	0.233149
H285	H	0.802568	-0.687360	0.322758
H286	H	1.119435	-0.727383	0.512733
H287	H	0.920767	-0.370532	0.296050
H288	H	0.928780	-0.246157	1.110617
H289	H	1.068705	-0.152956	0.652113
