data_functionalizedCrystal
_audit_creation_method	'MofGen! by Chris Wilmer'
_symmetry_space_group_name_H-M	'P1'
_symmetry_Int_Tables_number	1
_symmetry_cell_setting	triclinic
loop_
_symmetry_equiv_pos_as_xyz
  x,y,z
_cell_length_a	18.215407
_cell_length_b	16.625546
_cell_length_c	18.215399
_cell_angle_alpha	89.970824
_cell_angle_beta	89.980167
_cell_angle_gamma	90.022916
loop_
_atom_site_label
_atom_site_type_symbol
_atom_site_fract_x
_atom_site_fract_y
_atom_site_fract_z
Zn1	Zn	1.125084	-0.321000	-0.416110
Zn2	Zn	1.625084	0.179000	0.083890
Zn3	Zn	1.124998	-0.455841	-0.293041
Zn4	Zn	1.624998	0.044159	0.206959
Zn5	Zn	1.002017	-0.321027	-0.293057
Zn6	Zn	1.502017	0.178973	0.206943
Zn7	Zn	1.001988	-0.455796	-0.416066
Zn8	Zn	1.501988	0.044204	0.083934
O9	O	1.063522	-0.388416	-0.354568
O10	O	1.563522	0.111584	0.145432
O11	O	1.228057	-0.338895	-0.399796
O12	O	1.728057	0.161105	0.100204
O13	O	1.108660	-0.437987	-0.190059
O14	O	1.608660	0.062013	0.309941
O15	O	1.018390	-0.208191	-0.309405
O16	O	1.518390	0.291809	0.190595
O17	O	1.227994	-0.437961	-0.309378
O18	O	1.727994	0.062039	0.190622
O19	O	1.108807	-0.208171	-0.399812
O20	O	1.608807	0.291829	0.100188
O21	O	1.018307	-0.338940	-0.190070
O22	O	1.518307	0.161060	0.309930
O23	O	0.899029	-0.338896	-0.309363
O24	O	1.399029	0.161104	0.190637
O25	O	1.018341	-0.437885	-0.519056
O26	O	1.518341	0.062115	-0.019056
O27	O	0.899008	-0.437910	-0.399737
O28	O	1.399008	0.062090	0.100263
O29	O	1.108779	-0.338851	-0.519088
O30	O	1.608779	0.161149	-0.019088
O31	O	1.108632	-0.568667	-0.309335
O32	O	1.608632	-0.068667	0.190665
O33	O	1.018257	-0.568634	-0.399721
O34	O	1.518257	-0.068634	0.100279
C35	C	0.872315	-0.388402	-0.354547
C36	C	1.372315	0.111598	0.145453
C37	C	0.790517	-0.388415	-0.354556
C38	C	1.290517	0.111585	0.145444
C39	C	0.602331	-0.440053	-0.401554
C40	C	1.102331	0.059947	0.098446
C41	C	0.525472	-0.440056	-0.401563
C42	C	1.025472	0.059944	0.098437
C43	C	0.525465	-0.336793	-0.307598
C44	C	1.025465	0.163207	0.192402
C45	C	0.602322	-0.336787	-0.307593
C46	C	1.102322	0.163213	0.192407
C47	C	0.640753	-0.388422	-0.354570
C48	C	1.140753	0.111578	0.145430
C49	C	0.487037	-0.388430	-0.354584
C50	C	0.987037	0.111570	0.145416
C51	C	0.403703	-0.388433	-0.354594
C52	C	0.903703	0.111567	0.145406
C53	C	0.724092	-0.388418	-0.354562
C54	C	1.224092	0.111582	0.145438
C55	C	1.063452	-0.597907	-0.354537
C56	C	1.563452	-0.097907	0.145463
C57	C	1.063490	-0.687528	-0.354549
C58	C	1.563490	-0.187528	0.145451
C59	C	1.063618	-1.015703	-0.354625
C60	C	1.563618	-0.515703	0.145375
C61	C	1.063580	-0.924395	-0.354606
C62	C	1.563580	-0.424395	0.145394
C63	C	1.063553	-0.851618	-0.354587
C64	C	1.563553	-0.351618	0.145413
C65	C	1.063516	-0.760304	-0.354568
C66	C	1.563516	-0.260304	0.145432
C67	C	1.255475	-0.388430	-0.354590
C68	C	1.755475	0.111570	0.145410
C69	C	1.337274	-0.388436	-0.354599
C70	C	1.837274	0.111564	0.145401
C71	C	1.063567	-0.388360	-0.546521
C72	C	1.563567	0.111640	-0.046521
C73	C	1.063586	-0.388336	-0.628320
C74	C	1.563586	0.111664	-0.128320
C75	C	1.063612	-0.178107	-0.354615
C76	C	1.563612	0.321893	0.145385
C77	C	1.063650	-0.088486	-0.354635
C78	C	1.563650	0.411514	0.145365
C79	C	1.110694	-0.336721	-0.816532
C80	C	1.610694	0.163279	-0.316532
C81	C	1.110703	-0.336698	-0.893391
C82	C	1.610703	0.163302	-0.393391
C83	C	1.016530	-0.439827	-0.893346
C84	C	1.516530	0.060173	-0.393346
C85	C	1.016518	-0.439846	-0.816489
C86	C	1.516518	0.060154	-0.316489
C87	C	1.063604	-0.388294	-0.778084
C88	C	1.563604	0.111706	-0.278084
C89	C	1.063625	-0.388252	-0.931800
C90	C	1.563625	0.111748	-0.431800
C91	C	1.063634	-0.388227	-1.015134
C92	C	1.563634	0.111773	-0.515134
C93	C	1.063594	-0.388318	-0.694745
C94	C	1.563594	0.111682	-0.194745
C95	C	1.063519	-0.388413	-0.163362
C96	C	1.563519	0.111587	0.336638
C97	C	1.063643	-0.388209	-0.081563
C98	C	1.563643	0.111791	0.418437
H99	H	0.633619	-0.482096	-0.439808
H100	H	1.133619	0.017904	0.060192
O101	O	1.156341	-0.286513	-0.930770
O102	O	1.656341	0.213487	-0.430770
C103	C	1.114469	-0.234431	-0.975242
C104	C	1.614469	0.265569	-0.475242
H105	H	1.056505	-0.229459	-0.952070
H106	H	1.556505	0.270541	-0.452070
H107	H	1.111933	-0.259340	-1.033486
H108	H	1.611933	0.240660	-0.533486
C109	C	1.221646	-0.156718	-1.004903
C110	C	1.721646	0.343282	-0.504903
C111	C	1.150455	-0.150605	-0.976439
C112	C	1.650455	0.349395	-0.476439
H113	H	1.243845	-0.105010	-1.005645
H114	H	1.743845	0.394990	-0.505645
H115	H	1.249857	-0.191807	-0.974944
H116	H	1.749857	0.308193	-0.474944
H117	H	1.219523	-0.177478	-1.053437
H118	H	1.719523	0.322522	-0.553437
H119	H	1.152580	-0.129855	-0.927903
H120	H	1.652580	0.370145	-0.427903
H121	H	1.122246	-0.115510	-1.006390
H122	H	1.622246	0.384490	-0.506390
O123	O	0.970865	-0.489879	-0.930768
O124	O	1.470865	0.010121	-0.430768
C125	C	0.980960	-0.478792	-1.006849
C126	C	1.480960	0.021208	-0.506849
H127	H	1.037766	-0.452385	-1.017364
H128	H	1.537766	0.047615	-0.517364
H129	H	0.937329	-0.435847	-1.028664
H130	H	1.437329	0.064153	-0.528664
C131	C	0.904419	-0.592798	-1.033371
C132	C	1.404419	-0.092798	-0.533371
C133	C	0.974192	-0.560371	-1.046286
C134	C	1.474192	-0.060371	-0.546286
H135	H	0.900241	-0.643119	-1.057699
H136	H	1.400241	-0.143119	-0.557699
H137	H	0.897615	-0.600267	-0.982114
H138	H	1.397615	-0.100267	-0.482114
H139	H	0.868067	-0.557003	-1.051550
H140	H	1.368067	-0.057003	-0.551550
H141	H	1.010541	-0.596162	-1.028099
H142	H	1.510541	-0.096162	-0.528099
H143	H	0.981002	-0.552911	-1.097541
H144	H	1.481002	-0.052911	-0.597541
O145	O	0.970852	-0.490063	-0.779167
O146	O	1.470852	0.009937	-0.279167
C147	C	0.986893	-0.570422	-0.797940
C148	C	1.486893	-0.070422	-0.297940
H149	H	1.045686	-0.574491	-0.819081
H150	H	1.545686	-0.074491	-0.319081
H151	H	0.947434	-0.591488	-0.842537
H152	H	1.447434	-0.091488	-0.342537
C153	C	0.906089	-0.619247	-0.703682
C154	C	1.406089	-0.119247	-0.203682
C155	C	0.978302	-0.624247	-0.729641
C156	C	1.478302	-0.124247	-0.229641
H157	H	0.900787	-0.652451	-0.661553
H158	H	1.400787	-0.152451	-0.161553
H159	H	0.895279	-0.565109	-0.691035
H160	H	1.395279	-0.065109	-0.191035
H161	H	0.873215	-0.636802	-0.740852
H162	H	1.373215	-0.136802	-0.240852
H163	H	1.011174	-0.606683	-0.692474
H164	H	1.511174	-0.106683	-0.192474
H165	H	0.989117	-0.678384	-0.742279
H166	H	1.489117	-0.178384	-0.242279
O167	O	0.488263	-0.490288	-0.447225
O168	O	0.988263	0.009712	0.052775
C169	C	0.538667	-0.535842	-0.488698
C170	C	1.038667	-0.035842	0.011302
H171	H	0.593439	-0.538588	-0.458544
H172	H	1.093439	-0.038588	0.041456
H173	H	0.546877	-0.506393	-0.544638
H174	H	1.046877	-0.006393	-0.044638
C175	C	0.441378	-0.618301	-0.536205
C176	C	0.941378	-0.118301	-0.036205
C177	C	0.508648	-0.621680	-0.499166
C178	C	1.008648	-0.121680	0.000834
H179	H	0.422860	-0.671248	-0.542666
H180	H	0.922860	-0.171248	-0.042666
H181	H	0.407419	-0.587609	-0.508267
H182	H	0.907419	-0.087609	-0.008267
H183	H	0.448228	-0.593756	-0.582818
H184	H	0.948228	-0.093756	-0.082818
H185	H	0.501795	-0.646214	-0.452551
H186	H	1.001795	-0.146214	0.047449
H187	H	0.542605	-0.652378	-0.527097
H188	H	1.042605	-0.152378	-0.027097
H189	H	0.494165	-0.294755	-0.269350
H190	H	0.994165	0.205245	0.230650
O191	O	0.639536	-0.286604	-0.261880
O192	O	1.139536	0.213396	0.238120
C193	C	0.589137	-0.241022	-0.220427
C194	C	1.089137	0.258978	0.279573
H195	H	0.534339	-0.274047	-0.217825
H196	H	1.034339	0.225953	0.282175
H197	H	0.580993	-0.179822	-0.247476
H198	H	1.080993	0.320178	0.252524
C199	C	0.686414	-0.188729	-0.145315
C200	C	1.186414	0.311271	0.354685
C201	C	0.619111	-0.229294	-0.142115
C202	C	1.119111	0.270706	0.357885
H203	H	0.704903	-0.181491	-0.097010
H204	H	1.204903	0.318509	0.402990
H205	H	0.720369	-0.219436	-0.173245
H206	H	1.220369	0.280564	0.326755
H207	H	0.679618	-0.137734	-0.167859
H208	H	1.179618	0.362266	0.332141
H209	H	0.625910	-0.280292	-0.119580
H210	H	1.125910	0.219708	0.380420
H211	H	0.585157	-0.198595	-0.114180
H212	H	1.085157	0.301405	0.385820
H213	H	1.149033	-0.294743	-0.785265
H214	H	1.649033	0.205257	-0.285265
