data_functionalizedCrystal
_audit_creation_method	'MofGen! by Chris Wilmer'
_symmetry_space_group_name_H-M	'P1'
_symmetry_Int_Tables_number	1
_symmetry_cell_setting	triclinic
loop_
_symmetry_equiv_pos_as_xyz
  x,y,z
_cell_length_a	15.944551
_cell_length_b	15.944551
_cell_length_c	15.021413
_cell_angle_alpha	90.003065
_cell_angle_beta	89.997174
_cell_angle_gamma	83.498738
loop_
_atom_site_label
_atom_site_type_symbol
_atom_site_fract_x
_atom_site_fract_y
_atom_site_fract_z
O1	O	1.114529	0.108321	-0.073941
O2	O	0.869979	0.121677	-0.073964
O3	O	0.998932	-0.007276	-0.073944
O4	O	0.985576	0.237274	-0.073961
O5	O	0.998912	-0.007257	0.074121
O6	O	0.869959	0.121695	0.074101
O7	O	1.114508	0.108339	0.074123
Zn8	Zn	0.992230	0.115020	0.097620
Zn9	Zn	0.992257	0.114996	-0.097461
O10	O	0.985555	0.237292	0.074103
C11	C	0.838675	0.121132	0.000066
C12	C	0.745429	0.119470	0.000057
C13	C	0.530572	0.035565	0.000081
C14	C	0.469562	0.074518	-0.072926
C15	C	0.574703	0.116462	0.000068
C16	C	0.469564	0.074556	0.073054
C17	C	0.409790	0.113551	0.000083
C18	C	0.514921	0.155438	-0.072998
C19	C	0.514930	0.155464	0.073047
C20	C	0.453937	0.194476	0.000023
C21	C	0.669705	0.118137	0.000059
C22	C	0.314789	0.111883	0.000085
C23	C	0.998367	-0.038561	0.000089
C24	C	0.996705	-0.131807	0.000089
C25	C	0.912801	-0.346663	0.000069
C26	C	0.951753	-0.407672	0.073077
C27	C	0.993698	-0.302533	0.000082
C28	C	0.951792	-0.407673	-0.072903
C29	C	0.990787	-0.467445	0.000071
C30	C	1.032672	-0.362313	0.073150
C31	C	1.032700	-0.362308	-0.072895
C32	C	1.071711	-0.423298	0.000131
C33	C	0.995372	-0.207530	0.000089
C34	C	0.989119	-0.562446	0.000070
C35	C	1.145813	0.108885	0.000092
C36	C	1.239059	0.110547	0.000094
C37	C	0.986120	0.268577	0.000069
C38	C	0.987782	0.361823	0.000063
N39	N	0.992218	0.115036	0.230758
N40	N	0.992276	0.114973	-0.230598
C41	C	0.932581	0.174636	0.470432
C42	C	1.008481	0.190943	0.529772
C43	C	0.992239	0.115015	0.412365
C44	C	0.916360	0.098727	0.529766
C45	C	0.992253	0.114997	0.587789
C46	C	1.068178	0.131360	0.470398
C47	C	0.976006	0.039111	0.470387
C48	C	1.051962	0.055386	0.529701
C49	C	0.992230	0.115028	0.311307
C50	C	0.992271	0.114984	0.688844
H51	H	0.449470	0.040332	0.134773
H52	H	0.917574	-0.427758	-0.134630
C53	C	0.881766	0.322177	0.465266
C54	C	0.864546	0.242751	0.435286
H55	H	0.839770	0.364227	0.443561
H56	H	0.881634	0.322971	0.528491
H57	H	0.935568	0.333202	0.444062
H58	H	0.810746	0.231723	0.456496
H59	H	0.864670	0.241954	0.372048
C60	C	0.432045	0.327335	-0.076539
C61	C	0.409164	0.285199	-0.000036
H62	H	0.404397	0.383340	-0.076579
H63	H	0.491419	0.328873	-0.077025
H64	H	0.415820	0.298374	-0.127899
H65	H	0.425394	0.314157	0.051324
H66	H	0.349776	0.283665	0.000458
H67	H	1.102474	0.004956	0.555561
C68	C	1.027593	0.276398	0.658205
C69	C	1.027031	0.277583	0.564998
H70	H	1.039044	0.329885	0.679949
H71	H	0.974098	0.264423	0.679395
H72	H	1.070030	0.234087	0.678482
H73	H	0.984589	0.319889	0.544722
H74	H	1.080533	0.289567	0.543800
H75	H	0.852184	0.084959	0.555847
H76	H	1.066896	-0.342185	-0.134615
H77	H	0.962240	-0.025051	0.444283
H78	H	1.132368	0.145206	0.444430
H79	H	0.449461	0.040295	-0.134642
C80	C	0.552823	-0.097245	-0.076559
C81	C	0.575552	-0.055075	-0.000013
H82	H	0.580600	-0.153198	-0.076621
H83	H	0.493469	-0.098929	-0.077078
H84	H	0.569000	-0.068212	-0.127889
H85	H	0.559370	-0.084104	0.051318
H86	H	0.634919	-0.053396	0.000515
C87	C	0.779985	-0.324421	0.076698
C88	C	0.822157	-0.301691	0.000155
H89	H	0.724030	-0.296651	0.076755
H90	H	0.778309	-0.383776	0.077221
H91	H	0.809011	-0.308238	0.128030
H92	H	0.793135	-0.317880	-0.051177
H93	H	0.823829	-0.242323	-0.000376
H94	H	0.534918	0.189621	-0.134787
C95	C	0.519481	0.159147	0.232745
C96	C	0.542110	0.201623	0.156364
H97	H	0.536269	0.187637	0.284185
H98	H	0.460059	0.157987	0.233642
H99	H	0.546781	0.103013	0.232214
H100	H	0.514805	0.257756	0.156892
H101	H	0.601543	0.202793	0.155467
C102	C	1.219720	-0.407663	0.000974
C103	C	1.162440	-0.468056	0.000203
H104	H	1.275732	-0.435293	0.001030
H105	H	1.211332	-0.373028	-0.050419
H106	H	1.210950	-0.373718	0.052844
H107	H	1.171206	-0.501998	-0.051671
H108	H	1.170832	-0.502705	0.051601
C109	C	0.960736	-0.490341	0.207047
C110	C	0.905556	-0.434816	0.156391
H111	H	0.932212	-0.507091	0.258481
H112	H	0.979476	-0.538708	0.172432
H113	H	1.007938	-0.462871	0.224596
H114	H	0.858357	-0.462288	0.138836
H115	H	0.886803	-0.386440	0.191012
C116	C	1.079909	-0.247638	0.155839
C117	C	1.078809	-0.335323	0.156570
H118	H	1.108385	-0.230976	0.207342
H119	H	1.108460	-0.231756	0.104071
H120	H	1.023625	-0.220716	0.155623
H121	H	1.135093	-0.362245	0.156780
H122	H	1.050259	-0.351214	0.208352
