data_functionalizedCrystal
_audit_creation_method	'MofGen! by Chris Wilmer'
_symmetry_space_group_name_H-M	'P1'
_symmetry_Int_Tables_number	1
_symmetry_cell_setting	triclinic
loop_
_symmetry_equiv_pos_as_xyz
  x,y,z
_cell_length_a	19.188930
_cell_length_b	19.188925
_cell_length_c	18.266242
_cell_angle_alpha	90.009890
_cell_angle_beta	90.010255
_cell_angle_gamma	83.143665
loop_
_atom_site_label
_atom_site_type_symbol
_atom_site_fract_x
_atom_site_fract_y
_atom_site_fract_z
O1	O	0.087149	0.926152	0.060905
O2	O	0.587149	1.426152	0.560905
O3	O	0.098888	0.722840	0.060904
O4	O	0.598888	1.222840	0.560904
O5	O	-0.008637	0.830363	0.060890
O6	O	0.491363	1.330363	0.560890
O7	O	0.194674	0.818629	0.060919
O8	O	0.694674	1.318629	0.560919
O9	O	-0.008640	0.830345	-0.060872
O10	O	0.491360	1.330345	0.439128
O11	O	0.098885	0.722822	-0.060858
O12	O	0.598885	1.222822	0.439142
O13	O	0.087146	0.926133	-0.060857
O14	O	0.587146	1.426133	0.439143
Zn15	Zn	0.093015	0.824475	-0.080190
Zn16	Zn	0.593015	1.324475	0.419810
Zn17	Zn	0.093019	0.824499	0.080237
Zn18	Zn	0.593019	1.324499	0.580237
O19	O	0.194671	0.818610	-0.060843
O20	O	0.694671	1.318610	0.439157
C21	C	0.098507	0.696820	0.000023
C22	C	0.598507	1.196820	0.500023
C23	C	0.097367	0.619315	0.000022
C24	C	0.597367	1.119315	0.500022
C25	C	0.152831	0.057545	0.000031
C26	C	0.652831	0.557545	0.500031
C27	C	0.153908	0.130368	0.000035
C28	C	0.653908	0.630368	0.500035
C29	C	0.090816	0.175302	0.000025
C30	C	0.590816	0.675302	0.500025
C31	C	0.026642	0.147408	0.000030
C32	C	0.526642	0.647408	0.500030
C33	C	0.025568	0.074586	0.000033
C34	C	0.525568	0.574586	0.500033
N35	N	0.045139	0.295973	-0.041430
N36	N	0.545139	0.795973	0.458570
N37	N	0.046164	0.365151	-0.041435
N38	N	0.546164	0.865151	0.458565
C39	C	0.094050	0.394712	0.000017
C40	C	0.594050	0.894712	0.500017
N41	N	0.140883	0.352480	0.041464
N42	N	0.640883	0.852480	0.541464
N43	N	0.139859	0.283297	0.041465
N44	N	0.639859	0.783297	0.541465
C45	C	0.091974	0.254267	0.000022
C46	C	0.591974	0.754267	0.500022
C47	C	0.159386	0.501561	0.000022
C48	C	0.659386	1.001561	0.500022
C49	C	0.160460	0.574385	0.000031
C50	C	0.660460	1.074385	0.500031
C51	C	0.033193	0.591425	0.000018
C52	C	0.533193	1.091425	0.500018
C53	C	0.032121	0.518601	0.000016
C54	C	0.532121	1.018601	0.500016
C55	C	0.095220	0.473673	0.000015
C56	C	0.595220	0.973673	0.500015
C57	C	-0.034650	0.829974	0.000007
C58	C	0.465350	1.329974	0.500007
C59	C	-0.112154	0.828833	0.000001
C60	C	0.387846	1.328833	0.500001
C61	C	-0.157079	0.891924	-0.000002
C62	C	0.342921	1.391924	0.499998
C63	C	-0.229903	0.890852	0.000009
C64	C	0.270097	1.390852	0.500009
C65	C	-0.257799	0.826686	0.000010
C66	C	0.242201	1.326686	0.500010
C67	C	-0.212864	0.763587	0.000017
C68	C	0.287136	1.263587	0.500017
C69	C	-0.140041	0.764660	0.000012
C70	C	0.359959	1.264660	0.500012
N71	N	-0.365804	0.777633	-0.041429
N72	N	0.134196	1.277633	0.458571
N73	N	-0.434982	0.776617	-0.041426
N74	N	0.065018	1.276617	0.458574
C75	C	-0.477207	0.823448	0.000024
C76	C	0.022793	1.323448	0.500024
N77	N	-0.447642	0.871343	0.041463
N78	N	0.052358	1.371343	0.541463
N79	N	-0.378457	0.872361	0.041457
N80	N	0.121543	1.372361	0.541457
C81	C	-0.336761	0.825515	0.000015
C82	C	0.163239	1.325515	0.500015
C83	C	-0.601097	0.885381	0.000035
C84	C	-0.101097	1.385381	0.500035
C85	C	-0.673922	0.884307	0.000051
C86	C	-0.173922	1.384307	0.500051
C87	C	-0.656880	0.757040	0.000051
C88	C	-0.156880	1.257040	0.500051
C89	C	-0.584057	0.758116	0.000042
C90	C	-0.084057	1.258116	0.500042
C91	C	-0.556170	0.822289	0.000031
C92	C	-0.056170	1.322289	0.500031
C93	C	0.220684	0.819000	0.000041
C94	C	0.720684	1.319000	0.500041
C95	C	0.298188	0.820140	0.000053
C96	C	0.798188	1.320140	0.500053
C97	C	0.087527	0.952154	0.000026
C98	C	0.587527	1.452154	0.500026
C99	C	0.088666	1.029658	0.000032
C100	C	0.588666	1.529658	0.500032
N101	N	0.093012	0.824463	-0.189677
N102	N	0.593012	1.324463	0.310323
C103	C	0.135256	0.866673	-0.227973
C104	C	0.635256	1.366673	0.272027
C105	C	0.135254	0.866684	-0.304618
C106	C	0.635254	1.366684	0.195382
C107	C	0.093016	0.824473	-0.342964
C108	C	0.593016	1.324473	0.157036
C109	C	0.050763	0.782262	-0.304658
C110	C	0.550763	1.282262	0.195342
C111	C	0.050761	0.782256	-0.228015
C112	C	0.550761	1.282256	0.271985
N113	N	0.091297	0.763326	-0.463317
N114	N	0.591297	1.263326	0.036683
N115	N	0.091303	0.763332	-0.536125
N116	N	0.591303	1.263332	-0.036125
C117	C	0.093019	0.824487	-0.573886
C118	C	0.593019	1.324487	-0.073886
N119	N	0.094741	0.885636	-0.536088
N120	N	0.594741	1.385636	-0.036088
N121	N	0.094739	0.885629	-0.463274
N122	N	0.594739	1.385629	0.036726
C123	C	0.093013	0.824475	-0.426071
C124	C	0.593013	1.324475	0.073929
C125	C	0.135263	0.866713	-0.695290
C126	C	0.635263	1.366713	-0.195290
C127	C	0.135256	0.866726	-0.771936
C128	C	0.635256	1.366726	-0.271936
C129	C	0.050769	0.782297	-0.771975
C130	C	0.550769	1.282297	-0.271975
C131	C	0.050772	0.782290	-0.695330
C132	C	0.550772	1.282290	-0.195330
C133	C	0.093023	0.824497	-0.656992
C134	C	0.593023	1.324497	-0.156992
N135	N	0.093016	0.824516	0.189724
N136	N	0.593016	1.324516	0.689724
H137	H	-0.026685	0.051883	0.000033
H138	H	0.473315	0.551883	0.500033
H139	H	0.210765	0.464978	0.000022
H140	H	0.710765	0.964978	0.500022
H141	H	0.212713	0.597088	0.000036
H142	H	0.712713	1.097088	0.500036
N143	N	-0.041410	0.195866	0.000011
N144	N	0.458590	0.695866	0.500011
H145	H	-0.069413	0.186930	0.045147
H146	H	0.430587	0.686930	0.545147
H147	H	-0.030937	0.246211	-0.000023
H148	H	0.469063	0.746211	0.499977
H149	H	0.169666	0.901081	-0.664073
H150	H	0.669666	1.401081	-0.164073
N151	N	-0.034859	0.639879	0.000015
N152	N	0.465141	1.139879	0.500015
H153	H	-0.024443	0.690244	0.000015
H154	H	0.475557	1.190244	0.500015
H155	H	-0.062838	0.630864	-0.045125
H156	H	0.437162	1.130864	0.454875
H157	H	0.016359	0.747883	-0.196834
H158	H	0.516359	1.247883	0.303166
N159	N	-0.242953	0.694382	0.000012
N160	N	0.257047	1.194382	0.500012
H161	H	-0.226562	0.666743	-0.045126
H162	H	0.273438	1.166743	0.454874
H163	H	-0.226542	0.666811	0.045179
H164	H	0.273458	1.166811	0.545179
H165	H	-0.020129	0.495896	0.000012
H166	H	0.479871	0.995896	0.500012
H167	H	-0.679592	0.704794	0.000055
H168	H	-0.179592	1.204794	0.500055
N169	N	0.005206	0.736736	-0.346016
N170	N	0.505206	1.236736	0.153984
H171	H	0.019101	0.685895	-0.332687
H172	H	0.519101	1.185895	0.167313
H173	H	-0.045613	0.750728	-0.332671
H174	H	0.454387	1.250728	0.167329
N175	N	0.180826	0.912203	-0.345938
N176	N	0.680826	1.412203	0.154062
H177	H	0.150348	0.946474	-0.377738
H178	H	0.650348	1.446474	0.122262
H179	H	0.207585	0.938894	-0.309977
H180	H	0.707585	1.438894	0.190023
H181	H	0.206160	0.153078	0.000028
H182	H	0.706160	0.653078	0.500028
N183	N	0.180815	0.912205	-0.186626
N184	N	0.680815	1.412205	0.313374
H185	H	0.174405	0.905800	-0.132260
H186	H	0.674405	1.405800	0.367740
H187	H	0.231631	0.898254	-0.200014
H188	H	0.731631	1.398254	0.299986
H189	H	0.204211	0.020968	0.000034
H190	H	0.704211	0.520968	0.500034
N191	N	0.005204	0.736776	-0.813325
N192	N	0.505204	1.236776	-0.313325
H193	H	-0.045629	0.750714	-0.799992
H194	H	0.454371	1.250714	-0.299992
H195	H	0.011673	0.743209	-0.867676
H196	H	0.511673	1.243209	-0.367676
N197	N	-0.127001	0.961136	-0.000014
N198	N	0.372999	1.461136	0.499986
H199	H	-0.166516	1.000941	-0.000014
H200	H	0.333484	1.500941	0.499986
H201	H	-0.097149	0.964363	0.045123
H202	H	0.402851	1.464363	0.545123
N203	N	0.180828	0.912250	-0.813243
N204	N	0.680828	1.412250	-0.313243
H205	H	0.174417	0.905853	-0.867614
H206	H	0.674417	1.405853	-0.367614
H207	H	0.166913	0.963070	-0.799834
H208	H	0.666913	1.463070	-0.299834
H209	H	-0.710500	0.935686	0.000053
H210	H	-0.210500	1.435686	0.500053
N211	N	0.005208	0.736758	-0.654025
N212	N	0.505208	1.236758	-0.154025
H213	H	0.019109	0.685920	-0.667373
H214	H	0.519109	1.185920	-0.167373
H215	H	0.011632	0.743217	-0.599666
H216	H	0.511632	1.243217	-0.099666
N217	N	-0.278376	0.958899	0.000002
N218	N	0.221624	1.458899	0.500002
H219	H	-0.269424	0.986920	0.045134
H220	H	0.230576	1.486920	0.545134
H221	H	-0.269415	0.986838	-0.045170
H222	H	0.230585	1.486838	0.454830
N223	N	-0.091577	0.696612	0.000002
N224	N	0.408423	1.196612	0.500002
H225	H	-0.060969	0.694227	0.045134
H226	H	0.439031	1.194227	0.545134
H227	H	-0.120341	0.655835	-0.000024
H228	H	0.379659	1.155835	0.499976
N229	N	-0.571011	0.954592	0.000025
N230	N	-0.071011	1.454592	0.500025
H231	H	-0.610525	0.994399	0.000031
H232	H	-0.110525	1.494399	0.500031
H233	H	-0.541155	0.957815	0.045160
H234	H	-0.041155	1.457815	0.545160
H235	H	-0.547478	0.706740	0.000041
H236	H	-0.047478	1.206740	0.500041
