data_functionalizedCrystal
_audit_creation_method	'MofGen! by Chris Wilmer'
_symmetry_space_group_name_H-M	'P1'
_symmetry_Int_Tables_number	1
_symmetry_cell_setting	triclinic
loop_
_symmetry_equiv_pos_as_xyz
  x,y,z
_cell_length_a	10.489746
_cell_length_b	10.723024
_cell_length_c	9.198806
_cell_angle_alpha	90.002012
_cell_angle_beta	89.998974
_cell_angle_gamma	95.495415
loop_
_atom_site_label
_atom_site_type_symbol
_atom_site_fract_x
_atom_site_fract_y
_atom_site_fract_z
O1	O	1.693937	-0.176091	-0.120791
O2	O	1.322731	-0.192611	-0.120815
O3	O	1.516896	-0.002780	-0.120797
O4	O	1.499772	-0.365922	-0.120809
O5	O	1.516881	-0.002780	0.120988
O6	O	1.322716	-0.192610	0.120970
O7	O	1.693921	-0.176091	0.120994
Cu8	Cu	1.508317	-0.184350	0.143059
Cu9	Cu	1.508335	-0.184351	-0.142880
O10	O	1.499756	-0.365921	0.120976
C11	C	1.275193	-0.191361	0.000075
C12	C	1.133566	-0.187625	0.000066
C13	C	0.980787	-0.064629	0.000090
C14	C	1.058134	-0.126121	0.119297
C15	C	1.058104	-0.126151	-0.119084
C16	C	0.958568	-0.242522	0.119406
C17	C	0.958533	-0.242534	-0.119082
C18	C	1.035831	-0.304112	0.000154
C19	C	1.515642	0.043720	0.000094
C20	C	1.511914	0.182277	0.000089
C21	C	1.741460	-0.177340	0.000102
C22	C	1.883086	-0.181077	0.000101
C23	C	1.501010	-0.412422	0.000083
C24	C	1.504739	-0.550979	0.000078
N25	N	1.508313	-0.184349	0.344173
C26	C	1.620558	0.257191	0.000094
C27	C	1.616707	0.400397	0.000088
N28	N	1.508349	-0.184342	-0.343994
C29	C	1.589838	-0.104293	0.416378
C30	C	1.589858	-0.104289	0.583790
H31	H	1.101635	-0.076963	0.220083
H32	H	1.709715	0.464771	0.000099
O33	O	1.425203	-0.266291	0.582017
C34	C	1.447324	-0.389961	0.619129
H35	H	1.549452	-0.391301	0.661049
H36	H	1.433444	-0.452395	0.518968
H37	H	1.376964	-0.426188	0.707377
O38	O	1.064809	-0.425045	0.000028
C39	C	1.011888	-0.486647	-0.124570
H40	H	0.928219	-0.436015	-0.165709
H41	H	0.976528	-0.587470	-0.095807
H42	H	1.088119	-0.486273	-0.212945
O43	O	1.393803	0.372190	-0.000186
C44	C	1.389006	0.296031	-0.125386
H45	H	1.453774	0.343180	-0.212906
H46	H	1.286393	0.282195	-0.167429
H47	H	1.422971	0.201136	-0.097067
H48	H	1.716424	0.215309	0.000109
H49	H	1.659616	-0.035752	0.354258
H50	H	0.956131	0.036627	0.000214
O51	O	1.397462	0.232083	0.000270
C52	C	1.327662	0.191977	0.125508
H53	H	1.363082	0.101332	0.167266
H54	H	1.221587	0.175004	0.097336
H55	H	1.341873	0.267163	0.213189
H56	H	1.438527	-0.252881	0.406295
H57	H	0.915008	-0.291648	-0.219872
O58	O	1.673070	-0.022344	0.657697
C59	C	1.650900	0.101325	0.620646
H60	H	1.601802	0.101594	0.510104
H61	H	1.746096	0.162119	0.615582
H62	H	1.586878	0.140266	0.706290
H63	H	0.915250	-0.291646	0.220303
H64	H	1.101585	-0.076971	-0.219867
