data_functionalizedCrystal
_audit_creation_method	'MofGen! by Chris Wilmer'
_symmetry_space_group_name_H-M	'P1'
_symmetry_Int_Tables_number	1
_symmetry_cell_setting	triclinic
loop_
_symmetry_equiv_pos_as_xyz
  x,y,z
_cell_length_a	6.817900
_cell_length_b	10.773995
_cell_length_c	16.305597
_cell_angle_alpha	96.327738
_cell_angle_beta	103.455834
_cell_angle_gamma	96.646613
loop_
_atom_site_label
_atom_site_type_symbol
_atom_site_fract_x
_atom_site_fract_y
_atom_site_fract_z
V1	V	-3.948730	-0.389354	-0.113595
O2	O	-3.937952	-0.381502	0.008667
O3	O	-3.900566	-0.387114	-0.228326
O4	O	-3.866395	-0.558971	-0.110440
O5	O	-3.972360	-0.208455	-0.110035
V6	V	-4.436725	-0.367665	-0.099138
O7	O	-4.200180	-0.436929	-0.145309
O8	O	-4.635472	-0.320090	-0.067424
O9	O	-4.261682	-0.369905	0.015593
O10	O	-4.564900	-0.375517	-0.221400
O11	O	-4.530492	-0.548564	-0.102698
O12	O	-4.295853	-0.198048	-0.102293
C13	C	-3.746722	-0.381081	-0.256339
C14	C	-3.788403	-0.380381	-0.350123
C15	C	-3.940025	-0.377895	-0.690901
C16	C	-3.705661	-0.371083	-0.650125
C17	C	-3.662076	-0.371317	-0.552525
C18	C	-3.864802	-0.379129	-0.521837
C19	C	-3.970897	-0.262901	-0.548137
C20	C	-4.012874	-0.262041	-0.645676
C21	C	-4.053639	-0.500600	-0.669096
C22	C	-4.006380	-0.502752	-0.571566
C23	C	-3.822301	-0.379822	-0.426289
C24	C	-3.982532	-0.377193	-0.786448
C25	C	-3.703133	-0.600300	-0.105963
C26	C	-3.717101	-0.738966	-0.104143
C27	C	-3.909647	-0.950166	-0.105438
C28	C	-3.895204	-0.806842	-0.107295
C29	C	-4.078869	-0.375935	0.043601
C30	C	-4.016425	-0.376643	0.137385
C31	C	-4.122458	-0.156712	-0.106773
C32	C	-4.087730	-0.018045	-0.108589
H33	H	-3.643354	-0.453802	-0.679941
H34	H	-3.767875	-0.998159	-0.101361
N35	N	-3.595937	-0.260079	-0.667946
N36	N	-3.462540	-0.269585	-0.708535
H37	H	-3.385050	-0.191187	-0.721123
H38	H	-3.579315	-0.454371	-0.534942
N39	N	-4.268662	-0.508385	-0.702879
N40	N	-4.360983	-0.422849	-0.679275
H41	H	-4.512839	-0.428342	-0.703136
N42	N	-3.911728	-0.146250	-0.661053
N43	N	-3.924370	-0.124684	-0.735735
H44	H	-3.852926	-0.042906	-0.746593
H45	H	-3.575312	-0.786951	-0.100063
H46	H	-4.120673	-0.264170	-0.528274
N47	N	-4.265567	-0.957829	-0.113688
N48	N	-4.253580	-0.841486	-0.115184
H49	H	-4.379182	-0.798958	-0.118784
N50	N	-4.073054	-0.746631	-0.112394
N51	N	-4.061067	-0.630288	-0.113890
H52	H	-4.186669	-0.587760	-0.117490
H53	H	-3.552939	-0.282565	-0.518803
N54	N	-4.226163	-0.261948	-0.679380
N55	N	-4.328135	-0.350095	-0.734557
H56	H	-4.478765	-0.350024	-0.758360
H57	H	-4.008417	-0.588743	-0.700901
N58	N	-3.845705	-0.148104	-0.504377
N59	N	-3.678328	-0.151579	-0.453802
H60	H	-3.589900	-0.070506	-0.422896
N61	N	-3.911066	-0.610634	-0.551011
N62	N	-3.739519	-0.596625	-0.499934
H63	H	-3.672199	-0.672815	-0.485408
N64	N	-4.194272	-0.518946	-0.546554
N65	N	-4.227045	-0.439278	-0.491427
H66	H	-4.359751	-0.450705	-0.473761
