data_functionalizedCrystal
_audit_creation_method	'MofGen! by Chris Wilmer'
_symmetry_space_group_name_H-M	'P1'
_symmetry_Int_Tables_number	1
_symmetry_cell_setting	triclinic
loop_
_symmetry_equiv_pos_as_xyz
  x,y,z
_cell_length_a	19.805407
_cell_length_b	29.839131
_cell_length_c	19.805399
_cell_angle_alpha	89.970435
_cell_angle_beta	89.982197
_cell_angle_gamma	90.038737
loop_
_atom_site_label
_atom_site_type_symbol
_atom_site_fract_x
_atom_site_fract_y
_atom_site_fract_z
Zn1	Zn	1.034665	-0.178896	-0.382678
Zn2	Zn	1.367998	0.154437	-0.049345
Zn3	Zn	1.701332	0.487771	0.283988
Zn4	Zn	1.034550	-0.254024	-0.269486
Zn5	Zn	1.367884	0.079310	0.063847
Zn6	Zn	1.701217	0.412643	0.397181
Zn7	Zn	0.921480	-0.178905	-0.269506
Zn8	Zn	1.254813	0.154429	0.063827
Zn9	Zn	1.588146	0.487762	0.397160
Zn10	Zn	0.921414	-0.253996	-0.382636
Zn11	Zn	1.254747	0.079337	-0.049303
Zn12	Zn	1.588080	0.412671	0.284030
O13	O	0.978027	-0.216455	-0.326077
O14	O	1.311360	0.116878	0.007257
O15	O	1.644694	0.450212	0.340590
O16	O	1.129366	-0.188870	-0.367672
O17	O	1.462700	0.144464	-0.034339
O18	O	1.796033	0.477797	0.298994
O19	O	1.019531	-0.244074	-0.174772
O20	O	1.352864	0.089259	0.158561
O21	O	1.686197	0.422593	0.491894
O22	O	0.936570	-0.116036	-0.284545
O23	O	1.269903	0.217297	0.048788
O24	O	1.603236	0.550630	0.382122
O25	O	1.129282	-0.244065	-0.284510
O26	O	1.462615	0.089268	0.048823
O27	O	1.795949	0.422601	0.382156
O28	O	1.019726	-0.116030	-0.367692
O29	O	1.353060	0.217303	-0.034358
O30	O	1.686393	0.550637	0.298975
O31	O	0.936458	-0.188885	-0.174787
O32	O	1.269792	0.144449	0.158546
O33	O	1.603125	0.477782	0.491880
O34	O	0.826754	-0.188858	-0.284504
O35	O	1.160088	0.144475	0.048829
O36	O	1.493421	0.477809	0.382162
O37	O	0.936457	-0.244019	-0.477359
O38	O	1.269790	0.089315	-0.144025
O39	O	1.603124	0.422648	0.189308
O40	O	0.826706	-0.244027	-0.367620
O41	O	1.160039	0.089306	-0.034287
O42	O	1.493372	0.422639	0.299046
O43	O	1.019662	-0.188843	-0.477389
O44	O	1.352996	0.144490	-0.144056
O45	O	1.686329	0.477824	0.189277
O46	O	1.019467	-0.316887	-0.284470
O47	O	1.352800	0.016446	0.048864
O48	O	1.686133	0.349780	0.382197
O49	O	0.936346	-0.316867	-0.367601
O50	O	1.269679	0.016466	-0.034267
O51	O	1.603012	0.349800	0.299066
C52	C	0.802171	-0.216441	-0.326060
C53	C	1.135504	0.116892	0.007273
C54	C	1.468838	0.450226	0.340606
C55	C	0.726939	-0.216446	-0.326069
C56	C	1.060272	0.116888	0.007264
C57	C	1.393606	0.450221	0.340597
C58	C	0.691640	-0.187756	-0.369438
C59	C	1.024973	0.145577	-0.036104
C60	C	1.358306	0.478911	0.297229
C61	C	0.620951	-0.187758	-0.369440
C62	C	0.954284	0.145575	-0.036107
C63	C	1.287618	0.478908	0.297226
C64	C	0.585564	-0.216453	-0.326078
C65	C	0.918897	0.116880	0.007256
C66	C	1.252230	0.450214	0.340589
C67	C	0.620868	-0.245144	-0.282705
C68	C	0.954201	0.088189	0.050629
C69	C	1.287535	0.421523	0.383962
C70	C	0.691555	-0.245139	-0.282699
C71	C	1.024889	0.088194	0.050634
C72	C	1.358222	0.421528	0.383968
C73	C	0.335795	-0.245164	-0.282725
C74	C	0.669128	0.088169	0.050608
C75	C	1.002461	0.421502	0.383941
C76	C	0.265103	-0.245168	-0.282736
C77	C	0.598436	0.088165	0.050598
C78	C	0.931769	0.421499	0.383931
C79	C	0.265191	-0.187784	-0.369466
C80	C	0.598524	0.145550	-0.036133
C81	C	0.931857	0.478883	0.297200
C82	C	0.335878	-0.187779	-0.369461
C83	C	0.669211	0.145555	-0.036128
C84	C	1.002544	0.478888	0.297206
C85	C	0.371176	-0.216468	-0.326086
C86	C	0.704509	0.116866	0.007248
C87	C	1.037843	0.450199	0.340581
C88	C	0.447825	-0.216464	-0.326083
C89	C	0.781158	0.116869	0.007251
C90	C	1.114491	0.450202	0.340584
C91	C	0.508916	-0.216459	-0.326084
C92	C	0.842250	0.116874	0.007250
C93	C	1.175583	0.450207	0.340583
C94	C	0.977905	-0.333178	-0.326043
C95	C	1.311238	0.000156	0.007290
C96	C	1.644572	0.333489	0.340623
C97	C	0.977915	-0.383112	-0.326052
C98	C	1.311248	-0.049779	0.007282
C99	C	1.644581	0.283555	0.340615
C100	C	1.021387	-0.692753	-0.282854
C101	C	1.354720	-0.359420	0.050480
C102	C	1.688054	-0.026087	0.383813
C103	C	1.021470	-0.880426	-0.282880
C104	C	1.354804	-0.547093	0.050453
C105	C	1.688137	-0.213760	0.383787
O106	O	1.058335	-0.904689	-0.246126
O107	O	1.391669	-0.571356	0.087207
O108	O	1.725002	-0.238023	0.420541
N109	N	0.978167	-0.903897	-0.326128
N110	N	1.311501	-0.570564	0.007205
N111	N	1.644834	-0.237230	0.340539
C112	C	0.934844	-0.880447	-0.369375
C113	C	1.268177	-0.547113	-0.036042
C114	C	1.601510	-0.213780	0.297291
O115	O	0.898019	-0.904716	-0.406166
O116	O	1.231352	-0.571383	-0.072832
O117	O	1.564685	-0.238050	0.260501
C118	C	0.934764	-0.692775	-0.369352
C119	C	1.268097	-0.359441	-0.036019
C120	C	1.601431	-0.026108	0.297315
C121	C	0.978065	-0.669306	-0.326096
C122	C	1.311398	-0.335973	0.007237
C123	C	1.644732	-0.002640	0.340570
C124	C	1.064685	-0.669285	-0.239602
C125	C	1.398018	-0.335952	0.093731
C126	C	1.731352	-0.002618	0.427064
C127	C	1.064661	-0.622369	-0.239594
C128	C	1.397994	-0.289036	0.093740
C129	C	1.731328	0.044297	0.427073
C130	C	1.021339	-0.598922	-0.282836
C131	C	1.354672	-0.265589	0.050497
C132	C	1.688006	0.067744	0.383830
C133	C	0.978041	-0.622391	-0.326088
C134	C	1.311374	-0.289057	0.007246
C135	C	1.644708	0.044276	0.340579
C136	C	0.891444	-0.669325	-0.412602
C137	C	1.224777	-0.335992	-0.079269
C138	C	1.558111	-0.002658	0.254064
C139	C	0.891429	-0.622404	-0.412594
C140	C	1.224763	-0.289071	-0.079261
C141	C	1.558096	0.044263	0.254073
C142	C	0.934730	-0.598936	-0.369338
C143	C	1.268064	-0.265602	-0.036005
C144	C	1.601397	0.067731	0.297328
C145	C	0.934695	-0.552028	-0.369322
C146	C	1.268029	-0.218695	-0.035988
C147	C	1.601362	0.114638	0.297345
N148	N	0.977998	-0.528558	-0.326074
N149	N	1.311332	-0.195224	0.007259
N150	N	1.644665	0.138109	0.340593
C151	C	1.021320	-0.552005	-0.282831
C152	C	1.354653	-0.218671	0.050502
C153	C	1.687987	0.114662	0.383836
C154	C	0.934888	-0.978977	-0.369384
C155	C	1.268221	-0.645644	-0.036050
C156	C	1.601554	-0.312311	0.297283
C157	C	0.934906	-1.025895	-0.369389
C158	C	1.268240	-0.692562	-0.036055
C159	C	1.601573	-0.359229	0.297278
C160	C	1.021534	-1.025872	-0.282894
C161	C	1.354868	-0.692538	0.050439
C162	C	1.688201	-0.359205	0.383773
C163	C	1.021512	-0.978953	-0.282886
C164	C	1.354845	-0.645619	0.050447
C165	C	1.688178	-0.312286	0.383781
C166	C	0.978191	-0.955507	-0.326136
C167	C	1.311524	-0.622173	0.007198
C168	C	1.644857	-0.288840	0.340531
C169	C	1.021266	-0.453479	-0.282816
C170	C	1.354600	-0.120145	0.050518
C171	C	1.687933	0.213188	0.383851
C172	C	1.021236	-0.406559	-0.282809
C173	C	1.354570	-0.073226	0.050525
C174	C	1.687903	0.260108	0.383858
C175	C	0.934611	-0.406587	-0.369306
C176	C	1.267945	-0.073254	-0.035972
C177	C	1.601278	0.260080	0.297361
C178	C	0.934638	-0.453502	-0.369310
C179	C	1.267972	-0.120169	-0.035977
C180	C	1.601305	0.213164	0.297356
C181	C	0.977971	-0.476947	-0.326063
C182	C	1.311305	-0.143614	0.007270
C183	C	1.644638	0.189719	0.340604
O184	O	0.897855	-0.527736	-0.406062
O185	O	1.231188	-0.194403	-0.072729
O186	O	1.564522	0.138930	0.260605
O187	O	1.058150	-0.527727	-0.246057
O188	O	1.391484	-0.194394	0.087277
O189	O	1.724817	0.138940	0.420610
C190	C	1.021411	-0.739669	-0.282862
C191	C	1.354744	-0.406335	0.050471
C192	C	1.688078	-0.073002	0.383804
C193	C	0.978113	-0.763137	-0.326114
C194	C	1.311446	-0.429804	0.007219
C195	C	1.644780	-0.096470	0.340553
C196	C	0.934791	-0.739690	-0.369357
C197	C	1.268124	-0.406357	-0.036023
C198	C	1.601458	-0.073023	0.297310
C199	C	0.978132	-0.810055	-0.326119
C200	C	1.311465	-0.476722	0.007214
C201	C	1.644798	-0.143388	0.340548
C202	C	1.021454	-0.833502	-0.282876
C203	C	1.354787	-0.500169	0.050457
C204	C	1.688120	-0.166835	0.383790
C205	C	1.064757	-0.810031	-0.239628
C206	C	1.398090	-0.476698	0.093705
C207	C	1.731423	-0.143365	0.427038
C208	C	1.064733	-0.763116	-0.239620
C209	C	1.398066	-0.429782	0.093714
C210	C	1.731399	-0.096449	0.427047
C211	C	0.891488	-0.763161	-0.412604
C212	C	1.224821	-0.429828	-0.079271
C213	C	1.558155	-0.096494	0.254062
C214	C	0.891515	-0.810076	-0.412609
C215	C	1.224848	-0.476743	-0.079276
C216	C	1.558181	-0.143410	0.254058
C217	C	0.934837	-0.833523	-0.369366
C218	C	1.268170	-0.500190	-0.036033
C219	C	1.601503	-0.166857	0.297300
C220	C	1.154570	-0.216470	-0.326094
C221	C	1.487903	0.116864	0.007240
C222	C	1.821236	0.450197	0.340573
C223	C	1.229802	-0.216476	-0.326101
C224	C	1.563135	0.116858	0.007232
C225	C	1.896468	0.450191	0.340566
C226	C	0.978065	-0.216427	-0.502620
C227	C	1.311398	0.116907	-0.169286
C228	C	1.644732	0.450240	0.164047
C229	C	0.978081	-0.216415	-0.577852
C230	C	1.311415	0.116919	-0.244518
C231	C	1.644748	0.450252	0.088815
C232	C	0.978168	-0.099277	-0.326125
C233	C	1.311502	0.234057	0.007208
C234	C	1.644835	0.567390	0.340541
C235	C	0.978228	-0.049342	-0.326146
C236	C	1.311562	0.283991	0.007187
C237	C	1.644895	0.617324	0.340521
C238	C	1.021407	-0.187683	-0.613213
C239	C	1.354741	0.145650	-0.279880
C240	C	1.688074	0.478983	0.053454
C241	C	1.021414	-0.187670	-0.683901
C242	C	1.354748	0.145663	-0.350568
C243	C	1.688081	0.478996	-0.017235
C244	C	0.978098	-0.216391	-0.719227
C245	C	1.311431	0.116942	-0.385894
C246	C	1.644765	0.450275	-0.052561
C247	C	0.934767	-0.245124	-0.683861
C248	C	1.268101	0.088209	-0.350528
C249	C	1.601434	0.421543	-0.017194
C250	C	0.934757	-0.245134	-0.613174
C251	C	1.268091	0.088199	-0.279841
C252	C	1.601424	0.421532	0.053493
C253	C	0.934806	-0.245082	-0.968934
C254	C	1.268139	0.088251	-0.635601
C255	C	1.601472	0.421585	-0.302268
C256	C	0.934820	-0.245070	-1.039627
C257	C	1.268154	0.088263	-0.706293
C258	C	1.601487	0.421596	-0.372960
C259	C	1.021462	-0.187618	-1.039662
C260	C	1.354796	0.145715	-0.706329
C261	C	1.688129	0.479049	-0.372995
C262	C	1.021452	-0.187628	-0.968975
C263	C	1.354786	0.145705	-0.635642
C264	C	1.688119	0.479038	-0.302308
C265	C	0.978119	-0.216359	-0.933615
C266	C	1.311453	0.116974	-0.600281
C267	C	1.644786	0.450307	-0.266948
C268	C	0.978112	-0.216372	-0.856966
C269	C	1.311445	0.116961	-0.523633
C270	C	1.644778	0.450294	-0.190300
C271	C	0.978109	-0.216381	-0.795874
C272	C	1.311442	0.116953	-0.462541
C273	C	1.644776	0.450286	-0.129208
C274	C	0.978028	-0.216451	-0.150221
C275	C	1.311362	0.116882	0.183113
C276	C	1.644695	0.450216	0.516446
C277	C	0.978143	-0.216336	-0.074989
C278	C	1.311477	0.116997	0.258344
C279	C	1.644810	0.450330	0.591677
H280	H	0.364687	-0.164414	-0.404774
H281	H	0.698020	0.168919	-0.071440
H282	H	1.031353	0.502253	0.261893
H283	H	0.856211	-0.744074	-0.447819
H284	H	1.189544	-0.410741	-0.114486
H285	H	1.522877	-0.077407	0.218848
O286	O	0.844807	-0.835388	-0.459263
O287	O	1.178140	-0.502055	-0.125930
O288	O	1.511473	-0.168722	0.207404
H289	H	0.856388	-0.826353	-0.512392
H290	H	1.189721	-0.493020	-0.179059
H291	H	1.523054	-0.159686	0.154275
H292	H	0.899531	-0.268483	-0.940153
H293	H	1.232864	0.064850	-0.606819
H294	H	1.566198	0.398184	-0.273486
H295	H	0.856153	-0.603316	-0.447815
H296	H	1.189486	-0.269983	-0.114482
H297	H	1.522819	0.063350	0.218851
H298	H	0.592050	-0.268506	-0.247395
H299	H	0.925383	0.064828	0.085939
H300	H	1.258717	0.398161	0.419272
O301	O	0.227115	-0.156836	-0.416245
O302	O	0.560448	0.176497	-0.082912
O303	O	0.893781	0.509830	0.250421
H304	H	0.263599	-0.136887	-0.446402
H305	H	0.596932	0.196446	-0.113068
H306	H	0.930265	0.529780	0.220265
O307	O	0.888042	-0.276098	-0.721962
O308	O	1.221376	0.057235	-0.388629
O309	O	1.554709	0.390568	-0.055296
H310	H	0.899599	-0.311361	-0.708379
H311	H	1.232932	0.021972	-0.375045
H312	H	1.566265	0.355306	-0.041712
H313	H	0.236292	-0.268536	-0.247422
H314	H	0.569625	0.064798	0.085911
H315	H	0.902959	0.398131	0.419245
O316	O	0.888197	-1.051207	-0.416033
O317	O	1.221530	-0.717874	-0.082700
O318	O	1.554863	-0.384541	0.250633
H319	H	0.899774	-1.042176	-0.469165
H320	H	1.233107	-0.708843	-0.135831
H321	H	1.566441	-0.375509	0.197502
O322	O	0.729634	-0.276083	-0.235925
O323	O	1.062967	0.057250	0.097409
O324	O	1.396301	0.390584	0.430742
H325	H	0.693153	-0.296040	-0.205776
H326	H	1.026486	0.037293	0.127557
H327	H	1.359819	0.370626	0.460890
O328	O	0.888019	-0.276117	-0.575029
O329	O	1.221352	0.057216	-0.241695
O330	O	1.554685	0.390550	0.091638
H331	H	0.857900	-0.296087	-0.611467
H332	H	1.191233	0.037246	-0.278134
H333	H	1.524567	0.370579	0.055200
O334	O	0.729801	-0.156803	-0.416207
O335	O	1.063134	0.176530	-0.082874
O336	O	1.396467	0.509864	0.250460
H337	H	0.761998	-0.176935	-0.450592
H338	H	1.095331	0.156398	-0.117259
H339	H	1.428665	0.489731	0.216074
O340	O	0.582875	-0.156815	-0.416215
O341	O	0.916208	0.176519	-0.082881
O342	O	1.249542	0.509852	0.250452
H343	H	0.619358	-0.136864	-0.446372
H344	H	0.952691	0.196469	-0.113038
H345	H	1.286025	0.529802	0.220295
O346	O	1.068011	-0.478755	-0.236171
O347	O	1.401344	-0.145421	0.097162
O348	O	1.734678	0.187912	0.430496
H349	H	1.102450	-0.500088	-0.266499
H350	H	1.435783	-0.166755	0.066834
H351	H	1.769117	0.166578	0.400168
O352	O	0.373863	-0.276104	-0.235943
O353	O	0.707197	0.057229	0.097391
O354	O	1.040530	0.390562	0.430724
H355	H	0.337379	-0.296059	-0.205796
H356	H	0.670712	0.037274	0.127538
H357	H	1.004045	0.370607	0.460871
H358	H	1.056683	-0.164297	-0.584456
H359	H	1.390016	0.169037	-0.251122
H360	H	1.723349	0.502370	0.082211
H361	H	1.056497	-0.387453	-0.247583
H362	H	1.389831	-0.054119	0.085751
H363	H	1.723164	0.279214	0.419084
O364	O	0.887936	-0.478819	-0.415961
O365	O	1.221269	-0.145486	-0.082627
O366	O	1.554602	0.187847	0.250706
H367	H	0.857810	-0.454631	-0.446030
H368	H	1.191143	-0.121297	-0.112697
H369	H	1.524476	0.212036	0.220636
O370	O	1.111374	-0.597059	-0.192950
O371	O	1.444708	-0.263726	0.140384
O372	O	1.778041	0.069607	0.473717
H373	H	1.141505	-0.621252	-0.162892
H374	H	1.474838	-0.287919	0.170441
H375	H	1.808171	0.045415	0.503774
H376	H	1.099967	-0.688371	-0.204389
H377	H	1.433300	-0.355037	0.128945
H378	H	1.766633	-0.021704	0.462278
O379	O	1.068148	-0.156684	-0.722044
O380	O	1.401481	0.176649	-0.388710
O381	O	1.734815	0.509982	-0.055377
H382	H	1.098274	-0.136720	-0.685604
H383	H	1.431607	0.196614	-0.352271
H384	H	1.764940	0.529947	-0.018937
H385	H	1.056771	-0.959848	-0.247664
H386	H	1.390105	-0.626514	0.085669
H387	H	1.723438	-0.293181	0.419002
H388	H	1.056809	-1.044970	-0.247684
H389	H	1.390142	-0.711637	0.085649
H390	H	1.723476	-0.378303	0.418982
H391	H	1.056727	-0.164242	-0.940216
H392	H	1.390061	0.169091	-0.606883
H393	H	1.723394	0.502424	-0.273549
H394	H	1.056744	-0.164222	-1.068461
H395	H	1.390077	0.169111	-0.735127
H396	H	1.723410	0.502444	-0.401794
H397	H	0.899544	-0.268459	-1.068387
H398	H	1.232877	0.064874	-0.735054
H399	H	1.566211	0.398207	-0.401720
H400	H	0.899609	-0.959891	-0.404604
H401	H	1.232942	-0.626557	-0.071270
H402	H	1.566275	-0.293224	0.262063
H403	H	0.856180	-0.688425	-0.447822
H404	H	1.189514	-0.355092	-0.114489
H405	H	1.522847	-0.021758	0.218844
O406	O	0.887885	-0.381295	-0.415946
O407	O	1.221219	-0.047962	-0.082613
O408	O	1.554552	0.285372	0.250721
H409	H	0.918155	-0.359889	-0.450406
H410	H	1.251489	-0.026556	-0.117073
H411	H	1.584822	0.306778	0.216261
O412	O	1.111443	-0.737806	-0.192973
O413	O	1.444776	-0.404472	0.140361
O414	O	1.778109	-0.071139	0.473694
H415	H	1.141572	-0.761998	-0.162914
H416	H	1.474906	-0.428665	0.170419
H417	H	1.808239	-0.095332	0.503753
O418	O	1.111498	-0.835324	-0.193000
O419	O	1.444831	-0.501991	0.140333
O420	O	1.778165	-0.168658	0.473667
H421	H	1.104242	-0.871891	-0.200286
H422	H	1.437576	-0.538558	0.133047
H423	H	1.770909	-0.205224	0.466381
