data_functionalizedCrystal
_audit_creation_method	'MofGen! by Chris Wilmer'
_symmetry_space_group_name_H-M	'P1'
_symmetry_Int_Tables_number	1
_symmetry_cell_setting	triclinic
loop_
_symmetry_equiv_pos_as_xyz
  x,y,z
_cell_length_a	19.288840
_cell_length_b	27.731996
_cell_length_c	17.766277
_cell_angle_alpha	90.007494
_cell_angle_beta	90.013814
_cell_angle_gamma	82.873701
loop_
_atom_site_label
_atom_site_type_symbol
_atom_site_fract_x
_atom_site_fract_y
_atom_site_fract_z
O1	O	0.920970	0.060241	0.062730
O2	O	0.718654	0.068388	0.062705
O3	O	0.826114	-0.006066	0.062702
O4	O	0.813510	0.134694	0.062733
O5	O	0.826100	-0.006063	-0.062487
O6	O	0.718640	0.068390	-0.062484
O7	O	0.920956	0.060243	-0.062459
Cu8	Cu	0.819796	0.064317	-0.073902
Cu9	Cu	0.819813	0.064314	0.074148
O10	O	0.813495	0.134697	-0.062456
C11	C	0.692772	0.068129	0.000107
C12	C	0.615672	0.067348	0.000097
C13	C	0.579479	0.066971	0.068339
C14	C	0.507037	0.066232	0.068348
C15	C	0.470793	0.065860	0.000111
C16	C	0.506994	0.066240	-0.068140
C17	C	0.579434	0.066983	-0.068147
C18	C	0.361651	0.036369	-0.052164
C19	C	0.289213	0.035622	-0.052154
C20	C	0.247364	0.063568	0.000130
C21	C	0.277963	0.092254	0.052417
C22	C	0.350403	0.092998	0.052410
C23	C	0.392244	0.065054	0.000111
C24	C	0.132621	0.062390	0.068387
C25	C	0.060177	0.061654	0.068393
C26	C	0.060136	0.061657	-0.068097
C27	C	0.132578	0.062397	-0.068101
C28	C	0.168816	0.062762	0.000143
C29	C	0.825848	-0.024073	0.000105
C30	C	0.825068	-0.077731	0.000097
C31	C	0.820169	-0.410463	0.068374
C32	C	0.817208	-0.612130	0.068386
O33	O	0.816801	-0.638204	0.126423
N34	N	0.816832	-0.637347	0.000147
C35	C	0.817192	-0.612144	-0.068101
O36	O	0.816798	-0.638219	-0.126143
C37	C	0.820149	-0.410477	-0.068113
C38	C	0.820532	-0.385264	0.000131
C39	C	0.820551	-0.385250	0.136612
C40	C	0.821295	-0.334836	0.136608
C41	C	0.821658	-0.309637	0.068366
C42	C	0.821276	-0.334850	0.000127
C43	C	0.820504	-0.385274	-0.136360
C44	C	0.821242	-0.334854	-0.136357
C45	C	0.821624	-0.309641	-0.068113
C46	C	0.822382	-0.259237	-0.068119
N47	N	0.822758	-0.234020	0.000120
C48	C	0.822395	-0.259220	0.068363
C49	C	0.815641	-0.718022	-0.068090
C50	C	0.814904	-0.768438	-0.068087
C51	C	0.814918	-0.768421	0.068401
C52	C	0.815661	-0.718004	0.068397
C53	C	0.816017	-0.692805	0.000150
C54	C	0.823959	-0.153348	0.068350
C55	C	0.824706	-0.102931	0.068340
C56	C	0.824688	-0.102952	-0.068148
C57	C	0.823945	-0.153365	-0.068138
C58	C	0.823578	-0.178562	0.000117
O59	O	0.822781	-0.233132	-0.126125
O60	O	0.822775	-0.233135	0.126396
C61	C	0.819425	-0.460877	0.068377
C62	C	0.819043	-0.486090	0.000139
C63	C	0.819405	-0.460891	-0.068104
C64	C	0.818305	-0.536507	0.000142
C65	C	0.817943	-0.561707	0.068384
C66	C	0.818319	-0.536490	0.136624
C67	C	0.819063	-0.486077	0.136620
C68	C	0.819030	-0.486107	-0.136343
C69	C	0.818287	-0.536521	-0.136334
C70	C	0.817924	-0.561721	-0.068091
C71	C	0.946838	0.060502	0.000140
C72	C	1.023937	0.061283	0.000156
C73	C	0.813761	0.152703	0.000143
C74	C	0.814541	0.206362	0.000155
N75	N	0.819790	0.064319	-0.178032
C76	C	0.861629	0.093544	-0.782308
C77	C	0.861622	0.093549	-0.703506
C78	C	0.819820	0.064309	-0.664121
C79	C	0.778008	0.035071	-0.703544
C80	C	0.778011	0.035070	-0.782345
C81	C	0.818377	0.020726	-0.539287
C82	C	0.818379	0.020726	-0.460489
C83	C	0.819807	0.064310	-0.421075
C84	C	0.821247	0.107895	-0.460470
C85	C	0.821250	0.107895	-0.539270
C86	C	0.819812	0.064306	-0.578675
C87	C	0.861605	0.093553	-0.296215
C88	C	0.861593	0.093559	-0.217412
C89	C	0.777983	0.035076	-0.217452
C90	C	0.777991	0.035075	-0.296253
C91	C	0.819806	0.064313	-0.335630
N92	N	0.819826	0.064308	0.178278
H93	H	0.030627	0.061356	-0.123657
H94	H	0.895662	0.117359	-0.671409
F95	F	0.821621	-0.308038	-0.208997
H96	H	0.817211	-0.014765	-0.428419
H97	H	0.895676	0.117353	-0.814364
H98	H	0.815971	-0.697479	0.123968
H99	H	0.822421	0.143384	-0.571342
H100	H	0.819374	-0.465552	0.192191
H101	H	0.743969	0.011262	-0.814435
F102	F	0.233429	0.121999	0.108064
H103	H	0.743954	0.011265	-0.328344
F104	F	0.820165	-0.412062	0.209252
F105	F	0.822770	0.154284	-0.418529
H106	H	0.817980	-0.557046	-0.191911
F107	F	0.906104	0.124672	-0.338126
H108	H	0.819326	-0.465595	-0.191916
F109	F	0.171100	0.062796	-0.140735
F110	F	0.256653	0.005101	-0.107813
H111	H	0.814623	-0.788948	0.123966
F112	F	0.814509	-0.795268	-0.140722
H113	H	0.030709	0.061351	0.123966
H114	H	0.743971	0.011264	-0.671472
F115	F	0.406184	0.006625	-0.107817
H116	H	0.477479	0.065938	-0.123699
H117	H	0.818027	-0.557017	0.192189
H118	H	0.608902	0.067291	-0.123720
H119	H	0.477562	0.065926	0.123921
H120	H	0.817208	-0.014767	-0.571371
F121	F	0.823550	-0.180202	-0.140771
F122	F	0.820094	-0.412097	-0.208996
F123	F	0.821698	-0.308008	0.209244
H124	H	0.815935	-0.697509	-0.123668
F125	F	0.825075	-0.076124	-0.140772
F126	F	0.906075	0.124687	-0.175465
F127	F	0.825115	-0.076100	0.140977
H128	H	0.743943	0.011271	-0.185385
H129	H	0.608980	0.067268	0.123909
F130	F	0.823568	-0.180158	0.140994
H131	H	0.162126	0.062692	0.123955
F132	F	0.382965	0.123528	0.108054
