data_functionalizedCrystal
_audit_creation_method	'MofGen! by Chris Wilmer'
_symmetry_space_group_name_H-M	'P1'
_symmetry_Int_Tables_number	1
_symmetry_cell_setting	triclinic
loop_
_symmetry_equiv_pos_as_xyz
  x,y,z
_cell_length_a	21.395362
_cell_length_b	12.827893
_cell_length_c	21.395356
_cell_angle_alpha	89.983579
_cell_angle_beta	90.029577
_cell_angle_gamma	89.974482
loop_
_atom_site_label
_atom_site_type_symbol
_atom_site_fract_x
_atom_site_fract_y
_atom_site_fract_z
Zn1	Zn	-0.249484	-1.597532	0.354254
Zn2	Zn	-0.354262	-1.597404	0.249474
Zn3	Zn	-0.249499	-1.422788	0.249491
Zn4	Zn	-0.354224	-1.422722	0.354214
O5	O	-0.301867	-1.510112	0.301858
O6	O	-0.263393	-1.743751	0.340364
O7	O	-0.340386	-1.574215	0.161798
O8	O	-0.161819	-1.446050	0.263412
O9	O	-0.340373	-1.743657	0.263383
O10	O	-0.161808	-1.574434	0.340381
O11	O	-0.263417	-1.445926	0.161811
O12	O	-0.263381	-1.276544	0.263373
O13	O	-0.340309	-1.445937	0.441898
O14	O	-0.340323	-1.276495	0.340313
O15	O	-0.263357	-1.574370	0.441927
O16	O	-0.441935	-1.574151	0.263344
O17	O	-0.441907	-1.445813	0.340297
C18	C	-0.301850	-1.238602	0.301841
C19	C	-0.301857	-1.122449	0.301848
C20	C	-0.464655	-1.509989	0.301828
C21	C	-0.534296	-1.510032	0.301836
C22	C	-0.263741	-0.950616	0.263851
C23	C	-0.263733	-1.070667	0.263843
C24	C	-1.036086	-1.577189	0.261891
C25	C	-0.970650	-1.577149	0.261876
C26	C	-0.937934	-1.510260	0.301903
C27	C	-0.970659	-1.443386	0.341936
C28	C	-1.036094	-1.443420	0.341945
C29	C	-0.834234	-1.501894	0.358334
C30	C	-0.768801	-1.501867	0.358326
C31	C	-0.736114	-1.510149	0.301875
C32	C	-0.768867	-1.518479	0.245430
C33	C	-0.834302	-1.518513	0.245440
C34	C	-0.866982	-1.510215	0.301898
C35	C	-0.632444	-1.576970	0.261825
C36	C	-0.567008	-1.576924	0.261810
C37	C	-0.567018	-1.443166	0.341875
C38	C	-0.632453	-1.443207	0.341885
C39	C	-0.665162	-1.510115	0.301861
C40	C	-0.138444	-1.510264	0.301903
C41	C	-0.068803	-1.510328	0.301921
C42	C	-0.301827	-1.510160	0.465282
C43	C	-0.301810	-1.510181	0.534923
C44	C	-0.301880	-0.782682	0.301871
C45	C	-0.301873	-0.898835	0.301864
C46	C	-0.301862	-1.510124	0.139071
C47	C	-0.301703	-1.510306	0.069430
C48	C	-0.261641	-1.577154	1.036736
C49	C	-0.261656	-1.577146	0.971300
C50	C	-0.301727	-1.510270	0.938562
C51	C	-0.341796	-1.443418	0.971264
C52	C	-0.341784	-1.443435	1.036698
C53	C	-0.306686	-1.416088	0.834885
C54	C	-0.306694	-1.416068	0.769452
C55	C	-0.301767	-1.510217	0.736741
C56	C	-0.296819	-1.604388	0.769470
C57	C	-0.296807	-1.604405	0.834904
C58	C	-0.301744	-1.510244	0.867609
C59	C	-0.261719	-1.577062	0.633094
C60	C	-0.261739	-1.577056	0.567657
C61	C	-0.341875	-1.443318	0.567622
C62	C	-0.341859	-1.443334	0.633057
C63	C	-0.301778	-1.510204	0.665789
H64	H	-0.231089	-1.115197	0.231297
H65	H	-0.944007	-1.631597	0.229278
H66	H	-0.231100	-0.906071	0.231316
H67	H	-0.860842	-1.495339	0.404316
O68	O	-0.291475	-1.705965	0.870209
H69	H	-0.331322	-1.757234	0.857647
H70	H	-0.540381	-1.388699	0.374463
H71	H	-0.334507	-1.077925	0.334392
H72	H	-0.659078	-1.631449	0.229235
O73	O	-1.071387	-1.371300	0.385121
H74	H	-1.101160	-1.418050	0.417027
H75	H	-0.374408	-1.388997	1.063317
H76	H	-0.334509	-0.943380	0.334404
H77	H	-0.229007	-1.631610	1.063382
H78	H	-1.062714	-1.631667	0.229298
H79	H	-0.374503	-1.388871	0.540967
H80	H	-0.860967	-1.525293	0.199481
O81	O	-0.733624	-1.527403	0.184536
H82	H	-0.682621	-1.525965	0.194009
H83	H	-0.944019	-1.388922	0.374526
O84	O	-0.218441	-1.649241	0.936024
H85	H	-0.190566	-1.695737	0.969778
H86	H	-0.292804	-1.681053	0.742837
H87	H	-0.540369	-1.631366	0.229209
H88	H	-0.229082	-1.631511	0.659746
H89	H	-0.229117	-1.631499	0.541038
H90	H	-0.659092	-1.388765	0.374484
O91	O	-0.733475	-1.492829	0.419198
H92	H	-0.767196	-1.487034	0.458451
O93	O	-0.385058	-1.371217	0.668327
H94	H	-0.412920	-1.324703	0.634571
H95	H	-0.310722	-1.339389	0.742809
O96	O	-0.311997	-1.314535	0.870167
H97	H	-0.315427	-1.249051	0.836417
O98	O	-0.385013	-1.371279	0.935959
H99	H	-0.378285	-1.382488	0.884965
