data_functionalizedCrystal
_audit_creation_method	'MofGen! by Chris Wilmer'
_symmetry_space_group_name_H-M	'P1'
_symmetry_Int_Tables_number	1
_symmetry_cell_setting	triclinic
loop_
_symmetry_equiv_pos_as_xyz
  x,y,z
_cell_length_a	16.176319
_cell_length_b	16.992698
_cell_length_c	17.699083
_cell_angle_alpha	86.974978
_cell_angle_beta	89.994467
_cell_angle_gamma	90.005005
loop_
_atom_site_label
_atom_site_type_symbol
_atom_site_fract_x
_atom_site_fract_y
_atom_site_fract_z
O1	O	-0.068765	-1.040087	-0.160444
O2	O	-0.068763	-0.811805	-0.158686
O3	O	-0.068757	-0.932395	-0.049777
O4	O	-0.068771	-0.919496	-0.269353
O5	O	0.068736	-0.932384	-0.049798
O6	O	0.068730	-0.811793	-0.158706
O7	O	0.068728	-1.040075	-0.160464
Cu8	Cu	0.081283	-0.925933	-0.159587
Cu9	Cu	-0.081318	-0.925947	-0.159563
O10	O	0.068722	-0.919484	-0.269373
C11	C	-0.000016	-0.782591	-0.156432
C12	C	-0.000015	-0.695559	-0.149675
N13	N	0.195648	-0.925929	-0.159604
N14	N	-0.195684	-0.925957	-0.159541
C15	C	-0.000011	-0.206686	-0.104279
C16	C	-0.000007	-0.288460	-0.110633
C17	C	-0.000016	-0.319867	-0.182185
C18	C	-0.000020	-0.269495	-0.247388
C19	C	-0.000018	-0.187722	-0.241033
C20	C	-0.000018	-0.563414	-0.208523
C21	C	-0.000022	-0.645193	-0.214873
C22	C	-0.000008	-0.664153	-0.078118
C23	C	-0.000011	-0.582378	-0.071769
C24	C	-0.000010	-0.532013	-0.136971
N25	N	-0.000015	-0.403454	-0.188682
N26	N	-0.000006	-0.448428	-0.130474
C27	C	0.761042	-0.878496	-0.110745
C28	C	0.674495	-0.878494	-0.110751
C29	C	0.631224	-0.925950	-0.159557
C30	C	0.674504	-0.973416	-0.208354
C31	C	0.761050	-0.973422	-0.208344
C32	C	0.325476	-0.973397	-0.208396
C33	C	0.238924	-0.973386	-0.208404
C34	C	0.238921	-0.878470	-0.110803
C35	C	0.325467	-0.878475	-0.110792
C36	C	0.368739	-0.925944	-0.159587
C37	C	0.462584	-0.925946	-0.159579
C38	C	0.537381	-0.925944	-0.159569
C39	C	-0.000010	-0.931927	-0.021562
C40	C	-0.000010	-0.930541	0.062543
C41	C	-0.000018	-0.069289	-0.162719
C42	C	-0.000018	-0.156320	-0.169477
C43	C	-0.000027	-0.919952	-0.297589
C44	C	-0.000033	-0.921339	-0.381693
C45	C	-0.000009	-1.001325	0.106757
C46	C	-0.000017	-1.000017	0.185782
C47	C	-0.000019	-0.927925	0.220591
C48	C	-0.000022	-0.857135	0.176370
C49	C	-0.000020	-0.858443	0.097347
C50	C	-0.000028	-0.851857	0.495062
C51	C	-0.000027	-0.850554	0.574091
C52	C	-0.000025	-0.993431	0.583497
C53	C	-0.000023	-0.994739	0.504474
C54	C	-0.000031	-0.923950	0.460260
C55	C	-0.000024	-0.925369	0.374573
C56	C	-0.000019	-0.926505	0.306277
H57	H	-0.000009	-0.181121	-0.046014
C58	C	-0.000041	-0.773987	0.446437
N59	N	-0.000053	-0.715331	0.409810
H60	H	0.360694	-0.839829	-0.071053
H61	H	0.639266	-1.012059	-0.248089
H62	H	-0.000022	-0.522416	-0.261616
H63	H	0.796267	-0.839848	-0.071006
C64	C	0.626897	-0.826280	-0.057075
N65	N	0.591047	-0.786949	-0.016645
C66	C	0.191313	-0.826323	-0.057063
N67	N	0.155456	-0.787070	-0.016567
H68	H	-0.000021	-0.800804	0.061348
H69	H	0.000002	-0.329465	-0.057542
H70	H	-0.000003	-0.556813	-0.013504
C71	C	-0.000027	-0.304045	-0.326096
N72	N	-0.000035	-0.330068	-0.385381
C73	C	-0.000007	-1.080633	0.068476
N74	N	-0.000009	-1.140371	0.039644
H75	H	-0.000007	-0.705169	-0.025034
C76	C	0.808651	-1.025629	-0.262026
N77	N	0.844503	-1.064954	-0.302460
H78	H	0.203695	-1.012033	-0.248149
H79	H	-0.000017	-0.670761	-0.273142
H80	H	-0.000014	-1.057657	0.221779
H81	H	0.360698	-1.012049	-0.248128
H82	H	-0.000018	-1.053444	0.476137
C83	C	-0.000036	-0.771243	0.612378
N84	N	-0.000044	-0.711509	0.641216
C85	C	-0.000017	-0.777832	0.214662
N86	N	-0.000007	-0.718100	0.243503
H87	H	-0.000021	-0.146714	-0.294124
H88	H	-0.000023	-1.051071	0.619505
