data_functionalizedCrystal
_audit_creation_method	'MofGen! by Chris Wilmer'
_symmetry_space_group_name_H-M	'P1'
_symmetry_Int_Tables_number	1
_symmetry_cell_setting	triclinic
loop_
_symmetry_equiv_pos_as_xyz
  x,y,z
_cell_length_a	6.817900
_cell_length_b	17.982783
_cell_length_c	16.015572
_cell_angle_alpha	78.159762
_cell_angle_beta	104.485554
_cell_angle_gamma	102.448572
loop_
_atom_site_label
_atom_site_type_symbol
_atom_site_fract_x
_atom_site_fract_y
_atom_site_fract_z
V1	V	-3.990105	-0.030701	-0.269497
V2	V	-3.490105	0.469299	0.230503
O3	O	-3.983625	0.078252	-0.263999
O4	O	-3.483625	0.578252	0.236001
O5	O	-3.936766	-0.134716	-0.268009
O6	O	-3.436766	0.365284	0.231991
O7	O	-3.928047	0.003460	-0.386873
O8	O	-3.428047	0.503460	0.113127
O9	O	-3.992405	-0.060880	-0.144312
O10	O	-3.492405	0.439120	0.355688
V11	V	-4.476142	-0.021650	-0.254481
V12	V	-3.976142	0.478350	0.245519
O13	O	-4.245847	-0.050556	-0.302437
O14	O	-3.745847	0.449444	0.197563
O15	O	-4.670598	-0.001794	-0.221542
O16	O	-4.170598	0.498206	0.278458
O17	O	-4.306275	0.082365	-0.255970
O18	O	-3.806275	0.582365	0.244030
O19	O	-4.600019	-0.130603	-0.259980
O20	O	-4.100019	0.369397	0.240020
O21	O	-4.591239	0.008529	-0.379667
O22	O	-4.091239	0.508529	0.120333
O23	O	-4.314994	-0.055810	-0.137106
O24	O	-3.814994	0.444190	0.362894
C25	C	-3.781008	-0.161125	-0.263849
C26	C	-3.281008	0.338875	0.236151
C27	C	-3.818593	-0.245942	-0.263414
C28	C	-3.318593	0.254058	0.236586
C29	C	-3.805786	-0.296833	-0.184124
C30	C	-3.305786	0.203167	0.315876
C31	C	-3.841121	-0.376527	-0.183719
C32	C	-3.341121	0.123473	0.316281
C33	C	-3.889248	-0.405328	-0.262604
C34	C	-3.389248	0.094672	0.237396
C35	C	-3.902060	-0.354431	-0.341900
C36	C	-3.402060	0.145569	0.158100
C37	C	-3.866740	-0.274739	-0.342305
C38	C	-3.366740	0.225261	0.157695
C39	C	-4.044505	-0.675821	-0.340270
C40	C	-3.544505	-0.175821	0.159730
C41	C	-4.079819	-0.755520	-0.339858
C42	C	-3.579819	-0.255520	0.160142
C43	C	-4.018886	-0.777610	-0.181683
C44	C	-3.518886	-0.277610	0.318317
C45	C	-3.983566	-0.697917	-0.182088
C46	C	-3.483566	-0.197917	0.317912
C47	C	-3.996392	-0.647027	-0.261384
C48	C	-3.496392	-0.147027	0.238616
C49	C	-3.958082	-0.560614	-0.261823
C50	C	-3.458082	-0.060614	0.238177
C51	C	-3.927543	-0.491740	-0.262166
C52	C	-3.427543	0.008260	0.237834
C53	C	-3.769884	0.015132	-0.415471
C54	C	-3.269884	0.515132	0.084529
C55	C	-3.800395	0.042374	-0.511428
C56	C	-3.300395	0.542374	-0.011428
C57	C	-4.077549	-0.199424	-0.889883
C58	C	-3.577549	0.300576	-0.389883
C59	C	-4.106225	-0.173801	-0.980046
C60	C	-3.606225	0.326199	-0.480046
C61	C	-4.035531	-0.041239	-0.954888
C62	C	-3.535531	0.458761	-0.454888
C63	C	-4.006838	-0.066850	-0.864721
C64	C	-3.506838	0.433150	-0.364721
C65	C	-4.027854	-0.145944	-0.832227
C66	C	-3.527854	0.354056	-0.332227
C67	C	-3.957143	-0.013370	-0.807065
C68	C	-3.457143	0.486630	-0.307065
C69	C	-3.928464	-0.038980	-0.716906
C70	C	-3.428464	0.461020	-0.216906
C71	C	-3.949480	-0.118070	-0.684405
C72	C	-3.449480	0.381930	-0.184405
C73	C	-3.999175	-0.171553	-0.742069
C74	C	-3.499175	0.328447	-0.242069
C75	C	-3.936143	0.065723	-0.839561
C76	C	-3.436143	0.565723	-0.339561
C77	C	-3.886448	0.119203	-0.781905
C78	C	-3.386448	0.619203	-0.281905
C79	C	-3.857753	0.093593	-0.691744
C80	C	-3.357753	0.593593	-0.191744
C81	C	-3.878770	0.014503	-0.659243
C82	C	-3.378770	0.514503	-0.159243
C83	C	-3.808059	0.147077	-0.634080
C84	C	-3.308059	0.647077	-0.134080
C85	C	-3.779380	0.121467	-0.543922
C86	C	-3.279380	0.621467	-0.043922
C87	C	-3.850091	-0.011106	-0.569084
C88	C	-3.350091	0.488894	-0.069084
C89	C	-4.125375	0.108770	-0.260127
C90	C	-3.625375	0.608770	0.239873
C91	C	-4.067028	0.193587	-0.260568
C92	C	-3.567028	0.693587	0.239432
C93	C	-4.136499	-0.067486	-0.108503
C94	C	-3.636499	0.432514	0.391497
C95	C	-4.085227	-0.094725	-0.012545
C96	C	-3.585227	0.405275	0.487455
H97	H	-4.119010	-0.778966	-0.404100
H98	H	-3.619010	-0.278966	0.095900
H99	H	-3.738914	0.165016	-0.496976
H100	H	-3.238914	0.665016	0.003024
H101	H	-4.094634	-0.263829	-0.863424
H102	H	-3.594634	0.236171	-0.363424
H103	H	-3.766583	-0.273390	-0.119886
H104	H	-3.266583	0.226610	0.380114
F105	F	-3.880381	-0.220576	-0.426697
F106	F	-3.380381	0.279424	0.073303
H107	H	-3.944370	-0.674472	-0.117851
H108	H	-3.444370	-0.174472	0.382149
H109	H	-4.016260	-0.235958	-0.715610
H110	H	-3.516260	0.264042	-0.215610
H111	H	-3.867176	-0.075511	-0.542625
H112	H	-3.367176	0.424489	-0.042625
F113	F	-3.918963	-0.145327	-0.588449
F114	F	-3.418963	0.354673	-0.088449
F115	F	-4.058144	-0.621670	-0.424663
F116	F	-3.558144	-0.121670	0.075337
F117	F	-4.159124	-0.230729	-1.041407
F118	F	-3.659124	0.269271	-0.541407
F119	F	-4.013172	0.042935	-0.989481
F120	F	-3.513172	0.542935	-0.489481
F121	F	-3.953295	-0.385086	-0.425857
F122	F	-3.453295	0.114914	0.074143
H123	H	-3.959466	0.086572	-0.912974
H124	H	-3.459466	0.586572	-0.412974
H125	H	-4.008454	-0.819055	-0.117116
H126	H	-3.508454	-0.319055	0.382884
H127	H	-3.830696	-0.417960	-0.119153
H128	H	-3.330696	0.082040	0.380847
F129	F	-3.864089	0.203377	-0.816498
F130	F	-3.364089	0.703377	-0.316498
H131	H	-3.790974	0.211474	-0.660552
H132	H	-3.290974	0.711474	-0.160552
