data_functionalizedCrystal
_audit_creation_method	'MofGen! by Chris Wilmer'
_symmetry_space_group_name_H-M	'P1'
_symmetry_Int_Tables_number	1
_symmetry_cell_setting	triclinic
loop_
_symmetry_equiv_pos_as_xyz
  x,y,z
_cell_length_a	17.000383
_cell_length_b	17.019294
_cell_length_c	12.996460
_cell_angle_alpha	86.114884
_cell_angle_beta	89.991116
_cell_angle_gamma	79.506204
loop_
_atom_site_label
_atom_site_type_symbol
_atom_site_fract_x
_atom_site_fract_y
_atom_site_fract_z
O1	O	1.056069	0.028438	-0.088157
O2	O	1.556069	0.528438	0.411843
O3	O	0.824304	0.057068	-0.090680
O4	O	1.324304	0.557068	0.409320
O5	O	0.946652	-0.072528	-0.079199
O6	O	1.446652	0.427472	0.420801
O7	O	0.933721	0.158035	-0.099637
O8	O	1.433721	0.658035	0.400363
O9	O	0.946639	-0.072534	0.091935
O10	O	1.446639	0.427466	0.591935
O11	O	0.824292	0.057063	0.080455
O12	O	1.324292	0.557063	0.580455
O13	O	1.056056	0.028433	0.082978
O14	O	1.556056	0.528433	0.582978
Cu15	Cu	0.940173	0.042747	0.097342
Cu16	Cu	1.440173	0.542747	0.597342
Cu17	Cu	0.940188	0.042754	-0.105044
Cu18	Cu	1.440188	0.542754	0.394956
O19	O	0.933709	0.158029	0.071497
O20	O	1.433709	0.658029	0.571497
C21	C	0.794643	0.058603	-0.005247
C22	C	1.294643	0.558603	0.494753
C23	C	0.706279	0.063175	-0.005647
C24	C	1.206279	0.563175	0.494353
C25	C	0.206029	0.092699	-0.008302
C26	C	0.706029	0.592699	0.491698
C27	C	0.289056	0.088397	-0.007920
C28	C	0.789056	0.588397	0.492080
C29	C	0.340136	0.013720	-0.001293
C30	C	0.840136	0.513720	0.498707
C31	C	0.308184	-0.056658	0.004943
C32	C	0.808184	0.443342	0.504943
C33	C	0.225157	-0.052355	0.004553
C34	C	0.725157	0.447645	0.504553
C35	C	0.591300	-0.002900	0.000199
C36	C	1.091300	0.497100	0.500199
C37	C	0.674332	-0.007198	0.000591
C38	C	1.174332	0.492802	0.500591
C39	C	0.655199	0.137858	-0.012273
C40	C	1.155199	0.637858	0.487727
C41	C	0.572172	0.142154	-0.012656
C42	C	1.072172	0.642154	0.487344
C43	C	0.540227	0.071775	-0.006427
C44	C	1.040227	0.571775	0.493573
C45	C	0.425004	0.009321	-0.000898
C46	C	0.925004	0.509321	0.499102
C47	C	0.455360	0.076176	-0.006828
C48	C	0.955360	0.576176	0.493172
C49	C	0.946155	-0.101886	0.008968
C50	C	1.446155	0.398114	0.508968
C51	C	0.944684	-0.189355	0.016716
C52	C	1.444684	0.310645	0.516716
C53	C	0.944002	-0.230440	-0.072929
C54	C	1.444002	0.269560	0.427071
C55	C	0.942614	-0.312625	-0.065647
C56	C	1.442614	0.187375	0.434353
C57	C	0.941915	-0.353724	0.031282
C58	C	1.441915	0.146276	0.531282
C59	C	0.942595	-0.312633	0.120934
C60	C	1.442595	0.187367	0.620934
C61	C	0.943977	-0.230448	0.113650
C62	C	1.443977	0.269552	0.613650
C63	C	0.937738	-0.601868	0.057941
C64	C	1.437738	-0.101868	0.557941
C65	C	0.936359	-0.684059	0.065218
C66	C	1.436359	-0.184059	0.565218
C67	C	0.936377	-0.684045	-0.121363
C68	C	1.436377	-0.184045	0.378637
C69	C	0.937763	-0.601860	-0.128638
C70	C	1.437763	-0.101860	0.371362
C71	C	0.938439	-0.560775	-0.038987
C72	C	1.438439	-0.060775	0.461013
C73	C	0.940500	-0.437731	0.038728
C74	C	1.440500	0.062269	0.538728
C75	C	0.939849	-0.476768	-0.046434
C76	C	1.439849	0.023232	0.453566
C77	C	1.085718	0.026898	-0.002457
C78	C	1.585718	0.526898	0.497543
C79	C	1.174082	0.022326	-0.002064
C80	C	1.674082	0.522326	0.497936
C81	C	0.934205	0.187387	-0.016672
C82	C	1.434205	0.687387	0.483328
C83	C	0.935676	0.274856	-0.024427
C84	C	1.435676	0.774856	0.475573
N85	N	0.940168	0.042741	0.239690
N86	N	1.440168	0.542741	0.739690
N87	N	0.940199	0.042753	-0.247391
N88	N	1.440199	0.542753	0.252609
C89	C	0.940187	0.042755	0.659503
C90	C	1.440187	0.542755	1.159503
C91	C	0.940179	0.042754	0.542698
C92	C	1.440179	0.542754	1.042698
C93	C	0.940178	0.042749	0.449600
C94	C	1.440178	0.542749	0.949600
C95	C	0.940169	0.042747	0.332788
C96	C	1.440169	0.542747	0.832788
H97	H	0.199148	-0.109661	0.009631
H98	H	0.699148	0.390339	0.509631
F99	F	0.151673	0.172181	-0.015348
F100	F	0.651673	0.672181	0.484652
H101	H	0.315063	0.145702	-0.013009
H102	H	0.815063	0.645702	0.486991
H103	H	0.681218	0.195156	-0.017347
H104	H	1.181218	0.695156	0.482653
H105	H	0.349779	-0.117461	0.010333
H106	H	0.849779	0.382539	0.510333
F107	F	0.400997	0.155649	-0.013888
F108	F	0.900997	0.655649	0.486112
H109	H	0.944575	-0.196984	-0.151859
H110	H	1.444575	0.303016	0.348141
H111	H	0.944521	-0.196995	0.186648
H112	H	1.444521	0.303005	0.686648
H113	H	0.940412	-0.443301	-0.125353
H114	H	1.440412	0.056699	0.374647
F115	F	0.941842	-0.356374	0.224093
F116	F	1.441842	0.143626	0.724093
H117	H	0.565302	-0.060207	0.005274
H118	H	1.065302	0.439793	0.505274
F119	F	0.479373	-0.070153	0.006163
F120	F	0.979373	0.429847	0.506163
F121	F	0.939752	-0.481478	0.141885
F122	F	1.439752	0.018522	0.641885
H123	H	0.530587	0.202964	-0.018056
H124	H	1.030587	0.702964	0.481944
F125	F	0.935619	-0.727799	0.168388
F126	F	1.435619	-0.227799	0.668388
F127	F	0.941889	-0.356348	-0.161060
F128	F	1.441889	0.143652	0.338940
F129	F	0.728694	-0.086683	0.007644
F130	F	1.228694	0.413317	0.507644
F131	F	0.938509	-0.558125	-0.231803
F132	F	1.438509	-0.058125	0.268197
F133	F	0.935657	-0.727777	-0.216769
F134	F	1.435657	-0.227777	0.283231
H135	H	0.938304	-0.568430	0.130942
H136	H	1.438304	-0.068430	0.630942
