data_functionalizedCrystal
_audit_creation_method	'MofGen! by Chris Wilmer'
_symmetry_space_group_name_H-M	'P1'
_symmetry_Int_Tables_number	1
_symmetry_cell_setting	triclinic
loop_
_symmetry_equiv_pos_as_xyz
  x,y,z
_cell_length_a	6.817900
_cell_length_b	15.866870
_cell_length_c	12.200875
_cell_angle_alpha	111.092108
_cell_angle_beta	107.143593
_cell_angle_gamma	102.655915
loop_
_atom_site_label
_atom_site_type_symbol
_atom_site_fract_x
_atom_site_fract_y
_atom_site_fract_z
V1	V	-4.100361	-0.132887	-0.413851
O2	O	-4.053554	0.006162	-0.348247
O3	O	-4.083035	-0.263278	-0.466540
O4	O	-4.069614	-0.130942	-0.569017
O5	O	-4.067067	-0.127091	-0.245061
V6	V	-4.577674	-0.116244	-0.386918
O7	O	-4.375239	-0.169396	-0.472932
O8	O	-4.752993	-0.079735	-0.327838
O9	O	-4.371794	0.014146	-0.334230
O10	O	-4.741878	-0.255293	-0.452523
O11	O	-4.728365	-0.122041	-0.555709
O12	O	-4.385214	-0.118190	-0.231753
C13	C	-3.935024	-0.295061	-0.474337
C14	C	-4.002262	-0.401657	-0.518451
C15	C	-3.917903	-0.126252	-0.605055
C16	C	-3.974254	-0.125524	-0.732268
C17	C	-3.944608	-0.683492	-0.109260
C18	C	-4.007802	-0.783660	-0.150750
C19	C	-4.119320	-0.811148	-0.372465
C20	C	-4.056123	-0.710980	-0.330993
C21	C	-3.968772	-0.647159	-0.199389
C22	C	-4.080288	-0.674647	-0.421122
C23	C	-4.017108	-0.574488	-0.379654
C24	C	-3.929762	-0.510662	-0.248056
C25	C	-3.905592	-0.547000	-0.157921
C26	C	-4.167654	-0.738470	-0.552726
C27	C	-4.191819	-0.702137	-0.642856
C28	C	-4.128623	-0.601976	-0.601387
C29	C	-4.041278	-0.538149	-0.469789
C30	C	-4.152794	-0.565637	-0.691523
C31	C	-4.089613	-0.465478	-0.650054
C32	C	-3.978098	-0.437990	-0.428321
C33	C	-4.077385	-0.124192	-0.965179
C34	C	-4.019987	-0.124933	-0.835571
C35	C	-4.183148	0.045925	-0.326432
C36	C	-4.095148	0.152520	-0.282326
C37	C	-4.200267	-0.122882	-0.195710
C38	C	-4.123153	-0.123606	-0.068494
H39	H	-3.906935	-0.386022	-0.321155
N40	N	-4.115631	-0.426273	-0.747249
H41	H	-4.217003	-0.388653	-0.740287
H42	H	-4.180467	-0.481945	-0.836865
N43	N	-4.286019	-0.770963	-0.784798
H44	H	-4.424495	-0.762858	-0.831345
H45	H	-4.322251	-0.839899	-0.797298
N46	N	-4.235814	-0.846499	-0.597456
H47	H	-4.294840	-0.881417	-0.694501
H48	H	-4.354166	-0.868461	-0.569119
N49	N	-3.811377	-0.478158	-0.015975
H50	H	-3.775026	-0.409196	-0.003388
H51	H	-3.672958	-0.486334	0.030490
H52	H	-3.873445	-0.631524	-0.002094
N53	N	-3.861601	-0.402629	-0.203304
H54	H	-3.993366	-0.387215	-0.242135
H55	H	-3.743116	-0.380641	-0.231538
N56	N	-4.247002	-0.634478	-0.833459
H57	H	-4.252721	-0.596263	-0.884265
H58	H	-4.400756	-0.679954	-0.860792
H59	H	-4.190456	-0.863124	-0.479617
N60	N	-3.981747	-0.822850	-0.053532
H61	H	-3.916827	-0.767219	0.036127
H62	H	-3.880425	-0.860483	-0.060604
