data_functionalizedCrystal
_audit_creation_method	'MofGen! by Chris Wilmer'
_symmetry_space_group_name_H-M	'P1'
_symmetry_Int_Tables_number	1
_symmetry_cell_setting	triclinic
loop_
_symmetry_equiv_pos_as_xyz
  x,y,z
_cell_length_a	14.971486
_cell_length_b	11.026607
_cell_length_c	14.048226
_cell_angle_alpha	89.996210
_cell_angle_beta	89.998499
_cell_angle_gamma	96.100073
loop_
_atom_site_label
_atom_site_type_symbol
_atom_site_fract_x
_atom_site_fract_y
_atom_site_fract_z
O1	O	1.212292	0.158180	-0.079046
O2	O	0.954927	0.177123	-0.079071
O3	O	1.062279	-0.009032	-0.079057
O4	O	1.104939	0.344336	-0.079060
O5	O	1.062261	-0.009043	0.079264
O6	O	0.954908	0.177112	0.079250
O7	O	1.212274	0.158169	0.079275
Zn8	Zn	1.083588	0.167639	0.104399
Zn9	Zn	1.083612	0.167653	-0.104196
O10	O	1.104921	0.344325	0.079261
C11	C	0.921457	0.176270	0.000086
C12	C	0.821753	0.173732	0.000076
C13	C	1.054400	-0.054260	0.000101
C14	C	1.030939	-0.189008	0.000096
C15	C	0.782051	0.283093	0.000077
C16	C	0.688368	0.280700	0.000091
C17	C	0.634389	0.168945	0.000098
C18	C	0.674098	0.059576	0.000100
C19	C	0.767779	0.061969	0.000093
C20	C	0.478837	0.054594	0.000113
C21	C	0.385150	0.052200	0.000119
C22	C	0.399426	0.273325	0.000111
C23	C	0.493107	0.275718	0.000104
C24	C	0.532809	0.166348	0.000105
C25	C	1.095719	-0.262720	0.000101
C26	C	1.071472	-0.401989	0.000095
C27	C	1.245743	0.159022	0.000116
C28	C	1.345447	0.161561	0.000119
C29	C	1.112800	0.389552	0.000100
C30	C	1.136261	0.524300	0.000100
N31	N	1.083578	0.167628	0.246760
N32	N	1.083628	0.167654	-0.246556
C33	C	1.131138	0.085233	0.296584
C34	C	1.131144	0.085232	0.396242
C35	C	1.083595	0.167634	0.446074
C36	C	1.036029	0.250033	0.396242
C37	C	1.036018	0.250027	0.296587
C38	C	1.036056	0.250042	0.603957
C39	C	1.036068	0.250050	0.703619
C40	C	1.131182	0.085247	0.703612
C41	C	1.131171	0.085241	0.603956
C42	C	1.083607	0.167642	0.554132
H43	H	0.825994	0.374096	0.000070
H44	H	1.209677	-0.435709	0.000035
C45	C	0.644700	0.401006	0.000108
N46	N	0.611810	0.491627	0.000129
C47	C	0.972290	-0.456013	0.000086
N48	N	0.897588	-0.496705	0.000083
C49	C	0.931762	-0.243037	0.000087
N50	N	0.857060	-0.283730	0.000084
C51	C	1.183447	-0.005418	0.241779
N52	N	1.222844	-0.073702	0.200502
H53	H	1.169871	0.018139	0.436809
C54	C	1.194896	-0.208691	0.000117
N55	N	1.269598	-0.167998	0.000134
H56	H	1.169895	0.018150	0.563384
C57	C	1.183500	-0.005400	0.758421
N58	N	1.222906	-0.073670	0.799707
H59	H	0.997347	0.317148	0.744187
H60	H	0.997320	0.317138	0.563393
C61	C	0.983713	0.340664	0.451061
N62	N	0.944308	0.408930	0.492349
H63	H	0.997288	0.317120	0.256021
H64	H	0.630141	-0.031417	0.000119
H65	H	0.537055	0.366719	0.000089
H66	H	0.367096	0.362378	0.000115
H67	H	0.511159	-0.034467	0.000115
C68	C	0.811451	-0.058336	0.000089
N69	N	0.844343	-0.148955	0.000089
H70	H	0.341202	-0.038801	0.000126
