data_functionalizedCrystal
_audit_creation_method	'MofGen! by Chris Wilmer'
_symmetry_space_group_name_H-M	'P1'
_symmetry_Int_Tables_number	1
_symmetry_cell_setting	triclinic
loop_
_symmetry_equiv_pos_as_xyz
  x,y,z
_cell_length_a	16.992695
_cell_length_b	14.971486
_cell_length_c	13.448316
_cell_angle_alpha	90.001801
_cell_angle_beta	89.993283
_cell_angle_gamma	92.858824
loop_
_atom_site_label
_atom_site_type_symbol
_atom_site_fract_x
_atom_site_fract_y
_atom_site_fract_z
O1	O	0.102190	-1.194127	-0.082578
O2	O	0.602190	-0.694127	0.417422
O3	O	0.114427	-0.934587	-0.082605
O4	O	0.614427	-0.434587	0.417395
O5	O	-0.005835	-1.063317	-0.082584
O6	O	0.494165	-0.563317	0.417416
O7	O	0.222452	-1.065398	-0.082599
O8	O	0.722452	-0.565398	0.417401
O9	O	-0.005843	-1.063299	0.082800
O10	O	0.494157	-0.563299	0.582800
O11	O	0.114420	-0.934569	0.082779
O12	O	0.614420	-0.434569	0.582779
O13	O	0.102182	-1.194110	0.082806
O14	O	0.602182	-0.694110	0.582806
Cu15	Cu	0.108300	-1.064338	0.097893
Cu16	Cu	0.608300	-0.564338	0.597893
Cu17	Cu	0.108309	-1.064359	-0.097692
Cu18	Cu	0.608309	-0.564359	0.402308
O19	O	0.222445	-1.065380	0.082785
O20	O	0.722445	-0.565380	0.582785
C21	C	0.113876	-0.901215	0.000083
C22	C	0.613876	-0.401215	0.500083
C23	C	0.112236	-0.801803	0.000073
C24	C	0.612236	-0.301803	0.500073
C25	C	-0.035054	-1.060631	0.000108
C26	C	0.464946	-0.560631	0.500108
C27	C	-0.122105	-1.052644	0.000107
C28	C	0.377895	-0.552644	0.500107
C29	C	0.102733	-1.227482	0.000115
C30	C	0.602733	-0.727482	0.500115
C31	C	0.104373	-1.326894	0.000119
C32	C	0.604373	-0.826894	0.500119
C33	C	-0.172274	-1.129708	0.000116
C34	C	0.327726	-0.629708	0.500116
C35	C	-0.254067	-1.122198	0.000106
C36	C	0.245933	-0.622198	0.500106
C37	C	-0.285691	-1.037623	0.000093
C38	C	0.214309	-0.537623	0.500093
C39	C	-0.235517	-0.960553	0.000081
C40	C	0.264483	-0.460553	0.500081
C41	C	-0.153724	-0.968064	0.000084
C42	C	0.346276	-0.468064	0.500084
C43	C	-0.529318	-1.006493	0.000076
C44	C	-0.029318	-0.506493	0.500076
C45	C	-0.611117	-0.998988	0.000076
C46	C	-0.111117	-0.498988	0.500076
C47	C	-0.629662	-1.160634	0.000099
C48	C	-0.129662	-0.660634	0.500099
C49	C	-0.547867	-1.168138	0.000108
C50	C	-0.047867	-0.668138	0.500108
C51	C	-0.497700	-1.091068	0.000090
C52	C	0.002300	-0.591068	0.500090
N53	N	-0.369297	-1.029945	0.000086
N54	N	0.130703	-0.529945	0.500086
N55	N	-0.414095	-1.098747	0.000091
N56	N	0.085905	-0.598747	0.500091
C57	C	0.251664	-1.068066	0.000091
C58	C	0.751664	-0.568066	0.500091
C59	C	0.338715	-1.076053	0.000085
C60	C	0.838715	-0.576053	0.500085
N61	N	0.108294	-1.064329	0.235457
N62	N	0.608294	-0.564329	0.735457
C63	C	0.182887	-0.749541	0.000070
C64	C	0.682887	-0.249541	0.500070
C65	C	0.181341	-0.656133	0.000085
C66	C	0.681341	-0.156133	0.500085
C67	C	0.109144	-0.614988	0.000096
C68	C	0.609144	-0.114988	0.500096
C69	C	0.038488	-0.667257	0.000102
C70	C	0.538488	-0.167257	0.500102
C71	C	0.040034	-0.760663	0.000095
C72	C	0.540034	-0.260663	0.500095
C73	C	0.035269	-0.472568	0.000116
C74	C	0.535269	0.027432	0.500116
C75	C	0.033723	-0.379155	0.000122
C76	C	0.533723	0.120845	0.500122
C77	C	0.176577	-0.368038	0.000106
C78	C	0.676577	0.131962	0.500106
C79	C	0.178123	-0.461445	0.000099
C80	C	0.678123	0.038555	0.500099
C81	C	0.107466	-0.513707	0.000103
C82	C	0.607466	-0.013707	0.500103
N83	N	0.108310	-1.064374	-0.235257
N84	N	0.608310	-0.564374	0.264743
C85	C	0.055064	-1.121351	0.287507
C86	C	0.555064	-0.621351	0.787507
C87	C	0.055063	-1.121357	0.391611
C88	C	0.555063	-0.621357	0.891611
C89	C	0.108297	-1.064344	0.443662
C90	C	0.608297	-0.564344	0.943662
C91	C	0.161530	-1.007316	0.391605
C92	C	0.661530	-0.507316	0.891605
C93	C	0.161526	-1.007307	0.287504
C94	C	0.661526	-0.507307	0.787504
C95	C	0.161535	-1.007341	0.608585
C96	C	0.661535	-0.507341	1.108585
C97	C	0.161540	-1.007352	0.712694
C98	C	0.661540	-0.507352	1.212694
C99	C	0.055072	-1.121392	0.712692
C100	C	0.555072	-0.621392	1.212692
C101	C	0.055068	-1.121382	0.608591
C102	C	0.555068	-0.621382	1.108591
C103	C	0.108302	-1.064355	0.556541
C104	C	0.608302	-0.564355	1.056541
H105	H	-0.146533	-1.198578	0.000132
H106	H	0.353467	-0.698578	0.500132
H107	H	0.204881	-0.960901	0.566209
H108	H	0.704881	-0.460901	1.066209
H109	H	-0.294912	-1.184952	0.000115
H110	H	0.205088	-0.684952	0.500115
H111	H	-0.017497	-0.803213	0.000097
H112	H	0.482503	-0.303213	0.500097
H113	H	0.204888	-0.960925	0.755069
H114	H	0.704888	-0.460925	1.255069
H115	H	0.241679	-0.783034	0.000060
H116	H	0.741679	-0.283034	0.500060
H117	H	0.011718	-1.167781	0.245134
H118	H	0.511718	-0.667781	0.745134
C119	C	0.259057	-0.598650	0.000078
C120	C	0.759057	-0.098650	0.500078
H121	H	0.302276	-0.636532	0.000058
H122	H	0.802276	-0.136532	0.500058
H123	H	0.261426	-0.561984	0.057754
H124	H	0.761426	-0.061984	0.557754
H125	H	0.261423	-0.561978	-0.057599
H126	H	0.761423	-0.061978	0.442401
C127	C	0.220082	-0.944587	0.230249
C128	C	0.720082	-0.444587	0.730249
H129	H	0.251792	-0.910639	0.276157
H130	H	0.751792	-0.410639	0.776157
H131	H	0.191819	-0.905333	0.189650
H132	H	0.691819	-0.405333	0.689650
H133	H	0.252773	-0.979098	0.189628
H134	H	0.752773	-0.479098	0.689628
C135	C	-0.042451	-0.530054	0.000109
C136	C	0.457549	-0.030054	0.500109
H137	H	-0.085671	-0.492174	0.000104
H138	H	0.414329	0.007826	0.500104
H139	H	-0.044827	-0.566731	0.057775
H140	H	0.455173	-0.066731	0.557775
H141	H	-0.044807	-0.566714	-0.057578
H142	H	0.455193	-0.066714	0.442422
C143	C	-0.098539	-0.883293	0.000077
C144	C	0.401461	-0.383293	0.500077
H145	H	-0.129086	-0.831847	0.000078
H146	H	0.370914	-0.331847	0.500078
H147	H	-0.066241	-0.882871	-0.057596
H148	H	0.433759	-0.382871	0.442404
H149	H	-0.066253	-0.882856	0.057758
H150	H	0.433747	-0.382856	0.557758
H151	H	0.236912	-0.494942	0.000080
H152	H	0.736912	0.005058	0.500080
C153	C	-0.003488	-1.184093	0.551335
C154	C	0.496512	-0.684093	1.051335
H155	H	-0.035197	-1.218052	0.597242
H156	H	0.464803	-0.718052	1.097242
H157	H	0.024773	-1.223337	0.510711
H158	H	0.524773	-0.723337	1.010711
H159	H	-0.036180	-1.149571	0.510740
H160	H	0.463820	-0.649571	1.010740
H161	H	-0.522126	-1.237008	0.000118
H162	H	-0.022126	-0.737008	0.500118
C163	C	-0.003490	-1.184113	0.769942
C164	C	0.496510	-0.684113	1.269942
H165	H	0.004127	-1.175946	0.839396
H166	H	0.504127	-0.675946	1.339396
H167	H	0.005111	-1.244419	0.752875
H168	H	0.505111	-0.744419	1.252875
H169	H	-0.055842	-1.170653	0.752888
H170	H	0.444158	-0.670653	1.252888
C171	C	-0.645905	-0.905954	0.000063
C172	C	-0.145905	-0.405954	0.500063
H173	H	-0.701803	-0.912522	0.000076
H174	H	-0.201803	-0.412522	0.500076
H175	H	-0.628690	-0.873981	-0.057615
H176	H	-0.128690	-0.373981	0.442385
H177	H	-0.628694	-0.873970	0.057738
H178	H	-0.128694	-0.373970	0.557738
C179	C	0.254300	-0.310559	0.000107
C180	C	0.754300	0.189441	0.500107
H181	H	0.297519	-0.348441	0.000087
H182	H	0.797519	0.151559	0.500087
H183	H	0.256668	-0.273893	0.057784
H184	H	0.756668	0.226107	0.557784
H185	H	0.256665	-0.273887	-0.057569
H186	H	0.756665	0.226113	0.442431
C187	C	-0.045692	-0.333897	0.000140
C188	C	0.454308	0.166103	0.500140
H189	H	-0.087551	-0.378398	0.000156
H190	H	0.412449	0.121602	0.500156
H191	H	-0.049265	-0.297689	-0.057530
H192	H	0.450735	0.202311	0.442470
H193	H	-0.049259	-0.297691	0.057823
H194	H	0.450741	0.202309	0.557823
C195	C	-0.684846	-1.245403	0.000103
C196	C	-0.184846	-0.745403	0.500103
H197	H	-0.738088	-1.228821	0.000091
H198	H	-0.238088	-0.728821	0.500091
H199	H	-0.675260	-1.279840	0.057777
H200	H	-0.175260	-0.779840	0.557777
H201	H	-0.675243	-1.279842	-0.057576
H202	H	-0.175243	-0.779842	0.442424
H203	H	0.204871	-0.960891	0.433991
H204	H	0.704871	-0.460891	0.933991
H205	H	-0.261271	-0.891690	0.000065
H206	H	0.238729	-0.391690	0.500065
C207	C	-0.474144	-0.921719	0.000075
C208	C	0.025856	-0.421719	0.500075
H209	H	-0.504696	-0.870277	0.000081
H210	H	-0.004696	-0.370277	0.500081
H211	H	-0.441843	-0.921287	-0.057595
H212	H	0.058157	-0.421287	0.442405
H213	H	-0.441861	-0.921286	0.057758
H214	H	0.058139	-0.421286	0.557758
H215	H	-0.020297	-0.633749	0.000126
H216	H	0.479703	-0.133749	0.500126
H217	H	0.011718	-1.167788	0.433989
H218	H	0.511718	-0.667788	0.933989
