data_functionalizedCrystal
_audit_creation_method	'MofGen! by Chris Wilmer'
_symmetry_space_group_name_H-M	'P1'
_symmetry_Int_Tables_number	1
_symmetry_cell_setting	triclinic
loop_
_symmetry_equiv_pos_as_xyz
  x,y,z
_cell_length_a	21.606444
_cell_length_b	27.440280
_cell_length_c	21.606444
_cell_angle_alpha	59.992248
_cell_angle_beta	90.000833
_cell_angle_gamma	60.001703
loop_
_atom_site_label
_atom_site_type_symbol
_atom_site_fract_x
_atom_site_fract_y
_atom_site_fract_z
Zr1	Zr	0.596191	0.533503	-0.081353
O2	O	0.497359	0.635182	-0.180196
O3	O	0.626492	0.431824	-0.051037
O4	O	0.626481	0.533507	-0.180180
O5	O	0.497376	0.533495	0.050801
O6	O	0.728331	0.533511	-0.180184
O7	O	0.497370	0.533498	-0.051053
O8	O	0.728351	0.351618	0.050829
O9	O	0.497355	0.715388	-0.180213
O10	O	0.715420	0.473649	-0.038128
O11	O	0.639415	0.473643	0.037887
O12	O	0.639402	0.593362	-0.114162
O13	O	0.563396	0.593357	-0.038147
Zr14	Zr	0.758638	0.533503	0.081087
Zr15	Zr	0.758630	0.533508	-0.081358
Zr16	Zr	0.596200	0.533497	0.081093
Zr17	Zr	0.596185	0.661422	-0.081378
Zr18	Zr	0.758644	0.405584	0.081113
O19	O	0.728337	0.635182	0.050772
O20	O	0.728326	0.635189	-0.180205
O21	O	0.497371	0.635174	0.050780
O22	O	0.857471	0.431824	0.179931
O23	O	0.857459	0.431832	-0.051046
O24	O	0.626504	0.431816	0.179939
O25	O	0.857454	0.533511	-0.051066
O26	O	0.728349	0.533498	0.179915
O27	O	0.626499	0.533495	0.179919
O28	O	0.857459	0.533507	0.050788
O29	O	0.626472	0.715392	-0.180217
O30	O	0.728358	0.351614	0.179952
O31	O	0.857475	0.351618	0.179947
O32	O	0.857468	0.351622	0.050825
O33	O	0.497362	0.715383	-0.051090
O34	O	0.626479	0.715388	-0.051095
O35	O	0.715428	0.473643	0.113897
O36	O	0.791434	0.473649	0.037882
O37	O	0.715415	0.593362	-0.038153
O38	O	0.639409	0.593357	0.037863
C39	C	0.474229	0.533496	-0.000125
C40	C	0.405270	0.533494	-0.000123
C41	C	0.677423	0.373495	-0.000100
C42	C	0.677425	0.319190	-0.000089
C43	C	0.412551	0.471005	0.039563
C44	C	0.347754	0.471007	0.039564
C45	C	0.275676	0.533498	-0.000126
C46	C	0.268395	0.595992	-0.039814
C47	C	0.333192	0.595989	-0.039810
C48	C	0.007077	0.596004	-0.039831
C49	C	-0.057721	0.596002	-0.039834
C50	C	0.021639	0.471021	0.039543
C51	C	0.086436	0.471019	0.039547
C52	C	0.079150	0.533512	-0.000137
C53	C	0.149411	0.533509	-0.000136
C54	C	0.205415	0.533502	-0.000132
C55	C	0.621299	0.026692	-0.056274
C56	C	0.621298	-0.024325	-0.056282
O57	O	0.573591	-0.013133	-0.104027
N58	N	0.677412	-0.094029	-0.000162
C59	C	0.733535	-0.112717	0.055964
O60	O	0.781264	-0.176690	0.103697
C61	C	0.733538	-0.061700	0.055968
C62	C	0.677416	0.008004	-0.000150
C63	C	0.565182	0.096393	-0.112388
C64	C	0.565182	0.147406	-0.112379
C65	C	0.621299	0.128719	-0.056256
C66	C	0.677416	0.059018	-0.000141
C67	C	0.789663	-0.080388	0.112091
C68	C	0.789661	-0.029364	0.112090
C69	C	0.733539	0.040341	0.055971
C70	C	0.733532	0.091344	0.055991
N71	N	0.677418	0.161048	-0.000128
C72	C	0.621302	0.179735	-0.056252
C73	C	0.733525	-0.219852	0.055950
C74	C	0.733520	-0.270868	0.055950
C75	C	0.621284	-0.182473	-0.056297
C76	C	0.621287	-0.131456	-0.056293
C77	C	0.677411	-0.150147	-0.000169
C78	C	0.621305	0.286864	-0.056228
C79	C	0.621308	0.337878	-0.056213
C80	C	0.733546	0.249478	0.056031
C81	C	0.733541	0.198469	0.056018
C82	C	0.677417	0.217166	-0.000118
O83	O	0.781217	0.080203	0.103709
O84	O	0.573586	0.243708	-0.103982
C85	C	0.880601	0.533510	-0.000140
C86	C	0.949560	0.533512	-0.000143
C87	C	0.677405	0.533510	-0.203327
C88	C	0.677401	0.533512	-0.272290
C89	C	0.677407	0.693510	-0.000165
C90	C	0.677405	0.747816	-0.000176
C91	C	0.637720	0.596001	-0.344377
C92	C	0.637726	0.595999	-0.409172
C93	C	0.677410	0.533508	-0.401878
C94	C	0.717097	0.471014	-0.329783
C95	C	0.717094	0.471017	-0.264989
C96	C	0.717109	0.471002	-0.591086
C97	C	0.717106	0.471004	-0.655886
C98	C	0.637741	0.595984	-0.735269
C99	C	0.637738	0.595987	-0.670475
C100	C	0.677427	0.533494	-0.598386
C101	C	0.677421	0.533497	-0.528128
C102	C	0.677413	0.533504	-0.472134
C103	C	0.677425	0.533496	0.203062
C104	C	0.677429	0.533494	0.272024
C105	C	0.880608	0.373502	-0.000108
C106	C	0.949570	0.319199	-0.000099
C107	C	0.677433	0.373488	0.203094
C108	C	0.677439	0.319181	0.272068
C109	C	0.880619	0.373495	0.203087
C110	C	0.949584	0.319190	0.272058
C111	C	0.474211	0.693510	-0.203352
C112	C	0.405245	0.747816	-0.272323
C113	C	0.474221	0.693504	-0.000158
C114	C	0.405259	0.747806	-0.000166
C115	C	0.677397	0.693517	-0.203360
C116	C	0.677391	0.747825	-0.272333
C117	C	0.942278	0.293698	-0.039778
C118	C	1.007069	0.242682	-0.039785
C119	C	1.079152	0.217165	-0.000109
C120	C	1.086443	0.242671	0.039572
C121	C	1.021653	0.293689	0.039574
C122	C	0.717120	0.293678	0.344142
C123	C	0.717123	0.242657	0.408956
C124	C	0.677449	0.217138	0.401694
C125	C	0.637763	0.242646	0.329613
C126	C	0.637756	0.293669	0.264800
C127	C	1.021652	0.293691	0.264768
C128	C	1.086459	0.242672	0.329567
C129	C	1.079196	0.217151	0.401656
C130	C	1.007120	0.242656	0.408944
C131	C	0.942315	0.293676	0.344145
C132	C	0.333178	0.773321	-0.265034
C133	C	0.268371	0.824355	-0.329833
C134	C	0.275634	0.849879	-0.401921
C135	C	0.347709	0.824372	-0.409209
C136	C	0.412514	0.773342	-0.344411
C137	C	0.412552	0.773313	0.039506
C138	C	0.347761	0.824343	0.039495
C139	C	0.275678	0.849862	-0.000184
C140	C	0.268387	0.824354	-0.039861
C141	C	0.333177	0.773328	-0.039854
C142	C	0.717073	0.773328	-0.265047
C143	C	0.717082	0.824349	-0.329849
C144	C	0.677404	0.849869	-0.401936
C145	C	0.637721	0.824360	-0.409220
C146	C	0.637717	0.773337	-0.344419
H147	H	0.353690	0.420122	0.071882
H148	H	0.027565	0.420136	0.071857
H149	H	0.353713	0.845104	0.071808
H150	H	0.605416	0.845147	-0.467921
H151	H	0.779233	0.234273	0.101727
C152	C	0.844457	-0.312359	0.166910
C153	C	0.795214	-0.240404	0.117657
H154	H	0.882537	-0.325047	0.205006
H155	H	0.867503	-0.330412	0.139190
H156	H	0.816728	-0.330417	0.189947
H157	H	0.822942	-0.222347	0.094615
H158	H	0.772167	-0.222344	0.145381
H159	H	0.749395	0.845113	-0.323903
C160	C	0.602414	0.695169	-0.280340
C161	C	0.594060	0.745334	-0.352434
H162	H	0.575456	0.677887	-0.285295
H163	H	0.582843	0.715073	-0.253423
H164	H	0.654611	0.658519	-0.253414
H165	H	0.541863	0.781987	-0.379358
H166	H	0.613628	0.725430	-0.379363
C167	C	1.205383	0.143632	0.356409
C168	C	1.165682	0.214643	0.321555
H169	H	1.254293	0.126331	0.351467
H170	H	1.178466	0.135264	0.332789
H171	H	1.210324	0.121142	0.408614
H172	H	1.160736	0.237134	0.269348
H173	H	1.192606	0.223016	0.345173
H174	H	0.222928	0.891411	-0.000183
C175	C	0.622980	0.702537	-0.496779
C176	C	0.594101	0.664692	-0.488410
H177	H	0.596043	0.744949	-0.545697
H178	H	0.675174	0.676867	-0.491097
H179	H	0.617298	0.711472	-0.459226
H180	H	0.599789	0.655753	-0.525960
H181	H	0.541895	0.690367	-0.494100
C182	C	0.484483	0.347464	0.118035
C183	C	0.491779	0.402311	0.083197
H184	H	0.533395	0.305055	0.144979
H185	H	0.457563	0.350063	0.080488
H186	H	0.457551	0.350072	0.152276
H187	H	0.518706	0.399706	0.048952
H188	H	0.518710	0.399710	0.120749
H189	H	1.145142	0.221887	0.071875
C190	C	0.795536	0.288572	0.429092
C191	C	0.760720	0.321733	0.352137
H192	H	0.822445	0.305898	0.434031
H193	H	0.829792	0.240406	0.452726
H194	H	0.757978	0.296934	0.452705
H195	H	0.798279	0.313366	0.328525
H196	H	0.726461	0.369910	0.328493
H197	H	0.749442	0.221894	0.467641
H198	H	0.353614	0.845160	-0.467911
H199	H	0.145123	0.420132	0.071865
C200	C	0.870346	0.288581	-0.118228
C201	C	0.863049	0.321743	-0.083399
H202	H	0.821434	0.305898	-0.145165
H203	H	0.897270	0.240414	-0.080676
H204	H	0.897272	0.296953	-0.152474
H205	H	0.836127	0.313367	-0.049149
H206	H	0.836113	0.369921	-0.120955
H207	H	0.605426	0.646869	-0.793973
H208	H	0.605420	0.646874	-0.676422
H209	H	0.605399	0.646889	-0.350326
H210	H	0.209688	0.845139	-0.072167
H211	H	0.749424	0.420113	-0.649939
H212	H	0.749406	0.420132	-0.206292
C213	C	1.033885	0.143635	-0.032890
C214	C	0.999043	0.214645	-0.083396
H215	H	1.028932	0.126328	-0.059814
H216	H	1.010270	0.135273	0.004661
H217	H	1.086088	0.121146	-0.009275
H218	H	0.946838	0.237135	-0.107007
H219	H	1.022656	0.223013	-0.120961
H220	H	0.471193	0.752575	-0.350355
C221	C	-0.129667	0.719550	-0.118289
C222	C	-0.136954	0.664698	-0.083461
H223	H	-0.178582	0.761956	-0.145218
H224	H	-0.102747	0.716957	-0.152535
H225	H	-0.102740	0.716942	-0.080731
H226	H	-0.163877	0.667303	-0.121019
H227	H	-0.163886	0.667292	-0.049212
C228	C	1.193571	0.102396	0.074421
C229	C	1.150367	0.161078	-0.000108
H230	H	1.237535	0.067771	0.074420
H231	H	1.164255	0.085681	0.095661
H232	H	1.208233	0.113938	0.103724
H233	H	1.135700	0.149537	-0.029409
H234	H	1.179688	0.177795	-0.021357
H235	H	1.131970	0.175606	0.454413
C236	C	0.033882	0.668516	-0.032955
C237	C	-0.000942	0.664698	-0.083453
H238	H	0.028924	0.710930	-0.059888
H239	H	0.086078	0.631308	-0.009327
H240	H	0.010249	0.665909	0.004589
H241	H	0.022694	0.667299	-0.120995
H242	H	-0.053148	0.701916	-0.107093
C243	C	0.602509	0.371866	0.130213
C244	C	0.594144	0.321693	0.185576
H245	H	0.575579	0.389167	0.081305
H246	H	0.654704	0.351963	0.135900
H247	H	0.582905	0.408503	0.135880
H248	H	0.613753	0.285054	0.179913
H249	H	0.541939	0.341596	0.179887
H250	H	0.209703	0.646873	-0.072126
C251	C	0.795551	0.347462	-0.519136
C252	C	0.760726	0.402310	-0.511851
H253	H	0.822475	0.305054	-0.470216
H254	H	0.829795	0.350062	-0.546057
H255	H	0.757996	0.350069	-0.546066
H256	H	0.798281	0.399707	-0.484926
H257	H	0.726479	0.399709	-0.484918
H258	H	0.677413	0.891416	-0.454695
C259	C	0.752295	0.415508	-0.393851
C260	C	0.760718	0.402320	-0.321759
H261	H	0.779221	0.373097	-0.388893
H262	H	0.771865	0.441193	-0.420805
H263	H	0.700086	0.441169	-0.420741
H264	H	0.812927	0.376663	-0.294870
H265	H	0.741151	0.376624	-0.294793
C266	C	0.397276	0.695094	-0.130451
C267	C	0.325182	0.745274	-0.185798
H268	H	0.392333	0.677782	-0.081536
H269	H	0.424196	0.714997	-0.136139
H270	H	0.424188	0.658467	-0.136133
H271	H	0.298272	0.781904	-0.180119
H272	H	0.298251	0.725372	-0.180107
H273	H	0.327258	0.646874	-0.072117
C274	C	0.634261	0.144030	0.451356
C275	C	0.677463	0.161050	0.472942
H276	H	0.634270	0.109406	0.495344
H277	H	0.655503	0.127302	0.422055
H278	H	0.583706	0.183841	0.422039
H279	H	0.728020	0.121240	0.502254
H280	H	0.656224	0.177776	0.502255
C281	C	0.204391	0.881307	-0.516341
C282	C	0.204394	0.905967	-0.473145
H283	H	0.160411	0.915934	-0.560311
H284	H	0.204405	0.841497	-0.487015
H285	H	0.248352	0.869778	-0.531002
H286	H	0.160436	0.917491	-0.458479
H287	H	0.204373	0.945789	-0.502477
H288	H	1.027601	0.314446	0.071890
C289	C	0.484484	0.778445	0.117936
C290	C	0.491781	0.745270	0.083125
H291	H	0.533396	0.761138	0.144861
H292	H	0.457564	0.770081	0.152183
H293	H	0.457553	0.826617	0.080369
H294	H	0.518707	0.697098	0.120693
H295	H	0.518713	0.753629	0.048876
H296	H	0.605461	0.221860	0.323712
H297	H	0.835364	-0.137137	0.157788
C298	C	0.731813	0.799283	-0.177461
C299	C	0.760695	0.745282	-0.185815
H300	H	0.758752	0.781968	-0.128549
H301	H	0.679621	0.819182	-0.183140
H302	H	0.737492	0.833318	-0.215023
H303	H	0.755010	0.711249	-0.148256
H304	H	0.812900	0.725372	-0.180128
C305	C	1.106597	0.288492	0.192835
C306	C	1.029649	0.321679	0.185533
H307	H	1.111537	0.305756	0.143919
H308	H	1.130218	0.240321	0.219828
H309	H	1.130218	0.296902	0.219699
H310	H	1.006029	0.313265	0.158674
H311	H	1.006019	0.369861	0.158529
H312	H	0.575602	0.394635	-0.101910
H313	H	0.883637	0.314432	0.350091
C314	C	0.510357	0.379377	-0.167172
C315	C	0.559609	0.307422	-0.117929
H316	H	0.472265	0.392067	-0.205257
H317	H	0.538072	0.397440	-0.190218
H318	H	0.487323	0.397422	-0.139436
H319	H	0.582648	0.289377	-0.145664
H320	H	0.531890	0.289351	-0.094882
C321	C	0.454252	0.229637	-0.223334
C322	C	0.503497	0.224023	-0.174075
H323	H	0.416173	0.276937	-0.261427
H324	H	0.431205	0.207898	-0.195617
H325	H	0.481980	0.207894	-0.246374
H326	H	0.475769	0.245762	-0.151030
H327	H	0.526545	0.245771	-0.201795
C328	C	0.462593	0.090348	-0.140016
C329	C	0.503427	0.116982	-0.174057
H330	H	0.424448	0.103072	-0.178081
H331	H	0.439631	0.108375	-0.112251
H332	H	0.496007	0.041530	-0.106639
H333	H	0.470013	0.165800	-0.207430
H334	H	0.526390	0.098958	-0.201835
C335	C	0.510350	-0.049220	-0.167243
C336	C	0.559602	-0.054839	-0.117985
H337	H	0.472271	-0.001920	-0.205333
H338	H	0.487304	-0.070959	-0.139524
H339	H	0.538074	-0.070961	-0.190286
H340	H	0.531879	-0.033101	-0.094937
H341	H	0.582649	-0.033090	-0.145707
C342	C	0.196471	0.819187	-0.244850
C343	C	0.189152	0.852380	-0.321809
H344	H	0.147565	0.836485	-0.239897
H345	H	0.223396	0.827549	-0.221228
H346	H	0.223406	0.771017	-0.221234
H347	H	0.162222	0.900550	-0.345424
H348	H	0.162215	0.844024	-0.345440
H349	H	1.001218	0.221869	0.467647
H350	H	0.327228	0.752562	-0.072158
H351	H	0.779233	0.141711	0.101722
H352	H	0.779213	-0.327621	0.101654
C353	C	0.518709	-0.188538	-0.083920
C354	C	0.559534	-0.161895	-0.117966
H355	H	0.480573	-0.175828	-0.121982
H356	H	0.495735	-0.170504	-0.056164
H357	H	0.552131	-0.237355	-0.050534
H358	H	0.526113	-0.113078	-0.151348
H359	H	0.582509	-0.179926	-0.145735
C360	C	0.900604	-0.121868	0.223040
C361	C	0.851353	-0.049913	0.173788
H362	H	0.938685	-0.134553	0.261133
H363	H	0.923648	-0.139917	0.195317
H364	H	0.872881	-0.139931	0.246081
H365	H	0.879075	-0.031850	0.150743
H366	H	0.828307	-0.031856	0.201515
