data_functionalizedCrystal
_audit_creation_method	'MofGen! by Chris Wilmer'
_symmetry_space_group_name_H-M	'P1'
_symmetry_Int_Tables_number	1
_symmetry_cell_setting	triclinic
loop_
_symmetry_equiv_pos_as_xyz
  x,y,z
_cell_length_a	16.776229
_cell_length_b	17.699083
_cell_length_c	17.699083
_cell_angle_alpha	83.283015
_cell_angle_beta	89.998886
_cell_angle_gamma	89.992455
loop_
_atom_site_label
_atom_site_type_symbol
_atom_site_fract_x
_atom_site_fract_y
_atom_site_fract_z
O1	O	-0.066178	0.095713	1.004078
O2	O	0.433822	0.595713	1.504078
O3	O	-0.066204	0.108165	0.783700
O4	O	0.433796	0.608165	1.283700
O5	O	-0.066183	-0.008250	0.900116
O6	O	0.433817	0.491750	1.400116
O7	O	-0.066199	0.212128	0.887663
O8	O	0.433801	0.712128	1.387663
O9	O	0.066393	-0.008257	0.900100
O10	O	0.566393	0.491743	1.400100
O11	O	0.066372	0.108158	0.783685
O12	O	0.566372	0.608158	1.283685
O13	O	0.066398	0.095706	1.004063
O14	O	0.566398	0.595706	1.504063
Zn15	Zn	0.087435	0.101931	0.893871
Zn16	Zn	0.587435	0.601931	1.393871
Zn17	Zn	-0.087241	0.101940	0.893892
Zn18	Zn	0.412759	0.601940	1.393892
O19	O	0.066378	0.212121	0.887648
O20	O	0.566378	0.712121	1.387648
C21	C	0.000105	-0.036451	0.899662
C22	C	0.500105	0.463549	1.399662
C23	C	0.000105	-0.120469	0.898323
C24	C	0.500105	0.379531	1.398323
C25	C	0.000081	0.107716	0.755495
C26	C	0.500081	0.607716	1.255495
C27	C	0.000071	0.106377	0.671477
C28	C	0.500071	0.606377	1.171477
N29	N	0.206646	0.101924	0.893863
N30	N	0.706646	0.601924	1.393863
N31	N	-0.206452	0.101941	0.893906
N32	N	0.293548	0.601941	1.393906
C33	C	0.248372	0.050396	0.945428
C34	C	0.748372	0.550396	1.445428
C35	C	0.331824	0.050396	0.945432
C36	C	0.831824	0.550396	1.445432
C37	C	0.373549	0.101927	0.893875
C38	C	0.873549	0.601927	1.393875
C39	C	0.331817	0.153457	0.842305
C40	C	0.831817	0.653457	1.342305
C41	C	0.248366	0.153454	0.842297
C42	C	0.748366	0.653454	1.342297
C43	C	0.668364	0.153472	0.842332
C44	C	1.168364	0.653472	1.342332
C45	C	0.751820	0.153473	0.842345
C46	C	1.251820	0.653473	1.342345
C47	C	0.751822	0.050414	0.945466
C48	C	1.251822	0.550414	1.445466
C49	C	0.668372	0.050411	0.945459
C50	C	1.168372	0.550411	1.445459
C51	C	0.626647	0.101938	0.893887
C52	C	1.126647	0.601938	1.393887
C53	C	0.536158	0.101937	0.893882
C54	C	1.036158	0.601937	1.393882
C55	C	0.464036	0.101932	0.893882
C56	C	0.964036	0.601932	1.393882
C57	C	0.000114	-0.169090	0.966656
C58	C	0.500114	0.330910	1.466656
C59	C	0.000107	-0.248033	0.965394
C60	C	0.500107	0.251967	1.465394
C61	C	0.000096	-0.278354	0.895798
C62	C	0.500096	0.221646	1.395798
C63	C	0.000085	-0.229727	0.827459
C64	C	0.500085	0.270273	1.327459
C65	C	0.000086	-0.150785	0.828722
C66	C	0.500086	0.349215	1.328722
C67	C	0.000078	-0.548090	0.822364
C68	C	0.500078	-0.048090	1.322364
C69	C	0.000078	-0.627038	0.821106
C70	C	0.500078	-0.127038	1.321106
C71	C	0.000099	-0.645338	0.959036
C72	C	0.500099	-0.145338	1.459036
C73	C	0.000100	-0.566396	0.960299
C74	C	0.500100	-0.066396	1.460299
C75	C	0.000084	-0.517776	0.891961
C76	C	0.500084	-0.017776	1.391961
C77	C	0.000090	-0.432177	0.893330
C78	C	0.500090	0.067823	1.393330
C79	C	0.000096	-0.363951	0.894427
C80	C	0.500096	0.136049	1.394427
C81	C	0.000087	0.240322	0.888102
C82	C	0.500087	0.740322	1.388102
C83	C	0.000082	0.324340	0.889440
C84	C	0.500082	0.824340	1.389440
C85	C	0.000066	0.174710	0.622856
C86	C	0.500066	0.674710	1.122856
C87	C	0.000077	0.173448	0.543913
C88	C	0.500077	0.673448	1.043913
C89	C	0.000086	0.103852	0.513592
C90	C	0.500086	0.603852	1.013592
C91	C	0.000093	0.035513	0.562219
C92	C	0.500093	0.535513	1.062219
C93	C	0.000088	0.036776	0.641161
C94	C	0.500088	0.536776	1.141161
C95	C	0.000113	0.030418	0.243856
C96	C	0.500113	0.530418	0.743856
C97	C	0.000115	0.029160	0.164908
C98	C	0.500115	0.529160	0.664908
C99	C	0.000101	0.167090	0.146608
C100	C	0.500101	0.667090	0.646608
C101	C	0.000097	0.168353	0.225550
C102	C	0.500097	0.668353	0.725550
C103	C	0.000108	0.100015	0.274170
C104	C	0.500108	0.600015	0.774170
C105	C	0.000098	0.101384	0.359769
C106	C	0.500098	0.601384	0.859769
C107	C	0.000090	0.102481	0.427995
C108	C	0.500090	0.602481	0.927995
C109	C	0.000112	0.096156	1.032268
C110	C	0.500112	0.596156	1.532268
C111	C	0.000116	0.097494	1.116286
C112	C	0.500116	0.597494	1.616286
H113	H	0.214406	0.008437	0.987414
H114	H	0.714406	0.508437	1.487414
H115	H	0.000071	-0.651721	0.764429
H116	H	0.500071	-0.151721	1.264429
Br117	Br	0.000125	-0.065299	0.123759
Br118	Br	0.500125	0.434701	0.623759
Br119	Br	0.611748	-0.019522	1.015435
Br120	Br	1.111748	0.480478	1.515435
Br121	Br	0.611742	0.223401	0.772345
Br122	Br	1.111742	0.723401	1.272345
Br123	Br	0.000130	-0.062327	0.309831
Br124	Br	0.500130	0.437673	0.809831
H125	H	0.365798	0.008438	0.987419
H126	H	0.865798	0.508438	1.487419
Br127	Br	0.000067	-0.084798	0.735980
Br128	Br	0.500067	0.415202	1.235980
Br129	Br	0.000113	-0.058941	0.521071
Br130	Br	0.500113	0.441059	1.021071
H131	H	0.000072	0.229092	0.504328
H132	H	0.500072	0.729092	1.004328
H133	H	0.000128	-0.144409	1.023330
H134	H	0.500128	0.355591	1.523330
Br135	Br	0.808453	-0.019518	1.015458
Br136	Br	1.308453	0.480482	1.515458
H137	H	0.000085	0.225025	0.250232
H138	H	0.500085	0.725025	0.750232
H139	H	0.365793	0.195412	0.800322
H140	H	0.865793	0.695412	1.300322
H141	H	0.000107	-0.684934	1.014680
H142	H	0.500107	-0.184934	1.514680
Br143	Br	0.000045	0.269168	0.663998
Br144	Br	0.500045	0.769168	1.163998
H145	H	0.785791	0.195437	0.800358
H146	H	1.285791	0.695437	1.300358
H147	H	0.214393	0.195412	0.800308
H148	H	0.714393	0.695412	1.300308
Br149	Br	0.000120	-0.314016	1.058137
Br150	Br	0.500120	0.185984	1.558137
H151	H	0.000113	-0.541714	1.016971
H152	H	0.500113	-0.041714	1.516971
H153	H	0.000065	-0.508512	0.766718
H154	H	0.500065	-0.008512	1.266718
H155	H	0.000097	0.222734	0.107012
H156	H	0.500097	0.722734	0.607012
Br157	Br	0.000057	-0.270875	0.733005
Br158	Br	0.500057	0.229125	1.233005
H159	H	0.000091	-0.018868	0.680748
H160	H	0.500091	0.481132	1.180748
