data_functionalizedCrystal
_audit_creation_method	'MofGen! by Chris Wilmer'
_symmetry_space_group_name_H-M	'P1'
_symmetry_Int_Tables_number	1
_symmetry_cell_setting	triclinic
loop_
_symmetry_equiv_pos_as_xyz
  x,y,z
_cell_length_a	6.817900
_cell_length_b	13.167930
_cell_length_c	12.200875
_cell_angle_alpha	98.450964
_cell_angle_beta	107.143593
_cell_angle_gamma	105.754568
loop_
_atom_site_label
_atom_site_type_symbol
_atom_site_fract_x
_atom_site_fract_y
_atom_site_fract_z
V1	V	-4.089551	-0.149149	-0.373537
V2	V	-3.589551	0.350851	0.126463
O3	O	-4.054055	0.006916	-0.350116
O4	O	-3.554055	0.506916	0.149884
O5	O	-4.061620	-0.295496	-0.386668
O6	O	-3.561620	0.204504	0.113332
O7	O	-4.058964	-0.146966	-0.529293
O8	O	-3.558964	0.353034	-0.029293
O9	O	-4.056729	-0.142643	-0.206505
O10	O	-3.556729	0.357357	0.293495
V11	V	-4.568219	-0.130469	-0.351653
V12	V	-4.068219	0.369531	0.148347
O13	O	-4.361460	-0.190126	-0.421541
O14	O	-3.861460	0.309874	0.078459
O15	O	-4.746507	-0.089493	-0.303649
O16	O	-4.246507	0.410507	0.196351
O17	O	-4.372944	0.015878	-0.338521
O18	O	-3.872944	0.515878	0.161479
O19	O	-4.721113	-0.286534	-0.375073
O20	O	-4.221113	0.213466	0.124927
O21	O	-4.718438	-0.136975	-0.518685
O22	O	-4.218438	0.363025	-0.018685
O23	O	-4.375600	-0.132653	-0.195897
O24	O	-3.875600	0.367347	0.304103
C25	C	-3.911023	-0.331169	-0.384823
C26	C	-3.411023	0.168831	0.115177
C27	C	-3.969591	-0.450810	-0.396598
C28	C	-3.469591	0.049190	0.103402
C29	C	-3.970373	-0.644747	-0.205315
C30	C	-3.470373	-0.144747	0.294685
C31	C	-4.025400	-0.757160	-0.216373
C32	C	-3.525400	-0.257160	0.283627
C33	C	-4.134688	-0.788051	-0.429771
C34	C	-3.634688	-0.288051	0.070229
C35	C	-4.079660	-0.675638	-0.418713
C36	C	-3.579660	-0.175638	0.081287
C37	C	-3.997500	-0.603990	-0.306481
C38	C	-3.497500	-0.103990	0.193519
C39	C	-3.942458	-0.491575	-0.295424
C40	C	-3.442458	0.008425	0.204576
C41	C	-4.051760	-0.522468	-0.508821
C42	C	-3.551760	-0.022468	-0.008821
C43	C	-4.106787	-0.634880	-0.519879
C44	C	-3.606787	-0.134880	-0.019879
C45	C	-3.907634	-0.141702	-0.566753
C46	C	-3.407634	0.358298	-0.066753
C47	C	-3.964044	-0.140885	-0.694187
C48	C	-3.464044	0.359115	-0.194187
C49	C	-4.067283	-0.139390	-0.927503
C50	C	-3.567283	0.360610	-0.427503
C51	C	-4.009825	-0.140221	-0.797669
C52	C	-3.509825	0.359779	-0.297669
C53	C	-4.186883	0.051545	-0.340364
C54	C	-3.686883	0.551545	0.159636
C55	C	-4.107554	0.171185	-0.328597
C56	C	-3.607554	0.671185	0.171403
C57	C	-4.190272	-0.137920	-0.158431
C58	C	-3.690272	0.362080	0.341569
C59	C	-4.113099	-0.138732	-0.030995
C60	C	-3.613099	0.361268	0.469005
H61	H	-3.875548	-0.433239	-0.204039
H62	H	-3.375548	0.066761	0.295961
H63	H	-4.073838	-0.489272	-0.591198
H64	H	-3.573838	0.010728	-0.091198
H65	H	-4.173696	-0.693232	-0.611255
H66	H	-3.673696	-0.193232	-0.111255
H67	H	-3.903447	-0.586409	-0.113931
H68	H	-3.403447	-0.086409	0.386069
H69	H	-4.003308	-0.790339	-0.133993
H70	H	-3.503308	-0.290339	0.366007
H71	H	-4.201619	-0.846406	-0.521145
H72	H	-3.701619	-0.346406	-0.021145
