data_functionalizedCrystal
_audit_creation_method	'MofGen! by Chris Wilmer'
_symmetry_space_group_name_H-M	'P1'
_symmetry_Int_Tables_number	1
_symmetry_cell_setting	triclinic
loop_
_symmetry_equiv_pos_as_xyz
  x,y,z
_cell_length_a	10.489711
_cell_length_b	10.489741
_cell_length_c	8.965430
_cell_angle_alpha	89.999543
_cell_angle_beta	90.001351
_cell_angle_gamma	84.533091
loop_
_atom_site_label
_atom_site_type_symbol
_atom_site_fract_x
_atom_site_fract_y
_atom_site_fract_z
O1	O	1.694063	0.179781	-0.124092
O2	O	1.322862	0.196714	-0.124084
O3	O	1.516909	0.002649	-0.124079
O4	O	1.500016	0.373846	-0.124097
O5	O	1.516918	0.002655	0.124000
O6	O	1.322871	0.196720	0.123995
O7	O	1.694072	0.179787	0.123986
Cu8	Cu	1.508472	0.188254	0.146642
Cu9	Cu	1.508462	0.188247	-0.146740
O10	O	1.500025	0.373852	0.123982
C11	C	1.275334	0.195446	-0.000043
C12	C	1.133703	0.191644	-0.000039
C13	C	0.951317	0.308348	-0.000062
C14	C	1.043458	0.250050	-0.122373
C15	C	1.043440	0.250025	0.122214
C16	C	0.973507	0.126507	-0.122483
C17	C	0.973479	0.126499	0.122213
C18	C	1.065593	0.068111	-0.000127
C19	C	1.515638	-0.044880	-0.000041
C20	C	1.511820	-0.186509	-0.000043
C21	C	1.388354	-0.254636	-0.000051
C22	C	1.446683	-0.346762	0.122263
C23	C	1.446703	-0.346742	-0.122323
C24	C	1.570200	-0.276769	0.122372
C25	C	1.570203	-0.276740	-0.122324
C26	C	1.628622	-0.368839	0.000020
C27	C	1.741600	0.181055	-0.000058
C28	C	1.883231	0.184857	-0.000071
C29	C	1.501296	0.421381	-0.000060
C30	C	1.505114	0.563010	-0.000067
N31	N	1.508489	0.188258	0.352992
N32	N	1.508455	0.188232	-0.353089
C33	C	1.598259	0.098516	0.450259
C34	C	1.482762	0.072694	0.549668
C35	C	1.623941	0.213998	0.549710
C36	C	1.392934	0.162378	0.450211
C37	C	1.534189	0.303734	0.450245
C38	C	1.418610	0.277959	0.549609
H39	H	1.074399	0.302300	0.225619
Br40	Br	1.291923	0.404445	0.621861
Br41	Br	1.657200	-0.225007	-0.294692
H42	H	0.901626	0.409850	-0.000188
Br43	Br	1.657211	-0.225397	0.294915
H44	H	0.942460	0.074293	0.225629
H45	H	0.942694	0.074301	-0.226008
Br46	Br	1.446475	-0.090088	0.622442
Br47	Br	1.570520	0.466467	0.377389
Br48	Br	1.786693	0.250299	0.622571
H49	H	1.674100	0.022584	0.406636
H50	H	1.286841	-0.204974	0.000074
Br51	Br	1.359588	-0.398386	-0.294664
H52	H	1.074449	0.302303	-0.225778
Br53	Br	1.148040	-0.101214	-0.000219
Br54	Br	1.359624	-0.398435	0.294625
H55	H	1.730226	-0.418274	0.000085
H56	H	1.295260	0.140486	0.406689
