data_functionalizedCrystal
_audit_creation_method	'MofGen! by Chris Wilmer'
_symmetry_space_group_name_H-M	'P1'
_symmetry_Int_Tables_number	1
_symmetry_cell_setting	triclinic
loop_
_symmetry_equiv_pos_as_xyz
  x,y,z
_cell_length_a	8.497374
_cell_length_b	8.497374
_cell_length_c	16.625548
_cell_angle_alpha	89.997839
_cell_angle_beta	90.003540
_cell_angle_gamma	90.005237
loop_
_atom_site_label
_atom_site_type_symbol
_atom_site_fract_x
_atom_site_fract_y
_atom_site_fract_z
Zn1	Zn	0.892183	0.628285	1.232665
Zn2	Zn	1.225516	0.961618	1.565998
Zn3	Zn	1.558849	1.294951	1.899331
Zn4	Zn	0.628448	0.892030	1.232658
Zn5	Zn	0.961782	1.225364	1.565992
Zn6	Zn	1.295115	1.558697	1.899325
Zn7	Zn	0.628402	0.628263	1.097867
Zn8	Zn	0.961735	0.961596	1.431200
Zn9	Zn	1.295068	1.294930	1.764533
Zn10	Zn	0.892171	0.892021	1.097847
Zn11	Zn	1.225505	1.225355	1.431181
Zn12	Zn	1.558838	1.558688	1.764514
O13	O	0.760301	0.760150	1.165259
O14	O	1.093634	1.093483	1.498593
O15	O	1.426968	1.426816	1.831926
O16	O	0.857222	0.663284	1.345496
O17	O	1.190555	0.996617	1.678830
O18	O	1.523889	1.329950	2.012163
O19	O	0.407680	0.857036	1.214783
O20	O	0.741013	1.190369	1.548117
O21	O	1.074346	1.523702	1.881450
O22	O	0.663378	0.407503	1.115759
O23	O	0.996711	0.740837	1.449092
O24	O	1.330045	1.074170	1.782425
O25	O	0.663458	0.857057	1.345492
O26	O	0.996791	1.190390	1.678825
O27	O	1.330124	1.523723	2.012158
O28	O	0.857177	0.407519	1.214794
O29	O	1.190510	0.740853	1.548128
O30	O	1.523843	1.074186	1.881461
O31	O	0.407646	0.663247	1.115752
O32	O	0.740979	0.996580	1.449086
O33	O	1.074312	1.329914	1.782419
O34	O	0.663367	0.663238	0.985032
O35	O	0.996700	0.996572	1.318365
O36	O	1.330034	1.329905	1.651698
O37	O	1.112935	0.857041	1.115726
O38	O	1.446269	1.190375	1.449059
O39	O	1.779602	1.523708	1.782392
O40	O	0.857158	0.857020	0.985017
O41	O	1.190491	1.190354	1.318351
O42	O	1.523824	1.523687	1.651684
O43	O	1.112944	0.663275	1.214775
O44	O	1.446277	0.996608	1.548109
O45	O	1.779610	1.329942	1.881442
O46	O	0.663447	1.112791	1.214765
O47	O	0.996780	1.446125	1.548098
O48	O	1.330113	1.779458	1.881431
O49	O	0.857203	1.112785	1.115719
O50	O	1.190536	1.446118	1.449053
O51	O	1.523870	1.779452	1.782386
C52	C	0.760257	0.760127	0.955768
C53	C	1.093590	1.093461	1.289102
C54	C	1.426924	1.426794	1.622435
C55	C	0.760275	0.760156	0.866147
C56	C	1.093609	1.093489	1.199481
C57	C	1.426942	1.426822	1.532814
C58	C	1.171781	0.760152	1.165253
C59	C	1.505115	1.093485	1.498587
C60	C	1.838448	1.426819	1.831920
C61	C	1.350425	0.760169	1.165255
C62	C	1.683759	1.093502	1.498588
C63	C	2.017092	1.426836	1.831922
C64	C	0.760324	1.170030	1.165249
C65	C	1.093657	1.503363	1.498582
C66	C	1.426990	1.836696	1.831916
C67	C	0.760298	1.348674	1.165271
C68	C	1.093631	1.682007	1.498604
C69	C	1.426965	2.015340	1.831937
C70	C	0.760343	0.760166	0.537972
C71	C	1.093676	1.093499	0.871305
C72	C	1.427010	1.426833	1.204638
C73	C	0.760319	0.760159	0.629280
C74	C	1.093652	1.093492	0.962613
C75	C	1.426986	1.426825	1.295947
C76	C	0.760308	0.760162	0.702057
C77	C	1.093641	1.093495	1.035390
C78	C	1.426975	1.426828	1.368723
C79	C	0.760287	0.760153	0.793371
C80	C	1.093620	1.093486	1.126704
C81	C	1.426953	1.426819	1.460037
C82	C	0.760346	0.760174	1.375568
C83	C	1.093680	1.093507	1.708901
C84	C	1.427013	1.426840	2.042235
C85	C	0.760365	0.760184	1.465189
C86	C	1.093699	1.093517	1.798523
C87	C	1.427032	1.426850	2.131856
