data_functionalizedCrystal
_audit_creation_method	'MofGen! by Chris Wilmer'
_symmetry_space_group_name_H-M	'P1'
_symmetry_Int_Tables_number	1
_symmetry_cell_setting	triclinic
loop_
_symmetry_equiv_pos_as_xyz
  x,y,z
_cell_length_a	12.645331
_cell_length_b	19.121063
_cell_length_c	12.645323
_cell_angle_alpha	92.406114
_cell_angle_beta	89.978207
_cell_angle_gamma	92.467980
loop_
_atom_site_label
_atom_site_type_symbol
_atom_site_fract_x
_atom_site_fract_y
_atom_site_fract_z
Zn1	Zn	1.602645	-0.279613	-0.617387
Zn2	Zn	2.102645	0.220387	-0.117387
Zn3	Zn	1.594936	-0.397075	-0.447664
Zn4	Zn	2.094936	0.102925	0.052336
Zn5	Zn	1.425361	-0.279641	-0.440134
Zn6	Zn	1.925361	0.220359	0.059866
Zn7	Zn	1.417751	-0.397025	-0.624877
Zn8	Zn	1.917751	0.102975	-0.124877
O9	O	1.510173	-0.338339	-0.532515
O10	O	2.010173	0.161661	-0.032515
O11	O	1.749969	-0.295204	-0.594891
O12	O	2.249969	0.204796	-0.094891
O13	O	1.572400	-0.381530	-0.298320
O14	O	2.072400	0.118470	0.201680
O15	O	1.455289	-0.181353	-0.457361
O16	O	1.955289	0.318647	0.042639
O17	O	1.744305	-0.381503	-0.470196
O18	O	2.244305	0.118497	0.029804
O19	O	1.585539	-0.181332	-0.587588
O20	O	2.085539	0.318668	-0.087588
O21	O	1.447814	-0.295251	-0.292787
O22	O	1.947814	0.204749	0.207213
O23	O	1.276005	-0.295203	-0.464623
O24	O	1.776005	0.204797	0.035377
O25	O	1.442319	-0.381418	-0.772228
O26	O	1.942319	0.118582	-0.272228
O27	O	1.270414	-0.381445	-0.600353
O28	O	1.770414	0.118555	-0.100353
O29	O	1.578160	-0.295155	-0.766726
O30	O	2.078160	0.204845	-0.266726
O31	O	1.565021	-0.495353	-0.477458
O32	O	2.065021	0.004647	0.022542
O33	O	1.434844	-0.495316	-0.607655
O34	O	1.934844	0.004684	-0.107655
C35	C	1.234745	-0.338322	-0.532484
C36	C	1.734745	0.161678	-0.032484
C37	C	1.116914	-0.338332	-0.532496
C38	C	1.616914	0.161668	-0.032496
C39	C	0.952848	-0.283827	-0.447545
C40	C	1.452848	0.216173	0.052455
C41	C	1.075398	-0.283968	-0.447195
C42	C	1.575398	0.216032	0.052805
C43	C	1.067611	-0.412320	-0.506729
C44	C	1.567611	0.087680	-0.006729
C45	C	0.945032	-0.412022	-0.506154
C46	C	1.445032	0.087978	-0.006154
C47	C	0.950977	-0.319552	-0.643575
C48	C	1.450977	0.180448	-0.143575
C49	C	1.073689	-0.317900	-0.642846
C50	C	1.573689	0.182100	-0.142846
C51	C	1.498299	-0.520819	-0.544209
C52	C	1.998299	-0.020819	-0.044209
C53	C	1.493316	-0.598884	-0.549247
C54	C	1.993316	-0.098884	-0.049247
C55	C	1.558803	-0.635556	-0.483884
C56	C	2.058803	-0.135556	0.016116
C57	C	1.554123	-0.708907	-0.488629
C58	C	2.054123	-0.208907	0.011371
C59	C	1.483949	-0.745585	-0.558732
C60	C	1.983949	-0.245585	-0.058732
C61	C	1.418459	-0.708909	-0.624103
C62	C	1.918459	-0.208909	-0.124103
C63	C	1.423145	-0.635559	-0.619363
C64	C	1.923145	-0.135559	-0.119363
C65	C	1.466411	-0.967054	-0.576437
C66	C	1.966411	-0.467054	-0.076437
C67	C	1.461727	-1.040409	-0.581170
C68	C	1.961727	-0.540409	-0.081170
C69	C	1.597394	-1.040402	-0.445697
C70	C	2.097394	-0.540402	0.054303
C71	C	1.602070	-0.967051	-0.440958
C72	C	2.102070	-0.467051	0.059042
C73	C	1.536583	-0.930381	-0.506333
C74	C	2.036583	-0.430381	-0.006333
C75	C	1.479161	-0.820562	-0.563581
C76	C	1.979161	-0.320562	-0.063581
C77	C	1.541377	-0.855406	-0.501488
C78	C	2.041377	-0.355406	-0.001488
C79	C	1.786677	-0.338356	-0.532548
C80	C	2.286677	0.161644	-0.032548
C81	C	1.904507	-0.338363	-0.532562
C82	C	2.404507	0.161637	-0.032562
C83	C	1.510251	-0.338278	-0.809017
C84	C	2.010251	0.161722	-0.309017
C85	C	1.510284	-0.338252	-0.926846
C86	C	2.010284	0.161748	-0.426846
C87	C	1.522123	-0.155146	-0.520799
C88	C	2.022123	0.344854	-0.020799
C89	C	1.527215	-0.077080	-0.515806
C90	C	2.027215	0.422920	-0.015806
C91	C	1.424832	-0.392509	-0.975188
C92	C	1.924832	0.107491	-0.475188
C93	C	1.424557	-0.392305	-1.097735
C94	C	1.924557	0.107695	-0.597735
C95	C	1.485208	-0.264116	-1.089991
C96	C	1.985208	0.235884	-0.589991
C97	C	1.484557	-0.264474	-0.967415
C98	C	1.984557	0.235526	-0.467415
C99	C	1.621135	-0.357392	-0.973265
C100	C	2.121135	0.142608	-0.473265
C101	C	1.620464	-0.358981	-1.095973
C102	C	2.120464	0.141019	-0.595973
C103	C	1.510160	-0.338348	-0.257086
C104	C	2.010160	0.161652	0.242914
C105	C	1.510345	-0.338176	-0.139246
C106	C	2.010345	0.161824	0.360754
H107	H	0.923507	-0.266542	-0.667926
H108	H	1.423507	0.233458	-0.167926
H109	H	1.404596	-1.070271	-0.638275
H110	H	1.904596	-0.570271	-0.138275
H111	H	1.650711	-1.070266	-0.392474
H112	H	2.150711	-0.570266	0.107526
H113	H	1.342339	-0.379596	-1.126246
H114	H	1.842339	0.120404	-0.626246
H115	H	1.343060	-0.379976	-0.943572
H116	H	1.843060	0.120024	-0.443572
H117	H	1.413087	-0.937203	-0.629666
H118	H	1.913087	-0.437203	-0.129666
H119	H	1.361326	-0.738778	-0.681187
H120	H	1.861326	-0.238778	-0.181187
H121	H	1.639510	-0.413487	-1.128554
H122	H	2.139510	0.086513	-0.628554
H123	H	1.439690	-0.447215	-1.131348
H124	H	1.939690	0.052785	-0.631348
H125	H	1.659211	-0.937189	-0.383874
H126	H	2.159211	-0.437189	0.116126
H127	H	1.422023	-0.850434	-0.620657
H128	H	1.922023	-0.350434	-0.120657
H129	H	1.545766	-0.222563	-1.116461
H130	H	2.045766	0.277437	-0.616461
H131	H	1.094082	-0.454039	-0.566916
H132	H	1.594082	0.045961	-0.066916
H133	H	1.615942	-0.605697	-0.426794
H134	H	2.115942	-0.105697	0.073206
H135	H	1.439716	-0.447612	-0.949248
H136	H	1.939716	0.052388	-0.449248
H137	H	1.403683	-0.248279	-0.937778
H138	H	1.903683	0.251721	-0.437778
H139	H	1.607450	-0.738761	-0.435402
H140	H	2.107450	-0.238761	0.064598
H141	H	1.544370	-0.222655	-0.935055
H142	H	2.044370	0.277345	-0.435055
H143	H	1.369819	-0.605702	-0.672590
H144	H	1.869819	-0.105702	-0.172590
H145	H	1.644997	-0.410504	-0.945757
H146	H	2.144997	0.089496	-0.445757
H147	H	1.097218	-0.428546	-0.426612
H148	H	1.597218	0.071454	0.073388
H149	H	1.687141	-0.322346	-1.124247
H150	H	2.187141	0.177654	-0.624247
H151	H	1.405269	-0.247620	-1.119634
H152	H	1.905269	0.252380	-0.619634
H153	H	1.106313	-0.263453	-0.662362
H154	H	1.606313	0.236547	-0.162362
H155	H	0.912670	-0.454031	-0.565635
H156	H	1.412670	0.045969	-0.065635
H157	H	1.109046	-0.229103	-0.462801
H158	H	1.609046	0.270897	0.037199
H159	H	0.926941	-0.228797	-0.462935
H160	H	1.426941	0.271203	0.037065
H161	H	1.598517	-0.825540	-0.444414
H162	H	2.098517	-0.325540	0.055586
H163	H	0.921206	-0.296123	-0.365663
H164	H	1.421206	0.203877	0.134337
H165	H	1.103874	-0.296401	-0.364832
H166	H	1.603874	0.203599	0.135168
H167	H	0.915356	-0.427974	-0.425139
H168	H	1.415356	0.072026	0.074861
H169	H	1.101966	-0.354723	-0.709194
H170	H	1.601966	0.145277	-0.209194
H171	H	0.919429	-0.359274	-0.706862
H172	H	1.419429	0.140726	-0.206862
H173	H	1.684739	-0.317872	-0.941724
H174	H	2.184739	0.182128	-0.441724
