data_functionalizedCrystal
_audit_creation_method	'MofGen! by Chris Wilmer'
_symmetry_space_group_name_H-M	'P1'
_symmetry_Int_Tables_number	1
_symmetry_cell_setting	triclinic
loop_
_symmetry_equiv_pos_as_xyz
  x,y,z
_cell_length_a	19.288840
_cell_length_b	17.699083
_cell_length_c	17.766277
_cell_angle_alpha	89.992740
_cell_angle_beta	89.983415
_cell_angle_gamma	83.204515
loop_
_atom_site_label
_atom_site_type_symbol
_atom_site_fract_x
_atom_site_fract_y
_atom_site_fract_z
O1	O	0.921476	0.094327	-0.062721
O2	O	1.421476	0.594327	0.437279
O3	O	0.719228	0.107084	-0.062696
O4	O	1.219228	0.607084	0.437304
O5	O	0.826066	-0.009493	-0.062703
O6	O	1.326066	0.490507	0.437297
O7	O	0.814638	0.210903	-0.062714
O8	O	1.314638	0.710903	0.437286
O9	O	0.826047	-0.009498	0.062486
O10	O	1.326047	0.490502	0.562486
O11	O	0.719209	0.107078	0.062493
O12	O	1.219209	0.607078	0.562493
O13	O	0.921457	0.094321	0.062467
O14	O	1.421457	0.594321	0.562467
Cu15	Cu	0.820331	0.100699	0.073911
Cu16	Cu	1.320331	0.600699	0.573911
Cu17	Cu	0.820354	0.100706	-0.074139
Cu18	Cu	1.320354	0.600706	0.425861
O19	O	0.814619	0.210897	0.062474
O20	O	1.314619	0.710897	0.562474
C21	C	0.693341	0.106673	-0.000098
C22	C	1.193341	0.606673	0.499902
C23	C	0.616235	0.105451	-0.000088
C24	C	1.116235	0.605451	0.499912
C25	C	0.580041	0.104866	-0.068330
C26	C	1.080041	0.604866	0.431670
C27	C	0.507593	0.103709	-0.068339
C28	C	1.007593	0.603709	0.431661
C29	C	0.471343	0.103121	-0.000102
C30	C	0.971343	0.603121	0.499898
C31	C	0.507546	0.103709	0.068149
C32	C	1.007546	0.603709	0.568149
C33	C	0.579992	0.104874	0.068156
C34	C	1.079992	0.604874	0.568156
C35	C	0.361953	0.056941	0.052169
C36	C	0.861953	0.556941	0.552169
C37	C	0.289509	0.055772	0.052159
C38	C	0.789509	0.555772	0.552159
C39	C	0.247895	0.099531	-0.000122
C40	C	0.747895	0.599531	0.499878
C41	C	0.278736	0.144451	-0.052405
C42	C	0.778736	0.644451	0.447595
C43	C	0.351182	0.145616	-0.052397
C44	C	0.851182	0.645616	0.447603
C45	C	0.392788	0.101858	-0.000102
C46	C	0.892788	0.601858	0.499898
C47	C	0.133145	0.097694	-0.068378
C48	C	0.633145	0.597694	0.431622
C49	C	0.060694	0.096541	-0.068385
C50	C	0.560694	0.596541	0.431615
C51	C	0.060649	0.096534	0.068105
C52	C	0.560649	0.596534	0.568105
C53	C	0.133097	0.097694	0.068110
C54	C	0.633097	0.597694	0.568110
C55	C	0.169341	0.098270	-0.000134
C56	C	0.669341	0.598270	0.499866
C57	C	0.825647	-0.037692	-0.000108
C58	C	1.325647	0.462308	0.499892
C59	C	0.824418	-0.121708	-0.000108
C60	C	1.324418	0.378292	0.499892
C61	C	0.887130	-0.170423	-0.000115
C62	C	1.387130	0.329577	0.499885
C63	C	0.885972	-0.249365	-0.000121
C64	C	1.385972	0.250635	0.499879
C65	C	0.822101	-0.279590	-0.000115
C66	C	1.322101	0.220410	0.499885
C67	C	0.759384	-0.230868	-0.000111
C68	C	1.259384	0.269132	0.499889
C69	C	0.760544	-0.151928	-0.000109
C70	C	1.260544	0.348072	0.499891
C71	C	0.754708	-0.549224	-0.000116
C72	C	1.254708	-0.049224	0.499884
C73	C	0.753554	-0.628170	-0.000115
C74	C	1.253554	-0.128170	0.499885
C75	C	0.880136	-0.646661	-0.000128
C76	C	1.380136	-0.146661	0.499872
C77	C	0.881296	-0.567721	-0.000127
C78	C	1.381296	-0.067721	0.499873
C79	C	0.818580	-0.519006	-0.000126
C80	C	1.318580	-0.019006	0.499874
C81	C	0.819836	-0.433409	-0.000120
C82	C	1.319836	0.066591	0.499880
C83	C	0.820843	-0.365185	-0.000116
C84	C	1.320843	0.134815	0.499884
C85	C	0.947344	0.094731	-0.000132
C86	C	1.447344	0.594731	0.499868
C87	C	1.024450	0.095954	-0.000147
C88	C	1.524450	0.595954	0.499853
C89	C	0.815038	0.239096	-0.000122
C90	C	1.315038	0.739096	0.499878
C91	C	0.816266	0.323113	-0.000127
C92	C	1.316266	0.823113	0.499873
N93	N	0.820321	0.100693	0.178041
N94	N	1.320321	0.600693	0.678041
N95	N	0.820370	0.100705	-0.178270
N96	N	1.320370	0.600705	0.321730
C97	C	0.867644	0.049099	0.217425
C98	C	1.367644	0.549099	0.717425
C99	C	0.867648	0.049095	0.296227
C100	C	1.367648	0.549095	0.796227
C101	C	0.820335	0.100699	0.335642
C102	C	1.320335	0.600699	0.835642
C103	C	0.773003	0.152298	0.296248
C104	C	1.273003	0.652298	0.796248
C105	C	0.772996	0.152295	0.217448
C106	C	1.272996	0.652295	0.717448
C107	C	0.811118	0.169662	0.460477
C108	C	1.311118	0.669662	0.960477
C109	C	0.811130	0.169666	0.539276
C110	C	1.311130	0.669666	1.039276
C111	C	0.820354	0.100709	0.578688
C112	C	1.320354	0.600709	1.078688
C113	C	0.829580	0.031744	0.539292
C114	C	1.329580	0.531744	1.039292
C115	C	0.829573	0.031741	0.460492
C116	C	1.329573	0.531741	0.960492
C117	C	0.820338	0.100708	0.421087
C118	C	1.320338	0.600708	0.921087
C119	C	0.867684	0.049106	0.703518
C120	C	1.367684	0.549106	1.203518
C121	C	0.867683	0.049101	0.782321
C122	C	1.367683	0.549101	1.282321
C123	C	0.773042	0.152311	0.782341
C124	C	1.273042	0.652311	1.282341
C125	C	0.773040	0.152309	0.703539
C126	C	1.273040	0.652309	1.203539
C127	C	0.820364	0.100707	0.664132
C128	C	1.320364	0.600707	1.164132
H129	H	0.376289	0.182193	-0.094966
H130	H	0.876289	0.682193	0.405034
C131	C	0.951558	-0.534479	-0.000133
C132	C	1.451558	-0.034479	0.499867
N133	N	1.004482	-0.509442	-0.000141
N134	N	1.504482	-0.009442	0.499859
H135	H	0.478118	0.103235	-0.123912
H136	H	0.978118	0.603235	0.376088
C137	C	0.949126	-0.700254	-0.000137
C138	C	1.449126	-0.200254	0.499863
N139	N	1.001088	-0.740619	-0.000142
N140	N	1.501088	-0.240619	0.499858
C141	C	0.232965	0.192596	-0.109914
C142	C	0.732965	0.692596	0.390086
N143	N	0.198488	0.228858	-0.153228
N144	N	0.698488	0.728858	0.346772
C145	C	0.173014	0.098341	-0.143447
C146	C	0.673014	0.598341	0.356553
N147	N	0.203040	0.098832	-0.199990
N148	N	0.703040	0.598832	0.300010
H149	H	0.031226	0.096070	-0.123958
H150	H	0.531226	0.596070	0.376042
H151	H	0.803595	0.225819	0.428394
H152	H	1.303595	0.725819	0.928394
H153	H	0.162567	0.098164	0.123680
H154	H	0.662567	0.598164	0.623680
C155	C	0.720957	0.209060	0.339606
C156	C	1.220957	0.709060	0.839606
N157	N	0.681751	0.251811	0.372264
N158	N	1.181751	0.751811	0.872264
H159	H	0.609546	0.105336	-0.123900
H160	H	1.109546	0.605336	0.376100
C161	C	0.683288	-0.661415	-0.000115
C162	C	1.183288	-0.161415	0.499885
N163	N	0.630366	-0.686455	-0.000115
N164	N	1.130366	-0.186455	0.499885
C165	C	0.957394	-0.137184	-0.000121
C166	C	1.457394	0.362816	0.499879
N167	N	1.010319	-0.112151	-0.000129
N168	N	1.510319	0.387849	0.499871
H169	H	0.703641	-0.509570	-0.000115
H170	H	1.203641	-0.009570	0.499885
C171	C	0.689126	-0.264118	-0.000098
C172	C	1.189126	0.235882	0.499902
N173	N	0.636205	-0.289161	-0.000083
N174	N	1.136205	0.210839	0.499917
C175	C	0.919734	-0.007673	0.825643
C176	C	1.419734	0.492327	1.325643
N177	N	0.958936	-0.050440	0.858274
N178	N	1.458936	0.449560	1.358274
C179	C	0.020779	0.095888	0.143167
C180	C	0.520779	0.595888	0.643167
N181	N	-0.009255	0.095402	0.199706
N182	N	0.490745	0.595402	0.699706
C183	C	0.720965	0.209089	0.174125
C184	C	1.220965	0.709089	0.674125
N185	N	0.681785	0.251879	0.141492
N186	N	1.181785	0.751879	0.641492
C187	C	0.255591	0.006367	0.109676
C188	C	0.755591	0.506367	0.609676
N189	N	0.230045	-0.030843	0.153004
N190	N	0.730045	0.469157	0.653004
C191	C	0.407722	0.008796	0.109683
C192	C	0.907722	0.508796	0.609683
N193	N	0.442194	-0.027466	0.153001
N194	N	0.942194	0.472534	0.653001
C195	C	0.954960	-0.302949	-0.000117
C196	C	1.454960	0.197051	0.499883
N197	N	1.006925	-0.343308	-0.000109
N198	N	1.506925	0.156692	0.499891
H199	H	0.906177	0.007080	0.185342
H200	H	1.406177	0.507080	0.685342
H201	H	0.709477	-0.112264	-0.000104
H202	H	1.209477	0.387736	0.499896
H203	H	0.478026	0.103232	0.123708
H204	H	0.978026	0.603232	0.623708
C205	C	0.919716	-0.007658	0.339558
C206	C	1.419716	0.492342	0.839558
N207	N	0.958937	-0.050401	0.372192
N208	N	1.458937	0.449599	0.872192
H209	H	0.837083	-0.024412	0.428419
H210	H	1.337083	0.475588	0.928419
H211	H	0.609460	0.105351	0.123729
H212	H	1.109460	0.605351	0.623729
H213	H	0.906217	0.007086	0.671431
H214	H	1.406217	0.507086	1.171431
H215	H	0.837091	-0.024408	0.571380
H216	H	1.337091	0.475592	1.071380
C217	C	0.720998	0.209077	0.825693
C218	C	1.220998	0.709077	1.325693
N219	N	0.681797	0.251834	0.858350
N220	N	1.181797	0.751834	1.358350
H221	H	0.734507	0.194325	0.671471
H222	H	1.234507	0.694325	1.171471
H223	H	0.803622	0.225821	0.571346
H224	H	1.303622	0.725821	1.071346
