data_functionalizedCrystal
_audit_creation_method	'MofGen! by Chris Wilmer'
_symmetry_space_group_name_H-M	'P1'
_symmetry_Int_Tables_number	1
_symmetry_cell_setting	triclinic
loop_
_symmetry_equiv_pos_as_xyz
  x,y,z
_cell_length_a	17.699077
_cell_length_b	14.853569
_cell_length_c	16.776229
_cell_angle_alpha	89.992182
_cell_angle_beta	89.993415
_cell_angle_gamma	83.458071
loop_
_atom_site_label
_atom_site_type_symbol
_atom_site_fract_x
_atom_site_fract_y
_atom_site_fract_z
O1	O	1.004378	0.113982	-0.066280
O2	O	1.504378	0.613982	0.433720
O3	O	0.784037	0.128821	-0.066284
O4	O	1.284037	0.628821	0.433716
O5	O	0.900092	-0.009850	-0.066274
O6	O	1.400092	0.490150	0.433726
O7	O	0.888322	0.252653	-0.066290
O8	O	1.388322	0.752653	0.433710
O9	O	0.900077	-0.009858	0.066302
O10	O	1.400077	0.490142	0.566302
O11	O	0.784022	0.128812	0.066293
O12	O	1.284022	0.628812	0.566293
O13	O	1.004362	0.113974	0.066297
O14	O	1.504362	0.613974	0.566297
Zn15	Zn	0.894190	0.121392	0.087344
Zn16	Zn	1.394190	0.621392	0.587344
Zn17	Zn	0.894210	0.121403	-0.087331
Zn18	Zn	1.394210	0.621403	0.412669
O19	O	0.888307	0.252645	0.066287
O20	O	1.388307	0.752645	0.566287
C21	C	0.755831	0.128286	0.000004
C22	C	1.255831	0.628286	0.500004
C23	C	0.671809	0.126693	0.000003
C24	C	1.171809	0.626693	0.500003
C25	C	0.632331	0.125938	0.072271
C26	C	1.132331	0.625938	0.572271
C27	C	0.553384	0.124428	0.072272
C28	C	1.053384	0.624428	0.572272
C29	C	0.513916	0.123679	0.000004
C30	C	1.013916	0.623679	0.500004
C31	C	0.553400	0.124431	-0.072270
C32	C	1.053400	0.624431	0.427730
C33	C	0.632346	0.125935	-0.072270
C34	C	1.132346	0.625935	0.427730
C35	C	0.235021	0.118364	-0.072272
C36	C	0.735021	0.618364	0.427728
C37	C	0.156069	0.116863	-0.072266
C38	C	0.656069	0.616863	0.427734
C39	C	0.156060	0.116857	0.072271
C40	C	0.656060	0.616857	0.572271
C41	C	0.235005	0.118361	0.072271
C42	C	0.735005	0.618361	0.572271
C43	C	0.274483	0.119108	-0.000003
C44	C	0.774483	0.619108	0.499997
C45	C	0.360085	0.120745	-0.000003
C46	C	0.860085	0.620745	0.499997
C47	C	0.428314	0.122049	0.000003
C48	C	0.928314	0.622049	0.500003
C49	C	0.899551	-0.043441	0.000014
C50	C	1.399551	0.456559	0.500014
C51	C	0.897952	-0.143519	0.000015
C52	C	1.397952	0.356481	0.500015
C53	C	0.828263	-0.179637	0.000015
C54	C	1.328263	0.320363	0.500015
C55	C	0.966140	-0.201437	0.000009
C56	C	1.466140	0.298563	0.500009
C57	C	0.964640	-0.295466	0.000006
C58	C	1.464640	0.204534	0.500006
C59	C	0.894951	-0.331584	0.000006
C60	C	1.394951	0.168416	0.500006
C61	C	0.826761	-0.273674	0.000009
C62	C	1.326761	0.226326	0.500009
C63	C	1.032828	-0.353383	-0.000006
C64	C	1.532828	0.146617	0.499994
C65	C	1.031331	-0.447418	-0.000010
C66	C	1.531331	0.052582	0.499990
C67	C	0.961641	-0.483538	-0.000004
C68	C	1.461641	0.016462	0.499996
C69	C	0.893449	-0.425621	0.000000
C70	C	1.393449	0.074379	0.500000
C71	C	0.823759	-0.461739	0.000000
C72	C	1.323759	0.038261	0.500000
C73	C	0.755566	-0.403824	0.000010
C74	C	1.255566	0.096176	0.500010
C75	C	0.757071	-0.309793	0.000015
C76	C	1.257071	0.190207	0.500015
C77	C	0.960136	-0.577569	-0.000009
C78	C	1.460136	-0.077569	0.499991
C79	C	0.822257	-0.555776	-0.000006
C80	C	1.322257	-0.055776	0.499994
C81	C	1.032568	0.114509	0.000007
C82	C	1.532568	0.614509	0.500007
C83	C	1.116591	0.116101	0.000003
C84	C	1.616591	0.616101	0.500003
C85	C	0.888848	0.286236	-0.000003
C86	C	1.388848	0.786236	0.499997
C87	C	0.890447	0.386313	-0.000009
C88	C	1.390447	0.886313	0.499991
N89	N	0.894181	0.121384	0.206555
N90	N	1.394181	0.621384	0.706555
N91	N	0.894224	0.121404	-0.206542
N92	N	1.394224	0.621404	0.293458
C93	C	0.945586	0.060005	0.248277
C94	C	1.445586	0.560005	0.748277
C95	C	0.945590	0.060005	0.331729
C96	C	1.445590	0.560005	0.831729
C97	C	0.894193	0.121387	0.373458
C98	C	1.394193	0.621387	0.873458
C99	C	0.842782	0.182768	0.331731
C100	C	1.342782	0.682768	0.831731
C101	C	0.842775	0.182764	0.248280
C102	C	1.342775	0.682764	0.748280
C103	C	0.842810	0.182786	0.668278
C104	C	1.342810	0.682786	1.168278
C105	C	0.842822	0.182787	0.751735
C106	C	1.342822	0.682787	1.251735
C107	C	0.945625	0.060027	0.751727
C108	C	1.445625	0.560027	1.251727
C109	C	0.945618	0.060022	0.668276
C110	C	1.445618	0.560022	1.168276
C111	C	0.894205	0.121400	0.626556
C112	C	1.394205	0.621400	1.126556
C113	C	0.894200	0.121399	0.536068
C114	C	1.394200	0.621399	1.036068
C115	C	0.894201	0.121393	0.463945
C116	C	1.394201	0.621393	0.963945
H117	H	0.521247	0.123798	0.131120
H118	H	1.021247	0.623798	0.631120
C119	C	0.786237	0.250281	0.377636
C120	C	1.286237	0.750281	0.877636
N121	N	0.743646	0.301133	0.412211
N122	N	1.243646	0.801133	0.912211
H123	H	0.800915	0.232743	0.214311
H124	H	1.300915	0.732743	0.714311
C125	C	1.042794	-0.161704	0.000013
C126	C	1.542794	0.338296	0.500013
N127	N	1.100533	-0.131773	0.000020
N128	N	1.600533	0.368227	0.500020
C129	C	0.753254	-0.115931	0.000023
C130	C	1.253254	0.384069	0.500023
N131	N	0.696757	-0.067946	0.000027
N132	N	1.196757	0.432054	0.500027
H133	H	0.664459	0.126556	0.131120
H134	H	1.164459	0.626556	0.631120
C135	C	1.002174	-0.007499	0.797626
C136	C	1.502174	0.492501	1.297626
N137	N	1.044766	-0.058357	0.832196
N138	N	1.544766	0.441643	1.332196
C139	C	1.109482	-0.313647	0.000001
C140	C	1.609482	0.186353	0.500001
N141	N	1.167219	-0.283714	0.000011
N142	N	1.667219	0.216286	0.500011
H143	H	0.267154	0.118970	-0.131121
H144	H	0.767154	0.618970	0.368879
C145	C	1.106345	-0.511116	-0.000008
C146	C	1.606345	-0.011116	0.499992
N147	N	1.162846	-0.559094	-0.000001
N148	N	1.662846	-0.059094	0.499999
H149	H	0.800965	0.232774	0.785709
H150	H	1.300965	0.732774	1.285709
C151	C	1.002128	-0.007522	0.202382
C152	C	1.502128	0.492478	0.702382
N153	N	1.044715	-0.058388	0.167817
N154	N	1.544715	0.441612	0.667817
C155	C	1.002122	-0.007538	0.377619
C156	C	1.502122	0.492462	0.877619
N157	N	1.044697	-0.058423	0.412182
N158	N	1.544697	0.441577	0.912182
C159	C	0.682065	-0.246081	0.000016
C160	C	1.182065	0.253919	0.500016
N161	N	0.625572	-0.198089	0.000011
N162	N	1.125572	0.301911	0.500011
C163	C	0.112629	0.116024	0.151774
C164	C	0.612629	0.616024	0.651774
N165	N	0.079918	0.115398	0.211654
N166	N	0.579918	0.615398	0.711654
C167	C	0.786352	0.250420	0.622397
C168	C	1.286352	0.750420	1.122397
N169	N	0.743861	0.301407	0.587837
N170	N	1.243861	0.801407	1.087837
C171	C	0.678910	-0.443567	0.000013
C172	C	1.178910	0.056433	0.500013
N173	N	0.621174	-0.473505	0.000018
N174	N	1.121174	0.026495	0.500018
C175	C	0.509983	0.123604	-0.151766
C176	C	1.009983	0.623604	0.348234
N177	N	0.477281	0.122985	-0.211645
N178	N	0.977281	0.622985	0.288355
C179	C	0.278416	0.119183	0.151771
C180	C	0.778416	0.619183	0.651771
N181	N	0.311112	0.119797	0.211653
N182	N	0.811112	0.619797	0.711653
H183	H	0.987473	0.010042	0.634303
H184	H	1.487473	0.510042	1.134303
C185	C	0.112657	0.116029	-0.151770
C186	C	0.612657	0.616029	0.348230
N187	N	0.079959	0.115399	-0.211650
N188	N	0.579959	0.615399	0.288350
H189	H	1.015658	-0.624719	-0.000025
H190	H	1.515658	-0.124719	0.499975
H191	H	0.765507	-0.585176	0.000002
H192	H	1.265507	-0.085176	0.500002
C193	C	0.675771	0.126768	-0.151771
C194	C	1.175771	0.626768	0.348229
N195	N	0.708477	0.127392	-0.211654
N196	N	1.208477	0.627392	0.288346
