data_functionalizedCrystal
_audit_creation_method	'MofGen! by Chris Wilmer'
_symmetry_space_group_name_H-M	'P1'
_symmetry_Int_Tables_number	1
_symmetry_cell_setting	triclinic
loop_
_symmetry_equiv_pos_as_xyz
  x,y,z
_cell_length_a	16.109301
_cell_length_b	17.038272
_cell_length_c	14.586319
_cell_angle_alpha	89.995924
_cell_angle_beta	89.999213
_cell_angle_gamma	87.286518
loop_
_atom_site_label
_atom_site_type_symbol
_atom_site_fract_x
_atom_site_fract_y
_atom_site_fract_z
O1	O	1.110268	0.100495	-0.076183
O2	O	0.869094	0.113001	-0.076198
O3	O	0.988248	-0.007067	-0.076183
O4	O	0.991114	0.220564	-0.076198
O5	O	0.988239	-0.007069	0.076298
O6	O	0.869085	0.113000	0.076283
O7	O	1.110259	0.100493	0.076298
Cu8	Cu	0.989671	0.106746	0.090213
Cu9	Cu	0.989682	0.106748	-0.090113
O10	O	0.991105	0.220562	0.076283
C11	C	0.838079	0.112494	0.000041
C12	C	0.745676	0.110975	0.000035
C13	C	0.528212	0.178690	0.000042
C14	C	0.441390	0.177257	0.000048
C15	C	0.451147	0.034799	0.000053
C16	C	0.537968	0.036233	0.000054
C17	C	0.576498	0.108181	0.000043
C18	C	0.402855	0.105314	0.000049
C19	C	0.308719	0.103759	0.000055
C20	C	0.670640	0.109736	0.000039
C21	C	0.985636	-0.036196	0.000057
C22	C	0.977857	-0.122989	0.000056
C23	C	1.049277	-0.173104	0.000062
C24	C	1.041963	-0.254654	0.000052
C25	C	0.963228	-0.286089	0.000044
C26	C	0.891802	-0.235967	0.000036
C27	C	0.899116	-0.154418	0.000039
C28	C	0.937385	-0.531846	0.000030
C29	C	0.930076	-0.613402	0.000031
C30	C	1.080238	-0.632083	0.000045
C31	C	1.087546	-0.550532	0.000053
C32	C	1.016120	-0.500418	0.000040
C33	C	0.955749	-0.369446	0.000038
C34	C	1.023599	-0.417062	0.000040
C35	C	1.141274	0.101001	0.000057
C36	C	1.233677	0.102519	0.000057
C37	C	0.993717	0.249691	0.000041
C38	C	1.001496	0.336484	0.000036
N39	N	0.989670	0.106744	0.217045
N40	N	0.989689	0.106744	-0.216945
C41	C	1.042451	0.053596	0.452058
C42	C	1.042453	0.053594	0.548039
C43	C	0.936902	0.159895	0.548036
C44	C	0.936896	0.159893	0.452056
C45	C	0.989675	0.106744	0.404070
C46	C	0.989684	0.106744	0.596030
C47	C	0.989686	0.106743	0.700098
C48	C	0.989672	0.106744	0.299996
H49	H	1.113392	-0.147517	0.000074
C50	C	0.388275	0.254817	0.000042
C51	C	0.327249	0.273423	0.079223
C52	C	0.274133	0.350987	0.079219
C53	C	0.282043	0.409946	0.000034
C54	C	0.343072	0.391342	-0.079153
C55	C	0.396187	0.313778	-0.079149
H56	H	0.321391	0.229777	0.137846
H57	H	0.228956	0.364759	0.137839
H58	H	0.242724	0.467363	0.000031
H59	H	0.348929	0.434988	-0.137776
H60	H	0.441365	0.300006	-0.137769
H61	H	0.893932	0.203169	0.587116
H62	H	1.085425	0.010318	0.412989
C63	C	0.408762	-0.044340	0.000053
C64	C	0.313263	-0.045922	0.000045
C65	C	0.270880	-0.125063	0.000041
C66	C	0.323995	-0.202622	0.000044
C67	C	0.419500	-0.201043	0.000051
C68	C	0.461883	-0.121902	0.000056
H69	H	0.273938	0.011495	0.000043
H70	H	0.200181	-0.126232	0.000035
H71	H	0.292621	-0.261208	0.000040
H72	H	0.458824	-0.258460	0.000053
H73	H	0.532582	-0.120734	0.000061
C74	C	0.878841	0.218360	0.399261
C75	C	0.820818	0.276851	0.452038
C76	C	0.762763	0.335313	0.399241
C77	C	0.762730	0.335283	0.293668
C78	C	0.820755	0.276789	0.240885
C79	C	0.878810	0.218328	0.293681
H80	H	0.820841	0.276876	0.530195
H81	H	0.719809	0.378614	0.438316
H82	H	0.719755	0.378559	0.254585
H83	H	0.820733	0.276765	0.162727
H84	H	0.921764	0.175027	0.254607
H85	H	0.891642	-0.395049	0.000034
H86	H	0.559580	0.237274	0.000040
H87	H	0.879224	-0.491053	0.000020
C88	C	0.805192	-0.270545	0.000022
C89	C	0.779505	-0.324044	0.079197
C90	C	0.692894	-0.358621	0.079182
C91	C	0.631970	-0.339699	-0.000006
C92	C	0.657656	-0.286197	-0.079187
C93	C	0.744267	-0.251620	-0.079173
H94	H	0.824606	-0.338054	0.137822
H95	H	0.673880	-0.398226	0.137798
H96	H	0.567856	-0.365295	-0.000017
H97	H	0.612555	-0.272187	-0.137813
H98	H	0.763280	-0.212015	-0.137788
C99	C	0.591088	-0.041332	0.000054
C100	C	0.583175	-0.100296	0.079233
C101	C	0.636295	-0.177857	0.079237
C102	C	0.697329	-0.196455	0.000062
C103	C	0.705245	-0.137490	-0.079124
C104	C	0.652125	-0.059929	-0.079128
H105	H	0.537992	-0.086530	0.137849
H106	H	0.630435	-0.221507	0.137856
H107	H	0.736652	-0.253871	0.000065
H108	H	0.750428	-0.151256	-0.137740
H109	H	0.657985	-0.016279	-0.137747
H110	H	1.085426	0.010315	0.587108
C111	C	1.120530	-0.309778	0.000066
C112	C	1.136142	-0.368416	0.079246
C113	C	1.214713	-0.423538	0.079261
C114	C	1.277674	-0.420022	0.000096
C115	C	1.262064	-0.361381	-0.079090
C116	C	1.183492	-0.306259	-0.079104
H117	H	1.089533	-0.371022	0.137854
H118	H	1.226268	-0.466948	0.137880
H119	H	1.335837	-0.460826	0.000107
H120	H	1.308673	-0.358775	-0.137698
H121	H	1.171937	-0.262849	-0.137723
C122	C	1.158802	-0.687210	0.000048
C123	C	1.174422	-0.745851	0.079223
C124	C	1.252990	-0.800978	0.079222
C125	C	1.315939	-0.797463	0.000046
C126	C	1.300321	-0.738819	-0.079136
C127	C	1.221753	-0.683693	-0.079134
H128	H	1.127822	-0.748455	0.137840
H129	H	1.264551	-0.844390	0.137838
H130	H	1.374099	-0.838271	0.000045
H131	H	1.346921	-0.736216	-0.137752
H132	H	1.210192	-0.640281	-0.137750
H133	H	1.151661	-0.524945	0.000059
H134	H	0.865956	-0.638991	0.000039
H135	H	0.840958	-0.113615	0.000035
H136	H	1.087705	-0.391465	0.000026
