data_functionalizedCrystal
_audit_creation_method	'MofGen! by Chris Wilmer'
_symmetry_space_group_name_H-M	'P1'
_symmetry_Int_Tables_number	1
_symmetry_cell_setting	triclinic
loop_
_symmetry_equiv_pos_as_xyz
  x,y,z
_cell_length_a	10.654550
_cell_length_b	19.288865
_cell_length_c	9.730223
_cell_angle_alpha	89.990377
_cell_angle_beta	89.999957
_cell_angle_gamma	83.810589
loop_
_atom_site_label
_atom_site_type_symbol
_atom_site_fract_x
_atom_site_fract_y
_atom_site_fract_z
O1	O	1.665751	0.097555	-0.114205
O2	O	1.300073	0.106849	-0.114232
O3	O	1.493478	0.001141	-0.114191
O4	O	1.472346	0.203263	-0.114247
O5	O	1.493466	0.001138	0.114389
O6	O	1.300061	0.106846	0.114348
O7	O	1.665738	0.097552	0.114375
Zn8	Zn	1.482898	0.102198	0.150653
Zn9	Zn	1.482914	0.102202	-0.150511
O10	O	1.472333	0.203260	0.114333
C11	C	1.253284	0.106165	0.000055
C12	C	1.113884	0.104123	0.000046
C13	C	1.033066	0.166363	0.000033
C14	C	0.902087	0.164440	0.000057
C15	C	0.932756	0.038033	0.000102
C16	C	1.063733	0.039956	0.000088
C17	C	1.492792	-0.024742	0.000103
C18	C	1.490751	-0.101859	0.000115
C19	C	1.604232	-0.145812	0.000131
C20	C	1.602315	-0.218272	0.000109
C21	C	1.486909	-0.246775	0.000099
C22	C	1.373413	-0.202812	0.000076
C23	C	1.375334	-0.130354	0.000085
C24	C	1.396183	-0.355657	0.080159
C25	C	1.394267	-0.428114	0.080160
C26	C	1.480980	-0.470259	0.000068
C27	C	1.569631	-0.439940	-0.080006
C28	C	1.571552	-0.367482	-0.079998
C29	C	1.484814	-0.325343	0.000090
C30	C	1.592390	-0.592782	0.000057
C31	C	1.590467	-0.665243	0.000027
C32	C	1.361562	-0.649781	0.000009
C33	C	1.363488	-0.577322	0.000025
C34	C	1.478905	-0.548827	0.000056
C35	C	1.712528	0.098236	0.000085
C36	C	1.851928	0.100277	0.000085
C37	C	1.473020	0.229142	0.000036
C38	C	1.475061	0.306259	0.000015
N39	N	1.482896	0.102195	0.356190
N40	N	1.482926	0.102200	-0.356047
C41	C	1.568564	0.055408	0.428134
C42	C	1.568577	0.055408	0.572017
C43	C	1.397248	0.148990	0.571999
C44	C	1.397231	0.148986	0.428118
H45	H	1.698214	-0.122616	0.000151
H46	H	1.073895	0.218611	0.000009
H47	H	1.267597	-0.672988	-0.000006
O48	O	0.884244	-0.024355	0.000186
C49	C	0.928489	-0.149530	0.000128
C50	C	0.983592	-0.078923	0.000074
H51	H	1.008785	-0.193666	0.000008
H52	H	0.867986	-0.153641	0.095814
H53	H	0.867888	-0.153549	-0.095507
H54	H	1.044249	-0.074855	0.095644
H55	H	1.044023	-0.074842	-0.095676
H56	H	1.279449	-0.226024	0.000066
O57	O	1.651919	0.009934	0.641690
C58	C	1.821804	-0.082913	0.626515
C59	C	1.727505	-0.031437	0.547440
H60	H	1.882922	-0.116385	0.550348
H61	H	1.884454	-0.052636	0.693819
H62	H	1.767776	-0.117861	0.693933
H63	H	1.781430	0.003524	0.479947
H64	H	1.664857	-0.061757	0.480223
H65	H	1.686369	-0.569580	0.000076
H66	H	0.836289	0.215122	0.000049
O67	O	1.712637	-0.260908	-0.000053
C68	C	1.907670	-0.296321	-0.118473
C69	C	1.782795	-0.247987	-0.118447
H70	H	1.964416	-0.285902	-0.214198
H71	H	1.964560	-0.285889	-0.022864
H72	H	1.886435	-0.352997	-0.118414
H73	H	1.803916	-0.191294	-0.118555
H74	H	1.725942	-0.258479	-0.214047
O75	O	1.700825	-0.707842	0.000101
C76	C	1.928066	-0.715527	0.000066
C77	C	1.803179	-0.667203	0.000013
H78	H	2.010851	-0.682690	-0.000035
H79	H	1.932962	-0.749836	0.095742
H80	H	1.932834	-0.749839	-0.095578
H81	H	1.798327	-0.632848	0.095593
H82	H	1.798335	-0.632941	-0.095727
H83	H	1.327503	0.187086	0.630577
H84	H	1.129539	-0.010730	0.000102
O85	O	1.253135	-0.534722	0.000089
C86	C	1.025894	-0.527035	-0.000008
C87	C	1.150781	-0.575360	-0.000043
H88	H	0.943109	-0.559872	-0.000144
H89	H	1.020981	-0.492750	0.095680
H90	H	1.021145	-0.492700	-0.095641
H91	H	1.155614	-0.609739	0.095525
H92	H	1.155642	-0.609597	-0.095794
O93	O	1.657699	-0.338139	-0.157911
C94	C	1.831472	-0.357507	-0.316726
C95	C	1.733964	-0.390828	-0.228572
H96	H	1.893175	-0.400092	-0.373856
H97	H	1.780326	-0.320081	-0.394086
H98	H	1.893160	-0.327677	-0.247410
H99	H	1.672248	-0.420695	-0.297779
H100	H	1.785189	-0.428216	-0.151201
O101	O	1.653700	-0.480887	-0.157984
C102	C	1.683390	-0.564846	-0.341637
C103	C	1.588047	-0.518493	-0.253455
H104	H	1.630346	-0.595273	-0.418826
H105	H	1.747057	-0.530758	-0.398964
H106	H	1.743362	-0.602861	-0.272322
H107	H	1.527991	-0.480471	-0.322671
H108	H	1.524467	-0.552624	-0.196114
H109	H	1.322077	-0.452794	0.145353
O110	O	1.311883	-0.314824	0.158083
C111	C	1.137685	-0.310739	0.316869
C112	C	1.233103	-0.357063	0.228723
H113	H	1.073950	-0.344868	0.373983
H114	H	1.190610	-0.280354	0.394243
H115	H	1.077798	-0.272687	0.247549
H116	H	1.293015	-0.395154	0.297934
H117	H	1.180101	-0.387399	0.151338
O118	O	1.313961	0.194505	0.358436
C119	C	1.143976	0.287297	0.373589
C120	C	1.238228	0.235801	0.452675
H121	H	1.082703	0.320688	0.449747
H122	H	1.197915	0.322320	0.306238
H123	H	1.081471	0.256968	0.306216
H124	H	1.300756	0.266074	0.520123
H125	H	1.184210	0.200778	0.519939
H126	H	1.638316	0.017307	0.369573
H127	H	1.282921	-0.094566	0.000073
