data_functionalizedCrystal
_audit_creation_method	'MofGen! by Chris Wilmer'
_symmetry_space_group_name_H-M	'P1'
_symmetry_Int_Tables_number	1
_symmetry_cell_setting	triclinic
loop_
_symmetry_equiv_pos_as_xyz
  x,y,z
_cell_length_a	12.827893
_cell_length_b	12.827892
_cell_length_c	12.827885
_cell_angle_alpha	90.029976
_cell_angle_beta	90.019272
_cell_angle_gamma	90.015552
loop_
_atom_site_label
_atom_site_type_symbol
_atom_site_fract_x
_atom_site_fract_y
_atom_site_fract_z
Zn1	Zn	1.597670	-0.415978	0.590847
Zn2	Zn	2.097670	0.084022	1.090847
Zn3	Zn	1.597564	-0.590755	0.416107
Zn4	Zn	2.097564	-0.090755	0.916107
Zn5	Zn	1.422911	-0.416029	0.416121
Zn6	Zn	1.922911	0.083971	0.916121
Zn7	Zn	1.422896	-0.590678	0.590807
Zn8	Zn	1.922896	-0.090678	1.090807
O9	O	1.510260	-0.503360	0.503471
O10	O	2.010260	-0.003360	1.003471
O11	O	1.743892	-0.439173	0.567679
O12	O	2.243892	0.060827	1.067679
O13	O	1.574357	-0.567631	0.269873
O14	O	2.074357	-0.067631	0.769873
O15	O	1.446144	-0.269787	0.439321
O16	O	1.946144	0.230213	0.939321
O17	O	1.743814	-0.567582	0.439298
O18	O	2.243814	-0.067582	0.939298
O19	O	1.574538	-0.269749	0.567692
O20	O	2.074538	0.230251	1.067692
O21	O	1.446041	-0.439261	0.269883
O22	O	1.946041	0.060739	0.769883
O23	O	1.276673	-0.439186	0.439282
O24	O	1.776673	0.060814	0.939282
O25	O	1.446118	-0.567450	0.737048
O26	O	1.946118	-0.067450	1.237048
O27	O	1.276662	-0.567500	0.567623
O28	O	1.776662	-0.067500	1.067623
O29	O	1.574524	-0.439098	0.737078
O30	O	2.074524	0.060902	1.237078
O31	O	1.574343	-0.736981	0.439259
O32	O	2.074343	-0.236981	0.939259
O33	O	1.446016	-0.736924	0.567610
O34	O	1.946016	-0.236924	1.067610
C35	C	1.238750	-0.503341	0.503451
C36	C	1.738750	-0.003341	1.003451
C37	C	1.122597	-0.503358	0.503467
C38	C	1.622597	-0.003358	1.003467
C39	C	1.070851	-0.439930	0.567093
C40	C	1.570851	0.060070	1.067093
C41	C	0.950800	-0.439946	0.567111
C42	C	1.450800	0.060054	1.067111
C43	C	1.510195	-0.774870	0.503451
C44	C	2.010195	-0.274870	1.003451
C45	C	1.510262	-0.891023	0.503478
C46	C	2.010262	-0.391023	1.003478
C47	C	1.573768	-0.942706	0.567057
C48	C	2.073768	-0.442706	1.067057
C49	C	1.573839	-1.062756	0.567086
C50	C	2.073839	-0.562756	1.067086
C51	C	1.782830	-0.503380	0.503491
C52	C	2.282830	-0.003380	1.003491
C53	C	1.898983	-0.503389	0.503500
C54	C	2.398983	-0.003389	1.003500
C55	C	1.510331	-0.503260	0.776041
C56	C	2.010331	-0.003260	1.276041
C57	C	1.510362	-0.503217	0.892194
C58	C	2.010362	-0.003217	1.392194
C59	C	1.510354	-0.230790	0.503513
C60	C	2.010354	0.269210	1.003513
C61	C	1.510394	-0.114637	0.503531
C62	C	2.010394	0.385363	1.003531
C63	C	1.510249	-0.503385	0.231961
C64	C	2.010249	-0.003385	0.731961
C65	C	1.510422	-0.503133	0.115808
C66	C	2.010422	-0.003133	0.615808
C67	C	1.573907	-0.439692	0.943993
C68	C	2.073907	0.060308	1.443993
C69	C	1.573940	-0.439647	1.064044
C70	C	2.073940	0.060353	1.564044
H71	H	1.115425	-0.385612	0.621548
H72	H	1.615425	0.114388	1.121548
Br73	Br	1.664290	-0.868332	0.657766
Br74	Br	2.164290	-0.368332	1.157766
H75	H	1.628212	-1.107202	0.621514
H76	H	2.128212	-0.607202	1.121514
H77	H	1.078022	-0.557670	0.449006
H78	H	1.578022	-0.057670	0.949006
Br79	Br	1.419775	-1.040571	0.412789
Br80	Br	1.919775	-0.540571	0.912789
H81	H	0.943477	-0.557700	0.449030
H82	H	1.443477	-0.057700	0.949030
H83	H	1.455975	-0.557562	0.936724
H84	H	1.955975	-0.057562	1.436724
H85	H	1.628283	-0.385336	0.899464
H86	H	2.128283	0.114664	1.399464
Br87	Br	0.876637	-0.349441	0.657917
Br88	Br	1.376637	0.150559	1.157917
Br89	Br	1.664632	-0.349003	1.138283
Br90	Br	2.164632	0.150997	1.638283
Br91	Br	1.419745	-0.593798	1.041576
Br92	Br	1.919745	-0.093798	1.541576
H93	H	1.455941	-0.935652	0.449072
H94	H	1.955941	-0.435652	0.949072
