data_functionalizedCrystal
_audit_creation_method	'MofGen! by Chris Wilmer'
_symmetry_space_group_name_H-M	'P1'
_symmetry_Int_Tables_number	1
_symmetry_cell_setting	triclinic
loop_
_symmetry_equiv_pos_as_xyz
  x,y,z
_cell_length_a	14.519709
_cell_length_b	14.519709
_cell_length_c	13.930277
_cell_angle_alpha	89.996649
_cell_angle_beta	89.998266
_cell_angle_gamma	83.680145
loop_
_atom_site_label
_atom_site_type_symbol
_atom_site_fract_x
_atom_site_fract_y
_atom_site_fract_z
O1	O	1.223872	0.120888	-0.079708
O2	O	0.955395	0.135124	-0.079738
O3	O	1.096752	-0.006233	-0.079713
O4	O	1.082515	0.262244	-0.079732
O5	O	1.096731	-0.006230	0.079949
O6	O	0.955374	0.135127	0.079924
O7	O	1.223851	0.120890	0.079954
Zn8	Zn	1.089609	0.128009	0.105289
Zn9	Zn	1.089637	0.128005	-0.105073
O10	O	1.082494	0.262247	0.079930
C11	C	0.921025	0.134462	0.000090
C12	C	0.818643	0.132474	0.000079
C13	C	0.443748	0.125154	0.000123
C14	C	0.548056	0.127187	0.000110
C15	C	0.631192	0.128814	0.000100
C16	C	0.735507	0.130847	0.000089
C17	C	1.096078	-0.040591	0.000118
C18	C	1.094090	-0.142972	0.000118
C19	C	1.086770	-0.517868	0.000092
C20	C	1.088803	-0.413560	0.000100
C21	C	1.090430	-0.330423	0.000106
C22	C	1.092463	-0.226109	0.000112
C23	C	1.258221	0.121553	0.000125
C24	C	1.360602	0.123541	0.000129
C25	C	1.083168	0.296606	0.000097
C26	C	1.085156	0.398987	0.000090
N27	N	1.089597	0.128011	0.248855
N28	N	1.089656	0.127996	-0.248639
C29	C	1.033579	0.071952	0.299116
C30	C	1.145628	0.184065	0.299099
C31	C	1.145639	0.184065	0.399595
C32	C	1.089621	0.128006	0.449856
C33	C	1.033591	0.071948	0.399621
C34	C	1.201675	0.240115	0.449837
C35	C	1.201690	0.240116	0.550339
C36	C	1.145666	0.184061	0.600602
C37	C	1.089632	0.128001	0.550361
C38	C	1.033614	0.071942	0.600621
C39	C	0.977575	0.015887	0.550382
C40	C	0.977566	0.015893	0.449883
C41	C	1.145674	0.184055	0.701101
C42	C	1.033626	0.071938	0.701126
H43	H	0.988004	0.026292	0.742042
O44	O	0.973139	0.011498	0.244932
H45	H	0.934185	-0.027477	0.296769
H46	H	1.247289	0.285748	0.408908
O47	O	0.917199	-0.044607	0.395663
H48	H	0.867712	-0.000537	0.349840
H49	H	1.247319	0.285760	0.591236
H50	H	1.191241	0.229700	0.258171
H51	H	1.191304	0.229691	0.742001
H52	H	0.931969	-0.029760	0.591317
