data_functionalizedCrystal
_audit_creation_method	'MofGen! by Chris Wilmer'
_symmetry_space_group_name_H-M	'P1'
_symmetry_Int_Tables_number	1
_symmetry_cell_setting	triclinic
loop_
_symmetry_equiv_pos_as_xyz
  x,y,z
_cell_length_a	16.120490
_cell_length_b	25.639240
_cell_length_c	16.120297
_cell_angle_alpha	92.861830
_cell_angle_beta	90.129683
_cell_angle_gamma	87.124607
loop_
_atom_site_label
_atom_site_type_symbol
_atom_site_fract_x
_atom_site_fract_y
_atom_site_fract_z
Zn1	Zn	1.247383	-0.264925	-0.534455
Zn2	Zn	1.747383	0.235075	-0.034455
Zn3	Zn	1.254313	-0.348157	-0.395372
Zn4	Zn	1.754313	0.151843	0.104628
Zn5	Zn	1.115374	-0.256086	-0.388379
Zn6	Zn	1.615374	0.243914	0.111621
Zn7	Zn	1.108269	-0.347670	-0.527345
Zn8	Zn	1.608269	0.152330	-0.027345
O9	O	1.181335	-0.304210	-0.461388
O10	O	1.681335	0.195790	0.038612
O11	O	1.364668	-0.279869	-0.521908
O12	O	1.864668	0.220131	-0.021908
O13	O	1.241757	-0.332448	-0.278080
O14	O	1.741757	0.167552	0.221920
O15	O	1.132959	-0.184097	-0.407805
O16	O	1.632959	0.315903	0.092195
O17	O	1.369760	-0.341019	-0.419724
O18	O	1.869760	0.158981	0.080276
O19	O	1.229945	-0.190591	-0.515126
O20	O	1.729945	0.309409	-0.015126
O21	O	1.139679	-0.264803	-0.272942
O22	O	1.639679	0.235197	0.227058
O23	O	0.998066	-0.264332	-0.400911
O24	O	1.498066	0.235668	0.099089
O25	O	1.120849	-0.340190	-0.644653
O26	O	1.620849	0.159810	-0.144653
O27	O	0.992846	-0.331619	-0.503009
O28	O	1.492846	0.168381	-0.003009
O29	O	1.223055	-0.279397	-0.649877
O30	O	1.723055	0.220603	-0.149877
O31	O	1.234867	-0.421254	-0.412830
O32	O	1.734867	0.078746	0.087170
O33	O	1.127569	-0.420896	-0.509790
O34	O	1.627569	0.079104	-0.009790
C35	C	0.965283	-0.296964	-0.450430
C36	C	1.465283	0.203036	0.049570
C37	C	0.872855	-0.293877	-0.445762
C38	C	1.372855	0.206123	0.054238
C39	C	0.659886	-0.320217	-0.485604
C40	C	1.159886	0.179783	0.014396
C41	C	0.703631	-0.288246	-0.437238
C42	C	1.203631	0.211754	0.062762
C43	C	0.797796	-0.291380	-0.441982
C44	C	1.297796	0.208620	0.058018
C45	C	0.565713	-0.317083	-0.480861
C46	C	1.065713	0.182917	0.019139
C47	C	1.181221	-0.440046	-0.461317
C48	C	1.681221	0.059954	0.038683
C49	C	1.181246	-0.498161	-0.461318
C50	C	1.681246	0.001839	0.038682
C51	C	1.231857	-0.861876	-0.517368
C52	C	1.731857	-0.361876	-0.017368
C53	C	1.231881	-0.916482	-0.517386
C54	C	1.731881	-0.416482	-0.017386
O55	O	1.274775	-0.947562	-0.564967
O56	O	1.774775	-0.447562	-0.064967
N57	N	1.181446	-0.940455	-0.461474
N58	N	1.681446	-0.440455	0.038526
C59	C	1.130978	-0.909819	-0.405546
C60	C	1.630978	-0.409819	0.094454
O61	O	1.088082	-0.935224	-0.357992
O62	O	1.588082	-0.435224	0.142008
C63	C	1.130951	-0.855215	-0.405533
C64	C	1.630951	-0.355215	0.094467
C65	C	1.181395	-0.831245	-0.461443
C66	C	1.681395	-0.331245	0.038557
C67	C	1.282296	-0.837906	-0.573273
C68	C	1.782296	-0.337906	-0.073273
C69	C	1.282273	-0.783304	-0.573254
C70	C	1.782273	-0.283304	-0.073254
C71	C	1.231812	-0.752672	-0.517329
C72	C	1.731812	-0.252672	-0.017329
C73	C	1.181372	-0.776643	-0.461423
C74	C	1.681372	-0.276643	0.038577
C75	C	1.080479	-0.824580	-0.349610
C76	C	1.580479	-0.324580	0.150390
C77	C	1.080456	-0.769972	-0.349602
C78	C	1.580456	-0.269972	0.150398
C79	C	1.130900	-0.746002	-0.405511
C80	C	1.630900	-0.246002	0.094489
C81	C	1.130888	-0.691409	-0.405479
C82	C	1.630888	-0.191409	0.094521
N83	N	1.181322	-0.667436	-0.461390
N84	N	1.681322	-0.167436	0.038610
C85	C	1.231784	-0.698068	-0.517315
C86	C	1.731784	-0.198068	-0.017315
C87	C	1.131039	-1.024493	-0.405580
C88	C	1.631039	-0.524493	0.094420
C89	C	1.131070	-1.079097	-0.405589
C90	C	1.631070	-0.579097	0.094411
C91	C	1.231971	-1.085755	-0.517429
C92	C	1.731971	-0.585755	-0.017429
C93	C	1.231944	-1.031151	-0.517416
C94	C	1.731944	-0.531151	-0.017416
C95	C	1.181473	-1.000520	-0.461492
C96	C	1.681473	-0.500520	0.038508
C97	C	1.231733	-0.583400	-0.517270
C98	C	1.731733	-0.083400	-0.017270
C99	C	1.231708	-0.528793	-0.517243
C100	C	1.731708	-0.028793	-0.017243
C101	C	1.130804	-0.522139	-0.405406
C102	C	1.630804	-0.022139	0.094594
C103	C	1.130832	-0.576741	-0.405429
C104	C	1.630832	-0.076741	0.094571
C105	C	1.181299	-0.607370	-0.461368
C106	C	1.681299	-0.107370	0.038632
O107	O	1.088013	-0.660296	-0.357924
O108	O	1.588013	-0.160296	0.142076
O109	O	1.274666	-0.672655	-0.564870
O110	O	1.774666	-0.172655	-0.064870
C111	C	1.398230	-0.311484	-0.472389
C112	C	1.898230	0.188516	0.027611
C113	C	1.490658	-0.314584	-0.477077
C114	C	1.990658	0.185416	0.022923
C115	C	1.170386	-0.310725	-0.678280
C116	C	1.670386	0.189275	-0.178280
C117	C	1.165720	-0.313502	-0.770707
C118	C	1.665720	0.186498	-0.270707
C119	C	1.181471	-0.167844	-0.461479
C120	C	1.681471	0.332156	0.038521
C121	C	1.181529	-0.109733	-0.461517
C122	C	1.681529	0.390267	0.038483
C123	C	1.157171	-0.318559	-0.939930
C124	C	1.657171	0.181441	-0.439930
C125	C	1.205662	-0.289709	-0.983706
C126	C	1.705662	0.210291	-0.483706
C127	C	1.200906	-0.292523	-1.077867
C128	C	1.700906	0.207477	-0.577867
C129	C	1.161927	-0.315746	-0.845760
C130	C	1.661927	0.184254	-0.345760
C131	C	1.192289	-0.297683	-0.245342
C132	C	1.692289	0.202317	0.254658
C133	C	1.197116	-0.294765	-0.152924
C134	C	1.697116	0.205235	0.347076
H135	H	0.693153	-0.349939	-0.530570
H136	H	1.193153	0.150061	-0.030570
N137	N	1.283286	-0.614674	-0.574416
N138	N	1.783286	-0.114674	-0.074416
N139	N	1.328314	-0.593256	-0.624323
N140	N	1.828314	-0.093256	-0.124323
H141	H	1.364727	-0.615342	-0.664680
H142	H	1.864727	-0.115342	-0.164680
H143	H	1.272789	-0.509278	-0.562771
H144	H	1.772789	-0.009278	-0.062771
N145	N	0.661902	-0.250967	-0.380804
N146	N	1.161902	0.249033	0.119196
N147	N	0.675378	-0.252376	-0.304538
N148	N	1.175378	0.247624	0.195462
H149	H	0.645903	-0.226051	-0.264680
H150	H	1.145903	0.273949	0.235320
N151	N	1.262217	-0.256074	-0.942000
N152	N	1.762217	0.243926	-0.442000
N153	N	1.266050	-0.253807	-0.864458
N154	N	1.766050	0.246193	-0.364458
H155	H	1.305991	-0.230053	-0.834999
H156	H	1.805991	0.269947	-0.334999
N157	N	1.100616	-0.352189	-0.981636
N158	N	1.600616	0.147811	-0.481636
N159	N	1.096789	-0.354453	-1.059178
N160	N	1.596789	0.145547	-0.559178
H161	H	1.056849	-0.378205	-1.088642
H162	H	1.556849	0.121795	-0.588642
N163	N	1.333805	-0.758832	-0.630371
N164	N	1.833805	-0.258832	-0.130371
N165	N	1.378851	-0.786196	-0.680297
N166	N	1.878851	-0.286196	-0.180297
H167	H	1.415247	-0.768916	-0.720642
H168	H	1.915247	-0.268916	-0.220642
H169	H	1.089763	-0.596258	-0.359897
H170	H	1.589763	-0.096258	0.140103
H171	H	1.323388	-0.862841	-0.618819
H172	H	1.823388	-0.362841	-0.118819
H173	H	1.273059	-1.110705	-0.562968
H174	H	1.773059	-0.610705	-0.062968
H175	H	1.273019	-1.011638	-0.562943
H176	H	1.773019	-0.511638	-0.062943
N177	N	1.079553	-1.103570	-0.348459
N178	N	1.579553	-0.603570	0.151541
N179	N	1.034509	-1.076207	-0.298529
N180	N	1.534509	-0.576207	0.201471
H181	H	0.998121	-1.093489	-0.258180
H182	H	1.498121	-0.593489	0.241820
H183	H	1.039403	-0.844087	-0.304082
H184	H	1.539403	-0.344087	0.195918
N185	N	1.079479	-0.993214	-0.348442
N186	N	1.579479	-0.493214	0.151558
N187	N	1.034455	-1.014631	-0.298530
N188	N	1.534455	-0.514631	0.201470
H189	H	0.998039	-0.992543	-0.258177
H190	H	1.498039	-0.492543	0.241823
N191	N	1.028890	-0.738692	-0.292473
N192	N	1.528890	-0.238692	0.207527
N193	N	0.983857	-0.760106	-0.242565
N194	N	1.483857	-0.260106	0.257435
H195	H	0.947438	-0.738015	-0.202218
H196	H	1.447438	-0.238015	0.297782
N197	N	1.079276	-0.490836	-0.348279
N198	N	1.579276	0.009164	0.151721
N199	N	1.079270	-0.442083	-0.348276
N200	N	1.579270	0.057917	0.151724
H201	H	1.042876	-0.419974	-0.307932
H202	H	1.542876	0.080026	0.192068
