data_functionalizedCrystal
_audit_creation_method	'MofGen! by Chris Wilmer'
_symmetry_space_group_name_H-M	'P1'
_symmetry_Int_Tables_number	1
_symmetry_cell_setting	triclinic
loop_
_symmetry_equiv_pos_as_xyz
  x,y,z
_cell_length_a	17.699077
_cell_length_b	15.995350
_cell_length_c	16.176319
_cell_angle_alpha	89.995430
_cell_angle_beta	89.993140
_cell_angle_gamma	83.386476
loop_
_atom_site_label
_atom_site_type_symbol
_atom_site_fract_x
_atom_site_fract_y
_atom_site_fract_z
O1	O	1.004258	0.105862	-0.068731
O2	O	1.504258	0.605862	0.431269
O3	O	0.783902	0.119643	-0.068735
O4	O	1.283902	0.619643	0.431265
O5	O	0.900103	-0.009148	-0.068732
O6	O	1.400103	0.490852	0.431268
O7	O	0.888056	0.234652	-0.068734
O8	O	1.388056	0.734652	0.431266
O9	O	0.900087	-0.009156	0.068761
O10	O	1.400087	0.490844	0.568761
O11	O	0.783886	0.119634	0.068758
O12	O	1.283886	0.619634	0.568758
O13	O	1.004242	0.105853	0.068762
O14	O	1.504242	0.605853	0.568762
Cu15	Cu	0.894062	0.112743	0.081314
Cu16	Cu	1.394062	0.612743	0.581314
Cu17	Cu	0.894081	0.112753	-0.081287
Cu18	Cu	1.394081	0.612753	0.418713
O19	O	0.888040	0.234644	0.068759
O20	O	1.388040	0.734644	0.568759
C21	C	0.755696	0.119146	0.000011
C22	C	1.255696	0.619146	0.500011
C23	C	0.671675	0.117667	0.000010
C24	C	1.171675	0.617667	0.500010
C25	C	0.632198	0.116965	0.074958
C26	C	1.132198	0.616965	0.574958
C27	C	0.553253	0.115562	0.074959
C28	C	1.053253	0.615562	0.574959
C29	C	0.513786	0.114867	0.000010
C30	C	1.013786	0.614867	0.500010
C31	C	0.553269	0.115566	-0.074944
C32	C	1.053269	0.615566	0.425056
C33	C	0.632213	0.116963	-0.074944
C34	C	1.132213	0.616963	0.425056
C35	C	0.234896	0.109931	-0.074945
C36	C	0.734896	0.609931	0.425055
C37	C	0.155946	0.108537	-0.074939
C38	C	0.655946	0.608537	0.425061
C39	C	0.155936	0.108531	0.074957
C40	C	0.655936	0.608531	0.574957
C41	C	0.234880	0.109928	0.074957
C42	C	0.734880	0.609928	0.574957
C43	C	0.274357	0.110622	0.000004
C44	C	0.774357	0.610622	0.500004
C45	C	0.359958	0.112142	0.000004
C46	C	0.859958	0.612142	0.500004
C47	C	0.428185	0.113353	0.000010
C48	C	0.928185	0.613353	0.500010
C49	C	0.899597	-0.040346	0.000013
C50	C	1.399597	0.459654	0.500013
C51	C	0.898104	-0.133293	0.000008
C52	C	1.398104	0.366707	0.500008
C53	C	0.892742	-0.471030	0.000011
C54	C	1.392742	0.028970	0.500011
C55	C	0.809985	-0.423425	-0.000299
C56	C	1.309985	0.076575	0.499701
C57	C	0.811478	-0.326738	0.000011
C58	C	1.311478	0.173262	0.500011
C59	C	0.895401	-0.303474	0.000009
C60	C	1.395401	0.196526	0.500009
C61	C	0.936211	-0.344641	0.078523
C62	C	1.436211	0.155359	0.578523
C63	C	0.934132	-0.441272	0.078589
C64	C	1.434132	0.058728	0.578589
C65	C	0.935860	-0.441624	-0.077766
C66	C	1.435860	0.058376	0.422234
C67	C	0.935840	-0.344679	-0.078804
C68	C	1.435840	0.155321	0.421196
C69	C	0.896909	-0.208780	0.000011
C70	C	1.396909	0.291220	0.500011
C71	C	0.891237	-0.565724	0.000014
C72	C	1.391237	-0.065724	0.500014
C73	C	1.032448	0.106350	0.000014
C74	C	1.532448	0.606350	0.500014
C75	C	1.116468	0.107829	0.000010
C76	C	1.616468	0.607829	0.500010
C77	C	0.888546	0.265842	0.000012
C78	C	1.388546	0.765842	0.500012
C79	C	0.890039	0.358789	0.000011
C80	C	1.390039	0.858789	0.500011
N81	N	0.894054	0.112736	0.195679
N82	N	1.394054	0.612736	0.695679
N83	N	0.894095	0.112754	-0.195653
N84	N	1.394095	0.612754	0.304347
C85	C	0.945524	0.055731	0.238945
C86	C	1.445524	0.555731	0.738945
C87	C	0.945528	0.055730	0.325492
C88	C	1.445528	0.555730	0.825492
C89	C	0.894065	0.112739	0.368772
C90	C	1.394065	0.612739	0.868772
C91	C	0.842590	0.169747	0.325501
C92	C	1.342590	0.669747	0.825501
C93	C	0.842583	0.169743	0.238955
C94	C	1.342583	0.669743	0.738955
C95	C	0.842616	0.169762	0.674529
C96	C	1.342616	0.669762	1.174529
C97	C	0.842628	0.169763	0.761080
C98	C	1.342628	0.669763	1.261080
C99	C	0.945561	0.055749	0.761066
C100	C	1.445561	0.555749	1.261066
C101	C	0.945554	0.055745	0.674520
C102	C	1.445554	0.555745	1.174520
C103	C	0.894076	0.112750	0.631256
C104	C	1.394076	0.612750	1.131256
C105	C	0.894072	0.112749	0.537412
C106	C	1.394072	0.612749	1.037412
C107	C	0.894073	0.112744	0.462615
C108	C	1.394073	0.612744	0.962615
H109	H	0.664325	0.117539	0.135990
H110	H	1.164325	0.617539	0.635990
H111	H	0.664354	0.117535	-0.135975
H112	H	1.164354	0.617535	0.364025
H113	H	0.987434	0.009311	0.203712
H114	H	1.487434	0.509311	0.703712
N115	N	0.998105	-0.002509	0.369673
N116	N	1.498105	0.497491	0.869673
N117	N	1.044052	-0.053403	0.331021
N118	N	1.544052	0.446597	0.831021
H119	H	1.081186	-0.094538	0.362223
H120	H	1.581186	0.405462	0.862223
H121	H	0.800670	0.216161	0.203729
H122	H	1.300670	0.716161	0.703729
N123	N	0.771231	-0.291002	-0.070595
N124	N	1.271231	0.208998	0.429405
N125	N	0.741839	-0.337464	-0.120445
N126	N	1.241839	0.162536	0.379555
H127	H	0.713408	-0.312229	-0.170312
H128	H	1.213408	0.187771	0.329688
H129	H	0.521115	0.114977	0.135989
H130	H	1.021115	0.614977	0.635989
H131	H	0.267010	0.110498	0.135988
H132	H	0.767010	0.610498	0.635988
N133	N	0.998137	-0.002482	0.630324
N134	N	1.498137	0.497518	1.130324
N135	N	1.044092	-0.053374	0.668965
N136	N	1.544092	0.446626	1.168965
H137	H	1.081232	-0.094498	0.637754
H138	H	1.581232	0.405502	1.137754
N139	N	0.512958	0.114837	-0.151502
N140	N	1.012958	0.614837	0.348498
N141	N	0.475890	0.055059	-0.168222
N142	N	0.975890	0.555059	0.331778
H143	H	0.447421	0.054544	-0.222294
H144	H	0.947421	0.554544	0.277706
H145	H	0.987474	0.009330	0.796300
H146	H	1.487474	0.509330	1.296300
H147	H	0.800684	0.216162	0.360744
H148	H	1.300684	0.716162	0.860744
H149	H	0.267029	0.110494	-0.135977
H150	H	0.767029	0.610494	0.364023
H151	H	0.776915	-0.441885	-0.056603
H152	H	1.276915	0.058115	0.443397
N153	N	0.768671	-0.447931	0.069940
N154	N	1.268671	0.052069	0.569940
N155	N	0.799911	-0.500303	0.120224
N156	N	1.299911	-0.000303	0.620224
H157	H	0.770735	-0.517612	0.169832
H158	H	1.270735	-0.017612	0.669832
N159	N	1.013559	-0.327092	0.082209
N160	N	1.513559	0.172908	0.582209
N161	N	1.066319	-0.386197	0.081957
N162	N	1.566319	0.113803	0.581957
H163	H	1.120947	-0.373802	0.084562
H164	H	1.620947	0.126198	0.584562
H165	H	0.123785	0.107962	0.135988
H166	H	0.623785	0.607962	0.635988
H167	H	0.779170	-0.298810	0.056388
H168	H	1.279170	0.201190	0.556388
N169	N	0.790052	0.228006	0.805279
N170	N	1.290052	0.728006	1.305279
N171	N	0.744094	0.278898	0.766642
N172	N	1.244094	0.778898	1.266642
H173	H	0.706965	0.320030	0.797857
H174	H	1.206965	0.820030	1.297857
N175	N	0.896783	-0.464151	0.152219
N176	N	1.396783	0.035849	0.652219
N177	N	0.872429	-0.408779	0.203199
N178	N	1.372429	0.091221	0.703199
H179	H	0.846049	-0.424932	0.255203
H180	H	1.346049	0.075068	0.755203
N181	N	0.790027	0.227991	0.630356
N182	N	1.290027	0.727991	1.130356
N183	N	0.744084	0.278886	0.669012
N184	N	1.244084	0.778886	1.169012
H185	H	0.706939	0.320013	0.637813
H186	H	1.206939	0.820013	1.137813
H187	H	0.994890	-0.473646	0.082150
H188	H	1.494890	0.026354	0.582150
N189	N	0.115645	0.107810	-0.151510
N190	N	0.615645	0.607810	0.348490
N191	N	0.131446	0.048964	-0.201686
N192	N	0.631446	0.548964	0.298314
H193	H	0.102983	0.048450	-0.255762
H194	H	0.602983	0.548450	0.244238
N195	N	0.900632	-0.308965	0.151818
N196	N	1.400632	0.191035	0.651818
N197	N	0.845230	-0.253233	0.146433
N198	N	1.345230	0.246767	0.646433
H199	H	0.820098	-0.228037	0.198195
H200	H	1.320098	0.271963	0.698195
H201	H	0.906003	-0.317365	-0.136887
H202	H	1.406003	0.182635	0.363113
N203	N	0.901941	-0.467328	-0.152424
N204	N	1.401941	0.032672	0.347576
N205	N	0.898796	-0.543727	-0.166280
N206	N	1.398796	-0.043727	0.333720
H207	H	0.874835	-0.561882	-0.219004
H208	H	1.374835	-0.061882	0.280996
N209	N	1.012610	-0.325546	-0.084757
N210	N	1.512610	0.174454	0.415243
N211	N	1.038888	-0.281037	-0.030765
N212	N	1.538888	0.218963	0.469235
H213	H	1.093109	-0.267520	-0.034965
H214	H	1.593109	0.232480	0.465035
N215	N	1.012406	-0.481618	-0.078415
N216	N	1.512406	0.018382	0.421585
N217	N	1.035193	-0.531571	-0.021906
N218	N	1.535193	-0.031571	0.478094
H219	H	1.089252	-0.559817	-0.022355
H220	H	1.589252	-0.059817	0.477645
