data_functionalizedCrystal
_audit_creation_method	'MofGen! by Chris Wilmer'
_symmetry_space_group_name_H-M	'P1'
_symmetry_Int_Tables_number	1
_symmetry_cell_setting	triclinic
loop_
_symmetry_equiv_pos_as_xyz
  x,y,z
_cell_length_a	11.026607
_cell_length_b	14.971486
_cell_length_c	9.482900
_cell_angle_alpha	99.345500
_cell_angle_beta	101.363848
_cell_angle_gamma	83.899927
loop_
_atom_site_label
_atom_site_type_symbol
_atom_site_fract_x
_atom_site_fract_y
_atom_site_fract_z
O1	O	1.629607	-0.363678	0.120907
O2	O	2.129607	0.136322	0.620907
O3	O	1.276239	-0.321018	0.120907
O4	O	1.776239	0.178982	0.620907
O5	O	1.462392	-0.213667	0.120897
O6	O	1.962392	0.286333	0.620897
O7	O	1.443453	-0.471030	0.120918
O8	O	1.943453	0.028970	0.620918
O9	O	1.424580	-0.235584	-0.120894
O10	O	1.924580	0.264416	0.379106
O11	O	1.238427	-0.342935	-0.120883
O12	O	1.738427	0.157065	0.379117
O13	O	1.591795	-0.385596	-0.120883
O14	O	2.091795	0.114404	0.379117
Cu15	Cu	1.411658	-0.366267	-0.142961
Cu16	Cu	1.911658	0.133733	0.357039
Cu17	Cu	1.456375	-0.340347	0.142985
Cu18	Cu	1.956375	0.159653	0.642985
O19	O	1.405641	-0.492947	-0.120873
O20	O	1.905641	0.007053	0.379127
C21	C	1.212110	-0.324107	0.000012
C22	C	1.712110	0.175893	0.500012
C23	C	1.077362	-0.300646	0.000012
C24	C	1.577362	0.199354	0.500012
C25	C	1.003652	-0.365425	0.000018
C26	C	1.503652	0.134575	0.500018
C27	C	0.864382	-0.341178	0.000018
C28	C	1.364382	0.158822	0.500018
C29	C	1.442639	-0.191165	0.000002
C30	C	1.942639	0.308835	0.500002
C31	C	1.440101	-0.091461	0.000003
C32	C	1.940101	0.408539	0.500003
C33	C	1.655923	-0.382507	0.000015
C34	C	2.155923	0.117493	0.500015
C35	C	1.790673	-0.405967	0.000025
C36	C	2.290673	0.094033	0.500025
C37	C	1.425395	-0.515449	0.000025
C38	C	1.925395	-0.015449	0.500025
C39	C	1.427935	-0.615152	0.000033
C40	C	1.927935	-0.115152	0.500033
N41	N	1.380216	-0.384498	-0.344079
N42	N	1.880216	0.115502	0.155921
C43	C	1.549462	-0.051758	0.000002
C44	C	2.049462	0.448242	0.500002
C45	C	1.547071	0.041926	0.000017
C46	C	2.047071	0.541926	0.500017
C47	C	1.435317	0.095905	0.000022
C48	C	1.935317	0.595905	0.500022
C49	C	1.325949	0.056197	0.000028
C50	C	1.825949	0.556197	0.500028
C51	C	1.328342	-0.037485	0.000024
C52	C	1.828342	0.462515	0.500024
C53	C	1.320968	0.251458	0.000033
C54	C	1.820968	0.751458	0.500033
C55	C	1.318574	0.345146	0.000035
C56	C	1.818574	0.845146	0.500035
C57	C	1.539697	0.330869	0.000026
C58	C	2.039697	0.830869	0.500026
C59	C	1.542091	0.237187	0.000022
C60	C	2.042091	0.737187	0.500022
C61	C	1.432721	0.197485	0.000025
C62	C	1.932721	0.697485	0.500025
C63	C	1.447093	-0.345718	-0.416282
C64	C	1.947093	0.154282	0.083718
C65	C	1.420941	-0.360896	-0.583698
C66	C	1.920941	0.139104	-0.083698
N67	N	1.487827	-0.322110	0.344103
N68	N	1.987827	0.177890	0.844103
H69	H	0.824395	-0.267760	0.000050
H70	H	1.324395	0.232240	0.500050
H71	H	1.043649	-0.438836	0.000016
H72	H	1.543649	0.061164	0.500016
H73	H	1.303594	-0.428932	-0.406204
H74	H	1.803594	0.071068	0.093796
O75	O	1.662624	0.178963	0.000034
O76	O	2.162624	0.678963	0.500034
H77	H	1.738277	0.222308	0.000054
H78	H	2.238277	0.722308	0.500054
O79	O	1.669999	-0.109977	0.000010
O80	O	2.169999	0.390023	0.500010
H81	H	1.745645	-0.066624	0.000031
H82	H	2.245645	0.433376	0.500031
O83	O	1.319469	-0.419783	-0.665977
O84	O	1.819469	0.080217	-0.165977
H85	H	1.274461	-0.445885	-0.587620
H86	H	1.774461	0.054115	-0.087620
H87	H	1.628751	0.363199	0.000028
H88	H	2.128751	0.863199	0.500028
O89	O	0.843629	-0.503217	0.000037
O90	O	1.343629	-0.003217	0.500037
H91	H	0.944707	-0.507002	0.000047
H92	H	1.444707	-0.007002	0.500047
H93	H	1.231908	0.219137	0.000039
H94	H	1.731908	0.719137	0.500039
O95	O	1.024387	-0.203404	0.000002
O96	O	1.524387	0.296596	0.500002
H97	H	1.040084	-0.178573	-0.098559
H98	H	1.540084	0.321427	0.401441
O99	O	1.665024	0.084753	0.000018
O100	O	2.165024	0.584753	0.500018
H101	H	1.653801	0.118175	-0.098521
H102	H	2.153801	0.618175	0.401479
H103	H	1.234958	0.100155	0.000041
H104	H	1.734958	0.600155	0.500041
O105	O	1.198047	0.403374	0.000065
O106	O	1.698047	0.903374	0.500065
H107	H	1.122401	0.360033	0.000094
H108	H	1.622401	0.860033	0.500094
O109	O	1.210388	-0.080316	0.000009
O110	O	1.710388	0.419684	0.500009
H111	H	1.132272	-0.027046	-0.000003
H112	H	1.632272	0.472954	0.499997
H113	H	1.523705	-0.301277	-0.354158
H114	H	2.023705	0.198723	0.145842
H115	H	1.564445	-0.277666	-0.593777
H116	H	2.064445	0.222334	-0.093777
