data_functionalizedCrystal
_audit_creation_method	'MofGen! by Chris Wilmer'
_symmetry_space_group_name_H-M	'P1'
_symmetry_Int_Tables_number	1
_symmetry_cell_setting	triclinic
loop_
_symmetry_equiv_pos_as_xyz
  x,y,z
_cell_length_a	6.817900
_cell_length_b	10.992723
_cell_length_c	16.256277
_cell_angle_alpha	93.802786
_cell_angle_beta	103.500353
_cell_angle_gamma	108.770285
loop_
_atom_site_label
_atom_site_type_symbol
_atom_site_fract_x
_atom_site_fract_y
_atom_site_fract_z
V1	V	-4.053937	-0.178801	-0.263866
O2	O	-4.013177	0.007524	-0.258851
O3	O	-4.031963	-0.353505	-0.262054
O4	O	-4.005210	-0.176519	-0.378951
O5	O	-4.040115	-0.170687	-0.141145
V6	V	-4.534183	-0.156459	-0.249189
O7	O	-4.322383	-0.227810	-0.296063
O8	O	-4.715934	-0.107450	-0.216992
O9	O	-4.332951	0.018245	-0.251001
O10	O	-4.692340	-0.342783	-0.254204
O11	O	-4.665402	-0.164573	-0.371910
O12	O	-4.359704	-0.158740	-0.134104
C13	C	-3.883403	-0.396079	-0.257890
C14	C	-3.946721	-0.538904	-0.257175
C15	C	-4.257792	-0.749860	-0.260938
C16	C	-4.192270	-0.601385	-0.262008
C17	C	-3.905868	-0.608425	-0.335562
C18	C	-3.973179	-0.757096	-0.334916
C19	C	-3.878803	-0.718185	-0.173124
C20	C	-3.816502	-0.569463	-0.172894
C21	C	-3.849275	-0.170315	-0.407002
C22	C	-3.890894	-0.169606	-0.501084
C23	C	-4.182588	-0.174563	-0.732904
C24	C	-4.059346	-0.064298	-0.775999
C25	C	-3.966988	-0.168270	-0.673330
C26	C	-4.164328	-0.277193	-0.797864
C27	C	-4.040509	-0.166986	-0.839714
C28	C	-3.843154	-0.057927	-0.715177
C29	C	-3.948208	-0.270918	-0.737048
C30	C	-3.824802	-0.160622	-0.780112
C31	C	-3.924640	-0.169009	-0.577481
C32	C	-4.082837	-0.166238	-0.935559
C33	C	-4.144854	0.060812	-0.255163
C34	C	-4.060774	0.203637	-0.255883
C35	C	-4.178981	-0.164949	-0.106049
C36	C	-4.116600	-0.165652	-0.011966
H37	H	-4.392955	-0.804232	-0.320644
H38	H	-3.673771	-0.154688	-0.800825
H39	H	-4.295687	-0.582977	-0.322491
Br40	Br	-3.868372	-0.491436	-0.076153
Br41	Br	-3.515335	-0.496024	-0.158841
H42	H	-4.300531	-0.369845	-0.833747
H43	H	-4.229985	-0.554014	-0.205981
Br44	Br	-4.375048	-0.791294	-0.166943
Br45	Br	-3.611274	-0.541033	-0.334636
H46	H	-3.828824	-0.788127	-0.334699
Br47	Br	-4.185165	-0.843886	-0.438791
H48	H	-3.731059	-0.747361	-0.168643
Br49	Br	-4.433842	-0.184182	-0.698084
H50	H	-3.999293	-0.588485	-0.397930
Br51	Br	-3.967497	-0.760215	-0.072963
Br52	Br	-4.138258	0.081329	-0.804981
H53	H	-3.900911	-0.358291	-0.719638
Br54	Br	-3.616289	0.096668	-0.655536
