data_functionalizedCrystal
_audit_creation_method	'MofGen! by Chris Wilmer'
_symmetry_space_group_name_H-M	'P1'
_symmetry_Int_Tables_number	1
_symmetry_cell_setting	triclinic
loop_
_symmetry_equiv_pos_as_xyz
  x,y,z
_cell_length_a	19.188905
_cell_length_b	14.044220
_cell_length_c	17.666332
_cell_angle_alpha	90.010611
_cell_angle_beta	89.998485
_cell_angle_gamma	88.161716
loop_
_atom_site_label
_atom_site_type_symbol
_atom_site_fract_x
_atom_site_fract_y
_atom_site_fract_z
O1	O	0.933770	0.118202	0.063076
O2	O	0.731485	0.134153	0.063051
O3	O	0.829591	-0.011794	0.063056
O4	O	0.835664	0.264149	0.063071
O5	O	0.829609	-0.011814	-0.062841
O6	O	0.731503	0.134133	-0.062846
O7	O	0.933787	0.118182	-0.062821
Cu8	Cu	0.832646	0.126156	-0.074329
Cu9	Cu	0.832626	0.126179	0.074559
O10	O	0.835681	0.264130	-0.062825
C11	C	0.705450	0.133630	0.000099
C12	C	0.627845	0.132092	0.000089
C13	C	0.826942	-0.047107	0.000107
C14	C	0.819013	-0.152299	0.000105
C15	C	0.804517	-0.344899	0.000114
C16	C	0.860752	-0.402772	0.000123
C17	C	0.852686	-0.509941	0.000128
C18	C	0.812582	-0.237720	0.000109
C19	C	0.591396	0.131363	0.068717
C20	C	0.518478	0.129907	0.068727
C21	C	0.482013	0.129160	0.000104
C22	C	0.518471	0.129894	-0.068534
C23	C	0.591387	0.131360	-0.068541
N24	N	0.369371	0.072924	-0.050969
N25	N	0.300104	0.071529	-0.050957
C26	C	0.262322	0.124745	0.000122
N27	N	0.296423	0.179397	0.051200
N28	N	0.365696	0.180787	0.051191
C29	C	0.402948	0.127571	0.000104
C30	C	0.146807	0.122439	0.068765
C31	C	0.073888	0.120989	0.068771
C32	C	0.073882	0.120966	-0.068491
C33	C	0.146799	0.122426	-0.068495
C34	C	0.183258	0.123158	0.000135
C35	C	0.959823	0.118705	0.000133
C36	C	1.037428	0.120243	0.000148
C37	C	0.838331	0.299442	0.000125
C38	C	0.846259	0.404634	0.000132
N39	N	0.832611	0.126188	0.179278
N40	N	0.832666	0.126139	-0.179048
C41	C	0.878447	0.183626	0.218901
C42	C	0.878452	0.183627	0.298149
C43	C	0.832628	0.126172	0.337770
C44	C	0.786783	0.068730	0.298138
C45	C	0.786775	0.068738	0.218892
N46	N	0.825715	0.043126	0.462178
N47	N	0.825727	0.043121	0.537458
C48	C	0.832648	0.126147	0.576534
N49	N	0.839571	0.209178	0.537486
N50	N	0.839563	0.209182	0.462199
C51	C	0.832631	0.126158	0.423700
C52	C	0.878492	0.183591	0.702087
C53	C	0.878491	0.183594	0.781336
C54	C	0.786826	0.068688	0.781323
C55	C	0.786823	0.068694	0.702076
C56	C	0.832659	0.126144	0.662462
H57	H	0.914954	-0.371832	0.000181
H58	H	0.488796	0.129315	0.124614
F59	F	0.927246	0.244752	0.340327
H60	H	0.750320	-0.375837	0.000109
H61	H	0.176477	0.123013	-0.124380
H62	H	0.749512	0.021913	0.813582
H63	H	0.621076	0.131959	0.124601
F64	F	0.479661	0.129104	-0.141567
H65	H	0.621063	0.131954	-0.124428
F66	F	0.738012	0.007587	0.340307
H67	H	0.915769	0.230408	0.186653
H68	H	0.176492	0.123045	0.124647
F69	F	0.738040	0.007556	0.659904
F70	F	0.035077	0.120179	-0.141525
F71	F	0.035096	0.120221	0.141819
F72	F	0.737988	0.007602	0.176721
F73	F	0.927272	0.244736	0.659924
F74	F	0.927267	0.244749	0.823505
