data_functionalizedCrystal
_audit_creation_method	'MofGen! by Chris Wilmer'
_symmetry_space_group_name_H-M	'P1'
_symmetry_Int_Tables_number	1
_symmetry_cell_setting	triclinic
loop_
_symmetry_equiv_pos_as_xyz
  x,y,z
_cell_length_a	10.540539
_cell_length_b	7.540329
_cell_length_c	9.065218
_cell_angle_alpha	90.003038
_cell_angle_beta	95.229312
_cell_angle_gamma	89.998539
loop_
_atom_site_label
_atom_site_type_symbol
_atom_site_fract_x
_atom_site_fract_y
_atom_site_fract_z
O1	O	0.186143	-0.147478	-1.959469
O2	O	0.686143	0.352522	-1.459469
O3	O	0.201412	-0.147479	-1.530108
O4	O	0.701412	0.352521	-1.030108
O5	O	0.009107	-0.147476	-1.754584
O6	O	0.509107	0.352524	-1.254584
O7	O	0.378448	-0.147481	-1.734993
O8	O	0.878448	0.352519	-1.234993
O9	O	0.009105	0.147489	-1.754570
O10	O	0.509105	0.647489	-1.254570
O11	O	0.201409	0.147486	-1.530094
O12	O	0.701409	0.647486	-1.030094
O13	O	0.186141	0.147487	-1.959455
O14	O	0.686141	0.647487	-1.459455
Cu15	Cu	0.193775	0.174419	-1.744773
Cu16	Cu	0.693775	0.674419	-1.244773
Cu17	Cu	0.193778	-0.174411	-1.744789
Cu18	Cu	0.693778	0.325589	-1.244789
O19	O	0.378445	0.147484	-1.734979
O20	O	0.878445	0.647484	-1.234979
C21	C	-0.038202	0.000003	-1.753108
C22	C	0.461798	0.500003	-1.253108
C23	C	-0.179167	-0.000007	-1.748712
C24	C	0.320833	0.499993	-1.248712
C25	C	0.199943	0.000003	-1.475122
C26	C	0.699943	0.500003	-0.975122
C27	C	0.195556	0.000002	-1.311301
C28	C	0.695556	0.500002	-0.811301
N29	N	0.193772	0.419768	-1.744773
N30	N	0.693772	0.919768	-1.244773
C31	C	-0.363216	-0.000669	-1.580278
C32	C	0.136784	0.499331	-1.080278
C33	C	-0.216582	-0.000005	-1.584734
C34	C	0.283418	0.499995	-1.084734
C35	C	-0.240534	0.168433	-1.827618
C36	C	0.259466	0.668433	-1.327618
C37	C	-0.387099	0.168575	-1.822022
C38	C	0.112901	0.668575	-1.322022
C39	C	-0.387602	-0.166855	-1.825372
C40	C	0.112398	0.333145	-1.325372
C41	C	-0.240615	-0.169082	-1.826883
C42	C	0.259385	0.330918	-1.326883
C43	C	0.425755	0.000001	-1.736455
C44	C	0.925755	0.500001	-1.236455
C45	C	0.566719	-0.000001	-1.740851
C46	C	1.066719	0.499999	-1.240851
N47	N	0.193771	-0.419760	-1.744801
N48	N	0.693771	0.080240	-1.244801
C49	C	0.187610	0.000001	-2.014441
C50	C	0.687610	0.500001	-1.514441
C51	C	0.191997	-0.000009	-2.178262
C52	C	0.691997	0.499991	-1.678262
H53	H	-0.174207	-0.120750	-1.522646
H54	H	0.325793	0.379250	-1.022646
H55	H	-0.434632	0.176217	-1.939952
H56	H	0.065368	0.676217	-1.439952
Br57	Br	-0.169878	0.377361	-1.736248
Br58	Br	0.330122	0.877361	-1.236248
H59	H	-0.199969	-0.293689	-1.769148
H60	H	0.300031	0.206311	-1.269148
Br61	Br	-0.440498	-0.379644	-1.736913
Br62	Br	0.059502	0.120356	-1.236913
Br63	Br	-0.411275	-0.202001	-1.472314
Br64	Br	0.088725	0.297999	-0.972314
Br65	Br	-0.202542	0.178883	-2.028331
Br66	Br	0.297458	0.678883	-1.528331
Br67	Br	-0.199500	-0.186054	-2.026146
Br68	Br	0.300500	0.313946	-1.526146
H69	H	-0.175058	0.120940	-1.522200
H70	H	0.324942	0.620940	-1.022200
Br71	Br	-0.434469	0.378432	-1.724803
Br72	Br	0.065531	0.878432	-1.224803
H73	H	-0.434390	-0.167987	-1.943813
H74	H	0.065610	0.332013	-1.443813
H75	H	-0.393663	0.119445	-1.515761
H76	H	0.106337	0.619445	-1.015761
