data_functionalizedCrystal
_audit_creation_method	'MofGen! by Chris Wilmer'
_symmetry_space_group_name_H-M	'P1'
_symmetry_Int_Tables_number	1
_symmetry_cell_setting	triclinic
loop_
_symmetry_equiv_pos_as_xyz
  x,y,z
_cell_length_a	17.699104
_cell_length_b	16.109301
_cell_length_c	14.586319
_cell_angle_alpha	90.000787
_cell_angle_beta	89.995275
_cell_angle_gamma	96.623501
loop_
_atom_site_label
_atom_site_type_symbol
_atom_site_fract_x
_atom_site_fract_y
_atom_site_fract_z
O1	O	0.097284	-1.102971	-0.076184
O2	O	0.597284	-0.602971	0.423816
O3	O	0.109390	-0.860889	-0.076199
O4	O	0.609390	-0.360889	0.423801
O5	O	-0.006841	-0.988761	-0.076183
O6	O	0.493159	-0.488761	0.423817
O7	O	0.213515	-0.975100	-0.076200
O8	O	0.713515	-0.475100	0.423800
O9	O	-0.006843	-0.988752	0.076298
O10	O	0.493157	-0.488752	0.576298
O11	O	0.109389	-0.860881	0.076282
O12	O	0.609389	-0.360881	0.576282
O13	O	0.097282	-1.102962	0.076297
O14	O	0.597282	-0.602962	0.576297
Cu15	Cu	0.103335	-0.981921	0.090212
Cu16	Cu	0.603335	-0.481921	0.590212
Cu17	Cu	0.103337	-0.981931	-0.090114
Cu18	Cu	0.603337	-0.481931	0.409886
O19	O	0.213514	-0.975091	0.076280
O20	O	0.713514	-0.475091	0.576280
C21	C	0.108899	-0.829911	0.000039
C22	C	0.608899	-0.329911	0.500039
C23	C	0.107429	-0.737618	0.000034
C24	C	0.607429	-0.237618	0.500034
C25	C	-0.035040	-0.988264	0.000057
C26	C	0.464960	-0.488264	0.500057
C27	C	-0.119059	-0.986786	0.000058
C28	C	0.380941	-0.486786	0.500058
C29	C	0.097773	-1.133941	0.000056
C30	C	0.597773	-0.633941	0.500056
C31	C	0.099243	-1.226234	0.000055
C32	C	0.599243	-0.726234	0.500055
C33	C	-0.643835	-1.053513	0.000036
C34	C	-0.143835	-0.553513	0.500036
C35	C	-0.564889	-1.054896	0.000044
C36	C	-0.064889	-0.554896	0.500044
C37	C	-0.516379	-0.979831	0.000042
C38	C	-0.016379	-0.479831	0.500042
C39	C	-0.546818	-0.903377	0.000040
C40	C	-0.046818	-0.403377	0.500040
C41	C	-0.625762	-0.901995	0.000038
C42	C	-0.125762	-0.401995	0.500038
C43	C	-0.228444	-0.908950	0.000048
C44	C	0.271556	-0.408950	0.500048
C45	C	-0.149494	-0.910338	0.000047
C46	C	0.350506	-0.410338	0.500047
C47	C	-0.167571	-1.061851	0.000054
C48	C	0.332429	-0.561851	0.500054
C49	C	-0.246515	-1.060469	0.000052
C50	C	0.253485	-0.560469	0.500052
C51	C	-0.276947	-0.984016	0.000055
C52	C	0.223053	-0.484016	0.500055
C53	C	-0.362549	-0.982517	0.000048
C54	C	0.137451	-0.482517	0.500048
C55	C	-0.430778	-0.981329	0.000042
C56	C	0.069222	-0.481329	0.500042
C57	C	0.241712	-0.975588	0.000038
C58	C	0.741712	-0.475588	0.500038
C59	C	0.325731	-0.977065	0.000032
C60	C	0.825731	-0.477065	0.500032
N61	N	0.103333	-0.981919	0.217044
N62	N	0.603333	-0.481919	0.717044
C63	C	0.172980	-0.515238	0.000040
C64	C	0.672980	-0.015238	0.500040
C65	C	0.171592	-0.428520	0.000046
C66	C	0.671592	0.071480	0.500046
C67	C	0.033687	-0.448621	0.000053
C68	C	0.533687	0.051379	0.500053
C69	C	0.035076	-0.535337	0.000053
C70	C	0.535076	-0.035337	0.500053
C71	C	0.104724	-0.568643	0.000042
C72	C	0.604724	-0.068643	0.500042
C73	C	0.101948	-0.395209	0.000047
C74	C	0.601948	0.104791	0.500047
C75	C	0.100444	-0.301185	0.000054
C76	C	0.600444	0.198815	0.500054
C77	C	0.106229	-0.662673	0.000037
C78	C	0.606229	-0.162673	0.500037
N79	N	0.103333	-0.981939	-0.216946
N80	N	0.603333	-0.481939	0.283054
C81	C	0.051883	-1.038559	0.452057
C82	C	0.551883	-0.538559	0.952057
C83	C	0.051881	-1.038562	0.548038
C84	C	0.551881	-0.538562	1.048038
C85	C	0.154786	-0.925293	0.548034
C86	C	0.654786	-0.425293	1.048034
C87	C	0.154783	-0.925287	0.452054
C88	C	0.654783	-0.425287	0.952054
C89	C	0.103333	-0.981925	0.404068
C90	C	0.603333	-0.481925	0.904068
C91	C	0.103333	-0.981933	0.596029
C92	C	0.603333	-0.481933	1.096029
C93	C	0.103332	-0.981935	0.700096
C94	C	0.603332	-0.481935	1.200096
C95	C	0.103333	-0.981922	0.299995
C96	C	0.603333	-0.481922	0.799995
H97	H	-0.540114	-1.117147	0.000048
H98	H	-0.040114	-0.617147	0.500048
H99	H	0.196677	-0.879181	0.587113
H100	H	0.696677	-0.379181	1.087113
N101	N	-0.003605	-1.099654	0.599795
N102	N	0.496395	-0.599654	1.099795
H103	H	0.004200	-1.091065	0.667880
H104	H	0.504200	-0.591065	1.167880
H105	H	-0.057301	-1.090159	0.583025
H106	H	0.442699	-0.590159	1.083025
N107	N	0.210272	-0.864194	0.400286
N108	N	0.710272	-0.364194	0.900286
H109	H	0.242869	-0.828317	0.445247
H110	H	0.742869	-0.328317	0.945247
H111	H	0.243739	-0.895950	0.360452
H112	H	0.743739	-0.395950	0.860452
H113	H	-0.683327	-1.114640	0.000030
H114	H	-0.183327	-0.614640	0.500030
H115	H	-0.142784	-1.124103	0.000039
H116	H	0.357216	-0.624103	0.500039
N117	N	-0.298837	-1.141431	0.000053
N118	N	0.201163	-0.641431	0.500053
H119	H	-0.267577	-1.190072	0.000060
H120	H	0.232423	-0.690072	0.500060
H121	H	-0.331988	-1.144150	0.056580
H122	H	0.168012	-0.644150	0.556580
N123	N	-0.261250	-0.826487	0.000058
N124	N	0.238750	-0.326487	0.500058
H125	H	-0.243555	-0.793609	-0.056467
H126	H	0.256445	-0.293609	0.443533
H127	H	-0.318616	-0.837056	0.000100
H128	H	0.181384	-0.337056	0.500100
H129	H	-0.109998	-0.849207	0.000047
H130	H	0.390002	-0.349207	0.500047
H131	H	0.229692	-0.542353	0.000037
H132	H	0.729692	-0.042353	0.500037
H133	H	-0.507314	-0.842258	0.000043
H134	H	-0.007314	-0.342258	0.500043
H135	H	0.009988	-1.084676	0.412989
H136	H	0.509988	-0.584676	0.912989
N137	N	0.245211	-0.370918	0.000094
N138	N	0.745211	0.129082	0.500094
H139	H	0.289540	-0.405179	0.000104
H140	H	0.789540	0.094821	0.500104
H141	H	0.247668	-0.334477	-0.056415
H142	H	0.747668	0.165523	0.443585
H143	H	-0.023018	-0.421492	0.000067
H144	H	0.476982	0.078508	0.500067
H145	H	-0.650539	-0.839744	0.000043
H146	H	-0.150539	-0.339744	0.500043
H147	H	-0.020510	-0.578822	0.000058
H148	H	0.479490	-0.078822	0.500058
