data_functionalizedCrystal
_audit_creation_method	'MofGen! by Chris Wilmer'
_symmetry_space_group_name_H-M	'P1'
_symmetry_Int_Tables_number	1
_symmetry_cell_setting	triclinic
loop_
_symmetry_equiv_pos_as_xyz
  x,y,z
_cell_length_a	14.044220
_cell_length_b	14.044220
_cell_length_c	7.088929
_cell_angle_alpha	83.206932
_cell_angle_beta	96.777923
_cell_angle_gamma	93.188878
loop_
_atom_site_label
_atom_site_type_symbol
_atom_site_fract_x
_atom_site_fract_y
_atom_site_fract_z
O1	O	1.268208	0.239142	-0.158795
O2	O	0.991534	0.230839	-0.158843
O3	O	1.125719	0.096654	-0.158800
O4	O	1.134023	0.373327	-0.158837
O5	O	1.143648	0.078677	0.159180
O6	O	1.009463	0.212862	0.159138
O7	O	1.286137	0.221165	0.159186
Cu8	Cu	1.149437	0.215372	0.188196
Cu9	Cu	1.128234	0.236632	-0.187853
O10	O	1.151952	0.355351	0.159144
C11	C	0.964876	0.218215	0.000142
C12	C	0.858732	0.207372	0.000124
C13	C	1.131048	0.052044	0.000190
C14	C	1.120203	-0.054099	0.000191
C15	C	0.664397	0.187543	0.000164
C16	C	0.613267	0.264458	0.000162
C17	C	0.505132	0.253425	0.000185
C18	C	0.772542	0.198575	0.000142
C19	C	1.100375	-0.248435	0.000160
C20	C	1.177290	-0.299565	0.000167
C21	C	1.166258	-0.407701	0.000150
C22	C	1.111407	-0.140290	0.000177
C23	C	1.312794	0.233789	0.000198
C24	C	1.418937	0.244633	0.000203
C25	C	1.146623	0.399961	0.000149
C26	C	1.157466	0.506104	0.000136
N27	N	1.164357	0.200419	0.452689
N28	N	1.113321	0.251578	-0.452345
H29	H	0.626961	0.113415	0.000185
C30	C	1.042645	0.322193	0.439021
C31	C	0.950221	0.296144	0.487626
C32	C	0.885091	0.361180	0.387597
H33	H	1.043534	0.321222	0.305486
H34	H	1.060265	0.384954	0.471764
H35	H	0.932606	0.233399	0.454870
H36	H	0.949301	0.297120	0.621144
H37	H	0.902711	0.423942	0.420340
H38	H	0.885988	0.360205	0.254067
H39	H	0.822376	0.343521	0.420575
H40	H	1.217261	0.147409	0.534362
H41	H	1.026247	-0.285871	0.000142
C42	C	0.663346	0.363238	-0.000018
C43	C	0.762194	0.354695	-0.000108
C44	C	0.808358	0.445669	-0.000327
H45	H	0.651783	0.390778	0.110817
H46	H	0.639181	0.403203	-0.110972
H47	H	0.786351	0.314744	0.110834
H48	H	0.773785	0.327171	-0.110935
H49	H	0.784193	0.485634	-0.111281
H50	H	0.796788	0.473202	0.110509
H51	H	0.875429	0.439885	-0.000406
H52	H	1.251417	-0.262120	0.000052
