data_functionalizedCrystal
_audit_creation_method	'MofGen! by Chris Wilmer'
_symmetry_space_group_name_H-M	'P1'
_symmetry_Int_Tables_number	1
_symmetry_cell_setting	triclinic
loop_
_symmetry_equiv_pos_as_xyz
  x,y,z
_cell_length_a	17.699083
_cell_length_b	9.798715
_cell_length_c	17.699083
_cell_angle_alpha	90.004036
_cell_angle_beta	96.716985
_cell_angle_gamma	90.002777
loop_
_atom_site_label
_atom_site_type_symbol
_atom_site_fract_x
_atom_site_fract_y
_atom_site_fract_z
O1	O	-1.004075	0.113289	0.095710
O2	O	-0.504075	0.613289	0.595710
O3	O	-0.783697	0.113337	0.108162
O4	O	-0.283697	0.613337	0.608162
O5	O	-0.900112	0.113299	-0.008253
O6	O	-0.400112	0.613299	0.491747
O7	O	-0.887660	0.113326	0.212125
O8	O	-0.387660	0.613326	0.712125
O9	O	-0.900104	-0.113683	-0.008254
O10	O	-0.400104	0.386317	0.491746
O11	O	-0.783688	-0.113645	0.108162
O12	O	-0.283688	0.386355	0.608162
O13	O	-1.004066	-0.113693	0.095709
O14	O	-0.504066	0.386307	0.595709
Zn15	Zn	-0.893876	-0.149708	0.101936
Zn16	Zn	-0.393876	0.350292	0.601936
Zn17	Zn	-0.893887	0.149351	0.101936
Zn18	Zn	-0.393887	0.649351	0.601936
O19	O	-0.887651	-0.113656	0.212125
O20	O	-0.387651	0.386344	0.712125
C21	C	-0.755495	-0.000148	0.107716
C22	C	-0.255495	0.499852	0.607716
C23	C	-0.671477	-0.000130	0.106377
C24	C	-0.171477	0.499870	0.606377
C25	C	-0.622856	-0.000122	0.174710
C26	C	-0.122856	0.499878	0.674710
C27	C	-0.543913	-0.000139	0.173448
C28	C	-0.043913	0.499861	0.673448
C29	C	-0.513592	-0.000154	0.103852
C30	C	-0.013592	0.499846	0.603852
C31	C	-0.562219	-0.000167	0.035513
C32	C	-0.062219	0.499833	0.535513
C33	C	-0.641161	-0.000160	0.036776
C34	C	-0.141161	0.499840	0.536776
C35	C	-0.243856	-0.000197	0.030418
C36	C	0.256144	0.499803	0.530418
C37	C	-0.164908	-0.000200	0.029160
C38	C	0.335092	0.499800	0.529160
C39	C	-0.146608	-0.000176	0.167090
C40	C	0.353392	0.499824	0.667090
C41	C	-0.225550	-0.000169	0.168353
C42	C	0.274450	0.499831	0.668353
C43	C	-0.274170	-0.000188	0.100015
C44	C	0.225830	0.499812	0.600015
C45	C	-0.359769	-0.000173	0.101384
C46	C	0.140231	0.499827	0.601384
C47	C	-0.427995	-0.000160	0.102481
C48	C	0.072005	0.499840	0.602481
N49	N	-0.893874	-0.353807	0.101935
N50	N	-0.393874	0.146193	0.601935
C51	C	-0.942756	-0.421600	0.052842
C52	C	-0.442756	0.078400	0.552842
C53	C	-0.942768	-0.578763	0.052839
C54	C	-0.442768	-0.078763	0.552839
C55	C	-0.032268	-0.000202	0.096156
C56	C	0.467732	0.499798	0.596156
C57	C	-0.116286	-0.000201	0.097494
C58	C	0.383714	0.499799	0.597494
C59	C	-0.899662	-0.000192	-0.036451
C60	C	-0.399662	0.499808	0.463549
C61	C	-0.898323	-0.000192	-0.120469
C62	C	-0.398323	0.499808	0.379531
N63	N	-0.893896	0.353451	0.101930
N64	N	-0.393896	0.853451	0.601930
C65	C	-0.966656	-0.000209	-0.169090
C66	C	-0.466656	0.499791	0.330910
C67	C	-0.965394	-0.000197	-0.248033
C68	C	-0.465394	0.499803	0.251967
C69	C	-0.895798	-0.000177	-0.278354
C70	C	-0.395798	0.499823	0.221646
C71	C	-0.827459	-0.000156	-0.229727
C72	C	-0.327459	0.499844	0.270273
C73	C	-0.828722	-0.000159	-0.150785
C74	C	-0.328722	0.499841	0.349215
C75	C	-0.822364	-0.000144	-0.548090
C76	C	-0.322364	0.499856	-0.048090
C77	C	-0.821106	-0.000146	-0.627038
C78	C	-0.321106	0.499854	-0.127038
C79	C	-0.959036	-0.000182	-0.645338
C80	C	-0.459036	0.499818	-0.145338
C81	C	-0.960299	-0.000184	-0.566396
C82	C	-0.460299	0.499816	-0.066396
C83	C	-0.891961	-0.000156	-0.517776
C84	C	-0.391961	0.499844	-0.017776
C85	C	-0.893330	-0.000167	-0.432177
C86	C	-0.393330	0.499833	0.067823
C87	C	-0.894427	-0.000176	-0.363951
C88	C	-0.394427	0.499824	0.136049
C89	C	-0.888102	-0.000162	0.240322
C90	C	-0.388102	0.499838	0.740322
C91	C	-0.889440	-0.000153	0.324340
C92	C	-0.389440	0.499847	0.824340
H93	H	-0.283434	-0.000214	-0.025228
H94	H	0.216566	0.499786	0.474772
F95	F	-1.040732	-0.000243	-0.136828
F96	F	-0.540732	0.499757	0.363172
H97	H	-0.680748	-0.000166	-0.018868
H98	H	-0.180748	0.499834	0.481132
H99	H	-0.773078	-0.000145	-0.111198
H100	H	-0.273078	0.499855	0.388802
F101	F	-0.997312	-0.345389	-0.002227
F102	F	-0.497312	0.154611	0.497773
H103	H	-0.504328	-0.000130	0.229092
H104	H	-0.004328	0.499870	0.729092
F105	F	-0.997474	-0.654960	-0.002096
F106	F	-0.497474	-0.154960	0.497904
H107	H	-0.852046	-0.588259	0.143966
H108	H	-0.352046	-0.088259	0.643966
F109	F	-0.094857	-0.000160	0.239822
F110	F	0.405143	0.499840	0.739822
H111	H	-0.852030	-0.412118	0.143960
H112	H	-0.352030	0.087882	0.643960
H113	H	-0.770792	-0.000132	-0.254420
H114	H	-0.270792	0.499868	0.245580
F115	F	-0.529948	-0.000192	-0.038557
F116	F	-0.029948	0.499808	0.461443
H117	H	-1.021038	-0.000213	-0.287618
H118	H	-0.521038	0.499787	0.212382
F119	F	-0.132641	-0.000216	-0.044918
F120	F	0.367359	0.499784	0.455082
F121	F	-1.034373	-0.000204	-0.534131
F122	F	-0.534373	0.499796	-0.034131
H123	H	-1.014680	-0.000198	-0.684934
H124	H	-0.514680	0.499802	-0.184934
H125	H	-0.764429	-0.000132	-0.651721
H126	H	-0.264429	0.499868	-0.151721
H127	H	-0.766718	-0.000121	-0.508512
H128	H	-0.266718	0.499879	-0.008512
H129	H	-0.647537	-0.000108	0.231384
H130	H	-0.147537	0.499892	0.731384
H131	H	-0.250232	-0.000150	0.225025
H132	H	0.249768	0.499850	0.725025
