data_functionalizedCrystal
_audit_creation_method	'MofGen! by Chris Wilmer'
_symmetry_space_group_name_H-M	'P1'
_symmetry_Int_Tables_number	1
_symmetry_cell_setting	triclinic
loop_
_symmetry_equiv_pos_as_xyz
  x,y,z
_cell_length_a	12.759399
_cell_length_b	18.215407
_cell_length_c	18.215399
_cell_angle_alpha	89.983176
_cell_angle_beta	89.972629
_cell_angle_gamma	90.015564
loop_
_atom_site_label
_atom_site_type_symbol
_atom_site_fract_x
_atom_site_fract_y
_atom_site_fract_z
Zn1	Zn	-0.418240	1.125100	-0.416131
Zn2	Zn	-0.593944	1.125036	-0.293071
Zn3	Zn	-0.418281	1.002039	-0.293079
Zn4	Zn	-0.593878	1.002019	-0.416096
O5	O	-0.506086	1.063549	-0.354594
O6	O	-0.441557	1.228076	-0.399819
O7	O	-0.570687	1.108701	-0.190088
O8	O	-0.271255	1.018398	-0.309419
O9	O	-0.570647	1.228029	-0.309407
O10	O	-0.271224	1.108811	-0.399826
O11	O	-0.441628	1.018336	-0.190093
O12	O	-0.441565	0.899052	-0.309385
O13	O	-0.570534	1.018365	-0.519085
O14	O	-0.570575	0.899038	-0.399766
O15	O	-0.441493	1.108792	-0.519111
O16	O	-0.740957	1.108682	-0.309373
O17	O	-0.740908	1.018303	-0.399759
C18	C	-0.506068	0.872342	-0.354573
C19	C	-0.506086	0.790543	-0.354582
C20	C	-0.573367	0.602361	-0.401584
C21	C	-0.573370	0.525503	-0.401593
C22	C	-0.438824	0.525488	-0.307621
C23	C	-0.438816	0.602345	-0.307616
C24	C	-0.506094	0.640780	-0.354596
C25	C	-0.506105	0.487064	-0.354610
C26	C	-0.506108	0.403730	-0.354620
C27	C	-0.506089	0.724119	-0.354588
C28	C	-0.779053	1.063504	-0.354578
C29	C	-0.895830	1.063552	-0.354595
C30	C	-0.950682	1.110666	-0.307585
C31	C	-1.060406	1.110713	-0.307609
C32	C	-1.060416	1.016525	-0.401657
C33	C	-0.950694	1.016482	-0.401635
C34	C	-1.210282	1.197581	-0.281423
C35	C	-1.265138	1.244688	-0.234401
C36	C	-1.229591	1.256018	-0.162596
C37	C	-1.139190	1.220228	-0.137798
C38	C	-1.084340	1.173115	-0.184816
C39	C	-1.119885	1.161800	-0.256632
C40	C	-0.800817	0.929614	-0.427814
C41	C	-0.745964	0.882496	-0.474829
C42	C	-0.781509	0.871160	-0.546635
C43	C	-0.871913	0.906936	-0.571430
C44	C	-0.926765	0.954054	-0.524415
C45	C	-0.891213	0.965392	-0.452610
C46	C	-0.232053	1.063614	-0.354627
C47	C	-0.115276	1.063642	-0.354641
C48	C	-0.506002	1.063583	-0.546547
C49	C	-0.505966	1.063598	-0.628346
C50	C	-0.506105	1.255502	-0.354616
C51	C	-0.506113	1.337300	-0.354625
C52	C	-0.438720	1.016585	-0.816544
C53	C	-0.438699	1.016598	-0.893403
C54	C	-0.573087	1.110700	-0.893386
C55	C	-0.573113	1.110683	-0.816529
C56	C	-0.505923	1.063626	-0.778110
C57	C	-0.505876	1.063656	-0.931826
C58	C	-0.505854	1.063670	-1.015160
C59	C	-0.505947	1.063611	-0.694771
C60	C	-0.506094	1.063556	-0.163388
C61	C	-0.505833	1.063684	-0.081590
H62	H	-0.906014	1.148994	-0.269283
H63	H	-0.383976	0.978291	-0.924692
H64	H	-0.627790	1.149012	-0.924677
F65	F	-0.367205	0.643236	-0.257607
H66	H	-0.628146	0.633653	-0.439840
H67	H	-0.627842	1.148991	-0.785235
F68	F	-0.367228	0.484577	-0.257623
H69	H	-0.628149	0.494226	-0.439856
H70	H	-1.010736	1.143977	-0.164627
F71	F	-0.762976	0.941681	-0.351389
F72	F	-0.367214	0.966501	-0.775658
F73	F	-1.287977	1.306154	-0.112553
F74	F	-1.101372	1.232281	-0.061369
F75	F	-0.909746	0.894871	-0.647855
H76	H	-0.672348	0.853370	-0.454636
F77	F	-1.361346	1.282777	-0.260795
H78	H	-1.105100	0.978202	-0.439954
F79	F	-1.248111	1.185536	-0.357851
H80	H	-1.000374	0.983188	-0.544611
F81	F	-0.723161	0.820976	-0.596657
