data_functionalizedCrystal
_audit_creation_method	'MofGen! by Chris Wilmer'
_symmetry_space_group_name_H-M	'P1'
_symmetry_Int_Tables_number	1
_symmetry_cell_setting	triclinic
loop_
_symmetry_equiv_pos_as_xyz
  x,y,z
_cell_length_a	31.640172
_cell_length_b	14.560432
_cell_length_c	14.560432
_cell_angle_alpha	90.001728
_cell_angle_beta	60.006651
_cell_angle_gamma	59.999563
loop_
_atom_site_label
_atom_site_type_symbol
_atom_site_fract_x
_atom_site_fract_y
_atom_site_fract_z
Zr1	Zr	0.462578	-0.120489	0.884906
O2	O	0.550744	-0.267137	0.738284
O3	O	0.374411	-0.075536	0.929835
O4	O	0.462576	-0.267134	0.929862
O5	O	0.462581	0.075599	0.738257
O6	O	0.462575	-0.267130	1.081003
O7	O	0.462580	-0.075538	0.738257
O8	O	0.304864	0.075604	1.080955
O9	O	0.620292	-0.267135	0.738304
O10	O	0.410675	-0.056359	1.061814
O11	O	0.410677	0.056431	0.949019
O12	O	0.514479	-0.169151	0.949050
O13	O	0.514482	-0.056362	0.836255
Zr14	Zr	0.462579	0.120564	1.125958
Zr15	Zr	0.462576	-0.120483	1.125958
Zr16	Zr	0.462581	0.120558	0.884906
Zr17	Zr	0.573498	-0.120487	0.884939
Zr18	Zr	0.351659	0.120561	1.125925
O19	O	0.550746	0.075610	1.081029
O20	O	0.550741	-0.267128	1.081029
O21	O	0.550748	0.075601	0.738284
O22	O	0.374413	0.267211	1.272580
O23	O	0.374409	-0.075527	1.272581
O24	O	0.374415	0.267202	0.929835
O25	O	0.462575	-0.075525	1.272607
O26	O	0.462581	0.267208	1.081002
O27	O	0.462582	0.267204	0.929862
O28	O	0.462577	0.075613	1.272607
O29	O	0.620290	-0.267130	0.929909
O30	O	0.304867	0.267205	1.080955
O31	O	0.304865	0.267209	1.272560
O32	O	0.304863	0.075609	1.272560
O33	O	0.620294	-0.075535	0.738304
O34	O	0.620292	-0.075530	0.929909
O35	O	0.410678	0.169226	1.061814
O36	O	0.410675	0.056437	1.174609
O37	O	0.514480	-0.056356	1.061845
O38	O	0.514482	0.056433	0.949050
C39	C	0.323834	0.000034	1.005391
C40	C	0.276746	0.000033	1.005377
C41	C	0.462581	0.000030	0.703912
C42	C	0.462582	0.000027	0.601579
C43	C	0.462582	0.301550	1.005432
C44	C	0.462583	0.403881	1.005432
C45	C	-0.015297	-0.058827	1.064332
C46	C	-0.192293	-0.058827	1.064355
O47	O	-0.215199	-0.108857	1.114470
N48	N	-0.214421	0.000046	1.005476
C49	C	-0.192300	0.058929	0.946593
O50	O	-0.215187	0.109013	0.896523
C51	C	-0.015308	0.058934	0.946578
C52	C	0.006822	0.000048	1.005451
C53	C	0.006832	-0.117707	1.123202
C54	C	0.051081	-0.117712	1.123191
C55	C	0.073200	-0.058836	1.064310
C56	C	0.051070	0.000044	1.005440
C57	C	0.006809	0.117823	0.887702
C58	C	0.051058	0.117821	0.887705
C59	C	0.073188	0.058935	0.946579
C60	C	0.117438	0.058915	0.946547
N61	N	0.139566	0.000042	1.005426
C62	C	0.117447	-0.058834	1.064307
C63	C	-0.285223	0.058920	0.946604
C64	C	-0.329470	0.058917	0.946606
C65	C	-0.329460	-0.058837	1.064370
C66	C	-0.285210	-0.058840	1.064361
C67	C	-0.263095	0.000047	1.005483
C68	C	0.210372	-0.058840	1.064278
C69	C	0.254627	-0.058843	1.064258
C70	C	0.254611	0.058916	0.946499
C71	C	0.210363	0.058914	0.946514
C72	C	0.188243	0.000035	1.005412
O73	O	0.140366	0.108929	0.896469
O74	O	0.140332	-0.108890	1.114391
C75	C	-0.059546	-0.058823	1.064344
C76	C	-0.081676	0.000057	1.005474
C77	C	-0.059556	0.058933	0.946593
C78	C	-0.125923	0.000055	1.005476
C79	C	-0.148042	-0.058821	1.064357
C80	C	-0.125914	-0.117693	1.123236
C81	C	-0.081665	-0.117698	1.123225
C82	C	-0.081684	0.117805	0.887714
C83	C	-0.125933	0.117804	0.887729
C84	C	-0.148052	0.058929	0.946610
C85	C	0.601323	0.000041	1.005473
C86	C	0.648411	0.000042	1.005487
C87	C	0.462575	-0.301476	1.005432
C88	C	0.462574	-0.403807	1.005432
C89	C	0.570956	0.286142	0.887716
C90	C	0.625141	0.275349	0.828864
C91	C	0.625138	0.371501	0.828866
C92	C	0.570945	0.478455	0.887725
C93	C	0.516761	0.489248	0.946577
C94	C	0.516769	0.393087	0.946571
C95	C	0.408389	0.606986	1.064285
C96	C	0.408390	0.510835	1.064290
C97	C	0.354196	0.713940	1.123143
C98	C	0.300010	0.724734	1.182004
C99	C	0.300015	0.628574	1.182000
C100	C	0.354206	0.521628	1.123143
C101	C	0.462587	-0.166514	0.601555
C102	C	0.462592	-0.249783	0.553466
C103	C	0.462591	-0.249780	0.457316
C104	C	0.462585	-0.166495	0.409256
C105	C	0.462580	-0.083226	0.457345
C106	C	0.462582	-0.083240	0.553495
C107	C	0.462571	0.083318	0.457374
C108	C	0.462575	0.083311	0.553519
C109	C	0.462564	0.166602	0.409313
C110	C	0.462564	0.249869	0.457398
C111	C	0.462564	0.249861	0.553553
C112	C	0.462570	0.166581	0.601608
C113	C	0.462576	0.000045	1.306952
C114	C	0.462575	0.000048	1.409285
C115	C	0.323832	0.000042	1.306910
C116	C	0.276743	0.000043	1.409229
C117	C	0.323838	0.301547	1.005391
C118	C	0.276750	0.403877	1.005376
C119	C	0.323835	0.301555	1.306910
C120	C	0.276747	0.403887	1.409229
C121	C	0.601321	-0.301480	0.703954
C122	C	0.648410	-0.403813	0.601635
C123	C	0.601325	0.000033	0.703954
C124	C	0.648414	0.000031	0.601635
C125	C	0.601319	-0.301472	1.005474
C126	C	0.648406	-0.403802	1.005488
C127	C	0.254629	-0.058844	1.398402
C128	C	0.210389	-0.058865	1.494532
C129	C	0.188262	0.000008	1.601489
C130	C	0.210380	0.058897	1.612314
C131	C	0.254621	0.058911	1.516185
C132	C	0.254638	0.510820	1.064247
C133	C	0.210401	0.606979	1.064230
C134	C	0.188274	0.596192	1.005347
C135	C	0.210390	0.489237	0.946469
C136	C	0.254630	0.393081	0.946481
C137	C	0.254633	0.393069	1.516167
C138	C	0.210395	0.489211	1.612316
C139	C	0.188269	0.596172	1.601524
C140	C	0.210387	0.606988	1.494575
C141	C	0.254628	0.510846	1.398429
C142	C	0.670529	-0.392994	0.494697
C143	C	0.714781	-0.489137	0.398548
C144	C	0.736909	-0.596097	0.409340
C145	C	0.714788	-0.606914	0.516289
C146	C	0.670540	-0.510772	0.612435
C147	C	0.670533	0.058909	0.612463
C148	C	0.714784	0.058903	0.516332
C149	C	0.736914	0.000026	0.409375
C150	C	0.714793	-0.058858	0.398550
C151	C	0.670546	-0.058859	0.494679
C152	C	0.670520	-0.392979	1.064382
C153	C	0.714757	-0.489120	1.064417
C154	C	0.736884	-0.596082	1.005551
C155	C	0.714767	-0.606902	0.946655
C156	C	0.670527	-0.510763	0.946627
H157	H	0.272644	-0.106798	1.112199
H158	H	0.652511	-0.305894	1.112317
H159	H	0.570948	0.556742	0.887710
Cl160	Cl	0.282439	-0.132871	1.263953
Cl161	Cl	0.462573	-0.166479	0.288393
Cl162	Cl	0.132656	0.717087	1.005346
Cl163	Cl	0.462598	-0.166539	0.722417
H164	H	0.772939	-0.674373	0.331042
H165	H	-0.063681	0.165753	0.839767
H166	H	0.462574	0.166564	0.679894
H167	H	0.462560	0.166605	0.331027
Cl168	Cl	0.642741	-0.132875	0.481047
H169	H	0.192368	0.480471	0.898528
Cl170	Cl	0.462550	0.354564	0.396983
Cl171	Cl	0.182564	0.741462	1.481027
H172	H	0.272649	0.519624	1.112197
Cl173	Cl	0.182553	0.132910	1.746783
H174	H	0.192398	0.694056	1.112180
H175	H	0.772943	0.000036	0.331110
Cl176	Cl	0.282420	0.258642	0.872471
H177	H	-0.143928	-0.165637	1.171175
Cl178	Cl	0.282444	0.258616	1.529763
Cl179	Cl	0.282412	0.132958	1.529817
H180	H	-0.347477	0.106853	0.898651
H181	H	0.732787	0.106858	0.525168
H182	H	0.732761	-0.480287	1.112375
Cl183	Cl	0.354216	0.400742	1.123139
Cl184	Cl	0.642734	-0.524392	0.746868
Cl185	Cl	0.182595	0.475588	1.746752
Cl186	Cl	0.742617	-0.132864	0.264081
H187	H	0.732785	-0.480308	0.311475
H188	H	0.462592	-0.317582	0.418165
H189	H	0.152245	0.674447	1.679822
H190	H	-0.267221	0.106877	0.898657
Cl191	Cl	0.182590	-0.132897	1.480897
Cl192	Cl	-0.153745	0.191835	0.813703
Cl193	Cl	0.570964	0.165259	0.887729
Cl194	Cl	0.792503	-0.716933	1.005593
Cl195	Cl	0.462597	-0.354476	0.613889
Cl196	Cl	0.282420	0.524467	1.263996
H197	H	0.152237	-0.000011	1.679754
H198	H	0.732789	-0.694004	0.898728
Cl199	Cl	0.642738	-0.524389	0.872568
Cl200	Cl	-0.357276	-0.132849	1.138394
H201	H	0.192367	-0.106783	1.112240
H202	H	0.652515	-0.305910	0.485889
H203	H	0.069094	-0.165658	1.171134
H204	H	0.255891	0.811819	1.229915
Cl205	Cl	0.642726	0.132929	0.746911
Cl206	Cl	-0.257395	-0.132867	1.138379
Cl207	Cl	-0.021003	0.191860	0.813689
Cl208	Cl	-0.020963	-0.191740	1.197227
H209	H	0.069063	0.165773	0.839757
H210	H	0.732811	-0.694012	0.525063
H211	H	0.272630	0.106847	0.898556
Cl212	Cl	0.182549	0.132927	0.872485
H213	H	0.462557	0.317673	0.592706
H214	H	-0.063650	-0.165648	1.171166
H215	H	0.669264	0.188258	0.780941
Cl216	Cl	0.693257	0.357936	0.754882
Cl217	Cl	0.354193	0.834818	1.123143
H218	H	0.255891	0.637374	1.229919
