data_functionalizedCrystal
_audit_creation_method	'MofGen! by Chris Wilmer'
_symmetry_space_group_name_H-M	'P1'
_symmetry_Int_Tables_number	1
_symmetry_cell_setting	triclinic
loop_
_symmetry_equiv_pos_as_xyz
  x,y,z
_cell_length_a	10.654562
_cell_length_b	14.519709
_cell_length_c	13.596369
_cell_angle_alpha	90.008809
_cell_angle_beta	89.991227
_cell_angle_gamma	95.914876
loop_
_atom_site_label
_atom_site_type_symbol
_atom_site_fract_x
_atom_site_fract_y
_atom_site_fract_z
O1	O	1.666589	-0.129582	-0.081876
O2	O	1.999923	0.203751	0.251457
O3	O	2.333256	0.537085	0.584790
O4	O	1.300994	-0.141911	-0.081866
O5	O	1.634328	0.191423	0.251467
O6	O	1.967661	0.524756	0.584800
O7	O	1.493485	-0.001558	-0.081844
O8	O	1.826819	0.331775	0.251489
O9	O	2.160152	0.665108	0.584823
O10	O	1.474099	-0.269934	-0.081899
O11	O	1.807432	0.063399	0.251435
O12	O	2.140765	0.396733	0.584768
O13	O	1.493461	-0.001566	0.081739
O14	O	1.826795	0.331767	0.415072
O15	O	2.160128	0.665101	0.748405
O16	O	1.300971	-0.141918	0.081717
O17	O	1.634304	0.191415	0.415050
O18	O	1.967637	0.524748	0.748383
O19	O	1.666566	-0.129590	0.081706
O20	O	1.999899	0.203744	0.415040
O21	O	2.333232	0.537077	0.748373
Zn22	Zn	1.483765	-0.135755	0.107684
Zn23	Zn	1.817098	0.197578	0.441017
Zn24	Zn	2.150431	0.530911	0.774351
Zn25	Zn	1.483796	-0.135745	-0.107844
Zn26	Zn	1.817129	0.197588	0.225490
Zn27	Zn	2.150462	0.530922	0.558823
O28	O	1.474075	-0.269942	0.081684
O29	O	1.807408	0.063391	0.415018
O30	O	2.140742	0.396725	0.748351
C31	C	1.254194	-0.141007	-0.000073
C32	C	1.587527	0.192326	0.333260
C33	C	1.920860	0.525660	0.666594
C34	C	1.114777	-0.138291	-0.000068
C35	C	1.448111	0.195042	0.333266
C36	C	1.781444	0.528376	0.666599
C37	C	1.049246	-0.137029	0.089094
C38	C	1.382579	0.196305	0.422427
C39	C	1.715913	0.529638	0.755761
C40	C	0.918248	-0.134484	0.089078
C41	C	1.251581	0.198849	0.422411
C42	C	1.584915	0.532182	0.755745
C43	C	0.918324	-0.134469	-0.089269
C44	C	1.251657	0.198864	0.244064
C45	C	1.584991	0.532198	0.577398
C46	C	1.049321	-0.137007	-0.089252
C47	C	1.382654	0.196327	0.244081
C48	C	1.715987	0.529660	0.577414
C49	C	1.049200	-0.137041	0.192061
C50	C	1.382534	0.196292	0.525395
C51	C	1.715867	0.529625	0.858728
C52	C	0.918202	-0.134497	0.192045
C53	C	1.251536	0.198836	0.525379
C54	C	1.584869	0.532170	0.858712
C55	C	1.492570	0.032802	-0.000048
C56	C	1.825903	0.366136	0.333286
C57	C	2.159236	0.699469	0.666619
C58	C	1.489862	0.135198	-0.000033
C59	C	1.823196	0.468531	0.333301
C60	C	2.156529	0.801864	0.666634
C61	C	1.479895	0.510145	-0.000006
C62	C	1.813229	0.843479	0.333328
C63	C	2.146562	1.176812	0.666661
C64	C	1.482663	0.405823	-0.000013
C65	C	1.815996	0.739156	0.333320
C66	C	2.149330	1.072490	0.666654
C67	C	1.484879	0.322675	-0.000018
C68	C	1.818212	0.656008	0.333315
C69	C	2.151545	0.989342	0.666648
C70	C	1.487647	0.218346	-0.000027
C71	C	1.820980	0.551679	0.333306
C72	C	2.154314	0.885013	0.666639
C73	C	1.713367	-0.130493	-0.000089
C74	C	2.046700	0.202840	0.333244
C75	C	2.380033	0.536173	0.666578
C76	C	1.852783	-0.133209	-0.000101
C77	C	2.186116	0.200124	0.333233
C78	C	2.519450	0.533458	0.666566
C79	C	1.474990	0.695698	-0.000079
C80	C	1.808324	1.029031	0.333254
C81	C	2.141657	1.362364	0.666587
C82	C	1.477698	0.593302	0.000004
C83	C	1.811031	0.926635	0.333337
C84	C	2.144364	1.259969	0.666670
N85	N	1.483752	-0.135762	0.254776
N86	N	1.817086	0.197572	0.588109
N87	N	2.150419	0.530905	0.921442
N88	N	1.483818	-0.135731	-0.254935
N89	N	1.817151	0.197602	0.078398
N90	N	2.150485	0.530935	0.411731
C91	C	1.483759	-0.135764	0.343774
C92	C	1.817092	0.197570	0.677107
C93	C	2.150425	0.530903	1.010440
C94	C	1.483771	-0.135757	0.455425
C95	C	1.817104	0.197576	0.788758
C96	C	2.150438	0.530909	1.122092
C97	C	1.483787	-0.135747	0.544415
C98	C	1.817121	0.197586	0.877749
C99	C	2.150454	0.530920	1.211082
C100	C	1.483801	-0.135742	0.656074
C101	C	1.817135	0.197592	0.989407
C102	C	2.150468	0.530925	1.322741
H103	H	0.871298	-0.198235	0.231562
H104	H	1.204631	0.135098	0.564895
H105	H	1.537964	0.468432	0.898228
H106	H	1.102674	-0.138020	-0.161856
H107	H	1.436007	0.195313	0.171477
H108	H	1.769341	0.528646	0.504811
H109	H	1.078123	-0.204303	0.223997
H110	H	1.411457	0.129030	0.557330
H111	H	1.744790	0.462364	0.890663
H112	H	0.865013	-0.133423	-0.161880
H113	H	1.198347	0.199910	0.171453
H114	H	1.531680	0.533243	0.504787
H115	H	0.889256	-0.067240	0.224010
H116	H	1.222590	0.266094	0.557343
H117	H	1.555923	0.599427	0.890676
H118	H	1.096067	-0.073309	0.231616
H119	H	1.429400	0.260024	0.564949
H120	H	1.762734	0.593358	0.898282
