data_functionalizedCrystal
_audit_creation_method	'MofGen! by Chris Wilmer'
_symmetry_space_group_name_H-M	'P1'
_symmetry_Int_Tables_number	1
_symmetry_cell_setting	triclinic
loop_
_symmetry_equiv_pos_as_xyz
  x,y,z
_cell_length_a	25.639242
_cell_length_b	25.639240
_cell_length_c	25.639233
_cell_angle_alpha	89.974071
_cell_angle_beta	89.985652
_cell_angle_gamma	90.025061
loop_
_atom_site_label
_atom_site_type_symbol
_atom_site_fract_x
_atom_site_fract_y
_atom_site_fract_z
Zn1	Zn	0.799247	-0.208322	-0.295607
Zn2	Zn	1.132580	0.125012	0.037726
Zn3	Zn	1.465913	0.458345	0.371060
Zn4	Zn	0.799179	-0.295741	-0.208160
Zn5	Zn	1.132512	0.037593	0.125173
Zn6	Zn	1.465846	0.370926	0.458506
Zn7	Zn	0.711823	-0.208309	-0.208183
Zn8	Zn	1.045156	0.125024	0.125150
Zn9	Zn	1.378490	0.458357	0.458484
Zn10	Zn	0.711777	-0.295716	-0.295562
Zn11	Zn	1.045110	0.037617	0.037771
Zn12	Zn	1.378444	0.370950	0.371104
O13	O	0.755506	-0.252022	-0.251878
O14	O	1.088840	0.081311	0.081455
O15	O	1.422173	0.414645	0.414788
O16	O	0.872403	-0.219933	-0.284016
O17	O	1.205736	0.113400	0.049317
O18	O	1.539069	0.446733	0.382650
O19	O	0.787582	-0.284148	-0.134998
O20	O	1.120915	0.049186	0.198335
O21	O	1.454249	0.382519	0.531668
O22	O	0.723467	-0.135146	-0.219808
O23	O	1.056801	0.198188	0.113525
O24	O	1.390134	0.531521	0.446858
O25	O	0.872353	-0.284160	-0.219770
O26	O	1.205687	0.049174	0.113564
O27	O	1.539020	0.382507	0.446897
O28	O	0.787697	-0.135155	-0.284038
O29	O	1.121030	0.198178	0.049295
O30	O	1.454364	0.531512	0.382628
O31	O	0.723402	-0.219912	-0.135015
O32	O	1.056735	0.113421	0.198318
O33	O	1.390068	0.446755	0.531652
O34	O	0.638652	-0.219889	-0.219765
O35	O	0.971985	0.113445	0.113568
O36	O	1.305318	0.446778	0.446902
O37	O	0.723389	-0.284118	-0.368733
O38	O	1.056722	0.049215	-0.035400
O39	O	1.390056	0.382548	0.297933
O40	O	0.638618	-0.284106	-0.283962
O41	O	0.971951	0.049227	0.049371
O42	O	1.305285	0.382561	0.382705
O43	O	0.787653	-0.219910	-0.368766
O44	O	1.120986	0.113423	-0.035433
O45	O	1.454319	0.446757	0.297900
O46	O	0.787538	-0.368903	-0.219726
O47	O	1.120871	-0.035569	0.113607
O48	O	1.454204	0.297764	0.446940
O49	O	0.723324	-0.368885	-0.283940
O50	O	1.056657	-0.035551	0.049393
O51	O	1.389990	0.297782	0.382727
C52	C	0.619664	-0.251994	-0.251861
C53	C	0.952997	0.081340	0.081472
C54	C	1.286330	0.414673	0.414805
C55	C	0.561550	-0.251994	-0.251866
C56	C	0.894883	0.081339	0.081467
C57	C	1.228216	0.414672	0.414800
C58	C	0.755432	-0.387865	-0.251837
C59	C	1.088766	-0.054531	0.081496
C60	C	1.422099	0.278802	0.414829
C61	C	0.755449	-0.445979	-0.251837
C62	C	1.088782	-0.112645	0.081496
C63	C	1.422115	0.220688	0.414829
C64	C	0.310390	-0.218639	-0.285392
C65	C	0.643724	0.114695	0.047941
C66	C	0.977057	0.448028	0.381274
C67	C	0.364994	-0.218634	-0.285389
C68	C	0.698328	0.114700	0.047944
C69	C	1.031661	0.448033	0.381277
O70	O	0.393260	-0.190251	-0.313891
O71	O	0.726593	0.143083	0.019443
O72	O	1.059927	0.476416	0.352776
N73	N	0.392276	-0.252016	-0.251884
N74	N	0.725609	0.081317	0.081449
N75	N	1.058943	0.414651	0.414782
C76	C	0.364950	-0.285409	-0.218383
C77	C	0.698283	0.047924	0.114950
C78	C	1.031617	0.381257	0.448283
O79	O	0.393169	-0.313803	-0.189885
O80	O	0.726502	0.019530	0.143449
O81	O	1.059836	0.352863	0.476782
C82	C	0.310347	-0.285417	-0.218389
C83	C	0.643680	0.047917	0.114944
C84	C	0.977013	0.381250	0.448277
C85	C	0.283068	-0.252028	-0.251893
C86	C	0.616402	0.081305	0.081440
C87	C	0.949735	0.414638	0.414773
C88	C	0.283112	-0.185254	-0.318894
C89	C	0.616445	0.148080	0.014439
C90	C	0.949778	0.481413	0.347773
C91	C	0.228511	-0.185258	-0.318896
C92	C	0.561844	0.148075	0.014437
C93	C	0.895178	0.481408	0.347771
C94	C	0.201189	-0.218648	-0.285397
C95	C	0.534522	0.114685	0.047937
C96	C	0.867856	0.448019	0.381270
C97	C	0.228468	-0.252033	-0.251895
C98	C	0.561801	0.081300	0.081438
C99	C	0.895134	0.414634	0.414771
C100	C	0.283022	-0.318812	-0.184892
C101	C	0.616355	0.014521	0.148442
C102	C	0.949689	0.347854	0.481775
C103	C	0.228415	-0.318817	-0.184901
C104	C	0.561748	0.014516	0.148432
C105	C	0.895082	0.347850	0.481766
C106	C	0.201136	-0.285429	-0.218405
C107	C	0.534470	0.047904	0.114929
C108	C	0.867803	0.381238	0.448262
C109	C	0.146545	-0.285427	-0.218398
C110	C	0.479879	0.047906	0.114935
C111	C	0.813212	0.381239	0.448268
N112	N	0.119264	-0.252045	-0.251904
N113	N	0.452597	0.081288	0.081430
N114	N	0.785930	0.414622	0.414763
C115	C	0.146586	-0.218655	-0.285403
C116	C	0.479919	0.114678	0.047931
C117	C	0.813252	0.448011	0.381264
C118	C	0.479621	-0.285392	-0.218374
C119	C	0.812954	0.047942	0.114959
C120	C	1.146287	0.381275	0.448293
C121	C	0.534223	-0.285382	-0.218365
C122	C	0.867556	0.047951	0.114968
C123	C	1.200890	0.381284	0.448302
C124	C	0.534264	-0.218607	-0.285372
C125	C	0.867597	0.114726	0.047961
C126	C	1.200930	0.448060	0.381295
C127	C	0.479660	-0.218614	-0.285378
C128	C	0.812994	0.114719	0.047955
C129	C	1.146327	0.448052	0.381289
C130	C	0.452339	-0.252010	-0.251879
C131	C	0.785673	0.081324	0.081454
C132	C	1.119006	0.414657	0.414787
C133	C	0.031921	-0.218667	-0.285404
C134	C	0.365254	0.114666	0.047929
C135	C	0.698587	0.447999	0.381262
C136	C	-0.022685	-0.218673	-0.285402
C137	C	0.310649	0.114660	0.047931
C138	C	0.643982	0.447993	0.381265
C139	C	-0.022721	-0.285450	-0.218397
C140	C	0.310613	0.047883	0.114936
C141	C	0.643946	0.381217	0.448269
C142	C	0.031880	-0.285442	-0.218398
C143	C	0.365213	0.047891	0.114936
C144	C	0.698547	0.381224	0.448269
C145	C	0.059199	-0.252049	-0.251905
C146	C	0.392533	0.081284	0.081428
C147	C	0.725866	0.414617	0.414761
O148	O	0.118245	-0.313797	-0.189913
O149	O	0.451578	0.019536	0.143420
O150	O	0.784912	0.352870	0.476754
O151	O	0.118360	-0.190271	-0.313902
O152	O	0.451694	0.143062	0.019432
O153	O	0.785027	0.476396	0.352765
C154	C	0.788967	-0.806308	-0.285383
C155	C	1.122301	-0.472975	0.047950
C156	C	1.455634	-0.139641	0.381284
C157	C	0.788983	-0.860912	-0.285394
C158	C	1.122316	-0.527579	0.047940
C159	C	1.455650	-0.194246	0.381273
O160	O	0.817394	-0.889120	-0.313874
O161	O	1.150727	-0.555787	0.019460
O162	O	1.484060	-0.222454	0.352793
N163	N	0.755579	-0.888261	-0.251929
N164	N	1.088912	-0.554928	0.081405
N165	N	1.422246	-0.221594	0.414738
C166	C	0.722154	-0.861003	-0.218455
C167	C	1.055487	-0.527669	0.114879
C168	C	1.388820	-0.194336	0.448212
O169	O	0.693742	-0.889279	-0.189991
O170	O	1.027075	-0.555946	0.143342
O171	O	1.360409	-0.222612	0.476675
C172	C	0.722136	-0.806399	-0.218447
C173	C	1.055469	-0.473066	0.114886
C174	C	1.388803	-0.139733	0.448220
C175	C	0.755546	-0.779053	-0.251911
C176	C	1.088879	-0.445720	0.081423
C177	C	1.422212	-0.112387	0.414756
C178	C	0.822374	-0.778962	-0.318844
C179	C	1.155707	-0.445629	0.014489
C180	C	1.489041	-0.112295	0.347822
C181	C	0.822359	-0.724361	-0.318833
C182	C	1.155693	-0.391028	0.014501
C183	C	1.489026	-0.057695	0.347834
C184	C	0.788938	-0.697107	-0.285360
C185	C	1.122271	-0.363774	0.047973
C186	C	1.455604	-0.030440	0.381306
C187	C	0.755531	-0.724453	-0.251899
C188	C	1.088864	-0.391120	0.081434
C189	C	1.422198	-0.057786	0.414768
C190	C	0.688708	-0.779142	-0.184976
C191	C	1.022042	-0.445809	0.148357
C192	C	1.355375	-0.112475	0.481691
C193	C	0.688693	-0.724535	-0.184972
C194	C	1.022027	-0.391202	0.148362
C195	C	1.355360	-0.057868	0.481695
C196	C	0.722103	-0.697189	-0.218435
C197	C	1.055437	-0.363856	0.114898
C198	C	1.388770	-0.030522	0.448232
C199	C	0.722094	-0.642598	-0.218415
C200	C	1.055428	-0.309264	0.114918
C201	C	1.388761	0.024069	0.448252
N202	N	0.755498	-0.615249	-0.251880
N203	N	1.088832	-0.281916	0.081453
N204	N	1.422165	0.051418	0.414787
C205	C	0.788920	-0.642504	-0.285353
C206	C	1.122253	-0.309170	0.047981
C207	C	1.455587	0.024163	0.381314
C208	C	0.722193	-0.975673	-0.218474
C209	C	1.055526	-0.642340	0.114859
C210	C	1.388859	-0.309007	0.448193
C211	C	0.722213	-1.030276	-0.218478
C212	C	1.055546	-0.696942	0.114855
C213	C	1.388879	-0.363609	0.448188
C214	C	0.789041	-1.030181	-0.285418
C215	C	1.122375	-0.696848	0.047915
C216	C	1.455708	-0.363515	0.381248
C217	C	0.789024	-0.975578	-0.285411
C218	C	1.122357	-0.642245	0.047923
C219	C	1.455690	-0.308911	0.381256
C220	C	0.755597	-0.948324	-0.251939
C221	C	1.088930	-0.614991	0.081394
C222	C	1.422263	-0.281658	0.414728
C223	C	0.788887	-0.527838	-0.285326
C224	C	1.122220	-0.194505	0.048008
C225	C	1.455553	0.138828	0.381341
C226	C	0.788870	-0.473233	-0.285310
C227	C	1.122204	-0.139900	0.048024
C228	C	1.455537	0.193434	0.381357
C229	C	0.722040	-0.473332	-0.218372
C230	C	1.055373	-0.139999	0.114961
C231	C	1.388707	0.193335	0.448295
C232	C	0.722058	-0.527933	-0.218386
C233	C	1.055391	-0.194599	0.114947
C234	C	1.388725	0.138734	0.448281
C235	C	0.755483	-0.555185	-0.251867
C236	C	1.088816	-0.221851	0.081466
C237	C	1.422150	0.111482	0.414800
O238	O	0.693697	-0.614355	-0.189951
O239	O	1.027030	-0.281022	0.143382
O240	O	1.360363	0.052312	0.476715
O241	O	0.817322	-0.614221	-0.313816
O242	O	1.150655	-0.280887	0.019517
O243	O	1.483989	0.052446	0.352851
C244	C	0.891879	-0.252051	-0.251895
C245	C	1.225213	0.081283	0.081438
C246	C	1.558546	0.414616	0.414771
C247	C	0.949993	-0.252063	-0.251903
C248	C	1.283327	0.081270	0.081430
C249	C	1.616660	0.414604	0.414764
C250	C	0.755523	-0.252013	-0.388251
C251	C	1.088857	0.081321	-0.054918
C252	C	1.422190	0.414654	0.278415
C253	C	0.755530	-0.252009	-0.446365
C254	C	1.088864	0.081324	-0.113032
C255	C	1.422197	0.414658	0.220301
C256	C	0.755595	-0.115649	-0.251931
C257	C	1.088928	0.217684	0.081403
C258	C	1.422261	0.551018	0.414736
C259	C	0.755632	-0.057535	-0.251953
C260	C	1.088966	0.275798	0.081380
C261	C	1.422299	0.609132	0.414713
C262	C	0.789035	-0.218476	-0.806751
C263	C	1.122368	0.114857	-0.473418
C264	C	1.455701	0.448190	-0.140085
C265	C	0.789041	-0.218462	-0.861356
C266	C	1.122375	0.114872	-0.528022
C267	C	1.455708	0.448205	-0.194689
O268	O	0.817486	-0.190013	-0.889612
O269	O	1.150819	0.143321	-0.556278
O270	O	1.484152	0.476654	-0.222945
N271	N	0.755588	-0.251886	-0.888648
N272	N	1.088921	0.081447	-0.555315
N273	N	1.422255	0.414780	-0.221981
C274	C	0.722122	-0.285324	-0.861333
C275	C	1.055456	0.048010	-0.528000
C276	C	1.388789	0.381343	-0.194667
O277	O	0.693668	-0.313752	-0.889561
O278	O	1.027001	0.019581	-0.556228
O279	O	1.360335	0.352914	-0.222895
C280	C	0.722114	-0.285335	-0.806730
C281	C	1.055447	0.047998	-0.473397
C282	C	1.388780	0.381332	-0.140063
C283	C	0.755573	-0.251912	-0.779440
C284	C	1.088906	0.081421	-0.446107
C285	C	1.422240	0.414754	-0.112774
C286	C	0.822491	-0.185056	-0.779462
C287	C	1.155824	0.148278	-0.446128
C288	C	1.489158	0.481611	-0.112795
C289	C	0.822485	-0.185071	-0.724861
C290	C	1.155818	0.148262	-0.391528
C291	C	1.489152	0.481596	-0.058194
C292	C	0.789023	-0.218507	-0.697550
C293	C	1.122356	0.114827	-0.364217
C294	C	1.455690	0.448160	-0.030884
C295	C	0.755567	-0.251927	-0.724840
C296	C	1.088900	0.081406	-0.391506
C297	C	1.422234	0.414739	-0.058173
C298	C	0.688646	-0.318770	-0.779416
C299	C	1.021979	0.014564	-0.446083
C300	C	1.355312	0.347897	-0.112749
C301	C	0.688640	-0.318778	-0.724809
C302	C	1.021973	0.014556	-0.391476
C303	C	1.355306	0.347889	-0.058142
C304	C	0.722099	-0.285355	-0.697519
C305	C	1.055432	0.047979	-0.364186
C306	C	1.388766	0.381312	-0.030853
C307	C	0.722099	-0.285379	-0.642928
C308	C	1.055432	0.047955	-0.309595
C309	C	1.388766	0.381288	0.023738
N310	N	0.755552	-0.251954	-0.615636
N311	N	1.088886	0.081379	-0.282303
N312	N	1.422219	0.414713	0.051031
C313	C	0.789014	-0.218518	-0.642947
C314	C	1.122348	0.114815	-0.309614
C315	C	1.455681	0.448148	0.023720
C316	C	0.722143	-0.285296	-0.976004
C317	C	1.055476	0.048037	-0.642671
C318	C	1.388809	0.381370	-0.309337
C319	C	0.722154	-0.285288	-1.030606
C320	C	1.055487	0.048045	-0.697273
C321	C	1.388820	0.381379	-0.363940
C322	C	0.789072	-0.218425	-1.030625
C323	C	1.122405	0.114908	-0.697292
C324	C	1.455739	0.448241	-0.363958
C325	C	0.789063	-0.218437	-0.976022
C326	C	1.122397	0.114897	-0.642688
C327	C	1.455730	0.448230	-0.309355
C328	C	0.755596	-0.251872	-0.948712
C329	C	1.088929	0.081461	-0.615378
C330	C	1.422263	0.414795	-0.282045
C331	C	0.789000	-0.218553	-0.528282
C332	C	1.122333	0.114780	-0.194948
C333	C	1.455666	0.448114	0.138385
C334	C	0.788992	-0.218573	-0.473676
C335	C	1.122326	0.114760	-0.140343
C336	C	1.455659	0.448094	0.192990
C337	C	0.722072	-0.285434	-0.473662
C338	C	1.055406	0.047900	-0.140329
C339	C	1.388739	0.381233	0.193004
C340	C	0.722081	-0.285416	-0.528263
C341	C	1.055415	0.047917	-0.194930
C342	C	1.388748	0.381251	0.138404
C343	C	0.755547	-0.251971	-0.555571
C344	C	1.088880	0.081362	-0.222238
C345	C	1.422213	0.414695	0.111095
O346	O	0.693668	-0.313812	-0.614637
O347	O	1.027001	0.019522	-0.281304
O348	O	1.360334	0.352855	0.052029
O349	O	0.817459	-0.190090	-0.614712
O350	O	1.150792	0.143244	-0.281379
O351	O	1.484126	0.476577	0.051955
C352	C	0.755520	-0.251993	-0.116036
C353	C	1.088853	0.081340	0.217298
C354	C	1.422186	0.414673	0.550631
C355	C	0.755614	-0.251850	-0.057922
C356	C	1.088947	0.081483	0.275411
C357	C	1.422280	0.414817	0.608745
H358	H	-0.044892	-0.191482	-0.312685
H359	H	0.288441	0.141851	0.020649
H360	H	0.621774	0.475185	0.353982
Cl361	Cl	0.831057	-1.064455	-0.327499
Cl362	Cl	1.164390	-0.731121	0.005834
Cl363	Cl	1.497723	-0.397788	0.339167
Cl364	Cl	0.831025	-0.941206	-0.327482
Cl365	Cl	1.164358	-0.607873	0.005852
Cl366	Cl	1.497692	-0.274539	0.339185
H367	H	0.694974	-0.953486	-0.191213
H368	H	1.028307	-0.620153	0.142121
H369	H	1.361641	-0.286819	0.475454
H370	H	0.694830	-0.312658	-0.451416
H371	H	1.028163	0.020676	-0.118083
H372	H	1.361497	0.354009	0.215251
Cl373	Cl	0.864358	-0.689992	-0.360908
Cl374	Cl	1.197692	-0.356658	-0.027575
Cl375	Cl	1.531025	-0.023325	0.305759
Cl376	Cl	0.864547	-0.143047	-0.690562
Cl377	Cl	1.197880	0.190286	-0.357229
Cl378	Cl	1.531213	0.523619	-0.023896
H379	H	0.661400	-0.345986	-0.801626
H380	H	0.994733	-0.012653	-0.468293
H381	H	1.328066	0.320681	-0.134959
Cl382	Cl	0.646668	-0.690277	-0.142890
Cl383	Cl	0.980002	-0.356943	0.190444
Cl384	Cl	1.313335	-0.023610	0.523777
Cl385	Cl	0.864570	-0.143023	-0.813786
Cl386	Cl	1.197903	0.190311	-0.480452
Cl387	Cl	1.531237	0.523644	-0.147119
H388	H	0.457379	-0.312585	-0.191091
H389	H	0.790713	0.020748	0.142242
H390	H	1.124046	0.354082	0.475576
H391	H	0.694913	-0.312510	-1.052821
H392	H	1.028247	0.020823	-0.719487
H393	H	1.361580	0.354156	-0.386154
Cl394	Cl	0.445373	-0.176640	-0.327499
Cl395	Cl	0.778706	0.156693	0.005834
Cl396	Cl	1.112040	0.490026	0.339167
H397	H	0.816308	-0.191220	-0.953806
H398	H	1.149641	0.142113	-0.620473
H399	H	1.482974	0.475447	-0.287139
H400	H	0.849590	-0.801147	-0.346105
H401	H	1.182923	-0.467813	-0.012771
H402	H	1.516257	-0.134480	0.320562
Cl403	Cl	0.831059	-0.176553	-0.439373
Cl404	Cl	1.164393	0.156780	-0.106040
Cl405	Cl	1.497726	0.490114	0.227294
H406	H	0.695012	-1.052536	-0.191223
H407	H	1.028346	-0.719203	0.142110
H408	H	1.361679	-0.385869	0.475443
Cl409	Cl	0.680021	-0.327436	-0.562571
Cl410	Cl	1.013354	0.005897	-0.229237
Cl411	Cl	1.346687	0.339230	0.104096
Cl412	Cl	0.646702	-0.813506	-0.142907
Cl413	Cl	0.980036	-0.480173	0.190426
Cl414	Cl	1.313369	-0.146840	0.523760
Cl415	Cl	0.680069	-0.327338	-0.941677
Cl416	Cl	1.013403	0.005995	-0.608343
Cl417	Cl	1.346736	0.339329	-0.275010
H418	H	0.206173	-0.346013	-0.157623
H419	H	0.539506	-0.012680	0.175710
H420	H	0.872840	0.320653	0.509044
Cl421	Cl	0.830909	-0.562090	-0.327415
Cl422	Cl	1.164242	-0.228756	0.005918
Cl423	Cl	1.497576	0.104577	0.339252
H424	H	0.661380	-0.346000	-0.702576
H425	H	0.994714	-0.012667	-0.369243
H426	H	1.328047	0.320667	-0.035909
H427	H	0.556429	-0.312565	-0.191077
H428	H	0.889762	0.020769	0.142256
H429	H	1.223095	0.354102	0.475589
H430	H	0.816249	-0.191318	-0.550510
H431	H	1.149582	0.142016	-0.217176
H432	H	1.482915	0.475349	0.116157
H433	H	0.694857	-0.550199	-0.191133
H434	H	1.028190	-0.216866	0.142200
H435	H	1.361524	0.116468	0.475534
H436	H	0.206306	-0.158072	-0.346181
H437	H	0.539639	0.175261	-0.012847
H438	H	0.872972	0.508594	0.320486
Cl439	Cl	0.568622	-0.176631	-0.327486
Cl440	Cl	0.901955	0.156702	0.005847
Cl441	Cl	1.235288	0.490035	0.339181
H442	H	0.816317	-0.191199	-1.052871
H443	H	1.149651	0.142135	-0.719538
H444	H	1.482984	0.475468	-0.386205
Cl445	Cl	-0.057078	-0.327423	-0.176286
Cl446	Cl	0.276255	0.005911	0.157048
Cl447	Cl	0.609588	0.339244	0.490381
Cl448	Cl	0.066256	-0.176686	-0.327528
Cl449	Cl	0.399590	0.156648	0.005805
Cl450	Cl	0.732923	0.489981	0.339139
Cl451	Cl	0.317449	-0.143273	-0.361014
Cl452	Cl	0.650783	0.190061	-0.027680
Cl453	Cl	0.984116	0.523394	0.305653
Cl454	Cl	0.680026	-0.439059	-0.176295
Cl455	Cl	1.013360	-0.105726	0.157039
Cl456	Cl	1.346693	0.227608	0.490372
H457	H	0.305223	-0.346001	-0.157609
H458	H	0.638556	-0.012667	0.175724
H459	H	0.971890	0.320666	0.509057
Cl460	Cl	0.066174	-0.327420	-0.176282
Cl461	Cl	0.399507	0.005913	0.157052
Cl462	Cl	0.732841	0.339247	0.490385
H463	H	0.816078	-0.450970	-0.312560
H464	H	1.149412	-0.117636	0.020774
H465	H	1.482745	0.215697	0.354107
