data_functionalizedCrystal
_audit_creation_method	'MofGen! by Chris Wilmer'
_symmetry_space_group_name_H-M	'P1'
_symmetry_Int_Tables_number	1
_symmetry_cell_setting	triclinic
loop_
_symmetry_equiv_pos_as_xyz
  x,y,z
_cell_length_a	14.908571
_cell_length_b	12.759400
_cell_length_c	12.759393
_cell_angle_alpha	90.031564
_cell_angle_beta	86.685322
_cell_angle_gamma	93.289010
loop_
_atom_site_label
_atom_site_type_symbol
_atom_site_fract_x
_atom_site_fract_y
_atom_site_fract_z
Zn1	Zn	1.379284	0.511027	-0.686595
Zn2	Zn	1.379193	0.686740	-0.510909
Zn3	Zn	1.228413	0.500928	-0.500804
Zn4	Zn	1.228403	0.676511	-0.676425
O5	O	1.303823	0.593801	-0.593683
O6	O	1.505518	0.542843	-0.671774
O7	O	1.359158	0.662146	-0.362545
O8	O	1.248468	0.355250	-0.525476
O9	O	1.505451	0.671938	-0.542699
O10	O	1.359312	0.362669	-0.661976
O11	O	1.248380	0.525631	-0.355121
O12	O	1.102165	0.515712	-0.515615
O13	O	1.248451	0.654504	-0.824798
O14	O	1.102158	0.644712	-0.644644
O15	O	1.359303	0.532924	-0.832269
O16	O	1.359148	0.832401	-0.532838
O17	O	1.248363	0.824886	-0.654442
C18	C	1.069427	0.578007	-0.577930
C19	C	0.969152	0.571275	-0.571216
C20	C	1.303769	0.866765	-0.593657
C21	C	1.303829	0.983546	-0.593687
C22	C	1.303886	0.593700	-0.867721
C23	C	1.303913	0.593656	-0.984499
C24	C	0.780764	0.693162	-0.692776
C25	C	0.686547	0.686840	-0.686471
C26	C	0.686497	0.552306	-0.552307
C27	C	0.780714	0.558627	-0.558612
C28	C	0.827845	0.629059	-0.628847
C29	C	0.922064	0.635385	-0.635146
C30	C	0.922013	0.500846	-0.500989
C31	C	0.827795	0.494525	-0.494684
C32	C	1.539134	0.609658	-0.609498
C33	C	1.639409	0.616415	-0.616237
C34	C	1.303901	0.319773	-0.593733
C35	C	1.303935	0.202999	-0.593755
C36	C	1.361579	1.042290	-0.530446
C37	C	1.361634	1.152018	-0.530483
C38	C	1.246182	1.144246	-0.657003
C39	C	1.246132	1.034521	-0.656971
C40	C	1.428231	1.046778	-0.457398
C41	C	1.428287	1.156506	-0.457434
C42	C	1.361641	0.530344	-1.043254
C43	C	1.361663	0.530307	-1.152979
C44	C	1.246225	0.656905	-1.145186
C45	C	1.246200	0.656935	-1.035462
C46	C	1.428291	0.457257	-1.047754
C47	C	1.428313	0.457220	-1.157480
C48	C	1.303812	0.593830	-0.320715
C49	C	1.303960	0.593590	-0.203949
H50	H	0.819139	0.750515	-0.749959
H51	H	1.403313	0.378229	-1.189849
H52	H	1.498185	0.483715	-1.191950
H53	H	1.199116	0.986692	-0.708477
H54	H	0.648217	0.739037	-0.738530
C55	C	1.183506	1.199402	-0.725817
C56	C	1.132935	1.124467	-0.781214
C57	C	1.075195	1.175235	-0.844627
H58	H	1.144155	1.239633	-0.683079
H59	H	1.217999	1.244430	-0.774013
H60	H	1.098445	1.079457	-0.733024
H61	H	1.172262	1.084232	-0.823972
H62	H	1.109689	1.220263	-0.892823
H63	H	1.035851	1.215464	-0.801881
H64	H	1.040882	1.124400	-0.882228
C65	C	1.521282	1.013071	-0.492931
C66	C	1.515357	0.951662	-0.583510
C67	C	1.601052	0.920580	-0.616265
H68	H	1.560199	1.073453	-0.507789
H69	H	1.544510	0.973241	-0.438848
H70	H	1.492141	0.991491	-0.637582
H71	H	1.476457	0.891266	-0.568678
H72	H	1.624280	0.880750	-0.562182
H73	H	1.639962	0.980968	-0.631118
H74	H	1.597042	0.878903	-0.677720
C75	C	0.776671	0.417888	-0.418562
C76	C	0.799594	0.315500	-0.443159
C77	C	0.752511	0.244874	-0.373064
H78	H	0.792041	0.434082	-0.348938
H79	H	0.713806	0.423227	-0.423969
H80	H	0.862445	0.310165	-0.437742
H81	H	0.784222	0.299273	-0.512770
H82	H	0.689646	0.250214	-0.378470
H83	H	0.767885	0.261078	-0.303444
H84	H	0.768051	0.175396	-0.389748
C85	C	0.973075	0.711876	-0.711507
C86	C	0.911673	0.766638	-0.766164
C87	C	0.958627	0.837098	-0.836531
H88	H	1.009812	0.760170	-0.673822
H89	H	1.009832	0.674223	-0.759864
H90	H	0.874931	0.804289	-0.717814
H91	H	0.874933	0.718371	-0.803871
H92	H	0.995385	0.799445	-0.884888
H93	H	0.995363	0.885385	-0.798837
H94	H	0.916973	0.874256	-0.873631
C95	C	0.973293	0.431295	-0.431698
C96	C	1.065893	0.451888	-0.452264
C97	C	1.113160	0.387835	-0.388462
H98	H	0.957924	0.445498	-0.360013
H99	H	0.957919	0.359666	-0.446170
H100	H	1.081260	0.523501	-0.437784
H101	H	1.081289	0.437680	-0.523937
H102	H	1.097786	0.316205	-0.402934
H103	H	1.097784	0.402043	-0.316781
H104	H	1.175994	0.401791	-0.402414
H105	H	0.648107	0.494957	-0.495131
H106	H	1.494644	0.490891	-1.018174
H107	H	1.403222	1.011148	-0.378392
H108	H	1.494667	1.194918	-0.491103
H109	H	1.409621	1.185112	-0.374800
H110	H	1.199235	0.708421	-1.186693
C111	C	1.183619	0.725843	-0.971738
C112	C	1.203234	0.831115	-0.999696
C113	C	1.145604	0.894623	-0.941008
H114	H	1.122984	0.706497	-0.985612
H115	H	1.191868	0.716873	-0.899080
H116	H	1.194977	0.840080	-1.072337
H117	H	1.263858	0.850493	-0.985818
H118	H	1.153854	0.885652	-0.868350
H119	H	1.084973	0.875267	-0.954887
H120	H	1.158911	0.966057	-0.959962
C121	C	1.403300	0.347036	-1.006595
C122	C	1.388038	0.279582	-1.091113
C123	C	1.365002	0.178046	-1.053237
H124	H	1.451071	0.323096	-0.968476
H125	H	1.350238	0.347854	-0.961698
H126	H	1.441094	0.278760	-1.135992
H127	H	1.340263	0.303488	-1.129241
H128	H	1.311940	0.178864	-1.008340
H129	H	1.412777	0.154116	-1.015118
H130	H	1.354637	0.132268	-1.110575
