data_functionalizedCrystal
_audit_creation_method	'MofGen! by Chris Wilmer'
_symmetry_space_group_name_H-M	'P1'
_symmetry_Int_Tables_number	1
_symmetry_cell_setting	triclinic
loop_
_symmetry_equiv_pos_as_xyz
  x,y,z
_cell_length_a	10.685976
_cell_length_b	25.639239
_cell_length_c	10.686551
_cell_angle_alpha	94.409472
_cell_angle_beta	90.348485
_cell_angle_gamma	85.675737
loop_
_atom_site_label
_atom_site_type_symbol
_atom_site_fract_x
_atom_site_fract_y
_atom_site_fract_z
Zn1	Zn	1.971950	-0.252816	0.561842
Zn2	Zn	1.955626	-0.346416	0.352072
Zn3	Zn	1.746079	-0.251835	0.368217
Zn4	Zn	1.762078	-0.333053	0.577902
O5	O	1.858933	-0.296030	0.465008
O6	O	2.145313	-0.271235	0.520538
O7	O	1.914302	-0.339050	0.178671
O8	O	1.776176	-0.178803	0.393937
O9	O	2.133320	-0.340003	0.366421
O10	O	1.942123	-0.179524	0.536193
O11	O	1.760348	-0.269562	0.190533
O12	O	1.572672	-0.256605	0.409510
O13	O	1.803445	-0.317229	0.751314
O14	O	1.584427	-0.316277	0.563564
O15	O	1.957637	-0.258279	0.739515
O16	O	1.929816	-0.417805	0.381994
O17	O	1.787617	-0.407988	0.547909
C18	C	1.533037	-0.284885	0.490032
C19	C	1.393620	-0.280129	0.500768
C20	C	1.858718	-0.431867	0.464967
C21	C	1.858744	-0.489981	0.464983
C22	C	1.933196	-0.855452	0.378737
C23	C	1.933246	-0.910057	0.378750
O24	O	1.996324	-0.942631	0.305374
N25	N	1.859160	-0.932274	0.465074
C26	C	1.785029	-0.899882	0.551400
O27	O	1.722019	-0.923793	0.624828
C28	C	1.784987	-0.845278	0.551392
C29	C	1.859068	-0.823064	0.465053
C30	C	2.007272	-0.833238	0.292406
C31	C	2.007220	-0.778636	0.292391
C32	C	1.933092	-0.746249	0.378708
C33	C	1.859016	-0.768463	0.465039
C34	C	1.710864	-0.812887	0.637723
C35	C	1.710828	-0.758279	0.637708
C36	C	1.784909	-0.736066	0.551369
C37	C	1.784836	-0.681473	0.551341
N38	N	1.858922	-0.659256	0.465017
C39	C	1.933050	-0.691644	0.378700
C40	C	1.785125	-1.014555	0.551412
C41	C	1.785160	-1.069159	0.551416
C42	C	1.933379	-1.079330	0.378766
C43	C	1.933336	-1.024726	0.378758
C44	C	1.859211	-0.992339	0.465087
C45	C	1.932934	-0.576976	0.378676
C46	C	1.932872	-0.522369	0.378666
C47	C	1.784658	-0.512202	0.551319
C48	C	1.784715	-0.566805	0.551325
C49	C	1.858863	-0.599191	0.464999
O50	O	1.721793	-0.648867	0.624683
O51	O	1.996062	-0.667726	0.305295
C52	C	2.186102	-0.307219	0.439887
C53	C	2.325521	-0.311987	0.429182
C54	C	1.884147	-0.286373	0.792204
C55	C	1.894891	-0.282257	0.931635
C56	C	1.859186	-0.159663	0.465074
C57	C	1.859293	-0.101551	0.465103
C58	C	1.833890	-0.305614	0.139080
C59	C	1.823389	-0.309591	-0.000369
H60	H	1.373884	-0.342907	0.359680
H61	H	1.753956	-0.336142	0.951177
H62	H	1.964337	-0.255708	0.980095
H63	H	1.993742	-1.105711	0.308486
H64	H	1.345264	-0.249215	0.570276
O65	O	2.012791	-0.498409	0.285554
H66	H	1.983796	-0.511092	0.188728
O67	O	2.012894	-0.611903	0.285560
H68	H	2.064378	-0.587275	0.225525
O69	O	2.087146	-0.754683	0.199285
H70	H	2.058151	-0.767368	0.102460
O71	O	2.087228	-0.868170	0.199303
H72	H	2.058183	-0.859886	0.102481
O73	O	2.013250	-1.000767	0.285650
H74	H	2.064805	-1.032467	0.225641
O75	O	1.705250	-1.093116	0.644529
H76	H	1.653706	-1.061416	0.704548
H77	H	1.724753	-0.988188	0.621709
O78	O	1.630970	-0.836838	0.730853
H79	H	1.579439	-0.805136	0.790875
O80	O	1.630857	-0.723350	0.730812
H81	H	1.659878	-0.731635	0.827640
O82	O	1.704814	-0.590769	0.644441
H83	H	1.653264	-0.559072	0.704463
H84	H	1.724300	-0.485824	0.621594
