data_functionalizedCrystal
_audit_creation_method	'MofGen! by Chris Wilmer'
_symmetry_space_group_name_H-M	'P1'
_symmetry_Int_Tables_number	1
_symmetry_cell_setting	triclinic
loop_
_symmetry_equiv_pos_as_xyz
  x,y,z
_cell_length_a	10.686285
_cell_length_b	10.686220
_cell_length_c	10.685880
_cell_angle_alpha	89.641569
_cell_angle_beta	89.638885
_cell_angle_gamma	90.345431
loop_
_atom_site_label
_atom_site_type_symbol
_atom_site_fract_x
_atom_site_fract_y
_atom_site_fract_z
Zn1	Zn	-0.389334	1.999728	-0.530460
Zn2	Zn	-0.056000	2.333061	-0.197127
Zn3	Zn	0.277333	2.666394	0.136207
Zn4	Zn	-0.583279	1.997195	-0.304810
Zn5	Zn	-0.249946	2.330529	0.028523
Zn6	Zn	0.083387	2.663862	0.361857
Zn7	Zn	-0.391875	1.774036	-0.336574
Zn8	Zn	-0.058542	2.107370	-0.003241
Zn9	Zn	0.274791	2.440703	0.330093
Zn10	Zn	-0.614981	1.805850	-0.527983
Zn11	Zn	-0.281648	2.139183	-0.194650
Zn12	Zn	0.051685	2.472516	0.138683
O13	O	-0.494867	1.894202	-0.424957
O14	O	-0.161534	2.227536	-0.091623
O15	O	0.171799	2.560869	0.241710
O16	O	-0.400730	2.173923	-0.488270
O17	O	-0.067396	2.507256	-0.154937
O18	O	0.265937	2.840590	0.178397
O19	O	-0.545686	1.953219	-0.134483
O20	O	-0.212352	2.286552	0.198851
O21	O	0.120981	2.619886	0.532184
O22	O	-0.217001	1.791721	-0.376623
O23	O	0.116332	2.125054	-0.043290
O24	O	0.449666	2.458387	0.290043
O25	O	-0.543221	2.172063	-0.322486
O26	O	-0.209887	2.505396	0.010847
O27	O	0.123446	2.838729	0.344181
O28	O	-0.215133	1.957535	-0.519070
O29	O	0.118200	2.290868	-0.185737
O30	O	0.451533	2.624202	0.147596
O31	O	-0.405062	1.789265	-0.157820
O32	O	-0.071729	2.122599	0.175514
O33	O	0.261605	2.455932	0.508847
O34	O	-0.435802	1.603725	-0.374222
O35	O	-0.102469	1.937058	-0.040888
O36	O	0.230865	2.270392	0.292445
O37	O	-0.597252	1.845942	-0.702853
O38	O	-0.263919	2.179275	-0.369519
O39	O	0.069415	2.512608	-0.036186
O40	O	-0.599717	1.627098	-0.514849
O41	O	-0.266384	1.960431	-0.181516
O42	O	0.066950	2.293765	0.151817
O43	O	-0.431470	1.988383	-0.704672
O44	O	-0.098137	2.321716	-0.371339
O45	O	0.235197	2.655050	-0.038005
O46	O	-0.762022	1.984067	-0.320085
O47	O	-0.428689	2.317400	0.013249
O48	O	-0.095355	2.650734	0.346582
O49	O	-0.785313	1.843486	-0.484049
O50	O	-0.451980	2.176819	-0.150716
O51	O	-0.118647	2.510153	0.182618
C52	C	-0.521476	1.570158	-0.447714
C53	C	-0.188143	1.903491	-0.114381
C54	C	0.145190	2.236824	0.218952
C55	C	-0.532892	1.431534	-0.457477
C56	C	-0.199559	1.764868	-0.124144
C57	C	0.133775	2.098201	0.209189
C58	C	-0.818922	1.916990	-0.398376
C59	C	-0.485589	2.250323	-0.065043
C60	C	-0.152256	2.583657	0.268291
C61	C	-0.957548	1.926856	-0.387038
C62	C	-0.624215	2.260190	-0.053705
C63	C	-0.290881	2.593523	0.279628
C64	C	-0.169546	1.871362	-0.451666
C65	C	0.163787	2.204695	-0.118333
C66	C	0.497121	2.538028	0.215000
C67	C	-0.030914	1.861628	-0.463048
C68	C	0.302420	2.194962	-0.129715
C69	C	0.635753	2.528295	0.203619
C70	C	-0.517614	1.920993	-0.750284
C71	C	-0.184280	2.254327	-0.416951
C72	C	0.149053	2.587660	-0.083618
C73	C	-0.527307	1.932410	-0.888919
C74	C	-0.193974	2.265744	-0.555586
C75	C	0.139360	2.599077	-0.222253
C76	C	-0.468155	2.219512	-0.402111
C77	C	-0.134822	2.552846	-0.068778
C78	C	0.198511	2.886179	0.264556
C79	C	-0.456772	2.358140	-0.392376
C80	C	-0.123439	2.691473	-0.059042
C81	C	0.209894	3.024807	0.274291
C82	C	-0.472114	1.867581	-0.100897
C83	C	-0.138780	2.200914	0.232436
C84	C	0.194553	2.534247	0.565769
C85	C	-0.462049	1.856381	0.037725
C86	C	-0.128716	2.189714	0.371059
C87	C	0.204617	2.523047	0.704392
H88	H	-0.606806	1.388314	-0.520679
H89	H	-0.273472	1.721647	-0.187346
H90	H	0.059861	2.054981	0.145987
H91	H	-0.590598	2.006246	-0.932182
H92	H	-0.257265	2.339580	-0.598849
H93	H	0.076068	2.672913	-0.265515
H94	H	-0.382871	1.401355	-0.329169
H95	H	-0.049538	1.734688	0.004164
H96	H	0.283796	2.068021	0.337498
H97	H	-0.987674	1.798237	-0.536799
H98	H	-0.654340	2.131570	-0.203466
H99	H	-0.321007	2.464904	0.129868
H100	H	-1.000795	1.990242	-0.313276
H101	H	-0.667462	2.323576	0.020058
H102	H	-0.334128	2.656909	0.353391
O103	O	-0.378208	1.758580	-0.904992
O104	O	-0.044875	2.091913	-0.571659
O105	O	0.288459	2.425246	-0.238325
H106	H	-0.383485	1.764659	-0.801441
H107	H	-0.050152	2.097992	-0.468107
H108	H	0.283182	2.431325	-0.134774
