data_functionalizedCrystal
_audit_creation_method	'MofGen! by Chris Wilmer'
_symmetry_space_group_name_H-M	'P1'
_symmetry_Int_Tables_number	1
_symmetry_cell_setting	triclinic
loop_
_symmetry_equiv_pos_as_xyz
  x,y,z
_cell_length_a	10.685980
_cell_length_b	16.625545
_cell_length_c	10.686551
_cell_angle_alpha	85.592661
_cell_angle_beta	81.591741
_cell_angle_gamma	94.392107
loop_
_atom_site_label
_atom_site_type_symbol
_atom_site_fract_x
_atom_site_fract_y
_atom_site_fract_z
Zn1	Zn	1.995734	-0.180728	-0.866688
Zn2	Zn	2.495734	0.319272	-0.366688
Zn3	Zn	1.979269	-0.326801	-0.654412
Zn4	Zn	2.479269	0.173199	-0.154412
Zn5	Zn	1.767155	-0.203170	-0.638151
Zn6	Zn	2.267155	0.296830	-0.138151
Zn7	Zn	1.783392	-0.326723	-0.850323
Zn8	Zn	2.283392	0.173277	-0.350323
O9	O	1.881388	-0.259356	-0.752394
O10	O	2.381388	0.240644	-0.252394
O11	O	2.171187	-0.190746	-0.852184
O12	O	2.671187	0.309254	-0.352184
O13	O	1.937445	-0.319826	-0.474623
O14	O	2.437445	0.180174	0.025377
O15	O	1.797572	-0.087354	-0.668511
O16	O	2.297572	0.412646	-0.168511
O17	O	2.159089	-0.298065	-0.696226
O18	O	2.659089	0.201935	-0.196226
O19	O	1.965509	-0.070866	-0.836416
O20	O	2.465509	0.429134	-0.336416
O21	O	1.781606	-0.228995	-0.462675
O22	O	2.281606	0.271005	0.037325
O23	O	1.591673	-0.228919	-0.652641
O24	O	2.091673	0.271081	-0.152641
O25	O	1.825246	-0.297931	-1.030127
O26	O	2.325246	0.202069	-0.530127
O27	O	1.603602	-0.319692	-0.808523
O28	O	2.103602	0.180308	-0.308523
O29	O	1.981253	-0.190670	-1.042150
O30	O	2.481253	0.309330	-0.542150
O31	O	1.953190	-0.439630	-0.680357
O32	O	2.453190	0.060370	-0.180357
O33	O	1.809280	-0.439572	-0.824291
O34	O	2.309280	0.060428	-0.324291
C35	C	1.551578	-0.276733	-0.727043
C36	C	2.051578	0.223267	-0.227043
C37	C	1.410487	-0.284185	-0.716227
C38	C	1.910487	0.215815	-0.216227
C39	C	1.881247	-0.468856	-0.752343
C40	C	2.381247	0.031144	-0.252343
C41	C	1.881306	-0.558473	-0.752373
C42	C	2.381306	-0.058473	-0.252373
C43	C	1.881357	-0.631251	-0.752402
C44	C	2.381357	-0.131251	-0.252402
C45	C	1.881433	-0.722554	-0.752436
C46	C	2.381433	-0.222554	-0.252436
C47	C	1.881500	-0.795326	-0.752457
C48	C	2.381500	-0.295326	-0.252457
C49	C	1.881575	-0.886635	-0.752488
C50	C	2.381575	-0.386635	-0.252488
C51	C	2.212485	-0.241911	-0.777844
C52	C	2.712485	0.258089	-0.277844
C53	C	2.353579	-0.234477	-0.788690
C54	C	2.853579	0.265523	-0.288690
C55	C	1.906898	-0.241789	-1.083485
C56	C	2.406898	0.258211	-0.583485
C57	C	1.917769	-0.234303	-1.224576
C58	C	2.417769	0.265697	-0.724576
C59	C	1.881566	-0.049034	-0.752475
C60	C	2.381566	0.450966	-0.252475
C61	C	1.881642	0.040593	-0.752509
C62	C	2.381642	0.540593	-0.252509
C63	C	1.856050	-0.276792	-0.422597
C64	C	2.356050	0.223208	0.077403
C65	C	1.845425	-0.284038	-0.281525
C66	C	2.345425	0.215962	0.218475
H67	H	1.775175	-0.332348	-1.222343
H68	H	2.275175	0.167652	-0.722343
C69	C	2.012688	-0.169039	-1.304519
C70	C	2.512688	0.330961	-0.804519
H71	H	2.056622	-0.138846	-1.249872
H72	H	2.556622	0.361154	-0.749872
H73	H	1.968105	-0.133751	-1.352522
H74	H	2.468105	0.366249	-0.852522
H75	H	2.071917	-0.194265	-1.360469
H76	H	2.571917	0.305735	-0.860469
C77	C	1.330490	-0.349387	-0.621234
C78	C	1.830490	0.150613	-0.121234
H79	H	1.242974	-0.346018	-0.626184
H80	H	1.742974	0.153982	-0.126184
H81	H	1.345576	-0.340900	-0.537619
H82	H	1.845576	0.159100	-0.037619
H83	H	1.353558	-0.401473	-0.641318
H84	H	1.853558	0.098527	-0.141318
H85	H	1.412796	-0.186214	-0.859000
H86	H	1.912796	0.313786	-0.359000
