data_functionalizedCrystal
_audit_creation_method	'MofGen! by Chris Wilmer'
_symmetry_space_group_name_H-M	'P1'
_symmetry_Int_Tables_number	1
_symmetry_cell_setting	triclinic
loop_
_symmetry_equiv_pos_as_xyz
  x,y,z
_cell_length_a	16.109301
_cell_length_b	16.109301
_cell_length_c	7.540329
_cell_angle_alpha	90.004610
_cell_angle_beta	89.998886
_cell_angle_gamma	83.461481
loop_
_atom_site_label
_atom_site_type_symbol
_atom_site_fract_x
_atom_site_fract_y
_atom_site_fract_z
O1	O	1.103129	0.106866	0.147376
O2	O	1.603129	0.606866	0.647376
O3	O	0.861067	0.120165	0.147405
O4	O	1.361067	0.620165	0.647405
O5	O	0.988747	-0.007516	0.147372
O6	O	1.488747	0.492484	0.647372
O7	O	0.975448	0.234546	0.147409
O8	O	1.475448	0.734546	0.647409
O9	O	0.988743	-0.007517	-0.147594
O10	O	1.488743	0.492483	0.352406
O11	O	0.861062	0.120164	-0.147560
O12	O	1.361062	0.620164	0.352440
O13	O	1.103124	0.106865	-0.147589
O14	O	1.603124	0.606865	0.352411
Cu15	Cu	0.982093	0.113514	-0.174507
Cu16	Cu	1.482093	0.613514	0.325493
Cu17	Cu	0.982098	0.113515	0.174323
Cu18	Cu	1.482098	0.613515	0.674323
O19	O	0.975444	0.234545	-0.147556
O20	O	1.475444	0.734545	0.352444
C21	C	0.830090	0.119626	-0.000074
C22	C	1.330090	0.619626	0.499926
C23	C	0.737794	0.118011	-0.000064
C24	C	1.237794	0.618011	0.499936
C25	C	0.515522	0.190018	-0.000073
C26	C	1.015522	0.690018	0.499927
C27	C	0.428801	0.188494	-0.000085
C28	C	0.928801	0.688494	0.499915
C29	C	0.448676	0.037006	-0.000101
C30	C	0.948676	0.537006	0.499899
C31	C	0.535394	0.038530	-0.000102
C32	C	1.035394	0.538530	0.499898
C33	C	0.568815	0.115039	-0.000079
C34	C	1.068815	0.615039	0.499921
C35	C	0.395376	0.111990	-0.000090
C36	C	0.895376	0.611990	0.499910
C37	C	0.301350	0.110337	-0.000102
C38	C	0.801350	0.610337	0.499898
C39	C	0.662847	0.116693	-0.000070
C40	C	1.162847	0.616693	0.499930
C41	C	0.988206	-0.038491	-0.000112
C42	C	1.488206	0.461509	0.499888
C43	C	0.986591	-0.130786	-0.000114
C44	C	1.486591	0.369214	0.499886
C45	C	1.058599	-0.353059	-0.000095
C46	C	1.558599	0.146941	0.499905
C47	C	1.057075	-0.439779	-0.000080
C48	C	1.557075	0.060221	0.499920
C49	C	0.905586	-0.419905	-0.000069
C50	C	1.405586	0.080095	0.499931
C51	C	0.907111	-0.333186	-0.000071
C52	C	1.407111	0.166814	0.499929
C53	C	0.983620	-0.299766	-0.000093
C54	C	1.483620	0.200234	0.499907
C55	C	0.980571	-0.473205	-0.000076
C56	C	1.480571	0.026795	0.499924
C57	C	0.978918	-0.567231	-0.000060
C58	C	1.478918	-0.067231	0.499940
C59	C	0.985273	-0.205734	-0.000105
C60	C	1.485273	0.294266	0.499895
C61	C	1.134101	0.107404	-0.000106
C62	C	1.634101	0.607404	0.499894
C63	C	1.226397	0.109019	-0.000105
C64	C	1.726397	0.609019	0.499895
C65	C	0.975984	0.265521	-0.000069
C66	C	1.475984	0.765521	0.499931
C67	C	0.977600	0.357816	-0.000055
C68	C	1.477600	0.857816	0.499945
N69	N	0.982095	0.113513	-0.419856
N70	N	1.482095	0.613513	0.080144
N71	N	0.982102	0.113510	0.419672
N72	N	1.482102	0.613510	0.919672
H73	H	0.385413	0.249550	-0.000083
H74	H	0.885413	0.749550	0.499917
H75	H	1.118130	-0.483168	-0.000078
H76	H	1.618130	0.016832	0.499922
H77	H	0.843295	-0.447127	-0.000054
H78	H	1.343295	0.052873	0.499946
O79	O	0.548087	0.264283	-0.000299
O80	O	1.048087	0.764283	0.499701
C81	C	0.634422	0.353941	-0.153154
C82	C	1.134422	0.853941	0.346846
C83	C	0.597617	0.269798	-0.153095
C84	C	1.097617	0.769798	0.346905
H85	H	0.674461	0.358435	-0.276695
H86	H	1.174461	0.858435	0.223305
H87	H	0.674577	0.358459	-0.029793
H88	H	1.174577	0.858459	0.470207
H89	H	0.581420	0.407255	-0.153067
H90	H	1.081420	0.907255	0.346933
H91	H	0.650566	0.216436	-0.153244
H92	H	1.150566	0.716436	0.346756
H93	H	0.557440	0.265353	-0.276445
H94	H	1.057440	0.765353	0.223555
H95	H	0.421454	-0.025285	-0.000130
H96	H	0.921454	0.474715	0.499870
H97	H	0.578788	-0.022530	-0.000112
H98	H	1.078788	0.477470	0.499888
O99	O	0.834195	-0.281530	-0.000149
O100	O	1.334195	0.218470	0.499851
C101	C	0.683777	-0.270961	-0.000026
C102	C	1.183777	0.229039	0.499974
C103	C	0.766287	-0.329556	0.000011
C104	C	1.266287	0.170444	0.500011
H105	H	0.628852	-0.309766	0.000141
H106	H	1.128852	0.190234	0.500141
H107	H	0.680647	-0.229883	-0.123495
H108	H	1.180647	0.270117	0.376505
H109	H	0.680754	-0.229844	0.123389
H110	H	1.180754	0.270156	0.623389
H111	H	0.769365	-0.370725	-0.123321
H112	H	1.269365	0.129275	0.376679
H113	H	0.769382	-0.370577	0.123562
H114	H	1.269382	0.129423	0.623562
H115	H	1.120897	-0.325851	-0.000109
H116	H	1.620897	0.174149	0.499891
