data_functionalizedCrystal
_audit_creation_method	'MofGen! by Chris Wilmer'
_symmetry_space_group_name_H-M	'P1'
_symmetry_Int_Tables_number	1
_symmetry_cell_setting	triclinic
loop_
_symmetry_equiv_pos_as_xyz
  x,y,z
_cell_length_a	21.395362
_cell_length_b	18.050590
_cell_length_c	21.395355
_cell_angle_alpha	89.981964
_cell_angle_beta	89.956060
_cell_angle_gamma	90.034430
loop_
_atom_site_label
_atom_site_type_symbol
_atom_site_fract_x
_atom_site_fract_y
_atom_site_fract_z
Zn1	Zn	0.957912	-0.295431	-0.354588
Zn2	Zn	1.291246	0.037903	-0.021254
Zn3	Zn	1.624579	0.371236	0.312079
Zn4	Zn	0.957837	-0.419603	-0.249811
Zn5	Zn	1.291170	-0.086269	0.083522
Zn6	Zn	1.624504	0.247064	0.416856
Zn7	Zn	0.853127	-0.295465	-0.249789
Zn8	Zn	1.186461	0.037868	0.083544
Zn9	Zn	1.519794	0.371201	0.416878
Zn10	Zn	0.853119	-0.419618	-0.354516
Zn11	Zn	1.186452	-0.086284	-0.021183
Zn12	Zn	1.519785	0.247049	0.312151
O13	O	0.905499	-0.357529	-0.302176
O14	O	1.238832	-0.024196	0.031157
O15	O	1.572166	0.309138	0.364491
O16	O	1.045580	-0.311881	-0.340728
O17	O	1.378914	0.021452	-0.007395
O18	O	1.712247	0.354785	0.325938
O19	O	0.943919	-0.403143	-0.162130
O20	O	1.277253	-0.069810	0.171203
O21	O	1.610586	0.263523	0.504536
O22	O	0.867062	-0.191536	-0.263712
O23	O	1.200396	0.141797	0.069622
O24	O	1.533729	0.475131	0.402955
O25	O	1.045525	-0.403110	-0.263749
O26	O	1.378858	-0.069777	0.069584
O27	O	1.712192	0.263557	0.402917
O28	O	0.944048	-0.191511	-0.340707
O29	O	1.277381	0.141823	-0.007373
O30	O	1.610714	0.475156	0.325960
O31	O	0.866989	-0.311940	-0.162114
O32	O	1.200323	0.021393	0.171219
O33	O	1.533656	0.354726	0.504553
O34	O	0.765448	-0.311955	-0.263642
O35	O	1.098782	0.021378	0.069691
O36	O	1.432115	0.354711	0.403025
O37	O	0.867048	-0.403136	-0.442203
O38	O	1.200381	-0.069803	-0.108870
O39	O	1.533714	0.263531	0.224463
O40	O	0.765442	-0.403170	-0.340584
O41	O	1.098775	-0.069836	-0.007251
O42	O	1.432109	0.263497	0.326082
O43	O	0.944039	-0.311896	-0.442256
O44	O	1.277373	0.021437	-0.108923
O45	O	1.610706	0.354770	0.224411
O46	O	0.943911	-0.523529	-0.263680
O47	O	1.277244	-0.190196	0.069654
O48	O	1.610578	0.143138	0.402987
O49	O	0.866975	-0.523540	-0.340606
O50	O	1.200308	-0.190207	-0.007272
O51	O	1.533641	0.143126	0.326061
C52	C	0.742711	-0.357568	-0.302103
C53	C	1.076045	-0.024235	0.031230
C54	C	1.409378	0.309098	0.364563
C55	C	0.673070	-0.357603	-0.302087
C56	C	1.006403	-0.024270	0.031246
C57	C	1.339737	0.309064	0.364580
C58	C	0.640370	-0.405161	-0.342091
C59	C	0.973703	-0.071828	-0.008758
C60	C	1.307037	0.261505	0.324576
C61	C	0.574935	-0.405143	-0.342119
C62	C	0.908268	-0.071810	-0.008785
C63	C	1.241601	0.261524	0.324548
C64	C	0.542202	-0.357574	-0.302132
C65	C	0.875535	-0.024241	0.031202
C66	C	1.208868	0.309092	0.364535
C67	C	0.574910	-0.310007	-0.262125
C68	C	0.908243	0.023326	0.071208
C69	C	1.241576	0.356660	0.404542
C70	C	0.640344	-0.310021	-0.262103
C71	C	0.973677	0.023312	0.071231
C72	C	1.307010	0.356645	0.404564
C73	C	0.438476	-0.351592	-0.245726
C74	C	0.771809	-0.018258	0.087607
C75	C	1.105143	0.315075	0.420940
C76	C	0.373043	-0.351583	-0.245748
C77	C	0.706376	-0.018249	0.087586
C78	C	1.039710	0.315084	0.420919
C79	C	0.340381	-0.357526	-0.302201
C80	C	0.673714	-0.024193	0.031133
C81	C	1.007048	0.309141	0.364466
C82	C	0.373160	-0.363494	-0.358634
C83	C	0.706493	-0.030161	-0.025301
C84	C	1.039827	0.303173	0.308032
C85	C	0.438594	-0.363508	-0.358612
C86	C	0.771927	-0.030175	-0.025279
C87	C	1.105261	0.303158	0.308054
C88	C	0.471249	-0.357553	-0.302152
C89	C	0.804583	-0.024220	0.031182
C90	C	1.137916	0.309113	0.364515
C91	C	0.236728	-0.405067	-0.342238
C92	C	0.570062	-0.071734	-0.008905
C93	C	0.903395	0.261600	0.324428
C94	C	0.171292	-0.405044	-0.342267
C95	C	0.504625	-0.071710	-0.008934
C96	C	0.837959	0.261623	0.324399
C97	C	0.171268	-0.309911	-0.262268
C98	C	0.504601	0.023422	0.071065
C99	C	0.837935	0.356755	0.404399
C100	C	0.236703	-0.309931	-0.262245
C101	C	0.570037	0.023402	0.071089
C102	C	0.903370	0.356736	0.404422
C103	C	0.269430	-0.357513	-0.302229
C104	C	0.602763	-0.024179	0.031104
C105	C	0.936096	0.309154	0.364438
C106	C	0.905451	-0.550481	-0.302151
C107	C	1.238784	-0.217148	0.031182
C108	C	1.572117	0.116185	0.364516
C109	C	0.905487	-0.633027	-0.302161
C110	C	1.238821	-0.299694	0.031172
C111	C	1.572154	0.033640	0.364505
C112	C	0.947412	-0.832444	-0.260387
C113	C	1.280746	-0.499111	0.072946
C114	C	1.614079	-0.165778	0.406279
C115	C	0.962722	-0.881784	-0.317576
C116	C	1.296056	-0.548451	0.015757
C117	C	1.629389	-0.215118	0.349090
C118	C	0.905523	-0.784157	-0.302186
C119	C	1.238856	-0.450824	0.031147
C120	C	1.572190	-0.117491	0.364480
C121	C	0.890277	-0.881899	-0.245023
C122	C	1.223610	-0.548566	0.088311
C123	C	1.556943	-0.215232	0.421644
C124	C	0.905559	-0.930142	-0.302205
C125	C	1.238892	-0.596809	0.031128
C126	C	1.572225	-0.263476	0.364461
C127	C	0.920862	-0.832410	-0.359405
C128	C	1.254196	-0.499077	-0.026072
C129	C	1.587529	-0.165743	0.307261
C130	C	0.848390	-0.832520	-0.286813
C131	C	1.181724	-0.499187	0.046520
C132	C	1.515057	-0.165854	0.379853
C133	C	0.863678	-0.881838	-0.344042
C134	C	1.197012	-0.548505	-0.010708
C135	C	1.530345	-0.215171	0.322625
C136	C	0.905504	-0.700059	-0.302174
C137	C	1.238837	-0.366726	0.031159
C138	C	1.572171	-0.033392	0.364492
C139	C	0.905577	-1.014239	-0.302224
C140	C	1.238911	-0.680906	0.031110
C141	C	1.572244	-0.347572	0.364443
C142	C	1.068922	-0.357490	-0.302249
C143	C	1.402256	-0.024157	0.031084
C144	C	1.735589	0.309177	0.364417
C145	C	1.138563	-0.357474	-0.302281
C146	C	1.471897	-0.024140	0.031053
C147	C	1.805230	0.309193	0.364386
C148	C	0.905551	-0.357514	-0.465599
C149	C	1.238884	-0.024181	-0.132266
C150	C	1.572218	0.309153	0.201067
C151	C	0.905573	-0.357508	-0.535241
C152	C	1.238906	-0.024174	-0.201907
C153	C	1.572240	0.309159	0.131426
C154	C	0.905564	-0.163823	-0.302215
C155	C	1.238898	0.169510	0.031119
C156	C	1.572231	0.502843	0.364452
C157	C	0.905592	-0.081278	-0.302231
C158	C	1.238926	0.252056	0.031102
C159	C	1.572259	0.585389	0.364435
C160	C	0.945661	-0.309997	-0.567982
C161	C	1.278994	0.023336	-0.234649
C162	C	1.612327	0.356670	0.098684
C163	C	0.945660	-0.309965	-0.633418
C164	C	1.278993	0.023368	-0.300084
C165	C	1.612327	0.356702	0.033249
C166	C	0.905578	-0.357457	-0.666109
C167	C	1.238911	-0.024124	-0.332776
C168	C	1.572245	0.309210	0.000558
C169	C	0.865482	-0.404971	-0.633359
C170	C	1.198816	-0.071638	-0.300026
C171	C	1.532149	0.261696	0.033307
C172	C	0.865480	-0.404996	-0.567925
C173	C	1.198813	-0.071663	-0.234592
C174	C	1.532147	0.261671	0.098741
C175	C	0.900614	-0.424328	-0.769773
C176	C	1.233947	-0.090994	-0.436440
C177	C	1.567281	0.242339	-0.103107
C178	C	0.900621	-0.424304	-0.835206
C179	C	1.233954	-0.090970	-0.501873
C180	C	1.567287	0.242363	-0.168540
C181	C	0.905582	-0.357379	-0.867930
C182	C	1.238915	-0.024045	-0.534596
C183	C	1.572248	0.309288	-0.201263
C184	C	0.910549	-0.290475	-0.835212
C185	C	1.243882	0.042858	-0.501879
C186	C	1.577216	0.376191	-0.168546
C187	C	0.910547	-0.290501	-0.769778
C188	C	1.243880	0.042833	-0.436445
C189	C	1.577213	0.376166	-0.103111
C190	C	0.905576	-0.357434	-0.737061
C191	C	1.238909	-0.024101	-0.403728
C192	C	1.572242	0.309232	-0.070395
C193	C	0.945671	-0.309829	-0.971624
C194	C	1.279004	0.023504	-0.638291
C195	C	1.612337	0.356837	-0.304957
C196	C	0.945665	-0.309796	-1.037061
C197	C	1.278999	0.023537	-0.703727
C198	C	1.612332	0.356871	-0.370394
C199	C	0.865491	-0.404808	-1.037001
C200	C	1.198825	-0.071475	-0.703668
C201	C	1.532158	0.261858	-0.370335
C202	C	0.865493	-0.404835	-0.971566
C203	C	1.198827	-0.071502	-0.638232
C204	C	1.532160	0.261832	-0.304899
C205	C	0.905586	-0.357346	-0.938881
C206	C	1.238920	-0.024013	-0.605548
C207	C	1.572253	0.309320	-0.272214
C208	C	0.905483	-0.357490	-0.139388
C209	C	1.238816	-0.024157	0.193945
C210	C	1.572150	0.309176	0.527278
C211	C	0.905582	-0.357288	-0.069747
C212	C	1.238916	-0.023954	0.263586
C213	C	1.572249	0.309379	0.596919
H214	H	0.548305	-0.443870	-0.374697
H215	H	0.881638	-0.110537	-0.041364
H216	H	1.214972	0.222796	0.291970
Br217	Br	0.126852	-0.245346	-0.208004
Br218	Br	0.460185	0.087988	0.125329
Br219	Br	0.793519	0.421321	0.458662
Br220	Br	0.942482	-0.796338	-0.440015
Br221	Br	1.275816	-0.463004	-0.106681
Br222	Br	1.609149	-0.129671	0.226652
H223	H	0.832833	-0.443684	-0.541267
H224	H	1.166166	-0.110351	-0.207934
H225	H	1.499500	0.222983	0.125399
H226	H	0.263376	-0.443807	-0.374799
H227	H	0.596709	-0.110474	-0.041466
H228	H	0.930042	0.222860	0.291867
Br229	Br	0.804659	-0.917761	-0.403036
Br230	Br	1.137993	-0.584427	-0.069702
Br231	Br	1.471326	-0.251094	0.263631
H232	H	0.896406	-0.478812	-0.743135
H233	H	1.229740	-0.145479	-0.409802
H234	H	1.563073	0.187854	-0.076469
Br235	Br	1.000079	-0.245380	-0.927262
Br236	Br	1.333412	0.087953	-0.593929
Br237	Br	1.666746	0.421287	-0.260596
H238	H	0.800073	-0.810862	-0.273781
H239	H	1.133406	-0.477529	0.059552
H240	H	1.466740	-0.144196	0.392885
H241	H	0.877367	-0.903637	-0.196673
H242	H	1.210700	-0.570304	0.136661
H243	H	1.544034	-0.236970	0.469994
H244	H	0.465064	-0.346749	-0.199752
H245	H	0.798397	-0.013415	0.133581
H246	H	1.131730	0.319918	0.466914
Br247	Br	1.000070	-0.245546	-0.523627
Br248	Br	1.333403	0.087788	-0.190294
Br249	Br	1.666737	0.421121	0.143040
Br250	Br	0.811086	-0.469319	-0.927127
Br251	Br	1.144420	-0.135985	-0.593794
Br252	Br	1.477753	0.197348	-0.260461
Br253	Br	0.811085	-0.469254	-1.081361
Br254	Br	1.144418	-0.135920	-0.748027
Br255	Br	1.477752	0.197413	-0.414694
Br256	Br	0.483079	-0.371605	-0.435196
Br257	Br	0.816412	-0.038271	-0.101863
Br258	Br	1.149745	0.295062	0.231470
Br259	Br	0.328564	-0.343485	-0.169161
Br260	Br	0.661897	-0.010151	0.164173
Br261	Br	0.995230	0.323182	0.497506
Br262	Br	0.530488	-0.245443	-0.207861
Br263	Br	0.863822	0.087890	0.125472
Br264	Br	1.197155	0.421224	0.458805
H265	H	0.978303	-0.271272	-0.660081
H266	H	1.311636	0.062061	-0.326748
H267	H	1.644969	0.395394	0.006586
H268	H	0.667012	-0.443905	-0.374650
H269	H	1.000345	-0.110572	-0.041317
H270	H	1.333678	0.222762	0.292016
H271	H	0.914590	-0.236026	-0.743142
H272	H	1.247923	0.097307	-0.409809
H273	H	1.581256	0.430641	-0.076476
H274	H	0.982849	-0.810757	-0.225076
H275	H	1.316182	-0.477423	0.108258
H276	H	1.649515	-0.144090	0.441591
H277	H	0.144669	-0.443770	-0.374847
H278	H	0.478002	-0.110436	-0.041514
H279	H	0.811335	0.222897	0.291819
H280	H	0.666968	-0.271291	-0.229527
H281	H	1.000301	0.062042	0.103807
H282	H	1.333634	0.395375	0.437140
Br283	Br	0.917288	-0.199642	-0.879614
Br284	Br	1.250621	0.133691	-0.546281
Br285	Br	1.583954	0.467025	-0.212947
H286	H	0.896580	-0.478780	-0.861840
H287	H	1.229913	-0.145447	-0.528507
H288	H	1.563247	0.187886	-0.195173
Br289	Br	1.043280	-0.917836	-0.339283
Br290	Br	1.376613	-0.584502	-0.005950
Br291	Br	1.709946	-0.251169	0.327384
H292	H	0.978309	-0.271103	-1.063718
H293	H	1.311642	0.062230	-0.730384
H294	H	1.644975	0.395564	-0.397051
Br295	Br	0.811081	-0.469420	-0.677724
Br296	Br	1.144414	-0.136086	-0.344391
Br297	Br	1.477747	0.197247	-0.011058
H298	H	0.346568	-0.368332	-0.404604
H299	H	0.679901	-0.034999	-0.071271
H300	H	1.013235	0.298334	0.262062
Br301	Br	0.281085	-0.245384	-0.207950
Br302	Br	0.614419	0.087949	0.125383
Br303	Br	0.947752	0.421283	0.458717
