data_functionalizedCrystal
_audit_creation_method	'MofGen! by Chris Wilmer'
_symmetry_space_group_name_H-M	'P1'
_symmetry_Int_Tables_number	1
_symmetry_cell_setting	triclinic
loop_
_symmetry_equiv_pos_as_xyz
  x,y,z
_cell_length_a	16.109296
_cell_length_b	16.992695
_cell_length_c	15.186229
_cell_angle_alpha	90.009826
_cell_angle_beta	90.004927
_cell_angle_gamma	92.936244
loop_
_atom_site_label
_atom_site_type_symbol
_atom_site_fract_x
_atom_site_fract_y
_atom_site_fract_z
O1	O	-1.109849	0.100771	0.073188
O2	O	-0.868624	0.113317	0.073199
O3	O	-0.988270	-0.007099	0.073186
O4	O	-0.990204	0.221186	0.073200
O5	O	-0.988277	-0.007114	-0.073271
O6	O	-0.868631	0.113302	-0.073258
O7	O	-1.109857	0.100755	-0.073269
Zn8	Zn	-0.989245	0.107026	-0.096517
Zn9	Zn	-0.989236	0.107046	0.096447
O10	O	-0.990211	0.221171	-0.073257
C11	C	-0.837619	0.112802	-0.000029
C12	C	-0.745222	0.111280	-0.000024
C13	C	-0.440659	0.177758	-0.000038
C14	C	-0.527475	0.179195	-0.000032
C15	C	-0.537815	0.036328	-0.000029
C16	C	-0.451000	0.034892	-0.000028
C17	C	-0.402424	0.105609	-0.000037
C18	C	-0.576055	0.108482	-0.000032
C19	C	-0.670185	0.110039	-0.000026
C20	C	-0.308288	0.104052	-0.000042
C21	C	-0.985785	-0.036318	-0.000042
C22	C	-0.978362	-0.123360	-0.000041
C23	C	-1.049988	-0.173620	-0.000046
C24	C	-1.043008	-0.255405	-0.000037
C25	C	-0.964401	-0.286928	-0.000030
C26	C	-0.892770	-0.236662	-0.000024
C27	C	-0.899750	-0.154878	-0.000026
C28	C	-0.935468	-0.530518	-0.000017
C29	C	-0.928493	-0.612307	-0.000017
C30	C	-1.078732	-0.631045	-0.000029
C31	C	-1.085706	-0.549260	-0.000037
C32	C	-1.014074	-0.499001	-0.000025
N33	N	-0.957264	-0.370525	-0.000024
N34	N	-1.021212	-0.415405	-0.000025
C35	C	-0.140862	0.101275	-0.000042
C36	C	-0.233258	0.102811	-0.000045
C37	C	-0.992695	0.250390	-0.000027
C38	C	-1.000119	0.337432	-0.000021
N39	N	-0.989229	0.107055	0.228139
N40	N	-0.989258	0.107011	-0.228210
C41	C	-0.935763	0.059365	0.453861
C42	C	-0.935769	0.059356	0.546050
C43	C	-1.042730	0.154702	0.546062
C44	C	-1.042728	0.154707	0.453874
C45	C	-0.989239	0.107040	0.407776
C46	C	-0.989248	0.107026	0.592153
C47	C	-0.989254	0.107016	0.692110
C48	C	-0.989234	0.107048	0.307813
H49	H	-0.401110	0.235340	-0.000044
C50	C	-1.101551	0.207152	0.403173
H51	H	-1.093894	0.200321	0.341667
H52	H	-1.089560	0.260780	0.418294
H53	H	-1.157496	0.192695	0.418269
C54	C	-0.569530	0.258558	-0.000038
H55	H	-0.528163	0.300466	-0.000049
H56	H	-0.603176	0.262101	0.051035
H57	H	-0.603186	0.262076	-0.051117
H58	H	-0.419869	-0.023864	-0.000025
H59	H	-1.113998	-0.147961	-0.000056
C60	C	-0.876928	0.006934	0.403155
H61	H	-0.845084	-0.021463	0.443809
H62	H	-0.840738	0.038997	0.367208
H63	H	-0.908671	-0.029091	0.367178
C64	C	-0.591247	-0.041457	-0.000021
H65	H	-0.556039	-0.084632	-0.000011
H66	H	-0.625335	-0.043879	-0.051092
H67	H	-0.625321	-0.043853	0.051060
H68	H	-0.841424	-0.113957	-0.000022
C69	C	-1.121797	-0.310688	-0.000051
H70	H	-1.169612	-0.280201	-0.000068
H71	H	-1.122203	-0.342974	0.051022
H72	H	-1.122192	-0.342988	-0.051130
C73	C	-1.172173	-0.514590	-0.000032
H74	H	-1.213833	-0.556237	-0.000024
H75	H	-1.178026	-0.483082	-0.051104
H76	H	-1.178011	-0.483070	0.051048
C77	C	-1.157519	-0.686331	-0.000029
H78	H	-1.142107	-0.739553	-0.000018
H79	H	-1.189534	-0.676789	-0.051101
H80	H	-1.189519	-0.676766	0.051051
C81	C	-0.842021	-0.646981	0.000005
H82	H	-0.800359	-0.605336	0.000022
H83	H	-0.836169	-0.678505	-0.051065
H84	H	-0.836187	-0.678486	0.051087
C85	C	-1.101554	0.207140	0.596773
H86	H	-1.093891	0.200316	0.658277
H87	H	-1.157496	0.192692	0.581657
H88	H	-1.089552	0.260771	0.581677
H89	H	-0.877140	-0.489606	-0.000008
H90	H	-0.828766	-0.262334	-0.000013
C91	C	-0.876940	0.006918	0.596740
H92	H	-0.845083	-0.021463	0.556080
H93	H	-0.908681	-0.029109	0.632690
H94	H	-0.840750	0.038981	0.632715
