data_functionalizedCrystal
_audit_creation_method	'MofGen! by Chris Wilmer'
_symmetry_space_group_name_H-M	'P1'
_symmetry_Int_Tables_number	1
_symmetry_cell_setting	triclinic
loop_
_symmetry_equiv_pos_as_xyz
  x,y,z
_cell_length_a	10.654554
_cell_length_b	14.853567
_cell_length_c	9.730223
_cell_angle_alpha	90.003186
_cell_angle_beta	89.999081
_cell_angle_gamma	84.060887
loop_
_atom_site_label
_atom_site_type_symbol
_atom_site_fract_x
_atom_site_fract_y
_atom_site_fract_z
O1	O	1.666515	0.126641	-0.114302
O2	O	1.300912	0.138701	-0.114298
O3	O	1.493479	0.001494	-0.114304
O4	O	1.473948	0.263849	-0.114295
O5	O	1.493477	0.001499	0.114276
O6	O	1.300910	0.138706	0.114282
O7	O	1.666513	0.126647	0.114278
Zn8	Zn	1.483711	0.132677	0.150572
Zn9	Zn	1.483714	0.132670	-0.150592
O10	O	1.473945	0.263854	0.114284
C11	C	1.254122	0.137817	-0.000008
C12	C	1.114707	0.135165	-0.000007
C13	C	1.492593	-0.032097	-0.000018
C14	C	1.489941	-0.132195	-0.000030
C15	C	0.933036	0.049393	-0.000027
C16	C	1.064032	0.051885	-0.000013
C17	C	1.034378	0.215961	-0.000000
C18	C	0.903385	0.213469	-0.000004
C19	C	0.950157	-0.045335	-0.000041
C20	C	1.081153	-0.042844	-0.000027
C21	C	1.364341	-0.545403	-0.000002
C22	C	1.593116	-0.565456	-0.000005
C23	C	1.595609	-0.471409	-0.000013
C24	C	1.482467	-0.414354	-0.000014
C25	C	1.366831	-0.451346	-0.000006
C26	C	1.711243	-0.434409	-0.000006
C27	C	1.713741	-0.340357	-0.000013
C28	C	1.600598	-0.283300	-0.000024
C29	C	1.484957	-0.320298	-0.000018
C30	C	1.371815	-0.263243	-0.000019
C31	C	1.256173	-0.300239	-0.000023
C32	C	1.253688	-0.394290	-0.000017
C33	C	1.603083	-0.189250	-0.000029
C34	C	1.374305	-0.169187	-0.000023
C35	C	1.713302	0.127530	-0.000015
C36	C	1.852718	0.130182	-0.000025
C37	C	1.474831	0.297445	-0.000005
C38	C	1.477483	0.397543	-0.000002
N39	N	1.483718	0.132682	0.356109
C40	C	1.569008	0.071948	0.428032
C41	C	1.569005	0.071938	0.571915
C42	C	1.398417	0.193404	0.571939
C43	C	1.398415	0.193409	0.428058
C44	C	1.667500	0.001823	0.428019
C45	C	1.667497	0.001813	0.571902
N46	N	1.483716	0.132667	0.643872
H47	H	1.075648	0.283770	0.000018
H48	H	1.637664	-0.063670	0.616516
N49	N	0.911755	-0.094406	0.126653
H50	H	0.989101	-0.114502	0.183200
H51	H	0.851452	-0.052439	0.183091
H52	H	1.803357	-0.480870	0.000007
H53	H	1.328964	0.242846	0.630535
N54	N	0.816754	0.300604	0.000137
H55	H	0.868732	0.353740	0.000187
H56	H	0.761706	0.303203	-0.084561
N57	N	0.903364	-0.085294	-0.130768
H58	H	0.977103	-0.102769	-0.193929
H59	H	0.859985	-0.140740	-0.107941
H60	H	1.646777	-0.067473	0.388963
N61	N	1.787974	0.030907	0.368890
H62	H	1.846186	0.044955	0.446146
H63	H	1.830596	-0.019502	0.310428
N64	N	1.795118	0.022275	0.623638
H65	H	1.813535	0.083666	0.589087
H66	H	1.795081	0.022224	0.727434
H67	H	1.127088	-0.071466	0.098672
N68	N	1.136966	-0.090123	-0.126732
H69	H	1.099689	-0.058533	-0.211524
H70	H	1.231468	-0.088340	-0.126643
N71	N	1.727796	-0.149348	-0.000012
H72	H	1.712207	-0.081110	-0.000012
H73	H	1.777291	-0.170164	0.084738
N74	N	1.239615	-0.585293	0.000007
H75	H	1.190042	-0.564542	-0.084726
H76	H	1.255300	-0.653525	0.000060
N77	N	1.715142	-0.626988	0.000018
H78	H	1.696018	-0.692182	0.000029
H79	H	1.765534	-0.614939	-0.084720
N80	N	1.134144	-0.238699	0.000012
H81	H	1.153277	-0.173506	0.000024
H82	H	1.083742	-0.250747	-0.084720
N83	N	1.128970	-0.434191	-0.000016
H84	H	1.144564	-0.502429	-0.000005
H85	H	1.079456	-0.413366	0.084723
H86	H	1.282170	-0.122738	-0.000029
H87	H	1.807903	-0.310243	-0.000012
H88	H	1.328954	0.242855	0.369499
