data_functionalizedCrystal
_audit_creation_method	'MofGen! by Chris Wilmer'
_symmetry_space_group_name_H-M	'P1'
_symmetry_Int_Tables_number	1
_symmetry_cell_setting	triclinic
loop_
_symmetry_equiv_pos_as_xyz
  x,y,z
_cell_length_a	9.065218
_cell_length_b	10.654550
_cell_length_c	9.730223
_cell_angle_alpha	90.000043
_cell_angle_beta	89.997438
_cell_angle_gamma	95.249592
loop_
_atom_site_label
_atom_site_type_symbol
_atom_site_fract_x
_atom_site_fract_y
_atom_site_fract_z
O1	O	0.207235	-1.668660	-0.114181
O2	O	0.226979	-1.303260	-0.114206
O3	O	0.002423	-1.493512	-0.114190
O4	O	0.431790	-1.478407	-0.114197
O5	O	0.002417	-1.493500	0.114390
O6	O	0.226972	-1.303247	0.114374
O7	O	0.207228	-1.668647	0.114399
Zn8	Zn	0.217099	-1.485945	0.150678
Zn9	Zn	0.217108	-1.485962	-0.150486
O10	O	0.431784	-1.478395	0.114383
C11	C	0.225526	-1.256450	0.000081
C12	C	0.221188	-1.116989	0.000071
C13	C	-0.052559	-1.492055	0.000097
C14	C	-0.216378	-1.487714	0.000091
N15	N	0.217093	-1.485943	0.356215
C16	C	0.486766	-1.479852	0.000092
C17	C	0.650585	-1.484193	0.000090
C18	C	0.208681	-1.715457	0.000109
C19	C	0.213019	-1.854918	0.000109
C20	C	0.353403	-1.038027	0.000073
C21	C	0.349319	-0.906990	0.000097
C22	C	0.080794	-0.933890	0.000112
C23	C	0.084879	-1.064924	0.000098
N24	N	0.217102	-1.485973	-0.356022
C25	C	0.117702	-1.570217	0.428148
C26	C	0.117703	-1.570229	0.572031
C27	C	0.316498	-1.401691	0.572035
C28	C	0.316489	-1.401674	0.428155
H29	H	0.464395	-1.080414	0.000062
O30	O	0.477891	-0.830468	0.000033
C31	C	0.599068	-0.904527	0.000044
H32	H	0.562616	-1.001870	-0.043242
H33	H	0.640790	-0.914341	0.109700
C34	C	0.769090	-0.721113	-0.036433
C35	C	0.724321	-0.840668	-0.089610
H36	H	0.846355	-0.681721	-0.091730
H37	H	0.687452	-0.671217	-0.036436
H38	H	0.803848	-0.729309	0.054946
H39	H	0.689546	-0.832470	-0.180980
H40	H	0.805956	-0.890562	-0.089625
O41	O	-0.043701	-1.141456	0.000033
C42	C	-0.164887	-1.067408	0.000082
H43	H	-0.128447	-0.970055	-0.043188
H44	H	-0.206601	-1.057617	0.109747
C45	C	-0.334892	-1.250826	-0.036411
C46	C	-0.290140	-1.131258	-0.089567
H47	H	-0.412158	-1.290213	-0.091705
H48	H	-0.253249	-1.300715	-0.036439
H49	H	-0.369645	-1.242650	0.054976
H50	H	-0.255371	-1.139436	-0.180945
H51	H	-0.371781	-1.081371	-0.089556
O52	O	0.021002	-1.652110	0.358477
C53	C	-0.066698	-1.726513	0.452828
H54	H	-0.068919	-1.675014	0.555398
H55	H	-0.017770	-1.820356	0.468112
C56	C	-0.222866	-1.813842	0.270712
C57	C	-0.225603	-1.750584	0.396687
H58	H	-0.320884	-1.828696	0.236081
H59	H	-0.163777	-1.763719	0.207145
H60	H	-0.182085	-1.892037	0.283466
H61	H	-0.266365	-1.672385	0.383929
H62	H	-0.284702	-1.800695	0.460252
O63	O	0.413104	-1.319718	0.641708
C64	C	0.500848	-1.245350	0.547359
H65	H	0.440333	-1.243239	0.444802
H66	H	0.610907	-1.287361	0.532040
C67	C	0.604097	-1.112808	0.729490
C68	C	0.529765	-1.110206	0.603532
H69	H	0.621941	-1.029447	0.764141
H70	H	0.544987	-1.162914	0.793056
H71	H	0.695804	-1.147823	0.716707
H72	H	0.438052	-1.075207	0.616319
H73	H	0.588861	-1.060092	0.539969
H74	H	0.036768	-1.638850	0.630594
H75	H	0.397426	-1.333042	0.369583
H76	H	-0.030185	-0.891482	0.000141
