data_functionalizedCrystal
_audit_creation_method	'MofGen! by Chris Wilmer'
_symmetry_space_group_name_H-M	'P1'
_symmetry_Int_Tables_number	1
_symmetry_cell_setting	triclinic
loop_
_symmetry_equiv_pos_as_xyz
  x,y,z
_cell_length_a	18.760490
_cell_length_b	14.809374
_cell_length_c	14.809374
_cell_angle_alpha	61.589507
_cell_angle_beta	98.970713
_cell_angle_gamma	55.155042
loop_
_atom_site_label
_atom_site_type_symbol
_atom_site_fract_x
_atom_site_fract_y
_atom_site_fract_z
Zr1	Zr	0.502934	1.187986	-0.307029
O2	O	0.339047	1.414246	-0.488656
O3	O	0.575487	0.961667	-0.226621
O4	O	0.519891	1.187996	-0.452988
O5	O	0.413118	1.187929	-0.111857
O6	O	0.637161	1.188070	-0.452982
O7	O	0.394644	1.187917	-0.262289
O8	O	0.736613	0.783209	-0.048054
O9	O	0.313665	1.592790	-0.516786
O10	O	0.666989	1.054832	-0.222201
O11	O	0.593259	1.054785	-0.109939
O12	O	0.527801	1.321259	-0.376457
O13	O	0.454070	1.321212	-0.264195
Zr14	Zr	0.719429	1.188122	-0.067097
Zr15	Zr	0.689966	1.188103	-0.307020
Zr16	Zr	0.532397	1.188004	-0.067106
Zr17	Zr	0.462452	1.472743	-0.351892
Zr18	Zr	0.759911	0.903365	-0.022234
O19	O	0.646876	1.414440	-0.147505
O20	O	0.604983	1.414414	-0.488643
O21	O	0.380940	1.414273	-0.147518
O22	O	0.883316	0.961861	0.114530
O23	O	0.841423	0.961835	-0.226608
O24	O	0.617380	0.961694	0.114517
O25	O	0.809246	1.188179	-0.262269
O26	O	0.702473	1.188111	0.078862
O27	O	0.585203	1.188037	0.078857
O28	O	0.827719	1.188190	-0.111837
O29	O	0.462331	1.592884	-0.516779
O30	O	0.760032	0.783224	0.142653
O31	O	0.908698	0.783317	0.142660
O32	O	0.885279	0.783302	-0.048046
O33	O	0.337085	1.592805	-0.326080
O34	O	0.485750	1.592899	-0.326072
O35	O	0.694563	1.054849	0.002331
O36	O	0.768293	1.054896	-0.109931
O37	O	0.629105	1.321322	-0.264187
O38	O	0.555374	1.321276	-0.151925
C39	C	0.661818	0.831866	-0.130945
C40	C	0.679003	0.710979	-0.111900
C41	C	0.602307	0.750517	-0.196899
C42	C	0.620067	0.625577	-0.177216
C43	C	0.377233	1.187906	-0.187075
C44	C	0.297833	1.187856	-0.187078
C45	C	-0.048373	1.188205	-0.269929
C46	C	-0.027901	1.188217	-0.104172
C47	C	0.046753	1.188141	-0.104178
C48	C	0.073850	1.188094	-0.187060
C49	C	0.026291	1.188124	-0.269935
C50	C	0.094326	1.188096	-0.021296
C51	C	0.168987	1.188018	-0.021298
C52	C	0.196078	1.187982	-0.104186
C53	C	0.148514	1.188013	-0.187066
C54	C	0.175610	1.187967	-0.269948
C55	C	0.128041	1.188009	-0.352835
C56	C	0.053383	1.188088	-0.352824
C57	C	0.270736	1.187903	-0.104197
C58	C	0.250274	1.187886	-0.269954
C59	C	0.845131	1.188201	-0.187051
C60	C	0.924531	1.188251	-0.187048
C61	C	0.574328	1.188031	-0.487169
C62	C	0.561820	1.188023	-0.589022
C63	C	0.560545	1.544241	-0.243181
C64	C	0.543360	1.665128	-0.262226
C65	C	0.617641	1.188058	-0.634429
C66	C	0.604715	1.188050	-0.739700
C67	C	0.648036	1.188077	0.113043
C68	C	0.660543	1.188085	0.214896
C69	C	0.895767	0.832014	-0.130934
C70	C	0.992352	0.711177	-0.111884
C71	C	0.698672	0.831889	0.169161
C72	C	0.728365	0.711011	0.290060
C73	C	0.932621	0.832037	0.169172
C74	C	1.041714	0.711208	0.290075
C75	C	0.289743	1.544071	-0.543298
C76	C	0.180649	1.664900	-0.664201
C77	C	0.326597	1.544094	-0.243192
C78	C	0.230011	1.664931	-0.262242
C79	C	0.523692	1.544218	-0.543287
C80	C	0.493998	1.665097	-0.664186
C81	C	0.984829	0.654397	-0.161552
C82	C	1.075570	0.540874	-0.143678
C83	C	1.173834	0.484125	-0.076127
C84	C	1.181354	0.540915	-0.026459
C85	C	1.090613	0.654444	-0.044342
C86	C	0.795190	0.654278	0.405449
C87	C	0.823086	0.540715	0.519054
C88	C	0.784161	0.483879	0.517267
C89	C	0.717328	0.540623	0.401864
C90	C	0.689427	0.654192	0.288262
C91	C	1.131440	0.654490	0.288253
C92	C	1.233949	0.540974	0.401843
C93	C	1.246730	0.484171	0.517254
C94	C	1.156994	0.540900	0.519072
C95	C	1.054486	0.654422	0.405483
C96	C	0.090921	1.721632	-0.662381
C97	C	-0.011593	1.835183	-0.775977
C98	C	-0.024375	1.891992	-0.891389
C99	C	0.065363	1.835255	-0.893206
C100	C	0.167873	1.721714	-0.779613
C101	C	0.237531	1.721722	-0.212586
C102	C	0.146783	1.835277	-0.230491
C103	C	0.048518	1.892030	-0.298046
C104	C	0.040999	1.835234	-0.347709
C105	C	0.131744	1.721689	-0.329810
C106	C	0.532941	1.721897	-0.662358
C107	C	0.505061	1.835460	-0.775944
C108	C	0.438232	1.892230	-0.891358
C109	C	0.399290	1.835419	-0.893182
C110	C	0.427176	1.721850	-0.779596
H111	H	0.757815	0.584633	-0.024559
Cl112	Cl	0.280668	1.650396	-0.781922
H113	H	0.344875	1.881658	-0.987168
H114	H	0.685641	0.494331	0.400429
H115	H	1.069427	0.494649	-0.184126
Cl116	Cl	0.819249	0.341103	0.660095
H117	H	0.272326	1.187856	-0.337451
H118	H	0.587356	1.675693	-0.568393
Cl119	Cl	0.473263	1.187955	-0.649315
Cl120	Cl	0.741759	0.430506	-0.042359
H121	H	0.150116	1.187961	-0.420312
Cl122	Cl	0.228778	1.187972	0.082895
H123	H	0.523498	0.876864	-0.284244
H124	H	0.317537	1.675522	-0.157570
Cl125	Cl	0.330539	1.187836	0.000004
H126	H	1.247713	0.391681	-0.061574
Cl127	Cl	0.403181	2.035010	-1.034143
H128	H	0.981434	0.700587	0.406985
Cl129	Cl	0.156261	1.906647	-0.168042
Cl130	Cl	0.378197	1.650473	-0.781919
H131	H	-0.025364	1.984486	-0.312611
Cl132	Cl	0.554021	1.906865	-0.773622
Cl133	Cl	0.421675	0.860197	-0.397096
Cl134	Cl	0.106963	1.650237	-0.517307
H135	H	0.014649	1.188120	-0.420306
Cl136	Cl	0.861306	0.725722	-0.246485
Cl137	Cl	-0.108174	1.188266	-0.374130
Cl138	Cl	-0.061956	1.188261	0.000026
Cl139	Cl	0.060271	1.188140	0.082903
Cl140	Cl	1.304897	0.469550	0.058466
H141	H	-0.084648	1.881359	-0.774472
Cl142	Cl	-0.153254	2.034729	-1.034182
Cl143	Cl	0.706211	1.188102	-0.574125
Cl144	Cl	0.605421	0.725490	0.143208
H145	H	0.547355	1.188005	-0.778751
Cl146	Cl	0.749117	1.188129	-0.724801
H147	H	1.096754	0.700660	-0.003886
H148	H	0.826893	0.700541	0.406928
H149	H	0.054942	1.881524	-0.987188
H150	H	0.877508	0.494528	0.613007
Cl151	Cl	1.115399	0.725886	0.143178
H152	H	1.307005	0.494796	0.400341
H153	H	1.330205	0.391734	0.609737
Cl154	Cl	1.173080	0.469472	0.664173
H155	H	-0.039021	1.881460	-0.402713
Cl156	Cl	0.122274	1.650298	-0.392235
