data_functionalizedCrystal
_audit_creation_method	'MofGen! by Chris Wilmer'
_symmetry_space_group_name_H-M	'P1'
_symmetry_Int_Tables_number	1
_symmetry_cell_setting	triclinic
loop_
_symmetry_equiv_pos_as_xyz
  x,y,z
_cell_length_a	12.645331
_cell_length_b	18.050589
_cell_length_c	12.645323
_cell_angle_alpha	89.974557
_cell_angle_beta	89.977324
_cell_angle_gamma	90.027200
loop_
_atom_site_label
_atom_site_type_symbol
_atom_site_fract_x
_atom_site_fract_y
_atom_site_fract_z
Zn1	Zn	1.620654	-0.295674	-0.599442
Zn2	Zn	1.620503	-0.419873	-0.422180
Zn3	Zn	1.443368	-0.295699	-0.422186
Zn4	Zn	1.443317	-0.419824	-0.599396
O5	O	1.531961	-0.357767	-0.510801
O6	O	1.768981	-0.312159	-0.575945
O7	O	1.596964	-0.403432	-0.273834
O8	O	1.466970	-0.191771	-0.445722
O9	O	1.768870	-0.403407	-0.445711
O10	O	1.597221	-0.191753	-0.575951
O11	O	1.466824	-0.312202	-0.273838
O12	O	1.295014	-0.312155	-0.445677
O13	O	1.466883	-0.403325	-0.747749
O14	O	1.294977	-0.403349	-0.575872
O15	O	1.597172	-0.312112	-0.747783
O16	O	1.596914	-0.523791	-0.445666
O17	O	1.466737	-0.523755	-0.575866
C18	C	1.256531	-0.357750	-0.510770
C19	C	1.138701	-0.357760	-0.510783
C20	C	0.971125	-0.300126	-0.429329
C21	C	1.093685	-0.300275	-0.428970
C22	C	1.094160	-0.435993	-0.480267
C23	C	0.971562	-0.435678	-0.479711
C24	C	0.971557	-0.337906	-0.623067
C25	C	1.094163	-0.336158	-0.622443
C26	C	1.531833	-0.550720	-0.510784
C27	C	1.531875	-0.633265	-0.510811
C28	C	1.461154	-0.832724	-0.581589
C29	C	1.435307	-0.882166	-0.484854
C30	C	1.531979	-0.784396	-0.510825
C31	C	1.557878	-0.882035	-0.607571
C32	C	1.532078	-0.930381	-0.510847
C33	C	1.506082	-0.832751	-0.414039
C34	C	1.628697	-0.832616	-0.536821
C35	C	1.602887	-0.882036	-0.440020
C36	C	1.531919	-0.700297	-0.510814
C37	C	1.532137	-1.014477	-0.510847
C38	C	1.808466	-0.357786	-0.510832
C39	C	1.926296	-0.357793	-0.510846
C40	C	1.532039	-0.357710	-0.787307
C41	C	1.532072	-0.357686	-0.905137
C42	C	1.532118	-0.164062	-0.510842
C43	C	1.532185	-0.081516	-0.510859
C44	C	1.449855	-0.414797	-1.072679
C45	C	1.450070	-0.415080	-0.950119
C46	C	1.643766	-0.378927	-0.949656
C47	C	1.643315	-0.379285	-1.072254
C48	C	1.503651	-0.279014	-1.072336
C49	C	1.501159	-0.279485	-0.949729
C50	C	1.531944	-0.357771	-0.235371
C51	C	1.532116	-0.357586	-0.117542
H52	H	1.123318	-0.480108	-0.537776
O53	O	0.935827	-0.230741	-0.451849
C54	C	0.784595	-0.150921	-0.472885
C55	C	0.824429	-0.229528	-0.447320
H56	H	0.694526	-0.149918	-0.469254
H57	H	0.818038	-0.110115	-0.412770
H58	H	0.811742	-0.134545	-0.555640
H59	H	0.797296	-0.245974	-0.364593
H60	H	0.790994	-0.270288	-0.507502
O61	O	0.935994	-0.488624	-0.547432
C62	C	0.784364	-0.548945	-0.624268
C63	C	0.824493	-0.488944	-0.547570
H64	H	0.694211	-0.549235	-0.624388
H65	H	0.814496	-0.536629	-0.707422
H66	H	0.814688	-0.605434	-0.597715
H67	H	0.794184	-0.432432	-0.574026
H68	H	0.794371	-0.501325	-0.464433
H69	H	1.579744	-0.903684	-0.689379
H70	H	1.662823	-0.903551	-0.380117
H71	H	0.942911	-0.452544	-0.397672
O72	O	1.574975	-0.228073	-1.106994
C73	C	1.603226	-0.115182	-1.204804
C74	C	1.522334	-0.172799	-1.165595
H75	H	1.560699	-0.070488	-1.252210
H76	H	1.644563	-0.088817	-1.134097
H77	H	1.664322	-0.143623	-1.257197
H78	H	1.461174	-0.144415	-1.113221
H79	H	1.481077	-0.199162	-1.236351
O80	O	1.403168	-0.260240	-0.914971
C81	C	1.298680	-0.172474	-0.816564
C82	C	1.409708	-0.194172	-0.855886
H83	H	1.303933	-0.119065	-0.768767
H84	H	1.244144	-0.163694	-0.887231
H85	H	1.265773	-0.218639	-0.764519
H86	H	1.442710	-0.148034	-0.907912
H87	H	1.464171	-0.202977	-0.785171
H88	H	1.367244	-0.401788	-0.920018
O89	O	1.128714	-0.267423	-0.649857
C90	C	1.080494	-0.142469	-0.696445
C91	C	1.041216	-0.220274	-0.665395
H92	H	1.009772	-0.104331	-0.709038
H93	H	1.132504	-0.119334	-0.630647
H94	H	1.128294	-0.146159	-0.772716
H95	H	0.993372	-0.216648	-0.589150
H96	H	0.989262	-0.243379	-0.731256
H97	H	1.366784	-0.401633	-1.102153
O98	O	1.726162	-0.806661	-0.563265
C99	C	1.863636	-0.802316	-0.695139
C100	C	1.753238	-0.831746	-0.665321
H101	H	1.885571	-0.822598	-0.777643
H102	H	1.862863	-0.739164	-0.694183
H103	H	1.924241	-0.823441	-0.635621
H104	H	1.692572	-0.810677	-0.724810
H105	H	1.754100	-0.894897	-0.666244
O106	O	1.472613	-0.484593	-0.915316
C107	C	1.513241	-0.610618	-0.963133
C108	C	1.487724	-0.531926	-1.002690
H109	H	1.525443	-0.648913	-1.033753
H110	H	1.588346	-0.609232	-0.913330
H111	H	1.444740	-0.631979	-0.913016
H112	H	1.556158	-0.510517	-1.052850
H113	H	1.412584	-0.533358	-1.052435
H114	H	0.942567	-0.379909	-0.683804
H115	H	1.468461	-0.472682	-1.103498
O116	O	0.934378	-0.315502	-0.330639
C117	C	0.933583	-0.280931	-0.146605
C118	C	0.975257	-0.263421	-0.258316
H119	H	0.966634	-0.238844	-0.088097
H120	H	0.843529	-0.277981	-0.146386
H121	H	0.959794	-0.338974	-0.122621
H122	H	0.949123	-0.205379	-0.282369
H123	H	1.065307	-0.266422	-0.258474
O124	O	1.672067	-0.447856	-1.106215
C125	C	1.724582	-0.571432	-1.056867
C126	C	1.692013	-0.493811	-1.018270
H127	H	1.740738	-0.608603	-0.985783
H128	H	1.658033	-0.596263	-1.106273
H129	H	1.799164	-0.566876	-1.107132
H130	H	1.617456	-0.498303	-0.967963
H131	H	1.758624	-0.469008	-0.968920
H132	H	1.124810	-0.375097	-0.686428
H133	H	1.353563	-0.903947	-0.462887
H134	H	1.123801	-0.242262	-0.448097
O135	O	1.718969	-0.330899	-0.914853
C136	C	1.881169	-0.315439	-0.817356
C137	C	1.796093	-0.369913	-0.856727
H138	H	1.943533	-0.346958	-0.770335
H139	H	1.920094	-0.287129	-0.887967
H140	H	1.842814	-0.271887	-0.764555
H141	H	1.834366	-0.413508	-0.909509
H142	H	1.757175	-0.398167	-0.786068
O143	O	1.389458	-0.806920	-0.652761
C144	C	1.206533	-0.802934	-0.705772
C145	C	1.287614	-0.832193	-0.625089
H146	H	1.124177	-0.823368	-0.683441
H147	H	1.207602	-0.739780	-0.705633
H148	H	1.227815	-0.824037	-0.788027
H149	H	1.266388	-0.811145	-0.542795
H150	H	1.286529	-0.895345	-0.625321
H151	H	1.124811	-0.453148	-0.399108
O152	O	1.479849	-0.806913	-0.316490
C153	C	1.450431	-0.699641	-0.207022
C154	C	1.480133	-0.728803	-0.317547
H155	H	1.450673	-0.636487	-0.207834
H156	H	1.368255	-0.720440	-0.184709
H157	H	1.510457	-0.720416	-0.146671
H158	H	1.420179	-0.708040	-0.377971
H159	H	1.562336	-0.708011	-0.339770
H160	H	1.556698	-0.234606	-0.919109
O161	O	1.408126	-0.255879	-1.109019
C162	C	1.230840	-0.217988	-1.064842
C163	C	1.338980	-0.244152	-1.023149
H164	H	1.174898	-0.208514	-0.995438
H165	H	1.241201	-0.164044	-1.110618
H166	H	1.196339	-0.262091	-1.119353
H167	H	1.373540	-0.200101	-0.968596
H168	H	1.328552	-0.298114	-0.977433
H169	H	1.706683	-0.339424	-1.101934
H170	H	1.668310	-0.435763	-0.918967
H171	H	0.940675	-0.281854	-0.650819
H172	H	1.122959	-0.313420	-0.345809
