data_functionalizedCrystal
_audit_creation_method	'MofGen! by Chris Wilmer'
_symmetry_space_group_name_H-M	'P1'
_symmetry_Int_Tables_number	1
_symmetry_cell_setting	triclinic
loop_
_symmetry_equiv_pos_as_xyz
  x,y,z
_cell_length_a	19.288840
_cell_length_b	23.532407
_cell_length_c	17.766277
_cell_angle_alpha	89.985132
_cell_angle_beta	89.983415
_cell_angle_gamma	82.987380
loop_
_atom_site_label
_atom_site_type_symbol
_atom_site_fract_x
_atom_site_fract_y
_atom_site_fract_z
O1	O	0.921145	0.070977	-0.062734
O2	O	1.421145	0.570977	0.437266
O3	O	0.718853	0.080576	-0.062710
O4	O	1.218853	0.580576	0.437290
O5	O	0.826099	-0.007143	-0.062701
O6	O	1.326099	0.492857	0.437299
O7	O	0.813899	0.158696	-0.062742
O8	O	1.313899	0.658696	0.437258
O9	O	0.826080	-0.007147	0.062487
O10	O	1.326080	0.492853	0.562487
O11	O	0.718834	0.080572	0.062479
O12	O	1.218834	0.580572	0.562479
O13	O	0.921127	0.070973	0.062455
O14	O	1.421127	0.570973	0.562455
Cu15	Cu	0.819979	0.075772	0.073898
Cu16	Cu	1.319979	0.575772	0.573898
Cu17	Cu	0.820001	0.075777	-0.074152
Cu18	Cu	1.320001	0.575777	0.425848
O19	O	0.813880	0.158692	0.062446
O20	O	1.313880	0.658692	0.562446
C21	C	0.692967	0.080267	-0.000112
C22	C	1.192967	0.580267	0.499888
C23	C	0.615866	0.079347	-0.000102
C24	C	1.115866	0.579347	0.499898
C25	C	0.825779	-0.028362	-0.000103
C26	C	1.325779	0.471638	0.499897
C27	C	0.824845	-0.091581	-0.000092
C28	C	1.324845	0.408419	0.499908
C29	C	0.579674	0.078908	-0.068344
C30	C	1.079674	0.578908	0.431656
C31	C	0.507230	0.078037	-0.068353
C32	C	1.007230	0.578037	0.431647
C33	C	0.470982	0.077594	-0.000116
C34	C	0.970982	0.577594	0.499884
C35	C	0.507182	0.078037	0.068135
C36	C	1.007182	0.578037	0.568135
C37	C	0.579624	0.078914	0.068142
C38	C	1.079624	0.578914	0.568142
C39	C	0.361754	0.042846	0.052161
C40	C	0.861754	0.542846	0.552161
C41	C	0.289314	0.041966	0.052151
C42	C	0.789314	0.541966	0.552151
C43	C	0.247547	0.074894	-0.000135
C44	C	0.747547	0.574894	0.499865
C45	C	0.278230	0.108694	-0.052424
C46	C	0.778230	0.608694	0.447576
C47	C	0.350672	0.109570	-0.052417
C48	C	0.850672	0.609570	0.447583
C49	C	0.392431	0.076644	-0.000116
C50	C	0.892431	0.576644	0.499884
C51	C	0.132802	0.073511	-0.068391
C52	C	0.632802	0.573511	0.431609
C53	C	0.060356	0.072643	-0.068397
C54	C	0.560356	0.572643	0.431603
C55	C	0.060311	0.072638	0.068093
C56	C	0.560311	0.572638	0.568093
C57	C	0.132755	0.073511	0.068097
C58	C	0.632755	0.573511	0.568097
C59	C	0.168997	0.073944	-0.000147
C60	C	0.668997	0.573944	0.499853
C61	C	0.757527	-0.357883	-0.000131
C62	C	1.257527	0.142117	0.499869
C63	C	0.758394	-0.298481	-0.000125
C64	C	1.258394	0.201519	0.499875
O65	O	0.704992	-0.261843	-0.000142
O66	O	1.204992	0.238157	0.499858
N67	N	0.822152	-0.275727	-0.000124
N68	N	1.322152	0.224273	0.499876
C69	C	0.885047	-0.312379	-0.000136
C70	C	1.385047	0.187621	0.499864
O71	O	0.939358	-0.287570	-0.000136
O72	O	1.439358	0.212430	0.499864
C73	C	0.884178	-0.371780	-0.000147
C74	C	1.384178	0.128220	0.499853
C75	C	0.820416	-0.394530	-0.000141
C76	C	1.320416	0.105470	0.499859
C77	C	0.693770	-0.380633	-0.000125
C78	C	1.193770	0.119367	0.499875
C79	C	0.692902	-0.440031	-0.000129
C80	C	1.192902	0.059969	0.499871
C81	C	0.755792	-0.476678	-0.000139
C82	C	1.255792	0.023322	0.499861
C83	C	0.819549	-0.453928	-0.000145
C84	C	1.319549	0.046072	0.499855
C85	C	0.947072	-0.408430	-0.000165
C86	C	1.447072	0.091570	0.499835
C87	C	0.946198	-0.467834	-0.000177
C88	C	1.446198	0.032166	0.499823
C89	C	0.882436	-0.490585	-0.000170
C90	C	1.382436	0.009415	0.499830
C91	C	0.881571	-0.549973	-0.000159
C92	C	1.381571	-0.049973	0.499841
N93	N	0.817813	-0.572726	-0.000160
N94	N	1.317813	-0.072726	0.499840
C95	C	0.754923	-0.536079	-0.000150
C96	C	1.254923	-0.036079	0.499850
C97	C	0.886866	-0.187633	-0.000114
C98	C	1.386866	0.312367	0.499886
C99	C	0.887735	-0.128233	-0.000098
C100	C	1.387735	0.371767	0.499902
C101	C	0.761082	-0.114339	-0.000088
C102	C	1.261082	0.385661	0.499912
C103	C	0.760214	-0.173740	-0.000099
C104	C	1.260214	0.326260	0.499901
C105	C	0.823108	-0.210386	-0.000115
C106	C	1.323108	0.289614	0.499885
C107	C	0.753107	-0.660820	-0.000159
C108	C	1.253107	-0.160820	0.499841
C109	C	0.752245	-0.720223	-0.000160
C110	C	1.252245	-0.220223	0.499840
C111	C	0.878897	-0.734112	-0.000174
C112	C	1.378897	-0.234112	0.499826
C113	C	0.879759	-0.674714	-0.000168
C114	C	1.379759	-0.174714	0.499832
C115	C	0.816858	-0.638068	-0.000163
C116	C	1.316858	-0.138068	0.499837
O117	O	0.934946	-0.586645	-0.000145
O118	O	1.434946	-0.086645	0.499855
O119	O	0.700622	-0.560896	-0.000161
O120	O	1.200622	-0.060896	0.499839
C121	C	0.947012	0.071282	-0.000145
C122	C	1.447012	0.571282	0.499855
C123	C	1.024113	0.072202	-0.000160
C124	C	1.524113	0.572202	0.499840
C125	C	0.814200	0.179911	-0.000153
C126	C	1.314200	0.679911	0.499847
C127	C	0.815134	0.243130	-0.000170
C128	C	1.315134	0.743130	0.499830
N129	N	0.819968	0.075768	0.178028
N130	N	1.319968	0.575768	0.678028
N131	N	0.820017	0.075777	-0.178283
N132	N	1.320017	0.575777	0.321717
C133	C	0.867472	0.036945	0.217418
C134	C	1.367472	0.536945	0.717418
C135	C	0.867476	0.036942	0.296220
C136	C	1.367476	0.536942	0.796220
C137	C	0.819983	0.075772	0.335628
C138	C	1.319983	0.575772	0.835628
C139	C	0.772470	0.114598	0.296228
C140	C	1.272470	0.614598	0.796228
C141	C	0.772463	0.114596	0.217428
C142	C	1.272463	0.614596	0.717428
C143	C	0.810524	0.127664	0.460454
C144	C	1.310524	0.627664	0.960454
C145	C	0.810536	0.127667	0.539253
C146	C	1.310536	0.627667	1.039253
C147	C	0.820001	0.075779	0.578675
C148	C	1.320001	0.575779	1.078675
C149	C	0.829469	0.023886	0.539288
C150	C	1.329469	0.523886	1.039288
C151	C	0.829462	0.023884	0.460487
C152	C	1.329462	0.523884	0.960487
C153	C	0.819985	0.075779	0.421074
C154	C	1.319985	0.575779	0.921074
C155	C	0.867512	0.036950	0.703511
C156	C	1.367512	0.536950	1.203511
C157	C	0.867511	0.036947	0.782315
C158	C	1.367511	0.536947	1.282315
C159	C	0.772508	0.114608	0.782321
C160	C	1.272508	0.614608	1.282321
C161	C	0.772506	0.114606	0.703519
C162	C	1.272506	0.614606	1.203519
C163	C	0.820011	0.075778	0.664119
C164	C	1.320011	0.575778	1.164119
H165	H	0.477756	0.077680	-0.123925
H166	H	0.977756	0.577680	0.376075
O167	O	0.171797	0.073993	0.141701
O168	O	0.671797	0.573993	0.641701
H169	H	0.134423	0.073541	0.189150
H170	H	0.634423	0.573541	0.689150
O171	O	0.956506	-0.103697	-0.000105
O172	O	1.456506	0.396303	0.499895
H173	H	1.000087	-0.139165	-0.000121
H174	H	1.500087	0.360835	0.499879
H175	H	0.609091	0.079272	0.123715
H176	H	1.109091	0.579272	0.623715
H177	H	0.477665	0.077678	0.123694
H178	H	0.977665	0.577678	0.623694
O179	O	0.691443	-0.198277	-0.000099
O180	O	1.191443	0.301723	0.499901
H181	H	0.647862	-0.162809	-0.000093
H182	H	1.147862	0.337191	0.499907
O183	O	0.021308	0.072169	-0.142001
O184	O	0.521308	0.572169	0.357999
H185	H	-0.005234	0.032964	-0.145241
H186	H	0.494766	0.532964	0.354759
H187	H	0.395755	0.016031	0.094743
H188	H	0.895755	0.516031	0.594743
O189	O	0.800328	0.183636	0.581728
O190	O	1.300328	0.683636	1.081728
H191	H	0.801934	0.174922	0.643145
H192	H	1.301934	0.674922	1.143145
H193	H	0.906193	0.005329	0.814387
H194	H	1.406193	0.505329	1.314387
H195	H	0.837169	-0.018369	0.428422
H196	H	1.337169	0.481631	0.928422
O197	O	0.683471	-0.744762	-0.000155
O198	O	1.183471	-0.244762	0.499845
H199	H	0.639887	-0.709296	-0.000155
H200	H	1.139887	-0.209296	0.499845
O201	O	0.800305	0.183638	0.417950
O202	O	1.300305	0.683638	0.917950
H203	H	0.753022	0.185048	0.382079
H204	H	1.253022	0.685048	0.882079
O205	O	0.693252	-0.074801	-0.000082
O206	O	1.193252	0.425199	0.499918
H207	H	0.662711	-0.082875	0.050947
H208	H	1.162711	0.417125	0.550947
H209	H	0.733827	0.146222	0.671445
H210	H	1.233827	0.646222	1.171445
H211	H	0.609177	0.079261	-0.123913
H212	H	1.109177	0.579261	0.376087
H213	H	0.938085	-0.217468	-0.000122
H214	H	1.438085	0.282532	0.499878
O215	O	0.948530	-0.650172	-0.000176
O216	O	1.448530	-0.150172	0.499824
H217	H	0.978726	-0.664916	0.050842
H218	H	1.478726	-0.164916	0.550842
O219	O	0.171902	0.073976	-0.141991
O220	O	0.671902	0.573976	0.358009
H221	H	0.198452	0.113178	-0.145260
H222	H	0.698452	0.613178	0.354740
O223	O	0.721217	0.156469	0.174941
O224	O	1.221217	0.656469	0.674941
H225	H	0.729188	0.149940	0.113526
H226	H	1.229188	0.649940	0.613526
H227	H	0.998994	-0.389918	-0.000171
H228	H	1.498994	0.110082	0.499829
O229	O	0.721254	0.156490	0.338726
O230	O	1.221254	0.656490	0.838726
H231	H	0.667155	0.149353	0.323638
H232	H	1.167155	0.649353	0.823638
O233	O	1.014037	-0.507359	-0.000191
O234	O	1.514037	-0.007359	0.499809
H235	H	1.016663	-0.534768	0.050830
H236	H	1.516663	-0.034768	0.550830
H237	H	0.375651	0.137093	-0.094990
H238	H	0.875651	0.637093	0.405010
H239	H	0.244224	0.135509	-0.094998
H240	H	0.744224	0.635509	0.405002
O241	O	0.021210	0.072268	0.141695
O242	O	0.521210	0.572268	0.641695
H243	H	-0.035251	0.071621	0.130226
H244	H	0.464749	0.571621	0.630226
O245	O	0.839695	-0.032087	0.581787
O246	O	1.339695	0.467913	1.081787
H247	H	0.797423	-0.058051	0.566683
H248	H	1.297423	0.441949	1.066683
O249	O	0.256220	0.005516	0.108548
O250	O	0.756220	0.505516	0.608548
H251	H	0.297429	-0.017223	0.144919
H252	H	0.797429	0.482777	0.644919
H253	H	0.906161	0.005327	0.328298
H254	H	1.406161	0.505327	0.828298
O255	O	0.685266	-0.621299	-0.000141
O256	O	1.185266	-0.121299	0.499859
H257	H	0.640792	-0.647106	-0.000129
H258	H	1.140792	-0.147106	0.499871
H259	H	0.642554	-0.350800	-0.000119
H260	H	1.142554	0.149200	0.499881
O261	O	0.624131	-0.464566	-0.000129
O262	O	1.124131	0.035434	0.499871
H263	H	0.580552	-0.429096	-0.000128
H264	H	1.080552	0.070904	0.499872
H265	H	0.930100	-0.763961	-0.000178
H266	H	1.430100	-0.263961	0.499822
O267	O	0.918721	-0.004950	0.661012
O268	O	1.418721	0.495050	1.161012
H269	H	0.910735	0.001569	0.599599
H270	H	1.410735	0.501569	1.099599
H271	H	0.906152	0.005327	0.185341
H272	H	1.406152	0.505327	0.685341
H273	H	0.733836	0.146222	0.814407
H274	H	1.233836	0.646222	1.314407
