data_functionalizedCrystal
_audit_creation_method	'MofGen! by Chris Wilmer'
_symmetry_space_group_name_H-M	'P1'
_symmetry_Int_Tables_number	1
_symmetry_cell_setting	triclinic
loop_
_symmetry_equiv_pos_as_xyz
  x,y,z
_cell_length_a	13.897449
_cell_length_b	13.897447
_cell_length_c	19.076919
_cell_angle_alpha	92.274152
_cell_angle_beta	92.282068
_cell_angle_gamma	90.020810
loop_
_atom_site_label
_atom_site_type_symbol
_atom_site_fract_x
_atom_site_fract_y
_atom_site_fract_z
Zn1	Zn	1.452734	-0.405914	-0.397943
Zn2	Zn	1.786067	-0.072581	-0.064610
Zn3	Zn	2.119400	0.260752	0.268724
Zn4	Zn	1.459116	-0.560741	-0.280254
Zn5	Zn	1.792449	-0.227407	0.053079
Zn6	Zn	2.125783	0.105926	0.386412
Zn7	Zn	1.297916	-0.399465	-0.280264
Zn8	Zn	1.631249	-0.066132	0.053069
Zn9	Zn	1.964582	0.267201	0.386403
Zn10	Zn	1.291401	-0.567171	-0.397912
Zn11	Zn	1.624734	-0.233838	-0.064579
Zn12	Zn	1.958068	0.099496	0.268754
O13	O	1.375292	-0.483323	-0.339093
O14	O	1.708625	-0.149989	-0.005760
O15	O	2.041958	0.183344	0.327573
O16	O	1.588561	-0.426460	-0.382340
O17	O	1.921895	-0.093127	-0.049007
O18	O	2.255228	0.240207	0.284326
O19	O	1.443130	-0.533957	-0.181766
O20	O	1.776463	-0.200624	0.151567
O21	O	2.109797	0.132710	0.484900
O22	O	1.318508	-0.265340	-0.295892
O23	O	1.651841	0.067993	0.037442
O24	O	1.985175	0.401327	0.370775
O25	O	1.593250	-0.540210	-0.295875
O26	O	1.926584	-0.206877	0.037458
O27	O	2.259917	0.126456	0.370792
O28	O	1.432252	-0.270078	-0.382350
O29	O	1.765585	0.063255	-0.049016
O30	O	2.098919	0.396589	0.284317
O31	O	1.324697	-0.415469	-0.181774
O32	O	1.658030	-0.082135	0.151560
O33	O	1.991363	0.251198	0.484893
O34	O	1.162070	-0.421704	-0.295862
O35	O	1.495404	-0.088371	0.037472
O36	O	1.828737	0.244963	0.370805
O37	O	1.307405	-0.551170	-0.496406
O38	O	1.640738	-0.217836	-0.163072
O39	O	1.974071	0.115497	0.170261
O40	O	1.157284	-0.544917	-0.382297
O41	O	1.490617	-0.211583	-0.048964
O42	O	1.823951	0.121750	0.284370
O43	O	1.425935	-0.432695	-0.496428
O44	O	1.759268	-0.099362	-0.163095
O45	O	2.092602	0.233971	0.170238
O46	O	1.436813	-0.696574	-0.295845
O47	O	1.770146	-0.363241	0.037488
O48	O	2.103480	-0.029908	0.370822
O49	O	1.313593	-0.701299	-0.382288
O50	O	1.646927	-0.367965	-0.048954
O51	O	1.980260	-0.034632	0.284379
C52	C	1.375214	-0.733936	-0.339077
C53	C	1.708547	-0.400603	-0.005744
C54	C	2.041881	-0.067270	0.327590
C55	C	1.375268	-0.841151	-0.339094
C56	C	1.708601	-0.507818	-0.005760
C57	C	2.041935	-0.174484	0.327573
C58	C	1.124678	-0.483309	-0.339077
C59	C	1.458011	-0.149976	-0.005744
C60	C	1.791345	0.183358	0.327589
C61	C	1.017464	-0.483327	-0.339087
C62	C	1.350797	-0.149994	-0.005754
C63	C	1.684130	0.183339	0.327579
C64	C	0.821168	-0.483332	-0.339106
C65	C	1.154501	-0.149998	-0.005772
C66	C	1.487834	0.183335	0.327561
C67	C	0.930401	-0.483326	-0.339093
C68	C	1.263734	-0.149993	-0.005760
C69	C	1.597067	0.183341	0.327573
C70	C	1.375314	-0.928222	-0.339110
C71	C	1.708647	-0.594888	-0.005776
C72	C	2.041980	-0.261555	0.327557
C73	C	1.375380	-1.037455	-0.339128
C74	C	1.708714	-0.704122	-0.005794
C75	C	2.042047	-0.370788	0.327539
C76	C	1.626884	-0.483337	-0.339110
C77	C	1.960217	-0.150004	-0.005777
C78	C	2.293550	0.183329	0.327557
C79	C	1.734097	-0.483343	-0.339117
C80	C	2.067431	-0.150010	-0.005784
C81	C	2.400764	0.183323	0.327550
C82	C	1.365231	-0.493369	-0.522668
C83	C	1.698565	-0.160036	-0.189335
C84	C	2.031898	0.173297	0.143999
C85	C	1.360944	-0.497650	-0.600897
C86	C	1.694277	-0.164317	-0.267563
C87	C	2.027611	0.169016	0.065770
C88	C	1.375395	-0.231731	-0.339125
C89	C	1.708728	0.101602	-0.005792
C90	C	2.042062	0.434935	0.327541
C91	C	1.375439	-0.124518	-0.339139
C92	C	1.708772	0.208815	-0.005805
C93	C	2.042106	0.542148	0.327528
C94	C	1.420639	-0.437981	-0.637662
C95	C	1.753973	-0.104648	-0.304328
C96	C	2.087306	0.228685	0.029005
C97	C	1.416599	-0.442000	-0.711166
C98	C	1.749933	-0.108667	-0.377832
C99	C	2.083266	0.224666	-0.044499
C100	C	1.352868	-0.505694	-0.747904
C101	C	1.686202	-0.172361	-0.414570
C102	C	2.019535	0.160973	-0.081237
C103	C	1.293167	-0.565366	-0.711134
C104	C	1.626500	-0.232032	-0.377800
C105	C	1.959833	0.101301	-0.044467
C106	C	1.297202	-0.561341	-0.637631
C107	C	1.630536	-0.228008	-0.304297
C108	C	1.963869	0.105326	0.029036
C109	C	1.334176	-0.524340	-0.967732
C110	C	1.667510	-0.191007	-0.634399
C111	C	2.000843	0.142327	-0.301065
C112	C	1.330147	-0.528362	-1.041240
C113	C	1.663481	-0.195029	-0.707906
C114	C	1.996814	0.138305	-0.374573
C115	C	1.453579	-0.404995	-1.041267
C116	C	1.786912	-0.071661	-0.707934
C117	C	2.120246	0.261672	-0.374600
C118	C	1.457613	-0.400980	-0.967763
C119	C	1.790947	-0.067647	-0.634430
C120	C	2.124280	0.265687	-0.301096
C121	C	1.397908	-0.460648	-0.930999
C122	C	1.731241	-0.127315	-0.597666
C123	C	2.064575	0.206019	-0.264333
N124	N	1.348740	-0.509806	-0.823037
N125	N	1.682073	-0.176472	-0.489703
N126	N	2.015406	0.156861	-0.156370
N127	N	1.402033	-0.456531	-0.855868
N128	N	1.735366	-0.123197	-0.522534
N129	N	2.068699	0.210136	-0.189201
C130	C	1.385368	-0.473246	-0.156233
C131	C	1.718702	-0.139912	0.177100
C132	C	2.052035	0.193421	0.510434
C133	C	1.389842	-0.468693	-0.078005
C134	C	1.723176	-0.135359	0.255329
C135	C	2.056509	0.197974	0.588662
H136	H	1.472539	-0.386118	-0.607755
H137	H	1.805872	-0.052784	-0.274422
H138	H	2.139206	0.280549	0.058912
H139	H	1.278247	-0.580231	-1.071150
H140	H	1.611580	-0.246898	-0.737816
H141	H	1.944913	0.086435	-0.404483
H142	H	1.285574	-0.572940	-0.937808
H143	H	1.618908	-0.239607	-0.604474
H144	H	1.952241	0.093727	-0.271141
H145	H	1.509512	-0.349116	-0.937856
H146	H	1.842846	-0.015783	-0.604523
H147	H	2.176179	0.317550	-0.271189
H148	H	1.241272	-0.617223	-0.741051
H149	H	1.574605	-0.283890	-0.407718
H150	H	1.907939	0.049444	-0.074385
H151	H	1.465212	-0.393413	-0.741097
H152	H	1.798545	-0.060080	-0.407763
H153	H	2.131878	0.273253	-0.074430
H154	H	1.502186	-0.356415	-1.071208
H155	H	1.835520	-0.023082	-0.737875
H156	H	2.168853	0.310251	-0.404541
Br157	Br	1.216178	-0.642318	-0.587734
Br158	Br	1.549512	-0.308985	-0.254401
Br159	Br	1.882845	0.024349	0.078932
