data_functionalizedCrystal
_audit_creation_method	'MofGen! by Chris Wilmer'
_symmetry_space_group_name_H-M	'P1'
_symmetry_Int_Tables_number	1
_symmetry_cell_setting	triclinic
loop_
_symmetry_equiv_pos_as_xyz
  x,y,z
_cell_length_a	12.759395
_cell_length_b	17.641144
_cell_length_c	12.759387
_cell_angle_alpha	78.815281
_cell_angle_beta	90.021426
_cell_angle_gamma	78.826428
loop_
_atom_site_label
_atom_site_type_symbol
_atom_site_fract_x
_atom_site_fract_y
_atom_site_fract_z
Zn1	Zn	1.690681	-0.314526	0.678639
Zn2	Zn	2.190681	0.185474	1.178639
Zn3	Zn	1.726041	-0.446684	0.538510
Zn4	Zn	2.226041	0.053316	1.038510
Zn5	Zn	1.514990	-0.314567	0.502984
Zn6	Zn	2.014990	0.185433	1.002984
Zn7	Zn	1.550425	-0.446626	0.714131
Zn8	Zn	2.050425	0.053374	1.214131
O9	O	1.620534	-0.380600	0.608566
O10	O	2.120534	0.119400	1.108566
O11	O	1.842395	-0.332064	0.660065
O12	O	2.342395	0.167936	1.160065
O13	O	1.698013	-0.429200	0.386787
O14	O	2.198013	0.070800	0.886787
O15	O	1.508669	-0.203985	0.496564
O16	O	2.008669	0.296015	0.996564
O17	O	1.868373	-0.429160	0.557113
O18	O	2.368373	0.070840	1.057113
O19	O	1.637748	-0.203955	0.625617
O20	O	2.137748	0.296045	1.125617
O21	O	1.542955	-0.332134	0.360687
O22	O	2.042955	0.167866	0.860687
O23	O	1.372668	-0.332077	0.530979
O24	O	1.872668	0.167923	1.030979
O25	O	1.569062	-0.429061	0.856433
O26	O	2.069062	0.070939	1.356433
O27	O	1.398701	-0.429101	0.686107
O28	O	1.898701	0.070899	1.186107
O29	O	1.672107	-0.332007	0.830357
O30	O	2.172107	0.167993	1.330357
O31	O	1.732372	-0.557252	0.591528
O32	O	2.232372	-0.057252	1.091528
O33	O	1.603348	-0.557209	0.720556
O34	O	2.103348	-0.057209	1.220556
C35	C	1.347563	-0.380588	0.608540
C36	C	1.847563	0.119412	1.108540
C37	C	1.230790	-0.380601	0.608559
C38	C	1.730790	0.119399	1.108559
C39	C	1.038563	-0.481813	0.769966
C40	C	1.538563	0.018187	1.269966
C41	C	1.107028	-0.532403	0.850640
C42	C	1.607028	-0.032403	1.350640
C43	C	1.216747	-0.532393	0.850624
C44	C	1.716747	-0.032393	1.350624
C45	C	1.258002	-0.481790	0.769923
C46	C	1.758002	0.018210	1.269923
C47	C	1.189537	-0.431201	0.689249
C48	C	1.689537	0.068799	1.189249
C49	C	1.079816	-0.431214	0.689276
C50	C	1.579816	0.068786	1.189276
C51	C	1.162325	-0.330012	0.527885
C52	C	1.662325	0.169988	1.027885
C53	C	1.052604	-0.330016	0.527903
C54	C	1.552604	0.169984	1.027903
C55	C	1.203580	-0.279409	0.447184
C56	C	1.703580	0.220591	0.947184
C57	C	1.135113	-0.228814	0.366512
C58	C	1.635113	0.271186	0.866512
C59	C	1.025388	-0.228826	0.366533
C60	C	1.525388	0.271174	0.866533
C61	C	0.984139	-0.279427	0.447229
C62	C	1.484139	0.220573	0.947229
C63	C	1.675571	-0.585902	0.663771
C64	C	2.175571	-0.085902	1.163771
C65	C	1.699212	-0.673730	0.687423
C66	C	2.199212	-0.173730	1.187423
C67	C	1.441317	-0.962961	0.429014
C68	C	1.941317	-0.462961	0.929014
C69	C	1.463548	-1.045489	0.451241
C70	C	1.963548	-0.545489	0.951241
C71	C	1.597806	-1.045330	0.585690
C72	C	2.097806	-0.545330	1.085690
C73	C	1.575582	-0.962799	0.563478
C74	C	2.075582	-0.462799	1.063478
C75	C	1.497337	-0.921622	0.485138
C76	C	1.997337	-0.421622	0.985138
C77	C	1.631602	-0.921460	0.619602
C78	C	2.131602	-0.421460	1.119602
C79	C	1.609384	-0.838937	0.597388
C80	C	2.109384	-0.338937	1.097388
C81	C	1.531145	-0.797754	0.519049
C82	C	2.031145	-0.297754	1.019049
C83	C	1.475118	-0.839099	0.462924
C84	C	1.975118	-0.339099	0.962924
C85	C	1.709852	-0.962640	0.697936
C86	C	2.209852	-0.462640	1.197936
C87	C	1.765872	-0.921301	0.754061
C88	C	2.265872	-0.421301	1.254061
C89	C	1.743649	-0.838776	0.731852
C90	C	2.243649	-0.338776	1.231852
C91	C	1.665410	-0.797592	0.653513
C92	C	2.165410	-0.297592	1.153513
C93	C	1.799675	-0.797431	0.787978
C94	C	2.299675	-0.297431	1.287978
C95	C	1.777456	-0.714908	0.765763
C96	C	2.277456	-0.214908	1.265763
C97	C	1.643191	-0.715070	0.631299
C98	C	2.143191	-0.215070	1.131299
C99	C	1.894571	-0.380614	0.608593
C100	C	2.394571	0.119386	1.108593
C101	C	2.011349	-0.380619	0.608604
C102	C	2.511349	0.119381	1.108604
C103	C	1.620593	-0.380523	0.882579
C104	C	2.120593	0.119477	1.382579
C105	C	1.620618	-0.380490	0.999347
C106	C	2.120618	0.119510	1.499347
C107	C	1.565312	-0.174498	0.553168
C108	C	2.065312	0.325502	1.053168
C109	C	1.541779	-0.086669	0.529561
C110	C	2.041779	0.413331	1.029561
C111	C	1.620521	-0.380621	0.335604
C112	C	2.120521	0.119379	0.835604
C113	C	1.620640	-0.380431	0.218777
C114	C	2.120640	0.119569	0.718777
C115	C	1.727930	-0.279435	0.972215
C116	C	2.227930	0.220565	1.472215
C117	C	1.781598	-0.228896	1.013508
C118	C	2.281598	0.271104	1.513508
C119	C	1.781616	-0.228867	1.123221
C120	C	2.281616	0.271133	1.623221
C121	C	1.727957	-0.279381	1.191647
C122	C	2.227957	0.220619	1.691647
C123	C	1.674290	-0.329920	1.150355
C124	C	2.174290	0.170080	1.650355
C125	C	1.674280	-0.329945	1.040637
C126	C	2.174280	0.170055	1.540637
C127	C	1.566972	-0.430970	1.177485
C128	C	2.066972	0.069030	1.677485
C129	C	1.566959	-0.431004	1.067772
C130	C	2.066959	0.068996	1.567772
C131	C	1.513314	-0.481485	1.245910
C132	C	2.013314	0.018515	1.745910
C133	C	1.459651	-0.532029	1.204619
C134	C	1.959651	-0.032029	1.704619
C135	C	1.459637	-0.532056	1.094898
C136	C	1.959637	-0.032056	1.594898
C137	C	1.513292	-0.481544	1.026480
C138	C	2.013292	0.018456	1.526480
H139	H	1.292921	-0.279408	0.447173
H140	H	1.792921	0.220592	0.947173
H141	H	1.825309	-0.187708	1.156839
H142	H	2.325309	0.312292	1.656839
H143	H	0.894801	-0.279437	0.447257
H144	H	1.394801	0.220563	0.947257
H145	H	1.417922	-1.079144	0.405533
H146	H	1.917922	-0.579144	0.905533
Cl147	Cl	1.376749	-0.787326	0.364440
Cl148	Cl	1.876749	-0.287326	0.864440
H149	H	1.727966	-0.279346	1.280979
H150	H	2.227966	0.220654	1.780979
H151	H	1.513290	-0.481564	0.937144
H152	H	2.013290	0.018436	1.437144
Cl153	Cl	1.847887	-0.662935	0.836315
Cl154	Cl	2.347887	-0.162935	1.336315
Cl155	Cl	1.727930	-0.279478	0.834290
Cl156	Cl	2.227930	0.220522	1.334290
Cl157	Cl	1.513336	-0.481449	1.383837
Cl158	Cl	2.013336	0.018551	1.883837
Cl159	Cl	1.503206	-0.694009	0.491125
Cl160	Cl	2.003206	-0.194009	0.991125
H161	H	0.969648	-0.187630	0.300837
H162	H	1.469648	0.312370	0.800837
Cl163	Cl	1.696168	-1.097104	0.684169
Cl164	Cl	2.196168	-0.597104	1.184169
H165	H	1.168714	-0.187621	0.300809
H166	H	1.668714	0.312379	0.800809
Cl167	Cl	1.392196	-0.595521	1.290641
Cl168	Cl	1.892196	-0.095521	1.790641
H169	H	1.073427	-0.573604	0.916343
H170	H	1.573427	-0.073604	1.416343
Cl171	Cl	0.900628	-0.481819	0.770003
Cl172	Cl	1.400628	0.018181	1.270003
H173	H	1.415920	-0.573203	1.061284
H174	H	1.915920	-0.073203	1.561284
H175	H	1.377594	-0.929432	0.365229
H176	H	1.877594	-0.429432	0.865229
Cl177	Cl	1.302822	-0.595995	0.952039
Cl178	Cl	1.802822	-0.095995	1.452039
Cl179	Cl	1.544821	-0.663297	0.532815
Cl180	Cl	2.044821	-0.163297	1.032815
Cl181	Cl	1.395939	-0.481789	0.769895
Cl182	Cl	1.895939	0.018211	1.269895
H183	H	1.727942	-1.029835	0.716018
H184	H	2.227942	-0.529835	1.216018
H185	H	1.829582	-0.954839	0.817842
H186	H	2.329582	-0.454839	1.317842
H187	H	1.825283	-0.187767	0.957783
H188	H	2.325283	0.312233	1.457783
H189	H	1.863389	-0.830971	0.851754
H190	H	2.363389	-0.330971	1.351754
