data_functionalizedCrystal
_audit_creation_method	'MofGen! by Chris Wilmer'
_symmetry_space_group_name_H-M	'P1'
_symmetry_Int_Tables_number	1
_symmetry_cell_setting	triclinic
loop_
_symmetry_equiv_pos_as_xyz
  x,y,z
_cell_length_a	25.639243
_cell_length_b	12.645330
_cell_length_c	12.645323
_cell_angle_alpha	90.024870
_cell_angle_beta	90.025092
_cell_angle_gamma	90.020373
loop_
_atom_site_label
_atom_site_type_symbol
_atom_site_fract_x
_atom_site_fract_y
_atom_site_fract_z
Zn1	Zn	-0.799348	0.421955	-0.599515
Zn2	Zn	-0.799290	0.599243	-0.422255
Zn3	Zn	-0.711911	0.422002	-0.422252
Zn4	Zn	-0.711902	0.599185	-0.599463
O5	O	-0.755613	0.510596	-0.510871
O6	O	-0.872506	0.445477	-0.576024
O7	O	-0.787678	0.575776	-0.273907
O8	O	-0.723538	0.273649	-0.445786
O9	O	-0.872463	0.575730	-0.445792
O10	O	-0.787778	0.273614	-0.576021
O11	O	-0.723481	0.445558	-0.273905
O12	O	-0.638744	0.445502	-0.445736
O13	O	-0.723522	0.575631	-0.747817
O14	O	-0.638738	0.575677	-0.575932
O15	O	-0.787769	0.445421	-0.747855
O16	O	-0.787669	0.747583	-0.445741
O17	O	-0.723466	0.747540	-0.575935
C18	C	-0.619770	0.510589	-0.510829
C19	C	-0.561656	0.510611	-0.510836
C20	C	-0.201310	0.442880	-0.578795
C21	C	-0.146705	0.442879	-0.578801
O22	O	-0.118483	0.385271	-0.636531
N23	N	-0.119374	0.510592	-0.510899
C24	C	-0.146649	0.578304	-0.442978
O25	O	-0.118387	0.635899	-0.385222
C26	C	-0.201252	0.578299	-0.442967
C27	C	-0.228581	0.510588	-0.510882
C28	C	-0.228639	0.375174	-0.646703
C29	C	-0.283239	0.375176	-0.646698
C30	C	-0.310511	0.442885	-0.578784
C31	C	-0.283182	0.510591	-0.510876
C32	C	-0.228526	0.646004	-0.375042
C33	C	-0.283133	0.645993	-0.375036
C34	C	-0.310463	0.578282	-0.442950
C35	C	-0.365054	0.578302	-0.442957
N36	N	-0.392386	0.510588	-0.510860
C37	C	-0.365114	0.442880	-0.578773
C38	C	-0.031978	0.578308	-0.443005
C39	C	0.022624	0.578320	-0.443021
C40	C	0.022564	0.442893	-0.578843
C41	C	-0.032040	0.442887	-0.578832
C42	C	-0.059310	0.510595	-0.510908
C43	C	-0.479779	0.442891	-0.578757
C44	C	-0.534385	0.442903	-0.578749
C45	C	-0.534319	0.578325	-0.442923
C46	C	-0.479719	0.578318	-0.442935
C47	C	-0.452450	0.510592	-0.510856
O48	O	-0.393311	0.635877	-0.385254
O49	O	-0.393383	0.385284	-0.636510
C50	C	-0.755574	0.786026	-0.510856
C51	C	-0.755606	0.903856	-0.510885
C52	C	-0.755651	0.510514	-0.787376
C53	C	-0.755668	0.510480	-0.905206
C54	C	0.108014	0.510604	-0.510914
C55	C	0.049900	0.510607	-0.510931
C56	C	-0.755665	0.234091	-0.510909
C57	C	-0.755688	0.116261	-0.510925
C58	C	-0.715382	1.071438	-0.593043
C59	C	-0.715176	0.948878	-0.592779
C60	C	-0.740689	0.948452	-0.399162
C61	C	-0.740443	1.071050	-0.399661
C62	C	-0.810993	1.070940	-0.539545
C63	C	-0.810654	0.948333	-0.541988
C64	C	-0.715125	0.592009	-1.072747
C65	C	-0.715231	0.592412	-0.950187
C66	C	-0.810758	0.540793	-0.949731
C67	C	-0.810536	0.541304	-1.072329
C68	C	-0.741640	0.398181	-1.072403
C69	C	-0.740411	0.398854	-0.949797
C70	C	-0.755604	0.510602	-0.235441
C71	C	-0.755689	0.510338	-0.117612
H72	H	-0.054179	0.633453	-0.387696
Cl73	Cl	-0.783794	1.116840	-0.301968
Cl74	Cl	-0.828920	0.667888	-1.116509
H75	H	-0.841784	0.484401	-1.102010
Cl76	Cl	-0.445507	0.357750	-0.664146
Cl77	Cl	-0.652160	0.563122	-0.903701
Cl78	Cl	-0.678919	0.901206	-0.361053
H79	H	-0.841792	0.483189	-0.920598
Cl80	Cl	-0.194183	0.731111	-0.289636
H81	H	-0.771185	0.337333	-1.101419
H82	H	-0.674175	0.919647	-0.573817
H83	H	-0.767797	0.334788	-0.919178
Cl84	Cl	-0.784575	0.903433	-0.302112
H85	H	-0.674637	1.102342	-0.574324
H86	H	-0.821903	0.919182	-0.624210
H87	H	-0.700015	1.099745	-0.375417
Cl88	Cl	-0.832002	1.118556	-0.663190
Cl89	Cl	-0.729583	0.902316	-0.720681
Cl90	Cl	-0.317588	0.290045	-0.732076
Cl91	Cl	-0.859462	0.901001	-0.456378
H92	H	0.044871	0.633468	-0.387730
Cl93	Cl	-0.857358	1.115713	-0.447222
H94	H	-0.305334	0.701128	-0.319721
Cl95	Cl	-0.829461	0.666051	-0.902356
H96	H	-0.702168	0.370548	-1.103304
H97	H	-0.674153	0.573223	-1.102217
Cl98	Cl	-0.729655	1.116850	-0.721368
H99	H	-0.724309	0.674636	-1.103566
H100	H	-0.699869	0.375993	-0.920694
Cl101	Cl	-0.729580	0.720772	-0.904921
Cl102	Cl	-0.066390	0.357760	-0.664210
Cl103	Cl	-0.568738	0.357777	-0.664136
Cl104	Cl	-0.194365	0.290044	-0.732094
H105	H	-0.457466	0.633466	-0.387646
Cl106	Cl	0.056858	0.357768	-0.664216
H107	H	-0.556534	0.633454	-0.387632
