data_functionalizedCrystal
_audit_creation_method	'MofGen! by Chris Wilmer'
_symmetry_space_group_name_H-M	'P1'
_symmetry_Int_Tables_number	1
_symmetry_cell_setting	triclinic
loop_
_symmetry_equiv_pos_as_xyz
  x,y,z
_cell_length_a	16.109301
_cell_length_b	16.109301
_cell_length_c	8.140239
_cell_angle_alpha	89.995060
_cell_angle_beta	89.999641
_cell_angle_gamma	83.461532
loop_
_atom_site_label
_atom_site_type_symbol
_atom_site_fract_x
_atom_site_fract_y
_atom_site_fract_z
O1	O	1.103130	0.106867	-0.136528
O2	O	1.603130	0.606867	0.363472
O3	O	0.861068	0.120166	-0.136552
O4	O	1.361068	0.620166	0.363448
O5	O	0.988748	-0.007515	-0.136523
O6	O	1.488748	0.492485	0.363477
O7	O	0.975449	0.234547	-0.136558
O8	O	1.475449	0.734547	0.363442
O9	O	0.988741	-0.007516	0.136704
O10	O	1.488741	0.492484	0.636704
O11	O	0.861061	0.120165	0.136675
O12	O	1.361061	0.620165	0.636675
O13	O	1.103123	0.106865	0.136699
O14	O	1.603123	0.606865	0.636699
Zn15	Zn	0.982091	0.113515	0.180067
Zn16	Zn	1.482091	0.613515	0.680067
Zn17	Zn	0.982100	0.113517	-0.179921
Zn18	Zn	1.482100	0.613517	0.320079
O19	O	0.975442	0.234546	0.136669
O20	O	1.475442	0.734546	0.636669
C21	C	0.830089	0.119627	0.000059
C22	C	1.330089	0.619627	0.500059
C23	C	0.737794	0.118011	0.000050
C24	C	1.237794	0.618011	0.500050
C25	C	0.428796	0.188494	0.000069
C26	C	0.928796	0.688494	0.500069
C27	C	0.515516	0.190020	0.000059
C28	C	1.015516	0.690020	0.500059
C29	C	0.535389	0.038531	0.000059
C30	C	1.035389	0.538531	0.500059
C31	C	0.448671	0.037007	0.000057
C32	C	0.948671	0.537007	0.500057
C33	C	0.395376	0.111991	0.000070
C34	C	0.895376	0.611991	0.500070
C35	C	0.568815	0.115041	0.000062
C36	C	1.068815	0.615041	0.500062
C37	C	0.662841	0.116694	0.000052
C38	C	1.162841	0.616694	0.500052
C39	C	0.301344	0.110338	0.000077
C40	C	0.801344	0.610338	0.500077
C41	C	0.988206	-0.038490	0.000091
C42	C	1.488206	0.461510	0.500091
C43	C	0.986591	-0.130785	0.000094
C44	C	1.486591	0.369215	0.500094
C45	C	1.058599	-0.353058	0.000075
C46	C	1.558599	0.146942	0.500075
C47	C	1.057075	-0.439778	0.000061
C48	C	1.557075	0.060222	0.500061
C49	C	0.905586	-0.419904	0.000053
C50	C	1.405586	0.080096	0.500053
C51	C	0.907111	-0.333185	0.000054
C52	C	1.407111	0.166815	0.500054
C53	C	0.983620	-0.299765	0.000074
C54	C	1.483620	0.200235	0.500074
C55	C	0.980571	-0.473204	0.000058
C56	C	1.480571	0.026796	0.500058
C57	C	0.978918	-0.567230	0.000043
C58	C	1.478918	-0.067230	0.500043
C59	C	0.985273	-0.205733	0.000086
C60	C	1.485273	0.294267	0.500086
C61	C	1.134101	0.107405	0.000084
C62	C	1.634101	0.607405	0.500084
C63	C	1.226396	0.109020	0.000082
C64	C	1.726396	0.609020	0.500082
C65	C	0.975984	0.265522	0.000051
C66	C	1.475984	0.765522	0.500051
C67	C	0.977599	0.357817	0.000038
C68	C	1.477599	0.857817	0.500038
N69	N	0.982090	0.113513	0.425750
N70	N	1.482090	0.613513	0.925750
N71	N	0.982107	0.113512	-0.425604
N72	N	1.482107	0.613512	0.074396
H73	H	0.421461	-0.025296	0.000052
H74	H	0.921461	0.474704	0.500052
H75	H	0.578792	-0.022518	0.000052
H76	H	1.078792	0.477482	0.500052
H77	H	0.542722	0.252317	0.000056
H78	H	1.042722	0.752317	0.500056
Cl79	Cl	1.154781	-0.311046	0.000095
Cl80	Cl	1.654781	0.188954	0.500095
H81	H	1.118130	-0.483167	0.000058
H82	H	1.618130	0.016833	0.500058
Cl83	Cl	0.809409	-0.461925	0.000029
Cl84	Cl	1.309409	0.038075	0.500029
H85	H	0.385405	0.249551	0.000078
H86	H	0.885405	0.749551	0.500078
H87	H	0.846050	-0.289791	0.000049
H88	H	1.346050	0.210209	0.500049
