data_functionalizedCrystal
_audit_creation_method	'MofGen! by Chris Wilmer'
_symmetry_space_group_name_H-M	'P1'
_symmetry_Int_Tables_number	1
_symmetry_cell_setting	triclinic
loop_
_symmetry_equiv_pos_as_xyz
  x,y,z
_cell_length_a	16.992694
_cell_length_b	15.455313
_cell_length_c	16.974813
_cell_angle_alpha	89.012317
_cell_angle_beta	92.975366
_cell_angle_gamma	92.857794
loop_
_atom_site_label
_atom_site_type_symbol
_atom_site_fract_x
_atom_site_fract_y
_atom_site_fract_z
O1	O	-1.044194	-0.083524	0.163896
O2	O	-0.544194	0.416476	0.663896
O3	O	-0.815906	-0.083421	0.162062
O4	O	-0.315906	0.416579	0.662062
O5	O	-0.936031	-0.075442	0.048638
O6	O	-0.436031	0.424558	0.548638
O7	O	-0.924070	-0.091503	0.277319
O8	O	-0.424070	0.408497	0.777319
O9	O	-0.929162	0.068366	0.055096
O10	O	-0.429162	0.568366	0.555096
O11	O	-0.809037	0.060387	0.168519
O12	O	-0.309037	0.560387	0.668519
O13	O	-1.037325	0.060284	0.170354
O14	O	-0.537325	0.560284	0.670354
Cu15	Cu	-0.922554	0.073466	0.170026
Cu16	Cu	-0.422554	0.573466	0.670026
Cu17	Cu	-0.930678	-0.096603	0.162389
Cu18	Cu	-0.430678	0.403397	0.662389
O19	O	-0.917200	0.052304	0.283777
O20	O	-0.417200	0.552304	0.783777
C21	C	-0.783254	-0.011355	0.162932
C22	C	-0.283254	0.488645	0.662932
C23	C	-0.696194	-0.010870	0.155894
C24	C	-0.196194	0.489130	0.655894
C25	C	-0.932014	-0.001475	0.022471
C26	C	-0.432014	0.498525	0.522471
C27	C	-0.930269	0.004671	-0.065122
C28	C	-0.430269	0.504671	0.434878
C29	C	-1.069978	-0.011785	0.169484
C30	C	-0.569978	0.488215	0.669484
C31	C	-1.157038	-0.012274	0.176521
C32	C	-0.657038	0.487726	0.676521
N33	N	-0.916846	0.193084	0.175397
N34	N	-0.416846	0.693084	0.675397
C35	C	-0.646108	-0.015639	0.223795
C36	C	-0.146108	0.484361	0.723795
C37	C	-0.564306	-0.015162	0.217179
C38	C	-0.064306	0.484838	0.717179
C39	C	-0.532592	-0.009923	0.142660
C40	C	-0.032592	0.490077	0.642660
C41	C	-0.582684	-0.005152	0.074753
C42	C	-0.082684	0.494848	0.574753
C43	C	-0.664485	-0.005622	0.081371
C44	C	-0.164485	0.494378	0.581371
C45	C	-0.288931	-0.007974	0.115232
C46	C	0.211069	0.492026	0.615232
C47	C	-0.207124	-0.007506	0.108620
C48	C	0.292876	0.492494	0.608620
C49	C	-0.188751	-0.017515	0.251046
C50	C	0.311249	0.482485	0.751046
C51	C	-0.270554	-0.017990	0.257657
C52	C	0.229446	0.482010	0.757657
C53	C	-0.320639	-0.013214	0.189751
C54	C	0.179361	0.486786	0.689751
N55	N	-0.448977	-0.009439	0.135895
N56	N	0.051023	0.490561	0.635895
N57	N	-0.404252	-0.013693	0.196517
N58	N	0.095748	0.486307	0.696517
N59	N	-0.936392	-0.216221	0.157012
N60	N	-0.436392	0.283779	0.657012
C61	C	-0.967897	0.241866	0.127231
C62	C	-0.467897	0.741866	0.627231
C63	C	-0.963587	0.332388	0.131301
C64	C	-0.463587	0.832388	0.631301
C65	C	-0.908230	0.374125	0.183541
C66	C	-0.408230	0.874125	0.683541
C67	C	-0.857173	0.325336	0.231709
C68	C	-0.357173	0.825336	0.731709
C69	C	-0.861480	0.234816	0.227635
C70	C	-0.361480	0.734816	0.727635
C71	C	-0.889642	0.644471	0.201106
C72	C	-0.389642	1.144471	0.701106
C73	C	-0.885341	0.734997	0.205178
C74	C	-0.385341	1.234997	0.705178
C75	C	-0.991754	0.742043	0.104768
C76	C	-0.491754	1.242043	0.604768
C77	C	-0.996059	0.651521	0.100702
C78	C	-0.496059	1.151521	0.600702
C79	C	-0.945000	0.602740	0.148867
C80	C	-0.445000	1.102740	0.648867
N81	N	-0.903825	0.466652	0.187704
N82	N	-0.403825	0.966652	0.687704
N83	N	-0.949401	0.510214	0.144700
N84	N	-0.449401	1.010214	0.644700
C85	C	-0.933195	-0.070831	-0.109788
C86	C	-0.433195	0.429169	0.390212
C87	C	-0.931550	-0.065054	-0.192090
C88	C	-0.431550	0.434946	0.307910
C89	C	-0.926984	0.016226	-0.229724
C90	C	-0.426984	0.516226	0.270276
C91	C	-0.924055	0.091734	-0.185052
C92	C	-0.424055	0.591734	0.314948
C93	C	-0.925695	0.085955	-0.102751
C94	C	-0.425695	0.585955	0.397249
C95	C	-0.921674	0.041914	-0.475490
C96	C	-0.421674	0.541914	0.024510
C97	C	-0.920037	0.047686	-0.557797
C98	C	-0.420037	0.547686	-0.057797
C99	C	-0.927530	-0.109102	-0.564829
C100	C	-0.427530	0.390898	-0.064829
C101	C	-0.929174	-0.114873	-0.482527
C102	C	-0.429174	0.385127	0.017473
C103	C	-0.926241	-0.039366	-0.437861
C104	C	-0.426241	0.460634	0.062139
N105	N	-0.925305	0.022134	-0.313850
N106	N	-0.425305	0.522134	0.186150
N107	N	-0.927914	-0.045274	-0.353737
N108	N	-0.427914	0.454726	0.146263
C109	C	-0.921218	-0.021664	0.309944
C110	C	-0.421218	0.478336	0.809944
C111	C	-0.922963	-0.027816	0.397537
C112	C	-0.422963	0.472184	0.897537
H113	H	-0.671922	-0.019906	0.284476
H114	H	-0.171922	0.480094	0.784476
C115	C	-0.922476	0.169004	-0.053614
C116	C	-0.422476	0.669004	0.446386
H117	H	-0.924097	0.153923	0.000791
H118	H	-0.424097	0.653923	0.500791
H119	H	-0.966354	0.202391	-0.068784
H120	H	-0.466354	0.702391	0.431216
H121	H	-0.874972	0.201931	-0.062527
H122	H	-0.374972	0.701931	0.437473
H123	H	-1.033324	0.781768	0.065554
H124	H	-0.533324	1.281768	0.565554
C125	C	-0.305433	-0.023740	0.339628
C126	C	0.194567	0.476260	0.839628
H127	H	-0.263886	-0.026503	0.379122
H128	H	0.236114	0.473497	0.879122
H129	H	-0.339352	-0.074278	0.342922
H130	H	0.160648	0.425722	0.842922
H131	H	-0.334569	0.026027	0.347416
H132	H	0.165431	0.526027	0.847416
C133	C	-0.547805	0.000610	-0.007218
C134	C	-0.047805	0.500610	0.492782
H135	H	-0.589352	0.003390	-0.046709
H136	H	-0.089352	0.503390	0.453291
H137	H	-0.518666	-0.049148	-0.015013
H138	H	-0.018666	0.450852	0.484987
H139	H	-0.513888	0.051156	-0.010506
H140	H	-0.013888	0.551156	0.489494
C141	C	-0.805327	0.181155	0.280621
C142	C	-0.305327	0.681155	0.780621
H143	H	-0.771746	0.218975	0.312323
H144	H	-0.271746	0.718975	0.812323
H145	H	-0.774301	0.147988	0.248605
H146	H	-0.274301	0.647988	0.748605
H147	H	-0.835293	0.143406	0.313637
H148	H	-0.335293	0.643406	0.813637
H149	H	-0.523528	-0.019046	0.272471
H150	H	-0.023528	0.480954	0.772471
C151	C	-0.133656	-0.022757	0.325736
C152	C	0.366344	0.477243	0.825736
H153	H	-0.080396	-0.021719	0.311126
H154	H	0.419604	0.478281	0.811126
H155	H	-0.145674	-0.075036	0.353831
H156	H	0.354326	0.424964	0.853831
H157	H	-0.140901	0.025269	0.358328
H158	H	0.359099	0.525269	0.858328
H159	H	-0.919301	0.103397	-0.439134
H160	H	-0.419301	0.603397	0.060866
C161	C	-0.719580	-0.000386	0.006679
C162	C	-0.219580	0.499614	0.506679
H163	H	-0.688979	0.002792	-0.038650
H164	H	-0.188979	0.502792	0.461350
H165	H	-0.749487	0.049786	0.008550
H166	H	-0.249487	0.549786	0.508550
H167	H	-0.754258	-0.050518	0.004050
H168	H	-0.254258	0.449482	0.504050
C169	C	-1.028789	0.195963	0.069765
C170	C	-0.528789	0.695963	0.569765
H171	H	-1.058571	0.237985	0.041657
H172	H	-0.558571	0.737985	0.541657
H173	H	-1.063177	0.158505	0.098600
H174	H	-0.563177	0.658505	0.598600
H175	H	-1.002181	0.163093	0.033571
H176	H	-0.502181	0.663093	0.533571
H177	H	-0.840260	0.768974	0.247722
H178	H	-0.340260	1.268974	0.747722
C179	C	-1.019751	0.386045	0.078326
C180	C	-0.519751	0.886045	0.578326
H181	H	-1.053345	0.348222	0.046639
H182	H	-0.553345	0.848222	0.546639
H183	H	-0.989798	0.423797	0.045308
H184	H	-0.489798	0.923797	0.545308
H185	H	-1.050776	0.419207	0.110354
H186	H	-0.550776	0.919207	0.610354
H187	H	-1.041135	0.617540	0.058164
H188	H	-0.541135	1.117540	0.558164
C189	C	-0.833485	0.590823	0.254093
C190	C	-0.333485	1.090823	0.754093
H191	H	-0.799908	0.628646	0.285794
H192	H	-0.299908	1.128646	0.785794
H193	H	-0.802456	0.557656	0.222080
H194	H	-0.302456	1.057656	0.722080
H195	H	-0.863452	0.553074	0.287109
H196	H	-0.363452	1.053074	0.787109
H197	H	-0.812096	0.359324	0.274242
H198	H	-0.312096	0.859324	0.774242
H199	H	-0.936917	-0.137018	-0.079153
H200	H	-0.436917	0.362982	0.420847
C201	C	-0.919036	0.181140	-0.226447
C202	C	-0.419036	0.681140	0.273553
H203	H	-0.918487	0.173769	-0.281861
H204	H	-0.418487	0.673769	0.218139
H205	H	-0.872078	0.212181	-0.208385
H206	H	-0.372078	0.712181	0.291615
H207	H	-0.963461	0.212624	-0.214643
H208	H	-0.463461	0.712624	0.285357
H209	H	-0.933936	-0.126535	-0.228455
H210	H	-0.433936	0.373465	0.271545
C211	C	-0.915017	0.137096	-0.599197
C212	C	-0.415017	0.637096	-0.099197
H213	H	-0.914473	0.129720	-0.654610
H214	H	-0.414473	0.629720	-0.154610
H215	H	-0.868059	0.168138	-0.581140
H216	H	-0.368059	0.668138	-0.081140
H217	H	-0.959442	0.168582	-0.587392
H218	H	-0.459442	0.668582	-0.087392
H219	H	-0.181306	-0.003241	0.047935
H220	H	0.318694	0.496759	0.547935
H221	H	-0.329701	-0.004084	0.059938
H222	H	0.170299	0.495916	0.559938
H223	H	-0.932893	-0.181060	-0.451891
H224	H	-0.432893	0.318940	0.048109
H225	H	-0.929917	-0.170576	-0.601205
H226	H	-0.429917	0.329424	-0.101205
