data_functionalizedCrystal
_audit_creation_method	'MofGen! by Chris Wilmer'
_symmetry_space_group_name_H-M	'P1'
_symmetry_Int_Tables_number	1
_symmetry_cell_setting	triclinic
loop_
_symmetry_equiv_pos_as_xyz
  x,y,z
_cell_length_a	15.995292
_cell_length_b	14.853567
_cell_length_c	13.930277
_cell_angle_alpha	90.000757
_cell_angle_beta	89.991610
_cell_angle_gamma	96.448227
loop_
_atom_site_label
_atom_site_type_symbol
_atom_site_fract_x
_atom_site_fract_y
_atom_site_fract_z
O1	O	1.111154	-0.115956	-0.079849
O2	O	0.867389	-0.130361	-0.079844
O3	O	0.995783	0.008082	-0.079849
O4	O	0.982760	-0.254398	-0.079843
O5	O	0.995765	0.008084	0.079813
O6	O	0.867371	-0.130358	0.079818
O7	O	1.111136	-0.115953	0.079813
Zn8	Zn	0.989251	-0.123155	0.105165
Zn9	Zn	0.989274	-0.123159	-0.105196
O10	O	0.982742	-0.254396	0.079819
C11	C	0.836184	-0.129773	-0.000012
C12	C	0.743229	-0.128015	-0.000011
C13	C	0.405483	-0.121554	-0.000022
C14	C	0.428911	-0.221478	-0.000376
C15	C	0.525589	-0.223377	-0.000012
C16	C	0.573042	-0.124760	-0.000017
C17	C	0.543872	-0.074801	0.091153
C18	C	0.447080	-0.073598	0.091226
C19	C	0.447243	-0.071561	-0.090340
C20	C	0.543740	-0.075264	-0.091541
C21	C	0.667741	-0.126567	-0.000011
C22	C	0.310785	-0.119744	-0.000022
C23	C	0.995184	0.041671	-0.000021
C24	C	0.993416	0.141752	-0.000029
C25	C	1.142341	-0.116541	-0.000020
C26	C	1.235296	-0.118299	-0.000028
C27	C	0.983341	-0.287985	-0.000012
C28	C	0.985110	-0.388066	-0.000010
N29	N	0.989241	-0.123152	0.248731
C30	C	0.909672	0.554154	-0.000010
C31	C	1.062207	0.575675	-0.000013
C32	C	1.063870	0.481644	-0.000018
C33	C	0.988432	0.423863	-0.000018
C34	C	0.911333	0.460114	-0.000012
C35	C	1.140968	0.445386	-0.000014
C36	C	1.142634	0.351349	-0.000019
C37	C	1.067196	0.293567	-0.000026
C38	C	0.990093	0.329823	-0.000021
C39	C	0.914655	0.272042	-0.000021
C40	C	0.837551	0.308297	-0.000023
C41	C	0.835894	0.402331	-0.000019
C42	C	1.068853	0.199532	-0.000030
C43	C	0.916316	0.178002	-0.000024
N44	N	0.989291	-0.123155	-0.248762
C45	C	0.932419	-0.184437	0.701003
C46	C	1.046152	-0.061874	0.700968
C47	C	1.046143	-0.061871	0.600472
C48	C	0.989271	-0.123153	0.550237
C49	C	0.932409	-0.184438	0.600498
C50	C	1.103009	-0.000593	0.550204
C51	C	1.103002	-0.000588	0.449702
C52	C	1.046125	-0.061867	0.399465
C53	C	0.989261	-0.123154	0.449732
C54	C	0.932389	-0.184436	0.399497
C55	C	0.875520	-0.245719	0.449763
C56	C	0.875533	-0.245717	0.550261
C57	C	1.046112	-0.061870	0.298966
C58	C	0.932379	-0.184437	0.298992
H59	H	0.576627	-0.003284	-0.097051
F60	F	1.163538	0.064619	0.603666
F61	F	0.836023	0.116514	-0.000030
F62	F	1.224693	0.312773	-0.000029
H63	H	0.773120	0.431858	-0.000020
F64	F	0.392387	-0.271825	-0.085836
F65	F	0.757269	0.246792	-0.000015
F66	F	1.163524	0.064635	0.396213
F67	F	1.150906	0.160951	-0.000012
F68	F	0.871843	-0.249659	0.245536
H69	H	1.092418	-0.011978	0.258045
H70	H	0.829233	-0.295612	0.591194
F71	F	0.550529	-0.274515	-0.085435
F72	F	0.815000	-0.310944	0.396288
H73	H	0.886115	-0.234331	0.741932
F74	F	0.827617	0.592738	-0.000020
H75	H	1.202385	0.492437	-0.000006
F76	F	0.391030	-0.271543	0.084603
F77	F	0.410290	-0.112400	-0.180663
H78	H	1.123625	0.622725	-0.000005
F79	F	1.106682	0.003339	0.754431
H80	H	0.544031	-0.262737	0.065455
F81	F	0.428846	0.024576	-0.091149
H82	H	0.420296	-0.108195	0.159381
H83	H	0.575656	-0.002232	0.094540
F84	F	0.427947	0.022160	0.096677
H85	H	0.562359	-0.111639	-0.158988
F86	F	0.570131	-0.120143	0.179843
