data_functionalizedCrystal
_audit_creation_method	'MofGen! by Chris Wilmer'
_symmetry_space_group_name_H-M	'P1'
_symmetry_Int_Tables_number	1
_symmetry_cell_setting	triclinic
loop_
_symmetry_equiv_pos_as_xyz
  x,y,z
_cell_length_a	19.077105
_cell_length_b	16.120484
_cell_length_c	19.076919
_cell_angle_alpha	95.046610
_cell_angle_beta	90.076224
_cell_angle_gamma	90.738523
loop_
_atom_site_label
_atom_site_type_symbol
_atom_site_fract_x
_atom_site_fract_y
_atom_site_fract_z
Zn1	Zn	1.040337	-0.403262	-0.456942
Zn2	Zn	1.540337	0.096738	0.043058
Zn3	Zn	1.039017	-0.537287	-0.344927
Zn4	Zn	1.539017	-0.037287	0.155073
Zn5	Zn	0.928051	-0.392095	-0.334278
Zn6	Zn	1.428051	0.107905	0.165722
Zn7	Zn	0.916861	-0.536784	-0.457659
Zn8	Zn	1.416861	-0.036784	0.042341
O9	O	0.981066	-0.467357	-0.398451
O10	O	1.481066	0.032643	0.101549
O11	O	1.138276	-0.425924	-0.446240
O12	O	1.638276	0.074076	0.053760
O13	O	1.028428	-0.513564	-0.245000
O14	O	1.528428	-0.013564	0.255000
O15	O	0.948182	-0.276934	-0.345793
O16	O	1.448182	0.223066	0.154207
O17	O	1.137306	-0.524392	-0.363943
O18	O	1.637306	-0.024392	0.136057
O19	O	1.030678	-0.285138	-0.435913
O20	O	1.530678	0.214862	0.064087
O21	O	0.946902	-0.406892	-0.237176
O22	O	1.446902	0.093108	0.262824
O23	O	0.828452	-0.406405	-0.346488
O24	O	1.328452	0.093595	0.153512
O25	O	0.929109	-0.523535	-0.556078
O26	O	1.429109	-0.023535	-0.056078
O27	O	0.820230	-0.512707	-0.437136
O28	O	1.320230	-0.012707	0.062864
O29	O	1.019827	-0.425436	-0.555551
O30	O	1.519827	0.074564	-0.055551
O31	O	1.017576	-0.653863	-0.364638
O32	O	1.517576	-0.153863	0.135362
O33	O	0.927829	-0.653494	-0.447462
O34	O	1.427829	-0.153494	0.052538
C35	C	0.798901	-0.458290	-0.390734
C36	C	1.298901	0.041710	0.109266
C37	C	0.720969	-0.454433	-0.387451
C38	C	1.220969	0.045567	0.112549
C39	C	0.971363	-0.683924	-0.407299
C40	C	1.471363	-0.183924	0.092701
C41	C	0.967276	-0.776577	-0.411111
C42	C	1.467276	-0.276577	0.088889
C43	C	0.680093	-0.508043	-0.433036
C44	C	1.180093	-0.008043	0.066964
C45	C	0.606867	-0.504408	-0.429953
C46	C	1.106867	-0.004408	0.070047
C47	C	0.574519	-0.447165	-0.381281
C48	C	1.074519	0.052835	0.118719
C49	C	0.615400	-0.393548	-0.335694
C50	C	1.115400	0.106452	0.164306
C51	C	0.688624	-0.397180	-0.338781
C52	C	1.188624	0.102820	0.161219
C53	C	0.355979	-0.430354	-0.367000
C54	C	0.855979	0.069646	0.133000
C55	C	0.282749	-0.426728	-0.363916
C56	C	0.782749	0.073272	0.136084
C57	C	0.274222	-0.537586	-0.458176
C58	C	0.774222	-0.037586	0.041824
C59	C	0.347448	-0.541217	-0.461255
C60	C	0.847448	-0.041217	0.038745
C61	C	0.388323	-0.487598	-0.415670
C62	C	0.888323	0.012402	0.084330
N63	N	0.499670	-0.443449	-0.378128
N64	N	0.999670	0.056551	0.121872
N65	N	0.463169	-0.491310	-0.418828
N66	N	0.963169	0.008690	0.081172
C67	C	0.959816	-0.946215	-0.418084
C68	C	1.459816	-0.446215	0.081916
C69	C	1.002442	-0.987665	-0.378836
C70	C	1.502442	-0.487665	0.121164
C71	C	0.998291	-1.082058	-0.382716
C72	C	1.498291	-0.582058	0.117284
C73	C	0.963966	-0.851814	-0.414205
C74	C	1.463966	-0.351814	0.085795
C75	C	1.163943	-0.476459	-0.406199
C76	C	1.663943	0.023541	0.093801
C77	C	1.241874	-0.480338	-0.409501
C78	C	1.741874	0.019662	0.090499
C79	C	0.973367	-0.475675	-0.582072
C80	C	1.473367	0.024325	-0.082072
C81	C	0.970086	-0.479220	-0.660321
C82	C	1.470086	0.020780	-0.160321
C83	C	0.990826	-0.249946	-0.389585
C84	C	1.490826	0.250054	0.110415
C85	C	0.994984	-0.157298	-0.385807
C86	C	1.494984	0.342702	0.114193
C87	C	1.015774	-0.429813	-0.696809
C88	C	1.515774	0.070187	-0.196809
C89	C	1.012683	-0.433140	-0.770331
C90	C	1.512683	0.066860	-0.270331
C91	C	0.963906	-0.485879	-0.807364
C92	C	1.463906	0.014121	-0.307364
C93	C	0.918214	-0.535288	-0.770871
C94	C	1.418214	-0.035288	-0.270871
C95	C	0.921302	-0.531956	-0.697350
C96	C	1.421302	-0.031956	-0.197350
C97	C	0.949602	-0.501317	-1.027278
C98	C	1.449602	-0.001317	-0.527278
C99	C	0.946518	-0.504647	-1.100804
C100	C	1.446518	-0.004647	-0.600804
C101	C	1.040987	-0.402498	-1.100259
C102	C	1.540987	0.097502	-0.600259
C103	C	1.044074	-0.399174	-1.026737
C104	C	1.544074	0.100826	-0.526737
C105	C	0.998378	-0.448580	-0.990250
C106	C	1.498378	0.051420	-0.490250
N107	N	0.960747	-0.489283	-0.882516
N108	N	1.460747	0.010717	-0.382516
N109	N	1.001535	-0.445171	-0.915099
N110	N	1.501535	0.054829	-0.415099
C111	C	0.988779	-0.459013	-0.215544
C112	C	1.488779	0.040987	0.284456
C113	C	0.992206	-0.455240	-0.137292
C114	C	1.492206	0.044760	0.362708
H115	H	0.706425	-0.554659	-0.472667
H116	H	1.206425	-0.054659	0.027333
O117	O	0.912632	-0.988416	-0.461744
O118	O	1.412632	-0.488416	0.038256
C119	C	0.925852	-0.971090	-0.531713
C120	C	1.425852	-0.471090	-0.031713
H121	H	0.982746	-0.949969	-0.536724
H122	H	1.482746	-0.449969	-0.036724
H123	H	0.915856	-1.029661	-0.568534
H124	H	1.415856	-0.529661	-0.068534
H125	H	0.889645	-0.919630	-0.546459
H126	H	1.389645	-0.419630	-0.046459
H127	H	0.878496	-0.578226	-0.801029
H128	H	1.378496	-0.078226	-0.301029
H129	H	0.884091	-0.572180	-0.667641
H130	H	1.384091	-0.072180	-0.167641
O131	O	1.063177	-0.378509	-0.660945
O132	O	1.563177	0.121491	-0.160945
C133	C	1.102850	-0.335630	-0.708921
C134	C	1.602850	0.164370	-0.208921
H135	H	1.072059	-0.333691	-0.759992
H136	H	1.572059	0.166309	-0.259992
H137	H	1.114169	-0.269365	-0.685319
H138	H	1.614169	0.230635	-0.185319
H139	H	1.154401	-0.369158	-0.720245
H140	H	1.654401	0.130842	-0.220245
H141	H	0.256414	-0.380104	-0.324285
H142	H	0.756414	0.119896	0.175715
O143	O	1.056965	-0.385046	-0.805793
O144	O	1.556965	0.114954	-0.305793
C145	C	1.017674	-0.331158	-0.844437
C146	C	1.517674	0.168842	-0.344437
H147	H	0.963614	-0.322267	-0.819728
H148	H	1.463614	0.177733	-0.319728
H149	H	1.045873	-0.268307	-0.843720
H150	H	1.545873	0.231693	-0.343720
H151	H	1.011765	-0.359322	-0.901109
H152	H	1.511765	0.140678	-0.401109
O153	O	0.234547	-0.589778	-0.502393
O154	O	0.734547	-0.089778	-0.002393
C155	C	0.249380	-0.673014	-0.491059
C156	C	0.749380	-0.173014	0.008941
H157	H	0.271666	-0.675577	-0.435828
H158	H	0.771666	-0.175577	0.064172
H159	H	0.199131	-0.712090	-0.496730
H160	H	0.699131	-0.212090	0.003270
H161	H	0.289337	-0.698682	-0.531455
H162	H	0.789337	-0.198682	-0.031455
H163	H	1.042052	-0.952260	-0.342319
H164	H	1.542052	-0.452260	0.157681
H165	H	1.083794	-0.356231	-0.996590
H166	H	1.583794	0.143769	-0.496590
O167	O	0.395574	-0.378235	-0.322649
O168	O	0.895574	0.121765	0.177351
C169	C	0.351318	-0.326921	-0.279043
C170	C	0.851318	0.173079	0.220957
H171	H	0.297699	-0.358364	-0.275749
H172	H	0.797699	0.141636	0.224251
H173	H	0.375191	-0.316454	-0.224113
H174	H	0.875191	0.183546	0.275887
H175	H	0.345276	-0.264452	-0.302003
H176	H	0.845276	0.235548	0.197997
H177	H	1.078188	-0.362273	-1.129975
H178	H	1.578188	0.137727	-0.629975
O179	O	0.378834	-0.596736	-0.508634
O180	O	0.878834	-0.096736	-0.008634
C181	C	0.358807	-0.580954	-0.577330
C182	C	0.858807	-0.080954	-0.077330
H183	H	0.341509	-0.513537	-0.577408
H184	H	0.841509	-0.013537	-0.077408
H185	H	0.405185	-0.592166	-0.614428
H186	H	0.905185	-0.092166	-0.114428
H187	H	0.313533	-0.624398	-0.595703
H188	H	0.813533	-0.124398	-0.095703
O189	O	0.899070	-0.555897	-1.136669
O190	O	1.399070	-0.055897	-0.636669
C191	C	0.859411	-0.598805	-1.088701
C192	C	1.359411	-0.098805	-0.588701
H193	H	0.860713	-0.562169	-1.034797
H194	H	1.360713	-0.062169	-0.534797
H195	H	0.802880	-0.605907	-1.107968
H196	H	1.302880	-0.105907	-0.607968
H197	H	0.882570	-0.663036	-1.084550
H198	H	1.382570	-0.163036	-0.584550
O199	O	0.905153	-0.549182	-0.991794
O200	O	1.405153	-0.049182	-0.491794
C201	C	0.863800	-0.497538	-0.945400
C202	C	1.363800	0.002462	-0.445400
H203	H	0.861486	-0.432681	-0.964703
H204	H	1.361486	0.067319	-0.464703
H205	H	0.808523	-0.524959	-0.943500
H206	H	1.308523	-0.024959	-0.443500
H207	H	0.887949	-0.493214	-0.890484
H208	H	1.387949	0.006786	-0.390484
O209	O	0.567265	-0.556579	-0.474257
O210	O	1.067265	-0.056579	0.025743
C211	C	0.611518	-0.607876	-0.517882
C212	C	1.111518	-0.107876	-0.017882
H213	H	0.664793	-0.611979	-0.491359
H214	H	1.164793	-0.111979	0.008641
H215	H	0.587114	-0.672853	-0.527080
H216	H	1.087114	-0.172853	-0.027080
H217	H	0.618432	-0.580275	-0.570483
H218	H	1.118432	-0.080275	-0.070483
O219	O	0.583866	-0.338012	-0.288439
O220	O	1.083866	0.161988	0.211561
C221	C	0.510471	-0.346286	-0.295500
C222	C	1.010471	0.153714	0.204500
H223	H	0.496629	-0.411202	-0.320671
H224	H	0.996629	0.088798	0.179329
H225	H	0.485099	-0.336759	-0.241369
H226	H	0.985099	0.163241	0.258631
H227	H	0.490336	-0.297588	-0.330170
H228	H	0.990336	0.202412	0.169830
O229	O	0.728363	-0.345023	-0.294595
O230	O	1.228363	0.154977	0.205405
C231	C	0.771462	-0.295193	-0.334338
C232	C	1.271462	0.204807	0.165662
H233	H	0.747309	-0.291565	-0.388656
H234	H	1.247309	0.208435	0.111344
H235	H	0.776224	-0.229890	-0.306377
H236	H	1.276224	0.270110	0.193623
H237	H	0.825705	-0.323828	-0.340119
H238	H	1.325705	0.176172	0.159881
