data_functionalizedCrystal
_audit_creation_method	'MofGen! by Chris Wilmer'
_symmetry_space_group_name_H-M	'P1'
_symmetry_Int_Tables_number	1
_symmetry_cell_setting	triclinic
loop_
_symmetry_equiv_pos_as_xyz
  x,y,z
_cell_length_a	16.120484
_cell_length_b	12.759401
_cell_length_c	12.759393
_cell_angle_alpha	90.018567
_cell_angle_beta	87.137118
_cell_angle_gamma	92.924448
loop_
_atom_site_label
_atom_site_type_symbol
_atom_site_fract_x
_atom_site_fract_y
_atom_site_fract_z
Zn1	Zn	-0.331878	1.584970	0.615149
Zn2	Zn	-0.471315	1.575922	0.448362
Zn3	Zn	-0.331918	1.409270	0.439491
Zn4	Zn	-0.471248	1.400322	0.623999
O5	O	-0.401590	1.492621	0.531750
O6	O	-0.350385	1.730790	0.593033
O7	O	-0.452869	1.553773	0.300167
O8	O	-0.215248	1.440108	0.455376
O9	O	-0.452829	1.724142	0.470496
O10	O	-0.215218	1.569195	0.584431
O11	O	-0.350455	1.431334	0.293650
O12	O	-0.350390	1.261062	0.463958
O13	O	-0.452715	1.424859	0.769843
O14	O	-0.452755	1.254489	0.599515
O15	O	-0.350320	1.560519	0.763341
O16	O	-0.587971	1.545097	0.479077
O17	O	-0.587922	1.416085	0.608117
C18	C	-0.401570	1.219655	0.531735
C19	C	-0.401582	1.102877	0.531754
C20	C	-0.348340	1.051464	0.595670
C21	C	-0.348356	0.941738	0.595678
C22	C	-0.454863	0.934850	0.467851
C23	C	-0.454842	1.044574	0.467838
C24	C	-0.286851	1.055439	0.669473
C25	C	-0.286867	0.945714	0.669481
C26	C	-0.618197	1.478666	0.545543
C27	C	-0.710862	1.472793	0.551478
C28	C	-0.880523	1.462075	0.562337
C29	C	-0.921816	1.523355	0.501181
C30	C	-1.016221	1.517392	0.507223
C31	C	-0.786109	1.468037	0.556297
C32	C	-0.184137	1.506659	0.517927
C33	C	-0.091472	1.512641	0.512036
C34	C	-0.401506	1.492700	0.805778
C35	C	-0.401470	1.492734	0.922553
C36	C	-0.401610	1.766653	0.531767
C37	C	-0.401619	1.883429	0.531774
C38	C	-0.401613	1.492607	0.258784
C39	C	-0.401414	1.492792	0.141996
C40	C	-0.348148	1.563381	0.974031
C41	C	-0.348118	1.563408	1.083753
C42	C	-0.454739	1.422136	1.090510
C43	C	-0.454764	1.422105	0.980790
C44	C	-0.286593	1.644947	0.970130
C45	C	-0.286563	1.644974	1.079853
H46	H	-0.498189	1.086431	0.415781
C47	C	-0.513449	0.870706	0.397551
N48	N	-0.557579	0.822393	0.344602
H49	H	-0.886269	1.580297	0.444286
H50	H	-0.310048	1.088017	0.748190
H51	H	-0.304242	0.914855	0.751925
H52	H	-0.225506	0.915608	0.636568
C53	C	-0.928544	1.385142	0.639183
N54	N	-0.964723	1.327192	0.697058
C55	C	-0.309935	1.753397	1.121577
N56	N	-0.327540	1.835057	1.153004
H57	H	-0.498181	1.364573	0.938881
C58	C	-0.513358	1.344448	1.154581
N59	N	-0.557512	1.285931	1.202838
C60	C	-0.199372	1.621124	0.924364
N61	N	-0.133680	1.603178	0.889893
C62	C	-0.317840	1.747343	0.926137
N63	N	-0.341371	1.824472	0.893001
H64	H	-0.225216	1.619795	1.109988
C65	C	-0.199588	1.101255	0.634651
N66	N	-0.133864	1.135762	0.608420
