data_functionalizedCrystal
_audit_creation_method	'MofGen! by Chris Wilmer'
_symmetry_space_group_name_H-M	'P1'
_symmetry_Int_Tables_number	1
_symmetry_cell_setting	triclinic
loop_
_symmetry_equiv_pos_as_xyz
  x,y,z
_cell_length_a	12.759401
_cell_length_b	18.050590
_cell_length_c	12.759393
_cell_angle_alpha	89.965202
_cell_angle_beta	89.980728
_cell_angle_gamma	90.018474
loop_
_atom_site_label
_atom_site_type_symbol
_atom_site_fract_x
_atom_site_fract_y
_atom_site_fract_z
Zn1	Zn	1.606226	-0.295624	-0.593976
Zn2	Zn	1.606109	-0.419832	-0.418283
Zn3	Zn	1.430528	-0.295660	-0.418313
Zn4	Zn	1.430505	-0.419777	-0.593922
O5	O	1.518342	-0.357723	-0.506124
O6	O	1.753231	-0.312109	-0.570681
O7	O	1.582779	-0.403399	-0.271266
O8	O	1.453894	-0.191731	-0.441650
O9	O	1.753145	-0.403364	-0.441600
O10	O	1.582978	-0.191704	-0.570709
O11	O	1.453780	-0.312171	-0.271288
O12	O	1.283504	-0.312117	-0.441597
O13	O	1.453854	-0.403269	-0.740950
O14	O	1.283487	-0.403304	-0.570617
O15	O	1.582955	-0.312055	-0.740990
O16	O	1.582756	-0.523750	-0.441547
O17	O	1.453740	-0.523709	-0.570588
C18	C	1.245375	-0.357709	-0.506105
C19	C	1.128598	-0.357721	-0.506122
C20	C	0.963989	-0.310191	-0.439073
C21	C	1.073713	-0.310177	-0.439061
C22	C	1.073753	-0.405277	-0.573207
C23	C	0.964031	-0.405287	-0.573224
C24	C	0.963967	-0.255288	-0.361621
C25	C	1.073691	-0.255273	-0.361609
C26	C	1.518261	-0.550676	-0.506082
C27	C	1.518323	-0.633221	-0.506099
C28	C	1.588627	-0.832667	-0.436024
C29	C	1.614295	-0.881992	-0.531911
C30	C	1.518382	-0.784352	-0.506141
C31	C	1.492822	-0.882108	-0.410297
C32	C	1.518442	-0.930337	-0.506173
C33	C	1.544099	-0.832589	-0.602078
C34	C	1.422582	-0.832701	-0.480399
C35	C	1.448212	-0.882004	-0.576352
C36	C	1.518351	-0.700253	-0.506121
C37	C	1.518473	-1.014433	-0.506204
C38	C	1.792375	-0.357738	-0.506143
C39	C	1.909152	-0.357745	-0.506151
C40	C	1.518415	-0.357652	-0.780157
C41	C	1.518446	-0.357621	-0.896934
C42	C	1.518452	-0.164018	-0.506189
C43	C	1.518498	-0.081472	-0.506216
C44	C	1.585701	-0.310086	-1.061543
C45	C	1.585676	-0.310117	-0.951819
C46	C	1.451244	-0.405103	-0.951779
C47	C	1.451275	-0.405076	-1.061501
C48	C	1.663312	-0.255244	-1.061566
C49	C	1.663287	-0.255275	-0.951842
C50	C	1.518330	-0.357741	-0.233156
C51	C	1.518502	-0.357563	-0.116380
H52	H	1.118449	-0.443983	-0.627817
O53	O	0.928414	-0.186677	-0.387620
C54	C	0.826714	-0.080651	-0.334620
C55	C	0.866928	-0.158333	-0.305031
H56	H	0.776976	-0.057718	-0.267873
H57	H	0.896178	-0.042260	-0.349192
H58	H	0.777154	-0.084489	-0.408745
H59	H	0.916470	-0.154566	-0.230892
H60	H	0.797417	-0.196693	-0.290527
O61	O	1.570213	-0.806722	-0.698753
C62	C	1.691115	-0.733902	-0.801054
C63	C	1.661669	-0.763162	-0.691521
H64	H	1.765046	-0.698665	-0.795241
H65	H	1.705897	-0.782589	-0.855972
H66	H	1.624142	-0.698747	-0.833034
H67	H	1.728603	-0.798305	-0.659448
H68	H	1.646849	-0.714441	-0.636675
O69	O	1.109223	-0.273444	-0.264460
C70	C	1.210854	-0.235649	-0.114586
C71	C	1.170667	-0.214969	-0.224581
H72	H	1.260557	-0.188390	-0.082320
H73	H	1.141375	-0.245854	-0.060256
H74	H	1.260440	-0.288045	-0.119784
H75	H	1.121098	-0.162562	-0.219483
H76	H	1.240192	-0.204812	-0.278867
H77	H	0.919386	-0.444004	-0.627854
O78	O	1.467052	-0.908180	-0.313639
C79	C	1.437190	-1.015707	-0.205658
C80	C	1.466398	-0.986284	-0.315167
H81	H	1.436631	-1.078856	-0.206862
H82	H	1.497148	-0.995493	-0.145932
H83	H	1.356087	-0.994545	-0.183123
H84	H	1.547476	-1.007434	-0.337800
H85	H	1.406374	-1.006491	-0.374829
O86	O	1.385906	-0.451223	-1.114607
C87	C	1.252621	-0.545480	-1.102984
C88	C	1.326583	-0.493241	-1.042711
H89	H	1.204655	-0.579476	-1.044881
H90	H	1.197643	-0.511409	-1.154334
H91	H	1.300874	-0.584266	-1.154369
H92	H	1.278415	-0.454445	-0.991268
H93	H	1.381564	-0.527358	-0.991426
O94	O	0.923478	-0.279777	-0.269275
C95	C	0.959794	-0.325889	-0.095783
C96	C	1.005788	-0.298152	-0.200299
H97	H	1.026320	-0.340767	-0.039994
H98	H	0.909539	-0.280488	-0.059332
H99	H	0.909461	-0.377000	-0.110680
H100	H	1.056169	-0.247054	-0.185492
H101	H	1.055984	-0.343598	-0.236718
H102	H	1.634200	-0.200599	-1.095616
O103	O	1.659656	-0.806851	-0.365477
C104	C	1.840942	-0.802714	-0.312930
C105	C	1.760616	-0.831987	-0.392906
H106	H	1.922583	-0.823037	-0.335065
H107	H	1.839815	-0.739561	-0.313045
H108	H	1.819875	-0.823915	-0.231419
H109	H	1.781628	-0.810840	-0.474456
H110	H	1.761759	-0.895138	-0.392699
O111	O	1.114160	-0.190053	-0.396496
C112	C	1.077807	-0.067548	-0.462205
C113	C	1.031835	-0.141364	-0.422701
H114	H	1.011270	-0.028168	-0.483424
H115	H	1.128028	-0.041649	-0.398058
H116	H	1.128169	-0.078203	-0.534455
H117	H	0.981426	-0.130772	-0.350470
H118	H	0.981673	-0.167240	-0.486911
O119	O	1.710910	-0.907850	-0.558103
C120	C	1.813179	-0.980046	-0.679603
C121	C	1.703704	-0.950811	-0.650075
H122	H	1.807386	-1.014799	-0.753952
H123	H	1.868341	-0.931349	-0.693697
H124	H	1.844850	-1.015678	-0.612965
H125	H	1.671939	-0.915191	-0.716675
H126	H	1.648613	-0.999542	-0.635944
H127	H	1.388834	-0.903530	-0.635730
O128	O	1.325960	-0.806877	-0.454187
C129	C	1.189713	-0.802804	-0.323496
C130	C	1.299155	-0.832086	-0.353054
H131	H	1.167997	-0.823186	-0.241738
H132	H	1.190411	-0.739650	-0.324420
H133	H	1.129672	-0.823940	-0.382493
H134	H	1.359257	-0.811004	-0.294086
H135	H	1.298369	-0.895238	-0.352162
H136	H	1.396510	-0.443787	-0.907082
H137	H	1.744683	-0.270643	-1.091341
O138	O	1.755476	-0.279965	-0.911357
C139	C	1.878343	-0.380973	-0.899499
C140	C	1.773937	-0.353098	-0.945437
H141	H	1.893291	-0.440109	-0.927016
H142	H	1.944939	-0.343636	-0.927130
H143	H	1.874053	-0.379821	-0.810269
H144	H	1.778124	-0.354250	-1.034668
H145	H	1.707384	-0.390441	-0.917723
H146	H	1.641516	-0.197763	-0.922081
