data_functionalizedCrystal
_audit_creation_method	'MofGen! by Chris Wilmer'
_symmetry_space_group_name_H-M	'P1'
_symmetry_Int_Tables_number	1
_symmetry_cell_setting	triclinic
loop_
_symmetry_equiv_pos_as_xyz
  x,y,z
_cell_length_a	8.559649
_cell_length_b	8.559649
_cell_length_c	7.088929
_cell_angle_alpha	84.655815
_cell_angle_beta	95.325015
_cell_angle_gamma	69.778664
loop_
_atom_site_label
_atom_site_type_symbol
_atom_site_fract_x
_atom_site_fract_y
_atom_site_fract_z
O1	O	2.108185	-0.036318	-0.158958
O2	O	1.632699	0.047464	-0.158965
O3	O	1.912333	-0.232170	-0.158959
O4	O	1.828551	0.243315	-0.158964
O5	O	1.949712	-0.269616	0.159017
O6	O	1.670079	0.010018	0.159011
O7	O	2.145564	-0.073764	0.159018
Cu8	Cu	1.911235	-0.035292	0.188048
Cu9	Cu	1.867029	0.008992	-0.187995
O10	O	1.865931	0.205870	0.159012
C11	C	1.591080	0.035090	0.000022
C12	C	1.411380	0.053990	0.000019
C13	C	1.937372	-0.311201	0.000026
C14	C	1.956269	-0.490899	0.000015
C15	C	2.187183	-0.061390	0.000027
C16	C	2.366881	-0.080288	0.000017
C17	C	1.840892	0.284902	0.000023
C18	C	1.821992	0.464601	0.000021
N19	N	1.942338	-0.066441	0.452537
N20	N	1.835940	0.040127	-0.452484
H21	H	1.692573	-0.436021	0.000025
C22	C	1.699342	0.339897	0.485537
C23	C	1.687072	0.189213	0.437303
H24	H	1.607440	0.431937	0.417477
H25	H	1.697218	0.342018	0.619016
H26	H	1.801681	0.347938	0.452797
H27	H	1.584738	0.181166	0.470056
H28	H	1.689179	0.187090	0.303795
H29	H	1.466259	-0.209706	0.000009
C30	C	1.119198	0.214260	0.000011
C31	C	1.277222	0.228719	0.000015
H32	H	1.036380	0.322129	0.000020
H33	H	1.093983	0.168498	-0.110869
H34	H	1.120057	0.142366	0.110902
H35	H	1.276367	0.300604	-0.110885
H36	H	1.302444	0.274506	0.110906
C37	C	2.251414	-0.548383	0.000024
C38	C	2.131002	-0.625057	0.000030
H39	H	2.359283	-0.631209	0.000044
H40	H	2.225290	-0.467938	-0.110863
H41	H	2.251346	-0.494025	0.110908
H42	H	2.131061	-0.679405	-0.110862
H43	H	2.157132	-0.705531	0.110928
C44	C	2.078943	-0.366218	0.514514
C45	C	2.091215	-0.215536	0.562755
H46	H	2.170857	-0.458259	0.582552
H47	H	1.976623	-0.374267	0.547258
H48	H	2.081056	-0.368327	0.381015
H49	H	2.089090	-0.213422	0.696253
H50	H	2.193561	-0.207486	0.530024
