data_functionalizedCrystal
_audit_creation_method	'MofGen! by Chris Wilmer'
_symmetry_space_group_name_H-M	'P1'
_symmetry_Int_Tables_number	1
_symmetry_cell_setting	triclinic
loop_
_symmetry_equiv_pos_as_xyz
  x,y,z
_cell_length_a	14.853569
_cell_length_b	13.330367
_cell_length_c	14.853559
_cell_angle_alpha	89.997552
_cell_angle_beta	96.366491
_cell_angle_gamma	90.005581
loop_
_atom_site_label
_atom_site_type_symbol
_atom_site_fract_x
_atom_site_fract_y
_atom_site_fract_z
O1	O	1.196364	0.083373	-0.117711
O2	O	0.933905	0.083384	-0.131731
O3	O	1.072149	0.083377	0.006510
O4	O	1.058120	0.083380	-0.255951
O5	O	1.072129	-0.083470	0.006513
O6	O	0.933885	-0.083463	-0.131728
O7	O	1.196344	-0.083475	-0.117708
Cu8	Cu	1.065113	-0.098703	-0.124717
Cu9	Cu	1.065136	0.098613	-0.124721
O10	O	1.058100	-0.083467	-0.255948
C11	C	0.900306	-0.000038	-0.131094
C12	C	0.800222	-0.000033	-0.129189
N13	N	1.065102	-0.237485	-0.124714
C14	C	0.763848	-0.000031	-0.046178
C15	C	0.742554	-0.000040	-0.210411
C16	C	0.648520	-0.000041	-0.208625
C17	C	0.612146	-0.000039	-0.125614
C18	C	0.669806	-0.000035	-0.044389
C19	C	0.590853	-0.000055	-0.289848
C20	C	0.496812	-0.000058	-0.288065
C21	C	0.460437	-0.000048	-0.205053
C22	C	0.518103	-0.000043	-0.123825
C23	C	0.481729	-0.000040	-0.040813
C24	C	0.539394	-0.000028	0.040416
C25	C	0.633430	-0.000025	0.038623
C26	C	0.366401	-0.000051	-0.203260
C27	C	0.387687	-0.000044	-0.039024
C28	C	1.003919	-0.710105	-0.185910
C29	C	1.126378	-0.710079	-0.063525
C30	C	1.126368	-0.605060	-0.063522
C31	C	1.065133	-0.552559	-0.124715
C32	C	1.003909	-0.605076	-0.185911
C33	C	1.187597	-0.552535	-0.002334
C34	C	1.187590	-0.447511	-0.002330
C35	C	1.126350	-0.395008	-0.063519
C36	C	1.065123	-0.447531	-0.124716
C37	C	1.003888	-0.395030	-0.185909
C38	C	0.942656	-0.447552	-0.247102
C39	C	0.942669	-0.552573	-0.247100
C40	C	1.126337	-0.289986	-0.063522
C41	C	1.003878	-0.290002	-0.185910
C42	C	1.229943	-0.000050	-0.118345
C43	C	1.330027	-0.000048	-0.120249
C44	C	1.071505	-0.000045	0.040100
C45	C	1.069604	-0.000039	0.140184
N46	N	1.065154	0.237394	-0.124717
C47	C	1.058744	-0.000044	-0.289538
C48	C	1.060645	-0.000043	-0.389622
C49	C	1.061551	0.090910	0.563357
C50	C	1.061529	-0.090993	0.563356
C51	C	1.063323	-0.090994	0.469322
C52	C	1.064229	-0.000042	0.422302
C53	C	1.063342	0.090912	0.469315
C54	C	1.064201	-0.181946	0.422301
C55	C	1.065993	-0.181951	0.328262
C56	C	1.066906	-0.090997	0.281241
C57	C	1.066020	-0.000040	0.328260
C58	C	1.066926	0.090913	0.281239
C59	C	1.066047	0.181871	0.328258
C60	C	1.064255	0.181865	0.422294
C61	C	1.068698	-0.090992	0.187204
C62	C	1.068717	0.090914	0.187197
H63	H	0.358079	-0.000037	0.028574
H64	H	1.063458	-0.255995	0.460591
H65	H	1.176238	-0.752829	-0.013708
C66	C	1.193683	-0.232216	0.003783
H67	H	1.230152	-0.278526	0.040228
H68	H	1.231240	-0.191233	-0.028719
H69	H	1.161202	-0.191262	0.041379
H70	H	0.509766	-0.000020	0.108003
H71	H	0.319454	-0.000070	-0.269396
C72	C	1.069713	0.190964	0.135482
H73	H	1.068927	0.245130	0.176953
H74	H	1.122941	0.194744	0.105604
H75	H	1.017871	0.194749	0.091991
C76	C	0.827272	-0.000022	0.043167
H77	H	0.888488	-0.000025	0.030217
H78	H	0.816234	0.058161	0.077198
H79	H	0.816232	-0.058213	0.077200
C80	C	0.630865	-0.000062	-0.381151
H81	H	0.695128	-0.000046	-0.370581
H82	H	0.611082	-0.058249	-0.414594
H83	H	0.611081	0.058125	-0.414604
C84	C	1.066963	-0.281996	0.276546
H85	H	1.068155	-0.268971	0.213806
H86	H	1.119194	-0.319372	0.298771
H87	H	1.014125	-0.319359	0.285144
C88	C	0.782563	-0.000044	-0.301716
H89	H	0.846827	-0.000036	-0.291148
H90	H	0.762774	-0.058227	-0.335162
H91	H	0.762784	0.058147	-0.335163
H92	H	1.063538	0.255919	0.460584
C93	C	1.060580	0.190956	0.615071
H94	H	1.059379	0.177934	0.677810
H95	H	1.113407	0.228326	0.606466
H96	H	1.008338	0.228324	0.592847
C97	C	1.067042	0.281915	0.276533
H98	H	1.066257	0.336087	0.317997
H99	H	1.120269	0.285688	0.246654
H100	H	1.015200	0.285694	0.233043
H101	H	1.060785	-0.165043	0.601644
C102	C	0.696857	-0.000011	0.127967
H103	H	0.661729	0.000002	0.177663
H104	H	0.733982	-0.058192	0.130689
H105	H	0.733984	0.058182	0.130671
C106	C	0.433390	-0.000059	-0.377411
H107	H	0.468523	-0.000053	-0.427104
H108	H	0.396255	-0.058239	-0.380127
H109	H	0.396273	0.058135	-0.380128
C110	C	0.936520	-0.232258	-0.253225
H111	H	0.900062	-0.278582	-0.289670
H112	H	0.898954	-0.191294	-0.220728
H113	H	0.968996	-0.191287	-0.290820
H114	H	0.892802	-0.404793	-0.296930
C115	C	0.875329	-0.610348	-0.314412
H116	H	0.884115	-0.680414	-0.305654
H117	H	0.815148	-0.593158	-0.304516
H118	H	0.885198	-0.593128	-0.374602
H119	H	1.069393	-0.165048	0.148924
H120	H	0.954062	-0.752870	-0.235730
H121	H	1.237457	-0.595285	0.047483
H122	H	1.237448	-0.404754	0.047498
