data_functionalizedCrystal
_audit_creation_method	'MofGen! by Chris Wilmer'
_symmetry_space_group_name_H-M	'P1'
_symmetry_Int_Tables_number	1
_symmetry_cell_setting	triclinic
loop_
_symmetry_equiv_pos_as_xyz
  x,y,z
_cell_length_a	12.827893
_cell_length_b	18.101395
_cell_length_c	12.827885
_cell_angle_alpha	89.967625
_cell_angle_beta	89.980728
_cell_angle_gamma	90.031075
loop_
_atom_site_label
_atom_site_type_symbol
_atom_site_fract_x
_atom_site_fract_y
_atom_site_fract_z
Zn1	Zn	1.597556	-0.294794	-0.590830
Zn2	Zn	1.597402	-0.418654	-0.416082
Zn3	Zn	1.422797	-0.294830	-0.416103
Zn4	Zn	1.422734	-0.418598	-0.590782
O5	O	1.510122	-0.356719	-0.503449
O6	O	1.743771	-0.311233	-0.567660
O7	O	1.574202	-0.402266	-0.269849
O8	O	1.446070	-0.191193	-0.439310
O9	O	1.743658	-0.402231	-0.439274
O10	O	1.574464	-0.191166	-0.567681
O11	O	1.445920	-0.311294	-0.269865
O12	O	1.276553	-0.311241	-0.439264
O13	O	1.445963	-0.402137	-0.737025
O14	O	1.276507	-0.402172	-0.567600
O15	O	1.574403	-0.311179	-0.737060
O16	O	1.574141	-0.522279	-0.439228
O17	O	1.445814	-0.522239	-0.567579
C18	C	1.238612	-0.356705	-0.503430
C19	C	1.122459	-0.356717	-0.503446
C20	C	1.070679	-0.401783	-0.566852
C21	C	0.950629	-0.401796	-0.566871
C22	C	1.509982	-0.549130	-0.503419
C23	C	1.510018	-0.631444	-0.503440
C24	C	1.510247	-0.930535	-0.503497
C25	C	1.429695	-0.899215	-0.584452
C26	C	1.429312	-0.813597	-0.584199
C27	C	1.510134	-0.782152	-0.503470
C28	C	1.480314	-0.813311	-0.393335
C29	C	1.479795	-0.898956	-0.393820
C30	C	1.620796	-0.898877	-0.531706
C31	C	1.620146	-0.813226	-0.534121
C32	C	1.510071	-0.698293	-0.503448
C33	C	1.510307	-1.014394	-0.503511
C34	C	1.782692	-0.356734	-0.503470
C35	C	1.898845	-0.356740	-0.503479
C36	C	1.510193	-0.356648	-0.776020
C37	C	1.510224	-0.356618	-0.892173
C38	C	1.510291	-0.163557	-0.503503
C39	C	1.510363	-0.081243	-0.503526
C40	C	1.573787	-0.311600	-0.943975
C41	C	1.573820	-0.311568	-1.064025
C42	C	1.510111	-0.356737	-0.231940
C43	C	1.510284	-0.356558	-0.115787
H44	H	1.448166	-0.919757	-0.666380
H45	H	1.077913	-0.318141	-0.449179
N46	N	1.645913	-0.260509	-1.123014
H47	H	1.694288	-0.290622	-1.168295
H48	H	1.603374	-0.226213	-1.168246
N49	N	1.438188	-0.407605	-1.056781
H50	H	1.363522	-0.396101	-1.075719
H51	H	1.454438	-0.460510	-1.075722
N52	N	1.438160	-0.407631	-0.951153
H53	H	1.480647	-0.441910	-0.996438
H54	H	1.395745	-0.437629	-0.900031
H55	H	1.115225	-0.440353	-0.621127
H56	H	0.906099	-0.440381	-0.621152
H57	H	0.943368	-0.318158	-0.449188
N58	N	1.454016	-0.785681	-0.692370
H59	H	1.465254	-0.829010	-0.740647
H60	H	1.393998	-0.754796	-0.718721
H61	H	1.535921	-0.919677	-0.331445
N62	N	1.321810	-0.927804	-0.560022
H63	H	1.324888	-0.960955	-0.496742
H64	H	1.273834	-0.884798	-0.545508
N65	N	1.320777	-0.786540	-0.559433
H66	H	1.320076	-0.730746	-0.559166
H67	H	1.270578	-0.805343	-0.613955
N68	N	1.372757	-0.925515	-0.362163
H69	H	1.326354	-0.881587	-0.348027
H70	H	1.341879	-0.956138	-0.420260
N71	N	1.555571	-0.786337	-0.311244
H72	H	1.628387	-0.803302	-0.329199
H73	H	1.553755	-0.730594	-0.308487
N74	N	1.374397	-0.785001	-0.361117
H75	H	1.355903	-0.805359	-0.290155
H76	H	1.375918	-0.729259	-0.358085
N77	N	1.656816	-0.927410	-0.636270
H78	H	1.601831	-0.961153	-0.666415
H79	H	1.668718	-0.884419	-0.685069
H80	H	1.683338	-0.791817	-0.479455
N81	N	1.649944	-0.786248	-0.641483
H82	H	1.592431	-0.754031	-0.670154
H83	H	1.716600	-0.756703	-0.636992
N84	N	1.700298	-0.925699	-0.453608
H85	H	1.664937	-0.958198	-0.400208
H86	H	1.756046	-0.954915	-0.490868
H87	H	1.628178	-0.273080	-0.899448
