data_functionalizedCrystal
_audit_creation_method	'MofGen! by Chris Wilmer'
_symmetry_space_group_name_H-M	'P1'
_symmetry_Int_Tables_number	1
_symmetry_cell_setting	triclinic
loop_
_symmetry_equiv_pos_as_xyz
  x,y,z
_cell_length_a	12.759401
_cell_length_b	12.594516
_cell_length_c	12.759393
_cell_angle_alpha	89.962719
_cell_angle_beta	90.017451
_cell_angle_gamma	89.983361
loop_
_atom_site_label
_atom_site_type_symbol
_atom_site_fract_x
_atom_site_fract_y
_atom_site_fract_z
Zn1	Zn	1.606223	0.423704	0.593943
Zn2	Zn	1.606112	0.601724	0.418246
Zn3	Zn	1.430528	0.423757	0.418282
Zn4	Zn	1.430504	0.601638	0.593888
O5	O	1.518342	0.512706	0.506090
O6	O	1.753229	0.447333	0.570645
O7	O	1.582783	0.578175	0.271230
O8	O	1.453891	0.274804	0.441622
O9	O	1.753147	0.578123	0.441561
O10	O	1.582973	0.274766	0.570680
O11	O	1.453783	0.447423	0.271256
O12	O	1.283504	0.447340	0.441568
O13	O	1.453850	0.577977	0.740916
O14	O	1.283487	0.578028	0.570585
O15	O	1.582950	0.447250	0.740957
O16	O	1.582760	0.750659	0.441507
O17	O	1.453743	0.750596	0.570550
C18	C	1.245374	0.512681	0.506075
C19	C	1.128598	0.512696	0.506094
C20	C	1.073771	0.444722	0.573412
C21	C	0.964047	0.444742	0.573418
C22	C	0.963986	0.580720	0.438786
C23	C	1.073708	0.580694	0.438775
C24	C	1.073806	0.366219	0.651144
C25	C	0.964082	0.366240	0.651151
C26	C	1.518265	0.789247	0.506042
C27	C	1.518329	0.907552	0.506056
C28	C	1.588576	0.976801	0.435937
C29	C	1.614243	1.047493	0.531822
C30	C	1.492773	1.047660	0.410210
C31	C	1.544045	0.976686	0.601991
C32	C	1.422530	0.976847	0.480314
C33	C	1.448160	1.047506	0.576265
C34	C	1.792375	0.512732	0.506105
C35	C	1.909152	0.512743	0.506112
C36	C	1.518410	0.512598	0.780123
C37	C	1.518439	0.512552	0.896900
C38	C	1.518422	1.235085	0.506134
C39	C	1.518392	1.116780	0.506083
C40	C	1.518334	0.512737	0.233122
C41	C	1.518509	0.512484	0.116346
C42	C	1.451297	0.444457	0.951782
C43	C	1.451329	0.444425	1.061506
C44	C	1.585654	0.580586	1.061457
C45	C	1.585616	0.580622	0.951735
C46	C	1.373749	0.365842	0.951811
C47	C	1.373780	0.365810	1.061535
H48	H	1.107868	0.395834	0.728379
H49	H	1.341511	0.945789	0.458495
H50	H	1.402917	0.287552	0.917802
H51	H	1.695285	1.078528	0.553613
F52	F	1.132054	0.653015	0.367101
H53	H	1.565606	0.945643	0.683129
H54	H	0.930045	0.287900	0.622159
H55	H	1.103577	0.283751	0.629498
F56	F	1.402184	0.258017	1.100498
H57	H	0.934334	0.388421	0.732484
F58	F	1.370547	1.087833	0.653873
F59	F	1.657066	0.653109	0.893329
F60	F	1.666245	0.936219	0.358512
F61	F	0.905559	0.653083	0.367144
F62	F	1.464485	1.088408	0.304250
H63	H	1.640347	0.636006	1.106117
H64	H	1.296482	0.395315	1.095558
F65	F	1.267369	0.394695	0.912882
