data_functionalizedCrystal
_audit_creation_method	'MofGen! by Chris Wilmer'
_symmetry_space_group_name_H-M	'P1'
_symmetry_Int_Tables_number	1
_symmetry_cell_setting	triclinic
loop_
_symmetry_equiv_pos_as_xyz
  x,y,z
_cell_length_a	11.169417
_cell_length_b	12.759394
_cell_length_c	11.169409
_cell_angle_alpha	89.965476
_cell_angle_beta	89.980176
_cell_angle_gamma	90.015716
loop_
_atom_site_label
_atom_site_type_symbol
_atom_site_fract_x
_atom_site_fract_y
_atom_site_fract_z
Zn1	Zn	1.834925	-0.418157	-0.678525
Zn2	Zn	1.834798	-0.593883	-0.477834
Zn3	Zn	1.634211	-0.418221	-0.477859
Zn4	Zn	1.634202	-0.593797	-0.678479
O5	O	1.734534	-0.506014	-0.578174
O6	O	2.002858	-0.441476	-0.651911
O7	O	1.808141	-0.570643	-0.309887
O8	O	1.660892	-0.271191	-0.504507
O9	O	2.002765	-0.570581	-0.504465
O10	O	1.808356	-0.271144	-0.651935
O11	O	1.660770	-0.441585	-0.309906
O12	O	1.466260	-0.441502	-0.504463
O13	O	1.660878	-0.570435	-0.846435
O14	O	1.466254	-0.570498	-0.651857
O15	O	1.808348	-0.441393	-0.846468
O16	O	1.808133	-0.740892	-0.504420
O17	O	1.660756	-0.740830	-0.651833
C18	C	1.422709	-0.505998	-0.578159
C19	C	1.289309	-0.506017	-0.578180
C20	C	1.734462	-0.778982	-0.578145
C21	C	1.734541	-0.895759	-0.578173
C22	C	1.888120	-0.895771	-0.424787
C23	C	1.964941	-0.950637	-0.348108
C24	C	1.965011	-1.060359	-0.348140
C25	C	1.888255	-1.115216	-0.424863
C26	C	1.811434	-1.060349	-0.501541
C27	C	1.811370	-0.950625	-0.501498
C28	C	1.657863	-1.060337	-0.654932
C29	C	1.657785	-0.950616	-0.654895
C30	C	1.581107	-1.115195	-0.731654
C31	C	1.504279	-1.060328	-0.808329
C32	C	1.504210	-0.950600	-0.808292
C33	C	1.580964	-0.895749	-0.731574
C34	C	2.047576	-0.506031	-0.578190
C35	C	2.180976	-0.506038	-0.578197
C36	C	1.734626	-0.505898	-0.891217
C37	C	1.734666	-0.505848	-1.024617
C38	C	1.734639	-0.231981	-0.578229
C39	C	1.734684	-0.115204	-0.578253
C40	C	1.734511	-0.506055	-0.266349
C41	C	1.734705	-0.505808	-0.132950
H42	H	1.888055	-0.806430	-0.424737
C43	C	1.581311	-1.234321	-0.731921
C44	C	1.611937	-1.270511	-0.846212
C45	C	1.612150	-1.380244	-0.846499
H46	H	1.503925	-1.259348	-0.711195
H47	H	1.638089	-1.259183	-0.675322
H48	H	1.555161	-1.245660	-0.902793
H49	H	1.689323	-1.245512	-0.866960
H50	H	1.668928	-1.405106	-0.789900
H51	H	1.534762	-1.405261	-0.825769
H52	H	1.632940	-1.404813	-0.924041
C53	C	1.421103	-1.119831	-0.891821
C54	C	1.447186	-1.093045	-1.010581
C55	C	1.370599	-1.147854	-1.087528
H56	H	1.340414	-1.101976	-0.874347
H57	H	1.432165	-1.193045	-0.880945
H58	H	1.436114	-1.019848	-1.021452
H59	H	1.527861	-1.110904	-1.028092
H60	H	1.381661	-1.221067	-1.076652
H61	H	1.289915	-1.129994	-1.070043
H62	H	1.388293	-1.129695	-1.168115
C63	C	1.421005	-0.890976	-0.891696
C64	C	1.488892	-0.827894	-0.968669
C65	C	1.412285	-0.772968	-1.045529
H66	H	1.368676	-0.848162	-0.845874
H67	H	1.375328	-0.939329	-0.937461
H68	H	1.534548	-0.779546	-0.922909
H69	H	1.541218	-0.870681	-1.014518
H70	H	1.366609	-0.821322	-1.091294
H71	H	1.359960	-0.730160	-0.999697
H72	H	1.458335	-0.730168	-1.097772
H73	H	2.027437	-0.905963	-0.285643
H74	H	2.027571	-1.105031	-0.285708
H75	H	1.888329	-1.204557	-0.424893
H76	H	1.580908	-0.806408	-0.731529
