data_functionalizedCrystal
_audit_creation_method	'MofGen! by Chris Wilmer'
_symmetry_space_group_name_H-M	'P1'
_symmetry_Int_Tables_number	1
_symmetry_cell_setting	triclinic
loop_
_symmetry_equiv_pos_as_xyz
  x,y,z
_cell_length_a	16.109301
_cell_length_b	11.792241
_cell_length_c	15.186229
_cell_angle_alpha	89.996105
_cell_angle_beta	89.999362
_cell_angle_gamma	83.827448
loop_
_atom_site_label
_atom_site_type_symbol
_atom_site_fract_x
_atom_site_fract_y
_atom_site_fract_z
O1	O	1.103817	0.145885	-0.073173
O2	O	0.861841	0.164040	-0.073187
O3	O	0.988701	-0.010259	-0.073174
O4	O	0.976957	0.320185	-0.073187
O5	O	0.988692	-0.010262	0.073284
O6	O	0.861832	0.164038	0.073270
O7	O	1.103809	0.145883	0.073284
Zn8	Zn	0.982819	0.154960	0.096530
Zn9	Zn	0.982830	0.154963	-0.096433
O10	O	0.976948	0.320182	0.073271
C11	C	0.830858	0.163304	0.000040
C12	C	0.738552	0.161099	0.000034
C13	C	0.516743	0.259398	0.000041
C14	C	0.430012	0.257318	0.000047
C15	C	0.448914	0.050517	0.000051
C16	C	0.535642	0.052599	0.000052
C17	C	0.569554	0.157043	0.000042
C18	C	0.396095	0.152880	0.000047
C19	C	0.302059	0.150624	0.000053
C20	C	0.663597	0.159300	0.000037
C21	C	0.987959	-0.052545	0.000055
C22	C	0.985751	-0.178539	0.000054
C23	C	0.981691	-0.409216	0.000039
C24	C	0.983947	-0.280850	0.000047
C25	C	1.134791	0.146619	0.000055
C26	C	1.227097	0.148824	0.000055
C27	C	0.977690	0.362468	0.000040
C28	C	0.979898	0.488462	0.000035
N29	N	0.982817	0.154957	0.228223
N30	N	0.982838	0.154957	-0.228126
C31	C	1.039011	0.077803	0.453952
C32	C	1.039013	0.077800	0.546141
C33	C	0.926639	0.232115	0.546139
C34	C	0.926633	0.232111	0.453951
C35	C	0.982824	0.154957	0.407860
C36	C	0.982832	0.154958	0.592237
C37	C	0.982835	0.154955	0.692193
C38	C	0.982820	0.154957	0.307897
H39	H	0.387016	0.340666	0.000047
O40	O	1.093675	0.002813	0.590779
C41	C	1.143249	-0.065302	0.530325
H42	H	1.144393	-0.018766	0.464608
H43	H	1.115878	-0.149627	0.520526
C44	C	1.231427	-0.145815	0.647013
C45	C	1.232838	-0.088654	0.566301
H46	H	1.286689	-0.160225	0.669206
H47	H	1.198027	-0.099928	0.687743
H48	H	1.208613	-0.216080	0.638837
H49	H	1.255641	-0.018385	0.574481
H50	H	1.266245	-0.134530	0.525573
O51	O	0.549724	0.360823	-0.000118
C52	C	0.599341	0.368212	-0.075960
H53	H	0.578570	0.308912	-0.128975
H54	H	0.667611	0.342014	-0.058812
C55	C	0.614891	0.564613	-0.045239
C56	C	0.589374	0.491786	-0.110357
H57	H	0.608746	0.640839	-0.066456
H58	H	0.581465	0.559634	0.005858
H59	H	0.671780	0.542767	-0.030955
H60	H	0.532482	0.513623	-0.124632
H61	H	0.622789	0.496771	-0.161458
H62	H	1.084763	0.014978	0.416427
O63	O	0.415832	-0.050835	0.000014
C64	C	0.327958	-0.030727	0.000033
H65	H	0.307991	0.057853	-0.027695
H66	H	0.303792	-0.036225	0.070295
C67	C	0.316109	-0.229789	-0.023347
C68	C	0.291585	-0.120997	-0.057410
H69	H	0.293671	-0.285474	-0.058776
H70	H	0.375311	-0.243338	-0.023356
H71	H	0.295968	-0.234354	0.035205
H72	H	0.311734	-0.116429	-0.115956
H73	H	0.232385	-0.107450	-0.057412
O74	O	0.586984	-0.046805	0.000206
C75	C	0.637730	-0.051777	0.076047
H76	H	0.606227	0.006265	0.129062
H77	H	0.700919	-0.022412	0.058898
C78	C	0.689051	-0.246567	0.045327
C79	C	0.650355	-0.175286	0.110444
H80	H	0.696843	-0.322753	0.066543
H81	H	0.654865	-0.243217	-0.005771
H82	H	0.741705	-0.222082	0.031042
H83	H	0.597699	-0.199763	0.124719
H84	H	0.684533	-0.178643	0.161545
H85	H	0.880891	0.294934	0.583675
O86	O	0.872020	0.307173	0.409307
C87	C	0.822417	0.375260	0.469754
H88	H	0.856510	0.376564	0.535467
H89	H	0.760493	0.338383	0.479567
C90	C	0.763955	0.496087	0.353051
C91	C	0.805832	0.497696	0.433758
H92	H	0.753720	0.571610	0.330847
H93	H	0.797370	0.450213	0.312326
H94	H	0.712356	0.465350	0.361240
H95	H	0.857433	0.528419	0.425567
H96	H	0.772424	0.543578	0.474482
