data_functionalizedCrystal
_audit_creation_method	'MofGen! by Chris Wilmer'
_symmetry_space_group_name_H-M	'P1'
_symmetry_Int_Tables_number	1
_symmetry_cell_setting	triclinic
loop_
_symmetry_equiv_pos_as_xyz
  x,y,z
_cell_length_a	8.559649
_cell_length_b	10.654550
_cell_length_c	7.088929
_cell_angle_alpha	83.717104
_cell_angle_beta	95.324505
_cell_angle_gamma	77.131784
loop_
_atom_site_label
_atom_site_type_symbol
_atom_site_fract_x
_atom_site_fract_y
_atom_site_fract_z
O1	O	2.103415	-0.028082	-0.158980
O2	O	1.638928	0.036705	-0.158984
O3	O	1.881852	-0.179532	-0.158975
O4	O	1.860491	0.188154	-0.158989
O5	O	1.914315	-0.208488	0.159001
O6	O	1.671392	0.007749	0.158992
O7	O	2.135878	-0.057038	0.158996
Cu8	Cu	1.906599	-0.027289	0.188028
Cu9	Cu	1.868207	0.006955	-0.188016
O10	O	1.892955	0.159198	0.158987
C11	C	1.595685	0.027136	0.000003
C12	C	1.418466	0.041751	0.000002
C13	C	1.896515	-0.240646	0.000011
C14	C	1.891822	-0.379604	0.000004
C15	C	2.034852	-0.473865	0.000011
C16	C	2.030432	-0.604428	-0.000002
C17	C	1.739942	-0.546456	-0.000022
C18	C	1.744362	-0.415894	-0.000022
C19	C	2.182313	-0.437574	0.000037
C20	C	2.325354	-0.531838	0.000046
C21	C	2.320934	-0.662401	0.000033
C22	C	2.173473	-0.698701	0.000010
C23	C	2.179122	-0.047470	0.000004
C24	C	2.356339	-0.062083	-0.000007
C25	C	1.878291	0.220312	-0.000003
C26	C	1.882983	0.359271	-0.000009
N27	N	1.933614	-0.051376	0.452517
N28	N	1.841205	0.031031	-0.452505
H29	H	2.185928	-0.331267	0.000054
O30	O	1.454525	-0.181485	-0.000330
C31	C	1.519264	-0.369188	-0.164992
C32	C	1.407978	-0.233974	-0.164885
H33	H	1.481650	-0.411677	-0.298001
H34	H	1.649494	-0.360170	-0.165097
H35	H	1.508966	-0.435860	-0.031862
H36	H	1.418135	-0.167229	-0.297993
H37	H	1.277794	-0.243093	-0.164681
H38	H	1.745435	0.116430	0.465845
H39	H	2.437404	-0.739147	0.000021
H40	H	1.619886	-0.576023	-0.000037
H41	H	2.445407	-0.502269	0.000017
O42	O	2.047791	-0.153408	0.549713
C43	C	2.144719	-0.386125	0.611415
C44	C	2.015339	-0.270695	0.501188
H45	H	2.118508	-0.480980	0.572253
H46	H	2.268830	-0.378758	0.572107
H47	H	2.142538	-0.384085	0.771614
H48	H	2.017372	-0.272663	0.340964
H49	H	1.891287	-0.278104	0.540655
H50	H	2.169884	-0.805015	-0.000021
H51	H	1.336076	0.141831	-0.000021
H52	H	1.627895	-0.339143	-0.000025
