data_functionalizedCrystal
_audit_creation_method	'MofGen! by Chris Wilmer'
_symmetry_space_group_name_H-M	'P1'
_symmetry_Int_Tables_number	1
_symmetry_cell_setting	triclinic
loop_
_symmetry_equiv_pos_as_xyz
  x,y,z
_cell_length_a	15.944499
_cell_length_b	14.586319
_cell_length_c	16.109301
_cell_angle_alpha	90.003802
_cell_angle_beta	96.530404
_cell_angle_gamma	89.993903
loop_
_atom_site_label
_atom_site_type_symbol
_atom_site_fract_x
_atom_site_fract_y
_atom_site_fract_z
O1	O	1.114515	-0.076295	-0.107022
O2	O	0.869955	-0.076285	-0.120287
O3	O	0.998953	-0.076284	0.007375
O4	O	0.985517	-0.076296	-0.234685
O5	O	0.998944	0.076196	0.007377
O6	O	0.869946	0.076196	-0.120286
O7	O	1.114506	0.076185	-0.107020
Cu8	Cu	0.992225	0.090113	-0.113653
Cu9	Cu	0.992236	-0.090213	-0.113655
O10	O	0.985508	0.076185	-0.234683
C11	C	0.838656	-0.000043	-0.119743
C12	C	0.745408	-0.000039	-0.118115
C13	C	0.453848	-0.000057	-0.192284
C14	C	0.514894	-0.075237	-0.153730
C15	C	0.409773	-0.000060	-0.112200
C16	C	0.514871	0.075097	-0.153707
C17	C	0.574681	-0.000048	-0.115111
C18	C	0.469592	-0.075303	-0.073624
C19	C	0.469562	0.075099	-0.073612
C20	C	0.530591	-0.000101	-0.035000
C21	C	0.314774	-0.000068	-0.110525
C22	C	0.669680	-0.000047	-0.116779
C23	C	0.998404	-0.000044	0.038351
C24	C	0.996772	-0.000046	0.130647
C25	C	1.145805	-0.000058	-0.107564
C26	C	1.239053	-0.000068	-0.109193
N27	N	0.992224	0.216945	-0.113651
N28	N	0.992244	-0.217045	-0.113651
C29	C	1.049363	0.451952	-0.057141
C30	C	1.049365	0.547933	-0.057139
C31	C	0.935098	0.547942	-0.170163
C32	C	0.935093	0.451962	-0.170161
C33	C	0.992230	0.403970	-0.113650
C34	C	0.992238	0.595931	-0.113651
C35	C	0.992240	0.699998	-0.113649
C36	C	0.992227	0.299896	-0.113651
C37	C	0.986056	-0.000057	-0.265659
C38	C	0.987688	-0.000062	-0.357954
C39	C	1.067983	-0.000064	0.439635
C40	C	1.069524	-0.000059	0.352914
C41	C	0.916472	-0.000041	0.333063
C42	C	0.914932	-0.000039	0.419782
C43	C	0.990690	-0.000056	0.473066
C44	C	0.993771	-0.000052	0.299626
C45	C	0.995441	-0.000046	0.205600
C46	C	0.989020	-0.000060	0.567098
H47	H	0.534985	-0.138796	-0.187606
O48	O	0.414147	-0.000023	-0.271606
C49	C	0.393075	0.078439	-0.403968
C50	C	0.438107	0.078510	-0.314169
H51	H	0.412416	0.141936	-0.438401
H52	H	0.411575	0.014306	-0.438020
H53	H	0.321839	0.079049	-0.401942
H54	H	0.509350	0.077933	-0.316118
H55	H	0.419538	0.142638	-0.280154
H56	H	0.449628	-0.138934	-0.039784
O57	O	1.104832	0.594441	-0.002133
C58	C	1.154066	0.623850	0.142413
C59	C	1.091215	0.571108	0.080208
H60	H	1.143067	0.605019	0.209000
H61	H	1.221354	0.604949	0.131618
H62	H	1.144268	0.700689	0.132667
H63	H	1.100935	0.494257	0.089917
H64	H	1.023949	0.590085	0.091019
O65	O	0.570250	0.000018	0.044338
C66	C	0.665546	0.079294	0.146938
C67	C	0.620669	0.079291	0.057077
H68	H	0.706334	0.143369	0.157260
H69	H	0.616468	0.078717	0.193171
H70	H	0.707108	0.015750	0.156891
H71	H	0.579110	0.142824	0.047043
H72	H	0.669792	0.079820	0.010890
O73	O	0.879569	0.594667	-0.224944
C74	C	0.764830	0.703014	-0.242598
C75	C	0.827680	0.650173	-0.180464
H76	H	0.722849	0.747889	-0.206660
H77	H	0.801041	0.747998	-0.284136
H78	H	0.724029	0.652215	-0.283003
H79	H	0.868497	0.700906	-0.140004
H80	H	0.791417	0.605175	-0.138983
H81	H	0.854793	-0.000029	0.289668
O82	O	0.445588	0.151021	-0.033355
C83	C	0.441244	0.316102	-0.030026
C84	C	0.468426	0.230187	-0.075700
H85	H	0.459713	0.380129	-0.064233
H86	H	0.369922	0.315068	-0.028647
H87	H	0.474028	0.316706	0.036660
H88	H	0.435701	0.229527	-0.142405
H89	H	0.539756	0.231254	-0.077011
H90	H	1.132464	-0.000065	0.325700
O91	O	0.879559	0.405489	-0.225139
C92	C	0.766187	0.415618	-0.337210
C93	C	0.829045	0.468363	-0.275013
H94	H	0.725318	0.466429	-0.377537
H95	H	0.802392	0.370694	-0.378814
H96	H	0.724274	0.370671	-0.301275
H97	H	0.870973	0.513360	-0.310879
H98	H	0.792787	0.513229	-0.233409
H99	H	1.095886	0.412878	-0.011125
H100	H	0.534931	0.138654	-0.187592
H101	H	1.129670	-0.000078	0.483017
H102	H	0.851987	-0.000028	0.447000
