data_functionalizedCrystal
_audit_creation_method	'MofGen! by Chris Wilmer'
_symmetry_space_group_name_H-M	'P1'
_symmetry_Int_Tables_number	1
_symmetry_cell_setting	triclinic
loop_
_symmetry_equiv_pos_as_xyz
  x,y,z
_cell_length_a	14.519731
_cell_length_b	10.540510
_cell_length_c	13.596369
_cell_angle_alpha	89.996501
_cell_angle_beta	89.994584
_cell_angle_gamma	84.101082
loop_
_atom_site_label
_atom_site_type_symbol
_atom_site_fract_x
_atom_site_fract_y
_atom_site_fract_z
O1	O	1.224741	0.166531	-0.081788
O2	O	1.724741	0.666531	0.418212
O3	O	0.956370	0.186098	-0.081789
O4	O	1.456370	0.686098	0.418211
O5	O	1.096693	-0.008456	-0.081788
O6	O	1.596693	0.491544	0.418212
O7	O	1.084418	0.361086	-0.081789
O8	O	1.584418	0.861086	0.418211
O9	O	1.096678	-0.008467	0.081795
O10	O	1.596678	0.491533	0.581795
O11	O	0.956356	0.186088	0.081794
O12	O	1.456356	0.686088	0.581794
O13	O	1.224727	0.166521	0.081795
O14	O	1.724727	0.666521	0.581795
Zn15	Zn	1.090539	0.176303	0.107767
Zn16	Zn	1.590539	0.676303	0.607767
Zn17	Zn	1.090558	0.176316	-0.107761
Zn18	Zn	1.590558	0.676316	0.392239
O19	O	1.084404	0.361075	0.081794
O20	O	1.584404	0.861075	0.581794
C21	C	0.921999	0.185176	0.000002
C22	C	1.421999	0.685176	0.500002
C23	C	0.819604	0.182429	0.000002
C24	C	1.319604	0.682429	0.500002
C25	C	0.736448	0.180197	-0.000002
C26	C	1.236448	0.680197	0.499998
C27	C	0.632125	0.177407	-0.000002
C28	C	1.132125	0.677407	0.499998
C29	C	0.548974	0.175193	-0.000002
C30	C	1.048974	0.675193	0.499998
C31	C	0.444644	0.172404	-0.000005
C32	C	0.944644	0.672404	0.499995
C33	C	1.095771	-0.055756	0.000001
C34	C	1.595771	0.444244	0.500001
C35	C	1.093034	-0.196678	-0.000005
C36	C	1.593034	0.303322	0.499995
C37	C	1.190516	-0.415118	0.000370
C38	C	1.690516	0.084882	0.500370
C39	C	1.193435	-0.268552	-0.000003
C40	C	1.693435	0.231448	0.499997
C41	C	1.041647	-0.240912	-0.093417
C42	C	1.541647	0.259088	0.406583
C43	C	1.039439	-0.387650	-0.093490
C44	C	1.539439	0.112350	0.406510
C45	C	1.037332	-0.387449	0.092535
C46	C	1.537332	0.112551	0.592535
C47	C	1.042094	-0.241156	0.093764
C48	C	1.542094	0.258844	0.593764
C49	C	1.259098	0.167443	0.000001
C50	C	1.759098	0.667443	0.500001
C51	C	1.361493	0.170190	-0.000004
C52	C	1.861493	0.670190	0.499996
C53	C	1.085326	0.408375	0.000002
C54	C	1.585326	0.908375	0.500002
C55	C	1.088063	0.549297	0.000002
C56	C	1.588063	1.049297	0.500002
N57	N	1.090533	0.176293	0.254859
N58	N	1.590533	0.676293	0.754859
N59	N	1.090571	0.176316	-0.254853
N60	N	1.590571	0.676316	0.245147
C61	C	1.090557	0.176318	0.656150
C62	C	1.590557	0.676318	1.156150
C63	C	1.090547	0.176315	0.544498
C64	C	1.590547	0.676315	1.044498
C65	C	1.090545	0.176306	0.455508
C66	C	1.590545	0.676306	0.955508
C67	C	1.090535	0.176301	0.343849
C68	C	1.590535	0.676301	0.843849
H69	H	1.233642	-0.239619	0.066957
H70	H	1.733642	0.260381	0.566957
C71	C	1.092574	-0.202977	0.187126
C72	C	1.592574	0.297023	0.687126
H73	H	1.061427	-0.230136	0.243599
H74	H	1.561427	0.269864	0.743599
H75	H	1.092987	-0.112942	0.188826
H76	H	1.592987	0.387058	0.688826
H77	H	1.154450	-0.242306	0.186557
H78	H	1.654450	0.257694	0.686557
H79	H	1.229625	-0.457473	0.067361
H80	H	1.729625	0.042527	0.567361
H81	H	0.968794	-0.191349	0.099405
H82	H	1.468794	0.308651	0.599405
C83	C	1.080191	-0.445216	0.188184
C84	C	1.580191	0.054784	0.688184
H85	H	1.129432	-0.508457	0.172577
H86	H	1.629432	-0.008457	0.672577
H87	H	1.034268	-0.482867	0.224659
H88	H	1.534268	0.017133	0.724659
H89	H	1.103340	-0.379959	0.226317
H90	H	1.603340	0.120041	0.726317
H91	H	1.229411	-0.459013	-0.066241
H92	H	1.729411	0.040987	0.433759
H93	H	0.964346	-0.409886	-0.097722
H94	H	1.464346	0.090114	0.402278
H95	H	1.233887	-0.240551	-0.067080
H96	H	1.733887	0.259449	0.432920
C97	C	1.086850	-0.442451	-0.187842
C98	C	1.586850	0.057549	0.312158
H99	H	1.107286	-0.375002	-0.225761
H100	H	1.607286	0.124998	0.274239
H101	H	1.044049	-0.485017	-0.225159
H102	H	1.544049	0.014983	0.274841
H103	H	1.138469	-0.501123	-0.170819
H104	H	1.638469	-0.001123	0.329181
H105	H	0.961951	-0.408838	0.093164
H106	H	1.461951	0.091162	0.593164
C107	C	0.941801	-0.175879	-0.098122
C108	C	1.441801	0.324121	0.401878
H109	H	0.930542	-0.121037	-0.043030
H110	H	1.430542	0.378963	0.456970
H111	H	0.899585	-0.239001	-0.097255
H112	H	1.399585	0.260999	0.402745
H113	H	0.933686	-0.127452	-0.156983
H114	H	1.433686	0.372548	0.343017
H115	H	1.077345	-0.210411	-0.162933
H116	H	1.577345	0.289589	0.337067
