data_functionalizedCrystal
_audit_creation_method	'MofGen! by Chris Wilmer'
_symmetry_space_group_name_H-M	'P1'
_symmetry_Int_Tables_number	1
_symmetry_cell_setting	triclinic
loop_
_symmetry_equiv_pos_as_xyz
  x,y,z
_cell_length_a	12.759401
_cell_length_b	16.625546
_cell_length_c	12.759393
_cell_angle_alpha	89.963806
_cell_angle_beta	89.981433
_cell_angle_gamma	90.021512
loop_
_atom_site_label
_atom_site_type_symbol
_atom_site_fract_x
_atom_site_fract_y
_atom_site_fract_z
Zn1	Zn	1.606199	-0.320975	-0.593950
Zn2	Zn	2.106199	0.179025	-0.093950
Zn3	Zn	1.606069	-0.455831	-0.418255
Zn4	Zn	2.106069	0.044169	0.081745
Zn5	Zn	1.430501	-0.321014	-0.418289
Zn6	Zn	1.930501	0.178986	0.081711
Zn7	Zn	1.430465	-0.455767	-0.593897
Zn8	Zn	1.930465	0.044233	-0.093897
O9	O	1.518308	-0.388397	-0.506098
O10	O	2.018308	0.111603	-0.006098
O11	O	1.753202	-0.338874	-0.570651
O12	O	2.253202	0.161126	-0.070651
O13	O	1.582740	-0.437991	-0.271239
O14	O	2.082740	0.062009	0.228761
O15	O	1.453876	-0.208177	-0.441627
O16	O	1.953876	0.291823	0.058373
O17	O	1.753107	-0.437953	-0.441570
O18	O	2.253107	0.062047	0.058430
O19	O	1.582961	-0.208147	-0.570684
O20	O	2.082961	0.291853	-0.070684
O21	O	1.453751	-0.338942	-0.271263
O22	O	1.953751	0.161058	0.228737
O23	O	1.283475	-0.338879	-0.441575
O24	O	1.783475	0.161121	0.058425
O25	O	1.453816	-0.437843	-0.740925
O26	O	1.953816	0.062157	-0.240925
O27	O	1.283449	-0.437881	-0.570594
O28	O	1.783449	0.062119	-0.070594
O29	O	1.582927	-0.338811	-0.740964
O30	O	2.082927	0.161189	-0.240964
O31	O	1.582706	-0.568655	-0.441519
O32	O	2.082706	-0.068655	0.058481
O33	O	1.453691	-0.568608	-0.570561
O34	O	1.953691	-0.068608	-0.070561
C35	C	1.245341	-0.388378	-0.506083
C36	C	1.745341	0.111622	-0.006083
C37	C	1.128564	-0.388389	-0.506102
C38	C	1.628564	0.111611	-0.006102
C39	C	1.518209	-0.597888	-0.506054
C40	C	2.018209	-0.097888	-0.006054
C41	C	1.518263	-0.687509	-0.506070
C42	C	2.018263	-0.187509	-0.006070
C43	C	1.073745	-0.336896	-0.573419
C44	C	1.573745	0.163104	-0.073419
C45	C	0.964021	-0.336912	-0.573425
C46	C	1.464021	0.163088	-0.073425
C47	C	0.963945	-0.439920	-0.438795
C48	C	1.463945	0.060080	0.061205
C49	C	1.073668	-0.439900	-0.438784
C50	C	1.573668	0.060100	0.061216
C51	C	1.073788	-0.277428	-0.651150
C52	C	1.573788	0.222572	-0.151150
C53	C	0.964064	-0.277443	-0.651156
C54	C	1.464064	0.222557	-0.151156
C55	C	1.518446	-1.015684	-0.506179
C56	C	2.018446	-0.515684	-0.006179
C57	C	1.518392	-0.924376	-0.506152
C58	C	2.018392	-0.424376	-0.006152
C59	C	1.518353	-0.851599	-0.506124
C60	C	2.018353	-0.351599	-0.006124
C61	C	1.518301	-0.760285	-0.506098
C62	C	2.018301	-0.260285	-0.006098
C63	C	1.792342	-0.388416	-0.506113
C64	C	2.292342	0.111584	-0.006113
C65	C	1.909118	-0.388425	-0.506119
C66	C	2.409118	0.111575	-0.006119
C67	C	1.518382	-0.388315	-0.780131
C68	C	2.018382	0.111685	-0.280131
C69	C	1.518413	-0.388281	-0.896908
C70	C	2.018413	0.111719	-0.396908
C71	C	1.518437	-0.178088	-0.506165
C72	C	2.018437	0.321912	-0.006165
C73	C	1.518492	-0.088467	-0.506193
C74	C	2.018492	0.411533	-0.006193
C75	C	1.585650	-0.336710	-0.951792
C76	C	2.085650	0.163290	-0.451792
C77	C	1.585675	-0.336681	-1.061516
C78	C	2.085675	0.163319	-0.561516
C79	C	1.451223	-0.439800	-1.061462
C80	C	1.951223	0.060200	-0.561462
C81	C	1.451194	-0.439824	-0.951740
C82	C	1.951194	0.060176	-0.451740
C83	C	1.663279	-0.277178	-0.951823
C84	C	2.163279	0.222822	-0.451823
C85	C	1.663304	-0.277149	-1.061548
C86	C	2.163304	0.222851	-0.561548
C87	C	1.518296	-0.388420	-0.233130
C88	C	2.018296	0.111580	0.266870
C89	C	1.518468	-0.388227	-0.116354
C90	C	2.018468	0.111773	0.383646
H91	H	1.118297	-0.481823	-0.383958
H92	H	1.618297	0.018177	0.116042
N93	N	0.907884	-0.492548	-0.370040
N94	N	1.407884	0.007452	0.129960
N95	N	0.956846	-0.538523	-0.309943
N96	N	1.456846	-0.038523	0.190057
H97	H	0.917256	-0.575694	-0.261383
H98	H	1.417256	-0.075694	0.238617
H99	H	1.641521	-0.214734	-0.922074
H100	H	2.141521	0.285266	-0.422074
H101	H	1.103566	-0.214954	-0.629502
H102	H	1.603566	0.285046	-0.129502
N103	N	1.760212	-0.305264	-0.909130
N104	N	2.260212	0.194736	-0.409130
N105	N	1.832827	-0.326275	-0.968911
N106	N	2.332827	0.173725	-0.468911
H107	H	1.901286	-0.346114	-0.938759
H108	H	2.401286	0.153886	-0.438759
H109	H	1.396493	-0.481763	-1.106120
H110	H	1.896493	0.018237	-0.606120
H111	H	1.634200	-0.217817	-1.095602
H112	H	2.134200	0.282183	-0.595602
N113	N	0.926717	-0.298537	-0.753172
N114	N	1.426717	0.201463	-0.253172
N115	N	0.830404	-0.302118	-0.770445
N116	N	1.330404	0.197882	-0.270445
H117	H	0.804026	-0.317016	-0.842490
H118	H	1.304026	0.182984	-0.342490
N119	N	1.382491	-0.492496	-0.895693
N120	N	1.882491	0.007504	-0.395693
N121	N	1.322481	-0.538509	-0.944667
N122	N	1.822481	-0.038509	-0.444667
H123	H	1.273955	-0.575710	-0.905084
H124	H	1.773955	-0.075710	-0.405084
N125	N	1.765376	-0.298113	-1.098919
N126	N	2.265376	0.201887	-0.598919
N127	N	1.842669	-0.255630	-1.075273
N128	N	2.342669	0.244370	-0.575273
H129	H	1.914755	-0.270432	-1.101669
H130	H	2.414755	0.229568	-0.601669
H131	H	1.107849	-0.299862	-0.728385
H132	H	1.607849	0.200138	-0.228385
N133	N	0.921378	-0.202998	-0.614768
N134	N	1.421378	0.297002	-0.114768
N135	N	0.981166	-0.147234	-0.587514
N136	N	1.481166	0.352766	-0.087514
H137	H	0.951019	-0.094660	-0.561810
H138	H	1.451019	0.405340	-0.061810
