data_functionalizedCrystal
_audit_creation_method	'MofGen! by Chris Wilmer'
_symmetry_space_group_name_H-M	'P1'
_symmetry_Int_Tables_number	1
_symmetry_cell_setting	triclinic
loop_
_symmetry_equiv_pos_as_xyz
  x,y,z
_cell_length_a	19.288840
_cell_length_b	14.519709
_cell_length_c	18.366186
_cell_angle_alpha	89.992822
_cell_angle_beta	89.983729
_cell_angle_gamma	83.403080
loop_
_atom_site_label
_atom_site_type_symbol
_atom_site_fract_x
_atom_site_fract_y
_atom_site_fract_z
O1	O	0.921777	0.114935	-0.060673
O2	O	0.719570	0.130478	-0.060648
O3	O	0.826035	-0.011567	-0.060654
O4	O	0.815313	0.256980	-0.060666
O5	O	0.826017	-0.011573	0.060445
O6	O	0.719552	0.130471	0.060452
O7	O	0.921759	0.114928	0.060427
Zn8	Zn	0.820653	0.122699	0.079666
Zn9	Zn	0.820677	0.122708	-0.079887
O10	O	0.815294	0.256973	0.060433
C11	C	0.693683	0.129979	-0.000095
C12	C	0.616573	0.128489	-0.000085
C13	C	0.825526	-0.045927	-0.000105
C14	C	0.824029	-0.148298	-0.000104
C15	C	0.580377	0.127777	-0.066098
C16	C	0.507925	0.126367	-0.066107
C17	C	0.471673	0.125650	-0.000099
C18	C	0.507878	0.126367	0.065923
C19	C	0.580328	0.127787	0.065930
C20	C	0.362136	0.069381	0.050465
C21	C	0.289688	0.067956	0.050455
C22	C	0.248214	0.121276	-0.000118
C23	C	0.279198	0.176010	-0.050693
C24	C	0.351648	0.177429	-0.050686
C25	C	0.393114	0.124112	-0.000099
C26	C	0.133457	0.119037	-0.066145
C27	C	0.061003	0.117633	-0.066151
C28	C	0.060959	0.117624	0.065880
C29	C	0.133410	0.119037	0.065885
C30	C	0.169655	0.119740	-0.000130
C31	C	0.818516	-0.523158	-0.000122
C32	C	0.820047	-0.418860	-0.000117
C33	C	0.821272	-0.335731	-0.000112
C34	C	0.822804	-0.231427	-0.000108
C35	C	0.947647	0.115428	-0.000128
C36	C	1.024757	0.116917	-0.000143
C37	C	0.815803	0.291333	-0.000118
C38	C	0.817301	0.393704	-0.000124
N39	N	0.820642	0.122692	0.188557
N40	N	0.820693	0.122707	-0.188779
C41	C	0.867800	0.059825	0.226655
C42	C	0.867804	0.059821	0.302883
C43	C	0.820657	0.122699	0.341010
C44	C	0.773490	0.185571	0.302903
C45	C	0.773482	0.185567	0.226677
C46	C	0.811661	0.206729	0.461767
C47	C	0.811674	0.206734	0.537992
C48	C	0.820677	0.122711	0.576118
C49	C	0.829682	0.038679	0.538008
C50	C	0.829674	0.038675	0.461782
C51	C	0.820660	0.122710	0.423665
C52	C	0.867842	0.059835	0.696870
C53	C	0.867842	0.059829	0.773099
C54	C	0.773531	0.185587	0.773119
C55	C	0.773528	0.185584	0.696891
C56	C	0.820687	0.122709	0.658771
H57	H	0.609883	0.128349	-0.119853
Cl58	Cl	0.927081	-0.019221	0.178733
Cl59	Cl	0.462411	0.125471	-0.149101
H60	H	0.735101	0.236766	0.333951
H61	H	0.376872	0.221997	-0.091865
H62	H	0.245431	0.219432	-0.091872
H63	H	0.906207	0.008625	0.333907
Cl64	Cl	0.800358	0.312372	0.585893
H65	H	0.837005	-0.029746	0.430757
H66	H	0.478357	0.125786	0.119667
H67	H	0.837013	-0.029740	0.569048
H68	H	0.162882	0.119611	0.119640
H69	H	0.264467	0.023385	0.091633
H70	H	0.735140	0.236780	0.804161
H71	H	0.162968	0.119618	-0.119898
Cl72	Cl	0.015498	0.116745	-0.149147
H73	H	0.735080	0.236761	0.195657
Cl74	Cl	0.625834	0.128681	0.148925
H75	H	0.031443	0.117046	0.119626
Cl76	Cl	0.414267	0.002345	0.114049
H77	H	0.906240	0.008635	0.665832
H78	H	0.906242	0.008631	0.804119
H79	H	0.735130	0.236780	0.665870
H80	H	0.804318	0.275155	0.430732
