data_functionalizedCrystal
_audit_creation_method	'MofGen! by Chris Wilmer'
_symmetry_space_group_name_H-M	'P1'
_symmetry_Int_Tables_number	1
_symmetry_cell_setting	triclinic
loop_
_symmetry_equiv_pos_as_xyz
  x,y,z
_cell_length_a	16.120484
_cell_length_b	12.759395
_cell_length_c	12.759387
_cell_angle_alpha	89.980569
_cell_angle_beta	92.863576
_cell_angle_gamma	92.925231
loop_
_atom_site_label
_atom_site_type_symbol
_atom_site_fract_x
_atom_site_fract_y
_atom_site_fract_z
Zn1	Zn	-0.331865	1.584985	-0.615139
Zn2	Zn	-0.471302	1.575933	-0.448352
Zn3	Zn	-0.331907	1.409280	-0.439482
Zn4	Zn	-0.471238	1.400337	-0.623990
O5	O	-0.401578	1.492634	-0.531741
O6	O	-0.350371	1.730804	-0.593022
O7	O	-0.452854	1.553781	-0.300157
O8	O	-0.215236	1.440119	-0.455367
O9	O	-0.452814	1.724154	-0.470485
O10	O	-0.215206	1.569208	-0.584421
O11	O	-0.350442	1.431342	-0.293640
O12	O	-0.350380	1.261073	-0.463949
O13	O	-0.452706	1.424876	-0.769835
O14	O	-0.452746	1.254503	-0.599507
O15	O	-0.350310	1.560536	-0.763332
O16	O	-0.587958	1.545108	-0.479067
O17	O	-0.587912	1.416099	-0.608108
C18	C	-0.401561	1.219667	-0.531727
C19	C	-0.401574	1.102890	-0.531747
C20	C	-0.295073	1.109784	-0.659574
C21	C	-0.241832	1.058370	-0.723496
C22	C	-0.241847	0.948648	-0.723510
C23	C	-0.295106	0.890337	-0.659593
C24	C	-0.348347	0.941751	-0.595670
C25	C	-0.348328	1.051476	-0.595665
C26	C	-0.454843	0.934856	-0.467839
C27	C	-0.454834	1.044578	-0.467829
C28	C	-0.508103	0.876545	-0.403922
C29	C	-0.561349	0.927959	-0.340003
C30	C	-0.561333	1.037688	-0.339993
C31	C	-0.508075	1.095992	-0.403907
C32	C	-0.618185	1.478679	-0.545533
C33	C	-0.710851	1.472806	-0.551469
C34	C	-0.880511	1.462088	-0.562328
C35	C	-0.921804	1.523367	-0.501171
C36	C	-1.016209	1.517404	-0.507213
C37	C	-0.786098	1.468050	-0.556287
C38	C	-0.184125	1.506671	-0.517917
C39	C	-0.091459	1.512653	-0.512027
C40	C	-0.401496	1.492718	-0.805769
C41	C	-0.401461	1.492754	-0.922544
C42	C	-0.401595	1.766666	-0.531756
C43	C	-0.401602	1.883442	-0.531762
C44	C	-0.294843	1.634026	-0.915793
C45	C	-0.241521	1.704677	-0.967277
C46	C	-0.241491	1.704705	-1.076997
C47	C	-0.294786	1.634071	-1.135235
C48	C	-0.348108	1.563420	-1.083750
C49	C	-0.348134	1.563402	-0.974028
C50	C	-0.454721	1.422145	-1.090501
C51	C	-0.454757	1.422121	-0.980782
C52	C	-0.508016	1.351512	-1.148739
C53	C	-0.561343	1.280864	-1.097255
C54	C	-0.561372	1.280840	-0.987529
C55	C	-0.508079	1.351470	-0.929298
C56	C	-0.401599	1.492614	-0.258775
C57	C	-0.401399	1.492796	-0.141986
H58	H	-0.508109	0.787203	-0.403935
H59	H	-0.198468	1.105860	-0.775535
H60	H	-0.295107	0.800995	-0.659601
O61	O	-0.923005	1.394295	-0.630251
C62	C	-0.973276	1.450958	-0.701332
H63	H	-0.986177	1.529804	-0.665164
H64	H	-1.034576	1.404363	-0.719207
H65	H	-0.939726	1.464526	-0.777101
H66	H	-0.198128	1.762184	-0.919847
O67	O	-0.879366	1.591146	-0.433172
C68	C	-0.829071	1.534470	-0.362129
H69	H	-0.855443	1.450093	-0.357236
H70	H	-0.828007	1.572566	-0.281236
H71	H	-0.763096	1.534921	-0.390467
O72	O	-0.294746	1.634115	-0.809203
C73	C	-0.236294	1.711625	-0.768843
H74	H	-0.187567	1.729502	-0.828977
H75	H	-0.204676	1.681959	-0.693420
H76	H	-0.269371	1.786089	-0.751493
O77	O	-0.613052	0.871157	-0.278017
C78	C	-0.601627	0.763290	-0.291708
H79	H	-0.574403	0.750089	-0.371114
H80	H	-0.664069	0.717568	-0.288426
H81	H	-0.557170	0.734990	-0.226657
H82	H	-0.198066	1.762229	-1.118915
H83	H	-0.294749	1.634091	-1.224574
O84	O	-0.508141	1.351532	-1.255330
C85	C	-0.588034	1.373376	-1.297060
H86	H	-0.636067	1.352302	-1.236876
H87	H	-0.602828	1.325047	-1.371400
H88	H	-0.589812	1.460440	-1.316650
O89	O	-0.613293	1.212320	-0.937570
C90	C	-0.696378	1.229900	-0.969690
H91	H	-0.700584	1.313564	-1.000139
H92	H	-0.737587	1.218181	-0.900151
H93	H	-0.718146	1.172174	-1.034750
O94	O	-0.508062	1.202576	-0.404091
C95	C	-0.529590	1.237894	-0.506097
H96	H	-0.515422	1.175597	-0.565747
H97	H	-0.491991	1.313719	-0.522456
H98	H	-0.598764	1.252926	-0.512572
H99	H	-0.295052	1.199127	-0.659564
H100	H	-0.604685	1.079542	-0.287935
O101	O	-0.508107	1.351648	-0.822716
C102	C	-0.529562	1.450942	-0.787445
H103	H	-0.515317	1.512385	-0.849789
H104	H	-0.491974	1.472044	-0.711662
H105	H	-0.598741	1.448689	-0.772363
O106	O	-0.190105	0.898863	-0.785702
C107	C	-0.143076	0.973852	-0.842092
H108	H	-0.177210	1.049879	-0.847824
H109	H	-0.134275	0.942746	-0.924331
H110	H	-0.079717	0.989567	-0.799724
O111	O	-0.613020	1.212113	-1.153773
C112	C	-0.594812	1.108574	-1.125766
H113	H	-0.528219	1.107568	-1.091364
H114	H	-0.601962	1.056220	-1.198371
H115	H	-0.639528	1.078210	-1.064919
