data_functionalizedCrystal
_audit_creation_method	'MofGen! by Chris Wilmer'
_symmetry_space_group_name_H-M	'P1'
_symmetry_Int_Tables_number	1
_symmetry_cell_setting	triclinic
loop_
_symmetry_equiv_pos_as_xyz
  x,y,z
_cell_length_a	21.295419
_cell_length_b	29.839133
_cell_length_c	21.295411
_cell_angle_alpha	90.010367
_cell_angle_beta	89.975461
_cell_angle_gamma	89.951686
loop_
_atom_site_label
_atom_site_type_symbol
_atom_site_fract_x
_atom_site_fract_y
_atom_site_fract_z
Zn1	Zn	0.962342	0.178727	-0.355960
Zn2	Zn	1.462342	0.678727	0.144040
Zn3	Zn	0.962239	0.253843	-0.250707
Zn4	Zn	1.462239	0.753843	0.249293
Zn5	Zn	0.857066	0.178747	-0.250705
Zn6	Zn	1.357066	0.678747	0.249295
Zn7	Zn	0.857029	0.253850	-0.355938
Zn8	Zn	1.357029	0.753850	0.144062
O9	O	0.909669	0.216292	-0.303328
O10	O	1.409669	0.716292	0.196672
O11	O	1.050418	0.188680	-0.342008
O12	O	1.550418	0.688680	0.157992
O13	O	0.948260	0.243886	-0.162617
O14	O	1.448260	0.743886	0.337383
O15	O	0.871089	0.115877	-0.264677
O16	O	1.371089	0.615877	0.235323
O17	O	1.050342	0.243867	-0.264678
O18	O	1.550342	0.743867	0.235322
O19	O	0.948435	0.115863	-0.342007
O20	O	1.448435	0.615863	0.157993
O21	O	0.870989	0.188714	-0.162616
O22	O	1.370989	0.688714	0.337384
O23	O	0.768971	0.188721	-0.264655
O24	O	1.268971	0.688721	0.235345
O25	O	0.871027	0.243880	-0.444031
O26	O	1.371027	0.743880	0.055969
O27	O	0.768945	0.243899	-0.341969
O28	O	1.268945	0.743899	0.158031
O29	O	0.948400	0.188687	-0.444047
O30	O	1.448400	0.688687	0.055953
O31	O	0.948225	0.316711	-0.264657
O32	O	1.448225	0.816711	0.235343
O33	O	0.870928	0.316716	-0.341970
O34	O	1.370928	0.816716	0.158030
C35	C	0.746118	0.216313	-0.303310
C36	C	1.246118	0.716313	0.196690
C37	C	0.676149	0.216333	-0.303317
C38	C	1.176149	0.716333	0.196683
C39	C	0.643345	0.187644	-0.343645
C40	C	1.143345	0.687644	0.156355
C41	C	0.577602	0.187632	-0.343648
C42	C	1.077602	0.687632	0.156352
C43	C	0.544667	0.216317	-0.303329
C44	C	1.044667	0.716317	0.196671
C45	C	0.577480	0.245008	-0.262993
C46	C	1.077480	0.745008	0.237007
C47	C	0.643221	0.245016	-0.262988
C48	C	1.143221	0.745016	0.237012
N49	N	0.441389	0.255624	-0.298420
N50	N	0.941389	0.755624	0.201580
N51	N	0.378937	0.255615	-0.298429
N52	N	0.878937	0.755615	0.201571
C53	C	0.346592	0.216294	-0.303343
C54	C	0.846592	0.716294	0.196657
N55	N	0.379058	0.176981	-0.308259
N56	N	0.879058	0.676981	0.191741
N57	N	0.441515	0.176990	-0.308253
N58	N	0.941515	0.676990	0.191747
C59	C	0.473382	0.216311	-0.303330
C60	C	0.973382	0.716311	0.196670
C61	C	0.242502	0.187589	-0.343675
C62	C	0.742502	0.687589	0.156325
C63	C	0.176758	0.187577	-0.343673
C64	C	0.676758	0.687577	0.156327
C65	C	0.176637	0.244956	-0.263022
C66	C	0.676637	0.744956	0.236978
C67	C	0.242379	0.244965	-0.263021
C68	C	0.742379	0.744965	0.236979
C69	C	0.275308	0.216282	-0.303351
C70	C	0.775308	0.716282	0.196649
C71	C	0.909578	0.333014	-0.303325
C72	C	1.409578	0.833014	0.196675
C73	C	0.909597	0.382949	-0.303345
C74	C	1.409597	0.882949	0.196655
C75	C	0.949917	0.739493	-0.343636
C76	C	1.449917	1.239493	0.156364
C77	C	0.949875	0.551820	-0.343637
C78	C	1.449875	1.051820	0.156363
O79	O	0.984106	0.527520	-0.377886
O80	O	1.484106	1.027520	0.122114
N81	N	0.909633	0.528394	-0.303342
N82	N	1.409633	1.028394	0.196658
C83	C	0.869401	0.551888	-0.263042
C84	C	1.369401	1.051888	0.236958
O85	O	0.835176	0.527657	-0.228765
O86	O	1.335176	1.027657	0.271235
C87	C	0.869446	0.739561	-0.263039
C88	C	1.369446	1.239561	0.236961
C89	C	0.909686	0.762985	-0.303340
C90	C	1.409686	1.262985	0.196660
C91	C	0.990154	0.762917	-0.383933
C92	C	1.490154	1.262917	0.116067
C93	C	0.990162	0.809833	-0.383935
C94	C	1.490162	1.309833	0.116065
C95	C	0.949932	0.833324	-0.343640
C96	C	1.449932	1.333324	0.156360
C97	C	0.909694	0.809900	-0.303342
C98	C	1.409694	1.309900	0.196658
C99	C	0.829218	0.763055	-0.222736
C100	C	1.329218	1.263055	0.277264
C101	C	0.829234	0.809976	-0.222738
C102	C	1.329234	1.309976	0.277262
C103	C	0.869474	0.833400	-0.263039
C104	C	1.369474	1.333400	0.236961
C105	C	0.869471	0.880307	-0.263048
C106	C	1.369471	1.380307	0.236952
N107	N	0.909714	0.903733	-0.303342
N108	N	1.409714	1.403733	0.196658
C109	C	0.949944	0.880242	-0.343638
C110	C	1.449944	1.380242	0.156362
C111	C	0.869379	0.453358	-0.263048
C112	C	1.369379	0.953358	0.236952
C113	C	0.869367	0.406440	-0.263049
C114	C	1.369367	0.906440	0.236951
C115	C	0.949842	0.406375	-0.343643
C116	C	1.449842	0.906375	0.156357
C117	C	0.949850	0.453294	-0.343644
C118	C	1.449850	0.953294	0.156356
C119	C	0.909621	0.476784	-0.303342
C120	C	1.409621	0.976784	0.196658
C121	C	0.949956	0.978768	-0.343639
C122	C	1.449956	1.478768	0.156361
C123	C	0.949959	1.025687	-0.343639
C124	C	1.449959	1.525687	0.156361
C125	C	0.869486	1.025748	-0.263044
C126	C	1.369486	1.525748	0.236956
C127	C	0.869481	0.978833	-0.263046
C128	C	1.369481	1.478833	0.236954
C129	C	0.909721	0.955344	-0.303346
C130	C	1.409721	1.455344	0.196654
O131	O	0.835263	0.904637	-0.228811
O132	O	1.335263	1.404637	0.271189
O133	O	0.984174	0.904482	-0.377900
O134	O	1.484174	1.404482	0.122100
C135	C	0.949909	0.692578	-0.343634
C136	C	1.449909	1.192578	0.156366
C137	C	0.909671	0.669154	-0.303337
C138	C	1.409671	1.169154	0.196663
C139	C	0.869441	0.692645	-0.263041
C140	C	1.369441	1.192645	0.236959
C141	C	0.909659	0.622236	-0.303338
C142	C	1.409659	1.122236	0.196662
C143	C	0.949889	0.598745	-0.343634
C144	C	1.449889	1.098745	0.156366
C145	C	0.990132	0.622171	-0.383928
C146	C	1.490132	1.122171	0.116072
C147	C	0.990139	0.669086	-0.383930
C148	C	1.490139	1.169086	0.116070
C149	C	0.829199	0.669219	-0.222747
C150	C	1.329199	1.169219	0.277253
C151	C	0.829194	0.622303	-0.222749
C152	C	1.329194	1.122303	0.277251
C153	C	0.869424	0.598812	-0.263044
C154	C	1.369424	1.098812	0.236956
C155	C	1.073859	0.216270	-0.303346
C156	C	1.573859	0.716270	0.196654
C157	C	1.143828	0.216261	-0.303353
C158	C	1.643828	0.716261	0.196647
C159	C	0.909721	0.216282	-0.467518
C160	C	1.409721	0.716282	0.032482
C161	C	0.909744	0.216278	-0.537486
C162	C	1.409744	0.716278	-0.037486
C163	C	0.909754	1.099113	-0.303342
C164	C	1.409754	1.599113	0.196658
C165	C	0.909728	1.049179	-0.303344
C166	C	1.409728	1.549179	0.196656
C167	C	0.950030	0.187538	-0.570362
C168	C	1.450030	0.687538	-0.070362
C169	C	0.950029	0.187519	-0.636105
C170	C	1.450029	0.687519	-0.136105
C171	C	0.909749	0.216247	-0.668969
C172	C	1.409749	0.716247	-0.168969
C173	C	0.869454	0.244989	-0.636085
C174	C	1.369454	0.744989	-0.136085
C175	C	0.869452	0.245005	-0.570343
C176	C	1.369452	0.745005	-0.070343
N177	N	0.904889	0.255549	-0.772195
N178	N	1.404889	0.755549	-0.272195
N179	N	0.904895	0.255533	-0.834646
N180	N	1.404895	0.755533	-0.334646
C181	C	0.909753	0.216202	-0.867044
C182	C	1.409753	0.716202	-0.367044
N183	N	0.914616	0.176886	-0.834630
N184	N	1.414616	0.676886	-0.334630
N185	N	0.914613	0.176903	-0.772173
N186	N	1.414613	0.676903	-0.272173
C187	C	0.909746	0.216233	-0.740254
C188	C	1.409746	0.716233	-0.240254
C189	C	0.950040	0.187438	-0.971205
C190	C	1.450040	0.687438	-0.471205
C191	C	0.950035	0.187418	-1.036949
C192	C	1.450035	0.687418	-0.536949
C193	C	0.869463	0.244893	-1.036928
C194	C	1.369463	0.744893	-0.536928
C195	C	0.869465	0.244909	-0.971185
C196	C	1.369465	0.744909	-0.471185
C197	C	0.909757	0.216182	-0.938328
C198	C	1.409757	0.716182	-0.438328
C199	C	0.909653	0.216269	-0.139776
C200	C	1.409653	0.716269	0.360224
C201	C	0.909753	0.216146	-0.069808
C202	C	1.409753	0.716146	0.430192
H203	H	0.669930	0.268379	-0.230147
H204	H	1.169930	0.768379	0.269853
F205	F	1.032968	0.694010	-0.426825
F206	F	1.532968	1.194010	0.073175
F207	F	0.277294	0.275499	-0.220096
F208	F	0.777294	0.775499	0.279904
F209	F	0.992788	1.050614	-0.386538
F210	F	1.492788	1.550614	0.113462
H211	H	0.836664	0.268315	-0.944417
H212	H	1.336664	0.768315	-0.444417
H213	H	0.796420	0.603235	-0.189932
H214	H	1.296420	1.103235	0.310068
F215	F	0.277549	0.157061	-0.386594
F216	F	0.777549	0.657061	0.113406
F217	F	0.826651	0.953903	-0.220155
F218	F	1.326651	1.453903	0.279845
F219	F	0.992785	0.953776	-0.386531
F220	F	1.492785	1.453776	0.113469
F221	F	0.786377	0.694214	-0.179856
F222	F	1.286377	1.194214	0.320144
H223	H	0.982840	0.164012	-1.063716
H224	H	1.482840	0.664012	-0.563716
H225	H	0.982834	0.164112	-0.662878
H226	H	1.482834	0.664112	-0.162878
F227	F	0.826572	0.275595	-0.535353
F228	F	1.326572	0.775595	-0.035353
F229	F	1.032945	0.597161	-0.426816
F230	F	1.532945	1.097161	0.073184
H231	H	0.982838	0.164146	-0.543614
H232	H	1.482838	0.664146	-0.043614
H233	H	1.022935	0.828900	-0.416748
H234	H	1.522935	1.328900	0.083252
F235	F	0.992681	0.478219	-0.386537
F236	F	1.492681	0.978219	0.113463
F237	F	0.992919	0.156863	-0.936234
F238	F	1.492919	0.656863	-0.436234
F239	F	0.826583	0.275563	-0.671061
F240	F	1.326583	0.775563	-0.171061
H241	H	0.836660	0.268279	-1.063685
H242	H	1.336660	0.768279	-0.563685
F243	F	0.678386	0.157117	-0.386567
F244	F	1.178386	0.657117	0.113433
H245	H	0.550887	0.164268	-0.376486
H246	H	1.050887	0.664268	0.123514
H247	H	0.150050	0.164212	-0.376512
H248	H	0.650050	0.664212	0.123488
H249	H	0.982598	0.387241	-0.376454
H250	H	1.482598	0.887241	0.123546
F251	F	1.032977	0.737923	-0.426825
F252	F	1.532977	1.237923	0.073175
H253	H	0.836592	0.387371	-0.230239
H254	H	1.336592	0.887371	0.269761
H255	H	0.149822	0.268312	-0.230194
H256	H	0.649822	0.768312	0.269806
H257	H	0.550660	0.268363	-0.230165
H258	H	1.050660	0.768363	0.269835
H259	H	0.836617	0.472480	-0.230227
H260	H	1.336617	0.972480	0.269773
F261	F	0.786384	0.738135	-0.179845
F262	F	1.286384	1.238135	0.320155
H263	H	0.796474	0.829099	-0.189917
H264	H	1.296474	1.329099	0.310083
H265	H	0.836730	1.044884	-0.230238
H266	H	1.336730	1.544884	0.269762
