data_functionalizedCrystal
_audit_creation_method	'MofGen! by Chris Wilmer'
_symmetry_space_group_name_H-M	'P1'
_symmetry_Int_Tables_number	1
_symmetry_cell_setting	triclinic
loop_
_symmetry_equiv_pos_as_xyz
  x,y,z
_cell_length_a	18.215407
_cell_length_b	13.897448
_cell_length_c	18.215398
_cell_angle_alpha	90.023802
_cell_angle_beta	90.019464
_cell_angle_gamma	90.018140
loop_
_atom_site_label
_atom_site_type_symbol
_atom_site_fract_x
_atom_site_fract_y
_atom_site_fract_z
Zn1	Zn	1.125106	-0.384037	0.416124
Zn2	Zn	1.625106	0.115963	0.916124
Zn3	Zn	1.125031	-0.545340	0.293061
Zn4	Zn	1.625031	-0.045340	0.793061
Zn5	Zn	1.002039	-0.384062	0.293072
Zn6	Zn	1.502039	0.115938	0.793072
Zn7	Zn	1.002020	-0.545293	0.416086
Zn8	Zn	1.502020	-0.045293	0.916086
O9	O	1.063549	-0.464683	0.354586
O10	O	1.563549	0.035317	0.854586
O11	O	1.228080	-0.405444	0.399811
O12	O	1.728080	0.094556	0.899811
O13	O	1.108692	-0.523976	0.190078
O14	O	1.608692	-0.023976	0.690078
O15	O	1.018404	-0.249077	0.309415
O16	O	1.518404	0.250923	0.809415
O17	O	1.228025	-0.523952	0.309398
O18	O	1.728025	-0.023952	0.809398
O19	O	1.108821	-0.249059	0.399821
O20	O	1.608821	0.250941	0.899821
O21	O	1.018331	-0.405485	0.190086
O22	O	1.518331	0.094515	0.690086
O23	O	0.899053	-0.405440	0.309378
O24	O	1.399053	0.094560	0.809378
O25	O	1.018371	-0.523873	0.519076
O26	O	1.518371	-0.023873	1.019076
O27	O	0.899038	-0.523896	0.399756
O28	O	1.399038	-0.023896	0.899756
O29	O	1.108802	-0.405399	0.519103
O30	O	1.608802	0.094601	1.019103
O31	O	1.108673	-0.680315	0.309361
O32	O	1.608673	-0.180315	0.809361
O33	O	1.018298	-0.680281	0.399747
O34	O	1.518298	-0.180281	0.899747
C35	C	0.872343	-0.464667	0.354565
C36	C	1.372343	0.035333	0.854565
C37	C	0.790544	-0.464683	0.354573
C38	C	1.290544	0.035317	0.854573
C39	C	0.602362	-0.526460	0.401574
C40	C	1.102362	-0.026460	0.901574
C41	C	0.525503	-0.526463	0.401583
C42	C	1.025503	-0.026463	0.901583
C43	C	0.525488	-0.402924	0.307614
C44	C	1.025488	0.097076	0.807614
C45	C	0.602346	-0.402917	0.307609
C46	C	1.102346	0.097083	0.807609
C47	C	0.640780	-0.464690	0.354588
C48	C	1.140780	0.035310	0.854588
C49	C	0.487064	-0.464700	0.354602
C50	C	0.987064	0.035300	0.854602
C51	C	0.403731	-0.464703	0.354612
C52	C	0.903731	0.035297	0.854612
C53	C	0.724119	-0.464686	0.354579
C54	C	1.224119	0.035314	0.854579
C55	C	1.063495	-0.715297	0.354565
C56	C	1.563495	-0.215297	0.854565
C57	C	1.063540	-0.822511	0.354580
C58	C	1.563540	-0.322511	0.854580
C59	C	1.063617	-1.018806	0.354626
C60	C	1.563617	-0.518806	0.854626
C61	C	1.063572	-0.909574	0.354603
C62	C	1.563572	-0.409574	0.854603
C63	C	1.255502	-0.464700	0.354607
C64	C	1.755502	0.035300	0.854607
C65	C	1.337301	-0.464708	0.354617
C66	C	1.837301	0.035292	0.854617
C67	C	1.063593	-0.464628	0.546539
C68	C	1.563593	0.035372	1.046539
C69	C	1.063611	-0.464604	0.628338
C70	C	1.563611	0.035396	1.128338
C71	C	1.063623	-0.213090	0.354623
C72	C	1.563623	0.286910	0.854623
C73	C	1.063655	-0.105876	0.354639
C74	C	1.563655	0.394124	0.854639
C75	C	1.063548	-0.464669	0.163380
C76	C	1.563548	0.035331	0.663380
C77	C	1.063672	-0.464421	0.081581
C78	C	1.563672	0.035579	0.581581
C79	C	1.110696	-0.526183	0.893396
C80	C	1.610696	-0.026183	1.393396
C81	C	1.110685	-0.526216	0.816537
C82	C	1.610685	-0.026216	1.316537
C83	C	1.016582	-0.402839	0.816528
C84	C	1.516582	0.097161	1.316528
C85	C	1.016590	-0.402811	0.893386
C86	C	1.516590	0.097189	1.393386
C87	C	1.063651	-0.464482	0.931818
C88	C	1.563651	0.035518	1.431818
C89	C	1.063632	-0.464543	0.778101
C90	C	1.563632	0.035457	1.278101
C91	C	1.063619	-0.464579	0.694768
C92	C	1.563619	0.035421	1.194768
C93	C	1.063663	-0.464447	1.015157
C94	C	1.563663	0.035553	1.515157
H95	H	0.494185	-0.352632	0.269364
H96	H	0.994185	0.147368	0.769364
H97	H	1.149015	-0.576400	0.924685
H98	H	1.649015	-0.076400	1.424685
N99	N	1.161423	-0.592769	0.775097
N100	N	1.661423	-0.092769	1.275097
H101	H	1.191234	-0.631830	0.811108
H102	H	1.691234	-0.131830	1.311108
H103	H	1.195486	-0.553519	0.743217
H104	H	1.695486	-0.053519	1.243217
H105	H	0.978268	-0.352628	0.785228
H106	H	1.478268	0.147372	1.285228
H107	H	0.978277	-0.352565	0.924669
H108	H	1.478277	0.147435	1.424669
H109	H	0.633653	-0.576757	0.439829
H110	H	1.133653	-0.076757	0.939829
H111	H	0.633627	-0.352610	0.269347
H112	H	1.133627	0.147390	0.769347
H113	H	0.494226	-0.576760	0.439845
H114	H	0.994226	-0.076760	0.939845
