data_functionalizedCrystal
_audit_creation_method	'MofGen! by Chris Wilmer'
_symmetry_space_group_name_H-M	'P1'
_symmetry_Int_Tables_number	1
_symmetry_cell_setting	triclinic
loop_
_symmetry_equiv_pos_as_xyz
  x,y,z
_cell_length_a	16.625539
_cell_length_b	12.827893
_cell_length_c	12.827892
_cell_angle_alpha	90.015363
_cell_angle_beta	89.974941
_cell_angle_gamma	89.981587
loop_
_atom_site_label
_atom_site_type_symbol
_atom_site_fract_x
_atom_site_fract_y
_atom_site_fract_z
Zn1	Zn	-0.455881	1.597663	-0.416032
Zn2	Zn	-0.321056	1.597559	-0.590795
Zn3	Zn	-0.321067	1.422906	-0.416068
Zn4	Zn	-0.455851	1.422889	-0.590732
O5	O	-0.388464	1.510254	-0.503407
O6	O	-0.438004	1.743885	-0.439226
O7	O	-0.208225	1.574354	-0.567659
O8	O	-0.338967	1.446138	-0.269828
O9	O	-0.338949	1.743809	-0.567624
O10	O	-0.438015	1.574531	-0.269801
O11	O	-0.208233	1.446038	-0.439288
O12	O	-0.338938	1.276668	-0.439227
O13	O	-0.568687	1.446110	-0.567516
O14	O	-0.437963	1.276656	-0.567551
O15	O	-0.568710	1.574515	-0.439165
O16	O	-0.338920	1.574338	-0.737023
O17	O	-0.437953	1.446009	-0.736976
C18	C	-0.388449	1.238744	-0.503387
C19	C	-0.388462	1.122591	-0.503403
C20	C	-0.339381	1.070769	-0.566841
C21	C	-0.339393	0.950719	-0.566859
C22	C	-0.598773	1.510322	-0.503329
C23	C	-0.688394	1.510351	-0.503296
C24	C	-1.016570	1.510399	-0.503179
C25	C	-0.925261	1.510383	-0.503215
C26	C	-0.852485	1.510376	-0.503238
C27	C	-0.761170	1.510358	-0.503272
C28	C	-0.178973	1.510247	-0.503409
C29	C	-0.089352	1.510420	-0.503148
C30	C	-0.388450	1.510189	-0.774917
C31	C	-0.388470	1.510257	-0.891070
C32	C	-0.388479	1.782824	-0.503428
C33	C	-0.388485	1.898977	-0.503437
C34	C	-0.339520	1.573833	-0.942843
C35	C	-0.339540	1.573904	-1.062893
C36	C	-0.388496	1.510348	-0.230837
C37	C	-0.388509	1.510388	-0.114683
H38	H	-0.430493	1.078081	-0.449109
N39	N	-0.441101	1.442115	-1.058846
N40	N	-0.515518	1.448996	-1.070884
H41	H	-0.552663	1.400779	-1.031442
H42	H	-0.430504	0.943537	-0.449118
H43	H	-0.297355	1.115279	-0.621141
N44	N	-0.286924	1.642070	-0.886984
N45	N	-0.292333	1.738511	-0.899013
H46	H	-0.255185	1.786707	-0.859567
N47	N	-0.441053	1.442020	-0.946949
N48	N	-0.435640	1.345578	-0.934931
H49	H	-0.472777	1.297382	-0.974394
N50	N	-0.286674	0.894805	-0.634980
N51	N	-0.286755	0.797363	-0.634894
H52	H	-0.249520	0.757870	-0.683005
N53	N	-0.286962	1.642176	-1.118754
N54	N	-0.287050	1.642133	-1.216196
H55	H	-0.249914	1.690351	-1.255652
