data_functionalizedCrystal
_audit_creation_method	'MofGen! by Chris Wilmer'
_symmetry_space_group_name_H-M	'P1'
_symmetry_Int_Tables_number	1
_symmetry_cell_setting	triclinic
loop_
_symmetry_equiv_pos_as_xyz
  x,y,z
_cell_length_a	15.712078
_cell_length_b	15.538191
_cell_length_c	14.048226
_cell_angle_alpha	89.996115
_cell_angle_beta	89.985465
_cell_angle_gamma	83.426622
loop_
_atom_site_label
_atom_site_type_symbol
_atom_site_fract_x
_atom_site_fract_y
_atom_site_fract_z
O1	O	1.000640	0.466181	-0.079323
O2	O	0.769289	0.401466	-0.079284
O3	O	0.929999	0.312210	-0.079316
O4	O	0.839930	0.555437	-0.079291
O5	O	0.929987	0.312198	0.079006
O6	O	0.769277	0.401454	0.079037
O7	O	1.000628	0.466169	0.078998
Zn8	Zn	0.884951	0.433809	0.104155
Zn9	Zn	0.884966	0.433826	-0.104440
O10	O	0.839918	0.555425	0.079030
C11	C	0.740397	0.390888	-0.000119
C12	C	0.654328	0.359376	-0.000105
C13	C	0.203291	0.626921	-0.000144
C14	C	0.122426	0.597291	-0.000170
C15	C	0.189623	0.448823	-0.000187
C16	C	0.270496	0.478440	-0.000165
C17	C	0.277322	0.567490	-0.000142
C18	C	0.344527	0.419010	-0.000164
C19	C	0.425392	0.448625	-0.000137
C20	C	0.432227	0.537671	-0.000111
C21	C	0.358188	0.597106	-0.000115
C22	C	0.337698	0.329960	-0.000180
C23	C	0.411729	0.270529	-0.000179
C24	C	0.492597	0.300145	-0.000158
C25	C	0.499432	0.389191	-0.000133
C26	C	0.566636	0.240710	-0.000154
C27	C	0.647502	0.270326	-0.000127
C28	C	0.580297	0.418806	-0.000106
C29	C	0.939417	0.280355	-0.000160
C30	C	0.967487	0.185453	-0.000174
C31	C	0.688621	-0.198417	-0.000106
C32	C	0.715016	-0.287589	-0.000109
C33	C	0.863485	-0.258879	-0.000134
C34	C	0.837102	-0.169703	-0.000137
C35	C	0.749668	-0.139480	-0.000122
C36	C	0.898149	-0.110766	-0.000152
C37	C	0.871768	-0.021598	-0.000149
C38	C	0.784339	0.008633	-0.000131
C39	C	0.723287	-0.050312	-0.000119
C40	C	0.985582	-0.140991	-0.000160
C41	C	1.046630	-0.082053	-0.000175
C42	C	1.020249	0.007117	-0.000179
C43	C	0.932820	0.037347	-0.000161
C44	C	1.081301	0.066061	-0.000191
C45	C	1.054920	0.155229	-0.000189
C46	C	0.906439	0.126515	-0.000159
C47	C	1.029521	0.476747	-0.000169
C48	C	1.115589	0.508259	-0.000189
C49	C	0.830500	0.587280	-0.000128
C50	C	0.802431	0.682182	-0.000120
N51	N	0.884946	0.433799	0.246515
N52	N	0.884980	0.433831	-0.246801
C53	C	0.956117	0.394306	0.296320
C54	C	0.956123	0.394308	0.395977
C55	C	0.884958	0.433808	0.445829
C56	C	0.813780	0.473301	0.396018
C57	C	0.813773	0.473294	0.296362
C58	C	0.813801	0.473315	0.603732
C59	C	0.813808	0.473324	0.703395
C60	C	0.956151	0.394329	0.703347
C61	C	0.956143	0.394322	0.603691
C62	C	0.884966	0.433817	0.553887
H63	H	0.271850	0.305850	-0.000190
C64	C	1.034402	0.350854	0.241488
C65	C	1.112686	0.307408	0.296277
C66	C	1.190972	0.263952	0.241449
C67	C	1.190972	0.263942	0.131831
C68	C	1.112684	0.307390	0.077036
C69	C	1.034399	0.350846	0.131864
H70	H	1.112689	0.307414	0.377428
H71	H	1.248925	0.231789	0.282013
H72	H	1.248924	0.231773	0.091244
H73	H	1.112682	0.307384	-0.004115
H74	H	0.976445	0.383009	0.091300
C75	C	1.177473	0.032807	-0.000201
C76	C	1.235084	0.056911	0.082002
C77	C	1.331257	0.023658	0.081994
C78	C	1.369821	-0.033699	-0.000217
C79	C	1.312210	-0.057806	-0.082426
C80	C	1.216036	-0.024553	-0.082418
H81	H	1.206537	0.099373	0.142865
H82	H	1.373904	0.041504	0.142851
H83	H	1.441014	-0.058315	-0.000223
H84	H	1.340756	-0.100267	-0.143289
H85	H	1.173389	-0.042398	-0.143275
H86	H	0.208848	0.699434	-0.000123
H87	H	1.014106	0.362170	0.743904
C88	C	0.559121	0.142758	-0.000171
C89	C	0.597988	0.085594	-0.082384
C90	C	0.590476	-0.012359	-0.082398
C91	C	0.544096	-0.053148	-0.000200
C92	C	0.505225	0.004017	0.082020
C93	C	0.512737	0.101970	0.082034
H94	H	0.632325	0.115788	-0.143238
H95	H	0.619251	-0.054676	-0.143263
H96	H	0.538535	-0.125659	-0.000210
H97	H	0.470889	-0.026177	0.142873
H98	H	0.483962	0.144287	0.142898
C99	C	0.735483	0.516740	0.241575
C100	C	0.657221	0.560228	0.296406
C101	C	0.578927	0.603671	0.241620
C102	C	0.578895	0.603625	0.132003
C103	C	0.657160	0.560135	0.077165
C104	C	0.735455	0.516692	0.131951
H105	H	0.657242	0.560264	0.377557
H106	H	0.520989	0.635866	0.282215
H107	H	0.520937	0.635784	0.091447
H108	H	0.657140	0.560099	-0.003986
H109	H	0.793392	0.484497	0.091356
H110	H	1.117818	-0.106674	-0.000183
C111	C	1.034423	0.350874	0.548849
C112	C	1.063496	0.253616	0.562547
C113	C	1.141774	0.210166	0.507703
C114	C	1.190981	0.263973	0.439162
C115	C	1.161909	0.361236	0.425462
C116	C	1.083630	0.404686	0.480305
H117	H	1.027069	0.213780	0.613288
H118	H	1.163295	0.138165	0.517846
H119	H	1.248927	0.231808	0.398564
H120	H	1.198335	0.401072	0.374721
H121	H	1.062110	0.476687	0.470163
C122	C	0.735522	0.516768	0.758229
C123	C	0.647169	0.484667	0.744570
C124	C	0.568881	0.528112	0.799402
C125	C	0.578945	0.603656	0.867893
C126	C	0.667301	0.635761	0.881555
C127	C	0.745589	0.592317	0.826723
H128	H	0.639716	0.428741	0.693866
H129	H	0.503473	0.504345	0.789288
H130	H	0.520991	0.635816	0.908483
H131	H	0.674754	0.691687	0.932259
H132	H	0.810997	0.616083	0.836837
H133	H	0.585854	0.491320	-0.000086
H134	H	0.363745	0.669619	-0.000095
H135	H	0.498075	0.561783	-0.000085
H136	H	0.062147	0.645693	-0.000167
H137	H	0.184052	0.376317	-0.000195
H138	H	0.406158	0.198024	-0.000186
H139	H	0.707781	0.221931	-0.000129
H140	H	0.835242	0.151124	-0.000154
H141	H	0.762861	0.081240	-0.000124
H142	H	0.652090	-0.025703	-0.000114
H143	H	0.617424	-0.173808	-0.000101
H144	H	0.665297	-0.335575	-0.000083
H145	H	0.934673	-0.283500	-0.000143
H146	H	1.007059	-0.213598	-0.000171
H147	H	1.104631	0.203219	-0.000200
H148	H	1.014076	0.362149	0.436527
H149	H	0.755838	0.505473	0.563185
H150	H	0.755833	0.505459	0.436613
