data_functionalizedCrystal
_audit_creation_method	'MofGen! by Chris Wilmer'
_symmetry_space_group_name_H-M	'P1'
_symmetry_Int_Tables_number	1
_symmetry_cell_setting	triclinic
loop_
_symmetry_equiv_pos_as_xyz
  x,y,z
_cell_length_a	16.959455
_cell_length_b	18.101397
_cell_length_c	16.959447
_cell_angle_alpha	90.033674
_cell_angle_beta	90.016723
_cell_angle_gamma	90.019413
loop_
_atom_site_label
_atom_site_type_symbol
_atom_site_fract_x
_atom_site_fract_y
_atom_site_fract_z
Zn1	Zn	1.208382	-0.294836	0.446941
Zn2	Zn	1.208303	-0.418689	0.314755
Zn3	Zn	1.076210	-0.294863	0.314773
Zn4	Zn	1.076174	-0.418638	0.446888
O5	O	1.142267	-0.356756	0.380839
O6	O	1.318982	-0.311275	0.429421
O7	O	1.190763	-0.402296	0.204146
O8	O	1.093791	-0.191227	0.332335
O9	O	1.318925	-0.402269	0.332304
O10	O	1.190897	-0.191206	0.429438
O11	O	1.093715	-0.311322	0.204160
O12	O	0.965594	-0.311272	0.332284
O13	O	1.093729	-0.402182	0.557506
O14	O	0.965568	-0.402209	0.429348
O15	O	1.190862	-0.311225	0.557545
O16	O	1.190728	-0.522315	0.332252
O17	O	1.093653	-0.522277	0.429330
C18	C	0.936901	-0.356739	0.380812
C19	C	0.849044	-0.356749	0.380820
C20	C	1.142200	-0.549167	0.380801
C21	C	1.142243	-0.631481	0.380811
C22	C	0.807761	-0.309335	0.330364
C23	C	0.807774	-0.404168	0.431287
C24	C	0.725229	-0.404177	0.431299
C25	C	0.683945	-0.356763	0.380843
C26	C	0.725207	-0.309340	0.330375
C27	C	0.683960	-0.451593	0.481771
C28	C	0.601409	-0.451603	0.481785
C29	C	0.560124	-0.404192	0.431325
C30	C	0.601391	-0.356768	0.380855
C31	C	0.560108	-0.309354	0.330399
C32	C	0.601374	-0.261934	0.279924
C33	C	0.683922	-0.261929	0.279915
C34	C	0.477576	-0.404197	0.431334
C35	C	0.477554	-0.309360	0.330410
C36	C	1.142344	-0.930572	0.380883
C37	C	1.203250	-0.899240	0.319641
C38	C	1.203461	-0.813621	0.319799
C39	C	1.142294	-0.782189	0.380846
C40	C	1.164869	-0.813193	0.464164
C41	C	1.165340	-0.898838	0.463830
C42	C	1.058700	-0.899081	0.359529
C43	C	1.059113	-0.813431	0.357669
C44	C	1.142264	-0.698330	0.380831
C45	C	1.142375	-1.014431	0.380904
C46	C	1.348435	-0.356775	0.380866
C47	C	1.436292	-0.356782	0.380878
C48	C	1.142300	-0.356695	0.587007
C49	C	1.142314	-0.356669	0.674864
C50	C	1.142357	-0.163594	0.380895
C51	C	1.142395	-0.081280	0.380919
C52	C	1.142280	-0.356764	0.175473
C53	C	1.142419	-0.356581	0.087617
C54	C	1.091836	-0.403948	1.046322
C55	C	1.192981	-0.309234	1.046358
C56	C	1.192960	-0.309250	0.963812
C57	C	1.142377	-0.356616	0.922517
C58	C	1.091815	-0.403967	0.963768
C59	C	1.243527	-0.261905	0.922554
C60	C	1.243508	-0.261919	0.840003
C61	C	1.192921	-0.309283	0.798707
C62	C	1.142356	-0.356635	0.839964
C63	C	1.091773	-0.404001	0.798669
C64	C	1.041204	-0.451350	0.839924
C65	C	1.041228	-0.451330	0.922472
C66	C	1.192897	-0.309303	0.716159
C67	C	1.091752	-0.404020	0.716115
H68	H	0.567750	-0.223326	0.238847
C69	C	0.432592	-0.257970	0.275648
C70	C	0.351467	-0.268137	0.286442
C71	C	0.310024	-0.220821	0.235996
H72	H	0.446042	-0.208190	0.287244
H73	H	0.446053	-0.268769	0.222503
H74	H	0.338012	-0.257333	0.339574
H75	H	0.337993	-0.317907	0.274839
H76	H	0.323484	-0.231620	0.182852
H77	H	0.323480	-0.171044	0.247597
H78	H	0.254976	-0.227717	0.243308
H79	H	1.234072	-0.270754	0.682573
H80	H	1.264871	-0.920708	0.333607
H81	H	1.000059	-0.489881	0.956069
C82	C	0.728583	-0.210421	0.225031
C83	C	0.674764	-0.168915	0.180826
C84	C	0.715879	-0.121467	0.130251
H85	H	0.760811	-0.178118	0.255233
H86	H	0.760745	-0.238699	0.190494
H87	H	0.642615	-0.140639	0.215358
H88	H	0.642533	-0.201199	0.150608
H89	H	0.748041	-0.149744	0.095714
H90	H	0.748106	-0.089168	0.160459
H91	H	0.679369	-0.093304	0.100247
H92	H	1.011292	-0.792043	0.399008
C93	C	1.298305	-0.210379	0.795267
C94	C	1.281109	-0.137105	0.815374
C95	C	1.331562	-0.089600	0.774173
H96	H	1.351442	-0.221117	0.808759
H97	H	1.291046	-0.217112	0.740180
H98	H	1.288374	-0.130375	0.870449
H99	H	1.227981	-0.126344	0.801880
H100	H	1.324303	-0.096334	0.719086
H101	H	1.384695	-0.100345	0.787669
H102	H	1.319896	-0.039879	0.787805
C103	C	0.432870	-0.455626	0.486261
C104	C	0.453002	-0.439585	0.564491
C105	C	0.411842	-0.486954	0.615115
H106	H	0.377783	-0.448884	0.479147
H107	H	0.446393	-0.505386	0.474655
H108	H	0.439473	-0.389837	0.576093
H109	H	0.508082	-0.446331	0.571630
H110	H	0.425366	-0.536714	0.603509
H111	H	0.356757	-0.480208	0.607994
H112	H	0.425501	-0.476081	0.668199
H113	H	1.013320	-0.919343	0.404134
C114	C	1.298364	-0.210518	0.967530
C115	C	1.287543	-0.220624	1.048652
C116	C	1.338043	-0.173292	1.090112
H117	H	1.351495	-0.221325	0.954096
H118	H	1.286818	-0.160743	0.954068
H119	H	1.299095	-0.270387	1.062108
H120	H	1.234423	-0.209811	1.062110
H121	H	1.326496	-0.123517	1.076650
H122	H	1.391170	-0.184103	1.076671
H123	H	1.330702	-0.180137	1.145157
C124	C	1.108878	-0.926438	0.526873
C125	C	1.133192	-0.900281	0.600691
C126	C	1.081212	-0.925697	0.658788
H127	H	1.057223	-0.908943	0.515937
H128	H	1.108791	-0.978922	0.527154
H129	H	1.133271	-0.847808	0.600408
H130	H	1.184839	-0.917774	0.611651
H131	H	1.081125	-0.978182	0.659069
H132	H	1.029560	-0.908201	0.647845
H133	H	1.097706	-0.907960	0.708881
H134	H	1.265421	-0.793078	0.333928
H135	H	0.841363	-0.270728	0.289266
H136	H	1.050554	-0.442585	0.682499
H137	H	0.841392	-0.442768	0.472369
C138	C	0.986317	-0.502695	0.794942
C139	C	0.997118	-0.492563	0.713821
C140	C	0.946565	-0.539841	0.672357
H141	H	0.997812	-0.552482	0.808357
H142	H	0.933198	-0.491840	0.808419
H143	H	1.050225	-0.503423	0.700349
H144	H	0.985618	-0.442786	0.700382
H145	H	0.893446	-0.528986	0.685834
H146	H	0.958063	-0.589625	0.685778
H147	H	0.953881	-0.532968	0.617312
C148	C	0.728924	-0.503042	0.536460
C149	C	0.810048	-0.492904	0.525626
C150	C	0.851496	-0.540297	0.575984
H151	H	0.715523	-0.492312	0.589625
H152	H	0.715419	-0.552804	0.524792
H153	H	0.823547	-0.443154	0.537299
H154	H	0.823472	-0.503640	0.472471
H155	H	0.837992	-0.590059	0.564316
H156	H	0.838090	-0.529563	0.629146
H157	H	0.906543	-0.533430	0.568634
H158	H	0.567817	-0.490217	0.522884
C159	C	1.184707	-0.926917	0.237060
C160	C	1.188242	-1.004187	0.235921
C161	C	1.171168	-1.029712	0.159858
H162	H	1.133305	-0.911309	0.222333
H163	H	1.222143	-0.907432	0.200962
H164	H	1.150808	-1.023665	0.272007
H165	H	1.239639	-1.019815	0.250633
H166	H	1.208604	-1.010227	0.123760
H167	H	1.119766	-1.014099	0.145137
H168	H	1.173571	-1.082142	0.159073
H169	H	1.189338	-0.792662	0.258021
C170	C	1.246925	-0.925258	0.487918
C171	C	1.295327	-0.864108	0.502640
C172	C	1.370493	-0.888413	0.524820
H173	H	1.243009	-0.954436	0.534288
H174	H	1.269003	-0.954040	0.446596
H175	H	1.273255	-0.835338	0.543959
H176	H	1.299266	-0.834923	0.456281
H177	H	1.392571	-0.917195	0.483498
H178	H	1.366569	-0.917591	0.571188
H179	H	1.403345	-0.846927	0.534805
H180	H	1.121864	-0.792830	0.511021
C181	C	1.037021	-0.455326	1.091250
C182	C	1.047872	-0.445186	1.172382
C183	C	0.997398	-0.492510	1.213794
H184	H	0.983883	-0.444532	1.077814
H185	H	1.048571	-0.505104	1.077750
H186	H	1.036317	-0.395419	1.185876
H187	H	1.101000	-0.455985	1.185841
H188	H	1.008948	-0.542288	1.200294
H189	H	0.944263	-0.481712	1.200352
H190	H	1.004759	-0.485641	1.268846
H191	H	1.225325	-0.791685	0.482558
H192	H	1.038161	-0.920744	0.299827
C193	C	1.036491	-0.786594	0.275827
C194	C	1.025295	-0.847464	0.226087
C195	C	1.004494	-0.822778	0.150674
H196	H	0.989047	-0.758859	0.278808
H197	H	1.077431	-0.756301	0.255423
H198	H	0.984359	-0.877745	0.246486
H199	H	1.072730	-0.875206	0.223082
H200	H	1.045434	-0.792485	0.130270
H201	H	0.957051	-0.795042	0.153664
H202	H	0.996902	-0.864073	0.116915
H203	H	1.234168	-0.270674	1.079985
