data_functionalizedCrystal
_audit_creation_method	'MofGen! by Chris Wilmer'
_symmetry_space_group_name_H-M	'P1'
_symmetry_Int_Tables_number	1
_symmetry_cell_setting	triclinic
loop_
_symmetry_equiv_pos_as_xyz
  x,y,z
_cell_length_a	9.798715
_cell_length_b	9.065218
_cell_length_c	9.065218
_cell_angle_alpha	94.984115
_cell_angle_beta	89.998697
_cell_angle_gamma	90.003772
loop_
_atom_site_label
_atom_site_type_symbol
_atom_site_fract_x
_atom_site_fract_y
_atom_site_fract_z
O1	O	-0.113488	-1.960400	0.216354
O2	O	0.386512	-1.460400	0.716354
O3	O	-0.113490	-1.531115	0.234100
O4	O	0.386510	-1.031115	0.734100
O5	O	-0.113486	-1.754631	0.010584
O6	O	0.386514	-1.254631	0.510584
O7	O	-0.113492	-1.736884	0.439869
O8	O	0.386508	-1.236884	0.939869
O9	O	0.113496	-1.754614	0.010584
O10	O	0.613496	-1.254614	0.510584
O11	O	0.113492	-1.531098	0.234099
O12	O	0.613492	-1.031098	0.734099
O13	O	0.113494	-1.960383	0.216353
O14	O	0.613494	-1.460383	0.716353
Zn15	Zn	0.149531	-1.745738	0.225226
Zn16	Zn	0.649531	-1.245738	0.725226
Zn17	Zn	-0.149527	-1.745760	0.225227
Zn18	Zn	0.350473	-1.245760	0.725227
O19	O	0.113490	-1.736868	0.439869
O20	O	0.613490	-1.236868	0.939869
C21	C	0.000001	-1.476120	0.232394
C22	C	0.500001	-0.976120	0.732394
C23	C	0.000000	-1.312277	0.227294
C24	C	0.500000	-0.812277	0.727294
N25	N	0.353631	-1.745734	0.225225
N26	N	0.853631	-1.245734	0.725225
N27	N	-0.353627	-1.745776	0.225217
N28	N	0.146373	-1.245776	0.725217
C29	C	0.421409	-1.839580	0.130961
C30	C	0.921409	-1.339580	0.630961
C31	C	0.578572	-1.839604	0.130956
C32	C	1.078572	-1.339604	0.630956
C33	C	0.000003	-1.752917	-0.044403
C34	C	0.500003	-1.252917	0.455597
C35	C	-0.000004	-1.747817	-0.208245
C36	C	0.499996	-1.247817	0.291755
C37	C	-0.000000	-2.015378	0.218059
C38	C	0.500000	-1.515378	0.718059
C39	C	-0.000008	-2.179221	0.223158
C40	C	0.499992	-1.679221	0.723158
C41	C	-0.000002	-1.738582	0.494855
C42	C	0.499998	-1.238582	0.994855
C43	C	-0.000004	-1.743681	0.658698
C44	C	0.499996	-1.243681	1.158698
H45	H	0.363088	-1.919903	0.050255
H46	H	0.863088	-1.419903	0.550255
Cl47	Cl	0.668556	-1.963665	0.006358
Cl48	Cl	1.168556	-1.463665	0.506358
H49	H	0.588095	-1.665432	0.305929
H50	H	1.088095	-1.165432	0.805929
Cl51	Cl	0.443668	-1.621700	0.349816
Cl52	Cl	0.943668	-1.121700	0.849816
