data_functionalizedCrystal
_audit_creation_method	'MofGen! by Chris Wilmer'
_symmetry_space_group_name_H-M	'P1'
_symmetry_Int_Tables_number	1
_symmetry_cell_setting	triclinic
loop_
_symmetry_equiv_pos_as_xyz
  x,y,z
_cell_length_a	10.489741
_cell_length_b	17.699083
_cell_length_c	16.776229
_cell_angle_alpha	90.007545
_cell_angle_beta	90.004427
_cell_angle_gamma	83.911094
loop_
_atom_site_label
_atom_site_type_symbol
_atom_site_fract_x
_atom_site_fract_y
_atom_site_fract_z
O1	O	-1.692074	-0.106782	-0.066241
O2	O	-1.192074	0.393218	0.433759
O3	O	-1.320692	-0.116805	-0.066253
O4	O	-0.820692	0.383195	0.433747
O5	O	-1.516876	-0.001673	-0.066240
O6	O	-1.016876	0.498327	0.433760
O7	O	-1.495891	-0.221914	-0.066254
O8	O	-0.995891	0.278086	0.433746
O9	O	-1.516850	-0.001666	0.066337
O10	O	-1.016850	0.498334	0.566337
O11	O	-1.320666	-0.116798	0.066323
O12	O	-0.820666	0.383202	0.566323
O13	O	-1.692048	-0.106775	0.066336
O14	O	-1.192048	0.393225	0.566336
Zn15	Zn	-1.506353	-0.111785	0.087379
Zn16	Zn	-1.006353	0.388215	0.587379
Zn17	Zn	-1.506387	-0.111795	-0.087296
Zn18	Zn	-1.006387	0.388205	0.412704
O19	O	-1.495865	-0.221907	0.066322
O20	O	-0.995865	0.278093	0.566322
C21	C	-1.273162	-0.116044	0.000033
C22	C	-0.773162	0.383956	0.500033
C23	C	-1.131574	-0.113779	0.000029
C24	C	-0.631574	0.386221	0.500029
C25	C	-1.516111	0.026533	0.000049
C26	C	-1.016111	0.526533	0.500049
C27	C	-1.513855	0.110565	0.000049
C28	C	-1.013855	0.610565	0.500049
C29	C	-1.739579	-0.107535	0.000047
C30	C	-1.239579	0.392465	0.500047
C31	C	-1.881166	-0.109800	0.000047
C32	C	-1.381166	0.390200	0.500047
C33	C	-1.064795	-0.040524	0.000041
C34	C	-0.564795	0.459476	0.500041
C35	C	-0.972038	-0.075133	-0.065327
C36	C	-0.472038	0.424867	0.434673
C37	C	-0.972046	-0.075143	0.065384
C38	C	-0.472046	0.424857	0.565384
C39	C	-1.040682	-0.148418	-0.065393
C40	C	-0.540682	0.351582	0.434607
C41	C	-1.040700	-0.148418	0.065376
C42	C	-0.540700	0.351582	0.565376
C43	C	-0.947970	-0.183080	-0.000008
C44	C	-0.447970	0.316920	0.499992
C45	C	-1.496630	-0.250112	0.000032
C46	C	-0.996630	0.249888	0.500032
C47	C	-1.498886	-0.334145	0.000027
C48	C	-0.998886	0.165855	0.500027
N49	N	-1.506339	-0.111778	0.206590
N50	N	-1.006339	0.388222	0.706590
C51	C	-1.629011	0.158433	0.000054
C52	C	-1.129011	0.658433	0.500054
C53	C	-1.626883	0.237390	0.000047
C54	C	-1.126883	0.737390	0.500047
C55	C	-1.509599	0.268478	0.000040
C56	C	-1.009599	0.768478	0.500040
C57	C	-1.394435	0.220605	0.000033
C58	C	-0.894435	0.720605	0.500033
C59	C	-1.396563	0.141649	0.000034
C60	C	-0.896563	0.641649	0.500034
C61	C	-1.385848	0.539024	0.000026
C62	C	-0.885848	1.039024	0.500026
C63	C	-1.383729	0.617986	0.000027
C64	C	-0.883729	1.117986	0.500027
C65	C	-1.616168	0.634765	0.000039
C66	C	-1.116168	1.134765	0.500039
C67	C	-1.618297	0.555810	0.000040
C68	C	-1.118297	1.055810	0.500040
C69	C	-1.503133	0.507943	0.000028
C70	C	-1.003133	1.007943	0.500028
C71	C	-1.505441	0.422328	0.000035
C72	C	-1.005441	0.922328	0.500035
C73	C	-1.507290	0.354091	0.000040
C74	C	-1.007290	0.854091	0.500040
N75	N	-1.506412	-0.111796	-0.206508
N76	N	-1.006412	0.388204	0.293492
C77	C	-1.593236	-0.060819	0.248313
C78	C	-1.093236	0.439181	0.748313
C79	C	-1.593243	-0.060818	0.331765
C80	C	-1.093243	0.439182	0.831765
C81	C	-1.506358	-0.111781	0.373493
C82	C	-1.006358	0.388219	0.873493
C83	C	-1.419453	-0.162743	0.331764
C84	C	-0.919453	0.337257	0.831764
C85	C	-1.419441	-0.162739	0.248313
C86	C	-0.919441	0.337261	0.748313
C87	C	-1.419499	-0.162758	0.668311
C88	C	-0.919499	0.337242	1.168311
C89	C	-1.419520	-0.162759	0.751768
C90	C	-0.919520	0.337241	1.251768
C91	C	-1.593301	-0.060837	0.751763
C92	C	-1.093301	0.439163	1.251763
C93	C	-1.593289	-0.060833	0.668313
C94	C	-1.093289	0.439167	1.168313
C95	C	-1.506379	-0.111792	0.626591
C96	C	-1.006379	0.388208	1.126591
C97	C	-1.506371	-0.111791	0.536103
C98	C	-1.006371	0.388209	1.036103
C99	C	-1.506372	-0.111786	0.463980
C100	C	-1.006372	0.388214	0.963980
H101	H	-0.941611	-0.044140	-0.120587
H102	H	-0.441611	0.455860	0.379413
O103	O	-1.755517	0.124910	0.000061
O104	O	-1.255517	0.624910	0.500061
H105	H	-1.737655	0.061965	0.000069
H106	H	-1.237655	0.561965	0.500069
H107	H	-1.348679	-0.204234	0.214343
H108	H	-0.848679	0.295766	0.714343
O109	O	-1.080740	-0.189443	-0.138688
O110	O	-0.580740	0.310557	0.361312
H111	H	-1.052583	-0.159204	-0.192816
H112	H	-0.552583	0.340796	0.307184
H113	H	-1.298940	0.245923	0.000023
H114	H	-0.798940	0.745923	0.500023
H115	H	-1.663999	-0.019323	0.365736
H116	H	-1.163999	0.480677	0.865736
O117	O	-1.272359	0.090017	0.000030
O118	O	-0.772359	0.590017	0.500030
H119	H	-1.267764	0.053645	0.054063
H120	H	-0.767764	0.553645	0.554063
H121	H	-1.709940	0.673748	0.000044
H122	H	-1.209940	1.173748	0.500044
O123	O	-0.881024	-0.262934	-0.000044
O124	O	-0.381024	0.237066	0.499956
H125	H	-0.908511	-0.293155	-0.054356
H126	H	-0.408511	0.206845	0.445644
O127	O	-1.686942	-0.005849	0.203308
O128	O	-1.186942	0.494151	0.703308
H129	H	-1.747357	0.029592	0.246344
H130	H	-1.247357	0.529592	0.746344
H131	H	-1.288216	0.643294	0.000024
H132	H	-0.788216	1.143294	0.500024
O133	O	-1.686991	-0.005863	0.623304
O134	O	-1.186991	0.494137	1.123304
H135	H	-1.747409	0.029579	0.666338
H136	H	-1.247409	0.529579	1.166338
H137	H	-1.348764	-0.204261	0.785741
H138	H	-0.848764	0.295739	1.285741
H139	H	-0.941634	-0.044131	0.120647
H140	H	-0.441634	0.455869	0.620647
H141	H	-1.292075	0.500060	0.000017
H142	H	-0.792075	1.000060	0.500017
O143	O	-1.744795	0.522277	0.000048
O144	O	-1.244795	1.022277	0.500048
H145	H	-1.751321	0.486695	-0.053985
H146	H	-1.251321	0.986695	0.446015
H147	H	-1.071160	-0.179386	0.120639
H148	H	-0.571160	0.320614	0.620639
H149	H	-1.720655	0.276362	0.000053
H150	H	-1.220655	0.776362	0.500053
O151	O	-1.687033	-0.005864	0.796761
O152	O	-1.187033	0.494136	1.296761
H153	H	-1.672441	-0.014418	0.861800
H154	H	-1.172441	0.485582	1.361800
H155	H	-1.348704	-0.204235	0.365743
H156	H	-0.848704	0.295765	0.865743
O157	O	-1.131996	0.039269	-0.000008
O158	O	-0.631996	0.539269	0.499992
H159	H	-1.104667	0.069498	-0.054341
H160	H	-0.604667	0.569498	0.445659
O161	O	-1.325778	-0.217724	0.623315
O162	O	-0.825778	0.282276	1.123315
H163	H	-1.265379	-0.253167	0.666353
H164	H	-0.765379	0.246833	1.166353
