data_functionalizedCrystal
_audit_creation_method	'MofGen! by Chris Wilmer'
_symmetry_space_group_name_H-M	'P1'
_symmetry_Int_Tables_number	1
_symmetry_cell_setting	triclinic
loop_
_symmetry_equiv_pos_as_xyz
  x,y,z
_cell_length_a	25.639242
_cell_length_b	15.297327
_cell_length_c	25.639214
_cell_angle_alpha	99.568089
_cell_angle_beta	89.916953
_cell_angle_gamma	99.704018
loop_
_atom_site_label
_atom_site_type_symbol
_atom_site_fract_x
_atom_site_fract_y
_atom_site_fract_z
Zn1	Zn	0.763675	-0.358371	-0.331670
Zn2	Zn	1.097008	-0.025038	0.001663
Zn3	Zn	1.430342	0.308295	0.334996
Zn4	Zn	0.748387	-0.509439	-0.259379
Zn5	Zn	1.081720	-0.176106	0.073954
Zn6	Zn	1.415054	0.157228	0.407288
Zn7	Zn	0.676133	-0.358627	-0.244260
Zn8	Zn	1.009466	-0.025294	0.089074
Zn9	Zn	1.342799	0.308040	0.422407
Zn10	Zn	0.661108	-0.509137	-0.346739
Zn11	Zn	0.994442	-0.175803	-0.013406
Zn12	Zn	1.327775	0.157530	0.319928
O13	O	0.712326	-0.433893	-0.295512
O14	O	1.045659	-0.100560	0.037821
O15	O	1.378992	0.232773	0.371155
O16	O	0.834810	-0.378430	-0.322102
O17	O	1.168144	-0.045097	0.011231
O18	O	1.501477	0.288237	0.344565
O19	O	0.738692	-0.489667	-0.184231
O20	O	1.072025	-0.156334	0.149102
O21	O	1.405359	0.177000	0.482435
O22	O	0.700431	-0.232382	-0.243221
O23	O	1.033765	0.100952	0.090112
O24	O	1.367098	0.434285	0.423445
O25	O	0.823578	-0.489419	-0.268990
O26	O	1.156912	-0.156086	0.064343
O27	O	1.490245	0.177248	0.397677
O28	O	0.764748	-0.232194	-0.307441
O29	O	1.098081	0.101139	0.025892
O30	O	1.431415	0.434473	0.359225
O31	O	0.685607	-0.378866	-0.173123
O32	O	1.018940	-0.045533	0.160210
O33	O	1.352274	0.287801	0.493543
O34	O	0.600976	-0.378573	-0.257833
O35	O	0.934310	-0.045240	0.075501
O36	O	1.267643	0.288094	0.408834
O37	O	0.674824	-0.488904	-0.417882
O38	O	1.008157	-0.155570	-0.084549
O39	O	1.341491	0.177763	0.248784
O40	O	0.589938	-0.489152	-0.333124
O41	O	0.923271	-0.155819	0.000210
O42	O	1.256605	0.177515	0.333543
O43	O	0.750180	-0.378137	-0.406811
O44	O	1.083513	-0.044804	-0.073478
O45	O	1.416846	0.288530	0.259855
O46	O	0.724123	-0.635610	-0.283601
O47	O	1.057457	-0.302277	0.049732
O48	O	1.390790	0.031056	0.383065
O49	O	0.660000	-0.635388	-0.347784
O50	O	0.993333	-0.302055	-0.014451
O51	O	1.326667	0.031279	0.318882
C52	C	0.688787	-0.668224	-0.318980
C53	C	1.022120	-0.334891	0.014353
C54	C	1.355453	-0.001558	0.347687
C55	C	0.678764	-0.768472	-0.329037
C56	C	1.012098	-0.435139	0.004296
C57	C	1.345431	-0.101805	0.337630
C58	C	0.576487	-0.433858	-0.295473
C59	C	0.909820	-0.100525	0.037860
C60	C	1.243153	0.232809	0.371194
C61	C	0.518372	-0.433865	-0.295471
C62	C	0.851705	-0.100531	0.037862
C63	C	1.185039	0.232802	0.371196
C64	C	0.784172	-1.051390	-0.223810
C65	C	1.117505	-0.718057	0.109523
C66	C	1.450839	-0.384724	0.442856
C67	C	0.793588	-0.957203	-0.214358
C68	C	1.126921	-0.623869	0.118975
C69	C	1.460255	-0.290536	0.452308
C70	C	0.764883	-0.910015	-0.243027
C71	C	1.098217	-0.576682	0.090306
C72	C	1.431550	-0.243349	0.423639
C73	C	0.726760	-0.957025	-0.281150
C74	C	1.060093	-0.623692	0.052184
C75	C	1.393427	-0.290358	0.385517
C76	C	0.717340	-1.051222	-0.290600
C77	C	1.050674	-0.717888	0.042734
C78	C	1.384007	-0.384555	0.376067
C79	C	0.698051	-0.909847	-0.309817
C80	C	1.031385	-0.576514	0.023517
C81	C	1.364718	-0.243180	0.356850
C82	C	0.659928	-0.956856	-0.347939
C83	C	0.993262	-0.623523	-0.014606
C84	C	1.326595	-0.290190	0.318728
C85	C	0.650510	-1.051044	-0.357387
C86	C	0.983844	-0.717711	-0.024054
C87	C	1.317177	-0.384377	0.309279
C88	C	0.679215	-1.098231	-0.328718
C89	C	1.012549	-0.764898	0.004615
C90	C	1.345882	-0.431565	0.337948
C91	C	0.707471	-0.815650	-0.300367
C92	C	1.040805	-0.482317	0.032967
C93	C	1.374138	-0.148983	0.366300
C94	C	0.640640	-0.815482	-0.367156
C95	C	0.973973	-0.482148	-0.033823
C96	C	1.307306	-0.148815	0.299511
C97	C	0.631223	-0.909669	-0.376608
C98	C	0.964557	-0.576336	-0.043274
C99	C	1.297890	-0.243002	0.290059
C100	C	0.152258	-0.491568	-0.334694
C101	C	0.485591	-0.158235	-0.001361
C102	C	0.818924	0.175098	0.331973
C103	C	0.097653	-0.491574	-0.334703
C104	C	0.430986	-0.158241	-0.001370
C105	C	0.764319	0.175093	0.331964
O106	O	0.064530	-0.540592	-0.368017
O107	O	0.397864	-0.207258	-0.034684
O108	O	0.731197	0.126075	0.298649
N109	N	0.076084	-0.433918	-0.295549
N110	N	0.409418	-0.100585	0.037785
N111	N	0.742751	0.232748	0.371118
C112	C	0.109124	-0.376247	-0.256386
C113	C	0.442458	-0.042913	0.076947
C114	C	0.775791	0.290420	0.410281
O115	O	0.085765	-0.327206	-0.223084
O116	O	0.419098	0.006127	0.110250
O117	O	0.752431	0.339461	0.443583
C118	C	0.163729	-0.376237	-0.256380
C119	C	0.497062	-0.042904	0.076953
C120	C	0.830395	0.290429	0.410287
C121	C	0.185293	-0.433903	-0.295534
C122	C	0.518627	-0.100570	0.037800
C123	C	0.851960	0.232763	0.371133
C124	C	0.173823	-0.549229	-0.373845
C125	C	0.507156	-0.215896	-0.040512
C126	C	0.840489	0.117438	0.292822
C127	C	0.228424	-0.549224	-0.373835
C128	C	0.561757	-0.215891	-0.040502
C129	C	0.895090	0.117442	0.292831
C130	C	0.261460	-0.491559	-0.334675
C131	C	0.594793	-0.158226	-0.001342
C132	C	0.928126	0.175107	0.331992
C133	C	0.239894	-0.433899	-0.295524
C134	C	0.573228	-0.100565	0.037809
C135	C	0.906561	0.232768	0.371142
C136	C	0.196768	-0.318562	-0.217220
C137	C	0.530102	0.014771	0.116113
C138	C	0.863435	0.348104	0.449447
C139	C	0.251376	-0.318557	-0.217218
C140	C	0.584709	0.014776	0.116116
C141	C	0.918042	0.348109	0.449449
C142	C	0.272940	-0.376223	-0.256371
C143	C	0.606274	-0.042890	0.076962
C144	C	0.939607	0.290443	0.410295
C145	C	0.327531	-0.376229	-0.256354
C146	C	0.660864	-0.042896	0.076979
C147	C	0.994198	0.290437	0.410312
N148	N	0.349100	-0.433885	-0.295509
N149	N	0.682433	-0.100552	0.037825
N150	N	1.015766	0.232782	0.371158
C151	C	0.316064	-0.491550	-0.334669
C152	C	0.649397	-0.158217	-0.001336
C153	C	0.982730	0.175117	0.331998
C154	C	-0.005548	-0.376270	-0.256403
C155	C	0.327785	-0.042936	0.076931
C156	C	0.661118	0.290397	0.410264
C157	C	-0.060152	-0.376283	-0.256406
C158	C	0.273181	-0.042950	0.076927
C159	C	0.606515	0.290384	0.410261
C160	C	-0.071620	-0.491609	-0.334724
C161	C	0.261713	-0.158276	-0.001390
C162	C	0.595047	0.175058	0.331943
C163	C	-0.017016	-0.491600	-0.334717
C164	C	0.316318	-0.158266	-0.001384
C165	C	0.649651	0.175067	0.331949
C166	C	0.016020	-0.433925	-0.295557
C167	C	0.349353	-0.100592	0.037776
C168	C	0.682687	0.232741	0.371110
C169	C	0.430730	-0.491537	-0.334646
C170	C	0.764064	-0.158203	-0.001312
C171	C	1.097397	0.175130	0.332021
C172	C	0.485336	-0.491530	-0.334631
C173	C	0.818670	-0.158196	-0.001298
C174	C	1.152003	0.175137	0.332035
C175	C	0.496800	-0.376201	-0.256316
C176	C	0.830133	-0.042867	0.077018
C177	C	1.163466	0.290466	0.410351
C178	C	0.442198	-0.376211	-0.256328
C179	C	0.775531	-0.042877	0.077005
C180	C	1.108865	0.290456	0.410338
C181	C	0.409164	-0.433882	-0.295498
C182	C	0.742498	-0.100548	0.037836
C183	C	1.075831	0.232785	0.371169
O184	O	0.360686	-0.327234	-0.223058
O185	O	0.694019	0.006099	0.110275
O186	O	1.027353	0.339433	0.443609
O187	O	0.339432	-0.540574	-0.367970
O188	O	0.672765	-0.207241	-0.034637
O189	O	1.006098	0.126093	0.298697
C190	C	0.848695	-0.433930	-0.295552
C191	C	1.182028	-0.100596	0.037782
C192	C	1.515362	0.232737	0.371115
C193	C	0.906808	-0.433945	-0.295568
C194	C	1.240141	-0.100612	0.037765
C195	C	1.573474	0.232722	0.371098
C196	C	0.712531	-0.433458	-0.431842
C197	C	1.045865	-0.100125	-0.098509
C198	C	1.379198	0.233208	0.234825
C199	C	0.712619	-0.433273	-0.489938
C200	C	1.045952	-0.099939	-0.156604
C201	C	1.379285	0.233394	0.176729
C202	C	0.735971	-0.198648	-0.271964
C203	C	1.069304	0.134686	0.061369
C204	C	1.402638	0.468019	0.394703
C205	C	0.746047	-0.098400	-0.261929
C206	C	1.079380	0.234933	0.071404
C207	C	1.412714	0.568267	0.404737
C208	C	0.712158	-0.434262	-0.159706
C209	C	1.045491	-0.100929	0.173627
C210	C	1.378824	0.232405	0.506961
C211	C	0.712197	-0.434193	-0.101585
C212	C	1.045530	-0.100860	0.231748
C213	C	1.378864	0.232473	0.565081
C214	C	0.684528	-0.376367	0.264555
C215	C	1.017861	-0.043034	0.597888
C216	C	1.351194	0.290300	0.931221
C217	C	0.684566	-0.376284	0.319167
C218	C	1.017900	-0.042951	0.652500
C219	C	1.351233	0.290382	0.985834
O220	O	0.660855	-0.327519	0.352276
O221	O	0.994189	0.005815	0.685609
O222	O	1.327522	0.339148	1.018943
N223	N	0.712506	-0.433514	0.340764
N224	N	1.045839	-0.100181	0.674098
N225	N	1.379173	0.233152	1.007431
C226	C	0.740413	-0.490824	0.307747
C227	C	1.073746	-0.157491	0.641080
C228	C	1.407080	0.175843	0.974413
O229	O	0.764182	-0.539494	0.331132
O230	O	1.097515	-0.206161	0.664465
O231	O	1.430848	0.127172	0.997798
C232	C	0.740377	-0.490901	0.253136
C233	C	1.073710	-0.157568	0.586469
C234	C	1.407044	0.175765	0.919802
C235	C	0.712431	-0.433674	0.231541
C236	C	1.045765	-0.100341	0.564874
C237	C	1.379098	0.232992	0.898208
C238	C	0.656585	-0.319144	0.242959
C239	C	0.989918	0.014189	0.576293
C240	C	1.323251	0.347523	0.909626
C241	C	0.656545	-0.319228	0.188351
C242	C	0.989879	0.014105	0.521684
C243	C	1.323212	0.347439	0.855017
C244	C	0.684449	-0.376535	0.155337
C245	C	1.017782	-0.043202	0.488670
C246	C	1.351116	0.290131	0.822004
C247	C	0.712392	-0.433759	0.176932
C248	C	1.045725	-0.100425	0.510265
C249	C	1.379059	0.232908	0.843599
C250	C	0.768287	-0.548206	0.220120
C251	C	1.101620	-0.214873	0.553453
C252	C	1.434954	0.118461	0.886786
C253	C	0.768249	-0.548278	0.165505
C254	C	1.101582	-0.214945	0.498839
C255	C	1.434916	0.118389	0.832172
C256	C	0.740303	-0.491051	0.143911
C257	C	1.073636	-0.157718	0.477244
C258	C	1.406970	0.175616	0.810577
C259	C	0.740256	-0.491150	0.089310
C260	C	1.073589	-0.157817	0.422643
C261	C	1.406923	0.175517	0.755976
N262	N	0.712317	-0.433920	0.067712
N263	N	1.045650	-0.100587	0.401046
N264	N	1.378983	0.232747	0.734379
C265	C	0.684413	-0.376613	0.100726
C266	C	1.017746	-0.043279	0.434059
C267	C	1.351080	0.290054	0.767393
C268	C	0.740487	-0.490656	0.422434
C269	C	1.073820	-0.157323	0.755767
C270	C	1.407154	0.176011	1.089101
C271	C	0.740520	-0.490584	0.477043
C272	C	1.073854	-0.157250	0.810377
C273	C	1.407187	0.176083	1.143710
C274	C	0.684674	-0.376043	0.488460
C275	C	1.018008	-0.042709	0.821794
C276	C	1.351341	0.290624	1.155127
C277	C	0.684638	-0.376120	0.433849
C278	C	1.017972	-0.042787	0.767183
C279	C	1.351305	0.290547	1.100516
C280	C	0.712548	-0.433426	0.400837
C281	C	1.045881	-0.100093	0.734170
C282	C	1.379214	0.233241	1.067503
C283	C	0.684332	-0.376794	-0.013957
C284	C	1.017665	-0.043461	0.319376
C285	C	1.350999	0.289872	0.652710
C286	C	0.684293	-0.376886	-0.068572
C287	C	1.017627	-0.043553	0.264762
C288	C	1.350960	0.289780	0.598095
C289	C	0.740141	-0.491423	-0.079983
C290	C	1.073475	-0.158090	0.253350
C291	C	1.406808	0.175243	0.586684
C292	C	0.740178	-0.491335	-0.025374
C293	C	1.073511	-0.158002	0.307959
C294	C	1.406845	0.175331	0.641293
C295	C	0.712272	-0.434014	0.007639
C296	C	1.045606	-0.100680	0.340972
C297	C	1.378939	0.232653	0.674305
O298	O	0.763957	-0.539888	0.056169
O299	O	1.097290	-0.206555	0.389502
O300	O	1.430624	0.126779	0.722836
O301	O	0.660654	-0.327942	0.077334
O302	O	0.993987	0.005391	0.410668
O303	O	1.327320	0.338724	0.744001
H304	H	0.772552	-0.833323	-0.235329
H305	H	1.105885	-0.499990	0.098004
H306	H	1.439218	-0.166657	0.431338
H307	H	0.824627	-0.918931	-0.183319
H308	H	1.157960	-0.585598	0.150014
H309	H	1.491294	-0.252264	0.483347
N310	N	0.005011	-0.550486	-0.374720
N311	N	0.338344	-0.217153	-0.041387
N312	N	0.671678	0.116181	0.291946
N313	N	0.038715	-0.518732	-0.404889
N314	N	0.372048	-0.185399	-0.071555
N315	N	0.705381	0.147935	0.261778
H316	H	0.054269	-0.560321	-0.433143
H317	H	0.387603	-0.226988	-0.099810
H318	H	0.720936	0.106346	0.233523
H319	H	0.661535	-0.330284	-0.086151
H320	H	0.994868	0.003049	0.247183
H321	H	1.328201	0.336383	0.580516
N322	N	0.420158	-0.317325	-0.216332
N323	N	0.753492	0.016009	0.117001
N324	N	1.086825	0.349342	0.450334
N325	N	0.386445	-0.349072	-0.186171
N326	N	0.719779	-0.015739	0.147163
N327	N	1.053112	0.317594	0.480496
H328	H	0.370883	-0.307479	-0.157925
H329	H	0.704216	0.025854	0.175409
H330	H	1.037550	0.359188	0.508742
N331	N	0.174739	-0.259662	-0.177230
N332	N	0.508073	0.073671	0.156103
N333	N	0.841406	0.407004	0.489436
N334	N	0.141030	-0.291398	-0.147061
N335	N	0.474363	0.041935	0.186273
N336	N	0.807697	0.375269	0.519606
H337	H	0.125471	-0.249796	-0.118817
H338	H	0.458805	0.083538	0.214516
H339	H	0.792138	0.416871	0.547850
H340	H	0.762938	-0.537927	-0.007790
H341	H	1.096272	-0.204594	0.325543
H342	H	1.429605	0.128739	0.658877
N343	N	0.746412	-0.767624	-0.261434
N344	N	1.079745	-0.434290	0.071899
N345	N	1.413079	-0.100957	0.405232
N346	N	0.754820	-0.683525	-0.252999
N347	N	1.088153	-0.350192	0.080334
N348	N	1.421486	-0.016858	0.413668
H349	H	0.782324	-0.649605	-0.225501
H350	H	1.115657	-0.316271	0.107833
H351	H	1.448990	0.017062	0.441166
N352	N	0.796769	-0.606798	0.131784
N353	N	1.130102	-0.273465	0.465117
N354	N	1.463435	0.059868	0.798450
N355	N	0.845653	-0.600200	0.138437
N356	N	1.178986	-0.266866	0.471770
N357	N	1.512320	0.066467	0.805104
H358	H	0.865796	-0.641527	0.114621
H359	H	1.199130	-0.308193	0.447955
H360	H	1.532463	0.025140	0.781288
H361	H	0.791039	-0.594812	0.237691
H362	H	1.124373	-0.261479	0.571025
H363	H	1.457706	0.071854	0.904358
H364	H	0.807536	-1.089819	-0.200469
H365	H	1.140870	-0.756485	0.132864
H366	H	1.474203	-0.423152	0.466198
N367	N	0.611324	-0.767293	-0.396454
N368	N	0.944657	-0.433960	-0.063120
N369	N	1.277991	-0.100627	0.270213
N370	N	0.613781	-0.777625	-0.445739
N371	N	0.947114	-0.444292	-0.112405
N372	N	1.280447	-0.110958	0.220928
H373	H	0.593078	-0.743588	-0.466429
H374	H	0.926411	-0.410255	-0.133096
H375	H	1.259745	-0.076921	0.200238
H376	H	0.763212	-0.537329	0.395557
H377	H	1.096546	-0.203996	0.728890
H378	H	1.429879	0.129338	1.062224
N379	N	0.768637	-0.549958	-0.113719
N380	N	1.101970	-0.216625	0.219614
N381	N	1.435303	0.116708	0.552947
N382	N	0.768595	-0.550015	-0.162477
N383	N	1.101929	-0.216682	0.170856
N384	N	1.435262	0.116651	0.504189
H385	H	0.788723	-0.591353	-0.186305
H386	H	1.122056	-0.258019	0.147028
H387	H	1.455389	0.075314	0.480361
N388	N	0.592286	-0.957707	-0.415547
N389	N	0.925620	-0.624374	-0.082214
N390	N	1.258953	-0.291040	0.251120
N391	N	0.583885	-1.041806	-0.423979
N392	N	0.917219	-0.708472	-0.090645
N393	N	1.250552	-0.375139	0.242688
H394	H	0.556386	-1.075735	-0.451480
H395	H	0.889720	-0.742401	-0.118147
H396	H	1.223053	-0.409068	0.215187
N397	N	0.507361	-0.550449	-0.374622
N398	N	0.840694	-0.217116	-0.041289
N399	N	1.174028	0.116218	0.292044
N400	N	0.492899	-0.633674	-0.379409
N401	N	0.826232	-0.300341	-0.046076
N402	N	1.159565	0.032993	0.287258
H403	H	0.508452	-0.675286	-0.407652
H404	H	0.841785	-0.341953	-0.074318
H405	H	1.175119	-0.008619	0.259015
H406	H	0.619462	-1.089317	-0.388423
H407	H	0.952795	-0.755983	-0.055090
H408	H	1.286129	-0.422650	0.278244
N409	N	0.669610	-1.194445	-0.338373
N410	N	1.002943	-0.861111	-0.005040
N411	N	1.336276	-0.527778	0.328293
N412	N	0.695249	-1.236559	-0.312778
N413	N	1.028583	-0.903226	0.020556
N414	N	1.361916	-0.569892	0.353889
H415	H	0.688468	-1.304511	-0.319597
H416	H	1.021802	-0.971178	0.013737
H417	H	1.355135	-0.637845	0.347070
H418	H	0.278272	-0.271585	-0.185330
H419	H	0.611605	0.061748	0.148003
H420	H	0.944939	0.395081	0.481337
N421	N	-0.105371	-0.550526	-0.374722
N422	N	0.227962	-0.217193	-0.041389
N423	N	0.561296	0.116141	0.291944
N424	N	-0.141639	-0.608010	-0.362030
N425	N	0.191695	-0.274677	-0.028697
N426	N	0.525028	0.058656	0.304637
H427	H	-0.165476	-0.649621	-0.390276
H428	H	0.167857	-0.316288	-0.056943
H429	H	0.501190	0.017046	0.276390
N430	N	0.397000	-0.550448	-0.374661
N431	N	0.730334	-0.217115	-0.041327
N432	N	1.063667	0.116218	0.292006
N433	N	0.416271	-0.601922	-0.409611
N434	N	0.749604	-0.268589	-0.076277
N435	N	1.082938	0.064744	0.257056
H436	H	0.392450	-0.643533	-0.437870
H437	H	0.725783	-0.310199	-0.104537
H438	H	1.059116	0.023134	0.228796
H439	H	0.245976	-0.596180	-0.405719
H440	H	0.579310	-0.262847	-0.072386
H441	H	0.912643	0.070487	0.260947
H442	H	0.021346	-0.329305	-0.224510
H443	H	0.354680	0.004028	0.108824
H444	H	0.688013	0.337361	0.442157
H445	H	0.661610	-0.330115	0.012916
H446	H	0.994943	0.003218	0.346249
H447	H	1.328277	0.336552	0.679583
N448	N	-0.082169	-0.317387	-0.216401
N449	N	0.251164	0.015946	0.116932
N450	N	0.584497	0.349279	0.450266
N451	N	-0.052661	-0.265911	-0.181440
N452	N	0.280672	0.067422	0.151894
N453	N	0.614006	0.400755	0.485227
H454	H	-0.068208	-0.224311	-0.153185
H455	H	0.265126	0.109023	0.180148
H456	H	0.598459	0.442356	0.513482
N457	N	0.530561	-0.317297	-0.216326
N458	N	0.863894	0.016036	0.117008
N459	N	1.197228	0.349369	0.450341
N460	N	0.566830	-0.259824	-0.229027
N461	N	0.900163	0.073509	0.104306
N462	N	1.233496	0.406843	0.437639
H463	H	0.590677	-0.218219	-0.200787
H464	H	0.924010	0.115115	0.132546
H465	H	1.257344	0.448448	0.465880
N466	N	0.140091	-0.608139	-0.413856
N467	N	0.473424	-0.274806	-0.080523
N468	N	0.806757	0.058528	0.252811
N469	N	0.159363	-0.659610	-0.448806
N470	N	0.492697	-0.326276	-0.115473
N471	N	0.826030	0.007057	0.217860
H472	H	0.135543	-0.701223	-0.477066
H473	H	0.468876	-0.367890	-0.143732
H474	H	0.802210	-0.034556	0.189601
N475	N	0.627996	-0.260765	0.166305
N476	N	0.961330	0.072568	0.499638
N477	N	1.294663	0.405901	0.832972
N478	N	0.603088	-0.209606	0.195796
N479	N	0.936421	0.123727	0.529130
N480	N	1.269754	0.457061	0.862463
H481	H	0.582924	-0.168312	0.180231
H482	H	0.916257	0.165022	0.513564
H483	H	1.249591	0.498355	0.846897
N484	N	0.656089	-0.317660	0.411802
N485	N	0.989422	0.015673	0.745135
N486	N	1.322756	0.349006	1.078468
N487	N	0.631176	-0.266504	0.441290
N488	N	0.964509	0.066829	0.774624
N489	N	1.297843	0.400162	1.107957
H490	H	0.611012	-0.225213	0.425722
H491	H	0.944345	0.108120	0.759056
H492	H	1.277679	0.441454	1.092389
N493	N	0.628079	-0.260591	0.276670
N494	N	0.961412	0.072742	0.610003
N495	N	1.294746	0.406076	0.943337
N496	N	0.603136	-0.209507	0.257371
N497	N	0.936469	0.123827	0.590704
N498	N	1.269803	0.457160	0.924037
H499	H	0.582999	-0.168153	0.281175
H500	H	0.916333	0.165180	0.614508
H501	H	1.249666	0.498514	0.947842
N502	N	0.656173	-0.317509	0.522196
N503	N	0.989506	0.015824	0.855530
N504	N	1.322839	0.349158	1.188863
N505	N	0.656214	-0.317452	0.570954
N506	N	0.989547	0.015881	0.904288
N507	N	1.322881	0.349215	1.237621
H508	H	0.636086	-0.276117	0.594782
H509	H	0.969419	0.057217	0.928116
H510	H	1.302752	0.390550	1.261449
H511	H	0.763271	-0.537192	0.494620
H512	H	1.096605	-0.203859	0.827953
H513	H	1.429938	0.129475	1.161287
