data_functionalizedCrystal
_audit_creation_method	'MofGen! by Chris Wilmer'
_symmetry_space_group_name_H-M	'P1'
_symmetry_Int_Tables_number	1
_symmetry_cell_setting	triclinic
loop_
_symmetry_equiv_pos_as_xyz
  x,y,z
_cell_length_a	13.032831
_cell_length_b	12.759400
_cell_length_c	13.032268
_cell_angle_alpha	97.150187
_cell_angle_beta	90.886977
_cell_angle_gamma	82.819639
loop_
_atom_site_label
_atom_site_type_symbol
_atom_site_fract_x
_atom_site_fract_y
_atom_site_fract_z
Zn1	Zn	1.498516	-0.709532	-0.780845
Zn2	Zn	1.520267	-0.866067	-0.608867
Zn3	Zn	1.348373	-0.665643	-0.587085
Zn4	Zn	1.326515	-0.860387	-0.758992
O5	O	1.423418	-0.775407	-0.683947
O6	O	1.645323	-0.751042	-0.776293
O7	O	1.515715	-0.823490	-0.462060
O8	O	1.368334	-0.524453	-0.612817
O9	O	1.661303	-0.866048	-0.649941
O10	O	1.478644	-0.556699	-0.755172
O11	O	1.389425	-0.676239	-0.446057
O12	O	1.201551	-0.670731	-0.591628
O13	O	1.331081	-0.856366	-0.905808
O14	O	1.185493	-0.813808	-0.717927
O15	O	1.457450	-0.745534	-0.921863
O16	O	1.494520	-1.012325	-0.628751
O17	O	1.352172	-1.008152	-0.739048
C18	C	1.156205	-0.736891	-0.650043
C19	C	1.041887	-0.720442	-0.635563
C20	C	1.423359	-1.048363	-0.683918
C21	C	1.423424	-1.165153	-0.683952
C22	C	0.983014	-0.783992	-0.691504
C23	C	0.864860	-0.766993	-0.676540
C24	C	1.497609	-1.222171	-0.626602
C25	C	1.497668	-1.331908	-0.626642
C26	C	1.349348	-1.327596	-0.741382
C27	C	1.349295	-1.217863	-0.741348
C28	C	1.571738	-1.169461	-0.569206
C29	C	1.645929	-1.226480	-0.511852
C30	C	1.645988	-1.336216	-0.511891
C31	C	1.571857	-1.388934	-0.569286
C32	C	1.691674	-0.814074	-0.717984
C33	C	1.805989	-0.830552	-0.732489
C34	C	1.389401	-0.805212	-0.952195
C35	C	1.374905	-0.817913	-1.066506
C36	C	1.423501	-0.501392	-0.684002
C37	C	1.423537	-0.384623	-0.684026
C38	C	1.430967	-0.768738	-1.125413
C39	C	1.415986	-0.781864	-1.243560
C40	C	1.457361	-0.745651	-0.416751
C41	C	1.472056	-0.732683	-0.302465
H42	H	0.827794	-0.699991	-0.617568
H43	H	1.571696	-1.080107	-0.569164
C44	C	1.550993	-0.663677	-1.253242
C45	C	1.649468	-0.704069	-1.292212
C46	C	1.722202	-0.640521	-1.246897
H47	H	1.550723	-0.663994	-1.180399
H48	H	1.533809	-0.592851	-1.268930
H49	H	1.666648	-0.774876	-1.276517
H50	H	1.649771	-0.703750	-1.365051
H51	H	1.705018	-0.569695	-1.262585
H52	H	1.721923	-0.640842	-1.174055
H53	H	1.789024	-0.667912	-1.273338
H54	H	1.356888	-0.833678	-1.280589
C55	C	0.855598	-0.919860	-0.811044
C56	C	0.962929	-0.918989	-0.810250
C57	C	1.008663	-1.001249	-0.882592
H58	H	0.829408	-0.909855	-0.878020
H59	H	0.840017	-0.986263	-0.793665
H60	H	0.978501	-0.852602	-0.827636
H61	H	0.989147	-0.929008	-0.743292
H62	H	0.993082	-1.067653	-0.865212
H63	H	0.982465	-0.991237	-0.949563
H64	H	1.081492	-1.000676	-0.882056
C65	C	1.268809	-1.384646	-0.803793
C66	C	1.203844	-1.311227	-0.854033
C67	C	1.129645	-1.363742	-0.911545
H68	H	1.228938	-1.416682	-0.758850
H69	H	1.302422	-1.438028	-0.853687
H70	H	1.170234	-1.257864	-0.804145
H71	H	1.243685	-1.279187	-0.898994
H72	H	1.163258	-1.417125	-0.961439
H73	H	1.089782	-1.395777	-0.866594
H74	H	1.085563	-1.313938	-0.945647
H75	H	1.706289	-1.183553	-0.465129
C76	C	1.268909	-1.155927	-0.803759
C77	C	1.318705	-1.108590	-0.877097
C78	C	1.244691	-1.051536	-0.934622
H79	H	1.229069	-1.102268	-0.758804
H80	H	1.224771	-1.203004	-0.838006
H81	H	1.362825	-1.061516	-0.842851
H82	H	1.358540	-1.162225	-0.922074
H83	H	1.200553	-1.098613	-0.968870
H84	H	1.204854	-0.997883	-0.889659
H85	H	1.278466	-1.019420	-0.984395
H86	H	1.315811	-0.869723	-1.103540
H87	H	1.004816	-0.653445	-0.576595
C88	C	1.509623	-0.699456	-1.076078
C89	C	1.483969	-0.595151	-1.099291
C90	C	1.556397	-0.531295	-1.053852
H91	H	1.576555	-0.726589	-1.102356
H92	H	1.509211	-0.699745	-1.003222
H93	H	1.484393	-0.594866	-1.172133
H94	H	1.417050	-0.567986	-1.073012
H95	H	1.555985	-0.531585	-0.980996
H96	H	1.623324	-0.558438	-1.080134
H97	H	1.538996	-0.460516	-1.069588
C98	C	1.726726	-1.397988	-0.449714
C99	C	1.825582	-1.388285	-0.485098
C100	C	1.899998	-1.445145	-0.427833
H101	H	1.716332	-1.470930	-0.457889
H102	H	1.720553	-1.370181	-0.378686
H103	H	1.831753	-1.416097	-0.556108
H104	H	1.836010	-1.315357	-0.476921
H105	H	1.893825	-1.417338	-0.356804
H106	H	1.889593	-1.518084	-0.436011
H107	H	1.967080	-1.438561	-0.451826
C108	C	1.572063	-1.508075	-0.569162
C109	C	1.652887	-1.546728	-0.506639
C110	C	1.653099	-1.656469	-0.506486
H111	H	1.581434	-1.542911	-0.637747
H112	H	1.508008	-1.521460	-0.542865
H113	H	1.716927	-1.533353	-0.532940
H114	H	1.643533	-1.511922	-0.438046
H115	H	1.589043	-1.669854	-0.480189
H116	H	1.662468	-1.691295	-0.575074
H117	H	1.707931	-1.682707	-0.464058
H118	H	1.020083	-0.850982	-0.750480
