data_functionalizedCrystal
_audit_creation_method	'MofGen! by Chris Wilmer'
_symmetry_space_group_name_H-M	'P1'
_symmetry_Int_Tables_number	1
_symmetry_cell_setting	triclinic
loop_
_symmetry_equiv_pos_as_xyz
  x,y,z
_cell_length_a	17.077404
_cell_length_b	14.908520
_cell_length_c	17.077396
_cell_angle_alpha	93.267357
_cell_angle_beta	89.982756
_cell_angle_gamma	93.320938
loop_
_atom_site_label
_atom_site_type_symbol
_atom_site_fract_x
_atom_site_fract_y
_atom_site_fract_z
Zn1	Zn	1.182006	-0.359146	-0.461867
Zn2	Zn	1.174344	-0.510020	-0.338173
Zn3	Zn	1.050741	-0.359180	-0.330617
Zn4	Zn	1.043134	-0.509964	-0.469394
O5	O	1.112556	-0.434578	-0.400013
O6	O	1.290836	-0.379169	-0.445471
O7	O	1.157924	-0.490048	-0.227326
O8	O	1.074544	-0.232931	-0.341715
O9	O	1.285206	-0.490015	-0.354594
O10	O	1.170984	-0.232906	-0.438144
O11	O	1.067114	-0.379227	-0.221774
O12	O	0.939886	-0.379173	-0.349013
O13	O	1.061579	-0.489920	-0.578240
O14	O	0.934297	-0.489953	-0.450972
O15	O	1.163607	-0.379115	-0.572711
O16	O	1.150548	-0.636257	-0.361892
O17	O	1.054149	-0.636216	-0.458299
C18	C	0.908609	-0.434561	-0.399990
C19	C	0.821359	-0.434576	-0.400000
C20	C	0.777474	-0.492346	-0.453014
C21	C	0.695494	-0.492348	-0.453027
C22	C	0.657399	-0.434584	-0.400021
C23	C	0.701289	-0.376807	-0.347005
C24	C	0.783268	-0.376801	-0.346997
C25	C	0.530418	-0.376825	-0.347025
C26	C	0.448433	-0.376832	-0.347032
C27	C	0.442644	-0.492372	-0.453055
C28	C	0.524623	-0.492366	-0.453047
C29	C	0.568507	-0.434590	-0.400029
C30	C	1.100713	-0.668971	-0.411749
C31	C	1.095718	-0.769245	-0.416797
C32	C	1.186815	-0.957653	-0.325973
C33	C	1.182125	-1.051870	-0.330713
C34	C	1.081650	-1.051897	-0.431020
C35	C	1.086341	-0.957680	-0.426280
C36	C	1.138924	-0.910561	-0.373754
C37	C	1.143610	-0.816343	-0.369011
C38	C	1.043141	-0.816372	-0.469321
C39	C	1.038450	-0.910589	-0.474061
C40	C	1.317300	-0.434595	-0.400036
C41	C	1.404549	-0.434602	-0.400046
C42	C	1.112599	-0.434508	-0.604754
C43	C	1.112617	-0.434478	-0.692002
C44	C	1.124467	-0.199269	-0.388247
C45	C	1.129543	-0.098995	-0.383234
C46	C	1.065348	-0.376766	-0.730100
C47	C	1.065362	-0.376746	-0.812080
C48	C	1.112650	-0.434433	-0.855959
C49	C	1.159921	-0.492151	-0.817855
C50	C	1.159902	-0.492175	-0.735877
C51	C	1.159958	-0.492095	-0.988722
C52	C	1.159978	-0.492069	-1.070706
C53	C	1.065417	-0.376665	-1.064925
C54	C	1.065399	-0.376690	-0.982947
C55	C	1.112671	-0.434407	-0.944849
C56	C	1.112562	-0.434582	-0.196065
C57	C	1.112708	-0.434358	-0.108804
H58	H	0.555637	-0.539408	-0.496204
O59	O	1.019393	-0.320736	-1.101966
C60	C	0.966112	-0.372085	-1.151952
H61	H	0.957672	-0.443146	-1.130796
H62	H	0.990227	-0.375173	-1.214243
C63	C	0.897103	-0.240734	-1.176969
C64	C	0.886731	-0.328010	-1.150981
H65	H	0.848137	-0.213546	-1.176374
H66	H	0.933000	-0.206138	-1.143295
H67	H	0.917201	-0.243319	-1.228876
H68	H	0.866643	-0.325423	-1.099071
H69	H	0.850828	-0.362605	-1.184646
H70	H	1.198400	-0.539163	-0.704859
H71	H	0.808485	-0.539388	-0.496175
H72	H	1.198459	-0.539086	-0.957705
O73	O	1.030667	-1.097639	-0.482153
C74	C	1.048909	-1.074523	-0.559241
H75	H	1.112906	-1.048542	-0.561955
H76	H	1.009523	-1.019872	-0.576974
C77	C	0.956990	-1.190102	-0.612495
C78	C	1.035593	-1.158199	-0.615829
H79	H	0.948773	-1.241716	-0.647403
H80	H	0.944697	-1.205675	-0.560560
H81	H	0.924177	-1.144552	-0.627270
H82	H	1.068404	-1.203745	-0.601045
H83	H	1.047891	-1.142636	-0.667764
H84	H	0.417419	-0.329784	-0.303879
H85	H	0.406909	-0.539413	-0.496226
O86	O	1.228770	-1.097499	-0.284330
C87	C	1.308138	-1.074379	-0.300428
H88	H	1.313129	-1.005953	-0.327173
H89	H	1.331919	-1.127348	-0.343472
C90	C	1.349837	-1.154045	-0.190888
C91	C	1.355968	-1.070000	-0.223731
H92	H	1.379342	-1.151348	-0.143579
H93	H	1.296365	-1.169625	-0.180044
H94	H	1.369653	-1.198177	-0.226765
H95	H	1.336142	-1.025872	-0.187858
H96	H	1.409437	-1.054412	-0.234567
H97	H	0.670266	-0.329770	-0.303850
H98	H	0.659767	-0.539392	-0.496195
H99	H	0.566147	-0.329770	-0.303859
O100	O	1.194578	-0.770529	-0.317905
C101	C	1.152634	-0.716097	-0.264433
H102	H	1.089397	-0.744557	-0.260953
H103	H	1.153469	-0.644676	-0.285107
C104	C	1.268784	-0.679718	-0.187073
C105	C	1.191116	-0.714677	-0.182793
H106	H	1.292523	-0.678838	-0.136714
H107	H	1.297044	-0.716387	-0.223099
H108	H	1.269469	-0.620204	-0.204305
H109	H	1.190433	-0.774194	-0.165572
H110	H	1.162858	-0.678018	-0.146762
O111	O	1.019427	-0.320596	-0.848963
C112	C	0.977676	-0.269697	-0.792656
H113	H	1.009976	-0.266596	-0.734067
H114	H	0.916383	-0.302725	-0.785580
C115	C	0.931566	-0.177477	-0.891810
C116	C	0.971240	-0.173663	-0.819852
H117	H	0.927592	-0.118240	-0.908587
H118	H	0.959692	-0.211771	-0.929746
H119	H	0.880492	-0.205005	-0.885904
H120	H	1.022316	-0.146146	-0.825762
H121	H	0.943123	-0.139362	-0.781918
O122	O	0.987459	-0.956324	-0.525191
C123	C	1.005695	-0.933207	-0.602280
H124	H	1.069694	-0.907237	-0.605001
H125	H	0.966314	-0.878548	-0.620005
C126	C	0.913754	-1.048769	-0.655526
C127	C	0.992361	-1.016880	-0.658870
H128	H	0.905527	-1.100380	-0.690435
H129	H	0.901466	-1.064342	-0.603590
H130	H	0.880946	-1.003212	-0.670295
H131	H	1.025167	-1.062433	-0.644092
H132	H	1.004655	-1.001317	-0.710805
O133	O	1.237777	-0.911835	-0.274864
C134	C	1.195824	-0.857403	-0.221401
H135	H	1.132587	-0.885866	-0.217928
H136	H	1.196658	-0.785983	-0.242079
C137	C	1.311962	-0.821012	-0.144026
C138	C	1.234294	-0.855975	-0.139755
H139	H	1.335693	-0.820128	-0.093663
H140	H	1.340228	-0.857681	-0.180046
H141	H	1.312647	-0.761499	-0.161260
H142	H	1.233611	-0.915491	-0.122531
H143	H	1.206029	-0.819316	-0.103730
O144	O	0.996729	-0.770589	-0.515822
C145	C	1.044097	-0.715984	-0.563807
H146	H	1.104510	-0.744305	-0.570144
H147	H	1.050367	-0.644595	-0.535947
C148	C	0.931561	-0.679734	-0.637513
C149	C	1.005759	-0.714522	-0.645302
H150	H	0.907911	-0.678828	-0.687782
H151	H	0.899647	-0.716519	-0.605183
H152	H	0.936796	-0.620246	-0.614293
H153	H	1.000522	-0.774013	-0.668512
H154	H	1.037671	-0.677747	-0.677638
H155	H	1.026846	-0.329786	-0.694379
O156	O	1.205967	-0.548145	-0.860389
C157	C	1.285198	-0.528428	-0.839393
H158	H	1.288566	-0.493768	-0.778138
H159	H	1.313996	-0.482032	-0.883214
C160	C	1.324155	-0.658952	-0.915241
C161	C	1.328293	-0.616389	-0.840003
H162	H	1.350740	-0.713209	-0.915620
H163	H	1.270777	-0.672234	-0.929389
H164	H	1.348153	-0.620280	-0.951750
H165	H	1.304287	-0.655056	-0.803497
H166	H	1.381669	-0.603115	-0.825848
H167	H	0.818998	-0.329754	-0.303831
H168	H	1.198483	-0.539043	-1.106430
H169	H	1.026897	-0.329711	-0.947222
