data_functionalizedCrystal
_audit_creation_method	'MofGen! by Chris Wilmer'
_symmetry_space_group_name_H-M	'P1'
_symmetry_Int_Tables_number	1
_symmetry_cell_setting	triclinic
loop_
_symmetry_equiv_pos_as_xyz
  x,y,z
_cell_length_a	14.519731
_cell_length_b	13.596369
_cell_length_c	10.723024
_cell_angle_alpha	90.004807
_cell_angle_beta	84.078361
_cell_angle_gamma	90.005416
loop_
_atom_site_label
_atom_site_type_symbol
_atom_site_fract_x
_atom_site_fract_y
_atom_site_fract_z
O1	O	1.224692	0.081791	0.163703
O2	O	1.474692	0.331791	0.413703
O3	O	1.724692	0.581791	0.663703
O4	O	1.974692	0.831791	0.913703
O5	O	0.956316	0.081792	0.182938
O6	O	1.206316	0.331792	0.432938
O7	O	1.456316	0.581792	0.682938
O8	O	1.706316	0.831792	0.932938
O9	O	1.096695	0.081788	-0.008313
O10	O	1.346695	0.331788	0.241687
O11	O	1.596695	0.581788	0.491687
O12	O	1.846695	0.831788	0.741687
O13	O	1.084314	0.081795	0.354954
O14	O	1.334314	0.331795	0.604954
O15	O	1.584314	0.581795	0.854954
O16	O	1.834314	0.831795	1.104954
O17	O	1.096681	-0.081795	-0.008323
O18	O	1.346681	0.168205	0.241677
O19	O	1.596681	0.418205	0.491677
O20	O	1.846681	0.668205	0.741677
O21	O	0.956302	-0.081791	0.182928
O22	O	1.206302	0.168209	0.432928
O23	O	1.456302	0.418209	0.682928
O24	O	1.706302	0.668209	0.932928
O25	O	1.224678	-0.081792	0.163693
O26	O	1.474678	0.168208	0.413693
O27	O	1.724678	0.418208	0.663693
O28	O	1.974678	0.668208	0.913693
Zn29	Zn	1.090488	-0.107764	0.173309
Zn30	Zn	1.340488	0.142236	0.423309
Zn31	Zn	1.590488	0.392236	0.673309
Zn32	Zn	1.840488	0.642236	0.923309
Zn33	Zn	1.090507	0.107764	0.173322
Zn34	Zn	1.340507	0.357764	0.423322
Zn35	Zn	1.590507	0.607764	0.673322
Zn36	Zn	1.840507	0.857764	0.923322
O37	O	1.084300	-0.081788	0.354944
O38	O	1.334300	0.168212	0.604944
O39	O	1.584300	0.418212	0.854944
O40	O	1.834300	0.668212	1.104944
C41	C	0.921945	0.000001	0.182032
C42	C	1.171945	0.250001	0.432032
C43	C	1.421945	0.500001	0.682032
C44	C	1.671945	0.750001	0.932032
C45	C	0.819551	0.000001	0.179331
C46	C	1.069551	0.250001	0.429331
C47	C	1.319551	0.500001	0.679331
C48	C	1.569551	0.750001	0.929331
N49	N	1.090482	-0.254856	0.173299
N50	N	1.340482	-0.004856	0.423299
N51	N	1.590482	0.245144	0.673299
N52	N	1.840482	0.495144	0.923299
C53	C	0.736396	0.000005	0.177137
C54	C	0.986396	0.250005	0.427137
C55	C	1.236396	0.500005	0.677137
C56	C	1.486396	0.750005	0.927137
C57	C	0.632073	0.000006	0.174395
C58	C	0.882073	0.250006	0.424395
C59	C	1.132073	0.500006	0.674395
C60	C	1.382073	0.750006	0.924395
C61	C	0.548923	0.000005	0.172218
C62	C	0.798923	0.250005	0.422218
C63	C	1.048923	0.500005	0.672218
C64	C	1.298923	0.750005	0.922218
C65	C	0.444594	0.000008	0.169476
C66	C	0.694594	0.250008	0.419476
C67	C	0.944594	0.500008	0.669476
C68	C	1.194594	0.750008	0.919476
C69	C	1.090505	-0.656146	0.173324
C70	C	1.340505	-0.406146	0.423324
C71	C	1.590505	-0.156146	0.673324
C72	C	1.840505	0.093854	0.923324
C73	C	1.090496	-0.544495	0.173321
C74	C	1.340496	-0.294495	0.423321
C75	C	1.590496	-0.044495	0.673321
C76	C	1.840496	0.205505	0.923321
C77	C	1.090494	-0.455505	0.173312
C78	C	1.340494	-0.205505	0.423312
C79	C	1.590494	0.044495	0.673312
C80	C	1.840494	0.294495	0.923312
C81	C	1.090484	-0.343846	0.173308
C82	C	1.340484	-0.093846	0.423308
C83	C	1.590484	0.156154	0.673308
C84	C	1.840484	0.406154	0.923308
C85	C	1.259049	0.000001	0.164599
C86	C	1.509049	0.250001	0.414599
C87	C	1.759049	0.500001	0.664599
C88	C	2.009049	0.750001	0.914599
C89	C	1.361443	0.000007	0.167300
C90	C	1.611443	0.250007	0.417300
C91	C	1.861443	0.500007	0.667300
C92	C	2.111443	0.750007	0.917300
C93	C	1.095787	-0.000002	-0.054809
C94	C	1.345787	0.249998	0.195191
C95	C	1.595787	0.499998	0.445191
C96	C	1.845787	0.749998	0.695191
C97	C	1.093091	0.000001	-0.193338
C98	C	1.343091	0.250001	0.056662
C99	C	1.593091	0.500001	0.306662
C100	C	1.843091	0.750001	0.556662
N101	N	1.090520	0.254856	0.173322
N102	N	1.340520	0.504856	0.423322
N103	N	1.590520	0.754856	0.673322
N104	N	1.840520	1.004856	0.923322
C105	C	1.171640	0.000002	-0.269047
C106	C	1.421640	0.250002	-0.019047
C107	C	1.671640	0.500002	0.230953
C108	C	1.921640	0.750002	0.480953
C109	C	1.168855	0.000006	-0.412225
C110	C	1.418855	0.250006	-0.162225
C111	C	1.668855	0.500006	0.087775
C112	C	1.918855	0.750006	0.337775
C113	C	1.085208	0.000005	0.401440
C114	C	1.335208	0.250005	0.651440
C115	C	1.585208	0.500005	0.901440
C116	C	1.835208	0.750005	1.151440
C117	C	1.087904	0.000008	0.539970
C118	C	1.337904	0.250008	0.789970
C119	C	1.587904	0.500008	1.039970
C120	C	1.837904	0.750008	1.289970
H121	H	1.236099	0.000002	-0.477280
H122	H	1.486099	0.250002	-0.227280
H123	H	1.736099	0.500002	0.022720
H124	H	1.986099	0.750002	0.272720
N125	N	1.258584	-0.000010	-0.217376
N126	N	1.508584	0.249990	0.032624
N127	N	1.758584	0.499990	0.282624
N128	N	2.008584	0.749990	0.532624
N129	N	1.278640	-0.068966	-0.147979
N130	N	1.528640	0.181034	0.102021
N131	N	1.778640	0.431034	0.352021
N132	N	2.028640	0.681034	0.602021
H133	H	1.340047	-0.068975	-0.111486
H134	H	1.590047	0.181025	0.138514
H135	H	1.840047	0.431025	0.388514
H136	H	2.090047	0.681025	0.638514
N137	N	1.006130	-0.000011	-0.244965
N138	N	1.256130	0.249989	0.005035
N139	N	1.506130	0.499989	0.255035
N140	N	1.756130	0.749989	0.505035
N141	N	0.932281	-0.000018	-0.173860
N142	N	1.182281	0.249982	0.076140
N143	N	1.432281	0.499982	0.326140
N144	N	1.682281	0.749982	0.576140
H145	H	0.870860	-0.000029	-0.210317
H146	H	1.120860	0.249971	0.039683
H147	H	1.370860	0.499971	0.289683
H148	H	1.620860	0.749971	0.539683
H149	H	1.020656	0.000000	-0.394983
H150	H	1.270656	0.250000	-0.144983
H151	H	1.520656	0.500000	0.105017
H152	H	1.770656	0.750000	0.355017
