data_functionalizedCrystal
_audit_creation_method	'MofGen! by Chris Wilmer'
_symmetry_space_group_name_H-M	'P1'
_symmetry_Int_Tables_number	1
_symmetry_cell_setting	triclinic
loop_
_symmetry_equiv_pos_as_xyz
  x,y,z
_cell_length_a	14.971506
_cell_length_b	19.188930
_cell_length_c	13.448316
_cell_angle_alpha	89.988273
_cell_angle_beta	89.992937
_cell_angle_gamma	83.383585
loop_
_atom_site_label
_atom_site_type_symbol
_atom_site_fract_x
_atom_site_fract_y
_atom_site_fract_z
O1	O	1.186455	0.091055	-0.082710
O2	O	0.926000	0.101936	-0.082712
O3	O	1.063744	-0.005135	-0.082692
O4	O	1.048711	0.198127	-0.082731
O5	O	1.063727	-0.005142	0.082692
O6	O	0.925983	0.101930	0.082672
O7	O	1.186438	0.091049	0.082673
Cu8	Cu	1.056209	0.096489	0.097773
Cu9	Cu	1.056229	0.096496	-0.097812
O10	O	1.048694	0.198120	0.082653
C11	C	0.892670	0.101444	-0.000020
C12	C	0.793381	0.099978	-0.000020
C13	C	0.354796	0.157287	-0.000041
C14	C	0.448089	0.158659	-0.000046
C15	C	0.505641	0.095750	-0.000029
C16	C	0.469896	0.031465	-0.000018
C17	C	0.376605	0.030094	-0.000021
C18	C	0.664344	0.034327	-0.000011
C19	C	0.757642	0.035698	-0.000006
C20	C	0.735828	0.162892	-0.000036
C21	C	0.642537	0.161521	-0.000038
C22	C	0.606798	0.097236	-0.000025
C23	C	1.063248	-0.031151	0.000003
C24	C	1.061787	-0.108660	0.000011
C25	C	1.142611	-0.153320	0.000017
C26	C	1.141238	-0.226148	0.000001
C27	C	1.059037	-0.254314	-0.000000
C28	C	0.978203	-0.209645	-0.000011
C29	C	0.979578	-0.136818	-0.000005
N30	N	0.996198	-0.362527	0.056282
N31	N	0.994897	-0.431710	0.056279
C32	C	1.054888	-0.473736	-0.000021
N33	N	1.116243	-0.443967	-0.056304
N34	N	1.117547	-0.374778	-0.056296
C35	C	1.057537	-0.333281	-0.000008
C36	C	1.134229	-0.597365	-0.000034
C37	C	1.132853	-0.670194	-0.000056
C38	C	0.969815	-0.653689	-0.000058
C39	C	0.971194	-0.580861	-0.000046
C40	C	1.053403	-0.552704	-0.000029
C41	C	1.219768	0.091541	-0.000021
C42	C	1.319057	0.093007	-0.000027
C43	C	1.049190	0.224136	-0.000044
C44	C	1.050651	0.301645	-0.000059
N45	N	1.056201	0.096483	0.235338
N46	N	1.056244	0.096497	-0.235377
C47	C	1.117213	0.049091	0.287387
C48	C	1.117218	0.049090	0.391490
C49	C	1.056216	0.096485	0.443542
C50	C	0.995198	0.143879	0.391486
C51	C	0.995188	0.143876	0.287384
C52	C	0.995222	0.143884	0.608466
C53	C	0.995232	0.143889	0.712574
C54	C	1.117252	0.049098	0.712572
C55	C	1.117243	0.049095	0.608470
C56	C	1.056226	0.096490	0.556421
H57	H	0.347508	-0.022249	-0.000012
H58	H	1.166898	0.010500	0.433868
O59	O	1.219836	-0.269441	0.000053
C60	C	1.292689	-0.228971	0.000040
H61	H	1.269770	-0.174642	0.031350
H62	H	1.349292	-0.255794	0.048062
H63	H	1.317916	-0.223753	-0.079299
H64	H	0.477183	0.211001	-0.000066
O65	O	0.892740	-0.537403	0.000092
C66	C	0.888639	-0.494811	0.085761
H67	H	0.959617	-0.491071	0.114320
H68	H	0.855111	-0.440103	0.066500
H69	H	0.847874	-0.518815	0.145735
H70	H	0.804499	-0.015528	-0.000001
H71	H	0.902886	-0.676621	-0.000064
H72	H	0.635250	-0.018020	-0.000005
O73	O	0.525892	-0.029598	-0.000136
C74	C	0.580506	-0.032617	-0.085798
H75	H	0.585018	0.022805	-0.114367
H76	H	0.650721	-0.058567	-0.066522
H77	H	0.549944	-0.064530	-0.145770
H78	H	0.307942	0.208515	-0.000047
H79	H	0.595679	0.212747	-0.000045
O80	O	0.770688	0.225279	-0.000121
C81	C	0.865370	0.213003	-0.000109
H82	H	0.887483	0.158530	-0.031388
H83	H	0.893858	0.254131	-0.048157
H84	H	0.891330	0.216421	0.079227
H85	H	1.209552	-0.130399	0.000027
O86	O	0.898409	-0.237085	-0.000144
C87	C	0.892737	-0.278690	-0.085811
H88	H	0.963310	-0.296759	-0.114364
H89	H	0.857269	-0.326413	-0.066551
H90	H	0.853048	-0.246543	-0.145790
H91	H	1.166892	0.010499	0.245013
H92	H	1.166934	0.010508	0.754956
O93	O	0.900979	-0.093532	0.000039
C94	C	0.828129	-0.134004	0.000003
H95	H	0.851040	-0.188343	0.031306
H96	H	0.771509	-0.107200	0.048020
H97	H	0.802928	-0.139195	-0.079342
H98	H	1.166920	0.010506	0.566090
O99	O	1.214161	-0.570123	-0.000079
C100	C	1.285207	-0.625162	-0.000068
H101	H	1.260329	-0.674650	-0.031380
H102	H	1.342615	-0.609881	-0.048087
H103	H	1.310125	-0.635459	0.079272
O104	O	0.935877	0.189944	0.762985
C105	C	0.882024	0.231779	0.694725
H106	H	0.881132	0.203154	0.620524
H107	H	0.810556	0.242316	0.724819
H108	H	0.910835	0.283695	0.683636
O109	O	0.935972	0.190014	0.441933
C110	C	0.950243	0.259150	0.416482
H111	H	0.984714	0.259108	0.340891
H112	H	0.882874	0.293440	0.412921
H113	H	0.994677	0.280807	0.475054
H114	H	1.198672	-0.706555	-0.000057
O115	O	0.936046	0.189943	0.236710
C116	C	0.983766	0.233093	0.176482
H117	H	1.053863	0.205380	0.160880
H118	H	0.946383	0.244083	0.103284
H119	H	0.989639	0.284706	0.216580
H120	H	0.945533	0.182476	0.566090
