data_functionalizedCrystal
_audit_creation_method	'MofGen! by Chris Wilmer'
_symmetry_space_group_name_H-M	'P1'
_symmetry_Int_Tables_number	1
_symmetry_cell_setting	triclinic
loop_
_symmetry_equiv_pos_as_xyz
  x,y,z
_cell_length_a	11.792241
_cell_length_b	10.268362
_cell_length_c	12.837942
_cell_angle_alpha	89.995347
_cell_angle_beta	90.488822
_cell_angle_gamma	90.000374
loop_
_atom_site_label
_atom_site_type_symbol
_atom_site_fract_x
_atom_site_fract_y
_atom_site_fract_z
O1	O	1.521327	0.108172	-0.142169
O2	O	1.192472	0.108202	-0.156821
O3	O	1.349608	0.108180	0.001449
O4	O	1.364192	0.108194	-0.300439
O5	O	1.349592	-0.108421	0.001455
O6	O	1.192456	-0.108399	-0.156814
O7	O	1.521311	-0.108429	-0.142162
Cu8	Cu	1.356882	-0.128191	-0.149488
Cu9	Cu	1.356901	0.127964	-0.149496
O10	O	1.364176	-0.108406	-0.300432
C11	C	1.150080	-0.000094	-0.155897
C12	C	1.023787	-0.000083	-0.153142
N13	N	1.356878	-0.308357	-0.149482
C14	C	0.792561	-0.000121	-0.148077
C15	C	0.921232	-0.000100	-0.150891
C16	C	1.356895	-0.574027	-0.149493
C17	C	1.356882	-0.426190	-0.149490
C18	C	1.563704	-0.000129	-0.143086
C19	C	1.689997	-0.000132	-0.145841
C20	C	1.344673	-0.000119	0.040100
C21	C	1.329979	-0.000116	0.155260
N22	N	1.356914	0.308130	-0.149493
C23	C	1.369111	-0.000104	-0.339084
C24	C	1.383804	-0.000099	-0.454243
C25	C	1.506625	-0.000105	0.395226
C26	C	1.492824	-0.000102	0.503429
C27	C	1.288578	-0.000096	0.479872
C28	C	1.302379	-0.000100	0.371669
C29	C	1.411406	-0.000106	0.329350
C30	C	1.425206	-0.000119	0.221144
C31	C	1.220960	-0.000104	0.197590
C32	C	1.207159	-0.000101	0.305793
H33	H	1.513981	-0.000129	0.186690
H34	H	1.595399	-0.000123	0.360769
H35	H	1.143426	-0.000116	0.143941
H36	H	1.199813	-0.000077	0.514348
O37	O	1.585441	-0.000161	0.567273
C38	C	1.789482	-0.000085	0.579215
C39	C	1.684687	-0.000051	0.506793
H40	H	1.869749	0.000033	0.530346
H41	H	1.788208	-0.090751	0.630450
H42	H	1.788063	0.090543	0.630475
H43	H	1.686038	-0.090617	0.455467
H44	H	1.686001	0.090676	0.455628
H45	H	1.118392	-0.000091	0.340265
