data_functionalizedCrystal
_audit_creation_method	'MofGen! by Chris Wilmer'
_symmetry_space_group_name_H-M	'P1'
_symmetry_Int_Tables_number	1
_symmetry_cell_setting	triclinic
loop_
_symmetry_equiv_pos_as_xyz
  x,y,z
_cell_length_a	27.732048
_cell_length_b	14.519709
_cell_length_c	13.596369
_cell_angle_alpha	90.006934
_cell_angle_beta	89.999836
_cell_angle_gamma	83.161400
loop_
_atom_site_label
_atom_site_type_symbol
_atom_site_fract_x
_atom_site_fract_y
_atom_site_fract_z
O1	O	-0.641452	-0.109733	-0.081667
O2	O	-0.141452	0.390267	0.418333
O3	O	-0.500738	-0.126418	-0.081697
O4	O	-0.000738	0.373582	0.418303
O5	O	-0.574826	0.016228	-0.081672
O6	O	-0.074826	0.516228	0.418328
O7	O	-0.567364	-0.252379	-0.081692
O8	O	-0.067364	0.247621	0.418308
O9	O	-0.574819	0.016236	0.081911
O10	O	-0.074819	0.516236	0.581911
O11	O	-0.500731	-0.126410	0.081886
O12	O	-0.000731	0.373590	0.581886
O13	O	-0.641445	-0.109725	0.081916
O14	O	-0.141445	0.390275	0.581916
Zn15	Zn	-0.571087	-0.118067	0.107873
Zn16	Zn	-0.071087	0.381933	0.607873
Zn17	Zn	-0.571096	-0.118076	-0.107654
Zn18	Zn	-0.071096	0.381924	0.392346
O19	O	-0.567357	-0.252371	0.081891
O20	O	-0.067357	0.247629	0.581891
C21	C	-0.482726	-0.126064	0.000091
C22	C	0.017274	0.373936	0.500091
C23	C	-0.429066	-0.125009	0.000080
C24	C	0.070934	0.374991	0.500080
C25	C	-0.659457	-0.110079	0.000126
C26	C	-0.159457	0.389921	0.500126
C27	C	-0.713117	-0.111134	0.000131
C28	C	-0.213117	0.388866	0.500131
C29	C	-0.090622	-0.202664	0.000117
C30	C	0.409378	0.297336	0.500117
C31	C	0.111056	-0.198751	0.000126
C32	C	0.611056	0.301249	0.500126
O33	O	0.141972	-0.269761	0.000163
O34	O	0.641972	0.230239	0.500163
N35	N	0.130584	-0.114168	0.000130
N36	N	0.630584	0.385832	0.500130
C37	C	0.099689	-0.030557	0.000139
C38	C	0.599689	0.469443	0.500139
O39	O	0.120926	0.041476	0.000153
O40	O	0.620926	0.541476	0.500153
C41	C	-0.101988	-0.034471	0.000137
C42	C	0.398012	0.465529	0.500137
C43	C	-0.121513	-0.119060	0.000122
C44	C	0.378487	0.380940	0.500122
C45	C	-0.110148	-0.287246	0.000103
C46	C	0.389852	0.212754	0.500103
C47	C	-0.160564	-0.288223	0.000096
C48	C	0.339436	0.211777	0.500096
C49	C	-0.191455	-0.204619	0.000101
C50	C	0.308545	0.295381	0.500101
C51	C	-0.171930	-0.120037	0.000115
C52	C	0.328070	0.379963	0.500115
C53	C	-0.132882	0.049139	0.000152
C54	C	0.367118	0.549139	0.500152
C55	C	-0.183304	0.048153	0.000154
C56	C	0.316696	0.548153	0.500154
C57	C	-0.202829	-0.036436	0.000140
C58	C	0.297171	0.463564	0.500140
C59	C	-0.253238	-0.037410	0.000113
C60	C	0.246762	0.462590	0.500113
N61	N	-0.272766	-0.121993	0.000108
N62	N	0.227234	0.378007	0.500108
C63	C	-0.241875	-0.205597	0.000103
C64	C	0.258125	0.294403	0.500103
C65	C	0.205573	-0.028508	0.000138
C66	C	0.705573	0.471492	0.500138
C67	C	0.255992	-0.027530	0.000136
C68	C	0.755992	0.472470	0.500136
C69	C	0.267356	-0.195724	0.000125
C70	C	0.767356	0.304276	0.500125
C71	C	0.216936	-0.196702	0.000120
C72	C	0.716936	0.303298	0.500120
C73	C	0.186045	-0.113091	0.000133
C74	C	0.686045	0.386909	0.500133
C75	C	-0.347754	-0.207643	0.000086
C76	C	0.152246	0.292357	0.500086
C77	C	-0.398175	-0.208613	0.000074
C78	C	0.101825	0.291387	0.500074
C79	C	-0.409534	-0.040420	0.000090
C80	C	0.090466	0.459580	0.500090
C81	C	-0.359117	-0.039449	0.000097
C82	C	0.140883	0.460551	0.500097
C83	C	-0.328227	-0.123069	0.000098
C84	C	0.171773	0.376931	0.500098
O85	O	-0.284182	0.033562	0.000086
O86	O	0.215818	0.533562	0.500086
O87	O	-0.263121	-0.277620	0.000110
O88	O	0.236879	0.222380	0.500110
C89	C	-0.040206	-0.201687	0.000124
C90	C	0.459794	0.298313	0.500124
C91	C	-0.020680	-0.117105	0.000137
C92	C	0.479320	0.382895	0.500137
C93	C	-0.051571	-0.033501	0.000143
C94	C	0.448429	0.466499	0.500143
C95	C	0.029739	-0.116126	0.000136
C96	C	0.529739	0.383874	0.500136
C97	C	0.060630	-0.199731	0.000131
C98	C	0.560630	0.300269	0.500131
C99	C	0.041102	-0.284314	0.000126
C100	C	0.541102	0.215686	0.500126
C101	C	-0.009315	-0.285291	0.000119
C102	C	0.490685	0.214709	0.500119
C103	C	-0.032043	0.051082	0.000147
C104	C	0.467957	0.551082	0.500147
C105	C	0.018374	0.052053	0.000154
C106	C	0.518374	0.552053	0.500154
C107	C	0.049265	-0.031552	0.000148
C108	C	0.549265	0.468448	0.500148
C109	C	-0.574475	0.050586	0.000119
C110	C	-0.074475	0.550586	0.500119
C111	C	-0.573433	0.152949	0.000120
C112	C	-0.073433	0.652949	0.500120
C113	C	-0.567708	-0.286729	0.000098
C114	C	-0.067708	0.213271	0.500098
C115	C	-0.568751	-0.389092	0.000091
C116	C	-0.068751	0.110908	0.500091
N117	N	-0.571084	-0.118059	0.254965
N118	N	-0.071084	0.381941	0.754965
C119	C	-0.569596	0.527778	0.000093
C120	C	-0.069596	1.027778	0.500093
C121	C	-0.570662	0.423488	0.000101
C122	C	-0.070662	0.923488	0.500101
C123	C	-0.571514	0.340367	0.000107
C124	C	-0.071514	0.840367	0.500107
C125	C	-0.572580	0.236071	0.000113
C126	C	-0.072580	0.736071	0.500113
N127	N	-0.571103	-0.118076	-0.254746
N128	N	-0.071103	0.381924	0.245254
C129	C	-0.571096	-0.118077	0.656256
C130	C	-0.071096	0.381923	1.156256
C131	C	-0.571091	-0.118075	0.544605
C132	C	-0.071091	0.381925	1.044605
C133	C	-0.571090	-0.118069	0.455614
C134	C	-0.071090	0.381931	0.955614
C135	C	-0.571085	-0.118066	0.343956
C136	C	-0.071085	0.381934	0.843956
H137	H	-0.414069	-0.277498	0.000062
H138	H	0.085931	0.222502	0.500062
H139	H	-0.025207	-0.354171	0.000108
H140	H	0.474793	0.145829	0.500108
F141	F	0.039148	0.142090	0.000157
F142	F	0.539148	0.642090	0.500157
H143	H	-0.322609	-0.275734	0.000090
H144	H	0.177391	0.224266	0.500090
F145	F	-0.216178	0.137145	0.000171
F146	F	0.283822	0.637145	0.500171
H147	H	-0.343219	0.029430	0.000094
H148	H	0.156781	0.529430	0.500094
F149	F	-0.064914	0.140071	0.000155
F150	F	0.435086	0.640071	0.500155
H151	H	-0.176457	-0.357103	0.000084
H152	H	0.323543	0.142897	0.500084
F153	F	0.196160	-0.286731	0.000106
F154	F	0.696160	0.213269	0.500106
F155	F	0.073987	-0.373291	0.000115
F156	F	0.573987	0.126709	0.500115
F157	F	-0.077278	-0.376237	0.000097
F158	F	0.422722	0.123763	0.500097
F159	F	0.300241	-0.284702	0.000121
F160	F	0.800241	0.215298	0.500121
H161	H	0.271885	0.041351	0.000133
H162	H	0.771885	0.541351	0.500133
F163	F	-0.112114	0.139171	0.000153
F164	F	0.387886	0.639171	0.500153
F165	F	0.172702	0.060487	0.000151
F166	F	0.672702	0.560487	0.500151
F167	F	-0.442419	0.048553	0.000098
F168	F	0.057581	0.548553	0.500098
