data_functionalizedCrystal
_audit_creation_method	'MofGen! by Chris Wilmer'
_symmetry_space_group_name_H-M	'P1'
_symmetry_Int_Tables_number	1
_symmetry_cell_setting	triclinic
loop_
_symmetry_equiv_pos_as_xyz
  x,y,z
_cell_length_a	10.654550
_cell_length_b	15.995350
_cell_length_c	9.130313
_cell_angle_alpha	89.997713
_cell_angle_beta	89.999724
_cell_angle_gamma	83.988653
loop_
_atom_site_label
_atom_site_type_symbol
_atom_site_fract_x
_atom_site_fract_y
_atom_site_fract_z
O1	O	1.666303	0.117603	-0.121682
O2	O	1.300678	0.128807	-0.121708
O3	O	1.493485	0.001375	-0.121693
O4	O	1.473496	0.245034	-0.121697
O5	O	1.493472	0.001371	0.121906
O6	O	1.300665	0.128803	0.121891
O7	O	1.666290	0.117599	0.121917
Cu8	Cu	1.483476	0.123201	0.144146
Cu9	Cu	1.483492	0.123205	-0.143938
O10	O	1.473483	0.245031	0.121902
C11	C	1.253884	0.127982	0.000088
C12	C	1.114473	0.125521	0.000078
C13	C	1.034008	0.200551	0.000080
C14	C	0.903017	0.198233	0.000106
C15	C	0.932971	0.045849	0.000120
C16	C	1.063959	0.048168	0.000105
C17	C	1.492652	-0.029826	0.000103
C18	C	1.490175	-0.122791	0.000095
C19	C	1.481277	-0.460590	0.000099
C20	C	1.343964	-0.413954	-0.000457
C21	C	1.346442	-0.317249	0.000092
C22	C	1.485691	-0.293004	0.000096
C23	C	1.553411	-0.333690	0.139205
C24	C	1.549962	-0.430346	0.139322
C25	C	1.552813	-0.430684	-0.137696
C26	C	1.552781	-0.333738	-0.139534
C27	C	1.488192	-0.198292	0.000100
C28	C	1.478780	-0.555303	0.000106
C29	C	1.713084	0.118423	0.000118
C30	C	1.852495	0.120885	0.000118
C31	C	1.474316	0.276232	0.000102
C32	C	1.476793	0.369197	0.000101
N33	N	1.483475	0.123197	0.346769
N34	N	1.483504	0.123202	-0.346560
C35	C	1.568878	0.066794	0.423427
C36	C	1.568890	0.066794	0.576764
C37	C	1.398091	0.179608	0.576770
C38	C	1.398074	0.179603	0.423436
H39	H	1.129478	-0.012934	0.000106
O40	O	1.278966	-0.437761	0.117996
C41	C	1.357028	-0.496430	0.201340
H42	H	1.460210	-0.488625	0.177685
H43	H	1.336926	-0.562856	0.170904
C44	C	1.203342	-0.490916	0.394502
C45	C	1.330072	-0.481325	0.365457
H46	H	1.186712	-0.481602	0.495737
H47	H	1.150747	-0.451392	0.338350
H48	H	1.186606	-0.546271	0.369128
H49	H	1.346803	-0.425967	0.390813
H50	H	1.382669	-0.520839	0.421618
O51	O	1.673913	-0.314720	-0.149864
C52	C	1.730387	-0.352487	-0.276507
H53	H	1.653895	-0.365033	-0.358528
H54	H	1.787155	-0.414381	-0.245684
C55	C	1.912672	-0.277779	-0.244949
C56	C	1.818723	-0.293181	-0.345693
H57	H	1.967166	-0.241198	-0.287623
H58	H	1.874627	-0.252336	-0.159623
H59	H	1.959965	-0.329361	-0.219271
H60	H	1.771423	-0.241600	-0.371355
H61	H	1.856762	-0.318613	-0.431025
H62	H	1.654054	-0.461856	-0.138627
H63	H	1.328522	0.225533	0.361017
H64	H	0.891826	-0.017129	0.000150
O65	O	1.082870	0.275760	0.000132
C66	C	0.983753	0.341485	0.000105
H67	H	0.894776	0.317494	0.046236
H68	H	0.965206	0.364667	-0.116760
C69	C	1.130014	0.443839	0.038971
C70	C	1.020734	0.414375	0.095640
H71	H	1.152826	0.488803	0.097895
H72	H	1.196792	0.399560	0.038983
H73	H	1.114544	0.463152	-0.058416
H74	H	1.036210	0.395053	0.193018
H75	H	0.953959	0.458653	0.095647
H76	H	0.837506	0.259330	0.000111
O77	O	1.675411	-0.316021	0.145208
C78	C	1.701437	-0.266517	0.023339
H79	H	1.609584	-0.232545	-0.020187
H80	H	1.748361	-0.308614	-0.066098
C81	C	1.903372	-0.243191	0.123283
C82	C	1.790557	-0.201460	0.069832
H83	H	1.958350	-0.203063	0.151959
H84	H	1.885841	-0.276546	0.205387
H85	H	1.942460	-0.278270	0.048744
H86	H	1.751464	-0.166391	0.144377
H87	H	1.808084	-0.168098	-0.012258
H88	H	1.293209	-0.289135	-0.099627
O89	O	1.282339	-0.284462	0.119206
C90	C	1.156403	-0.303911	0.112910
H91	H	1.150906	-0.361705	0.041076
H92	H	1.094160	-0.248415	0.064515
C93	C	1.117092	-0.251069	0.356670
C94	C	1.110344	-0.322057	0.268452
H95	H	1.088677	-0.262258	0.452616
H96	H	1.201936	-0.237962	0.360911
H97	H	1.065224	-0.204828	0.316324
H98	H	1.162224	-0.368293	0.308789
H99	H	1.025507	-0.335171	0.264222
O100	O	1.491227	-0.452590	0.263460
C101	C	1.574650	-0.508475	0.345807
H102	H	1.676121	-0.499716	0.314945
H103	H	1.555605	-0.575914	0.321552
C104	C	1.429808	-0.501013	0.548116
C105	C	1.554436	-0.490250	0.510220
H106	H	1.417336	-0.489775	0.649534
H107	H	1.373601	-0.463365	0.492636
H108	H	1.413952	-0.557213	0.527892
H109	H	1.570285	-0.434049	0.530427
H110	H	1.610645	-0.527889	0.565707
H111	H	1.506365	-0.305584	0.242723
H112	H	1.289086	-0.432803	-0.100215
H113	H	1.507924	-0.451482	-0.243132
H114	H	1.328561	0.225533	0.639208
H115	H	1.650775	-0.462009	0.145636
O116	O	1.493687	-0.301401	-0.262167
C117	C	1.392072	-0.242234	-0.221969
H118	H	1.409242	-0.217312	-0.107523
H119	H	1.300831	-0.273640	-0.222480
C120	C	1.360042	-0.199457	-0.472529
C121	C	1.381136	-0.168841	-0.331970
H122	H	1.353291	-0.154186	-0.540385
H123	H	1.428499	-0.239320	-0.499614
H124	H	1.284009	-0.225628	-0.472935
H125	H	1.457175	-0.142680	-0.331562
H126	H	1.312691	-0.128972	-0.304888
H127	H	1.638415	0.020864	0.361008
H128	H	1.638432	0.020865	0.639175
