data_functionalizedCrystal
_audit_creation_method	'MofGen! by Chris Wilmer'
_symmetry_space_group_name_H-M	'P1'
_symmetry_Int_Tables_number	1
_symmetry_cell_setting	triclinic
loop_
_symmetry_equiv_pos_as_xyz
  x,y,z
_cell_length_a	14.853567
_cell_length_b	15.944551
_cell_length_c	13.330367
_cell_angle_alpha	89.994404
_cell_angle_beta	89.995418
_cell_angle_gamma	83.566834
loop_
_atom_site_label
_atom_site_type_symbol
_atom_site_fract_x
_atom_site_fract_y
_atom_site_fract_z
O1	O	1.196228	0.109665	-0.083357
O2	O	0.933752	0.122728	-0.083374
O3	O	1.072158	-0.006070	-0.083356
O4	O	1.057822	0.238463	-0.083375
O5	O	1.072137	-0.006073	0.083491
O6	O	0.933732	0.122725	0.083473
O7	O	1.196208	0.109662	0.083491
Cu8	Cu	1.064968	0.116193	0.098716
Cu9	Cu	1.064992	0.116197	-0.098600
O10	O	1.057802	0.238460	0.083472
C11	C	0.900154	0.122135	0.000047
C12	C	0.800072	0.120361	0.000041
C13	C	1.071552	-0.037367	0.000068
C14	C	1.069768	-0.130615	0.000068
C15	C	0.387646	0.036354	0.000070
C16	C	0.366169	0.189369	0.000057
C17	C	0.460201	0.191037	0.000054
C18	C	0.517960	0.115362	0.000057
C19	C	0.481687	0.038019	0.000064
C20	C	0.496480	0.268379	0.000037
C21	C	0.590517	0.270050	0.000033
C22	C	0.648278	0.194374	0.000043
C23	C	0.612000	0.117028	0.000051
C24	C	0.669759	0.041353	0.000054
C25	C	0.633483	-0.035994	0.000069
C26	C	0.539448	-0.037657	0.000074
C27	C	0.742313	0.196036	0.000038
C28	C	0.763800	0.043018	0.000048
C29	C	0.979713	-0.345572	0.000049
C30	C	1.021522	-0.406544	0.082317
C31	C	1.066541	-0.301344	0.000060
C32	C	1.021562	-0.406524	-0.082181
C33	C	1.063416	-0.466260	0.000048
C34	C	1.108373	-0.361088	0.082397
C35	C	1.108401	-0.361062	-0.082175
C36	C	1.150273	-0.422017	0.000113
C37	C	1.068338	-0.206340	0.000068
C38	C	1.061626	-0.561263	0.000048
C39	C	1.229806	0.110255	0.000067
C40	C	1.329887	0.112029	0.000067
C41	C	1.058407	0.269756	0.000046
C42	C	1.060191	0.363004	0.000039
N43	N	1.064958	0.116190	0.237498
N44	N	1.065009	0.116193	-0.237381
C45	C	1.003703	0.173206	0.710113
C46	C	1.126305	0.059180	0.710097
C47	C	1.126295	0.059178	0.605078
C48	C	1.064989	0.116191	0.552572
C49	C	1.003693	0.173207	0.605085
C50	C	1.187595	0.002169	0.552558
C51	C	1.187588	0.002164	0.447534
C52	C	1.126277	0.059174	0.395026
C53	C	1.064978	0.116192	0.447544
C54	C	1.003672	0.173205	0.395038
C55	C	0.942368	0.230220	0.447555
C56	C	0.942382	0.230217	0.552577
C57	C	1.126264	0.059177	0.290004
C58	C	1.003662	0.173206	0.290010
H59	H	0.810822	-0.018607	0.000054
C60	C	0.847639	0.222254	0.742467
C61	C	0.936318	0.235870	0.767837
H62	H	0.806040	0.260937	0.778110
H63	H	0.838869	0.230420	0.672414
H64	H	0.837866	0.166173	0.759688
H65	H	0.946093	0.291950	0.750609
H66	H	0.945092	0.227712	0.837905
H67	H	0.680523	-0.097609	0.000065
C68	C	0.836528	-0.324622	-0.085129
C69	C	0.882422	-0.300716	0.000147
H70	H	0.776465	-0.296934	-0.085060
H71	H	0.867241	-0.309158	-0.143630
H72	H	0.834743	-0.383989	-0.084522
H73	H	0.884213	-0.241349	-0.000464
H74	H	0.851701	-0.316174	0.058663
H75	H	0.984789	-0.426694	0.151864
C76	C	1.159074	-0.246369	0.175574
C77	C	1.157892	-0.334055	0.176398
H78	H	1.189637	-0.229680	0.233610
H79	H	1.189717	-0.230445	0.117238
H80	H	1.098664	-0.219514	0.175332
H81	H	1.218302	-0.360910	0.176633
H82	H	1.127251	-0.349988	0.234749
H83	H	1.237513	-0.044246	0.595312
H84	H	0.358106	-0.026620	0.000086
C85	C	1.292871	-0.443761	0.086388
C86	C	1.247646	-0.466682	0.000180
H87	H	1.352981	-0.471342	0.086433
H88	H	1.294523	-0.384384	0.086933
H89	H	1.261785	-0.460025	0.144263
H90	H	1.278727	-0.450412	-0.057696
H91	H	1.245999	-0.526072	-0.000374
H92	H	1.237504	-0.044260	0.404781
H93	H	0.892471	0.276637	0.595342
C94	C	1.179225	-0.086142	0.742442
C95	C	1.193681	-0.003491	0.767813
H96	H	1.220823	-0.124835	0.778075
H97	H	1.119064	-0.095351	0.759667
H98	H	1.187998	-0.094295	0.672379
H99	H	1.184901	0.004664	0.837876
H100	H	1.253856	0.005721	0.750595
H101	H	0.620045	0.333030	0.000020
H102	H	1.145102	-0.340890	-0.151725
H103	H	0.984835	-0.426641	-0.151738
H104	H	0.892456	0.276644	0.404792
C105	C	0.404836	-0.108149	0.000074
C106	C	0.499571	-0.122671	0.000079
H107	H	0.380218	-0.160633	0.000069
H108	H	0.385016	-0.076994	0.058253
H109	H	0.385028	-0.076981	-0.058114
H110	H	0.519380	-0.153833	0.058272
H111	H	0.519399	-0.153838	-0.058105
C112	C	0.212485	0.254753	0.000064
C113	C	0.302683	0.272548	0.000057
H114	H	0.173290	0.306108	0.000072
H115	H	0.201494	0.223055	-0.058116
H116	H	0.201496	0.223039	0.058252
H117	H	0.313674	0.304258	-0.058135
H118	H	0.313678	0.304260	0.058242
H119	H	0.449447	0.329989	0.000024
C120	C	0.711634	0.347117	0.000015
C121	C	0.782189	0.281047	0.000022
H122	H	0.736253	0.399601	0.000013
H123	H	0.675410	0.343283	-0.058163
H124	H	0.675399	0.343281	0.058204
H125	H	0.818421	0.284880	-0.058170
H126	H	0.818428	0.284883	0.058207
H127	H	0.953736	0.219631	0.247266
C128	C	1.247456	-0.053527	0.300543
C129	C	1.193641	-0.003487	0.232278
H130	H	1.289049	-0.092219	0.264903
H131	H	1.279884	-0.018503	0.341488
H132	H	1.209929	-0.083805	0.341522
H133	H	1.231168	0.026796	0.191303
H134	H	1.161210	-0.038515	0.191315
