data_functionalizedCrystal
_audit_creation_method	'MofGen! by Chris Wilmer'
_symmetry_space_group_name_H-M	'P1'
_symmetry_Int_Tables_number	1
_symmetry_cell_setting	triclinic
loop_
_symmetry_equiv_pos_as_xyz
  x,y,z
_cell_length_a	18.050589
_cell_length_b	18.101398
_cell_length_c	18.101389
_cell_angle_alpha	90.026909
_cell_angle_beta	89.985984
_cell_angle_gamma	89.979808
loop_
_atom_site_label
_atom_site_type_symbol
_atom_site_fract_x
_atom_site_fract_y
_atom_site_fract_z
Zn1	Zn	-0.295896	-1.132136	-0.418912
Zn2	Zn	-0.420071	-1.132038	-0.295080
Zn3	Zn	-0.295882	-1.008295	-0.295068
Zn4	Zn	-0.420032	-1.008252	-0.418863
O5	O	-0.357970	-1.070180	-0.356981
O6	O	-0.312391	-1.235756	-0.402512
O7	O	-0.403607	-1.115600	-0.191446
O8	O	-0.191959	-1.024782	-0.311512
O9	O	-0.403621	-1.235684	-0.311533
O10	O	-0.191970	-1.115767	-0.402499
O11	O	-0.312366	-1.024687	-0.191437
O12	O	-0.312328	-0.904656	-0.311464
O13	O	-0.403555	-1.024708	-0.522503
O14	O	-0.403540	-0.904625	-0.402416
O15	O	-0.312353	-1.115725	-0.522539
O16	O	-0.523990	-1.115558	-0.311485
O17	O	-0.523961	-1.024613	-0.402428
C18	C	-0.357929	-0.877770	-0.356934
C19	C	-0.357929	-0.795455	-0.356931
C20	C	-0.357958	-0.496364	-0.356980
C21	C	-0.300285	-0.527685	-0.300036
C22	C	-0.300444	-0.613303	-0.299797
C23	C	-0.357943	-0.644747	-0.356956
C24	C	-0.436169	-0.613633	-0.335636
C25	C	-0.435843	-0.527988	-0.335236
C26	C	-0.338088	-0.527978	-0.435379
C27	C	-0.336351	-0.613629	-0.434955
C28	C	-0.357939	-0.728606	-0.356943
C29	C	-0.357967	-0.412505	-0.356990
C30	C	-0.550922	-1.070091	-0.356969
C31	C	-0.633468	-1.070120	-0.356988
C32	C	-0.832930	-1.020713	-0.406426
C33	C	-0.882356	-1.002661	-0.338846
C34	C	-0.784598	-1.070193	-0.356998
C35	C	-0.882254	-1.088281	-0.424585
C36	C	-0.930583	-1.070262	-0.357013
C37	C	-0.832938	-1.052106	-0.289383
C38	C	-0.832830	-1.137757	-0.375167
C39	C	-0.882234	-1.119731	-0.307541
C40	C	-0.700500	-1.070151	-0.356990
C41	C	-1.014680	-1.070304	-0.357013
C42	C	-0.164264	-1.070290	-0.357010
C43	C	-0.081719	-1.070337	-0.357022
C44	C	-0.357951	-1.070223	-0.550143
C45	C	-0.357943	-1.070241	-0.632457
C46	C	-0.357997	-0.263342	-0.357018
C47	C	-0.357972	-0.345656	-0.357004
C48	C	-0.357804	-1.070284	-0.931548
C49	C	-0.415003	-1.012822	-0.900200
C50	C	-0.415269	-1.012977	-0.814582
C51	C	-0.357873	-1.070262	-0.783166
C52	C	-0.379128	-1.148289	-0.814277
C53	C	-0.379503	-1.147969	-0.899922
C54	C	-0.279223	-1.050399	-0.899966
C55	C	-0.279677	-1.048663	-0.814315
C56	C	-0.357911	-1.070255	-0.699306
C57	C	-0.357768	-1.070297	-1.015408
C58	C	-0.357935	-1.070180	-0.164571
C59	C	-0.357734	-1.070305	-0.082257
H60	H	-0.452696	-0.507977	-0.277922
H61	H	-0.903747	-1.161604	-0.265700
H62	H	-0.811365	-1.036768	-0.232215
H63	H	-0.811280	-0.978808	-0.448166
H64	H	-0.401838	-0.954788	-0.920783
H65	H	-0.313581	-0.633757	-0.241705
N66	N	-0.911166	-0.927017	-0.318481
H67	H	-0.893235	-0.889648	-0.355839
H68	H	-0.967111	-0.927788	-0.318152
N69	N	-0.387941	-0.641977	-0.494174
H70	H	-0.426214	-0.675541	-0.471177
H71	H	-0.413531	-0.598889	-0.518766
N72	N	-0.803992	-1.213383	-0.395541
H73	H	-0.821898	-1.226977	-0.446626
H74	H	-0.748047	-1.212856	-0.394863
N75	N	-0.253568	-0.976341	-0.928541
H76	H	-0.250592	-0.977895	-0.984239
H77	H	-0.289896	-0.936875	-0.912891
N78	N	-0.491694	-1.030050	-0.928692
H79	H	-0.489545	-1.074913	-0.961820
H80	H	-0.525771	-1.040274	-0.885636
N81	N	-0.455596	-1.170282	-0.926403
H82	H	-0.456603	-1.170295	-0.982191
H83	H	-0.467568	-1.221417	-0.907576
N84	N	-0.397625	-0.936337	-0.786728
H85	H	-0.436156	-0.900443	-0.805397
H86	H	-0.397744	-0.936346	-0.730933
H87	H	-0.380095	-0.507724	-0.477808
N88	N	-0.910956	-1.108513	-0.500284
H89	H	-0.893021	-1.071074	-0.537571
H90	H	-0.892162	-1.159170	-0.514323
H91	H	-0.282037	-0.506403	-0.454762
N92	N	-0.326730	-1.206611	-0.927401
H93	H	-0.303327	-1.232556	-0.883877
H94	H	-0.354789	-1.243656	-0.958348
N95	N	-0.492425	-1.030374	-0.787469
H96	H	-0.507948	-1.080548	-0.806349
H97	H	-0.492883	-1.030500	-0.731676
H98	H	-0.338776	-1.192253	-0.793929
N99	N	-0.454408	-1.171012	-0.785884
H100	H	-0.474852	-1.130883	-0.752878
H101	H	-0.489016	-1.178992	-0.828986
N102	N	-0.258436	-0.972606	-0.787378
H103	H	-0.299290	-0.952220	-0.755131
H104	H	-0.211067	-0.975856	-0.757872
H105	H	-0.234797	-1.087462	-0.792929
N106	N	-0.222764	-1.105828	-0.926818
H107	H	-0.237200	-1.156874	-0.909522
H108	H	-0.220902	-1.104915	-0.982574
N109	N	-0.223607	-0.641178	-0.317488
H110	H	-0.208187	-0.622740	-0.367848
H111	H	-0.187640	-0.622485	-0.279060
N112	N	-0.223207	-0.500427	-0.317524
H113	H	-0.224922	-0.467510	-0.362529
H114	H	-0.203376	-0.471547	-0.274070
H115	H	-0.313271	-0.506136	-0.242281
H116	H	-0.480269	-0.507268	-0.374903
H117	H	-0.453317	-0.635048	-0.278943
N118	N	-0.494617	-0.640580	-0.388871
H119	H	-0.470894	-0.673299	-0.427410
H120	H	-0.533362	-0.669591	-0.360984
N121	N	-0.260095	-0.640560	-0.456252
H122	H	-0.239616	-0.672786	-0.415552
H123	H	-0.263388	-0.670085	-0.503493
