data_functionalizedCrystal
_audit_creation_method	'MofGen! by Chris Wilmer'
_symmetry_space_group_name_H-M	'P1'
_symmetry_Int_Tables_number	1
_symmetry_cell_setting	triclinic
loop_
_symmetry_equiv_pos_as_xyz
  x,y,z
_cell_length_a	19.121102
_cell_length_b	18.050589
_cell_length_c	18.050582
_cell_angle_alpha	89.981795
_cell_angle_beta	87.546607
_cell_angle_gamma	87.582701
loop_
_atom_site_label
_atom_site_type_symbol
_atom_site_fract_x
_atom_site_fract_y
_atom_site_fract_z
Zn1	Zn	1.073672	-0.344221	-0.468310
Zn2	Zn	1.407005	-0.010887	-0.134977
Zn3	Zn	1.740339	0.322446	0.198357
Zn4	Zn	1.073587	-0.468400	-0.344126
Zn5	Zn	1.406921	-0.135067	-0.010792
Zn6	Zn	1.740254	0.198266	0.322541
Zn7	Zn	0.956231	-0.338926	-0.338843
Zn8	Zn	1.289565	-0.005592	-0.005510
Zn9	Zn	1.622898	0.327741	0.327824
Zn10	Zn	0.956182	-0.463065	-0.462984
Zn11	Zn	1.289515	-0.129731	-0.129651
Zn12	Zn	1.622849	0.203602	0.203682
O13	O	1.014918	-0.403653	-0.403566
O14	O	1.348251	-0.070319	-0.070232
O15	O	1.681585	0.263014	0.263101
O16	O	1.171944	-0.365142	-0.456277
O17	O	1.505278	-0.031809	-0.122943
O18	O	1.838611	0.301524	0.210390
O19	O	1.058005	-0.451242	-0.239500
O20	O	1.391338	-0.117909	0.093834
O21	O	1.724672	0.215425	0.427167
O22	O	0.971866	-0.235706	-0.356035
O23	O	1.305199	0.097627	-0.022701
O24	O	1.638533	0.430961	0.310632
O25	O	1.171882	-0.456376	-0.365039
O26	O	1.505216	-0.123043	-0.031705
O27	O	1.838549	0.210290	0.301628
O28	O	1.058149	-0.239596	-0.451154
O29	O	1.391482	0.093737	-0.117821
O30	O	1.724816	0.427070	0.215513
O31	O	0.971784	-0.356118	-0.235618
O32	O	1.305117	-0.022784	0.097715
O33	O	1.638451	0.310549	0.431048
O34	O	0.857941	-0.350944	-0.350871
O35	O	1.191274	-0.017611	-0.017537
O36	O	1.524608	0.315723	0.315796
O37	O	0.971782	-0.447283	-0.567616
O38	O	1.305115	-0.113949	-0.234283
O39	O	1.638449	0.219384	0.099050
O40	O	0.857905	-0.442148	-0.442077
O41	O	1.191238	-0.108815	-0.108744
O42	O	1.524571	0.224518	0.224590
O43	O	1.058101	-0.359969	-0.571529
O44	O	1.391435	-0.026635	-0.238196
O45	O	1.724768	0.306698	0.095138
O46	O	1.057957	-0.571614	-0.359875
O47	O	1.391291	-0.238281	-0.026541
O48	O	1.724624	0.095052	0.306792
O49	O	0.971700	-0.567694	-0.447200
O50	O	1.305034	-0.234361	-0.113866
O51	O	1.638367	0.098972	0.219467
C52	C	1.014833	-0.596601	-0.403550
C53	C	1.348167	-0.263268	-0.070216
C54	C	1.681500	0.070066	0.263117
C55	C	1.014861	-0.679148	-0.403570
C56	C	1.348195	-0.345815	-0.070237
C57	C	1.681528	-0.012482	0.263096
C58	C	0.832439	-0.395393	-0.395323
C59	C	1.165772	-0.062060	-0.061990
C60	C	1.499106	0.271273	0.271343
C61	C	0.754374	-0.391878	-0.391815
C62	C	1.087707	-0.058544	-0.058481
C63	C	1.421040	0.274789	0.274852
C64	C	0.968001	-0.876496	-0.451043
C65	C	1.301334	-0.543163	-0.117709
C66	C	1.634667	-0.209829	0.215624
C67	C	0.950885	-0.925157	-0.382504
C68	C	1.284219	-0.591823	-0.049171
C69	C	1.617552	-0.258490	0.284163
C70	C	1.014930	-0.830282	-0.403583
C71	C	1.348264	-0.496948	-0.070250
C72	C	1.681597	-0.163615	0.263083
C73	C	1.032080	-0.928704	-0.472131
C74	C	1.365414	-0.595371	-0.138798
C75	C	1.698747	-0.262038	0.194536
C76	C	1.014996	-0.976270	-0.403602
C77	C	1.348329	-0.642936	-0.070268
C78	C	1.681662	-0.309603	0.263065
C79	C	0.997781	-0.877853	-0.335007
C80	C	1.331114	-0.544520	-0.001674
C81	C	1.664448	-0.211187	0.331659
C82	C	1.079006	-0.881398	-0.424681
C83	C	1.412339	-0.548065	-0.091348
C84	C	1.745673	-0.214731	0.241985
C85	C	1.061915	-0.930037	-0.356097
C86	C	1.395248	-0.596704	-0.022764
C87	C	1.728582	-0.263371	0.310569
C88	C	1.014891	-0.746182	-0.403574
C89	C	1.348224	-0.412848	-0.070240
C90	C	1.681558	-0.079515	0.263093
C91	C	1.015035	-1.060368	-0.403604
C92	C	1.348369	-0.727035	-0.070270
C93	C	1.681702	-0.393701	0.263063
C94	C	0.717698	-0.437783	-0.437578
C95	C	1.051031	-0.104450	-0.104245
C96	C	1.384364	0.228884	0.229089
C97	C	0.644347	-0.434470	-0.434285
C98	C	0.977680	-0.101136	-0.100951
C99	C	1.311014	0.232197	0.232382
C100	C	0.607673	-0.385255	-0.385224
C101	C	0.941007	-0.051921	-0.051891
C102	C	1.274340	0.281412	0.281443
C103	C	0.644354	-0.339345	-0.339459
C104	C	0.977688	-0.006011	-0.006126
C105	C	1.311021	0.327322	0.327208
C106	C	0.717704	-0.342654	-0.342756
C107	C	1.051037	-0.009321	-0.009423
C108	C	1.384370	0.324012	0.323910
C109	C	0.386206	-0.372879	-0.372900
C110	C	0.719539	-0.039545	-0.039566
C111	C	1.052872	0.293788	0.293767
C112	C	0.312851	-0.369574	-0.369604
C113	C	0.646184	-0.036240	-0.036271
C114	C	0.979518	0.297093	0.297063
C115	C	0.312849	-0.464698	-0.464431
C116	C	0.646182	-0.131365	-0.131098
C117	C	0.979516	0.201968	0.202235
C118	C	0.386200	-0.468007	-0.467721
C119	C	0.719533	-0.134674	-0.134388
C120	C	1.052866	0.198660	0.198945
C121	C	0.422874	-0.422094	-0.421959
C122	C	0.756208	-0.088761	-0.088626
C123	C	1.089541	0.244573	0.244708
C124	C	0.532697	-0.381869	-0.381855
C125	C	0.866030	-0.048535	-0.048522
C126	C	1.199364	0.284798	0.284812
C127	C	0.497849	-0.425477	-0.425332
C128	C	0.831182	-0.092143	-0.091999
C129	C	1.164516	0.241190	0.241335
C130	C	1.198110	-0.411945	-0.411841
C131	C	1.531443	-0.078612	-0.078508
C132	C	1.864777	0.254721	0.254826
C133	C	1.276175	-0.415479	-0.415367
C134	C	1.609509	-0.082146	-0.082034
C135	C	1.942842	0.251188	0.251299
C136	C	1.014946	-0.403621	-0.597273
C137	C	1.348279	-0.070288	-0.263939
C138	C	1.681612	0.263046	0.069394
C139	C	1.014957	-0.403608	-0.679819
C140	C	1.348291	-0.070274	-0.346486
C141	C	1.681624	0.263059	-0.013152
C142	C	1.015022	-0.209952	-0.403599
C143	C	1.348356	0.123381	-0.070266
C144	C	1.681689	0.456715	0.263068
C145	C	1.015067	-0.127408	-0.403613
C146	C	1.348400	0.205925	-0.070280
C147	C	1.681733	0.539259	0.263053
C148	C	0.968053	-0.451023	-0.877144
C149	C	1.301386	-0.117690	-0.543810
C150	C	1.634720	0.215644	-0.210477
C151	C	1.032131	-0.472072	-0.929423
C152	C	1.365464	-0.138738	-0.596090
C153	C	1.698797	0.194595	-0.262757
C154	C	1.014992	-0.403553	-0.830951
C155	C	1.348325	-0.070219	-0.497618
C156	C	1.681659	0.263114	-0.164284
C157	C	0.950950	-0.382485	-0.925755
C158	C	1.284283	-0.049151	-0.592421
C159	C	1.617616	0.284182	-0.259088
C160	C	1.015020	-0.403500	-0.976938
C161	C	1.348353	-0.070167	-0.643604
C162	C	1.681687	0.263166	-0.310271
C163	C	1.079103	-0.424638	-0.882145
C164	C	1.412437	-0.091305	-0.548812
C165	C	1.745770	0.242028	-0.215478
C166	C	0.997879	-0.335018	-0.878470
C167	C	1.331212	-0.001684	-0.545137
C168	C	1.664546	0.331649	-0.211803
C169	C	1.062001	-0.356043	-0.930729
C170	C	1.395334	-0.022710	-0.597396
C171	C	1.728668	0.310624	-0.264063
C172	C	1.014975	-0.403584	-0.746852
C173	C	1.348308	-0.070251	-0.413519
C174	C	1.681642	0.263082	-0.080185
C175	C	1.015044	-0.403469	-1.061035
C176	C	1.348377	-0.070135	-0.727702
C177	C	1.681711	0.263198	-0.394369
C178	C	1.014931	-0.403633	-0.210614
C179	C	1.348265	-0.070299	0.122719
C180	C	1.681598	0.263034	0.456052
C181	C	1.015056	-0.403443	-0.128075
C182	C	1.348389	-0.070110	0.205259
C183	C	1.681722	0.263224	0.538592
H184	H	0.928256	-0.853053	-0.491115
H185	H	1.261589	-0.519720	-0.157782
H186	H	1.594922	-0.186387	0.175551
Cl187	Cl	0.763795	-0.499660	-0.499254
Cl188	Cl	1.097128	-0.166327	-0.165921
Cl189	Cl	1.430461	0.167007	0.167413
H190	H	0.928395	-0.491224	-0.853688
H191	H	1.261729	-0.157890	-0.520354
H192	H	1.595062	0.175443	-0.187021
H193	H	1.101754	-0.315879	-0.954054
H194	H	1.435087	0.017455	-0.620720
H195	H	1.768420	0.350788	-0.287387
H196	H	1.046560	-0.951014	-0.530094
H197	H	1.379893	-0.617681	-0.196761
H198	H	1.713227	-0.284348	0.136573
H199	H	0.282981	-0.502077	-0.501689
H200	H	0.616314	-0.168744	-0.168356
H201	H	0.949647	0.164590	0.164977
Cl202	Cl	1.054505	-0.561520	-0.963942
Cl203	Cl	1.387838	-0.228186	-0.630609
Cl204	Cl	1.721172	0.105147	-0.297275
H205	H	1.133291	-0.442501	-0.862985
H206	H	1.466624	-0.109168	-0.529652
H207	H	1.799957	0.224165	-0.196319
H208	H	0.983369	-0.277097	-0.856096
H209	H	1.316703	0.056236	-0.522763
H210	H	1.650036	0.389570	-0.189430
H211	H	0.896778	-0.364687	-0.945007
H212	H	1.230111	-0.031354	-0.611673
H213	H	1.563445	0.301979	-0.278340
H214	H	0.896729	-0.944490	-0.364675
H215	H	1.230062	-0.611156	-0.031341
H216	H	1.563396	-0.277823	0.301992
H217	H	0.614489	-0.471851	-0.471549
H218	H	0.947822	-0.138518	-0.138216
H219	H	1.281156	0.194815	0.195117
Cl220	Cl	0.486587	-0.320000	-0.320181
Cl221	Cl	0.819920	0.013333	0.013152
Cl222	Cl	1.153254	0.346667	0.346486
H223	H	0.983239	-0.855630	-0.277026
H224	H	1.316572	-0.522297	0.056307
H225	H	1.649906	-0.188963	0.389641
Cl226	Cl	1.123233	-0.966020	-0.294073
Cl227	Cl	1.456567	-0.632686	0.039260
Cl228	Cl	1.789900	-0.299353	0.372593
H229	H	0.416054	-0.508085	-0.507670
H230	H	0.749388	-0.174751	-0.174337
H231	H	1.082721	0.158582	0.158997
Cl232	Cl	1.162601	-0.851547	-0.452258
Cl233	Cl	1.495934	-0.518214	-0.118924
Cl234	Cl	1.829267	-0.184881	0.214409
H235	H	0.282993	-0.329488	-0.329658
H236	H	0.616327	0.003845	0.003676
H237	H	0.949660	0.337178	0.337009
H238	H	0.416057	-0.335499	-0.335631
H239	H	0.749390	-0.002165	-0.002298
H240	H	1.082724	0.331168	0.331036
H241	H	0.614489	-0.299269	-0.299516
H242	H	0.947822	0.034064	0.033817
H243	H	1.281155	0.367397	0.367151
H244	H	0.747564	-0.305270	-0.305495
H245	H	1.080897	0.028064	0.027839
H246	H	1.414231	0.361397	0.361172
Cl247	Cl	0.543954	-0.487345	-0.487006
Cl248	Cl	0.877288	-0.154011	-0.153673
Cl249	Cl	1.210621	0.179322	0.179660
