data_functionalizedCrystal
_audit_creation_method	'MofGen! by Chris Wilmer'
_symmetry_space_group_name_H-M	'P1'
_symmetry_Int_Tables_number	1
_symmetry_cell_setting	triclinic
loop_
_symmetry_equiv_pos_as_xyz
  x,y,z
_cell_length_a	21.395364
_cell_length_b	14.909028
_cell_length_c	14.908748
_cell_angle_alpha	96.780329
_cell_angle_beta	93.303344
_cell_angle_gamma	86.734253
loop_
_atom_site_label
_atom_site_type_symbol
_atom_site_fract_x
_atom_site_fract_y
_atom_site_fract_z
Zn1	Zn	0.990747	-0.330593	0.491054
Zn2	Zn	0.990703	-0.490651	0.330967
Zn3	Zn	0.880277	-0.339353	0.339702
Zn4	Zn	0.891670	-0.481948	0.482282
O5	O	0.938349	-0.410636	0.411001
O6	O	1.078418	-0.351801	0.469833
O7	O	0.971269	-0.477889	0.205458
O8	O	0.890181	-0.211530	0.367106
O9	O	1.078387	-0.469395	0.352218
O10	O	0.971342	-0.205094	0.478304
O11	O	0.890139	-0.366732	0.211876
O12	O	0.794111	-0.358293	0.358600
O13	O	0.909599	-0.454562	0.610113
O14	O	0.802481	-0.463057	0.463353
O15	O	0.982390	-0.343362	0.616557
O16	O	0.982316	-0.616157	0.343712
O17	O	0.909557	-0.609764	0.454883
C18	C	0.775562	-0.410682	0.410973
C19	C	0.705923	-0.410722	0.410981
C20	C	0.673256	-0.349580	0.472308
C21	C	0.607820	-0.349556	0.472313
C22	C	0.575054	-0.410689	0.411000
C23	C	0.607729	-0.471835	0.349662
C24	C	0.673163	-0.471851	0.349653
C25	C	0.474149	-0.492619	0.399027
C26	C	0.408716	-0.492604	0.399042
C27	C	0.373232	-0.410638	0.411023
C28	C	0.403191	-0.328684	0.423007
C29	C	0.468625	-0.328700	0.422998
C30	C	0.504101	-0.410677	0.411002
C31	C	0.269612	-0.349465	0.472358
C32	C	0.204174	-0.349440	0.472356
C33	C	0.204085	-0.471726	0.349710
C34	C	0.269521	-0.471744	0.349707
C35	C	0.302281	-0.410614	0.411036
C36	C	0.947186	-0.645801	0.397417
C37	C	0.951025	-0.746404	0.391636
C38	C	0.994345	-0.891495	0.325662
C39	C	0.990741	-0.796970	0.331090
C40	C	0.914908	-0.790370	0.446757
C41	C	0.918512	-0.884895	0.441329
C42	C	0.958233	-0.935454	0.380780
C43	C	0.961839	-1.029981	0.375357
C44	C	0.886003	-1.023380	0.491019
C45	C	0.882400	-0.928855	0.496447
C46	C	1.101772	-0.410591	0.411030
C47	C	1.171413	-0.410572	0.411042
C48	C	0.947270	-0.397014	0.647097
C49	C	0.951072	-0.391210	0.747707
C50	C	0.929496	-0.174552	0.424658
C51	C	0.925723	-0.073947	0.430477
C52	C	0.994324	-0.325138	0.892868
C53	C	0.990755	-0.330589	0.798336
C54	C	0.914956	-0.446385	0.791615
C55	C	0.918525	-0.440935	0.886147
C56	C	0.958210	-0.380308	0.936770
C57	C	0.961775	-0.374854	1.031304
C58	C	0.885979	-0.490654	1.024581
C59	C	0.882411	-0.496104	0.930049
C60	C	0.929459	-0.424225	1.175823
C61	C	0.925659	-0.430029	1.075213
H62	H	0.581216	-0.299763	0.522251
H63	H	1.026630	-0.275765	0.934087
O64	O	0.850804	-0.544156	1.067199
C65	C	0.786743	-0.525744	1.045213
H66	H	0.779885	-0.454938	1.023404
H67	H	0.758431	-0.529960	1.106925
H68	H	0.770114	-0.577445	0.987534
H69	H	0.177577	-0.299646	0.522295
H70	H	0.374301	-0.261939	0.432763
H71	H	0.699925	-0.299803	0.522246
O72	O	1.025857	-0.276902	0.755834
C73	C	1.061659	-0.222243	0.820790
H74	H	1.038422	-0.215232	0.888351
H75	H	1.064637	-0.152501	0.797607
H76	H	1.110867	-0.254796	0.828936
H77	H	0.177408	-0.521502	0.299787
H78	H	0.994184	-1.071145	0.326059
H79	H	0.493014	-0.261970	0.432753
H80	H	0.994085	-0.325484	1.072521
H81	H	0.882565	-0.749193	0.496047
O82	O	0.704995	-0.531166	0.290117
C83	C	0.769775	-0.518091	0.303277
H84	H	0.777240	-0.446571	0.337067
H85	H	0.792301	-0.528046	0.235117
H86	H	0.792168	-0.569082	0.348287
H87	H	1.026693	-0.932660	0.276368
H88	H	0.384329	-0.559336	0.389288
O89	O	0.301340	-0.289997	0.531960
C90	C	0.258472	-0.236035	0.586102
H91	H	0.210305	-0.234964	0.549218
H92	H	0.275096	-0.164180	0.599996
H93	H	0.255351	-0.265326	0.652872
H94	H	0.503034	-0.559371	0.389270
H95	H	0.296119	-0.521536	0.299772
O96	O	0.876506	-0.505328	0.742314
C97	C	0.912330	-0.566926	0.684287
H98	H	0.958081	-0.535790	0.672018
H99	H	0.884774	-0.582894	0.617087
H100	H	0.923103	-0.631904	0.716831
O101	O	0.843951	-0.555043	0.880761
C102	C	0.879758	-0.616656	0.822725
H103	H	0.925510	-0.585535	0.810435
H104	H	0.852189	-0.632623	0.755536
H105	H	0.890530	-0.681632	0.855273
O106	O	0.575979	-0.531345	0.290142
C107	C	0.596066	-0.620457	0.304575
H108	H	0.644968	-0.620390	0.339247
H109	H	0.597333	-0.664715	0.236843
H110	H	0.562142	-0.648325	0.349304
O111	O	1.025885	-0.754408	0.277513
C112	C	1.061701	-0.819308	0.222893
H113	H	1.067819	-0.884530	0.256103
H114	H	1.109665	-0.792479	0.214873
H115	H	1.036581	-0.833394	0.153536
H116	H	0.856600	-1.059181	0.535903
O117	O	0.843912	-0.879689	0.555361
C118	C	0.879677	-0.821540	0.616995
H119	H	0.930317	-0.849624	0.621016
H120	H	0.859571	-0.816451	0.686689
H121	H	0.878063	-0.751526	0.593121
