data_functionalizedCrystal
_audit_creation_method	'MofGen! by Chris Wilmer'
_symmetry_space_group_name_H-M	'P1'
_symmetry_Int_Tables_number	1
_symmetry_cell_setting	triclinic
loop_
_symmetry_equiv_pos_as_xyz
  x,y,z
_cell_length_a	14.519709
_cell_length_b	10.967926
_cell_length_c	10.065875
_cell_angle_alpha	93.120479
_cell_angle_beta	81.188361
_cell_angle_gamma	95.794161
loop_
_atom_site_label
_atom_site_type_symbol
_atom_site_fract_x
_atom_site_fract_y
_atom_site_fract_z
O1	O	-0.160834	1.613232	0.265954
O2	O	0.339166	2.113232	0.765954
O3	O	-0.163468	1.263193	0.183625
O4	O	0.336532	1.763193	0.683625
O5	O	-0.028219	1.447495	0.226961
O6	O	0.471781	1.947495	0.726961
O7	O	-0.296083	1.428930	0.222619
O8	O	0.203917	1.928930	0.722619
O9	O	-0.054117	1.412352	0.445686
O10	O	0.445883	1.912352	0.945686
O11	O	-0.189366	1.228050	0.402351
O12	O	0.310634	1.728050	0.902351
O13	O	-0.186733	1.578088	0.484680
O14	O	0.313267	2.078088	0.984680
Zn15	Zn	-0.192162	1.397489	0.478242
Zn16	Zn	0.307838	1.897489	0.978242
Zn17	Zn	-0.158039	1.443792	0.190062
Zn18	Zn	0.341961	1.943792	0.690062
O19	O	-0.321982	1.393786	0.441344
O20	O	0.178018	1.893786	0.941344
C21	C	-0.174269	1.200824	0.282451
C22	C	0.325731	1.700824	0.782451
C23	C	-0.167856	1.067340	0.251055
C24	C	0.332144	1.567340	0.751055
C25	C	-0.178413	0.989623	0.350363
C26	C	0.321587	1.489623	0.850363
C27	C	-0.171785	0.851660	0.317916
C28	C	0.328215	1.351660	0.817916
C29	C	-0.343421	1.412223	0.332188
C30	C	0.156579	1.912223	0.832188
C31	C	-0.445890	1.414813	0.332807
C32	C	0.054110	1.914813	0.832807
C33	C	-0.821096	1.424365	0.334999
C34	C	-0.321096	1.924365	0.834999
C35	C	-0.716702	1.421712	0.334391
C36	C	-0.216702	1.921712	0.834391
C37	C	-0.633496	1.419589	0.333904
C38	C	-0.133496	1.919589	0.833904
C39	C	-0.529095	1.416937	0.333293
C40	C	-0.029095	1.916937	0.833293
C41	C	-0.006779	1.429059	0.336114
C42	C	0.493221	1.929059	0.836114
C43	C	0.095690	1.426470	0.335487
C44	C	0.595690	1.926470	0.835487
C45	C	-0.175932	1.640458	0.385851
C46	C	0.324068	2.140458	0.885851
C47	C	-0.182344	1.773944	0.417239
C48	C	0.317656	2.273944	0.917239
N49	N	-0.215449	1.365897	0.674920
N50	N	0.284551	1.865897	1.174920
N51	N	-0.134745	1.475394	-0.006613
N52	N	0.365255	1.975394	0.493387
C53	C	-0.166135	1.432793	0.758428
C54	C	0.333865	1.932793	1.258428
C55	C	-0.184065	1.408488	0.909880
C56	C	0.315935	1.908488	1.409880
H57	H	-0.153908	1.031738	0.142011
H58	H	0.346092	1.531738	0.642011
O59	O	-0.288968	1.266214	0.728742
O60	O	0.211032	1.766214	1.228742
H61	H	-0.358246	1.286173	0.706082
H62	H	0.141754	1.786173	1.206082
H63	H	-0.110638	1.508055	0.717800
H64	H	0.389362	2.008055	1.217800
H65	H	-0.196287	0.809538	0.526290
H66	H	0.303713	1.309538	1.026290
H67	H	-0.239559	1.333213	0.950502
H68	H	0.260441	1.833213	1.450502
O69	O	-0.061223	1.575092	0.939593
O70	O	0.438777	2.075092	1.439593
H71	H	-0.094558	1.643792	0.890640
H72	H	0.405442	2.143792	1.390640
O73	O	-0.196891	1.036760	0.494811
O74	O	0.303109	1.536760	0.994811
H75	H	-0.199206	1.137723	0.497628
H76	H	0.300794	1.637723	0.997628
O77	O	-0.153316	0.804527	0.173460
O78	O	0.346684	1.304527	0.673460
H79	H	-0.151016	0.703561	0.170642
H80	H	0.348984	1.203561	0.670642
