data_functionalizedCrystal
_audit_creation_method	'MofGen! by Chris Wilmer'
_symmetry_space_group_name_H-M	'P1'
_symmetry_Int_Tables_number	1
_symmetry_cell_setting	triclinic
loop_
_symmetry_equiv_pos_as_xyz
  x,y,z
_cell_length_a	15.297327
_cell_length_b	10.685972
_cell_length_c	10.686551
_cell_angle_alpha	98.409768
_cell_angle_beta	96.042164
_cell_angle_gamma	75.263885
loop_
_atom_site_label
_atom_site_type_symbol
_atom_site_fract_x
_atom_site_fract_y
_atom_site_fract_z
Zn1	Zn	-0.202254	-1.950265	-0.912172
Zn2	Zn	-0.365688	-1.897053	-0.736611
Zn3	Zn	-0.227358	-1.716040	-0.689269
Zn4	Zn	-0.365596	-1.701197	-0.932496
O5	O	-0.290224	-1.816139	-0.817637
O6	O	-0.213466	-2.123196	-0.900191
O7	O	-0.357883	-1.856984	-0.555067
O8	O	-0.097777	-1.775592	-0.690519
O9	O	-0.333541	-2.084102	-0.771207
O10	O	-0.079333	-1.947675	-0.854285
O11	O	-0.256253	-1.723995	-0.520284
O12	O	-0.256163	-1.534081	-0.710226
O13	O	-0.333384	-1.750294	-1.105064
O14	O	-0.357726	-1.523176	-0.888924
O15	O	-0.213377	-1.933282	-1.090132
O16	O	-0.491927	-1.842591	-0.790914
O17	O	-0.491859	-1.698697	-0.934830
C18	C	-0.309659	-1.481959	-0.796644
C19	C	-0.317994	-1.338993	-0.787698
C20	C	-0.524625	-1.763296	-0.870244
C21	C	-0.624893	-1.740812	-0.892799
C22	C	-0.907518	-1.977409	-0.656894
C23	C	-0.813312	-1.998533	-0.635697
C24	C	-0.766202	-1.934105	-0.699971
C25	C	-0.813309	-1.848548	-0.785446
C26	C	-0.907525	-1.827414	-0.806638
C27	C	-0.766209	-1.784110	-0.849714
C28	C	-0.813316	-1.698554	-0.935189
C29	C	-0.907523	-1.677424	-0.956378
C30	C	-0.954633	-1.741852	-0.892105
C31	C	-0.671993	-1.805244	-0.828522
C32	C	-0.672000	-1.655250	-0.978265
C33	C	-0.766206	-1.634126	-0.999463
C34	C	-0.054905	-1.869225	-0.764854
C35	C	0.045375	-1.891847	-0.742361
C36	C	-0.270570	-1.846068	-1.144313
C37	C	-0.262194	-1.858822	-1.283523
C38	C	-0.270708	-1.151624	-0.838705
C39	C	-0.262377	-1.294590	-0.847665
C40	C	-0.309732	-1.786414	-0.492222
C41	C	-0.317839	-1.773967	-0.352971
H42	H	-0.633647	-1.874905	-0.758927
H43	H	-0.208147	-1.941237	-1.330572
H44	H	-0.945876	-1.607742	-1.025962
H45	H	-0.633644	-1.602784	-1.030600
H46	H	-0.371990	-1.267628	-0.729503
C47	C	-0.448986	-1.715395	-1.231795
C48	C	-0.390804	-1.662720	-1.289467
H49	H	-0.494028	-1.646713	-1.192578
H50	H	-0.477202	-1.768255	-1.294095
H51	H	-0.415187	-1.766922	-1.169583
H52	H	-0.424603	-1.611200	-1.351686
H53	H	-0.362586	-1.609838	-1.227161
C54	C	-0.910632	-1.535134	-1.098426
C55	C	-0.817994	-1.540073	-1.093406
H56	H	-0.942602	-1.477063	-1.156416
H57	H	-0.919873	-1.619767	-1.125710
H58	H	-0.932249	-1.505198	-1.016554
H59	H	-0.796375	-1.570017	-1.175276
H60	H	-0.808747	-1.455421	-1.066127
H61	H	-0.689495	-1.951308	-0.682705
C62	C	-0.195059	-1.518646	-0.920186
C63	C	-0.189485	-1.390913	-0.926224
H64	H	-0.150061	-1.578115	-0.968693
H65	H	-0.185554	-1.535862	-0.834447
H66	H	-0.253340	-1.528593	-0.953345
H67	H	-0.131206	-1.380963	-0.893056
H68	H	-0.198984	-1.373692	-1.011980
C69	C	-1.080454	-1.755234	-1.043683
C70	C	-1.058189	-1.718648	-0.915409
H71	H	-1.144385	-1.740922	-1.058065
H72	H	-1.059154	-1.704603	-1.094177
H73	H	-1.052932	-1.845000	-1.065794
H74	H	-1.085705	-1.628880	-0.893301
H75	H	-1.079498	-1.769278	-0.864898
C76	C	-0.822773	-2.144682	-0.489829
C77	C	-0.761534	-2.092586	-0.541761
H78	H	-0.790804	-2.202758	-0.431842
H79	H	-0.865705	-2.076039	-0.446632
H80	H	-0.853333	-2.190601	-0.555795
H81	H	-0.730979	-2.046658	-0.475795
H82	H	-0.718586	-2.161240	-0.584958
H83	H	-0.945884	-2.029849	-0.604564
