data_functionalizedCrystal
_audit_creation_method	'MofGen! by Chris Wilmer'
_symmetry_space_group_name_H-M	'P1'
_symmetry_Int_Tables_number	1
_symmetry_cell_setting	triclinic
loop_
_symmetry_equiv_pos_as_xyz
  x,y,z
_cell_length_a	19.188905
_cell_length_b	19.188930
_cell_length_c	9.616153
_cell_angle_alpha	89.992615
_cell_angle_beta	89.986020
_cell_angle_gamma	83.139668
loop_
_atom_site_label
_atom_site_type_symbol
_atom_site_fract_x
_atom_site_fract_y
_atom_site_fract_z
O1	O	0.926159	0.087082	-0.115890
O2	O	0.722845	0.098834	-0.115845
O3	O	0.830369	-0.008698	-0.115842
O4	O	0.818635	0.194614	-0.115893
O5	O	0.830354	-0.008696	0.115450
O6	O	0.722830	0.098836	0.115447
O7	O	0.926144	0.087084	0.115401
Zn8	Zn	0.824485	0.092961	0.152146
Zn9	Zn	0.824504	0.092957	-0.152590
O10	O	0.818620	0.194616	0.115398
C11	C	0.696826	0.098458	-0.000193
C12	C	0.619321	0.097324	-0.000174
C13	C	0.582937	0.096778	-0.126255
C14	C	0.510113	0.095705	-0.126272
C15	C	0.473678	0.095164	-0.000201
C16	C	0.510070	0.095714	0.125896
C17	C	0.582892	0.096794	0.125909
N18	N	0.364652	0.053736	0.093631
N19	N	0.295475	0.052709	0.093610
C20	C	0.254272	0.091911	-0.000234
N21	N	0.284860	0.132171	-0.094077
N22	N	0.354043	0.133196	-0.094060
C23	C	0.394716	0.093993	-0.000202
C24	C	0.138924	0.090203	-0.126342
C25	C	0.066098	0.089134	-0.126353
C26	C	0.066058	0.089136	0.125818
C27	C	0.138881	0.090212	0.125826
C28	C	0.175310	0.090742	-0.000258
C29	C	0.829982	-0.034708	-0.000192
C30	C	0.828841	-0.112213	-0.000180
C31	C	0.891933	-0.157142	-0.000187
C32	C	0.890861	-0.229966	-0.000209
C33	C	0.826694	-0.257857	-0.000196
C34	C	0.763594	-0.212917	-0.000196
C35	C	0.764668	-0.140095	-0.000188
N36	N	0.777641	-0.365856	0.078528
N37	N	0.776626	-0.435035	0.078523
C38	C	0.823456	-0.477265	-0.000223
N39	N	0.871350	-0.447705	-0.078947
N40	N	0.872368	-0.378520	-0.078937
C41	C	0.825523	-0.336819	-0.000206
C42	C	0.885390	-0.601159	-0.000257
C43	C	0.884315	-0.673984	-0.000287
C44	C	0.757047	-0.656933	-0.000260
C45	C	0.758123	-0.584110	-0.000244
C46	C	0.822296	-0.556228	-0.000235
C47	C	0.952163	0.087460	-0.000254
C48	C	1.029668	0.088594	-0.000281
C49	C	0.819007	0.220626	-0.000255
C50	C	0.820148	0.298131	-0.000276
N51	N	0.824477	0.092962	0.360121
N52	N	0.824518	0.092950	-0.360565
C53	C	0.766787	0.150296	0.580489
C54	C	0.766910	0.150507	0.419322
C55	C	0.897282	0.108646	0.418549
C56	C	0.896967	0.109051	0.579767
C57	C	0.810090	0.019750	0.580055
C58	C	0.808408	0.020246	0.418829
H59	H	0.036392	0.088699	0.228467
H60	H	0.910336	0.161415	0.378141
N61	N	0.952456	0.057639	0.370463
N62	N	0.989323	0.020508	0.455876
H63	H	1.028290	-0.015517	0.421917
H64	H	0.704801	-0.679641	-0.000256
N65	N	0.700225	-0.094186	-0.000185
N66	N	0.686637	-0.051637	-0.097670
H67	H	0.641124	-0.019211	-0.097667
N68	N	0.176054	0.090744	0.254615
N69	N	0.223278	0.042138	0.282758
H70	H	0.249533	0.042514	0.373721
H71	H	0.852192	-0.022923	0.618173
H72	H	0.942239	-0.266555	-0.000221
H73	H	0.706747	-0.547527	-0.000230
H74	H	0.480484	0.095262	-0.228945
H75	H	0.036475	0.088694	-0.229028
N76	N	0.620136	0.097320	-0.255054
N77	N	0.587636	0.096833	-0.367620
H78	H	0.613909	0.097217	-0.458587
N79	N	0.472845	0.095168	0.254662
N80	N	0.407826	0.094204	0.254634
H81	H	0.381534	0.093822	0.345579
H82	H	0.776096	0.204834	0.380725
N83	N	0.698050	-0.241405	-0.000145
N84	N	0.655560	-0.227572	0.097365
H85	H	0.609268	-0.247692	0.097401
H86	H	0.944187	-0.134445	-0.000185
N87	N	0.744939	0.000780	0.631132
N88	N	0.708346	0.040986	0.711931
H89	H	0.662328	0.027599	0.747999
H90	H	0.712785	0.141196	0.379822
N91	N	0.698676	0.138829	0.629248
N92	N	0.663057	0.185021	0.699351
H93	H	0.614953	0.176922	0.733806
H94	H	0.937644	-0.578456	-0.000256
H95	H	0.935694	-0.710565	-0.000301
N96	N	0.620060	0.097363	0.254702
N97	N	0.605322	0.146452	0.339102
H98	H	0.631574	0.146855	0.430064
H99	H	0.909715	0.162429	0.617337
N100	N	0.176130	0.090744	-0.255138
N101	N	0.143631	0.090263	-0.367706
H102	H	0.169905	0.090645	-0.458671
N103	N	0.778158	0.218061	0.631283
N104	N	0.828595	0.224305	0.710706
H105	H	0.836629	0.272163	0.746582
H106	H	0.941255	0.068918	0.618755
H107	H	0.754853	0.008338	0.380645
H108	H	0.847738	-0.024409	0.378537
