data_functionalizedCrystal
_audit_creation_method	'MofGen! by Chris Wilmer'
_symmetry_space_group_name_H-M	'P1'
_symmetry_Int_Tables_number	1
_symmetry_cell_setting	triclinic
loop_
_symmetry_equiv_pos_as_xyz
  x,y,z
_cell_length_a	27.732048
_cell_length_b	27.732048
_cell_length_c	26.210047
_cell_angle_alpha	89.996535
_cell_angle_beta	89.987768
_cell_angle_gamma	97.357346
loop_
_atom_site_label
_atom_site_type_symbol
_atom_site_fract_x
_atom_site_fract_y
_atom_site_fract_z
O1	O	-0.057510	0.640931	-0.042355
O2	O	0.192490	0.890931	0.207645
O3	O	0.442490	1.140931	0.457645
O4	O	0.692490	1.390931	0.707645
O5	O	-0.066256	0.500138	-0.042369
O6	O	0.183744	0.750138	0.207631
O7	O	0.433744	1.000138	0.457631
O8	O	0.683744	1.250138	0.707631
O9	O	0.008514	0.574907	-0.042369
O10	O	0.258514	0.824907	0.207631
O11	O	0.508514	1.074907	0.457631
O12	O	0.758514	1.324907	0.707631
O13	O	-0.132279	0.566162	-0.042356
O14	O	0.117721	0.816162	0.207644
O15	O	0.367721	1.066162	0.457644
O16	O	0.617721	1.316162	0.707644
O17	O	0.008502	0.574893	0.042489
O18	O	0.258502	0.824893	0.292489
O19	O	0.508502	1.074893	0.542489
O20	O	0.758502	1.324893	0.792489
O21	O	-0.066267	0.500123	0.042489
O22	O	0.183733	0.750123	0.292489
O23	O	0.433733	1.000123	0.542489
O24	O	0.683733	1.250123	0.792489
O25	O	-0.057522	0.640917	0.042503
O26	O	0.192478	0.890917	0.292503
O27	O	0.442478	1.140917	0.542503
O28	O	0.692478	1.390917	0.792503
Cu29	Cu	-0.061896	0.570519	0.050244
Cu30	Cu	0.188104	0.820519	0.300244
Cu31	Cu	0.438104	1.070519	0.550244
Cu32	Cu	0.688104	1.320519	0.800244
Cu33	Cu	-0.061882	0.570536	-0.050110
Cu34	Cu	0.188118	0.820536	0.199890
Cu35	Cu	0.438118	1.070536	0.449890
Cu36	Cu	0.688118	1.320536	0.699890
O37	O	-0.132291	0.566147	0.042502
O38	O	0.117709	0.816147	0.292502
O39	O	0.367709	1.066147	0.542502
O40	O	0.617709	1.316147	0.792502
C41	C	-0.066078	0.482124	0.000058
C42	C	0.183922	0.732124	0.250058
C43	C	0.433922	0.982124	0.500058
C44	C	0.683922	1.232124	0.750058
C45	C	-0.065525	0.428469	0.000052
C46	C	0.184475	0.678469	0.250052
C47	C	0.434475	0.928469	0.500052
C48	C	0.684475	1.178469	0.750052
C49	C	-0.106229	0.089654	0.000078
C50	C	0.143771	0.339654	0.250078
C51	C	0.393771	0.589654	0.500078
C52	C	0.643771	0.839654	0.750078
C53	C	-0.104178	-0.112006	0.000082
C54	C	0.145822	0.137994	0.250082
C55	C	0.395822	0.387994	0.500082
C56	C	0.645822	0.637994	0.750082
O57	O	-0.141398	-0.143262	0.000107
O58	O	0.108602	0.106738	0.250107
O59	O	0.358602	0.356738	0.500107
O60	O	0.608602	0.606738	0.750107
N61	N	-0.059843	-0.131130	0.000077
N62	N	0.190157	0.118870	0.250077
N63	N	0.440157	0.368870	0.500077
N64	N	0.690157	0.618870	0.750077
C65	C	-0.016017	-0.099835	0.000074
C66	C	0.233983	0.150165	0.250074
C67	C	0.483983	0.400165	0.500074
C68	C	0.733983	0.650165	0.750074
O69	O	0.021740	-0.120728	0.000076
O70	O	0.271740	0.129272	0.250076
O71	O	0.521740	0.379272	0.500076
O72	O	0.771740	0.629272	0.750076
C73	C	-0.018068	0.101824	0.000074
C74	C	0.231932	0.351824	0.250074
C75	C	0.481932	0.601824	0.500074
C76	C	0.731932	0.851824	0.750074
C77	C	-0.062407	0.120944	0.000073
C78	C	0.187593	0.370944	0.250073
C79	C	0.437593	0.620944	0.500073
C80	C	0.687593	0.870944	0.750073
C81	C	-0.150563	0.108775	0.000078
C82	C	0.099437	0.358775	0.250078
C83	C	0.349437	0.608775	0.500078
C84	C	0.599437	0.858775	0.750078
C85	C	-0.151076	0.159187	0.000074
C86	C	0.098924	0.409187	0.250074
C87	C	0.348924	0.659187	0.500074
C88	C	0.598924	0.909187	0.750074
C89	C	-0.107253	0.190477	0.000070
C90	C	0.142747	0.440477	0.250070
C91	C	0.392747	0.690477	0.500070
C92	C	0.642747	0.940477	0.750070
C93	C	-0.062919	0.171356	0.000070
C94	C	0.187081	0.421356	0.250070
C95	C	0.437081	0.671356	0.500070
C96	C	0.687081	0.921356	0.750070
C97	C	0.025757	0.133117	0.000075
C98	C	0.275757	0.383117	0.250075
C99	C	0.525757	0.633117	0.500075
C100	C	0.775757	0.883117	0.750075
C101	C	0.025240	0.183535	0.000076
C102	C	0.275240	0.433535	0.250076
C103	C	0.525240	0.683535	0.500076
C104	C	0.775240	0.933535	0.750076
C105	C	-0.019098	0.202655	0.000076
C106	C	0.230902	0.452655	0.250076
C107	C	0.480902	0.702655	0.500076
C108	C	0.730902	0.952655	0.750076
C109	C	-0.019609	0.253059	0.000062
C110	C	0.230391	0.503059	0.250062
C111	C	0.480391	0.753059	0.500062
C112	C	0.730391	1.003059	0.750062
N113	N	-0.063944	0.272183	0.000066
N114	N	0.186056	0.522183	0.250066
N115	N	0.436056	0.772183	0.500066
N116	N	0.686056	1.022183	0.750066
C117	C	-0.107766	0.240892	0.000071
C118	C	0.142234	0.490892	0.250071
C119	C	0.392234	0.740892	0.500071
C120	C	0.642234	0.990892	0.750071
C121	C	-0.014943	-0.205709	0.000074
C122	C	0.235057	0.044291	0.250074
C123	C	0.485057	0.294291	0.500074
C124	C	0.735057	0.544291	0.750074
C125	C	-0.014430	-0.256124	0.000073
C126	C	0.235570	-0.006124	0.250073
C127	C	0.485570	0.243876	0.500073
C128	C	0.735570	0.493876	0.750073
C129	C	-0.102591	-0.268291	0.000082
C130	C	0.147409	-0.018291	0.250082
C131	C	0.397409	0.231709	0.500082
C132	C	0.647409	0.481709	0.750082
C133	C	-0.103104	-0.217876	0.000079
C134	C	0.146896	0.032124	0.250079
C135	C	0.396896	0.282124	0.500079
C136	C	0.646896	0.532124	0.750079
C137	C	-0.059278	-0.186585	0.000079
C138	C	0.190722	0.063415	0.250079
C139	C	0.440722	0.313415	0.500079
C140	C	0.690722	0.563415	0.750079
C141	C	-0.108839	0.346761	0.000062
C142	C	0.141161	0.596761	0.250062
C143	C	0.391161	0.846761	0.500062
C144	C	0.641161	1.096761	0.750062
C145	C	-0.109347	0.397178	0.000056
C146	C	0.140653	0.647178	0.250056
C147	C	0.390653	0.897178	0.500056
C148	C	0.640653	1.147178	0.750056
C149	C	-0.021186	0.409341	0.000050
C150	C	0.228814	0.659341	0.250050
C151	C	0.478814	0.909341	0.500050
C152	C	0.728814	1.159341	0.750050
C153	C	-0.020678	0.358929	0.000054
C154	C	0.229322	0.608929	0.250054
C155	C	0.479322	0.858929	0.500054
C156	C	0.729322	1.108929	0.750054
C157	C	-0.064508	0.327639	0.000061
C158	C	0.185492	0.577639	0.250061
C159	C	0.435492	0.827639	0.500061
C160	C	0.685492	1.077639	0.750061
O161	O	0.017592	0.284343	0.000042
O162	O	0.267592	0.534343	0.250042
O163	O	0.517592	0.784343	0.500042
O164	O	0.767592	1.034343	0.750042
O165	O	-0.145518	0.261794	0.000081
O166	O	0.104482	0.511794	0.250081
O167	O	0.354482	0.761794	0.500081
O168	O	0.604482	1.011794	0.750081
C169	C	-0.105716	0.039242	0.000081
C170	C	0.144284	0.289242	0.250081
C171	C	0.394284	0.539242	0.500081
C172	C	0.644284	0.789242	0.750081
C173	C	-0.061382	0.020120	0.000081
C174	C	0.188618	0.270120	0.250081
C175	C	0.438618	0.520120	0.500081
C176	C	0.688618	0.770120	0.750081
C177	C	-0.017560	0.051411	0.000077
C178	C	0.232440	0.301411	0.250077
C179	C	0.482440	0.551411	0.500077
C180	C	0.732440	0.801411	0.750077
C181	C	-0.060869	-0.030294	0.000080
C182	C	0.189131	0.219706	0.250080
C183	C	0.439131	0.469706	0.500080
C184	C	0.689131	0.719706	0.750080
C185	C	-0.104691	-0.061585	0.000085
C186	C	0.145309	0.188415	0.250085
C187	C	0.395309	0.438415	0.500085
C188	C	0.645309	0.688415	0.750085
C189	C	-0.149026	-0.042461	0.000089
C190	C	0.100974	0.207539	0.250089
C191	C	0.350974	0.457539	0.500089
C192	C	0.600974	0.707539	0.750089
C193	C	-0.149539	0.007951	0.000086
C194	C	0.100461	0.257951	0.250086
C195	C	0.350461	0.507951	0.500086
C196	C	0.600461	0.757951	0.750086
C197	C	0.026775	0.032287	0.000072
C198	C	0.276775	0.282287	0.250072
C199	C	0.526775	0.532287	0.500072
C200	C	0.776775	0.782287	0.750072
C201	C	0.027284	-0.018125	0.000075
C202	C	0.277284	0.231875	0.250075
C203	C	0.527284	0.481875	0.500075
C204	C	0.777284	0.731875	0.750075
C205	C	-0.016538	-0.049416	0.000080
C206	C	0.233462	0.200584	0.250080
C207	C	0.483462	0.450584	0.500080
C208	C	0.733462	0.700584	0.750080
C209	C	-0.150292	0.566338	0.000075
C210	C	0.099708	0.816338	0.250075
C211	C	0.349708	1.066338	0.500075
C212	C	0.599708	1.316338	0.750075
C213	C	-0.203947	0.566891	0.000080
C214	C	0.046053	0.816891	0.250080
C215	C	0.296053	1.066891	0.500080
C216	C	0.546053	1.316891	0.750080
C217	C	-0.542762	0.526187	0.000051
C218	C	-0.292762	0.776187	0.250051
C219	C	-0.042762	1.026187	0.500051
C220	C	0.207238	1.276187	0.750051
C221	C	-0.744422	0.528238	0.000045
C222	C	-0.494422	0.778238	0.250045
C223	C	-0.244422	1.028238	0.500045
C224	C	0.005578	1.278238	0.750045
O225	O	-0.775677	0.491017	0.000019
O226	O	-0.525677	0.741017	0.250019
O227	O	-0.275677	0.991017	0.500019
O228	O	-0.025677	1.241017	0.750019
N229	N	-0.763546	0.572573	0.000050
N230	N	-0.513546	0.822573	0.250050
N231	N	-0.263546	1.072573	0.500050
N232	N	-0.013546	1.322573	0.750050
C233	C	-0.732251	0.616399	0.000054
C234	C	-0.482251	0.866399	0.250054
C235	C	-0.232251	1.116399	0.500054
C236	C	0.017749	1.366399	0.750054
O237	O	-0.753144	0.654156	0.000053
O238	O	-0.503144	0.904156	0.250053
O239	O	-0.253144	1.154156	0.500053
O240	O	-0.003144	1.404156	0.750053
C241	C	-0.530592	0.614347	0.000056
C242	C	-0.280592	0.864347	0.250056
C243	C	-0.030592	1.114347	0.500056
C244	C	0.219408	1.364347	0.750056
C245	C	-0.511472	0.570009	0.000056
C246	C	-0.261472	0.820009	0.250056
C247	C	-0.011472	1.070009	0.500056
C248	C	0.238528	1.320009	0.750056
C249	C	-0.523641	0.481853	0.000051
C250	C	-0.273641	0.731853	0.250051
C251	C	-0.023641	0.981853	0.500051
C252	C	0.226359	1.231853	0.750051
C253	C	-0.473229	0.481340	0.000055
C254	C	-0.223229	0.731340	0.250055
C255	C	0.026771	0.981340	0.500055
C256	C	0.276771	1.231340	0.750055
C257	C	-0.441938	0.525162	0.000060
C258	C	-0.191938	0.775162	0.250060
C259	C	0.058062	1.025162	0.500060
C260	C	0.308062	1.275162	0.750060
C261	C	-0.461060	0.569497	0.000060
C262	C	-0.211060	0.819497	0.250060
C263	C	0.038940	1.069497	0.500060
C264	C	0.288940	1.319497	0.750060
C265	C	-0.499299	0.658172	0.000056
C266	C	-0.249299	0.908172	0.250056
C267	C	0.000701	1.158172	0.500056
C268	C	0.250701	1.408172	0.750056
C269	C	-0.448881	0.657656	0.000055
C270	C	-0.198881	0.907656	0.250055
C271	C	0.051119	1.157656	0.500055
C272	C	0.301119	1.407656	0.750055
C273	C	-0.429761	0.613317	0.000055
C274	C	-0.179761	0.863317	0.250055
C275	C	0.070239	1.113317	0.500055
C276	C	0.320239	1.363317	0.750055
C277	C	-0.379357	0.612807	0.000069
C278	C	-0.129357	0.862807	0.250069
C279	C	0.120643	1.112807	0.500069
C280	C	0.370643	1.362807	0.750069
N281	N	-0.360233	0.568472	0.000064
N282	N	-0.110233	0.818472	0.250064
N283	N	0.139767	1.068472	0.500064
N284	N	0.389767	1.318472	0.750064
C285	C	-0.391524	0.524649	0.000059
C286	C	-0.141524	0.774649	0.250059
C287	C	0.108476	1.024649	0.500059
C288	C	0.358476	1.274649	0.750059
C289	C	-0.838125	0.617473	0.000054
C290	C	-0.588125	0.867473	0.250054
C291	C	-0.338125	1.117473	0.500054
C292	C	-0.088125	1.367473	0.750054
C293	C	-0.888539	0.617986	0.000054
C294	C	-0.638539	0.867986	0.250054
C295	C	-0.388539	1.117986	0.500054
C296	C	-0.138539	1.367986	0.750054
C297	C	-0.900707	0.529825	0.000045
C298	C	-0.650707	0.779825	0.250045
C299	C	-0.400707	1.029825	0.500045
C300	C	-0.150707	1.279825	0.750045
C301	C	-0.850291	0.529312	0.000048
C302	C	-0.600291	0.779312	0.250048
C303	C	-0.350291	1.029312	0.500048
C304	C	-0.100291	1.279312	0.750048
C305	C	-0.819001	0.573138	0.000048
C306	C	-0.569001	0.823138	0.250048
C307	C	-0.319001	1.073138	0.500048
C308	C	-0.069001	1.323138	0.750048
C309	C	-0.285655	0.523577	0.000069
C310	C	-0.035655	0.773577	0.250069
C311	C	0.214345	1.023577	0.500069
C312	C	0.464345	1.273577	0.750069
C313	C	-0.235238	0.523069	0.000075
C314	C	0.014762	0.773069	0.250075
C315	C	0.264762	1.023069	0.500075
C316	C	0.514762	1.273069	0.750075
C317	C	-0.223075	0.611229	0.000082
C318	C	0.026925	0.861229	0.250082
C319	C	0.276925	1.111229	0.500082
C320	C	0.526925	1.361229	0.750082
C321	C	-0.273487	0.611738	0.000078
C322	C	-0.023487	0.861738	0.250078
C323	C	0.226513	1.111738	0.500078
C324	C	0.476513	1.361738	0.750078
C325	C	-0.304777	0.567908	0.000070
C326	C	-0.054777	0.817908	0.250070
C327	C	0.195223	1.067908	0.500070
C328	C	0.445223	1.317908	0.750070
O329	O	-0.348073	0.650008	0.000090
O330	O	-0.098073	0.900008	0.250090
O331	O	0.151927	1.150008	0.500090
O332	O	0.401927	1.400008	0.750090
O333	O	-0.370621	0.486898	0.000049
O334	O	-0.120621	0.736898	0.250049
O335	O	0.129379	0.986898	0.500049
O336	O	0.379379	1.236898	0.750049
C337	C	-0.593174	0.526699	0.000047
C338	C	-0.343174	0.776699	0.250047
C339	C	-0.093174	1.026699	0.500047
C340	C	0.156826	1.276699	0.750047
C341	C	-0.612295	0.571034	0.000048
C342	C	-0.362295	0.821034	0.250048
C343	C	-0.112295	1.071034	0.500048
C344	C	0.137705	1.321034	0.750048
C345	C	-0.581005	0.614856	0.000052
C346	C	-0.331005	0.864856	0.250052
C347	C	-0.081005	1.114856	0.500052
C348	C	0.168995	1.364856	0.750052
C349	C	-0.662710	0.571547	0.000048
C350	C	-0.412710	0.821547	0.250048
C351	C	-0.162710	1.071547	0.500048
C352	C	0.087290	1.321547	0.750048
C353	C	-0.694001	0.527725	0.000043
C354	C	-0.444001	0.777725	0.250043
C355	C	-0.194001	1.027725	0.500043
C356	C	0.055999	1.277725	0.750043
C357	C	-0.674877	0.483389	0.000038
C358	C	-0.424877	0.733389	0.250038
C359	C	-0.174877	0.983389	0.500038
C360	C	0.075123	1.233389	0.750038
C361	C	-0.624465	0.482877	0.000042
C362	C	-0.374465	0.732877	0.250042
C363	C	-0.124465	0.982877	0.500042
C364	C	0.125535	1.232877	0.750042
C365	C	-0.600129	0.659191	0.000058
C366	C	-0.350129	0.909191	0.250058
C367	C	-0.100129	1.159191	0.500058
C368	C	0.149871	1.409191	0.750058
C369	C	-0.650541	0.659700	0.000054
C370	C	-0.400541	0.909700	0.250054
C371	C	-0.150541	1.159700	0.500054
C372	C	0.099459	1.409700	0.750054
C373	C	-0.681832	0.615878	0.000049
C374	C	-0.431832	0.865878	0.250049
C375	C	-0.181832	1.115878	0.500049
C376	C	0.068168	1.365878	0.750049
C377	C	0.026515	0.574716	0.000058
C378	C	0.276515	0.824716	0.250058
C379	C	0.526515	1.074716	0.500058
C380	C	0.776515	1.324716	0.750058
C381	C	0.080170	0.574164	0.000049
C382	C	0.330170	0.824164	0.250049
C383	C	0.580170	1.074164	0.500049
C384	C	0.830170	1.324164	0.750049
C385	C	-0.057699	0.658931	0.000075
C386	C	0.192301	0.908931	0.250075
C387	C	0.442301	1.158931	0.500075
C388	C	0.692301	1.408931	0.750075
C389	C	-0.058252	0.712586	0.000077
C390	C	0.191748	0.962586	0.250077
C391	C	0.441748	1.212586	0.500077
C392	C	0.691748	1.462586	0.750077
N393	N	-0.061905	0.570510	0.120828
N394	N	0.188095	0.820510	0.370828
N395	N	0.438095	1.070510	0.620828
N396	N	0.688095	1.320510	0.870828
N397	N	-0.061868	0.570548	-0.120694
N398	N	0.188132	0.820548	0.129306
N399	N	0.438132	1.070548	0.379306
N400	N	0.688132	1.320548	0.629306
C401	C	-0.028781	0.603640	0.473342
C402	C	0.221219	0.853640	0.723342
C403	C	0.471219	1.103640	0.973342
C404	C	0.721219	1.353640	1.223342
C405	C	-0.028774	0.603651	0.687001
C406	C	0.221226	0.853651	0.937001
C407	C	0.471226	1.103651	1.187001
C408	C	0.721226	1.353651	1.437001
O409	O	-0.000614	0.631801	0.714623
O410	O	0.249386	0.881801	0.964623
O411	O	0.499386	1.131801	1.214623
O412	O	0.749386	1.381801	1.464623
N413	N	-0.061871	0.570538	0.713722
N414	N	0.188129	0.820538	0.963722
N415	N	0.438129	1.070538	1.213722
N416	N	0.688129	1.320538	1.463722
C417	C	-0.094970	0.537419	0.687025
C418	C	0.155030	0.787419	0.937025
C419	C	0.405030	1.037419	1.187025
C420	C	0.655030	1.287419	1.437025
O421	O	-0.123117	0.509251	0.714655
O422	O	0.126883	0.759251	0.964655
O423	O	0.376883	1.009251	1.214655
O424	O	0.626883	1.259251	1.464655
C425	C	-0.094974	0.537406	0.473367
C426	C	0.155026	0.787406	0.723367
C427	C	0.405026	1.037406	0.973367
C428	C	0.655026	1.287406	1.223367
C429	C	-0.061878	0.570524	0.446649
C430	C	0.188122	0.820524	0.696649
C431	C	0.438122	1.070524	0.946649
C432	C	0.688122	1.320524	1.196649
C433	C	0.004312	0.636755	0.446624
C434	C	0.254312	0.886755	0.696624
C435	C	0.504312	1.136755	0.946624
C436	C	0.754312	1.386755	1.196624
C437	C	0.004308	0.636754	0.393213
C438	C	0.254308	0.886754	0.643213
C439	C	0.504308	1.136754	0.893213
C440	C	0.754308	1.386754	1.143213
C441	C	-0.028789	0.603638	0.366519
C442	C	0.221211	0.853638	0.616519
C443	C	0.471211	1.103638	0.866519
C444	C	0.721211	1.353638	1.116519
C445	C	-0.061882	0.570523	0.393238
C446	C	0.188118	0.820523	0.643238
C447	C	0.438118	1.070523	0.893238
C448	C	0.688118	1.320523	1.143238
C449	C	-0.128070	0.504284	0.446671
C450	C	0.121930	0.754284	0.696671
C451	C	0.371930	1.004284	0.946671
C452	C	0.621930	1.254284	1.196671
C453	C	-0.128067	0.504283	0.393253
C454	C	0.121933	0.754283	0.643253
C455	C	0.371933	1.004283	0.893253
C456	C	0.621933	1.254283	1.143253
C457	C	-0.094971	0.537401	0.366535
C458	C	0.155029	0.787401	0.616535
C459	C	0.405029	1.037401	0.866535
C460	C	0.655029	1.287401	1.116535
C461	C	-0.094983	0.537405	0.313133
C462	C	0.155017	0.787405	0.563133
C463	C	0.405017	1.037405	0.813133
C464	C	0.655017	1.287405	1.063133
N465	N	-0.061886	0.570518	0.286412
N466	N	0.188114	0.820518	0.536412
N467	N	0.438114	1.070518	0.786412
N468	N	0.688114	1.320518	1.036412
C469	C	-0.028789	0.603634	0.313105
C470	C	0.221211	0.853634	0.563105
C471	C	0.471211	1.103634	0.813105
C472	C	0.721211	1.353634	1.063105
C473	C	-0.094966	0.537428	0.799198
C474	C	0.155034	0.787428	1.049198
C475	C	0.405034	1.037428	1.299198
C476	C	0.655034	1.287428	1.549198
C477	C	-0.094965	0.537432	0.852612
C478	C	0.155035	0.787432	1.102612
C479	C	0.405035	1.037432	1.352612
C480	C	0.655035	1.287432	1.602612
C481	C	-0.028769	0.603664	0.852585
C482	C	0.221231	0.853664	1.102585
C483	C	0.471231	1.103664	1.352585
C484	C	0.721231	1.353664	1.602585
C485	C	-0.028773	0.603662	0.799170
C486	C	0.221227	0.853662	1.049170
C487	C	0.471227	1.103662	1.299170
C488	C	0.721227	1.353662	1.549170
C489	C	-0.061869	0.570541	0.772477
C490	C	0.188131	0.820541	1.022477
C491	C	0.438131	1.070541	1.272477
C492	C	0.688131	1.320541	1.522477
C493	C	-0.028800	0.603629	0.200937
C494	C	0.221200	0.853629	0.450937
C495	C	0.471200	1.103629	0.700937
C496	C	0.721200	1.353629	0.950937
C497	C	-0.028808	0.603626	0.147521
C498	C	0.221192	0.853626	0.397521
C499	C	0.471192	1.103626	0.647521
C500	C	0.721192	1.353626	0.897521
C501	C	-0.095002	0.537393	0.147553
C502	C	0.154998	0.787393	0.397553
C503	C	0.404998	1.037393	0.647553
C504	C	0.654998	1.287393	0.897553
C505	C	-0.094996	0.537397	0.200965
C506	C	0.155004	0.787397	0.450965
C507	C	0.405004	1.037397	0.700965
C508	C	0.655004	1.287397	0.950965
C509	C	-0.061891	0.570517	0.227656
C510	C	0.188109	0.820517	0.477656
C511	C	0.438109	1.070517	0.727656
C512	C	0.688109	1.320517	0.977656
O513	O	-0.123125	0.509267	0.285478
O514	O	0.126875	0.759267	0.535478
O515	O	0.376875	1.009267	0.785478
O516	O	0.626875	1.259267	1.035478
O517	O	-0.000639	0.631790	0.285466
O518	O	0.249361	0.881790	0.535466
O519	O	0.499361	1.131790	0.785466
O520	O	0.749361	1.381790	1.035466
C521	C	-0.028777	0.603641	0.526754
C522	C	0.221223	0.853641	0.776754
C523	C	0.471223	1.103641	1.026754
C524	C	0.721223	1.353641	1.276754
C525	C	-0.061871	0.570527	0.553472
C526	C	0.188129	0.820527	0.803472
C527	C	0.438129	1.070527	1.053472
C528	C	0.688129	1.320527	1.303472
C529	C	-0.094968	0.537410	0.526779
C530	C	0.155032	0.787410	0.776779
C531	C	0.405032	1.037410	1.026779
C532	C	0.655032	1.287410	1.276779
C533	C	-0.061870	0.570530	0.606886
C534	C	0.188130	0.820530	0.856886
C535	C	0.438130	1.070530	1.106886
C536	C	0.688130	1.320530	1.356886
C537	C	-0.028773	0.603646	0.633579
C538	C	0.221227	0.853646	0.883579
C539	C	0.471227	1.103646	1.133579
C540	C	0.721227	1.353646	1.383579
C541	C	0.004323	0.636759	0.606858
C542	C	0.254323	0.886759	0.856858
C543	C	0.504323	1.136759	1.106858
C544	C	0.754323	1.386759	1.356858
C545	C	0.004320	0.636758	0.553447
C546	C	0.254320	0.886758	0.803447
C547	C	0.504320	1.136758	1.053447
C548	C	0.754320	1.386758	1.303447
C549	C	-0.128064	0.504298	0.553500
C550	C	0.121936	0.754298	0.803500
C551	C	0.371936	1.004298	1.053500
C552	C	0.621936	1.254298	1.303500
C553	C	-0.128058	0.504302	0.606911
C554	C	0.121942	0.754302	0.856911
C555	C	0.371942	1.004302	1.106911
C556	C	0.621942	1.254302	1.356911
C557	C	-0.094961	0.537418	0.633604
C558	C	0.155039	0.787418	0.883604
C559	C	0.405039	1.037418	1.133604
C560	C	0.655039	1.287418	1.383604
H561	H	-0.145454	0.412743	0.000055
H562	H	0.104546	0.662743	0.250055
H563	H	0.354546	0.912743	0.500055
H564	H	0.604546	1.162743	0.750055
H565	H	0.031266	0.663722	0.468353
H566	H	0.281266	0.913722	0.718353
H567	H	0.531266	1.163722	0.968353
H568	H	0.781266	1.413722	1.218353
H569	H	-0.423407	0.693344	0.000053
H570	H	-0.173407	0.943344	0.250053
H571	H	0.076593	1.193344	0.500053
H572	H	0.326593	1.443344	0.750053
H573	H	-0.121951	0.510432	0.125812
H574	H	0.128049	0.760432	0.375812
H575	H	0.378049	1.010432	0.625812
H576	H	0.628049	1.260432	0.875812
H577	H	-0.574656	0.694877	0.000061
H578	H	-0.324656	0.944877	0.250061
H579	H	-0.074656	1.194877	0.500061
H580	H	0.175344	1.444877	0.750061
H581	H	-0.155015	0.477330	0.531770
H582	H	0.094985	0.727330	0.781770
H583	H	0.344985	0.977330	1.031770
H584	H	0.594985	1.227330	1.281770
H585	H	-0.139207	-0.202311	0.000081
H586	H	0.110793	0.047689	0.250081
H587	H	0.360793	0.297689	0.500081
H588	H	0.610793	0.547689	0.750081
H589	H	0.031259	0.663720	0.371462
H590	H	0.281259	0.913720	0.621462
H591	H	0.531259	1.163720	0.871462
H592	H	0.781259	1.413720	1.121462
H593	H	-0.904103	0.654090	0.000062
H594	H	-0.654103	0.904090	0.250062
H595	H	-0.404103	1.154090	0.500062
H596	H	-0.154103	1.404090	0.750062
H597	H	-0.186251	0.083302	0.000083
H598	H	0.063749	0.333302	0.250083
H599	H	0.313749	0.583302	0.500083
H600	H	0.563749	0.833302	0.750083
Br601	Br	-0.162064	-0.310766	0.000088
Br602	Br	0.087936	-0.060766	0.250088
Br603	Br	0.337936	0.189234	0.500088
Br604	Br	0.587936	0.439234	0.750088
H605	H	-0.155013	0.477334	0.628661
H606	H	0.094987	0.727334	0.878661
H607	H	0.344987	0.977334	1.128661
H608	H	0.594987	1.227334	1.378661
Br609	Br	0.085934	0.107181	0.000064
Br610	Br	0.335934	0.357181	0.250064
Br611	Br	0.585934	0.607181	0.500064
Br612	Br	0.835934	0.857181	0.750064
Br613	Br	0.016108	0.648577	0.111263
Br614	Br	0.266108	0.898577	0.361263
Br615	Br	0.516108	1.148577	0.611263
Br616	Br	0.766108	1.398577	0.861263
Br617	Br	-0.209715	0.033892	0.000084
Br618	Br	0.040285	0.283892	0.250084
Br619	Br	0.290285	0.533892	0.500084
Br620	Br	0.540285	0.783892	0.750084
Br621	Br	0.049237	0.681706	0.517194
Br622	Br	0.299237	0.931706	0.767194
Br623	Br	0.549237	1.181706	1.017194
Br624	Br	0.799237	1.431706	1.267194
Br625	Br	0.084721	0.225997	0.000079
Br626	Br	0.334721	0.475997	0.250079
Br627	Br	0.584721	0.725997	0.500079
Br628	Br	0.834721	0.975997	0.750079
Br629	Br	0.039496	0.332978	0.000055
Br630	Br	0.289496	0.582978	0.250055
Br631	Br	0.539496	0.832978	0.500055
Br632	Br	0.789496	1.082978	0.750055
H633	H	0.021674	-0.271687	0.000065
H634	H	0.271674	-0.021687	0.250065
H635	H	0.521674	0.228313	0.500065
H636	H	0.771674	0.478313	0.750065
H637	H	-0.608902	0.446773	0.000042
H638	H	-0.358902	0.696773	0.250042
H639	H	-0.108902	0.946773	0.500042
H640	H	0.141098	1.196773	0.750042
Br641	Br	-0.172987	0.459337	0.482921
Br642	Br	0.077013	0.709337	0.732921
Br643	Br	0.327013	0.959337	0.982921
Br644	Br	0.577013	1.209337	1.232921
Br645	Br	-0.525235	0.718349	0.000044
Br646	Br	-0.275235	0.968349	0.250044
Br647	Br	-0.025235	1.218349	0.500044
Br648	Br	0.224765	1.468349	0.750044
Br649	Br	-0.676483	0.719879	0.000055
Br650	Br	-0.426483	0.969879	0.250055
Br651	Br	-0.176483	1.219879	0.500055
Br652	Br	0.073517	1.469879	0.750055
H653	H	0.031271	0.663725	0.628601
H654	H	0.281271	0.913725	0.878601
H655	H	0.531271	1.163725	1.128601
H656	H	0.781271	1.413725	1.378601
H657	H	0.014492	0.434827	0.000045
H658	H	0.264492	0.684827	0.250045
H659	H	0.514492	0.934827	0.500045
H660	H	0.764492	1.184827	0.750045
H661	H	-0.001821	0.630629	0.874327
H662	H	0.248179	0.880629	1.124327
H663	H	0.498179	1.130629	1.374327
H664	H	0.748179	1.380629	1.624327
H665	H	-0.155018	0.477311	0.371523
H666	H	0.094982	0.727311	0.621523
H667	H	0.344982	0.977311	0.871523
H668	H	0.594982	1.227311	1.121523
H669	H	-0.834727	0.493208	0.000050
H670	H	-0.584727	0.743208	0.250050
H671	H	-0.334727	0.993208	0.500050
H672	H	-0.084727	1.243208	0.750050
Br673	Br	0.044540	-0.163250	0.000074
Br674	Br	0.294540	0.086750	0.250074
Br675	Br	0.544540	0.336750	0.500074
Br676	Br	0.794540	0.586750	0.750074
H677	H	-0.184708	-0.067947	0.000091
H678	H	0.065292	0.182053	0.250091
H679	H	0.315292	0.432053	0.500091
H680	H	0.565292	0.682053	0.750091
Br681	Br	-0.299438	0.671911	0.000100
Br682	Br	-0.049438	0.921911	0.250100
Br683	Br	0.200562	1.171911	0.500100
Br684	Br	0.450562	1.421911	0.750100
H685	H	0.063392	-0.033688	0.000072
H686	H	0.313392	0.216312	0.250072
H687	H	0.563392	0.466312	0.500072
H688	H	0.813392	0.716312	0.750072
Br689	Br	-0.447288	0.421164	0.000049
Br690	Br	-0.197288	0.671164	0.250049
Br691	Br	0.052712	0.921164	0.500049
Br692	Br	0.302712	1.171164	0.750049
Br693	Br	-0.209292	0.462892	0.000078
Br694	Br	0.040708	0.712892	0.250078
Br695	Br	0.290708	0.962892	0.500078
Br696	Br	0.540708	1.212892	0.750078
H697	H	-0.700363	0.447708	0.000037
H698	H	-0.450363	0.697708	0.250037
H699	H	-0.200363	0.947708	0.500037
H700	H	0.049637	1.197708	0.750037
Br701	Br	-0.566098	0.422371	0.000042
Br702	Br	-0.316098	0.672371	0.250042
Br703	Br	-0.066098	0.922371	0.500042
Br704	Br	0.183902	1.172371	0.750042
Br705	Br	-0.139919	0.492457	0.237224
Br706	Br	0.110081	0.742457	0.487224
Br707	Br	0.360081	0.992457	0.737224
Br708	Br	0.610081	1.242457	0.987224
Br709	Br	-0.328111	0.464093	0.000058
Br710	Br	-0.078111	0.714093	0.250058
Br711	Br	0.171889	0.964093	0.500058
Br712	Br	0.421889	1.214093	0.750058
H713	H	0.062462	0.057760	0.000070
H714	H	0.312462	0.307760	0.250070
H715	H	0.562462	0.557760	0.500070
H716	H	0.812462	0.807760	0.750070
H717	H	-0.812652	0.653163	0.000055
H718	H	-0.562652	0.903163	0.250055
H719	H	-0.312652	1.153163	0.500055
H720	H	-0.062652	1.403163	0.750055
Br721	Br	-0.943182	0.470352	0.000039
Br722	Br	-0.693182	0.720352	0.250039
Br723	Br	-0.443182	0.970352	0.500039
Br724	Br	-0.193182	1.220352	0.750039
Br725	Br	0.016129	0.648578	0.237152
Br726	Br	0.266129	0.898578	0.487152
Br727	Br	0.516129	1.148578	0.737152
Br728	Br	0.766129	1.398578	0.987152
Br729	Br	0.016144	0.648609	0.762915
Br730	Br	0.266144	0.898609	1.012915
Br731	Br	0.516144	1.148609	1.262915
Br732	Br	0.766144	1.398609	1.512915
H733	H	-0.121920	0.510469	0.874363
H734	H	0.128080	0.760469	1.124363
H735	H	0.378080	1.010469	1.374363
H736	H	0.628080	1.260469	1.624363
H737	H	-0.187180	0.174750	0.000074
H738	H	0.062820	0.424750	0.250074
H739	H	0.312820	0.674750	0.500074
H740	H	0.562820	0.924750	0.750074
H741	H	-0.197589	0.646908	0.000088
H742	H	0.052411	0.896908	0.250088
H743	H	0.302411	1.146908	0.500088
H744	H	0.552411	1.396908	0.750088
H745	H	-0.144530	0.321291	0.000070
H746	H	0.105470	0.571291	0.250070
H747	H	0.355470	0.821291	0.500070
H748	H	0.605470	1.071291	0.750070
Br749	Br	-0.139887	0.492475	0.762979
Br750	Br	0.110113	0.742475	1.012979
Br751	Br	0.360113	0.992475	1.262979
Br752	Br	0.610113	1.242475	1.512979
