data_functionalizedCrystal
_audit_creation_method	'MofGen! by Chris Wilmer'
_symmetry_space_group_name_H-M	'P1'
_symmetry_Int_Tables_number	1
_symmetry_cell_setting	triclinic
loop_
_symmetry_equiv_pos_as_xyz
  x,y,z
_cell_length_a	16.109301
_cell_length_b	9.065218
_cell_length_c	8.140239
_cell_angle_alpha	89.997198
_cell_angle_beta	90.004940
_cell_angle_gamma	95.761317
loop_
_atom_site_label
_atom_site_type_symbol
_atom_site_fract_x
_atom_site_fract_y
_atom_site_fract_z
O1	O	0.121905	-1.957448	0.136624
O2	O	0.621905	-1.457448	0.636624
O3	O	0.131904	-1.527922	0.136627
O4	O	0.631904	-1.027922	0.636627
O5	O	0.005964	-1.754484	0.136608
O6	O	0.505964	-1.254484	0.636608
O7	O	0.247845	-1.730885	0.136642
O8	O	0.747845	-1.230885	0.636642
O9	O	0.005963	-1.754472	-0.136619
O10	O	0.505963	-1.254472	0.363381
O11	O	0.131903	-1.527909	-0.136600
O12	O	0.631903	-1.027909	0.363400
O13	O	0.121904	-1.957436	-0.136603
O14	O	0.621904	-1.457436	0.363397
Zn15	Zn	0.126903	-1.742671	-0.179982
Zn16	Zn	0.626903	-1.242671	0.320018
Zn17	Zn	0.126905	-1.742687	0.180006
Zn18	Zn	0.626905	-1.242687	0.680006
O19	O	0.247843	-1.730873	-0.136585
O20	O	0.747843	-1.230873	0.363415
C21	C	-0.025019	-1.753522	-0.000006
C22	C	0.474981	-1.253522	0.499994
C23	C	-0.117336	-1.750656	-0.000008
C24	C	0.382664	-1.250656	0.499992
C25	C	0.130943	-1.472952	0.000013
C26	C	0.630943	-0.972952	0.500013
C27	C	0.128069	-1.309179	0.000014
C28	C	0.628069	-0.809179	0.500014
C29	C	0.122865	-2.012405	0.000014
C30	C	0.622865	-1.512405	0.500014
C31	C	0.125739	-2.176179	0.000024
C32	C	0.625739	-1.676179	0.500024
C33	C	-0.338627	-1.878430	0.000017
C34	C	0.161373	-1.378430	0.500017
C35	C	-0.425368	-1.875726	0.000031
C36	C	0.074632	-1.375726	0.500031
C37	C	-0.407559	-1.606917	0.000026
C38	C	0.092441	-1.106917	0.500026
C39	C	-0.320819	-1.609623	0.000024
C40	C	0.179181	-1.109623	0.500024
C41	C	-0.286356	-1.745384	0.000011
C42	C	0.213644	-1.245384	0.500011
C43	C	-0.459836	-1.739974	0.000027
C44	C	0.040164	-1.239974	0.500027
C45	C	-0.553885	-1.737040	0.000041
C46	C	-0.053885	-1.237040	0.500041
C47	C	-0.192301	-1.748318	-0.000000
C48	C	0.307699	-1.248318	0.500000
C49	C	0.278826	-1.731835	0.000033
C50	C	0.778826	-1.231835	0.500033
C51	C	0.371144	-1.734701	0.000046
C52	C	0.871144	-1.234701	0.500046
N53	N	0.126901	-1.742670	-0.425665
N54	N	0.626901	-1.242670	0.074335
N55	N	0.126900	-1.742699	0.425689
N56	N	0.626900	-1.242699	0.925689
H57	H	-0.310570	-1.988976	0.000010
H58	H	0.189430	-1.488976	0.500010
H59	H	-0.435630	-1.496385	0.000033
H60	H	0.064370	-0.996385	0.500033
H61	H	-0.278258	-1.501274	0.000024
H62	H	0.221742	-1.001274	0.500024
H63	H	-0.467924	-1.984066	0.000039
H64	H	0.032076	-1.484066	0.500039
