data_functionalizedCrystal
_audit_creation_method	'MofGen! by Chris Wilmer'
_symmetry_space_group_name_H-M	'P1'
_symmetry_Int_Tables_number	1
_symmetry_cell_setting	triclinic
loop_
_symmetry_equiv_pos_as_xyz
  x,y,z
_cell_length_a	15.944551
_cell_length_b	14.044220
_cell_length_c	13.101039
_cell_angle_alpha	93.667477
_cell_angle_beta	86.646591
_cell_angle_gamma	88.343808
loop_
_atom_site_label
_atom_site_type_symbol
_atom_site_fract_x
_atom_site_fract_y
_atom_site_fract_z
O1	O	1.127901	0.117026	-0.085109
O2	O	0.884482	0.132096	-0.085135
O3	O	1.002537	-0.013423	-0.085112
O4	O	1.009846	0.262545	-0.085132
O5	O	0.994068	-0.002965	0.085316
O6	O	0.876013	0.142555	0.085293
O7	O	1.119432	0.127484	0.085319
Zn8	Zn	0.996378	0.136680	0.112365
Zn9	Zn	1.007536	0.122901	-0.112181
O10	O	1.001377	0.273003	0.085296
C11	C	0.848906	0.136700	0.000076
C12	C	0.755520	0.134823	0.000066
C13	C	0.995104	-0.043509	0.000102
C14	C	0.985563	-0.148735	0.000102
C15	C	0.968120	-0.341399	0.000085
C16	C	1.035791	-0.399027	0.000090
C17	C	1.026085	-0.506232	0.000080
C18	C	0.977824	-0.234184	0.000095
C19	C	0.533573	0.040140	0.000093
C20	C	0.480021	0.078952	-0.083940
C21	C	0.584540	0.131430	0.000079
C22	C	0.471695	0.089285	0.084089
C23	C	0.419380	0.128147	0.000095
C24	C	0.532221	0.170263	-0.084024
C25	C	0.523897	0.180587	0.084080
C26	C	0.470369	0.219464	0.000027
C27	C	0.679684	0.133319	0.000068
C28	C	0.324238	0.126264	0.000098
C29	C	1.155008	0.122881	0.000106
C30	C	1.248394	0.124757	0.000109
C31	C	1.008810	0.303089	0.000080
C32	C	1.018352	0.408315	0.000073
N33	N	0.988769	0.146083	0.265612
N34	N	1.015152	0.113490	-0.265428
C35	C	0.978417	0.158885	0.474653
C36	C	1.025501	0.100691	0.525538
C37	C	1.019741	0.107814	0.641855
C38	C	0.984176	0.151763	0.358325
H39	H	0.902902	-0.372573	0.000076
H40	H	0.933784	0.214053	0.518441
H41	H	0.561238	-0.035630	-0.000006
H42	H	0.442891	0.295303	-0.000026
C43	C	1.063813	-0.065463	0.492545
C44	C	1.085749	0.026119	0.466553
H45	H	1.101001	-0.111524	0.456160
H46	H	1.067740	-0.070270	0.564106
H47	H	1.007823	-0.076708	0.474979
H48	H	1.141736	0.037367	0.484126
H49	H	1.081830	0.030929	0.394976
C50	C	0.519645	0.196001	0.267900
C51	C	0.550223	0.238550	0.179982
H52	H	0.535905	0.231778	0.327109
H53	H	0.460074	0.194755	0.268932
H54	H	0.542232	0.132618	0.267288
H55	H	0.527630	0.301932	0.180589
H56	H	0.609806	0.239807	0.178949
C57	C	1.137902	-0.306130	-0.087486
C58	C	1.123842	-0.356948	0.000113
H59	H	1.192257	-0.280145	-0.087463
H60	H	1.134276	-0.347883	-0.146913
H61	H	1.096715	-0.255885	-0.087481
H62	H	1.165026	-0.407197	0.000104
H63	H	1.127476	-0.315192	0.059555
C64	C	0.485754	-0.072933	-0.179679
C65	C	0.453725	0.020946	-0.179836
H66	H	0.469516	-0.108747	-0.238876
H67	H	0.545333	-0.072645	-0.180060
H68	H	0.464120	-0.101078	-0.120000
H69	H	0.475364	0.049093	-0.239512
H70	H	0.394133	0.020662	-0.179465
H71	H	0.558632	0.204482	-0.155145
H72	H	0.445186	0.055015	0.155130
