data_functionalizedCrystal
_audit_creation_method	'MofGen! by Chris Wilmer'
_symmetry_space_group_name_H-M	'P1'
_symmetry_Int_Tables_number	1
_symmetry_cell_setting	triclinic
loop_
_symmetry_equiv_pos_as_xyz
  x,y,z
_cell_length_a	14.560438
_cell_length_b	23.196402
_cell_length_c	23.196401
_cell_angle_alpha	60.008822
_cell_angle_beta	90.014604
_cell_angle_gamma	60.000805
loop_
_atom_site_label
_atom_site_type_symbol
_atom_site_fract_x
_atom_site_fract_y
_atom_site_fract_z
Zr1	Zr	0.884767	0.630989	-0.075609
O2	O	0.738089	0.751257	-0.167659
O3	O	0.929728	0.510722	-0.047395
O4	O	0.929688	0.630989	-0.167660
O5	O	0.738165	0.630988	0.047478
O6	O	1.080829	0.630988	-0.167657
O7	O	0.738129	0.630990	-0.047393
O8	O	1.080901	0.415852	0.047476
O9	O	0.738093	0.846124	-0.167655
O10	O	1.061703	0.560187	-0.035355
O11	O	0.948935	0.560188	0.035444
O12	O	0.948887	0.701787	-0.106153
O13	O	0.836120	0.701787	-0.035353
Zr14	Zr	1.125877	0.630983	0.075705
Zr15	Zr	1.125820	0.630986	-0.075604
Zr16	Zr	0.884825	0.630986	0.075700
Zr17	Zr	0.884774	0.782291	-0.075603
Zr18	Zr	1.125871	0.479681	0.075698
O19	O	1.080916	0.751250	0.047490
O20	O	1.080834	0.751253	-0.167652
O21	O	0.738171	0.751254	0.047483
O22	O	1.272556	0.510715	0.167754
O23	O	1.272474	0.510718	-0.047388
O24	O	0.929810	0.510719	0.167747
O25	O	1.272479	0.630984	-0.047382
O26	O	1.080957	0.630982	0.167755
O27	O	0.929816	0.630984	0.167752
O28	O	1.272515	0.630982	0.047489
O29	O	0.929697	0.846122	-0.167651
O30	O	1.080947	0.415850	0.167746
O31	O	1.272552	0.415848	0.167750
O32	O	1.272506	0.415849	0.047480
O33	O	0.738139	0.846122	-0.047384
O34	O	0.929743	0.846120	-0.047380
O35	O	1.061757	0.560185	0.106248
O36	O	1.174525	0.560185	0.035449
O37	O	1.061709	0.701784	-0.035349
O38	O	0.948941	0.701784	0.035450
C39	C	1.005314	0.441730	0.000040
C40	C	1.005311	0.377498	0.000037
C41	C	1.064167	0.347327	-0.036922
C42	C	1.064178	0.286966	-0.036916
C43	C	1.005311	0.256790	0.000039
C44	C	0.946452	0.286964	0.037006
C45	C	0.946453	0.347318	0.037005
C46	C	0.906687	0.194762	-0.005238
C47	C	0.906684	0.134412	-0.005242
C48	C	1.005312	0.070635	0.000046
C49	C	1.103943	0.067222	0.005323
C50	C	1.103943	0.127576	0.005323
C51	C	1.005305	0.191345	0.000044
C52	C	1.064185	-0.024987	-0.036909
C53	C	1.064199	-0.085353	-0.036898
C54	C	0.946463	-0.085348	0.037020
C55	C	0.946460	-0.024989	0.037014
C56	C	1.005319	0.005191	0.000046
C57	C	0.703803	0.630989	0.000042
C58	C	0.601469	0.630991	0.000039
C59	C	0.553366	0.630993	-0.052225
C60	C	0.457220	0.630985	-0.052215
C61	C	0.457287	0.630977	0.052326
C62	C	0.553436	0.630978	0.052318
C63	C	0.601400	0.631005	-0.104504
C64	C	0.553296	0.631008	-0.156773
C65	C	0.457150	0.631000	-0.156763
C66	C	0.409109	0.630990	-0.104485
C67	C	1.306842	0.630982	0.000054
C68	C	1.409175	0.630981	0.000056
C69	C	1.005250	0.630989	-0.189217
C70	C	1.005226	0.630990	-0.253451
C71	C	1.005331	0.820242	0.000056
C72	C	1.005333	0.884474	0.000059
C73	C	0.946343	0.704901	-0.320580
C74	C	0.946371	0.704902	-0.380935
C75	C	1.005268	0.630988	-0.374157
C76	C	1.064163	0.557067	-0.307017
C77	C	1.064143	0.557068	-0.246664
C78	C	0.996901	0.574360	-0.441477
C79	C	0.996914	0.574362	-0.501831
C80	C	1.005339	0.630982	-0.560305
C81	C	1.013727	0.687613	-0.558425
C82	C	1.013707	0.687614	-0.498072
C83	C	1.005297	0.630978	-0.439596
C84	C	0.946484	0.704899	-0.692881
C85	C	0.946520	0.704897	-0.753235
C86	C	1.064305	0.557060	-0.679315
C87	C	1.064276	0.557064	-0.618962
C88	C	1.005359	0.630986	-0.625750
C89	C	1.005394	0.630983	0.189312
C90	C	1.005419	0.630982	0.253547
C91	C	1.306834	0.441726	0.000046
C92	C	1.409164	0.377493	0.000045
C93	C	1.005386	0.441727	0.189304
C94	C	1.005408	0.377494	0.253536
C95	C	1.306906	0.441723	0.189310
C96	C	1.409261	0.377489	0.253544
C97	C	0.703739	0.820249	-0.189215
C98	C	0.601384	0.884483	-0.253449
C99	C	0.703811	0.820246	0.000050
C100	C	0.601481	0.884479	0.000050
C101	C	1.005258	0.820245	-0.189208
C102	C	1.005237	0.884478	-0.253440
C103	C	1.398328	0.347330	-0.036920
C104	C	1.494468	0.286984	-0.036935
C105	C	1.601445	0.256799	0.000020
C106	C	1.612279	0.286968	0.036987
C107	C	1.516139	0.347317	0.036997
C108	C	1.064310	0.347328	0.320665
C109	C	1.064326	0.286983	0.381023
C110	C	1.005446	0.256801	0.374251
C111	C	0.946537	0.286972	0.307115
C112	C	0.946515	0.347320	0.246758
C113	C	1.516201	0.347324	0.246753
C114	C	1.612384	0.286978	0.307102
C115	C	1.601623	0.256794	0.374241
C116	C	1.494671	0.286965	0.381031
C117	C	1.398491	0.347314	0.320683
C118	C	0.494443	0.914655	-0.246657
C119	C	0.398261	0.975020	-0.307006
C120	C	0.409022	1.005208	-0.374146
C121	C	0.515974	0.975033	-0.380936
C122	C	0.612153	0.914673	-0.320588
C123	C	0.612317	0.914648	0.037010
C124	C	0.516176	0.975010	0.037008
C125	C	0.409200	1.005198	0.000050
C126	C	0.398366	0.975026	-0.036914
C127	C	0.494505	0.914669	-0.036915
C128	C	1.064128	0.914641	-0.246645
C129	C	1.064130	0.974987	-0.306992
C130	C	1.005233	1.005172	-0.374133
C131	C	0.946340	0.975003	-0.380927
C132	C	0.946345	0.914654	-0.320581
H133	H	1.112096	0.371896	-0.067022
H134	H	1.485926	0.262380	0.435704
Br135	Br	0.530558	1.016008	-0.472060
Br136	Br	1.144069	0.873689	-0.155533
H137	H	1.112107	0.262397	-0.067014
Br138	Br	0.866610	0.805214	-0.844345
H139	H	1.699460	0.262419	0.301560
Br140	Br	1.253157	0.388284	-0.087082
Br141	Br	1.530866	0.388241	0.087174
Br142	Br	1.144234	0.388273	0.329876
H143	H	1.112301	0.262424	0.435683
H144	H	0.330926	1.054344	0.000057
Br145	Br	0.530906	1.015943	0.087178
Br146	Br	0.253174	1.016001	-0.087065
H147	H	0.699227	0.890107	-0.326126
H148	H	1.184259	0.015287	0.009638
Br149	Br	1.479738	0.246052	-0.087106
Br150	Br	1.253361	0.388242	0.329913
H151	H	0.898373	0.765094	-0.326113
Br152	Br	0.278479	1.087126	-0.456041
Br153	Br	0.866402	0.873732	-0.329815
H154	H	0.990077	0.528253	-0.503357
H155	H	1.112086	0.999544	-0.301447
H156	H	1.679719	0.207659	0.000007
Br157	Br	0.479778	0.873728	-0.087076
Br158	Br	1.005235	1.087076	-0.456026
Br159	Br	1.025090	0.764466	-0.495520
Br160	Br	1.025157	0.764462	-0.637779
Br161	Br	1.757470	0.245992	0.087140
H162	H	1.679948	0.207653	0.423375
H163	H	0.898387	0.999589	-0.435601
Br164	Br	1.005487	0.174899	0.456173
Br165	Br	0.866634	0.246001	0.297936
H166	H	0.826372	0.137200	-0.009543
H167	H	1.184252	0.124792	0.009622
Br168	Br	0.866573	0.388249	0.155656
Br169	Br	1.144070	0.015970	-0.087074
Br170	Br	0.757487	0.873696	0.087170
H171	H	0.417991	0.630995	-0.199318
Br172	Br	1.144080	-0.126298	-0.087063
Br173	Br	0.479808	0.873698	-0.155547
Br174	Br	0.866575	0.246003	0.087169
H175	H	0.898511	0.765091	-0.698408
H176	H	0.898533	-0.109917	0.067110
H177	H	0.898528	-0.000421	0.067107
Br178	Br	1.530836	0.388279	0.155642
H179	H	0.826361	0.246699	-0.009558
Br180	Br	0.985574	0.497462	-0.362097
H181	H	0.898522	0.371884	0.067102
Br182	Br	0.731877	0.631023	-0.104522
Br183	Br	0.618502	0.631008	-0.227711
H184	H	0.311186	0.999578	-0.301464
Br185	Br	0.278635	0.630966	-0.104468
H186	H	0.418164	0.630969	0.094888
Br187	Br	0.866457	0.805217	-0.472051
Br188	Br	0.618727	0.630968	0.123254
H189	H	1.112220	0.496877	-0.564302
Br190	Br	1.144103	0.456754	-0.297816
Br191	Br	1.144056	0.456752	-0.155553
Br192	Br	1.144257	0.456745	-0.670109
