data_functionalizedCrystal
_audit_creation_method	'MofGen! by Chris Wilmer'
_symmetry_space_group_name_H-M	'P1'
_symmetry_Int_Tables_number	1
_symmetry_cell_setting	triclinic
loop_
_symmetry_equiv_pos_as_xyz
  x,y,z
_cell_length_a	12.645330
_cell_length_b	12.827893
_cell_length_c	12.827893
_cell_angle_alpha	89.994487
_cell_angle_beta	90.006456
_cell_angle_gamma	89.984288
loop_
_atom_site_label
_atom_site_type_symbol
_atom_site_fract_x
_atom_site_fract_y
_atom_site_fract_z
Zn1	Zn	-0.422280	-1.597493	0.590902
Zn2	Zn	-0.599511	-1.597427	0.416165
Zn3	Zn	-0.422256	-1.422782	0.416171
Zn4	Zn	-0.599495	-1.422713	0.590860
O5	O	-0.510885	-1.510104	0.503524
O6	O	-0.445806	-1.743720	0.567738
O7	O	-0.575994	-1.574262	0.269930
O8	O	-0.273912	-1.446014	0.439369
O9	O	-0.576017	-1.743672	0.439360
O10	O	-0.273929	-1.574374	0.567744
O11	O	-0.445765	-1.445950	0.269934
O12	O	-0.445750	-1.276537	0.439328
O13	O	-0.575991	-1.445896	0.737101
O14	O	-0.575968	-1.276486	0.567671
O15	O	-0.445791	-1.574307	0.737133
O16	O	-0.747856	-1.574195	0.439319
O17	O	-0.747845	-1.445833	0.567666
C18	C	-0.510856	-1.238594	0.503496
C19	C	-0.510868	-1.122441	0.503509
C20	C	-0.575200	-1.070632	0.439897
C21	C	-0.575214	-0.950582	0.439909
C22	C	-0.786315	-1.510028	0.503510
C23	C	-0.904145	-1.510091	0.503538
C24	C	-1.071746	-1.429671	0.584531
C25	C	-0.949187	-1.429260	0.584270
C26	C	-0.948702	-1.480308	0.393407
C27	C	-1.071301	-1.479817	0.393898
C28	C	-1.071248	-1.620785	0.531785
C29	C	-0.948641	-1.620106	0.534193
C30	C	-0.234380	-1.510209	0.503562
C31	C	-0.116550	-1.510254	0.503578
C32	C	-0.510892	-1.510101	0.776094
C33	C	-0.510895	-1.510100	0.892248
C34	C	-0.510907	-0.782674	0.503545
C35	C	-0.510895	-0.898827	0.503532
C36	C	-0.446476	-1.573635	0.944048
C37	C	-0.446478	-1.573635	1.064098
C38	C	-0.510902	-1.510099	1.232015
C39	C	-0.510899	-1.510100	1.115861
H40	H	-0.455806	-1.077919	0.557982
H41	H	-0.455811	-0.943374	0.557991
C42	C	-0.584507	-1.437736	1.056342
C43	C	-0.652382	-1.496941	0.993660
C44	C	-0.720194	-1.430317	0.938796
H45	H	-0.625027	-1.397850	1.104268
H46	H	-0.543938	-1.392276	1.013701
H47	H	-0.692946	-1.542382	1.036297
H48	H	-0.611891	-1.536825	0.945715
H49	H	-0.679625	-1.384857	0.896155
H50	H	-0.760706	-1.390434	0.986729
H51	H	-0.766248	-1.470477	0.896252
C52	C	-0.372757	-1.646038	0.884737
C53	C	-0.267840	-1.623333	0.911201
C54	C	-0.199899	-1.690002	0.856576
H55	H	-0.388124	-1.716300	0.902531
H56	H	-0.382460	-1.636387	0.811930
H57	H	-0.258141	-1.632993	0.983991
H58	H	-0.252440	-1.553083	0.893404
H59	H	-0.209603	-1.680351	0.783769
H60	H	-0.215275	-1.760260	0.874374
H61	H	-0.128705	-1.674600	0.874516
H62	H	-0.630269	-1.115154	0.385432
C63	C	-0.372972	-1.646051	1.123675
C64	C	-0.387559	-1.631627	1.230902
C65	C	-0.319850	-1.698309	1.285818
H66	H	-0.388405	-1.716319	1.105971
H67	H	-0.301704	-1.630785	1.105906
H68	H	-0.458810	-1.646901	1.248664
H69	H	-0.372118	-1.561373	1.248638
H70	H	-0.248582	-1.683043	1.268049
H71	H	-0.335289	-1.768573	1.268106
H72	H	-0.329731	-1.688525	1.358577
H73	H	-0.566041	-1.455699	0.936776
C74	C	-0.909215	-1.454045	0.693242
C75	C	-0.995451	-1.469538	0.759911
C76	C	-0.958677	-1.492348	0.860312
H77	H	-0.867297	-1.515471	0.691247
H78	H	-0.867701	-1.397567	0.718129
H79	H	-1.036948	-1.526012	0.735030
H80	H	-1.037378	-1.408125	0.761937
H81	H	-0.917163	-1.435870	0.885200
H82	H	-0.916758	-1.553772	0.858306
H83	H	-1.017181	-1.502854	0.905561
H84	H	-0.630289	-0.906028	0.385446
H85	H	-1.101185	-1.448130	0.666461
H86	H	-1.102638	-1.348239	0.566082
H87	H	-1.100940	-1.535965	0.331525
C88	C	-0.910391	-1.319945	0.559272
C89	C	-0.997339	-1.254009	0.544346
C90	C	-0.961643	-1.153301	0.521296
H91	H	-0.868708	-1.294681	0.615453
H92	H	-0.868891	-1.321620	0.497562
H93	H	-1.038822	-1.252330	0.606050
H94	H	-1.039031	-1.279239	0.488162
H95	H	-0.920142	-1.154976	0.459585
H96	H	-0.919959	-1.128048	0.577480
H97	H	-1.020630	-1.108554	0.511156
C98	C	-1.109343	-1.372001	0.362075
C99	C	-1.021942	-1.307918	0.342579
C100	C	-1.056939	-1.208584	0.313276
H101	H	-1.151171	-1.377231	0.300788
H102	H	-1.150532	-1.342850	0.416725
H103	H	-0.980771	-1.337062	0.287933
H104	H	-0.980105	-1.302657	0.403852
H105	H	-1.098128	-1.179433	0.367927
H106	H	-1.098768	-1.213825	0.251991
H107	H	-0.997644	-1.165089	0.300054
H108	H	-0.919526	-1.537141	0.331442
H109	H	-0.918080	-1.400352	0.369080
C110	C	-1.112330	-1.657231	0.637004
C111	C	-1.070515	-1.755742	0.659643
C112	C	-1.108349	-1.789342	0.756558
H113	H	-1.091376	-1.609203	0.689435
H114	H	-1.187320	-1.661246	0.634948
H115	H	-0.995541	-1.751720	0.661707
H116	H	-1.091465	-1.803793	0.607238
H117	H	-1.183340	-1.793357	0.754502
H118	H	-1.087393	-1.741307	0.808981
H119	H	-1.079992	-1.856188	0.771927
H120	H	-0.919518	-1.642567	0.615244
H121	H	-0.917975	-1.683303	0.479525
H122	H	-1.100218	-1.680821	0.472823
