data_functionalizedCrystal
_audit_creation_method	'MofGen! by Chris Wilmer'
_symmetry_space_group_name_H-M	'P1'
_symmetry_Int_Tables_number	1
_symmetry_cell_setting	triclinic
loop_
_symmetry_equiv_pos_as_xyz
  x,y,z
_cell_length_a	14.044220
_cell_length_b	9.065218
_cell_length_c	8.140239
_cell_angle_alpha	90.001686
_cell_angle_beta	89.997843
_cell_angle_gamma	89.102381
loop_
_atom_site_label
_atom_site_type_symbol
_atom_site_fract_x
_atom_site_fract_y
_atom_site_fract_z
O1	O	-1.260761	-0.356074	-0.136426
O2	O	-0.984682	-0.343225	-0.136468
O3	O	-1.128428	-0.135640	-0.136443
O4	O	-1.117015	-0.563660	-0.136451
O5	O	-1.128420	-0.135636	0.136784
O6	O	-0.984674	-0.343222	0.136759
O7	O	-1.260753	-0.356071	0.136801
Zn8	Zn	-1.122712	-0.349646	0.180160
Zn9	Zn	-1.122723	-0.349650	-0.179828
O10	O	-1.117007	-0.563656	0.136776
C11	C	-0.949315	-0.337599	0.000140
C12	C	-0.843945	-0.320822	0.000124
C13	C	-1.127327	-0.080530	0.000168
C14	C	-1.124048	0.083677	0.000159
C15	C	-1.296120	-0.361697	0.000189
C16	C	-1.401490	-0.378474	0.000195
C17	C	-0.651021	-0.290150	0.000157
C18	C	-0.594409	-0.409139	0.000161
C19	C	-0.487059	-0.392073	0.000180
C20	C	-0.758381	-0.307214	0.000138
C21	C	-1.118108	-0.618766	0.000161
C22	C	-1.121388	-0.782972	0.000159
N23	N	-1.122712	-0.349642	0.425843
N24	N	-1.122731	-0.349643	-0.425511
H25	H	-0.626565	-0.523826	0.000151
O26	O	-0.612512	-0.153444	0.000083
C27	C	-0.512347	-0.166626	0.000137
H28	H	-0.490213	-0.278888	-0.051577
H29	H	-0.484729	-0.155904	0.131221
C30	C	-0.497325	0.094018	-0.043502
C31	C	-0.470139	-0.043859	-0.107032
H32	H	-0.471287	0.169749	-0.109602
H33	H	-0.564807	0.102901	-0.043532
H34	H	-0.474308	0.102933	0.065733
H35	H	-0.493166	-0.052779	-0.216256
H36	H	-0.402659	-0.052741	-0.107022
