data_functionalizedCrystal
_audit_creation_method	'MofGen! by Chris Wilmer'
_symmetry_space_group_name_H-M	'P1'
_symmetry_Int_Tables_number	1
_symmetry_cell_setting	triclinic
loop_
_symmetry_equiv_pos_as_xyz
  x,y,z
_cell_length_a	19.077068
_cell_length_b	19.805407
_cell_length_c	19.805399
_cell_angle_alpha	89.980427
_cell_angle_beta	87.730571
_cell_angle_gamma	87.672914
loop_
_atom_site_label
_atom_site_type_symbol
_atom_site_fract_x
_atom_site_fract_y
_atom_site_fract_z
Zn1	Zn	-0.280218	-1.023904	0.393534
Zn2	Zn	0.053115	-0.690571	0.726867
Zn3	Zn	0.386449	-0.357237	1.060201
Zn4	Zn	-0.397917	-1.019269	0.284888
Zn5	Zn	-0.064584	-0.685936	0.618221
Zn6	Zn	0.268750	-0.352603	0.951555
Zn7	Zn	-0.280237	-0.910718	0.280359
Zn8	Zn	0.053096	-0.577385	0.613693
Zn9	Zn	0.386429	-0.244051	0.947026
Zn10	Zn	-0.397880	-0.906134	0.398033
Zn11	Zn	-0.064546	-0.572801	0.731367
Zn12	Zn	0.268787	-0.239467	1.064700
O13	O	-0.339063	-0.965006	0.339204
O14	O	-0.005730	-0.631673	0.672537
O15	O	0.327604	-0.298340	1.005870
O16	O	-0.295839	-1.118005	0.379134
O17	O	0.037495	-0.784672	0.712467
O18	O	0.370828	-0.451339	1.045801
O19	O	-0.382330	-1.004848	0.189571
O20	O	-0.048997	-0.671515	0.522905
O21	O	0.284336	-0.338182	0.856238
O22	O	-0.181744	-0.929590	0.291594
O23	O	0.151590	-0.596257	0.624927
O24	O	0.484923	-0.262924	0.958260
O25	O	-0.382312	-1.114600	0.299312
O26	O	-0.048978	-0.781267	0.632646
O27	O	0.284355	-0.447934	0.965979
O28	O	-0.181729	-1.012748	0.374743
O29	O	0.151604	-0.679414	0.708076
O30	O	0.484937	-0.346081	1.041409
O31	O	-0.295872	-0.925096	0.186244
O32	O	0.037462	-0.591763	0.519578
O33	O	0.370795	-0.258429	0.852911
O34	O	-0.295835	-0.815394	0.295957
O35	O	0.037498	-0.482060	0.629290
O36	O	0.370831	-0.148727	0.962623
O37	O	-0.382248	-0.921778	0.492152
O38	O	-0.048915	-0.588444	0.825485
O39	O	0.284419	-0.255111	1.158819
O40	O	-0.382267	-0.812026	0.382411
O41	O	-0.048933	-0.478692	0.715745
O42	O	0.284400	-0.145359	1.049078
O43	O	-0.295802	-1.008303	0.488846
O44	O	0.037531	-0.674970	0.822180
O45	O	0.370864	-0.341636	1.155513
O46	O	-0.496403	-1.000404	0.303675
O47	O	-0.163070	-0.667070	0.637008
O48	O	0.170263	-0.333737	0.970342
O49	O	-0.496376	-0.917284	0.386802
O50	O	-0.163043	-0.583950	0.720136
O51	O	0.170291	-0.250617	1.053469
C52	C	-0.339050	-0.789151	0.339181
C53	C	-0.005716	-0.455817	0.672514
C54	C	0.327617	-0.122484	1.005848
C55	C	-0.339061	-0.713918	0.339188
C56	C	-0.005727	-0.380585	0.672522
C57	C	0.327606	-0.047252	1.005855
C58	C	-0.521927	-0.957862	0.346233
C59	C	-0.188594	-0.624528	0.679567
C60	C	0.144739	-0.291195	1.012900
C61	C	-0.600157	-0.954867	0.349263
C62	C	-0.266824	-0.621534	0.682596
C63	C	0.066509	-0.288200	1.015930
C64	C	-0.339019	-0.965046	0.515745
C65	C	-0.005685	-0.631713	0.849078
C66	C	0.327648	-0.298379	1.182411
C67	C	-0.339000	-0.965063	0.590976
C68	C	-0.005667	-0.631730	0.924309
C69	C	0.327667	-0.298396	1.257643
C70	C	-0.636901	-0.996770	0.307443
C71	C	-0.303568	-0.663437	0.640776
C72	C	0.029766	-0.330103	0.974109
C73	C	-0.710406	-0.993957	0.310296
C74	C	-0.377073	-0.660624	0.643630
C75	C	-0.043740	-0.327291	0.976963
C76	C	-0.747167	-0.949238	0.354968
C77	C	-0.413834	-0.615905	0.688301
C78	C	-0.080500	-0.282571	1.021634
C79	C	-0.710418	-0.907333	0.396793
C80	C	-0.377085	-0.574000	0.730126
C81	C	-0.043752	-0.240667	1.063460
C82	C	-0.636914	-0.910150	0.393942
C83	C	-0.303581	-0.576817	0.727275
C84	C	0.029753	-0.243483	1.060609
C85	C	-0.967002	-0.936174	0.368135
C86	C	-0.633668	-0.602840	0.701468
C87	C	-0.300335	-0.269507	1.034801
C88	C	-1.040511	-0.933359	0.370981
C89	C	-0.707178	-0.600025	0.704314
C90	C	-0.373844	-0.266692	1.037647
C91	C	-1.040494	-1.019984	0.284485
C92	C	-0.707161	-0.686651	0.617818
C93	C	-0.373828	-0.353317	0.951151
C94	C	-0.966989	-1.022794	0.281635
C95	C	-0.633655	-0.689460	0.614968
C96	C	-0.300322	-0.356127	0.948302
C97	C	-0.930246	-0.980892	0.323463
C98	C	-0.596913	-0.647558	0.656796
C99	C	-0.263580	-0.314225	0.990129
N100	N	-0.822301	-0.946361	0.357884
N101	N	-0.488968	-0.613027	0.691218
N102	N	-0.155635	-0.279694	1.024551
N103	N	-0.855113	-0.983773	0.320549
N104	N	-0.521780	-0.650440	0.653882
N105	N	-0.188447	-0.317106	0.987216
C106	C	-0.155485	-0.972197	0.332161
C107	C	0.177849	-0.638864	0.665495
C108	C	0.511182	-0.305531	0.998828
C109	C	-0.077255	-0.975262	0.329160
C110	C	0.256079	-0.641928	0.662494
C111	C	0.589412	-0.308595	0.995827
C112	C	-0.339077	-1.141548	0.339226
C113	C	-0.005744	-0.808215	0.672560
C114	C	0.327590	-0.474882	1.005893
C115	C	-0.339083	-1.216780	0.339236
C116	C	-0.005750	-0.883447	0.672570
C117	C	0.327584	-0.550114	1.005903
C118	C	-0.384133	-0.676836	0.384138
C119	C	-0.050800	-0.343502	0.717471
C120	C	0.282533	-0.010169	1.050804
C121	C	-0.384135	-0.606147	0.384147
C122	C	-0.050801	-0.272814	0.717481
C123	C	0.282532	0.060519	1.050814
C124	C	-0.339066	-0.572543	0.339204
C125	C	-0.005733	-0.239209	0.672537
C126	C	0.327600	0.094124	1.005870
C127	C	-0.293989	-0.609630	0.294252
C128	C	0.039345	-0.276297	0.627585
C129	C	0.372678	0.057036	0.960919
C130	C	-0.293985	-0.680318	0.294246
C131	C	0.039349	-0.346984	0.627580
C132	C	0.372682	-0.013651	0.960913
C133	C	-0.294004	-0.324556	0.294275
C134	C	0.039329	0.008777	0.627608
C135	C	0.372662	0.342110	0.960942
C136	C	-0.294014	-0.253864	0.294283
C137	C	0.039320	0.079469	0.627616
C138	C	0.372653	0.412803	0.960950
C139	C	-0.384154	-0.250386	0.384176
C140	C	-0.050821	0.082947	0.717509
C141	C	0.282512	0.416281	1.050843
C142	C	-0.384150	-0.321073	0.384170
C143	C	-0.050817	0.012260	0.717504
C144	C	0.282517	0.345593	1.050837
C145	C	-0.339070	-0.358155	0.339221
C146	C	-0.005737	-0.024822	0.672555
C147	C	0.327596	0.308512	1.005888
C148	C	-0.339069	-0.434804	0.339212
C149	C	-0.005735	-0.101470	0.672546
C150	C	0.327598	0.231863	1.005879
C151	C	-0.339071	-0.495895	0.339209
C152	C	-0.005738	-0.162562	0.672542
C153	C	0.327596	0.170771	1.005875
C154	C	-0.339056	-0.965008	0.163347
C155	C	-0.005723	-0.631674	0.496681
C156	C	0.327610	-0.298341	0.830014
C157	C	-0.338877	-0.965130	0.088109
C158	C	-0.005544	-0.631796	0.421442
C159	C	0.327790	-0.298463	0.754775
C160	C	-0.293985	-1.010118	0.624600
C161	C	0.039348	-0.676784	0.957933
C162	C	0.372681	-0.343451	1.291267
C163	C	-0.293965	-1.010125	0.695288
C164	C	0.039368	-0.676792	1.028621
C165	C	0.372702	-0.343459	1.361954
C166	C	-0.338963	-0.965081	0.732350
C167	C	-0.005630	-0.631748	1.065683
C168	C	0.327704	-0.298414	1.399017
C169	C	-0.383980	-0.920022	0.698721
C170	C	-0.050646	-0.586688	1.032055
C171	C	0.282687	-0.253355	1.365388
C172	C	-0.383996	-0.920011	0.628035
C173	C	-0.050663	-0.586678	0.961368
C174	C	0.282671	-0.253344	1.294701
C175	C	-0.383914	-0.920062	0.983792
C176	C	-0.050581	-0.586729	1.317126
C177	C	0.282753	-0.253396	1.650459
C178	C	-0.383896	-0.920078	1.054484
C179	C	-0.050562	-0.586744	1.387817
C180	C	0.282771	-0.253411	1.721150
C181	C	-0.293883	-1.010177	1.051045
C182	C	0.039450	-0.676843	1.384378
C183	C	0.372784	-0.343510	1.717712
C184	C	-0.293899	-1.010166	0.980358
C185	C	0.039434	-0.676833	1.313692
C186	C	0.372767	-0.343499	1.647025
C187	C	-0.338913	-0.965104	0.946736
C188	C	-0.005580	-0.631771	1.280069
C189	C	0.327754	-0.298438	1.613402
C190	C	-0.338934	-0.965096	0.870088
C191	C	-0.005600	-0.631762	1.203421
C192	C	0.327733	-0.298429	1.536755
C193	C	-0.338947	-0.965093	0.808997
C194	C	-0.005613	-0.631759	1.142330
C195	C	0.327720	-0.298426	1.475663
H196	H	-0.606975	-1.033182	0.271063
H197	H	-0.273642	-0.699849	0.604397
H198	H	0.059691	-0.366515	0.937730
Cl199	Cl	-0.237326	-0.567385	0.237755
Cl200	Cl	0.096007	-0.234051	0.571089
Cl201	Cl	0.429340	0.099282	0.904422
Cl202	Cl	-1.086689	-1.072662	0.231909
Cl203	Cl	-0.753355	-0.739328	0.565243
Cl204	Cl	-0.420022	-0.405995	0.898576
H205	H	-0.420644	-0.883316	0.600659
H206	H	-0.087311	-0.549983	0.933992
H207	H	0.246022	-0.216650	1.267326
Cl208	Cl	-0.756632	-0.851118	0.452956
Cl209	Cl	-0.423298	-0.517785	0.786289
Cl210	Cl	-0.089965	-0.184452	1.119622
H211	H	-0.606998	-0.876029	0.427998
H212	H	-0.273665	-0.542696	0.761331
H213	H	0.059669	-0.209362	1.094664
Cl214	Cl	-0.237318	-0.726936	0.237738
Cl215	Cl	0.096016	-0.393603	0.571071
Cl216	Cl	0.429349	-0.060270	0.904404
H217	H	-0.420836	-0.704191	0.420734
H218	H	-0.087502	-0.370858	0.754067
H219	H	0.245831	-0.037525	1.087401
Cl220	Cl	-0.440800	-0.559532	0.440658
Cl221	Cl	-0.107467	-0.226198	0.773991
Cl222	Cl	0.225867	0.107135	1.107325
Cl223	Cl	-1.086724	-0.877127	0.427135
Cl224	Cl	-0.753390	-0.543794	0.760468
Cl225	Cl	-0.420057	-0.210461	1.093801
H226	H	-0.420852	-0.348430	0.420766
H227	H	-0.087518	-0.015097	0.754099
H228	H	0.245815	0.318236	1.087432
Cl229	Cl	-0.440827	-0.203765	0.440685
Cl230	Cl	-0.107493	0.129569	0.774018
Cl231	Cl	0.225840	0.462902	1.107351
H232	H	-0.257311	-1.046815	0.722661
H233	H	0.076022	-0.713482	1.055994
H234	H	0.409355	-0.380148	1.389328
H235	H	-0.257309	-0.226505	0.257684
H236	H	0.076024	0.106828	0.591018
H237	H	0.409357	0.440161	0.924351
H238	H	-0.257345	-1.046800	0.594428
H239	H	0.075988	-0.713467	0.927762
H240	H	0.409322	-0.380133	1.261095
Cl241	Cl	-0.237291	-1.066824	1.093318
Cl242	Cl	0.096042	-0.733491	1.426651
Cl243	Cl	0.429376	-0.400157	1.759984
H244	H	-0.257260	-1.046848	0.950185
H245	H	0.076074	-0.713515	1.283519
H246	H	0.409407	-0.380181	1.616852
H247	H	-0.420540	-0.883394	1.084658
H248	H	-0.087207	-0.550061	1.417992
H249	H	0.246127	-0.216728	1.751325
H250	H	-0.740320	-1.028079	0.276241
H251	H	-0.406987	-0.694745	0.609574
H252	H	-0.073653	-0.361412	0.942908
Cl253	Cl	-0.237331	-0.371164	0.237770
Cl254	Cl	0.096003	-0.037831	0.571103
Cl255	Cl	0.429336	0.295502	0.904436
Cl256	Cl	-0.920781	-1.079024	0.225484
Cl257	Cl	-0.587447	-0.745691	0.558817
Cl258	Cl	-0.254114	-0.412357	0.892150
H259	H	-0.937092	-0.902054	0.402191
H260	H	-0.603759	-0.568721	0.735524
H261	H	-0.270425	-0.235387	1.068858
H262	H	-0.420577	-0.883380	0.956426
H263	H	-0.087244	-0.550047	1.289759
H264	H	0.246090	-0.216713	1.623092
H265	H	-0.420615	-0.883343	0.728903
H266	H	-0.087282	-0.550010	1.062237
H267	H	0.246051	-0.216677	1.395570
