data_functionalizedCrystal
_audit_creation_method	'MofGen! by Chris Wilmer'
_symmetry_space_group_name_H-M	'P1'
_symmetry_Int_Tables_number	1
_symmetry_cell_setting	triclinic
loop_
_symmetry_equiv_pos_as_xyz
  x,y,z
_cell_length_a	15.995343
_cell_length_b	15.995292
_cell_length_c	16.176319
_cell_angle_alpha	89.996390
_cell_angle_beta	89.996905
_cell_angle_gamma	83.478900
loop_
_atom_site_label
_atom_site_type_symbol
_atom_site_fract_x
_atom_site_fract_y
_atom_site_fract_z
O1	O	1.110970	0.107901	-0.068658
O2	O	1.610970	0.607901	0.431342
O3	O	0.867191	0.121235	-0.068677
O4	O	1.367191	0.621235	0.431323
O5	O	0.995770	-0.007323	-0.068668
O6	O	1.495770	0.492677	0.431332
O7	O	0.982392	0.236459	-0.068666
O8	O	1.482392	0.736459	0.431334
O9	O	0.995752	-0.007331	0.068825
O10	O	1.495752	0.492669	0.568825
O11	O	0.867174	0.121227	0.068816
O12	O	1.367174	0.621227	0.568816
O13	O	1.110953	0.107892	0.068836
O14	O	1.610953	0.607892	0.568836
Cu15	Cu	0.989062	0.114559	0.081380
Cu16	Cu	1.489062	0.614559	0.581380
Cu17	Cu	0.989083	0.114569	-0.081221
Cu18	Cu	1.489083	0.614569	0.418779
O19	O	0.982374	0.236451	0.068827
O20	O	1.482374	0.736451	0.568827
C21	C	0.835988	0.120681	0.000067
C22	C	1.335988	0.620681	0.500067
C23	C	0.743037	0.119032	0.000060
C24	C	1.243037	0.619032	0.500060
C25	C	0.572852	0.116038	0.000071
C26	C	1.072852	0.616038	0.500071
C27	C	0.549525	0.023238	0.000070
C28	C	1.049525	0.523238	0.500070
C29	C	0.452848	0.021493	0.000387
C30	C	0.952848	0.521493	0.500387
C31	C	0.405292	0.113089	0.000081
C32	C	0.905292	0.613089	0.500081
C33	C	0.434364	0.159746	0.078440
C34	C	0.934364	0.659746	0.578440
C35	C	0.531156	0.160846	0.078501
C36	C	1.031156	0.660846	0.578501
C37	C	0.531087	0.162215	-0.077860
C38	C	1.031087	0.662215	0.422140
C39	C	0.434593	0.158789	-0.078885
C40	C	0.934593	0.658789	0.421115
C41	C	0.310595	0.111428	0.000089
C42	C	0.810595	0.611428	0.500089
C43	C	0.667549	0.117702	0.000068
C44	C	1.167549	0.617702	0.500068
C45	C	0.995217	-0.038523	0.000077
C46	C	1.495217	0.461477	0.500077
C47	C	0.993584	-0.131476	0.000070
C48	C	1.493584	0.368524	0.500070
C49	C	0.987583	-0.469214	0.000077
C50	C	1.487583	0.030786	0.500077
C51	C	1.080388	-0.445904	0.000392
C52	C	1.580388	0.054096	0.500392
C53	C	1.082152	-0.349229	0.000079
C54	C	1.582152	0.150771	0.500079
C55	C	0.990561	-0.301658	0.000074
C56	C	1.490561	0.198342	0.500074
C57	C	0.944173	-0.330753	-0.078442
C58	C	1.444173	0.169247	0.421558
C59	C	0.943056	-0.427544	-0.078505
C60	C	1.443056	0.072456	0.421495
C61	C	0.941141	-0.427410	0.077850
C62	C	1.441141	0.072590	0.577850
C63	C	0.944580	-0.330918	0.078885
C64	C	1.444580	0.169082	0.578885
C65	C	0.992239	-0.206962	0.000070
C66	C	1.492239	0.293038	0.500070
C67	C	0.985902	-0.563910	0.000076
C68	C	1.485902	-0.063910	0.500076
C69	C	1.142156	0.108447	0.000090
C70	C	1.642156	0.608447	0.500090
C71	C	1.235107	0.110096	0.000092
C72	C	1.735107	0.610096	0.500092
C73	C	0.982927	0.267650	0.000080
C74	C	1.482927	0.767650	0.500080
C75	C	0.984560	0.360603	0.000081
C76	C	1.484560	0.860603	0.500081
N77	N	0.989053	0.114552	0.195745
N78	N	1.489053	0.614552	0.695745
N79	N	0.989098	0.114569	-0.195587
N80	N	1.489098	0.614569	0.304413
C81	C	1.046005	0.057649	0.239014
C82	C	1.546005	0.557649	0.739014
C83	C	1.046009	0.057648	0.325561
C84	C	1.546009	0.557648	0.825561
C85	C	0.989065	0.114554	0.368838
C86	C	1.489065	0.614554	0.868838
C87	C	0.932107	0.171460	0.325564
C88	C	1.432107	0.671460	0.825564
C89	C	0.932099	0.171456	0.239018
C90	C	1.432099	0.671456	0.739018
C91	C	0.932136	0.171475	0.674592
C92	C	1.432136	0.671475	1.174592
C93	C	0.932149	0.171476	0.761144
C94	C	1.432149	0.671476	1.261144
C95	C	1.046045	0.057668	0.761134
C96	C	1.546045	0.557668	1.261134
C97	C	1.046038	0.057664	0.674589
C98	C	1.546038	0.557664	1.174589
C99	C	0.989077	0.114566	0.631322
C100	C	1.489077	0.614566	1.131322
C101	C	0.989072	0.114565	0.537478
C102	C	1.489072	0.614565	1.037478
C103	C	0.989073	0.114560	0.462681
C104	C	1.489073	0.614560	0.962681
H105	H	0.402504	0.227158	0.081135
H106	H	0.902504	0.727158	0.581135
O107	O	0.586640	-0.024434	-0.074338
O108	O	1.086640	0.475566	0.425662
H109	H	0.629777	-0.079653	-0.053448
H110	H	1.129777	0.420347	0.446552
H111	H	1.115968	-0.474920	-0.055595
H112	H	1.615968	0.025080	0.444405
H113	H	0.559371	0.132940	-0.137272
H114	H	1.059371	0.632940	0.362728
H115	H	0.976401	-0.310690	-0.136870
H116	H	1.476401	0.189310	0.363130
H117	H	0.414272	0.127727	0.136976
H118	H	0.914272	0.627727	0.636976
O119	O	0.979639	-0.464833	0.156686
O120	O	1.479639	0.035167	0.656686
H121	H	1.032310	-0.513652	0.141312
H122	H	1.532310	-0.013652	0.641312
O123	O	0.856023	-0.287248	0.085163
O124	O	1.356023	0.212752	0.585163
H125	H	0.825404	-0.309324	0.141423
H126	H	1.325404	0.190676	0.641423
H127	H	1.118482	-0.330208	0.056362
H128	H	1.618482	0.169792	0.556362
H129	H	0.885775	0.217818	0.796379
H130	H	1.385775	0.717818	1.296379
H131	H	0.416050	0.124812	-0.136856
H132	H	0.916050	0.624812	0.363144
O133	O	0.989313	-0.306323	0.155829
O134	O	1.489313	0.193677	0.655829
H135	H	0.956434	-0.327223	0.211253
H136	H	1.456434	0.172777	0.711253
O137	O	0.587907	-0.023644	0.074393
O138	O	1.087907	0.476356	0.574393
H139	H	0.623522	0.018863	0.111334
H140	H	1.123522	0.518863	0.611334
H141	H	0.872829	-0.441399	0.078376
H142	H	1.372829	0.058601	0.578376
H143	H	1.118711	-0.330822	-0.056298
H144	H	1.618711	0.169178	0.443702
O145	O	0.390951	0.247333	-0.085465
O146	O	0.890951	0.747333	0.414535
H147	H	0.347506	0.260211	-0.032315
H148	H	0.847506	0.760211	0.467685
H149	H	1.092379	0.011313	0.203783
H150	H	1.592379	0.511313	0.703783
H151	H	0.885758	0.217808	0.639371
H152	H	1.385758	0.717808	1.139371
O153	O	0.870674	0.232823	0.192336
O154	O	1.370674	0.732823	0.692336
H155	H	0.881325	0.298109	0.208923
H156	H	1.381325	0.798109	0.708923
H157	H	0.545715	0.228899	0.081852
H158	H	1.045715	0.728899	0.581852
O159	O	0.986041	-0.463124	-0.156020
O160	O	1.486041	0.036876	0.343980
H161	H	1.007387	-0.411167	-0.193130
H162	H	1.507387	0.088833	0.306870
H163	H	0.875011	-0.442092	-0.082066
H164	H	1.375011	0.057908	0.417934
O165	O	1.107450	-0.003709	0.372232
O166	O	1.607450	0.496291	0.872232
H167	H	1.147058	-0.043268	0.327598
H168	H	1.647058	0.456732	0.827598
O169	O	0.549609	0.252699	-0.078868
O170	O	1.049609	0.752699	0.421132
H171	H	0.584465	0.264759	-0.136183
H172	H	1.084465	0.764759	0.363817
O173	O	1.107451	-0.003717	0.627909
O174	O	1.607451	0.496283	1.127909
H175	H	1.147048	-0.043293	0.672536
H176	H	1.647048	0.456707	1.172536
H177	H	1.116152	-0.473906	0.056699
H178	H	1.616152	0.026094	0.556699
O179	O	0.854898	-0.288537	-0.082329
O180	O	1.354898	0.211463	0.417671
H181	H	0.842615	-0.246266	-0.028213
H182	H	1.342615	0.253734	0.471787
O183	O	1.107478	-0.003717	0.807799
O184	O	1.607478	0.496283	1.307799
H185	H	1.097913	0.005835	0.875250
H186	H	1.597913	0.505835	1.375250
H187	H	0.557941	0.128906	0.137298
H188	H	1.057941	0.628906	0.637298
H189	H	0.885738	0.217791	0.360805
H190	H	1.385738	0.717791	0.860805
H191	H	0.434411	-0.014866	0.056886
H192	H	0.934411	0.485134	0.556886
O193	O	0.427666	-0.026906	-0.073987
O194	O	0.927666	0.473094	0.426013
H195	H	0.484590	-0.049274	-0.110505
H196	H	0.984590	0.450726	0.389495
