data_functionalizedCrystal
_audit_creation_method	'MofGen! by Chris Wilmer'
_symmetry_space_group_name_H-M	'P1'
_symmetry_Int_Tables_number	1
_symmetry_cell_setting	triclinic
loop_
_symmetry_equiv_pos_as_xyz
  x,y,z
_cell_length_a	14.519731
_cell_length_b	18.366186
_cell_length_c	19.288865
_cell_angle_alpha	89.988521
_cell_angle_beta	83.412550
_cell_angle_gamma	89.990864
loop_
_atom_site_label
_atom_site_type_symbol
_atom_site_fract_x
_atom_site_fract_y
_atom_site_fract_z
O1	O	1.223283	-0.060560	0.091121
O2	O	1.723283	0.439440	0.591121
O3	O	0.954741	-0.060562	0.101828
O4	O	1.454741	0.439438	0.601828
O5	O	1.096772	-0.060547	-0.004627
O6	O	1.596772	0.439453	0.495373
O7	O	1.081253	-0.060575	0.197577
O8	O	1.581253	0.439425	0.697577
O9	O	1.096748	0.060553	-0.004633
O10	O	1.596748	0.560553	0.495367
O11	O	0.954717	0.060537	0.101823
O12	O	1.454717	0.560537	0.601823
O13	O	1.223259	0.060539	0.091116
O14	O	1.723259	0.560539	0.591116
Zn15	Zn	1.088984	0.079766	0.096469
Zn16	Zn	1.588984	0.579766	0.596469
Zn17	Zn	1.089016	-0.079788	0.096476
Zn18	Zn	1.589016	0.420212	0.596476
O19	O	1.081229	0.060524	0.197571
O20	O	1.581229	0.560524	0.697571
C21	C	0.920373	-0.000012	0.101324
C22	C	1.420373	0.499988	0.601324
C23	C	0.818002	-0.000013	0.099820
C24	C	1.318002	0.499987	0.599820
C25	C	1.096260	0.000005	-0.030508
C26	C	1.596260	0.500005	0.469492
C27	C	1.094761	0.000012	-0.107617
C28	C	1.594761	0.500012	0.392383
C29	C	0.734866	-0.000015	0.098599
C30	C	1.234866	0.499985	0.598599
C31	C	0.630567	-0.000015	0.097073
C32	C	1.130567	0.499985	0.597073
C33	C	0.547435	-0.000015	0.095861
C34	C	1.047435	0.499985	0.595861
C35	C	0.443130	-0.000017	0.094335
C36	C	0.943130	0.499983	0.594335
C37	C	1.257627	-0.000012	0.091620
C38	C	1.757627	0.499988	0.591620
C39	C	1.359998	-0.000016	0.093124
C40	C	1.859998	0.499984	0.593124
N41	N	1.088969	0.188657	0.096463
N42	N	1.588969	0.688657	0.596463
N43	N	1.089038	-0.188679	0.096475
N44	N	1.589038	0.311321	0.596475
C45	C	1.151881	0.226764	0.049348
C46	C	1.651881	0.726764	0.549348
C47	C	1.151887	0.302992	0.049345
C48	C	1.651887	0.802992	0.549345
C49	C	1.088990	0.341109	0.096469
C50	C	1.588990	0.841109	0.596469
C51	C	1.026066	0.302993	0.143588
C52	C	1.526066	0.802993	0.643588
C53	C	1.026056	0.226767	0.143585
C54	C	1.526056	0.726767	0.643585
C55	C	1.076645	0.461861	0.159712
C56	C	1.576645	0.961861	0.659712
C57	C	1.076661	0.538086	0.159716
C58	C	1.576661	1.038086	0.659716
C59	C	1.089016	0.576217	0.096478
C60	C	1.589016	1.076217	0.596478
C61	C	1.101374	0.538114	0.033234
C62	C	1.601374	1.038114	0.533234
C63	C	1.101364	0.461888	0.033231
C64	C	1.601364	0.961888	0.533231
C65	C	1.088994	0.423764	0.096477
C66	C	1.588994	0.923764	0.596477
C67	C	1.151938	0.696979	0.049356
C68	C	1.651938	1.196979	0.549356
C69	C	1.151937	0.773208	0.049351
C70	C	1.651937	1.273208	0.549351
C71	C	1.026121	0.773208	0.143600
C72	C	1.526121	1.273208	0.643600
C73	C	1.026117	0.696980	0.143598
C74	C	1.526117	1.196980	0.643598
C75	C	1.089030	0.658870	0.096477
C76	C	1.589030	1.158870	0.596477
C77	C	1.178099	0.000016	-0.152009
C78	C	1.678099	0.500016	0.347991
C79	C	1.176690	0.000004	-0.224461
C80	C	1.676690	0.500004	0.275539
C81	C	1.091940	0.000003	-0.252518
C82	C	1.591940	0.500003	0.247482
C83	C	1.008592	-0.000005	-0.208117
C84	C	1.508592	0.499995	0.291883
C85	C	1.010003	-0.000001	-0.135666
C86	C	1.510003	0.499999	0.364334
C87	C	1.025308	0.042421	-0.361051
C88	C	1.525308	0.542421	0.138949
C89	C	1.023901	0.042422	-0.433501
C90	C	1.523901	0.542422	0.066499
C91	C	1.087586	-0.000013	-0.475980
C92	C	1.587586	0.499987	0.024020
C93	C	1.152693	-0.042438	-0.446002
C94	C	1.652693	0.457562	0.053998
C95	C	1.154104	-0.042434	-0.373551
C96	C	1.654104	0.457566	0.126449
C97	C	1.090401	-0.000002	-0.331078
C98	C	1.590401	0.499998	0.168922
C99	C	1.169402	-0.000022	-0.598933
C100	C	1.669402	0.499978	-0.098933
C101	C	1.167990	-0.000038	-0.671386
C102	C	1.667990	0.499962	-0.171386
C103	C	0.999889	-0.000041	-0.655041
C104	C	1.499889	0.499959	-0.155041
C105	C	1.001303	-0.000032	-0.582589
C106	C	1.501303	0.499968	-0.082589
C107	C	1.086062	-0.000019	-0.554540
C108	C	1.586062	0.499981	-0.054540
C109	C	1.081740	-0.000030	0.223452
C110	C	1.581740	0.499970	0.723452
C111	C	1.083239	-0.000041	0.300561
C112	C	1.583239	0.499959	0.800561
H113	H	1.203119	0.334024	0.010977
H114	H	1.703119	0.834024	0.510977
H115	H	0.973446	0.076981	-0.326470
H116	H	1.473446	0.576981	0.173530
N117	N	1.113985	0.422977	-0.031372
N118	N	1.613985	0.922977	0.468628
N119	N	1.125019	0.457024	-0.087833
N120	N	1.625019	0.957024	0.412167
H121	H	1.133930	0.429544	-0.133460
H122	H	1.633930	0.929544	0.366540
H123	H	0.942137	-0.000004	-0.099522
H124	H	1.442137	0.499996	0.400478
H125	H	1.235856	-0.000039	-0.707530
H126	H	1.735856	0.499961	-0.207530
N127	N	0.957386	0.085754	-0.464107
N128	N	1.457386	0.585754	0.035893
N129	N	0.900456	0.056122	-0.499069
N130	N	1.400456	0.556122	0.000931
H131	H	0.853476	0.086729	-0.520679
H132	H	1.353476	0.586729	-0.020679
N133	N	0.922012	-0.000009	-0.236760
N134	N	1.422012	0.499991	0.263240
N135	N	0.865904	-0.051056	-0.223185
N136	N	1.365904	0.448944	0.276815
H137	H	0.804752	-0.051062	-0.243412
H138	H	1.304752	0.448938	0.256588
N139	N	1.217768	-0.085776	-0.489382
N140	N	1.717768	0.414224	0.010618
N141	N	1.273117	-0.056139	-0.535273
N142	N	1.773117	0.443861	-0.035273
H143	H	1.319080	-0.086742	-0.565912
H144	H	1.819080	0.413258	-0.065912
N145	N	0.961809	0.187826	0.191719
N146	N	1.461809	0.687826	0.691719
N147	N	0.961816	0.119767	0.191715
N148	N	1.461816	0.619767	0.691715
H149	H	0.916444	0.092262	0.225712
H150	H	1.416444	0.592262	0.725712
N151	N	1.113997	0.577048	-0.031371
N152	N	1.613997	1.077048	0.468629
N153	N	1.186559	0.568538	-0.072127
N154	N	1.686559	1.068538	0.427873
H155	H	1.195475	0.596038	-0.117753
H156	H	1.695475	1.096038	0.382247
N157	N	1.255984	-0.000008	-0.570287
N158	N	1.755984	0.499992	-0.070287
N159	N	1.330389	-0.000009	-0.609935
N160	N	1.830389	0.499991	-0.109935
H161	H	1.391539	0.000003	-0.589707
H162	H	1.891539	0.500003	-0.089707
N163	N	1.216089	0.658057	0.001133
N164	N	1.716089	1.158057	0.501133
N165	N	1.272176	0.692095	-0.040995
N166	N	1.772176	1.192095	0.459005
H167	H	1.317441	0.664608	-0.075086
H168	H	1.817441	1.164608	0.424914
N169	N	1.264683	0.000027	-0.123370
N170	N	1.764683	0.500027	0.376630
N171	N	1.339086	0.000028	-0.163019
N172	N	1.839086	0.500028	0.336981
H173	H	1.400238	0.000035	-0.142793
H174	H	1.900238	0.500035	0.357207
H175	H	1.244556	0.000005	-0.260612
H176	H	1.744556	0.500005	0.239388
N177	N	0.961859	0.812122	0.191738
N178	N	1.461859	1.312122	0.691738
N179	N	0.876626	0.803621	0.190637
N180	N	1.376626	1.303621	0.690637
H181	H	0.831236	0.831106	0.224635
H182	H	1.331236	1.331106	0.724635
N183	N	1.064051	0.576992	0.224321
N184	N	1.564051	1.076992	0.724321
N185	N	1.053011	0.542940	0.280778
N186	N	1.553011	1.042940	0.780778
H187	H	1.044106	0.570416	0.326409
H188	H	1.544106	1.070416	0.826409
N189	N	0.961848	0.658061	0.191731
N190	N	1.461848	1.158061	0.691731
N191	N	0.905689	0.692100	0.233801
N192	N	1.405689	1.192100	0.733801
H193	H	0.860293	0.664615	0.267796
H194	H	1.360293	1.164615	0.767796
N195	N	1.220610	-0.085761	-0.342930
N196	N	1.720610	0.414239	0.157070
N197	N	1.305337	-0.075066	-0.359272
N198	N	1.805337	0.424934	0.140728
H199	H	1.352307	-0.105668	-0.337645
H200	H	1.852307	0.394332	0.162355
N201	N	1.216226	0.187848	0.001270
N202	N	1.716226	0.687848	0.501270
N203	N	1.272446	0.221888	-0.040756
N204	N	1.772446	0.721888	0.459244
H205	H	1.317920	0.194403	-0.074690
H206	H	1.817920	0.694403	0.425310
H207	H	1.203164	0.804236	0.010981
H208	H	1.703164	1.304236	0.510981
H209	H	0.974853	0.334032	0.181956
H210	H	1.474853	0.834032	0.681956
H211	H	1.066568	0.430820	0.211211
H212	H	1.566568	0.930820	0.711211
H213	H	0.933441	-0.000031	-0.546444
H214	H	1.433441	0.499969	-0.046444
N215	N	0.913326	-0.000050	-0.683703
N216	N	1.413326	0.499950	-0.183703
N217	N	0.912076	-0.000058	-0.748391
N218	N	1.412076	0.499942	-0.248391
H219	H	0.850938	-0.000068	-0.768638
H220	H	1.350938	0.499932	-0.268638
