data_functionalizedCrystal
_audit_creation_method	'MofGen! by Chris Wilmer'
_symmetry_space_group_name_H-M	'P1'
_symmetry_Int_Tables_number	1
_symmetry_cell_setting	triclinic
loop_
_symmetry_equiv_pos_as_xyz
  x,y,z
_cell_length_a	14.044220
_cell_length_b	10.065875
_cell_length_c	11.026607
_cell_angle_alpha	79.281265
_cell_angle_beta	79.112553
_cell_angle_gamma	80.420796
loop_
_atom_site_label
_atom_site_type_symbol
_atom_site_fract_x
_atom_site_fract_y
_atom_site_fract_z
O1	O	1.297508	0.113338	-0.314646
O2	O	1.019700	0.113373	-0.303895
O3	O	1.135580	0.113354	-0.130125
O4	O	1.181628	0.113358	-0.488416
O5	O	1.157715	-0.113639	-0.096915
O6	O	1.041835	-0.113619	-0.270686
O7	O	1.319643	-0.113654	-0.281436
Zn8	Zn	1.184253	-0.149677	-0.270788
Zn9	Zn	1.155089	0.149396	-0.314543
O10	O	1.203763	-0.113635	-0.455207
C11	C	0.994649	-0.000118	-0.282583
C12	C	0.887026	-0.000105	-0.268541
N13	N	1.204163	-0.353786	-0.240927
N14	N	1.135185	0.353505	-0.344396
C15	C	0.689986	-0.000132	-0.242862
C16	C	0.649349	-0.000137	-0.342466
C17	C	0.539709	-0.000152	-0.328178
C18	C	0.799635	-0.000117	-0.257148
C19	C	1.344693	-0.000160	-0.302749
C20	C	1.452316	-0.000164	-0.316792
C21	C	1.177335	0.421276	-0.281183
C22	C	1.162007	0.578446	-0.304148
C23	C	1.138152	-0.000140	-0.067390
C24	C	1.112827	-0.000132	0.070064
C25	C	1.201190	-0.000138	-0.517942
C26	C	1.226514	-0.000137	-0.655397
C27	C	1.182752	-0.000139	0.136302
C28	C	1.156579	-0.000130	0.278368
H29	H	0.696900	-0.000129	-0.438470
C30	C	0.626665	-0.000406	-0.114786
C31	C	0.657902	-0.117195	-0.033644
C32	C	0.599574	-0.117496	0.084342
H33	H	0.632240	0.078666	-0.082566
H34	H	0.560329	-0.000485	-0.122012
H35	H	0.724222	-0.117104	-0.026415
H36	H	0.652324	-0.196286	-0.065824
H37	H	0.533238	-0.117574	0.077116
H38	H	0.605154	-0.038418	0.116549
H39	H	0.620754	-0.196741	0.139407
H40	H	1.305752	-0.000045	0.296127
C41	C	1.007118	0.000168	0.134568
C42	C	0.949917	0.116972	0.083020
C43	C	0.852535	0.117304	0.142417
H44	H	0.983456	-0.078894	0.122938
H45	H	1.003522	0.000246	0.221463
H46	H	0.953509	0.116881	-0.003855
H47	H	0.973548	0.196052	0.094648
H48	H	0.848938	0.117383	0.229312
H49	H	0.828883	0.038238	0.130783
H50	H	0.813714	0.196560	0.107458
H51	H	1.251604	0.587885	-0.169806
H52	H	1.114574	0.636775	-0.375278
C53	C	1.240478	0.343675	-0.186164
C54	C	1.200708	0.378334	-0.068012
C55	C	1.258853	0.306889	0.019552
H56	H	1.242410	0.248355	-0.183166
H57	H	1.304969	0.367042	-0.209903
H58	H	1.136234	0.354958	-0.044279
H59	H	1.198777	0.473641	-0.070969
H60	H	1.323343	0.330256	-0.004186
H61	H	1.260781	0.211574	0.022539
H62	H	1.231882	0.330405	0.099726
H63	H	1.087756	0.411839	-0.415521
H64	H	1.261994	-0.000157	0.087835
H65	H	1.077331	-0.000111	0.326829
