data_functionalizedCrystal
_audit_creation_method	'MofGen! by Chris Wilmer'
_symmetry_space_group_name_H-M	'P1'
_symmetry_Int_Tables_number	1
_symmetry_cell_setting	triclinic
loop_
_symmetry_equiv_pos_as_xyz
  x,y,z
_cell_length_a	14.044220
_cell_length_b	14.044220
_cell_length_c	12.996460
_cell_angle_alpha	89.993022
_cell_angle_beta	89.999501
_cell_angle_gamma	93.188878
loop_
_atom_site_label
_atom_site_type_symbol
_atom_site_fract_x
_atom_site_fract_y
_atom_site_fract_z
O1	O	1.277169	0.230169	-0.085462
O2	O	1.610503	0.563503	0.247872
O3	O	1.943836	0.896836	0.581205
O4	O	1.000498	0.221864	-0.085487
O5	O	1.333831	0.555197	0.247846
O6	O	1.667165	0.888530	0.581179
O7	O	1.134681	0.087681	-0.085465
O8	O	1.468014	0.421014	0.247869
O9	O	1.801348	0.754347	0.581202
O10	O	1.142987	0.364352	-0.085484
O11	O	1.476320	0.697686	0.247849
O12	O	1.809653	1.031019	0.581182
O13	O	1.134665	0.087671	0.085669
O14	O	1.467998	0.421005	0.419002
O15	O	1.801332	0.754338	0.752336
O16	O	1.000482	0.221854	0.085646
O17	O	1.333815	0.555188	0.418980
O18	O	1.667149	0.888521	0.752313
O19	O	1.277153	0.230160	0.085672
O20	O	1.610487	0.563493	0.419006
O21	O	1.943820	0.896827	0.752339
Cu22	Cu	1.138816	0.226006	0.101285
Cu23	Cu	1.472150	0.559340	0.434619
Cu24	Cu	1.805483	0.892673	0.767952
Cu25	Cu	1.138835	0.226017	-0.101100
Cu26	Cu	1.472168	0.559351	0.232233
Cu27	Cu	1.805502	0.892684	0.565566
O28	O	1.142971	0.364343	0.085650
O29	O	1.476304	0.697676	0.418983
O30	O	1.809637	1.031010	0.752316
C31	C	0.964868	0.218223	0.000076
C32	C	1.298201	0.551557	0.333410
C33	C	1.631535	0.884890	0.666743
C34	C	0.858725	0.207379	0.000067
C35	C	1.192059	0.540712	0.333400
C36	C	1.525392	0.874045	0.666733
C37	C	1.131037	0.052054	0.000102
C38	C	1.464371	0.385388	0.333436
C39	C	1.797704	0.718721	0.666769
C40	C	1.120193	-0.054088	0.000103
C41	C	1.453526	0.279245	0.333436
C42	C	1.786859	0.612578	0.666769
C43	C	0.664388	0.187553	0.000088
C44	C	0.997721	0.520886	0.333422
C45	C	1.331054	0.854219	0.666755
C46	C	0.613258	0.264467	0.000087
C47	C	0.946591	0.597800	0.333421
C48	C	1.279924	0.931134	0.666754
C49	C	0.505122	0.253435	0.000100
C50	C	0.838455	0.586769	0.333433
C51	C	1.171788	0.920102	0.666766
C52	C	0.772534	0.198583	0.000076
C53	C	1.105867	0.531916	0.333410
C54	C	1.439200	0.865249	0.666743
C55	C	1.100366	-0.248426	0.000086
C56	C	1.433700	0.084907	0.333419
C57	C	1.767033	0.418241	0.666753
C58	C	1.177281	-0.299556	0.000090
C59	C	1.510614	0.033777	0.333423
C60	C	1.843947	0.367111	0.666757
C61	C	1.166249	-0.407692	0.000081
C62	C	1.499582	-0.074359	0.333414
C63	C	1.832916	0.258974	0.666747
C64	C	1.111397	-0.140280	0.000095
C65	C	1.444730	0.193053	0.333429
C66	C	1.778063	0.526387	0.666762
C67	C	1.312783	0.233800	0.000106
C68	C	1.646117	0.567134	0.333440
C69	C	1.979450	0.900467	0.666773
C70	C	1.418926	0.244645	0.000109
C71	C	1.752259	0.577978	0.333443
C72	C	2.085593	0.911312	0.666776
C73	C	1.146614	0.399969	0.000080
C74	C	1.479948	0.733303	0.333414
C75	C	1.813281	1.066636	0.666747
C76	C	1.157459	0.506112	0.000073
C77	C	1.490792	0.839446	0.333407
C78	C	1.824125	1.172779	0.666740
N79	N	1.138810	0.225998	0.243632
N80	N	1.472143	0.559332	0.576966
N81	N	1.805477	0.892665	0.910299
N82	N	1.138848	0.226018	-0.243447
N83	N	1.472182	0.559352	0.089886
N84	N	1.805515	0.892685	0.423219
C85	C	1.138834	0.226018	0.663447
C86	C	1.472167	0.559352	0.996780
C87	C	1.805501	0.892685	1.330113
C88	C	1.138825	0.226016	0.546642
C89	C	1.472158	0.559349	0.879975
C90	C	1.805491	0.892682	1.213308
C91	C	1.138822	0.226009	0.453543
C92	C	1.472156	0.559342	0.786877
C93	C	1.805489	0.892676	1.120210
C94	C	1.138812	0.226005	0.336731
C95	C	1.472145	0.559338	0.670064
C96	C	1.805479	0.892672	1.003397
H97	H	0.650697	0.338600	0.000077
H98	H	0.984030	0.671934	0.333411
H99	H	1.317364	1.005267	0.666744
C100	C	1.277433	-0.248986	0.000116
C101	C	1.610767	0.084347	0.333449
C102	C	1.944100	0.417680	0.666783
C103	C	1.288475	-0.139279	0.000134
C104	C	1.621809	0.194054	0.333468
C105	C	1.955142	0.527388	0.666801
C106	C	1.388623	-0.088705	0.000166
C107	C	1.721957	0.244629	0.333500
C108	C	2.055290	0.577962	0.666833
C109	C	1.477730	-0.147838	0.000180
C110	C	1.811063	0.185496	0.333513
C111	C	2.144396	0.518829	0.666847
C112	C	1.466691	-0.257551	0.000162
C113	C	1.800024	0.075782	0.333495
C114	C	2.133357	0.409115	0.666828
C115	C	1.366542	-0.308126	0.000130
C116	C	1.699876	0.025208	0.333463
C117	C	2.033209	0.358541	0.666796
H118	H	1.222511	-0.095500	0.000124
H119	H	1.555844	0.237834	0.333458
H120	H	1.889178	0.571167	0.666791
H121	H	1.396795	-0.007487	0.000180
H122	H	1.730128	0.325846	0.333513
H123	H	2.063461	0.659180	0.666847
H124	H	1.551865	-0.110399	0.000204
H125	H	1.885199	0.222934	0.333537
H126	H	2.218532	0.556267	0.666870
H127	H	1.532655	-0.301331	0.000172
H128	H	1.865988	0.032003	0.333505
H129	H	2.199322	0.365336	0.666839
H130	H	1.358371	-0.389343	0.000116
H131	H	1.691705	-0.056010	0.333450
H132	H	2.025038	0.277323	0.666783
H133	H	0.626951	0.113425	0.000099
H134	H	0.960284	0.446758	0.333433
H135	H	1.293617	0.780092	0.666766
H136	H	1.026239	-0.285863	0.000076
H137	H	1.359572	0.047470	0.333410
H138	H	1.692906	0.380804	0.666743
