data_functionalizedCrystal
_audit_creation_method	'MofGen! by Chris Wilmer'
_symmetry_space_group_name_H-M	'P1'
_symmetry_Int_Tables_number	1
_symmetry_cell_setting	triclinic
loop_
_symmetry_equiv_pos_as_xyz
  x,y,z
_cell_length_a	12.759401
_cell_length_b	16.959454
_cell_length_c	12.759393
_cell_angle_alpha	90.029640
_cell_angle_beta	90.020938
_cell_angle_gamma	90.021600
loop_
_atom_site_label
_atom_site_type_symbol
_atom_site_fract_x
_atom_site_fract_y
_atom_site_fract_z
Zn1	Zn	1.606227	-0.314611	0.594026
Zn2	Zn	2.106227	0.185389	1.094026
Zn3	Zn	1.606102	-0.446810	0.418349
Zn4	Zn	2.106102	0.053190	0.918349
Zn5	Zn	1.430526	-0.314653	0.418362
Zn6	Zn	1.930526	0.185347	0.918362
Zn7	Zn	1.430501	-0.446755	0.593986
Zn8	Zn	1.930501	0.053245	1.093986
O9	O	1.518339	-0.380707	0.506181
O10	O	2.018339	0.119293	1.006181
O11	O	1.753232	-0.332153	0.570734
O12	O	2.253232	0.167847	1.070734
O13	O	1.582769	-0.429320	0.271330
O14	O	2.082769	0.070680	0.771330
O15	O	1.453896	-0.204037	0.441686
O16	O	1.953896	0.295963	0.941686
O17	O	1.753139	-0.429279	0.441665
O18	O	2.253139	0.070721	0.941665
O19	O	1.582983	-0.204006	0.570746
O20	O	2.082983	0.295994	1.070746
O21	O	1.453774	-0.332225	0.271339
O22	O	1.953774	0.167775	0.771339
O23	O	1.283502	-0.332171	0.441647
O24	O	1.783502	0.167829	0.941647
O25	O	1.453854	-0.429185	0.741013
O26	O	1.953854	0.070815	1.241013
O27	O	1.283484	-0.429226	0.570678
O28	O	1.783484	0.070774	1.070678
O29	O	1.582959	-0.332100	0.741042
O30	O	2.082959	0.167900	1.241042
O31	O	1.582745	-0.557414	0.441626
O32	O	2.082745	-0.057414	0.941626
O33	O	1.453732	-0.557373	0.570666
O34	O	1.953732	-0.057373	1.070666
C35	C	1.245372	-0.380698	0.506160
C36	C	1.745372	0.119302	1.006160
C37	C	1.128595	-0.380713	0.506176
C38	C	1.628595	0.119287	1.006176
C39	C	1.518251	-0.586074	0.506163
C40	C	2.018251	-0.086074	1.006163
C41	C	1.518309	-0.673930	0.506190
C42	C	2.018309	-0.173930	1.006190
C43	C	1.073751	-0.431326	0.573257
C44	C	1.573751	0.068674	1.073257
C45	C	0.964027	-0.431329	0.573277
C46	C	1.464027	0.068671	1.073277
C47	C	0.964000	-0.330103	0.439128
C48	C	1.464000	0.169897	0.939128
C49	C	1.073722	-0.330097	0.439113
C50	C	1.573722	0.169903	0.939113
C51	C	1.451259	-1.045415	0.573365
C52	C	1.951259	-0.545415	1.073365
C53	C	1.585711	-1.045397	0.439104
C54	C	2.085711	-0.545397	0.939104
C55	C	1.585675	-0.962851	0.439094
C56	C	2.085675	-0.462851	0.939094
C57	C	1.518428	-0.921583	0.506220
C58	C	2.018428	-0.421583	1.006220
C59	C	1.451218	-0.962861	0.573355
C60	C	1.951218	-0.462861	1.073355
C61	C	1.652875	-0.921567	0.371953
C62	C	2.152875	-0.421567	0.871953
C63	C	1.652841	-0.839016	0.371940
C64	C	2.152841	-0.339016	0.871940
C65	C	1.585599	-0.797747	0.439071
C66	C	2.085599	-0.297747	0.939071
C67	C	1.518387	-0.839030	0.506210
C68	C	2.018387	-0.339030	1.006210
C69	C	1.451141	-0.797762	0.573335
C70	C	1.951141	-0.297762	1.073335
C71	C	1.383934	-0.839043	0.640480
C72	C	1.883934	-0.339043	1.140480
C73	C	1.383977	-0.921592	0.640486
C74	C	1.883977	-0.421592	1.140486
C75	C	1.585556	-0.715198	0.439065
C76	C	2.085556	-0.215198	0.939065
C77	C	1.451100	-0.715208	0.573326
C78	C	1.951100	-0.215208	1.073326
C79	C	1.792372	-0.380718	0.506202
C80	C	2.292372	0.119282	1.006202
C81	C	1.909149	-0.380722	0.506212
C82	C	2.409149	0.119278	1.006212
C83	C	1.518418	-0.380632	0.780214
C84	C	2.018418	0.119368	1.280214
C85	C	1.518451	-0.380599	0.896991
C86	C	2.018451	0.119401	1.396991
C87	C	1.518456	-0.174539	0.506222
C88	C	2.018456	0.325461	1.006222
C89	C	1.518506	-0.086683	0.506239
C90	C	2.018506	0.413317	1.006239
C91	C	1.518321	-0.380726	0.233213
C92	C	2.018321	0.119274	0.733213
C93	C	1.518491	-0.380536	0.116437
C94	C	2.018491	0.119464	0.616437
C95	C	1.585681	-0.330039	0.951870
C96	C	2.085681	0.169961	1.451870
C97	C	1.585699	-0.330005	1.061594
C98	C	2.085699	0.169995	1.561594
C99	C	1.451254	-0.431098	1.061551
C100	C	1.951254	0.068902	1.561551
C101	C	1.451232	-0.431128	0.951829
C102	C	1.951232	0.068872	1.451829
H103	H	1.118425	-0.472539	0.627866
H104	H	1.618425	0.027461	1.127866
H105	H	1.396544	-1.079030	0.628035
H106	H	1.896544	-0.579030	1.128035
Br107	Br	0.889600	-0.500018	0.664324
Br108	Br	1.389600	-0.000018	1.164324
H109	H	1.329259	-0.955210	0.695151
H110	H	1.829259	-0.455210	1.195151
H111	H	1.640270	-0.681591	0.384392
H112	H	2.140270	-0.181591	0.884392
H113	H	1.396477	-0.472300	0.907145
H114	H	1.896477	0.027700	1.407145
Br115	Br	0.889524	-0.261414	0.348119
Br116	Br	1.389524	0.238586	0.848119
H117	H	1.118378	-0.288876	0.384488
H118	H	1.618378	0.211124	0.884488
H119	H	1.396343	-0.681613	0.627992
H120	H	1.896343	-0.181613	1.127992
H121	H	1.640413	-0.288893	0.907225
H122	H	2.140413	0.211107	1.407225
H123	H	1.640454	-1.079002	0.384447
H124	H	2.140454	-0.579002	0.884447
Br125	Br	1.744137	-0.977576	0.280865
Br126	Br	2.244137	-0.477576	0.780865
H127	H	1.707565	-0.805410	0.317268
H128	H	2.207565	-0.305410	0.817268
Br129	Br	1.292666	-0.783027	0.731568
Br130	Br	1.792666	-0.283027	1.231568
H131	H	1.640443	-0.288832	1.106272
H132	H	2.140443	0.211168	1.606272
Br133	Br	1.360035	-0.499672	1.135979
Br134	Br	1.860035	0.000328	1.635979
