data_functionalizedCrystal
_audit_creation_method	'MofGen! by Chris Wilmer'
_symmetry_space_group_name_H-M	'P1'
_symmetry_Int_Tables_number	1
_symmetry_cell_setting	triclinic
loop_
_symmetry_equiv_pos_as_xyz
  x,y,z
_cell_length_a	17.038272
_cell_length_b	23.532357
_cell_length_c	15.500227
_cell_angle_alpha	92.804145
_cell_angle_beta	86.956295
_cell_angle_gamma	86.969924
loop_
_atom_site_label
_atom_site_type_symbol
_atom_site_fract_x
_atom_site_fract_y
_atom_site_fract_z
O1	O	1.040073	0.121161	-0.071854
O2	O	1.540073	0.621161	0.428146
O3	O	0.812458	0.119197	-0.071879
O4	O	1.312458	0.619197	0.428121
O5	O	0.933149	0.037608	-0.071848
O6	O	1.433149	0.537608	0.428152
O7	O	0.919383	0.202750	-0.071885
O8	O	1.419383	0.702750	0.428115
O9	O	0.925825	0.042538	0.072039
O10	O	1.425825	0.542538	0.572039
O11	O	0.805135	0.124127	0.072008
O12	O	1.305135	0.624127	0.572008
O13	O	1.032749	0.126091	0.072033
O14	O	1.532749	0.626091	0.572033
Cu15	Cu	0.918273	0.125559	0.085159
Cu16	Cu	1.418273	0.625559	0.585159
Cu17	Cu	0.926934	0.119729	-0.085004
Cu18	Cu	1.426934	0.619729	0.414996
O19	O	0.912059	0.207680	0.072002
O20	O	1.412059	0.707680	0.572002
C21	C	0.779682	0.119876	0.000062
C22	C	1.279682	0.619876	0.500062
C23	C	0.692930	0.114549	0.000053
C24	C	1.192930	0.614549	0.500053
C25	C	0.642443	0.163454	0.000043
C26	C	1.142443	0.663454	0.500043
C27	C	0.560930	0.158446	0.000056
C28	C	1.060930	0.658446	0.500056
C29	C	0.529907	0.104533	0.000073
C30	C	1.029907	0.604533	0.500073
C31	C	0.580401	0.055624	0.000086
C32	C	1.080401	0.555624	0.500086
C33	C	0.661912	0.060633	0.000079
C34	C	1.161912	0.560633	0.500079
C35	C	0.284283	0.086838	0.000100
C36	C	0.784283	0.586838	0.500100
C37	C	0.202765	0.081833	0.000104
C38	C	0.702765	0.581833	0.500104
C39	C	0.183300	0.184656	0.000076
C40	C	0.683300	0.684656	0.500076
C41	C	0.264814	0.189660	0.000064
C42	C	0.764814	0.689660	0.500064
C43	C	0.315300	0.140751	0.000081
C44	C	0.815300	0.640751	0.500081
C45	C	0.446588	0.099413	0.000083
C46	C	0.946588	0.599413	0.500083
C47	C	0.398617	0.145872	0.000077
C48	C	0.898617	0.645872	0.500077
C49	C	0.929143	0.018838	0.000098
C50	C	1.429143	0.518838	0.500098
C51	C	0.928107	-0.044435	0.000106
C52	C	1.428107	0.455565	0.500106
C53	C	0.925601	-0.439477	-0.078374
C54	C	1.425601	0.060523	0.421626
C55	C	0.924617	-0.498928	-0.078379
C56	C	1.424617	0.001072	0.421621
O57	O	0.927477	-0.531958	-0.145083
O58	O	1.427477	-0.031958	0.354917
N59	N	0.920137	-0.525977	0.000053
N60	N	1.420137	-0.025977	0.500053
C61	C	0.916633	-0.493572	0.078495
C62	C	1.416633	0.006428	0.578495
O63	O	0.912731	-0.522039	0.145206
O64	O	1.412731	-0.022039	0.645206
C65	C	0.917611	-0.434121	0.078499
C66	C	1.417611	0.065879	0.578499
C67	C	0.922099	-0.407076	0.000062
C68	C	1.422099	0.092924	0.500062
C69	C	0.930088	-0.412431	-0.156804
C70	C	1.430088	0.087569	0.343196
C71	C	0.931074	-0.352983	-0.156799
C72	C	1.431074	0.147017	0.343201
C73	C	0.927572	-0.320582	-0.078363
C74	C	1.427572	0.179418	0.421637
C75	C	0.923085	-0.347628	0.000067
C76	C	1.423085	0.152372	0.500067
C77	C	0.914101	-0.401717	0.156940
C78	C	1.414101	0.098283	0.656940
C79	C	0.915079	-0.342262	0.156937
C80	C	1.415079	0.157738	0.656937
C81	C	0.919568	-0.315217	0.078500
C82	C	1.419568	0.184783	0.578500
C83	C	0.920568	-0.255780	0.078508
C84	C	1.420568	0.244220	0.578508
N85	N	0.925048	-0.228731	0.000077
N86	N	1.425048	0.271269	0.500077
C87	C	0.928550	-0.261132	-0.078359
C88	C	1.428550	0.238868	0.421641
C89	C	0.914577	-0.618422	0.078480
C90	C	1.414577	-0.118422	0.578480
C91	C	0.913604	-0.677872	0.078477
C92	C	1.413604	-0.177872	0.578477
C93	C	0.921587	-0.683224	-0.078397
C94	C	1.421587	-0.183224	0.421603
C95	C	0.922565	-0.623773	-0.078393
C96	C	1.422565	-0.123773	0.421607
C97	C	0.919057	-0.591373	0.000048
C98	C	1.419057	-0.091373	0.500048
C99	C	0.930620	-0.136288	-0.078342
C100	C	1.430620	0.363712	0.421658
C101	C	0.931608	-0.076836	-0.078329
C102	C	1.431608	0.423164	0.421671
C103	C	0.923621	-0.071489	0.078544
C104	C	1.423621	0.428511	0.578544
C105	C	0.922637	-0.130936	0.078532
C106	C	1.422637	0.369064	0.578532
C107	C	0.926134	-0.163335	0.000082
C108	C	1.426134	0.336665	0.500082
O109	O	0.917708	-0.222713	0.145178
O110	O	1.417708	0.277287	0.645178
O111	O	0.932441	-0.232657	-0.145059
O112	O	1.432441	0.267343	0.354941
C113	C	1.065526	0.125411	0.000091
C114	C	1.565526	0.625411	0.500091
C115	C	1.152278	0.130738	0.000094
C116	C	1.652278	0.630738	0.500094
C117	C	0.916065	0.226450	0.000054
C118	C	1.416065	0.726450	0.500054
C119	C	0.917101	0.289722	0.000040
C120	C	1.417101	0.789722	0.500040
N121	N	0.912187	0.129660	0.204842
N122	N	1.412187	0.629660	0.704842
N123	N	0.933027	0.115624	-0.204688
N124	N	1.433027	0.615624	0.295312
C125	C	0.963346	0.095102	0.250132
C126	C	1.463346	0.595102	0.750132
C127	C	0.958750	0.098209	0.340703
C128	C	1.458750	0.598209	0.840703
C129	C	0.902999	0.135877	0.385984
C130	C	1.402999	0.635877	0.885984
C131	C	0.851836	0.170436	0.340688
C132	C	1.351836	0.670436	0.840688
C133	C	0.856428	0.167326	0.250118
C134	C	1.356428	0.667326	0.750118
C135	C	0.886455	0.147072	0.659446
C136	C	1.386455	0.647072	1.159446
C137	C	0.881868	0.150181	0.750023
C138	C	1.381868	0.650181	1.250023
C139	C	0.988782	0.077953	0.750032
C140	C	1.488782	0.577953	1.250032
C141	C	0.993373	0.074849	0.659461
C142	C	1.493373	0.574849	1.159461
C143	C	0.942207	0.109405	0.614172
C144	C	1.442207	0.609405	1.114172
C145	C	0.898302	0.139055	0.478562
C146	C	1.398302	0.639055	0.978562
C147	C	0.946901	0.106224	0.521595
C148	C	1.446901	0.606224	1.021595
H149	H	0.177510	0.037928	0.000117
H150	H	0.677510	0.537928	0.500117
C151	C	0.383480	0.035350	0.074073
C152	C	0.883480	0.535350	0.574073
C153	C	0.339774	0.033079	0.000108
C154	C	0.839774	0.533079	0.500108
H155	H	0.417737	0.002158	0.074077
H156	H	0.917737	0.502158	0.574077
H157	H	0.413619	0.068171	0.074059
H158	H	0.913619	0.568171	0.574059
H159	H	0.348722	0.037251	0.124245
H160	H	0.848722	0.537251	0.624245
H161	H	0.374532	0.031183	-0.050064
H162	H	0.874532	0.531183	0.449936
H163	H	0.309633	0.000250	0.000114
H164	H	0.809633	0.500250	0.500114
H165	H	1.000407	0.070069	0.377578
H166	H	1.500407	0.570069	0.877578
H167	H	0.933464	-0.162660	-0.142223
H168	H	1.433464	0.337340	0.357777
C169	C	0.607835	-0.045507	0.000115
C170	C	1.107835	0.454493	0.500115
C171	C	0.546304	-0.003639	0.000104
C172	C	1.046304	0.496361	0.500104
H173	H	0.586784	-0.082094	0.000129
H174	H	1.086784	0.417906	0.500129
H175	H	0.641768	-0.043134	-0.050060
H176	H	1.141768	0.456866	0.449940
H177	H	0.636674	-0.039691	0.050293
H178	H	1.136674	0.460309	0.550293
H179	H	0.517467	-0.009453	-0.050078
H180	H	1.017467	0.490547	0.449922
H181	H	0.512357	-0.006014	0.050284
H182	H	1.012357	0.493986	0.550284
H183	H	1.030439	0.049818	0.786914
H184	H	1.530439	0.549818	1.286914
C185	C	1.052121	0.035141	0.530701
C186	C	1.552121	0.535141	1.030701
C187	C	1.008181	0.064819	0.471827
C188	C	1.508181	0.564819	0.971827
H189	H	1.089951	0.009578	0.499968
H190	H	1.589951	0.509578	0.999968
H191	H	1.078250	0.061425	0.566009
H192	H	1.578250	0.561425	1.066009
H193	H	1.017961	0.014284	0.566043
H194	H	1.517961	0.514284	1.066043
H195	H	1.042340	0.085680	0.436489
H196	H	1.542340	0.585680	0.936489
H197	H	0.982051	0.038532	0.436503
H198	H	1.482051	0.538532	0.936503
H199	H	0.142185	0.224474	0.000063
H200	H	0.642185	0.724474	0.500063
C201	C	0.654687	0.250103	-0.073947
C202	C	1.154687	0.750103	0.426053
C203	C	0.676536	0.222720	0.000023
C204	C	1.176536	0.722720	0.500023
H205	H	0.675730	0.286693	-0.073952
H206	H	1.175730	0.786693	0.426048
H207	H	0.674597	0.228083	-0.124110
H208	H	1.174597	0.728083	0.375890
H209	H	0.598915	0.254113	-0.073934
H210	H	1.098915	0.754113	0.426066
H211	H	0.732308	0.218706	0.000007
H212	H	1.232308	0.718706	0.500007
H213	H	0.656630	0.244745	0.050200
H214	H	1.156630	0.744745	0.550200
H215	H	0.806438	0.201105	0.377560
H216	H	1.306438	0.701105	0.877560
C217	C	0.780323	0.218783	0.668547
C218	C	1.280323	0.718783	1.168547
C219	C	0.830220	0.185062	0.609673
C220	C	1.330220	0.685062	1.109673
H221	H	0.745608	0.242240	0.637815
H222	H	1.245608	0.742240	1.137815
H223	H	0.750614	0.194925	0.703885
H224	H	1.250614	0.694925	1.203885
H225	H	0.810909	0.242061	0.703860
H226	H	1.310909	0.742061	1.203860
H227	H	0.799634	0.161780	0.574364
H228	H	1.299634	0.661780	1.074364
H229	H	0.859931	0.208923	0.574320
H230	H	1.359931	0.708923	1.074320
C231	C	0.750295	0.239038	0.259199
C232	C	1.250295	0.739038	0.759199
C233	C	0.800197	0.205316	0.200331
C234	C	1.300197	0.705316	0.700331
H235	H	0.715582	0.262493	0.228462
H236	H	1.215582	0.762493	0.728462
H237	H	0.720585	0.215180	0.294537
H238	H	1.220585	0.715180	0.794537
H239	H	0.780878	0.262318	0.294513
H240	H	1.280878	0.762318	0.794513
H241	H	0.769614	0.182033	0.165022
H242	H	1.269614	0.682033	0.665022
H243	H	0.829910	0.229176	0.164979
H244	H	1.329910	0.729176	0.664979
C245	C	1.000817	-0.485536	-0.247816
C246	C	1.500817	0.014464	0.252184
C247	C	0.933942	-0.448041	-0.243029
C248	C	1.433942	0.051959	0.256971
H249	H	1.003197	-0.507519	-0.301050
H250	H	1.503197	-0.007519	0.198950
H251	H	1.046604	-0.464366	-0.244540
H252	H	1.546604	0.035634	0.255460
H253	H	0.997997	-0.510156	-0.201110
H254	H	1.497997	-0.010156	0.298890
H255	H	0.936765	-0.423418	-0.289732
H256	H	1.436765	0.076582	0.210268
H257	H	0.888144	-0.469213	-0.246314
H258	H	1.388144	0.030787	0.253686
C259	C	0.795508	0.022657	0.000086
C260	C	1.295508	0.522657	0.500086
C261	C	0.717413	0.006876	0.000090
C262	C	1.217413	0.506876	0.500090
H263	H	0.829769	-0.010532	0.000101
H264	H	1.329769	0.489468	0.500101
H265	H	0.807410	0.042876	-0.050095
H266	H	1.307410	0.542876	0.449905
H267	H	0.802309	0.046322	0.050259
H268	H	1.302309	0.546322	0.550259
H269	H	0.710610	-0.016787	-0.050087
H270	H	1.210610	0.483213	0.449913
H271	H	0.705506	-0.013352	0.050275
H272	H	1.205506	0.486648	0.550275
H273	H	0.519825	0.198270	0.000046
H274	H	1.019825	0.698270	0.500046
H275	H	0.934725	-0.330968	-0.220670
H276	H	1.434725	0.169032	0.279330
H277	H	0.290066	0.233561	0.000040
H278	H	0.790066	0.733561	0.500040
H279	H	0.926219	-0.601757	-0.142263
H280	H	1.426219	-0.101757	0.357737
H281	H	1.008747	0.064432	0.213271
H282	H	1.508747	0.564432	0.713271
H283	H	0.852910	0.169726	0.515437
H284	H	1.352910	0.669726	1.015437
C285	C	0.371190	0.247007	0.000048
C286	C	0.871190	0.747007	0.500048
C287	C	0.432715	0.205134	0.000058
C288	C	0.932715	0.705134	0.500058
H289	H	0.392247	0.283592	0.000040
H290	H	0.892247	0.783592	0.500040
H291	H	0.342352	0.241196	-0.050122
H292	H	0.842352	0.741196	0.449878
H293	H	0.337253	0.244636	0.050231
H294	H	0.837253	0.744636	0.550231
H295	H	0.466649	0.207502	-0.050128
H296	H	0.966649	0.707502	0.449872
H297	H	0.461566	0.210947	0.050234
H298	H	0.961566	0.710947	0.550234
H299	H	0.421318	0.055517	0.000122
H300	H	0.921318	0.555517	0.500122
C301	C	0.923612	-0.776738	-0.148048
C302	C	1.423612	-0.276738	0.351952
C303	C	0.925426	-0.718847	-0.164617
C304	C	1.425426	-0.218847	0.335383
H305	H	0.925977	-0.798729	-0.201274
H306	H	1.425977	-0.298729	0.298726
H307	H	0.967392	-0.787514	-0.115825
H308	H	1.467392	-0.287514	0.384175
H309	H	0.876228	-0.783232	-0.115819
H310	H	1.376228	-0.283232	0.384181
H311	H	0.972813	-0.712352	-0.196841
H312	H	1.472813	-0.212352	0.303159
H313	H	0.881642	-0.708067	-0.196855
H314	H	1.381642	-0.208067	0.303145
H315	H	0.909961	-0.699888	0.142348
H316	H	1.409961	-0.199888	0.642348
H317	H	0.935265	-0.054818	-0.142205
H318	H	1.435265	0.445182	0.357795
C319	C	0.906595	-0.619113	0.233543
C320	C	1.406595	-0.119113	0.733543
C321	C	0.910731	-0.582810	0.164711
C322	C	1.410731	-0.082810	0.664711
H323	H	0.904224	-0.597129	0.286777
H324	H	1.404224	-0.097129	0.786777
H325	H	0.860800	-0.640274	0.230270
H326	H	1.360800	-0.140274	0.730270
H327	H	0.951964	-0.644551	0.230271
H328	H	1.451964	-0.144551	0.730271
H329	H	0.865359	-0.557375	0.167979
H330	H	1.365359	-0.057375	0.667979
H331	H	0.956531	-0.561640	0.167986
H332	H	1.456531	-0.061640	0.667986
C333	C	0.906282	-0.390428	0.311996
C334	C	1.406282	0.109572	0.811996
C335	C	0.909158	-0.431434	0.243162
C336	C	1.409158	0.068566	0.743162
H337	H	0.903224	-0.408775	0.365229
H338	H	1.403224	0.091225	0.865229
H339	H	0.952413	-0.369494	0.308743
H340	H	1.452413	0.130506	0.808743
H341	H	0.861251	-0.365212	0.308707
H342	H	1.361251	0.134788	0.808707
H343	H	0.954193	-0.456648	0.246448
H344	H	1.454193	0.043352	0.746448
H345	H	0.863023	-0.452378	0.246417
H346	H	1.363023	0.047622	0.746417
C347	C	0.844348	-0.269150	0.247941
C348	C	1.344348	0.230850	0.747941
C349	C	0.911221	-0.306646	0.243162
C350	C	1.411221	0.193354	0.743162
H351	H	0.841966	-0.247165	0.301174
H352	H	1.341966	0.252835	0.801174
H353	H	0.847168	-0.244536	0.201237
H354	H	1.347168	0.255464	0.701237
H355	H	0.798555	-0.290322	0.244668
H356	H	1.298555	0.209678	0.744668
H357	H	0.957014	-0.285473	0.246429
H358	H	1.457014	0.214527	0.746429
H359	H	0.908407	-0.331263	0.289879
H360	H	1.408407	0.168737	0.789879
H361	H	0.918989	-0.152958	0.142402
H362	H	1.418989	0.347042	0.642402
H363	H	0.920774	-0.045097	0.142404
H364	H	1.420774	0.454903	0.642404
H365	H	1.038770	0.044176	0.622595
H366	H	1.538770	0.544176	1.122595
H367	H	0.836467	0.180857	0.786886
H368	H	1.336467	0.680857	1.286886
