data_functionalizedCrystal
_audit_creation_method	'MofGen! by Chris Wilmer'
_symmetry_space_group_name_H-M	'P1'
_symmetry_Int_Tables_number	1
_symmetry_cell_setting	triclinic
loop_
_symmetry_equiv_pos_as_xyz
  x,y,z
_cell_length_a	14.044220
_cell_length_b	14.044220
_cell_length_c	12.503567
_cell_angle_alpha	86.159322
_cell_angle_beta	93.840205
_cell_angle_gamma	93.188878
loop_
_atom_site_label
_atom_site_type_symbol
_atom_site_fract_x
_atom_site_fract_y
_atom_site_fract_z
O1	O	-1.282207	-0.225120	-0.089210
O2	O	-0.782207	0.274880	0.410790
O3	O	-1.005537	-0.216813	-0.089237
O4	O	-0.505537	0.283187	0.410763
O5	O	-1.139719	-0.082631	-0.089214
O6	O	-0.639719	0.417369	0.410786
O7	O	-1.148026	-0.359302	-0.089234
O8	O	-0.648026	0.140698	0.410766
O9	O	-1.129615	-0.092733	0.089427
O10	O	-0.629615	0.407267	0.589427
O11	O	-0.995433	-0.226915	0.089403
O12	O	-0.495433	0.273085	0.589403
O13	O	-1.272103	-0.235222	0.089430
O14	O	-0.772103	0.264778	0.589430
Cu15	Cu	-1.132846	-0.231991	0.105728
Cu16	Cu	-0.632846	0.268009	0.605728
Cu17	Cu	-1.144795	-0.220044	-0.105535
Cu18	Cu	-0.644795	0.279956	0.394465
O19	O	-1.137922	-0.369403	0.089407
O20	O	-0.637922	0.130597	0.589407
C21	C	-0.964864	-0.218228	0.000080
C22	C	-0.464864	0.281772	0.500080
C23	C	-0.858721	-0.207383	0.000070
C24	C	-0.358721	0.292617	0.500070
C25	C	-1.131031	-0.052060	0.000107
C26	C	-0.631031	0.447940	0.500107
C27	C	-1.120187	0.054082	0.000107
C28	C	-0.620187	0.554082	0.500107
C29	C	-1.146609	-0.399974	0.000084
C30	C	-0.646609	0.100026	0.500084
C31	C	-1.157454	-0.506117	0.000077
C32	C	-0.657454	-0.006117	0.500077
C33	C	-1.312777	-0.233807	0.000111
C34	C	-0.812777	0.266193	0.500111
C35	C	-1.418920	-0.244651	0.000114
C36	C	-0.918920	0.255349	0.500114
C37	C	-0.664382	-0.187558	0.000092
C38	C	-0.164382	0.312442	0.500092
C39	C	-0.613253	-0.264472	0.000091
C40	C	-0.113253	0.235528	0.500091
C41	C	-0.505116	-0.253441	0.000104
C42	C	-0.005116	0.246559	0.500104
C43	C	-0.772529	-0.198587	0.000080
C44	C	-0.272529	0.301413	0.500080
N45	N	-1.124448	-0.240393	0.254319
N46	N	-0.624448	0.259607	0.754319
C47	C	-1.100361	0.248421	0.000090
C48	C	-0.600361	0.748421	0.500090
C49	C	-1.177275	0.299551	0.000094
C50	C	-0.677275	0.799551	0.500094
C51	C	-1.166244	0.407687	0.000084
C52	C	-0.666244	0.907687	0.500084
C53	C	-1.111391	0.140274	0.000099
C54	C	-0.611391	0.640274	0.500099
C55	C	-1.165542	-0.199282	0.526760
C56	C	-0.665542	0.300718	1.026760
C57	C	-1.112104	-0.252754	0.473426
C58	C	-0.612104	0.247246	0.973426
C59	C	-1.118974	-0.245875	0.351504
C60	C	-0.618974	0.254125	0.851504
C61	C	-1.158673	-0.206160	0.648693
C62	C	-0.658673	0.293840	1.148693
N63	N	-1.153195	-0.211646	0.745874
N64	N	-0.653195	0.288354	1.245874
H65	H	-0.650692	-0.338605	0.000081
H66	H	-0.150692	0.161395	0.500081
H67	H	-0.626945	-0.113431	0.000104
H68	H	-0.126945	0.386569	0.500104
H69	H	-1.026234	0.285859	0.000080
H70	H	-0.526234	0.785859	0.500080
H71	H	-1.251413	0.262115	0.000029
H72	H	-0.751413	0.762115	0.500029
H73	H	-1.061194	-0.303701	0.519333
H74	H	-0.561194	0.196299	1.019333
H75	H	-1.216450	-0.148340	0.480859
H76	H	-0.716450	0.351660	0.980859
