data_functionalizedCrystal
_audit_creation_method	'MofGen! by Chris Wilmer'
_symmetry_space_group_name_H-M	'P1'
_symmetry_Int_Tables_number	1
_symmetry_cell_setting	triclinic
loop_
_symmetry_equiv_pos_as_xyz
  x,y,z
_cell_length_a	14.908520
_cell_length_b	12.759401
_cell_length_c	12.759393
_cell_angle_alpha	90.019596
_cell_angle_beta	86.736394
_cell_angle_gamma	93.320814
loop_
_atom_site_label
_atom_site_type_symbol
_atom_site_fract_x
_atom_site_fract_y
_atom_site_fract_z
Zn1	Zn	-0.359107	1.582078	0.618084
Zn2	Zn	-0.509991	1.571806	0.452531
Zn3	Zn	-0.359152	1.406374	0.442426
Zn4	Zn	-0.509925	1.396210	0.628168
O5	O	-0.434544	1.489117	0.535302
O6	O	-0.379131	1.727736	0.596132
O7	O	-0.490029	1.549816	0.304173
O8	O	-0.232902	1.438234	0.457279
O9	O	-0.489985	1.720189	0.474501
O10	O	-0.232869	1.567323	0.586334
O11	O	-0.379208	1.428274	0.296749
O12	O	-0.379143	1.258005	0.467057
O13	O	-0.489872	1.420911	0.773848
O14	O	-0.489915	1.250538	0.603520
O15	O	-0.379067	1.557468	0.766440
O16	O	-0.636227	1.539961	0.484278
O17	O	-0.636178	1.410951	0.613318
C18	C	-0.434528	1.216151	0.535287
C19	C	-0.434543	1.099373	0.535307
C20	C	-0.492323	0.930913	0.606271
C21	C	-0.492313	1.040638	0.606260
C22	C	-0.376785	1.048379	0.464353
C23	C	-0.376800	0.938655	0.464361
C24	C	-0.668936	1.473267	0.551012
C25	C	-0.769210	1.466582	0.557768
C26	C	-0.957625	1.588497	0.436202
C27	C	-1.051841	1.582220	0.442546
C28	C	-1.051861	1.447757	0.576805
C29	C	-0.957644	1.454034	0.570461
C30	C	-0.910530	1.524405	0.500155
C31	C	-0.816312	1.530677	0.493807
C32	C	-0.816333	1.396219	0.628070
C33	C	-0.910549	1.389942	0.634414
C34	C	-0.199236	1.505058	0.519555
C35	C	-0.098962	1.511851	0.512844
C36	C	-0.434457	1.489202	0.809330
C37	C	-0.434420	1.489238	0.926104
C38	C	-0.434561	1.763149	0.535319
C39	C	-0.434568	1.879926	0.535326
C40	C	-0.434565	1.489098	0.262336
C41	C	-0.434348	1.489283	0.145546
C42	C	-0.376715	1.560348	0.977110
C43	C	-0.376676	1.560369	1.086831
C44	C	-0.492056	1.418165	1.094533
C45	C	-0.492089	1.418140	0.984813
H46	H	-0.539362	0.883098	0.664055
H47	H	-0.329755	1.618238	0.929312
H48	H	-0.539079	1.360226	0.943283
H49	H	-0.539344	1.082146	0.664030
H50	H	-0.948923	1.332651	0.691657
H51	H	-0.329751	1.096210	0.406578
H52	H	-0.329768	0.897141	0.406583
Cl53	Cl	-1.111105	1.359311	0.665194
Cl54	Cl	-0.564555	1.328795	1.168345
H55	H	-0.777952	1.587974	0.436558
H56	H	-0.919264	1.645789	0.378949
H57	H	-0.329685	1.618272	1.128355
Cl58	Cl	-0.757122	1.315628	0.708460
Cl59	Cl	-1.111044	1.662798	0.362145
