data_functionalizedCrystal
_audit_creation_method	'MofGen! by Chris Wilmer'
_symmetry_space_group_name_H-M	'P1'
_symmetry_Int_Tables_number	1
_symmetry_cell_setting	triclinic
loop_
_symmetry_equiv_pos_as_xyz
  x,y,z
_cell_length_a	10.654550
_cell_length_b	10.723024
_cell_length_c	9.130313
_cell_angle_alpha	89.996649
_cell_angle_beta	89.999724
_cell_angle_gamma	84.476400
loop_
_atom_site_label
_atom_site_type_symbol
_atom_site_fract_x
_atom_site_fract_y
_atom_site_fract_z
O1	O	1.667813	0.175275	-0.121686
O2	O	1.302332	0.191974	-0.121712
O3	O	1.493503	0.002049	-0.121693
O4	O	1.476642	0.365199	-0.121705
O5	O	1.493490	0.002044	0.121906
O6	O	1.302319	0.191968	0.121886
O7	O	1.667800	0.175269	0.121913
Cu8	Cu	1.485058	0.183618	0.144142
Cu9	Cu	1.485074	0.183625	-0.143942
O10	O	1.476629	0.365194	0.121894
C11	C	1.255528	0.190745	0.000084
C12	C	1.116085	0.187077	0.000073
C13	C	1.492269	-0.044453	0.000104
C14	C	1.488598	-0.183008	0.000099
C15	C	1.036583	0.298901	0.000074
C16	C	0.905562	0.295447	0.000100
C17	C	0.933560	0.068334	0.000118
C18	C	1.064577	0.071789	0.000103
C19	C	1.595567	-0.257975	0.000105
C20	C	1.591776	-0.401179	0.000099
C21	C	1.714604	0.176498	0.000114
C22	C	1.854047	0.180167	0.000114
C23	C	1.477863	0.411696	0.000093
C24	C	1.481534	0.550251	0.000089
N25	N	1.485056	0.183613	0.346765
N26	N	1.485085	0.183620	-0.346564
C27	C	1.569736	0.099550	0.423425
C28	C	1.569748	0.099550	0.576762
C29	C	1.400397	0.267687	0.576765
C30	C	1.400380	0.267680	0.423431
H31	H	1.078515	0.392775	0.000061
H32	H	1.689955	-0.216138	0.000121
C33	C	1.362609	-0.238537	0.000011
C34	C	1.264658	-0.141622	-0.000030
C35	C	1.148576	-0.192723	-0.000132
H36	H	1.356394	-0.288750	0.084931
H37	H	1.356517	-0.288715	-0.084976
H38	H	1.270746	-0.091465	0.084949
H39	H	1.270831	-0.091401	-0.084944
H40	H	1.142484	-0.242901	-0.085119
H41	H	1.142374	-0.242936	0.084790
H42	H	1.082102	-0.126975	-0.000173
C43	C	1.661830	0.008229	0.659729
C44	C	1.735997	-0.065369	0.559762
C45	C	1.820850	-0.149501	0.636136
H46	H	1.616365	-0.044257	0.719561
H47	H	1.714564	0.053578	0.719501
H48	H	1.683269	-0.110714	0.500016
H49	H	1.781489	-0.012917	0.499927
H50	H	1.873584	-0.104153	0.695908
H51	H	1.775374	-0.201979	0.695966
H52	H	1.871190	-0.199439	0.568321
C53	C	1.308329	0.359014	0.659741
C54	C	1.234141	0.432606	0.559780
C55	C	1.149301	0.516739	0.636159
H56	H	1.353805	0.411504	0.719548
H57	H	1.255608	0.313667	0.719538
H58	H	1.286855	0.477950	0.500007
H59	H	1.188638	0.380150	0.499969
H60	H	1.096580	0.471392	0.695957
H61	H	1.194787	0.569221	0.695964
H62	H	1.098947	0.566674	0.568348
H63	H	0.840836	0.386506	0.000103
C64	C	1.713986	-0.486915	-0.000124
C65	C	1.783832	-0.463685	-0.125427
C66	C	1.896430	-0.542632	-0.125674
H67	H	1.695387	-0.571790	-0.000204
H68	H	1.761601	-0.471333	0.084783
H69	H	1.736227	-0.479277	-0.210313
H70	H	1.802464	-0.378826	-0.125374
H71	H	1.944045	-0.527050	-0.040766
H72	H	1.877819	-0.627502	-0.125749
H73	H	1.943839	-0.526873	-0.210682
H74	H	1.638683	0.031096	0.361008
H75	H	0.891606	-0.025530	0.000151
H76	H	1.129312	-0.019278	0.000107
H77	H	1.389955	-0.385337	0.000094
H78	H	1.331418	0.336135	0.361009
