data_functionalizedCrystal
_audit_creation_method	'MofGen! by Chris Wilmer'
_symmetry_space_group_name_H-M	'P1'
_symmetry_Int_Tables_number	1
_symmetry_cell_setting	triclinic
loop_
_symmetry_equiv_pos_as_xyz
  x,y,z
_cell_length_a	25.639243
_cell_length_b	25.639240
_cell_length_c	12.759401
_cell_angle_alpha	90.022218
_cell_angle_beta	90.008873
_cell_angle_gamma	90.035481
loop_
_atom_site_label
_atom_site_type_symbol
_atom_site_fract_x
_atom_site_fract_y
_atom_site_fract_z
Zn1	Zn	0.799210	-0.208196	0.594050
Zn2	Zn	0.799153	-0.295609	0.418331
Zn3	Zn	0.711797	-0.208193	0.418371
Zn4	Zn	0.711740	-0.295606	0.593955
O5	O	0.755475	-0.251901	0.506177
O6	O	0.872368	-0.219793	0.570763
O7	O	0.787565	-0.284013	0.271315
O8	O	0.723440	-0.135028	0.441732
O9	O	0.872326	-0.284015	0.441663
O10	O	0.787662	-0.135030	0.570802
O11	O	0.723385	-0.219789	0.271345
O12	O	0.638624	-0.219787	0.441640
O13	O	0.723344	-0.284011	0.740988
O14	O	0.638583	-0.284008	0.570640
O15	O	0.787607	-0.219791	0.741058
O16	O	0.787510	-0.368774	0.441571
O17	O	0.723289	-0.368772	0.570601
C18	C	0.755401	-0.387743	0.506094
C19	C	0.755418	-0.445857	0.506094
C20	C	0.619633	-0.251897	0.506135
C21	C	0.561519	-0.251908	0.506142
C22	C	0.788932	-0.806183	0.573505
C23	C	0.788948	-0.860787	0.573526
O24	O	0.817355	-0.888992	0.630756
N25	N	0.755548	-0.888140	0.506278
C26	C	0.722127	-0.860885	0.439012
O27	O	0.693719	-0.889165	0.381815
C28	C	0.722109	-0.806282	0.438997
C29	C	0.755515	-0.778932	0.506242
C30	C	0.822335	-0.778833	0.640745
C31	C	0.822320	-0.724233	0.640722
C32	C	0.788902	-0.696982	0.573459
C33	C	0.755500	-0.724332	0.506219
C34	C	0.688686	-0.779029	0.371737
C35	C	0.688671	-0.724422	0.371728
C36	C	0.722076	-0.697072	0.438973
C37	C	0.722068	-0.642481	0.438933
N38	N	0.755467	-0.615128	0.506180
C39	C	0.788885	-0.642379	0.573443
C40	C	0.722166	-0.975556	0.439051
C41	C	0.722186	-1.030158	0.439060
C42	C	0.789006	-1.030056	0.573575
C43	C	0.788988	-0.975453	0.573560
C44	C	0.755565	-0.948203	0.506299
C45	C	0.788851	-0.527713	0.573389
C46	C	0.788835	-0.473108	0.573357
C47	C	0.722013	-0.473215	0.438846
C48	C	0.722031	-0.527815	0.438874
C49	C	0.755452	-0.555063	0.506154
O50	O	0.693673	-0.614241	0.381735
O51	O	0.817283	-0.614092	0.630640
C52	C	0.201172	-0.218513	0.573511
C53	C	0.146567	-0.218513	0.573517
O54	O	0.118344	-0.190109	0.630745
N55	N	0.119236	-0.251899	0.506206
C56	C	0.146512	-0.285285	0.438875
O57	O	0.118251	-0.313683	0.381621
C58	C	0.201115	-0.285282	0.438864
C59	C	0.228444	-0.251897	0.506188
C60	C	0.228500	-0.185130	0.640828
C61	C	0.283101	-0.185131	0.640823
C62	C	0.310373	-0.218516	0.573500
C63	C	0.283044	-0.251898	0.506183
C64	C	0.228390	-0.318665	0.371529
C65	C	0.282997	-0.318659	0.371524
C66	C	0.310326	-0.285274	0.438847
C67	C	0.364917	-0.285284	0.438854
N68	N	0.392248	-0.251897	0.506166
C69	C	0.364976	-0.218513	0.573489
C70	C	0.031842	-0.285287	0.438902
C71	C	-0.022761	-0.285293	0.438918
C72	C	-0.022702	-0.218520	0.573559
C73	C	0.031901	-0.218517	0.573548
C74	C	0.059173	-0.251900	0.506214
C75	C	0.479641	-0.218518	0.573473
C76	C	0.534247	-0.218524	0.573465
C77	C	0.534183	-0.285295	0.438820
C78	C	0.479582	-0.285292	0.438832
C79	C	0.452313	-0.251899	0.506162
O80	O	0.393175	-0.313672	0.381653
O81	O	0.393244	-0.190115	0.630724
C82	C	0.891848	-0.251905	0.506219
C83	C	0.949962	-0.251906	0.506237
C84	C	0.755475	-0.251901	0.780210
C85	C	0.755475	-0.251900	0.896987
C86	C	0.755564	-0.115528	0.506282
C87	C	0.755601	-0.057414	0.506327
C88	C	0.788935	-0.218468	0.951887
C89	C	0.788932	-0.218470	1.061611
C90	C	0.722010	-0.285341	1.061525
C91	C	0.722010	-0.285336	0.951803
C92	C	0.822400	-0.185033	0.897070
C93	C	0.855862	-0.151598	0.951970
C94	C	0.855860	-0.151600	1.061694
C95	C	0.822395	-0.185037	1.116518
C96	C	0.755472	-0.251912	1.233209
C97	C	0.755473	-0.251908	1.116433
H98	H	0.816040	-0.450842	0.628116
H99	H	0.883105	-0.124372	0.907325
H100	H	0.883103	-0.124373	1.106391
H101	H	0.822406	-0.185028	0.807727
H102	H	0.206149	-0.345850	0.316706
H103	H	0.305199	-0.345844	0.316689
H104	H	0.822390	-0.185030	1.205863
H105	H	0.206301	-0.157942	0.695651
H106	H	0.694806	-0.451019	0.384078
H107	H	0.556398	-0.312477	0.384010
H108	H	0.694765	-0.312563	1.106171
H109	H	0.694756	-0.312551	0.907102
H110	H	0.457330	-0.312483	0.384024
H111	H	0.054149	-0.191331	0.628367
H112	H	-0.044917	-0.191335	0.628374
H113	H	0.694950	-0.953372	0.384270
H114	H	0.816062	-0.549892	0.628182
H115	H	0.849520	-0.701967	0.695481
H116	H	0.849547	-0.801015	0.695524
H117	H	0.816215	-1.052254	0.628346
H118	H	0.816190	-0.953188	0.628317
H119	H	0.694989	-1.052422	0.384291
H120	H	0.661483	-0.801288	0.316979
H121	H	0.661452	-0.702238	0.316957
H122	H	0.054042	-0.312477	0.384074
H123	H	-0.045007	-0.312484	0.384108
H124	H	0.694833	-0.550085	0.384110
H125	H	0.556495	-0.191337	0.628292
H126	H	0.305347	-0.157945	0.695643
H127	H	0.457445	-0.191325	0.628297
