data_functionalizedCrystal
_audit_creation_method	'MofGen! by Chris Wilmer'
_symmetry_space_group_name_H-M	'P1'
_symmetry_Int_Tables_number	1
_symmetry_cell_setting	triclinic
loop_
_symmetry_equiv_pos_as_xyz
  x,y,z
_cell_length_a	12.784890
_cell_length_b	12.837942
_cell_length_c	9.198806
_cell_angle_alpha	90.002604
_cell_angle_beta	90.002877
_cell_angle_gamma	83.967749
loop_
_atom_site_label
_atom_site_type_symbol
_atom_site_fract_x
_atom_site_fract_y
_atom_site_fract_z
O1	O	1.410968	0.006424	0.120848
O2	O	1.910968	0.506424	0.620848
O3	O	1.105969	0.050419	0.120860
O4	O	1.605969	0.550419	0.620860
O5	O	1.251706	-0.121872	0.120845
O6	O	1.751706	0.378128	0.620845
O7	O	1.265232	0.178715	0.120863
O8	O	1.765232	0.678715	0.620863
O9	O	1.251693	-0.121871	-0.120940
O10	O	1.751693	0.378129	0.379060
O11	O	1.105956	0.050419	-0.120925
O12	O	1.605956	0.550419	0.379075
O13	O	1.410956	0.006425	-0.120937
O14	O	1.910956	0.506425	0.379063
Cu15	Cu	1.258455	0.028422	-0.143008
Cu16	Cu	1.758455	0.528422	0.356992
Cu17	Cu	1.258470	0.028421	0.142931
Cu18	Cu	1.758470	0.528421	0.642931
O19	O	1.265219	0.178715	-0.120922
O20	O	1.765219	0.678715	0.379078
C21	C	1.066653	0.053280	-0.000031
C22	C	1.566653	0.553280	0.499969
C23	C	0.949521	0.061794	-0.000026
C24	C	1.449521	0.561794	0.499974
C25	C	1.247130	-0.160080	-0.000046
C26	C	1.747130	0.339920	0.499954
C27	C	1.233502	-0.273929	-0.000043
C28	C	1.733502	0.226071	0.499957
C29	C	0.781351	0.168495	-0.000018
C30	C	1.281351	0.668495	0.499982
C31	C	0.891407	0.160502	-0.000019
C32	C	1.391407	0.660502	0.499981
C33	C	0.897572	-0.028928	-0.000029
C34	C	1.397572	0.471072	0.499971
C35	C	0.787516	-0.020935	-0.000029
C36	C	1.287516	0.479065	0.499971
C37	C	0.729410	0.077780	-0.000025
C38	C	1.229410	0.577780	0.499975
C39	C	0.619353	0.085771	-0.000035
C40	C	1.119353	0.585771	0.499965
C41	C	0.625519	-0.103657	-0.000035
C42	C	1.125519	0.396343	0.499965
C43	C	0.735575	-0.111650	-0.000036
C44	C	1.235575	0.388350	0.499964
C45	C	1.397334	-0.529655	-0.000020
C46	C	1.897334	-0.029655	0.499980
C47	C	1.384534	-0.636627	-0.000017
C48	C	1.884534	-0.136627	0.499983
C49	C	1.195104	-0.594847	-0.000024
C50	C	1.695104	-0.094847	0.499976
C51	C	1.207904	-0.487875	-0.000027
C52	C	1.707904	0.012125	0.499973
C53	C	1.309022	-0.455284	-0.000027
C54	C	1.809022	0.044716	0.499973
C55	C	1.321821	-0.348309	-0.000040
C56	C	1.821821	0.151691	0.499960
C57	C	1.132391	-0.306531	-0.000037
C58	C	1.632391	0.193469	0.499963
C59	C	1.119592	-0.413503	-0.000034
C60	C	1.619592	0.086497	0.499966
C61	C	1.450272	0.003563	-0.000043
C62	C	1.950272	0.503563	0.499957
C63	C	1.567404	-0.004950	-0.000038
C64	C	2.067404	0.495050	0.499962
C65	C	1.269795	0.216924	-0.000028
C66	C	1.769795	0.716924	0.499972
C67	C	1.283422	0.330772	-0.000021
C68	C	1.783422	0.830772	0.499979
N69	N	1.258452	0.028422	-0.344122
N70	N	1.758452	0.528422	0.155878
C71	C	1.319615	-0.044208	-0.416325
C72	C	1.819615	0.455792	0.083675
C73	C	1.319631	-0.044213	-0.583737
C74	C	1.819631	0.455787	-0.083737
N75	N	1.258480	0.028413	0.344045
N76	N	1.758480	0.528413	0.844045
H77	H	0.572044	0.166150	-0.000040
H78	H	1.072044	0.666150	0.499960
H79	H	0.734040	0.248872	-0.000033
H80	H	1.234040	0.748872	0.499967
H81	H	1.479668	-0.503120	-0.000034
H82	H	1.979668	-0.003120	0.499966
H83	H	1.037264	-0.440054	-0.000029
H84	H	1.537264	0.059946	0.499971
N85	N	0.569501	-0.201510	-0.000038
N86	N	1.069501	0.298490	0.499962
H87	H	0.590002	-0.244305	-0.089672
H88	H	1.090002	0.255695	0.410328
H89	H	0.490979	-0.181388	0.000014
H90	H	0.990979	0.318612	0.500014
N91	N	1.389007	-0.126578	-0.665970
N92	N	1.889007	0.373422	-0.165970
H93	H	1.379187	-0.114905	-0.773907
H94	H	1.879187	0.385095	-0.273907
H95	H	1.369270	-0.198307	-0.639451
H96	H	1.869270	0.301693	-0.139451
N97	N	0.798245	-0.218118	-0.000046
N98	N	1.298245	0.281882	0.499954
H99	H	0.844048	-0.225662	0.089583
H100	H	1.344048	0.274338	0.589583
H101	H	0.843977	-0.225586	-0.089736
H102	H	1.343977	0.274414	0.410264
N103	N	1.479786	-0.716842	-0.000031
N104	N	1.979786	-0.216842	0.499969
H105	H	1.456337	-0.789555	-0.000031
H106	H	1.956337	-0.289555	0.499969
H107	H	1.523388	-0.707264	0.089601
H108	H	2.023388	-0.207264	0.589601
H109	H	1.060481	-0.245964	-0.000055
H110	H	1.560481	0.254036	0.499945
H111	H	0.933693	0.234372	-0.000016
H112	H	1.433693	0.734372	0.499984
N113	N	1.430877	-0.313152	-0.000049
N114	N	1.930877	0.186848	0.499951
H115	H	1.484879	-0.376502	-0.000040
H116	H	1.984879	0.123498	0.499960
H117	H	1.440315	-0.269672	0.089581
H118	H	1.940315	0.230328	0.589581
H119	H	0.944901	-0.109296	-0.000021
H120	H	1.444901	0.390704	0.499979
H121	H	1.112778	-0.621402	-0.000009
H122	H	1.612778	-0.121402	0.499991
N123	N	1.388939	-0.126597	-0.334054
N124	N	1.888939	0.373403	0.165946
H125	H	1.379088	-0.114925	-0.226122
H126	H	1.879088	0.385075	0.273878
H127	H	1.464924	-0.121680	-0.360544
H128	H	1.964924	0.378320	0.139456
N129	N	1.189107	0.110791	-0.573741
N130	N	1.689107	0.610791	-0.073741
H131	H	1.234124	0.152489	-0.510577
H132	H	1.734124	0.652489	-0.010577
H133	H	1.138427	0.075745	-0.510687
H134	H	1.638427	0.575745	-0.010687
N135	N	1.189099	0.110782	-0.426403
N136	N	1.689099	0.610782	0.073597
H137	H	1.208795	0.182551	-0.399988
H138	H	1.708795	0.682551	0.100012
H139	H	1.113117	0.105785	-0.399974
H140	H	1.613117	0.605785	0.100026
