data_functionalizedCrystal
_audit_creation_method	'MofGen! by Chris Wilmer'
_symmetry_space_group_name_H-M	'P1'
_symmetry_Int_Tables_number	1
_symmetry_cell_setting	triclinic
loop_
_symmetry_equiv_pos_as_xyz
  x,y,z
_cell_length_a	29.839131
_cell_length_b	19.121424
_cell_length_c	19.120904
_cell_angle_alpha	94.747313
_cell_angle_beta	92.409150
_cell_angle_gamma	92.485340
loop_
_atom_site_label
_atom_site_type_symbol
_atom_site_fract_x
_atom_site_fract_y
_atom_site_fract_z
Zn1	Zn	-0.159559	1.058602	-0.352097
Zn2	Zn	0.340441	1.558602	0.147903
Zn3	Zn	-0.231342	1.063508	-0.234435
Zn4	Zn	0.268658	1.563508	0.265565
Zn5	Zn	-0.159574	0.945964	-0.239452
Zn6	Zn	0.340426	1.445964	0.260548
Zn7	Zn	-0.238013	0.940873	-0.357057
Zn8	Zn	0.261987	1.440873	0.142943
O9	O	-0.197122	1.002237	-0.295760
O10	O	0.302878	1.502237	0.204240
O11	O	-0.166283	1.157715	-0.332314
O12	O	0.333717	1.657715	0.167686
O13	O	-0.219036	1.052099	-0.136641
O14	O	0.280964	1.552099	0.363359
O15	O	-0.096703	0.960983	-0.254418
O16	O	0.403297	1.460983	0.245582
O17	O	-0.219021	1.161319	-0.245868
O18	O	0.280979	1.661319	0.254132
O19	O	-0.096692	1.043738	-0.337178
O20	O	0.403308	1.543738	0.162822
O21	O	-0.166308	0.965740	-0.140326
O22	O	0.333692	1.465740	0.359674
O23	O	-0.172777	0.846826	-0.259227
O24	O	0.327223	1.346826	0.240773
O25	O	-0.230392	0.952306	-0.454859
O26	O	0.269608	1.452306	0.045141
O27	O	-0.230406	0.843086	-0.345631
O28	O	0.269594	1.343086	0.154369
O29	O	-0.172752	1.038801	-0.451215
O30	O	0.327248	1.538801	0.048785
O31	O	-0.295095	1.047162	-0.250678
O32	O	0.204905	1.547162	0.249322
O33	O	-0.299997	0.957063	-0.340767
O34	O	0.200003	1.457063	0.159233
C35	C	-0.202318	0.819425	-0.303512
C36	C	0.297682	1.319425	0.196488
C37	C	-0.204552	0.741217	-0.306845
C38	C	0.295448	1.241217	0.193155
C39	C	-0.218681	0.298789	-0.328004
C40	C	0.281319	0.798789	0.171996
C41	C	-0.216585	0.372274	-0.324860
C42	C	0.283415	0.872274	0.175140
C43	C	-0.185489	0.410938	-0.278376
C44	C	0.314511	0.910938	0.221624
C45	C	-0.156490	0.376113	-0.235029
C46	C	0.343510	0.876113	0.264971
C47	C	-0.158588	0.302629	-0.238171
C48	C	0.341412	0.802629	0.261829
C49	C	-0.177651	0.632908	-0.266640
C50	C	0.322349	1.132908	0.233360
C51	C	-0.175554	0.706397	-0.263503
C52	C	0.324446	1.206397	0.236497
C53	C	-0.235650	0.702553	-0.353333
C54	C	0.264350	1.202553	0.146667
C55	C	-0.237744	0.629068	-0.356473
C56	C	0.262256	1.129068	0.143527
C57	C	-0.208747	0.594250	-0.313124
C58	C	0.291253	1.094250	0.186876
C59	C	-0.183345	0.486052	-0.275162
C60	C	0.316655	0.986052	0.224838
C61	C	-0.210894	0.519137	-0.316335
C62	C	0.289106	1.019137	0.183665
C63	C	-0.313847	1.002111	-0.295731
C64	C	0.186153	1.502111	0.204269
C65	C	-0.363782	1.002121	-0.295739
C66	C	0.136218	1.502121	0.204261
C67	C	-0.670857	1.049230	-0.248913
C68	C	-0.170857	1.549230	0.251087
C69	C	-0.858528	1.049316	-0.248936
C70	C	-0.358528	1.549316	0.251064
O71	O	-0.880612	1.089271	-0.209101
O72	O	-0.380612	1.589271	0.290899
N73	N	-0.884561	1.002380	-0.295807
N74	N	-0.384561	1.502380	0.204193
C75	C	-0.863674	0.955423	-0.342678
C76	C	-0.363674	1.455423	0.157322
O77	O	-0.890123	0.915508	-0.382550
O78	O	-0.390123	1.415508	0.117450
C79	C	-0.676003	0.955341	-0.342657
C80	C	-0.176003	1.455341	0.157343
C81	C	-0.649973	1.002275	-0.295779
C82	C	-0.149973	1.502275	0.204221
C83	C	-0.644826	1.096161	-0.202039
C84	C	-0.144826	1.596161	0.297961
C85	C	-0.597911	1.096136	-0.202031
C86	C	-0.097911	1.596136	0.297969
C87	C	-0.577027	1.049181	-0.248897
C88	C	-0.077027	1.549181	0.251103
C89	C	-0.603058	1.002251	-0.295771
C90	C	-0.103058	1.502251	0.204229
C91	C	-0.655116	0.908388	-0.389531
C92	C	-0.155116	1.408388	0.110469
C93	C	-0.608196	0.908373	-0.389523
C94	C	-0.108196	1.408373	0.110477
C95	C	-0.582165	0.955307	-0.342645
C96	C	-0.082165	1.455307	0.157355
C97	C	-0.535258	0.955271	-0.342629
C98	C	-0.035258	1.455271	0.157371
N99	N	-0.509225	1.002207	-0.295758
N100	N	-0.009225	1.502207	0.204242
C101	C	-0.530110	1.049162	-0.248892
C102	C	-0.030110	1.549162	0.251108
C103	C	-0.962203	0.955468	-0.342685
C104	C	-0.462203	1.455468	0.157315
C105	C	-1.009121	0.955488	-0.342689
C106	C	-0.509121	1.455488	0.157311
C107	C	-1.003972	1.049382	-0.248948
C108	C	-0.503972	1.549382	0.251052
C109	C	-0.957054	1.049358	-0.248941
C110	C	-0.457054	1.549358	0.251059
C111	C	-0.936170	1.002404	-0.295814
C112	C	-0.436170	1.502404	0.204186
C113	C	-0.431585	1.049106	-0.248879
C114	C	0.068415	1.549106	0.251121
C115	C	-0.384666	1.049076	-0.248873
C116	C	0.115334	1.549076	0.251127
C117	C	-0.389819	0.955184	-0.342616
C118	C	0.110181	1.455184	0.157384
C119	C	-0.436734	0.955212	-0.342620
C120	C	0.063266	1.455212	0.157380
C121	C	-0.457615	1.002179	-0.295748
C122	C	0.042385	1.502179	0.204252
O123	O	-0.513144	0.915343	-0.382449
O124	O	-0.013144	1.415343	0.117551
O125	O	-0.503653	1.089081	-0.209037
O126	O	-0.003653	1.589081	0.290963
C127	C	-0.717772	1.049255	-0.248921
C128	C	-0.217772	1.549255	0.251079
C129	C	-0.743803	1.002324	-0.295795
C130	C	-0.243803	1.502324	0.204205
C131	C	-0.722918	0.955369	-0.342661
C132	C	-0.222918	1.455369	0.157339
C133	C	-0.790720	1.002343	-0.295799
C134	C	-0.290720	1.502343	0.204201
C135	C	-0.811604	1.049299	-0.248933
C136	C	-0.311604	1.549299	0.251067
C137	C	-0.785571	1.096234	-0.202063
C138	C	-0.285571	1.596234	0.297937
C139	C	-0.738656	1.096210	-0.202055
C140	C	-0.238656	1.596210	0.297945
C141	C	-0.748951	0.908433	-0.389532
C142	C	-0.248951	1.408433	0.110468
C143	C	-0.795866	0.908461	-0.389535
C144	C	-0.295866	1.408461	0.110465
C145	C	-0.816750	0.955416	-0.342669
C146	C	-0.316750	1.455416	0.157331
C147	C	-0.079941	1.002381	-0.295804
C148	C	0.420059	1.502381	0.204196
C149	C	-0.030005	1.002443	-0.295823
C150	C	0.469995	1.502443	0.204177
C151	C	-0.202314	0.994439	-0.479280
C152	C	0.297686	1.494439	0.020720
C153	C	-0.204527	0.991116	-0.557486
C154	C	0.295473	1.491116	-0.057486
C155	C	-0.191906	1.185761	-0.287978
C156	C	0.308094	1.685761	0.212022
C157	C	-0.189683	1.263969	-0.284662
C158	C	0.310317	1.763969	0.215338
C159	C	-0.175557	1.034586	-0.592331
C160	C	0.324443	1.534586	-0.092331
C161	C	-0.177635	1.031455	-0.665814
C162	C	0.322365	1.531455	-0.165814
C163	C	-0.208684	0.984857	-0.704450
C164	C	0.291316	1.484857	-0.204450
C165	C	-0.237655	0.941382	-0.669599
C166	C	0.262345	1.441382	-0.169599
C167	C	-0.235575	0.944510	-0.596118
C168	C	0.264425	1.444510	-0.096118
C169	C	-0.216464	0.973157	-0.926410
C170	C	0.283536	1.473157	-0.426410
C171	C	-0.218543	0.970034	-0.999896
C172	C	0.281457	1.470034	-0.499896
C173	C	-0.158522	1.060106	-0.996105
C174	C	0.341478	1.560106	-0.496105
C175	C	-0.156447	1.063232	-0.922623
C176	C	0.343553	1.563232	-0.422623
C177	C	-0.185415	1.019755	-0.887779
C178	C	0.314585	1.519755	-0.387779
C179	C	-0.210809	0.981657	-0.779561
C180	C	0.289191	1.481657	-0.279561
C181	C	-0.183288	1.022952	-0.812670
C182	C	0.316712	1.522952	-0.312670
C183	C	-0.191916	1.010045	-0.112952
C184	C	0.308084	1.510045	0.387048
C185	C	-0.189573	1.013504	-0.034741
C186	C	0.310427	1.513504	0.465259
H187	H	-0.158025	0.517540	-0.237316
H188	H	0.341975	1.017540	0.262684
F189	F	-0.266407	0.898242	-0.559034
F190	F	0.233593	1.398242	-0.059034
H191	H	-0.134937	1.095502	-1.024483
H192	H	0.365063	1.595502	-0.524483
F193	F	-0.146816	1.077746	-0.702894
F194	F	0.353184	1.577746	-0.202894
H195	H	-0.244001	0.267314	-0.365860
H196	H	0.255999	0.767314	0.134140
F197	F	-0.150240	1.072537	-0.771549
F198	F	0.349760	1.572537	-0.271549
F199	F	-0.570213	1.146098	-0.152144
F200	F	-0.070213	1.646098	0.347856
F201	F	-0.243855	0.932068	-0.820686
F202	F	0.256145	1.432068	-0.320686
F203	F	-0.247295	0.926884	-0.889336
F204	F	0.252705	1.426884	-0.389336
F205	F	-0.247450	0.409329	-0.370989
F206	F	0.252550	0.909329	0.129011
H207	H	-0.263067	0.597593	-0.394324
H208	H	0.236933	1.097593	0.105676
H209	H	-0.457929	0.916997	-0.380794
H210	H	0.042071	1.416997	0.119206
H211	H	-0.661825	1.134401	-0.163874
H212	H	-0.161825	1.634401	0.336126
H213	H	-0.372807	0.916952	-0.380772
H214	H	0.127193	1.416952	0.119228
F215	F	-0.585973	0.858397	-0.439415
F216	F	-0.085973	1.358397	0.060585
H217	H	-0.131172	0.407599	-0.197178
H218	H	0.368828	0.907599	0.302822
H219	H	-0.802584	1.134465	-0.163901
H220	H	-0.302584	1.634465	0.336099
F221	F	-0.266512	0.739615	-0.399460
F222	F	0.233488	1.239615	0.100540
F223	F	-0.127726	0.265572	-0.192037
F224	F	0.372274	0.765572	0.307963
H225	H	-0.717465	1.134428	-0.163882
H226	H	-0.217465	1.634428	0.336118
F227	F	-0.142457	0.747545	-0.214024
F228	F	0.357543	1.247545	0.285976
F229	F	-0.146786	0.595861	-0.220509
F230	F	0.353214	1.095861	0.279491
F231	F	-0.823565	0.858502	-0.439432
F232	F	-0.323565	1.358502	0.060568
H233	H	-0.448581	1.087353	-0.210713
H234	H	0.051419	1.587353	0.289287
H235	H	-0.262934	0.903439	-0.701063
H236	H	0.237066	1.403439	-0.201063
H237	H	-0.236214	0.487654	-0.354179
H238	H	0.263786	0.987654	0.145821
H239	H	-0.363473	1.087295	-0.210696
H240	H	0.136527	1.587295	0.289304
H241	H	-0.935862	1.087576	-0.210769
H242	H	-0.435862	1.587576	0.289231
H243	H	-1.020984	1.087615	-0.210788
H244	H	-0.520984	1.587615	0.289212
H245	H	-0.131164	1.101179	-0.891170
H246	H	0.368836	1.601179	-0.391170
H247	H	-0.676303	0.870166	-0.427702
H248	H	-0.176303	1.370166	0.072298
F249	F	-1.036820	0.905526	-0.392576
F250	F	-0.536820	1.405526	0.107424
F251	F	-0.726731	0.858455	-0.439416
F252	F	-0.226731	1.358455	0.060584
H253	H	-0.945203	0.917230	-0.380856
H254	H	-0.445203	1.417230	0.119144
F255	F	-0.142512	1.084185	-0.551218
F256	F	0.357488	1.584185	-0.051218
H257	H	-0.243828	0.932086	-1.031352
H258	H	0.256172	1.432086	-0.531352
