data_functionalizedCrystal
_audit_creation_method	'MofGen! by Chris Wilmer'
_symmetry_space_group_name_H-M	'P1'
_symmetry_Int_Tables_number	1
_symmetry_cell_setting	triclinic
loop_
_symmetry_equiv_pos_as_xyz
  x,y,z
_cell_length_a	17.640112
_cell_length_b	29.839131
_cell_length_c	29.839125
_cell_angle_alpha	89.982291
_cell_angle_beta	101.180576
_cell_angle_gamma	101.266684
loop_
_atom_site_label
_atom_site_type_symbol
_atom_site_fract_x
_atom_site_fract_y
_atom_site_fract_z
Zn1	Zn	1.208283	-0.039898	-0.115400
Zn2	Zn	1.708283	0.460102	0.384600
Zn3	Zn	1.208163	-0.115023	-0.040283
Zn4	Zn	1.708163	0.384977	0.459717
Zn5	Zn	1.076114	-0.055101	-0.055444
Zn6	Zn	1.576114	0.444899	0.444556
Zn7	Zn	1.076022	-0.130219	-0.130543
Zn8	Zn	1.576022	0.369781	0.369457
O9	O	1.142146	-0.085060	-0.085417
O10	O	1.642146	0.414940	0.414583
O11	O	1.318882	-0.037141	-0.092753
O12	O	1.818882	0.462859	0.407247
O13	O	1.190635	-0.107078	0.020572
O14	O	1.690635	0.392922	0.520572
O15	O	1.093735	0.009793	-0.063404
O16	O	1.593735	0.509793	0.436596
O17	O	1.318794	-0.092336	-0.037565
O18	O	1.818794	0.407664	0.462435
O19	O	1.190839	0.020963	-0.107453
O20	O	1.690839	0.520963	0.392547
O21	O	1.093619	-0.063053	0.009433
O22	O	1.593619	0.436947	0.509433
O23	O	0.965487	-0.077788	-0.078088
O24	O	1.465487	0.422212	0.421912
O25	O	1.093578	-0.118234	-0.191400
O26	O	1.593578	0.381766	0.308600
O27	O	0.965420	-0.132976	-0.133263
O28	O	1.465420	0.367024	0.366737
O29	O	1.190750	-0.051875	-0.180274
O30	O	1.690750	0.448125	0.319726
O31	O	1.190546	-0.179916	-0.052249
O32	O	1.690546	0.320084	0.447751
O33	O	1.093463	-0.191080	-0.118563
O34	O	1.593463	0.308920	0.381437
C35	C	0.936772	-0.108681	-0.108964
C36	C	1.436772	0.391319	0.391036
C37	C	0.848913	-0.118797	-0.119048
C38	C	1.348913	0.381203	0.380952
C39	C	0.560020	-0.008204	-0.008813
C40	C	1.060020	0.491796	0.491187
C41	C	0.477462	-0.017718	-0.018295
C42	C	0.977462	0.482282	0.481705
C43	C	0.477446	-0.075265	-0.075649
C44	C	0.977446	0.424735	0.424351
C45	C	0.560005	-0.065754	-0.066174
C46	C	1.060005	0.434246	0.433826
C47	C	0.601286	-0.032223	-0.032755
C48	C	1.101286	0.467777	0.467245
C49	C	0.601271	-0.089773	-0.090116
C50	C	1.101271	0.410227	0.409884
C51	C	0.683823	-0.080264	-0.080640
C52	C	1.183823	0.419736	0.419360
C53	C	0.725109	-0.046736	-0.047221
C54	C	1.225109	0.453264	0.452779
C55	C	0.683838	-0.022714	-0.023279
C56	C	1.183838	0.477286	0.476721
C57	C	0.559990	-0.123306	-0.123533
C58	C	1.059990	0.376694	0.376467
C59	C	0.601255	-0.147325	-0.147475
C60	C	1.101255	0.352675	0.352525
C61	C	0.683809	-0.137814	-0.138001
C62	C	1.183809	0.362186	0.361999
C63	C	0.725095	-0.104286	-0.104583
C64	C	1.225095	0.395714	0.395417
C65	C	0.725081	-0.161836	-0.161944
C66	C	1.225081	0.338164	0.338056
C67	C	0.807632	-0.152327	-0.152467
C68	C	1.307632	0.347673	0.347533
C69	C	0.807647	-0.094777	-0.095106
C70	C	1.307647	0.405223	0.404894
C71	C	1.142003	-0.201799	-0.085411
C72	C	1.642003	0.298201	0.414589
C73	C	1.142014	-0.251732	-0.085416
C74	C	1.642014	0.248268	0.414584
C75	C	1.192789	-0.555524	-0.050919
C76	C	1.692789	-0.055524	0.449081
C77	C	1.192886	-0.743186	-0.050926
C78	C	1.692886	-0.243186	0.449074
O79	O	1.235944	-0.762489	-0.021591
O80	O	1.735944	-0.262489	0.478409
N81	N	1.142309	-0.772483	-0.085432
N82	N	1.642309	-0.272483	0.414568
C83	C	1.091708	-0.754862	-0.119942
C84	C	1.591708	-0.254862	0.380058
O85	O	1.048697	-0.784087	-0.149295
O86	O	1.548697	-0.284087	0.350705
C87	C	1.091615	-0.567201	-0.119937
C88	C	1.591615	-0.067201	0.380063
C89	C	1.142190	-0.537906	-0.085425
C90	C	1.642190	-0.037906	0.414575
C91	C	1.243360	-0.526230	-0.016411
C92	C	1.743360	-0.026230	0.483589
C93	C	1.243332	-0.479318	-0.016408
C94	C	1.743332	0.020682	0.483592
C95	C	1.192733	-0.461700	-0.050914
C96	C	1.692733	0.038300	0.449086
C97	C	1.142162	-0.490994	-0.085423
C98	C	1.642162	0.009006	0.414577
C99	C	1.041018	-0.549580	-0.154448
C100	C	1.541018	-0.049580	0.345552
C101	C	1.041001	-0.502661	-0.154444
C102	C	1.541001	-0.002661	0.345556
C103	C	1.091576	-0.473366	-0.119932
C104	C	1.591576	0.026634	0.380068
C105	C	1.091535	-0.426464	-0.119926
C106	C	1.591535	0.073536	0.380074
N107	N	1.142112	-0.397166	-0.085419
N108	N	1.642112	0.102834	0.414581
C109	C	1.192711	-0.414785	-0.050913
C110	C	1.692711	0.085215	0.449087
C111	C	1.091759	-0.853387	-0.119941
C112	C	1.591759	-0.353387	0.380059
C113	C	1.091782	-0.900302	-0.119942
C114	C	1.591782	-0.400302	0.380058
C115	C	1.192961	-0.888623	-0.050926
C116	C	1.692961	-0.388623	0.449074
C117	C	1.192934	-0.841707	-0.050924
C118	C	1.692934	-0.341707	0.449076
C119	C	1.142336	-0.824090	-0.085435
C120	C	1.642336	-0.324090	0.414565
C121	C	1.192648	-0.316266	-0.050910
C122	C	1.692648	0.183734	0.449090
C123	C	1.192613	-0.269350	-0.050910
C124	C	1.692613	0.230650	0.449090
C125	C	1.091437	-0.281034	-0.119927
C126	C	1.591437	0.218966	0.380073
C127	C	1.091468	-0.327945	-0.119926
C128	C	1.591468	0.172055	0.380074
C129	C	1.142080	-0.345560	-0.085416
C130	C	1.642080	0.154440	0.414584
O131	O	1.048506	-0.407129	-0.149248
O132	O	1.548506	0.092871	0.350752
O133	O	1.235728	-0.385551	-0.021570
O134	O	1.735728	0.114449	0.478430
C135	C	1.192817	-0.602437	-0.050922
C136	C	1.692817	-0.102437	0.449078
C137	C	1.142246	-0.631731	-0.085430
C138	C	1.642246	-0.131731	0.414570
C139	C	1.091647	-0.614113	-0.119936
C140	C	1.591647	-0.114113	0.380064
C141	C	1.142268	-0.678646	-0.085431
C142	C	1.642268	-0.178646	0.414569
C143	C	1.192867	-0.696264	-0.050925
C144	C	1.692867	-0.196264	0.449075
C145	C	1.243444	-0.666967	-0.016419
C146	C	1.743444	-0.166967	0.483581
C147	C	1.243416	-0.620055	-0.016416
C148	C	1.743416	-0.120055	0.483584
C149	C	1.041070	-0.643410	-0.154443
C150	C	1.541070	-0.143410	0.345557
C151	C	1.041101	-0.690322	-0.154443
C152	C	1.541101	-0.190322	0.345557
C153	C	1.091700	-0.707940	-0.119937
C154	C	1.591700	-0.207940	0.380063
C155	C	1.348321	-0.061348	-0.061779
C156	C	1.848321	0.438652	0.438221
C157	C	1.436180	-0.051243	-0.051705
C158	C	1.936180	0.448757	0.448295
C159	C	1.142167	-0.085054	-0.202593
C160	C	1.642167	0.414946	0.297407
C161	C	1.142176	-0.085051	-0.252527
C162	C	1.642176	0.414949	0.247473
C163	C	1.142310	0.032137	-0.085431
C164	C	1.642310	0.532137	0.414569
C165	C	1.142381	0.082080	-0.085436
C166	C	1.642381	0.582080	0.414564
C167	C	1.192826	-0.050417	-0.556374
C168	C	1.692826	0.449583	-0.056374
C169	C	1.192866	-0.050374	-0.744042
C170	C	1.692866	0.449626	-0.244042
O171	O	1.235872	-0.020976	-0.763386
O172	O	1.735872	0.479024	-0.263386
N173	N	1.142281	-0.084919	-0.773300
N174	N	1.642281	0.415081	-0.273300
C175	C	1.091679	-0.119475	-0.755638
C176	C	1.591679	0.380525	-0.255638
O177	O	1.048649	-0.148853	-0.784830
O178	O	1.548649	0.351147	-0.284830
C179	C	1.091637	-0.119515	-0.567971
C180	C	1.591637	0.380485	-0.067971
C181	C	1.142230	-0.084971	-0.538715
C182	C	1.642230	0.415029	-0.038715
C183	C	1.243415	-0.015875	-0.527118
C184	C	1.743415	0.484125	-0.027118
C185	C	1.243408	-0.015887	-0.480204
C186	C	1.743408	0.484113	0.019796
C187	C	1.192812	-0.050442	-0.462545
C188	C	1.692812	0.449558	0.037455
C189	C	1.142223	-0.084983	-0.491800
C190	C	1.642223	0.415017	0.008200
C191	C	1.041031	-0.154069	-0.550310
C192	C	1.541031	0.345931	-0.050310
C193	C	1.041024	-0.154076	-0.503390
C194	C	1.541024	0.345924	-0.003390
C195	C	1.091617	-0.119531	-0.474134
C196	C	1.591617	0.380469	0.025866
C197	C	1.091619	-0.119550	-0.427226
C198	C	1.591619	0.380450	0.072774
N199	N	1.142204	-0.085005	-0.397969
N200	N	1.642204	0.414995	0.102031
C201	C	1.192800	-0.050451	-0.415628
C202	C	1.692800	0.449549	0.084372
C203	C	1.091706	-0.119451	-0.854166
C204	C	1.591706	0.380549	-0.354166
C205	C	1.091718	-0.119442	-0.901082
C206	C	1.591718	0.380558	-0.401082
C207	C	1.192903	-0.050340	-0.889483
C208	C	1.692903	0.449660	-0.389483
C209	C	1.192895	-0.050352	-0.842566
C210	C	1.692895	0.449648	-0.342566
C211	C	1.142291	-0.084907	-0.824908
C212	C	1.642291	0.415093	-0.324908
C213	C	1.192782	-0.050480	-0.317104
C214	C	1.692782	0.449520	0.182896
C215	C	1.192772	-0.050497	-0.270186
C216	C	1.692772	0.449503	0.229814
C217	C	1.091584	-0.119596	-0.281789
C218	C	1.591584	0.380404	0.218211
C219	C	1.091596	-0.119581	-0.328703
C220	C	1.591596	0.380419	0.171297
C221	C	1.142198	-0.085019	-0.346359
C222	C	1.642198	0.414981	0.153641
O223	O	1.048630	-0.148930	-0.407852
O224	O	1.548630	0.351070	0.092148
O225	O	1.235812	-0.021071	-0.386430
O226	O	1.735812	0.478929	0.113570
C227	C	1.192834	-0.050404	-0.603288
C228	C	1.692834	0.449596	-0.103288
C229	C	1.142245	-0.084946	-0.632544
C230	C	1.642245	0.415054	-0.132544
C231	C	1.091649	-0.119500	-0.614885
C232	C	1.591649	0.380500	-0.114885
C233	C	1.142256	-0.084936	-0.679461
C234	C	1.642256	0.415064	-0.179461
C235	C	1.192852	-0.050382	-0.697120
C236	C	1.692852	0.449618	-0.197120
C237	C	1.243437	-0.015838	-0.667862
C238	C	1.743437	0.484162	-0.167862
C239	C	1.243430	-0.015850	-0.620948
C240	C	1.743430	0.484150	-0.120948
C241	C	1.041064	-0.154045	-0.644142
C242	C	1.541064	0.345955	-0.144142
C243	C	1.041076	-0.154030	-0.691057
C244	C	1.541076	0.345970	-0.191057
C245	C	1.091672	-0.119476	-0.708716
C246	C	1.591672	0.380524	-0.208716
C247	C	1.142170	-0.085029	0.031308
C248	C	1.642170	0.414971	0.531308
C249	C	1.142314	-0.084888	0.081259
C250	C	1.642314	0.415112	0.581259
H251	H	1.233797	-0.245500	-0.022805
H252	H	1.733797	0.254500	0.477195
H253	H	1.233863	-0.330601	-0.022809
H254	H	1.733863	0.169399	0.477191
C255	C	1.248555	-0.012328	-0.908918
C256	C	1.748555	0.487672	-0.408918
N257	N	1.290465	0.016303	-0.923558
N258	N	1.790465	0.516303	-0.423558
C259	C	1.298962	-0.447100	0.021561
C260	C	1.798962	0.052900	0.521561
N261	N	1.340864	-0.422837	0.050162
N262	N	1.840864	0.077163	0.550162
C263	C	0.555838	-0.184207	-0.184236
C264	C	1.055838	0.315793	0.315764
N265	N	0.521630	-0.211986	-0.211926
N266	N	1.021630	0.288014	0.288074
H267	H	1.284599	-0.596206	0.011687
H268	H	1.784599	-0.096206	0.511687
H269	H	0.999806	-0.182211	-0.489018
H270	H	1.499806	0.317789	0.010982
C271	C	1.035946	-0.157584	-0.360885
C272	C	1.535946	0.342416	0.139115
N273	N	0.994023	-0.186206	-0.385122
N274	N	1.494023	0.313794	0.114878
H275	H	0.691458	-0.189140	-0.189150
H276	H	1.191458	0.310860	0.310850
C277	C	1.036067	-0.157446	-0.933258
C278	C	1.536067	0.342554	-0.433258
N279	N	0.994144	-0.186070	-0.957493
N280	N	1.494144	0.313930	-0.457493
H281	H	1.050392	-0.147731	-0.267402
H282	H	1.550392	0.352269	0.232598
C283	C	1.299089	0.022174	-0.687297
C284	C	1.799089	0.522174	-0.187297
N285	N	1.340999	0.050805	-0.701938
N286	N	1.840999	0.550805	-0.201938
H287	H	0.841232	-0.171886	-0.171964
H288	H	1.341232	0.328114	0.328036
H289	H	0.841260	-0.067466	-0.067900
H290	H	1.341260	0.432534	0.432100
C291	C	0.432029	-0.112147	-0.112410
C292	C	0.932029	0.387853	0.387590
N293	N	0.397821	-0.139926	-0.140100
N294	N	0.897821	0.360074	0.359900
C295	C	0.985460	-0.722541	-0.192411
C296	C	1.485460	-0.222541	0.307589
N297	N	0.943556	-0.746807	-0.221009
N298	N	1.443556	-0.246807	0.278991
H299	H	1.050554	-0.839047	-0.148045
H300	H	1.550554	-0.339047	0.351955
C301	C	1.036035	-0.157467	-0.834749
C302	C	1.536035	0.342533	-0.334749
N303	N	0.994104	-0.186102	-0.820127
N304	N	1.494104	0.313898	-0.320127
C305	C	1.299054	0.022120	-0.448029
C306	C	1.799054	0.522120	0.051971
N307	N	1.340966	0.050750	-0.423798
N308	N	1.840966	0.550750	0.076202
H309	H	1.284568	-0.540569	0.011689
H310	H	1.784568	-0.040569	0.511689
C311	C	0.985338	-0.483285	-0.192410
C312	C	1.485338	0.016715	0.307590
N313	N	0.943411	-0.468693	-0.221005
N314	N	1.443411	0.031307	0.278995
C315	C	0.605433	0.028684	0.027948
C316	C	1.105433	0.528684	0.527948
N317	N	0.639638	0.056465	0.055636
N318	N	1.139638	0.556465	0.555636
H319	H	1.234161	-0.902975	-0.022830
H320	H	1.734161	-0.402975	0.477170
H321	H	1.234117	-0.817858	-0.022822
H322	H	1.734117	-0.317858	0.477178
H323	H	1.050289	-0.351798	-0.148029
H324	H	1.550289	0.148202	0.351971
H325	H	0.492770	-0.131047	-0.131247
H326	H	0.992770	0.368953	0.368753
C327	C	1.036138	-0.932522	-0.157904
C328	C	1.536138	-0.432522	0.342096
N329	N	0.994228	-0.956789	-0.186500
N330	N	1.494228	-0.456789	0.313500
H331	H	1.233975	-0.022366	-0.246367
H332	H	1.733975	0.477634	0.253633
H333	H	1.284628	0.012280	-0.597131
H334	H	1.784628	0.512280	-0.097131
H335	H	0.999831	-0.573425	-0.182549
H336	H	1.499831	-0.073425	0.317451
C337	C	0.815920	-0.036275	-0.036798
C338	C	1.315920	0.463725	0.463202
N339	N	0.884318	-0.028395	-0.028949
N340	N	1.384318	0.471605	0.471051
C341	C	1.035784	-0.261644	-0.157883
C342	C	1.535784	0.238356	0.342117
N343	N	0.993870	-0.247038	-0.186474
N344	N	1.493870	0.252962	0.313526
C345	C	1.299102	-0.686356	0.021539
C346	C	1.799102	-0.186356	0.521539
N347	N	1.341024	-0.700962	0.050125
N348	N	1.841024	-0.200962	0.550125
C349	C	0.985367	-0.192068	-0.582483
C350	C	1.485367	0.307932	-0.082483
N351	N	0.943434	-0.220691	-0.606715
N352	N	1.443434	0.279309	-0.106715
H353	H	0.999878	-0.182164	-0.714873
H354	H	1.499878	0.317836	-0.214873
H355	H	0.443867	0.001847	0.001201
H356	H	0.943867	0.501847	0.501201
H357	H	0.999867	-0.629069	-0.182543
H358	H	1.499867	-0.129069	0.317457
H359	H	0.717450	0.004597	0.003928
H360	H	1.217450	0.504597	0.503928
H361	H	1.233984	-0.022335	-0.331474
H362	H	1.733984	0.477665	0.168526
H363	H	1.284617	0.012266	-0.541491
H364	H	1.784617	0.512266	-0.041491
C365	C	1.248546	-0.012348	-0.810389
C366	C	1.748546	0.487652	-0.310389
N367	N	1.290462	0.016279	-0.786155
N368	N	1.790462	0.516279	-0.286155
H369	H	0.999862	-0.182184	-0.629770
H370	H	1.499862	0.317816	-0.129770
