data_functionalizedCrystal
_audit_creation_method	'MofGen! by Chris Wilmer'
_symmetry_space_group_name_H-M	'P1'
_symmetry_Int_Tables_number	1
_symmetry_cell_setting	triclinic
loop_
_symmetry_equiv_pos_as_xyz
  x,y,z
_cell_length_a	17.038272
_cell_length_b	16.098538
_cell_length_c	27.732025
_cell_angle_alpha	87.285658
_cell_angle_beta	93.127488
_cell_angle_gamma	87.069734
loop_
_atom_site_label
_atom_site_type_symbol
_atom_site_fract_x
_atom_site_fract_y
_atom_site_fract_z
O1	O	-1.039648	0.069107	0.102902
O2	O	-0.812038	0.069132	0.101235
O3	O	-0.932923	0.069144	0.031994
O4	O	-0.918763	0.069095	0.172143
O5	O	-0.925861	-0.069370	0.036022
O6	O	-0.804977	-0.069381	0.105263
O7	O	-1.032587	-0.069407	0.106929
Zn8	Zn	-0.917661	-0.091386	0.106736
Zn9	Zn	-0.926964	0.091112	0.101429
O10	O	-0.911702	-0.069419	0.176171
C11	C	-0.779397	-0.000121	0.101734
C12	C	-0.692658	-0.000110	0.097213
N13	N	-0.911317	-0.215936	0.110357
C14	C	-0.929098	-0.000104	0.015987
C15	C	-0.928213	-0.000080	-0.037710
C16	C	-1.065228	-0.000152	0.106431
C17	C	-1.151967	-0.000158	0.110951
C18	C	-0.642054	-0.000125	0.138716
C19	C	-0.560553	-0.000135	0.134466
C20	C	-0.529658	-0.000124	0.088712
C21	C	-0.580269	-0.000111	0.047206
C22	C	-0.661768	-0.000107	0.051456
C23	C	-0.284076	-0.000141	0.073696
C24	C	-0.202571	-0.000142	0.069448
C25	C	-0.182861	-0.000168	0.156709
C26	C	-0.264363	-0.000159	0.160956
C27	C	-0.314966	-0.000150	0.119449
C28	C	-0.446352	-0.000131	0.084367
C29	C	-0.398271	-0.000149	0.123795
C30	C	-0.962644	-0.259516	0.080980
C31	C	-0.958213	-0.346705	0.083519
C32	C	-0.902459	-0.390313	0.115437
C33	C	-0.851127	-0.346727	0.144815
C34	C	-0.855554	-0.259539	0.142274
C35	C	-0.886409	-0.653565	0.124640
C36	C	-0.881987	-0.740759	0.127181
C37	C	-0.989073	-0.740731	0.065884
C38	C	-0.993499	-0.653541	0.063347
C39	C	-0.942164	-0.609963	0.092723
C40	C	-0.897931	-0.479435	0.118033
C41	C	-0.946689	-0.520843	0.090124
N42	N	-0.933314	0.215661	0.097804
C43	C	-0.925760	0.075376	-0.423358
C44	C	-0.929079	0.075403	-0.221547
O45	O	-0.932813	0.139618	-0.197326
N46	N	-0.925645	-0.000099	-0.194111
C47	C	-0.921386	-0.075612	-0.217132
O48	O	-0.918549	-0.139830	-0.189166
C49	C	-0.918072	-0.075638	-0.418941
C50	C	-0.921498	-0.000131	-0.446374
C51	C	-0.929187	0.150877	-0.450790
C52	C	-0.928353	0.150869	-0.501240
C53	C	-0.924091	0.075362	-0.524256
C54	C	-0.920664	-0.000139	-0.496824
C55	C	-0.913818	-0.151151	-0.441961
C56	C	-0.912992	-0.151150	-0.492417
C57	C	-0.916419	-0.075644	-0.519849
C58	C	-0.915569	-0.075654	-0.570290
N59	N	-0.919003	-0.000152	-0.597725
C60	C	-0.923264	0.075355	-0.574709
C61	C	-0.923124	-0.075594	-0.111179
C62	C	-0.923951	-0.075587	-0.060726
C63	C	-0.931646	0.075428	-0.065145
C64	C	-0.930813	0.075421	-0.115598
C65	C	-0.926558	-0.000092	-0.138614
C66	C	-0.921512	0.075334	-0.680656
C67	C	-0.920674	0.075320	-0.731109
C68	C	-0.912983	-0.075695	-0.726686
C69	C	-0.913817	-0.075681	-0.676237
C70	C	-0.918084	-0.000160	-0.653223
O71	O	-0.911845	-0.139835	-0.594543
O72	O	-0.926118	0.139564	-0.602684
C73	C	-0.926594	0.075384	-0.372908
C74	C	-0.923167	-0.000117	-0.345475
C75	C	-0.918906	-0.075624	-0.368492
C76	C	-0.923994	-0.000110	-0.295023
C77	C	-0.928255	0.075397	-0.272006
C78	C	-0.931689	0.150899	-0.299442
C79	C	-0.930855	0.150891	-0.349892
C80	C	-0.915471	-0.151126	-0.341056
C81	C	-0.916305	-0.151112	-0.290607
C82	C	-0.920566	-0.075605	-0.267590
C83	C	-0.915527	-0.000168	0.192178
C84	C	-0.916413	-0.000188	0.245874
H85	H	-0.667202	-0.000133	0.175974
H86	H	-0.923461	0.136809	-0.753443
Cl87	Cl	-0.919625	-0.170514	-0.026245
Cl88	Cl	-0.910111	-0.246060	-0.369983
Cl89	Cl	-0.821879	-0.598786	0.161571
H90	H	-0.935153	0.212380	-0.280693
Cl91	Cl	-0.781031	-0.401546	0.184939
H92	H	-0.519354	-0.000146	0.168263
Cl93	Cl	-0.791023	-0.204754	0.179205
H94	H	-0.702970	-0.000094	0.017660
H95	H	-1.030867	-0.776220	0.041966
Cl96	Cl	-0.119242	-0.000182	0.208885
H97	H	-0.924987	0.136831	-0.661924
H98	H	-0.289511	-0.000158	0.198213
H99	H	-0.932660	0.212368	-0.432056
Cl100	Cl	-0.827842	-0.534260	0.158159
Cl101	Cl	-0.935166	0.245819	-0.384371
Cl102	Cl	-0.163733	-0.000147	0.011925
Cl103	Cl	-0.407505	-0.000114	0.026849
H104	H	-0.935111	0.136910	-0.046397
Cl105	Cl	-0.541429	-0.000102	-0.010314
Cl106	Cl	-0.917769	-0.170534	-0.140105
H107	H	-0.913507	-0.212604	-0.268275
Cl108	Cl	-0.437111	-0.000165	0.181313
H109	H	-1.008048	-0.224016	0.054992
H110	H	-1.000007	-0.382188	0.059598
H111	H	-0.836583	-0.776260	0.153174
Cl112	Cl	-0.907645	-0.246087	-0.521348
Cl113	Cl	-1.063591	-0.598720	0.023222
H114	H	-0.992081	-0.485335	0.064135
H115	H	-0.933602	0.136905	-0.137931
Cl116	Cl	-0.347681	-0.000130	0.021515
Cl117	Cl	-0.932670	0.245797	-0.535720
Cl118	Cl	-0.909502	-0.246080	-0.407486
H119	H	-0.910995	-0.137165	-0.653898
Cl120	Cl	-0.907621	-0.170614	-0.755630
