data_functionalizedCrystal
_audit_creation_method	'MofGen! by Chris Wilmer'
_symmetry_space_group_name_H-M	'P1'
_symmetry_Int_Tables_number	1
_symmetry_cell_setting	triclinic
loop_
_symmetry_equiv_pos_as_xyz
  x,y,z
_cell_length_a	10.654559
_cell_length_b	10.654556
_cell_length_c	17.766277
_cell_angle_alpha	89.990242
_cell_angle_beta	90.006640
_cell_angle_gamma	95.512023
loop_
_atom_site_label
_atom_site_type_symbol
_atom_site_fract_x
_atom_site_fract_y
_atom_site_fract_z
O1	O	-0.176437	1.667851	-0.062603
O2	O	-0.193235	1.302374	-0.062602
O3	O	-0.002097	1.493510	-0.062597
O4	O	-0.367574	1.476715	-0.062608
O5	O	-0.002087	1.493476	0.062592
O6	O	-0.193225	1.302340	0.062586
O7	O	-0.176426	1.667817	0.062586
Cu8	Cu	-0.184825	1.485075	0.074017
Cu9	Cu	-0.184837	1.485116	-0.074033
O10	O	-0.367564	1.476681	0.062580
C11	C	-0.191995	1.255559	-0.000008
C12	C	-0.188300	1.116116	-0.000008
C13	C	-0.183105	0.919604	-0.068254
C14	C	-0.186570	1.050627	-0.068251
C15	C	-0.186552	1.050578	0.068236
C16	C	-0.183078	0.919559	0.068232
C17	C	-0.183121	0.919633	-0.147054
C18	C	-0.186586	1.050655	-0.147051
C19	C	-0.414367	1.477934	-0.000015
C20	C	-0.553810	1.481630	-0.000020
C21	C	-0.619340	1.483376	-0.068257
C22	C	-0.750361	1.486846	-0.068249
C23	C	-0.750312	1.486819	0.068239
C24	C	-0.619292	1.483358	0.068230
C25	C	-0.619370	1.483386	-0.147057
C26	C	-0.750391	1.486856	-0.147049
C27	C	0.044706	1.492257	-0.000003
C28	C	0.184148	1.488561	-0.000003
C29	C	-0.177667	1.714632	-0.000010
C30	C	-0.181361	1.854075	-0.000015
N31	N	-0.184815	1.485056	0.178147
N32	N	-0.184836	1.485145	-0.178164
C33	C	-0.100222	1.569719	0.217536
C34	C	-0.100216	1.569726	0.296338
C35	C	-0.184826	1.485083	0.335748
C36	C	-0.269426	1.400404	0.296349
C37	C	-0.269420	1.400391	0.217548
C38	C	-0.299063	1.469627	0.460582
C39	C	-0.299070	1.469649	0.539381
C40	C	-0.184841	1.485117	0.578794
C41	C	-0.070601	1.500589	0.539399
C42	C	-0.070596	1.500575	0.460598
C43	C	-0.184840	1.485087	0.421193
C44	C	-0.100234	1.569792	0.703629
C45	C	-0.100227	1.569790	0.782433
C46	C	-0.269447	1.400474	0.782442
C47	C	-0.269444	1.400470	0.703640
C48	C	-0.184839	1.485135	0.664238
H49	H	-0.187949	1.103911	0.123801
O50	O	-0.289694	0.857821	-0.176305
C51	C	-0.379287	0.717352	-0.272642
C52	C	-0.258491	0.787259	-0.239585
H53	H	-0.354105	0.660307	-0.323818
H54	H	-0.426459	0.651242	-0.228356
H55	H	-0.446746	0.788839	-0.290253
H56	H	-0.190940	0.715863	-0.221978
H57	H	-0.211420	0.853390	-0.283893
H58	H	-0.031327	1.638671	0.328415
O59	O	-0.814014	1.488265	0.134512
C60	C	-0.975245	1.383583	0.213706
C61	C	-0.903180	1.381779	0.138633
H62	H	-1.047370	1.297513	0.217056
H63	H	-0.905972	1.381658	0.262509
H64	H	-1.025803	1.472980	0.217110
H65	H	-0.852618	1.292397	0.135156
H66	H	-0.972513	1.383772	0.089866
O67	O	0.040482	1.515551	0.422446
C68	C	0.267090	1.546298	0.430769
C69	C	0.141387	1.529329	0.474070
H70	H	0.348703	1.557469	0.472488
H71	H	0.276348	1.460093	0.393914
H72	H	0.269269	1.633994	0.393840
H73	H	0.139121	1.441681	0.511040
H74	H	0.132179	1.615599	0.510877
H75	H	-0.565940	1.481955	0.123795
O76	O	-0.292475	1.080083	-0.183125
C77	C	-0.481844	1.002077	-0.248941
C78	C	-0.361990	0.968572	-0.208098
H79	H	-0.538067	0.911942	-0.269156
H80	H	-0.541981	1.054125	-0.208621
H81	H	-0.454161	1.064990	-0.299331
H82	H	-0.389558	0.905621	-0.157710
H83	H	-0.301883	0.916588	-0.248468
H84	H	-0.573108	1.570185	-0.177318
O85	O	-0.584292	1.374078	-0.176278
C86	C	-0.652604	1.172139	-0.231076
C87	C	-0.692503	1.295885	-0.198020
H88	H	-0.740072	1.108875	-0.248649
H89	H	-0.589748	1.194050	-0.282252
H90	H	-0.598443	1.121845	-0.186744
H91	H	-0.746713	1.346241	-0.242297
H92	H	-0.755298	1.273891	-0.146828
O93	O	-0.805778	1.383284	-0.183028
C94	C	-0.950414	1.195632	-0.173902
C95	C	-0.887805	1.312887	-0.133075
H96	H	-1.016726	1.138669	-0.133528
H97	H	-1.006215	1.226381	-0.224299
H98	H	-0.874567	1.134991	-0.194095
H99	H	-0.963570	1.373578	-0.112833
H100	H	-0.831977	1.282049	-0.082713
O101	O	-0.079956	1.112284	-0.176350
C102	C	0.056226	1.143025	-0.284397
C103	C	-0.064577	1.073165	-0.251321
H104	H	0.068712	1.111404	-0.345011
H105	H	0.048453	1.248976	-0.283107
H106	H	0.141001	1.120348	-0.249533
H107	H	-0.149414	1.095738	-0.286159
H108	H	-0.056695	0.967233	-0.252597
O109	O	-0.077297	0.889866	-0.183041
C110	C	0.116778	0.791876	-0.173936
C111	C	-0.003021	0.825484	-0.133098
H112	H	0.176876	0.739841	-0.133570
H113	H	0.089168	0.728979	-0.224336
H114	H	0.173024	0.882023	-0.194125
H115	H	-0.059322	0.735407	-0.112859
H116	H	0.024675	0.888430	-0.082733
O117	O	-0.785644	1.596059	-0.176351
C118	C	-0.783005	1.733015	-0.284404
C119	C	-0.743028	1.609296	-0.251324
H120	H	-0.748544	1.743770	-0.345019
H121	H	-0.890167	1.730882	-0.283111
H122	H	-0.739822	1.816038	-0.249545
H123	H	-0.786123	1.526208	-0.286157
H124	H	-0.635858	1.611539	-0.252604
H125	H	-0.031329	1.638656	0.185458
O126	O	-0.181434	0.856092	0.134587
C127	C	-0.181685	0.869887	0.269964
C128	C	-0.183583	0.941915	0.194869
H129	H	-0.183395	0.939247	0.318722
H130	H	-0.267815	0.797851	0.273430
H131	H	-0.092340	0.819236	0.273329
H132	H	-0.272870	0.992640	0.191453
H133	H	-0.097392	1.013879	0.191434
H134	H	0.022415	1.513183	0.571487
H135	H	-0.031340	1.638728	0.671547
H136	H	-0.031334	1.638729	0.814504
O137	O	-0.351750	1.318191	0.665489
C138	C	-0.519540	1.150206	0.673817
C139	C	-0.426415	1.243347	0.717115
H140	H	-0.579913	1.089653	0.715537
H141	H	-0.582871	1.204903	0.636930
H142	H	-0.464706	1.087049	0.636919
H143	H	-0.481147	1.306528	0.754054
H144	H	-0.363084	1.188572	0.753954
O145	O	-0.410147	1.454553	0.577529
C146	C	-0.636758	1.423924	0.569194
C147	C	-0.511051	1.440978	0.525900
H148	H	-0.718373	1.412970	0.527471
H149	H	-0.639085	1.336168	0.606082
H150	H	-0.645877	1.510107	0.606089
H151	H	-0.501851	1.354864	0.488964
H152	H	-0.508780	1.528784	0.489059
O153	O	-0.409957	1.454784	0.422214
C154	C	-0.546850	1.544516	0.333247
C155	C	-0.421221	1.561474	0.376640
H156	H	-0.556010	1.630772	0.296402
H157	H	-0.549115	1.456835	0.296317
H158	H	-0.628480	1.533415	0.374948
H159	H	-0.339522	1.572629	0.334994
H160	H	-0.419066	1.649133	0.413582
H161	H	-0.338333	1.331551	0.814528
H162	H	-0.338314	1.331484	0.328440
O163	O	-0.351725	1.318104	0.179399
C164	C	-0.519512	1.150117	0.187723
C165	C	-0.426387	1.243255	0.231023
H166	H	-0.579883	1.089558	0.229442
H167	H	-0.582846	1.204815	0.150839
H168	H	-0.464678	1.086963	0.150822
H169	H	-0.481119	1.306431	0.267964
H170	H	-0.363054	1.188478	0.267859
