data_functionalizedCrystal
_audit_creation_method	'MofGen! by Chris Wilmer'
_symmetry_space_group_name_H-M	'P1'
_symmetry_Int_Tables_number	1
_symmetry_cell_setting	triclinic
loop_
_symmetry_equiv_pos_as_xyz
  x,y,z
_cell_length_a	21.395362
_cell_length_b	16.959453
_cell_length_c	21.395355
_cell_angle_alpha	89.982675
_cell_angle_beta	89.956060
_cell_angle_gamma	90.035866
loop_
_atom_site_label
_atom_site_type_symbol
_atom_site_fract_x
_atom_site_fract_y
_atom_site_fract_z
Zn1	Zn	0.957906	-0.314438	-0.354591
Zn2	Zn	1.457906	0.185562	0.145409
Zn3	Zn	0.957828	-0.446599	-0.249816
Zn4	Zn	1.457828	0.053401	0.250184
Zn5	Zn	0.853121	-0.314475	-0.249792
Zn6	Zn	1.353121	0.185525	0.250208
Zn7	Zn	0.853110	-0.446615	-0.354520
Zn8	Zn	1.353110	0.053385	0.145480
O9	O	0.905491	-0.380532	-0.302180
O10	O	1.405491	0.119468	0.197820
O11	O	1.045574	-0.331947	-0.340731
O12	O	1.545574	0.168053	0.159269
O13	O	0.943911	-0.429081	-0.162134
O14	O	1.443911	0.070919	0.337866
O15	O	0.867058	-0.203859	-0.263714
O16	O	1.367058	0.296141	0.236286
O17	O	1.045516	-0.429045	-0.263754
O18	O	1.545516	0.070955	0.236246
O19	O	0.944043	-0.203832	-0.340709
O20	O	1.444043	0.296168	0.159291
O21	O	0.866983	-0.332010	-0.162117
O22	O	1.366983	0.167990	0.337883
O23	O	0.765442	-0.332026	-0.263645
O24	O	1.265442	0.167974	0.236355
O25	O	0.867039	-0.429073	-0.442208
O26	O	1.367039	0.070927	0.057792
O27	O	0.765433	-0.429109	-0.340588
O28	O	1.265433	0.070891	0.159412
O29	O	0.944033	-0.331963	-0.442259
O30	O	1.444033	0.168037	0.057741
O31	O	0.943900	-0.557212	-0.263685
O32	O	1.443900	-0.057212	0.236315
O33	O	0.866964	-0.557224	-0.340611
O34	O	1.366964	-0.057224	0.159389
C35	C	0.742704	-0.380574	-0.302107
C36	C	1.242704	0.119426	0.197893
C37	C	0.673062	-0.380610	-0.302091
C38	C	1.173062	0.119390	0.197909
C39	C	0.905439	-0.585898	-0.302157
C40	C	1.405439	-0.085898	0.197843
C41	C	0.905474	-0.673755	-0.302168
C42	C	1.405474	-0.173755	0.197832
C43	C	0.640361	-0.431228	-0.342095
C44	C	1.140361	0.068772	0.157905
C45	C	0.574926	-0.431209	-0.342123
C46	C	1.074926	0.068791	0.157877
C47	C	0.542194	-0.380580	-0.302135
C48	C	1.042194	0.119420	0.197865
C49	C	0.574903	-0.329952	-0.262128
C50	C	1.074903	0.170048	0.237872
C51	C	0.640337	-0.329967	-0.262106
C52	C	1.140337	0.170033	0.237894
C53	C	0.438468	-0.374212	-0.245730
C54	C	0.938468	0.125788	0.254270
C55	C	0.373035	-0.374203	-0.245751
C56	C	0.873035	0.125797	0.254249
C57	C	0.340373	-0.380528	-0.302205
C58	C	0.840373	0.119472	0.197795
C59	C	0.373152	-0.386881	-0.358638
C60	C	0.873152	0.113119	0.141362
C61	C	0.438586	-0.386896	-0.358616
C62	C	0.938586	0.113104	0.141384
C63	C	0.471242	-0.380558	-0.302155
C64	C	0.971242	0.119442	0.197845
C65	C	0.236720	-0.431128	-0.342243
C66	C	0.736720	0.068872	0.157757
C67	C	0.171283	-0.431103	-0.342272
C68	C	0.671283	0.068897	0.157728
C69	C	0.171262	-0.329850	-0.262271
C70	C	0.671262	0.170150	0.237729
C71	C	0.236697	-0.329871	-0.262248
C72	C	0.736697	0.170129	0.237752
C73	C	0.269422	-0.380514	-0.302233
C74	C	0.769422	0.119486	0.197767
C75	C	0.945629	-1.045158	-0.342347
C76	C	1.445629	-0.545158	0.157653
C77	C	0.865529	-1.045303	-0.262106
C78	C	1.365529	-0.545303	0.237894
C79	C	0.865506	-0.962757	-0.262091
C80	C	1.365506	-0.462757	0.237909
C81	C	0.905544	-0.921408	-0.302206
C82	C	1.405544	-0.421408	0.197794
C83	C	0.945605	-0.962604	-0.342335
C84	C	1.445605	-0.462604	0.157665
C85	C	0.825440	-0.921554	-0.221968
C86	C	1.325440	-0.421554	0.278032
C87	C	0.825415	-0.839003	-0.221952
C88	C	1.325415	-0.339003	0.278048
C89	C	0.865457	-0.797652	-0.262064
C90	C	1.365457	-0.297652	0.237936
C91	C	0.905521	-0.838854	-0.302194
C92	C	1.405521	-0.338854	0.197806
C93	C	0.945559	-0.797505	-0.342309
C94	C	1.445559	-0.297505	0.157691
C95	C	0.985626	-0.838705	-0.382436
C96	C	1.485626	-0.338705	0.117564
C97	C	0.985647	-0.921253	-0.382447
C98	C	1.485647	-0.421253	0.117553
C99	C	0.865436	-0.715104	-0.262053
C100	C	1.365436	-0.215104	0.237947
C101	C	0.945536	-0.714951	-0.342297
C102	C	1.445536	-0.214951	0.157703
C103	C	1.068915	-0.380490	-0.302253
C104	C	1.568915	0.119510	0.197747
C105	C	1.138556	-0.380473	-0.302284
C106	C	1.638556	0.119527	0.197716
C107	C	0.905543	-0.380516	-0.465603
C108	C	1.405543	0.119484	0.034397
C109	C	0.905566	-0.380509	-0.535244
C110	C	1.405566	0.119491	-0.035244
C111	C	0.905561	-0.174363	-0.302216
C112	C	1.405561	0.325637	0.197784
C113	C	0.905590	-0.086507	-0.302232
C114	C	1.405590	0.413493	0.197768
C115	C	0.945654	-0.329942	-0.567985
C116	C	1.445654	0.170058	-0.067985
C117	C	0.945653	-0.329908	-0.633421
C118	C	1.445653	0.170092	-0.133421
C119	C	0.905570	-0.380455	-0.666113
C120	C	1.405570	0.119545	-0.166113
C121	C	0.865474	-0.431026	-0.633364
C122	C	1.365474	0.068974	-0.133364
C123	C	0.865471	-0.431053	-0.567929
C124	C	1.365471	0.068947	-0.067929
C125	C	0.900605	-0.451628	-0.769778
C126	C	1.400605	0.048372	-0.269778
C127	C	0.900612	-0.451602	-0.835211
C128	C	1.400612	0.048398	-0.335211
C129	C	0.905574	-0.380372	-0.867934
C130	C	1.405574	0.119628	-0.367934
C131	C	0.910543	-0.309164	-0.835215
C132	C	1.410543	0.190836	-0.335215
C133	C	0.910541	-0.309191	-0.769781
C134	C	1.410541	0.190809	-0.269781
C135	C	0.905568	-0.380431	-0.737065
C136	C	1.405568	0.119569	-0.237065
C137	C	0.945664	-0.329763	-0.971627
C138	C	1.445664	0.170237	-0.471627
C139	C	0.945659	-0.329728	-1.037064
C140	C	1.445659	0.170272	-0.537064
C141	C	0.865483	-0.430853	-1.037005
C142	C	1.365483	0.069147	-0.537005
C143	C	0.865485	-0.430881	-0.971570
C144	C	1.365485	0.069119	-0.471570
C145	C	0.905579	-0.380337	-0.938885
C146	C	1.405579	0.119663	-0.438885
C147	C	0.905476	-0.380491	-0.139392
C148	C	1.405476	0.119509	0.360608
C149	C	0.905575	-0.380275	-0.069751
C150	C	1.405575	0.119725	0.430249
H151	H	0.667002	-0.472465	-0.374655
H152	H	1.167002	0.027535	0.125345
H153	H	1.018268	-0.954806	-0.415117
H154	H	1.518268	-0.454806	0.084883
H155	H	0.465272	-0.392066	-0.404566
H156	H	0.965272	0.107934	0.095434
Br157	Br	0.771091	-0.977673	-0.167545
Br158	Br	1.271091	-0.477673	0.332455
Br159	Br	0.530536	-0.499908	-0.396420
Br160	Br	1.030536	0.000092	0.103580
H161	H	0.263366	-0.472361	-0.374804
H162	H	0.763366	0.027639	0.125196
H163	H	0.346560	-0.392030	-0.404608
H164	H	0.846560	0.107970	0.095392
Br165	Br	1.000007	-1.101068	-0.396799
Br166	Br	1.500007	-0.601068	0.103201
Br167	Br	0.126902	-0.499799	-0.396574
Br168	Br	0.626902	0.000201	0.103426
Br169	Br	0.811061	-0.659192	-0.207602
Br170	Br	1.311061	-0.159192	0.292398
H171	H	0.896396	-0.509618	-0.743140
H172	H	1.396396	-0.009618	-0.243140
Br173	Br	0.126847	-0.261131	-0.208007
Br174	Br	0.626847	0.238869	0.291993
H175	H	0.896570	-0.509584	-0.861845
H176	H	1.396570	-0.009584	-0.361845
Br177	Br	1.039954	-0.782578	-0.436883
Br178	Br	1.539954	-0.282578	0.063117
H179	H	0.832929	-1.078974	-0.229449
H180	H	1.332929	-0.578974	0.270551
H181	H	0.832840	-0.472002	-1.063622
H182	H	1.332840	0.027998	-0.563622
Br183	Br	0.999882	-0.658840	-0.396736
Br184	Br	1.499882	-0.158840	0.103264
H185	H	0.832836	-0.472179	-0.659986
H186	H	1.332836	0.027821	-0.159986
Br187	Br	0.771037	-0.783096	-0.167498
Br188	Br	1.271037	-0.283096	0.332502
H189	H	0.548249	-0.288728	-0.229571
H190	H	1.048249	0.211272	0.270429
H191	H	0.978301	-0.288784	-0.541377
H192	H	1.478301	0.211216	-0.041377
H193	H	0.978297	-0.288725	-0.660084
H194	H	1.478297	0.211275	-0.160084
H195	H	0.914585	-0.251161	-0.861857
H196	H	1.414585	0.248839	-0.361857
Br197	Br	0.917280	-0.212558	-0.725379
Br198	Br	1.417280	0.287442	-0.225379
H199	H	0.978308	-0.288603	-0.945014
H200	H	1.478308	0.211397	-0.445014
H201	H	0.978303	-0.288545	-1.063721
H202	H	1.478303	0.211455	-0.563721
H203	H	0.832823	-0.472230	-0.541272
H204	H	1.332823	0.027770	-0.041272
Br205	Br	0.281080	-0.261172	-0.207953
Br206	Br	0.781080	0.238828	0.292047
Br207	Br	0.328556	-0.365584	-0.169164
Br208	Br	0.828556	0.134416	0.330836
H209	H	0.465056	-0.369058	-0.199756
H210	H	0.965056	0.130942	0.300244
Br211	Br	0.684720	-0.261264	-0.207811
Br212	Br	1.184720	0.238736	0.292189
H213	H	0.832844	-0.472063	-0.944912
H214	H	1.332844	0.027937	-0.444912
