data_functionalizedCrystal
_audit_creation_method	'MofGen! by Chris Wilmer'
_symmetry_space_group_name_H-M	'P1'
_symmetry_Int_Tables_number	1
_symmetry_cell_setting	triclinic
loop_
_symmetry_equiv_pos_as_xyz
  x,y,z
_cell_length_a	20.919309
_cell_length_b	19.851628
_cell_length_c	19.851628
_cell_angle_alpha	90.004875
_cell_angle_beta	62.590298
_cell_angle_gamma	57.438761
loop_
_atom_site_label
_atom_site_type_symbol
_atom_site_fract_x
_atom_site_fract_y
_atom_site_fract_z
Zr1	Zr	0.700702	-0.117053	0.677708
O2	O	0.834288	-0.230110	0.575611
O3	O	0.567132	-0.078598	0.705207
O4	O	0.700710	-0.224616	0.710674
O5	O	0.700698	0.026771	0.570152
O6	O	0.700698	-0.224602	0.821536
O7	O	0.700710	-0.084092	0.570144
O8	O	0.461751	0.036597	0.811756
O9	O	0.939645	-0.234429	0.579932
O10	O	0.622056	-0.066775	0.804259
O11	O	0.622056	0.015950	0.721531
O12	O	0.779327	-0.155967	0.727968
O13	O	0.779327	-0.073243	0.645240
Zr14	Zr	0.700662	0.059782	0.854532
Zr15	Zr	0.700682	-0.117031	0.854519
Zr16	Zr	0.700682	0.059759	0.677721
Zr17	Zr	0.868733	-0.123942	0.684599
Zr18	Zr	0.532631	0.066670	0.847641
O19	O	0.834232	0.021327	0.827033
O20	O	0.834260	-0.230078	0.827013
O21	O	0.834260	0.021295	0.575630
O22	O	0.567076	0.172838	0.956629
O23	O	0.567104	-0.078567	0.956610
O24	O	0.567104	0.172806	0.705227
O25	O	0.700666	-0.084042	0.962087
O26	O	0.700654	0.167345	0.821566
O27	O	0.700666	0.167331	0.710704
O28	O	0.700654	0.026820	0.962096
O29	O	0.939629	-0.234411	0.720473
O30	O	0.461735	0.177139	0.811767
O31	O	0.461719	0.177157	0.952308
O32	O	0.461735	0.036615	0.952297
O33	O	0.939629	-0.093887	0.579943
O34	O	0.939613	-0.093869	0.720484
O35	O	0.622037	0.098696	0.804272
O36	O	0.622037	0.015971	0.887000
O37	O	0.779308	-0.073222	0.810709
O38	O	0.779308	0.009503	0.727981
C39	C	0.490501	-0.020019	0.757500
C40	C	0.419167	-0.017095	0.754574
C41	C	0.700707	-0.028664	0.544956
C42	C	0.700715	-0.028673	0.469896
C43	C	0.700657	0.192530	0.766137
C44	C	0.700649	0.267591	0.766143
C45	C	0.385654	-0.058902	0.796381
C46	C	0.318624	-0.056147	0.793634
C47	C	0.285112	-0.011588	0.749075
C48	C	0.318627	0.030225	0.707267
C49	C	0.385652	0.027474	0.710019
C50	C	0.082737	-0.001115	0.738610
C51	C	0.015710	0.001631	0.735859
C52	C	0.015710	-0.084740	0.822227
C53	C	0.082739	-0.087492	0.824971
C54	C	0.116246	-0.045675	0.783167
C55	C	0.216598	-0.008772	0.746264
C56	C	0.184754	-0.048487	0.785983
C57	C	0.910864	-0.037253	0.774740
C58	C	0.982197	-0.040177	0.777666
C59	C	0.700707	-0.249801	0.766103
C60	C	0.700715	-0.324863	0.766097
C61	C	0.614918	0.497567	0.807724
C62	C	0.657776	0.518170	0.842175
C63	C	0.700672	0.404997	0.766128
C64	C	0.657809	0.518135	0.731699
C65	C	0.700689	0.537728	0.766114
C66	C	0.743531	0.424611	0.800625
C67	C	0.743551	0.424579	0.690105
C68	C	0.786472	0.445126	0.724540
C69	C	0.700661	0.328535	0.766138
C70	C	0.700707	0.614185	0.766106
C71	C	0.786446	-0.077276	0.246952
C72	C	0.743588	-0.108210	0.222831
C73	C	0.700692	-0.028649	0.332488
C74	C	0.743555	0.002269	0.222869
C75	C	0.700675	-0.028626	0.199755
C76	C	0.657833	-0.059627	0.309355
C77	C	0.657813	0.050894	0.309391
C78	C	0.614892	0.019983	0.285320
C79	C	0.700704	-0.028664	0.408951
C80	C	0.700657	-0.028611	0.123297
C81	C	0.700657	-0.028608	0.987283
C82	C	0.700649	-0.028599	1.062344
C83	C	0.490476	-0.019991	0.978663
C84	C	0.419134	-0.017057	1.050799
C85	C	0.490476	0.201146	0.757517
C86	C	0.419134	0.279132	0.754597
C87	C	0.490451	0.201174	0.978680
C88	C	0.419101	0.279170	1.050821
C89	C	0.910913	-0.258446	0.553560
C90	C	0.982263	-0.336442	0.481419
C91	C	0.910888	-0.037281	0.553577
C92	C	0.982230	-0.040214	0.481441
C93	C	0.910888	-0.258418	0.774723
C94	C	0.982230	-0.336404	0.777643
C95	C	0.385640	-0.058879	1.041484
C96	C	0.318616	-0.056140	1.109257
C97	C	0.285082	-0.011572	1.186342
C98	C	0.318582	0.030251	1.195656
C99	C	0.385610	0.027505	1.127884
C100	C	0.385621	0.358955	0.796415
C101	C	0.318597	0.432238	0.793669
C102	C	0.285082	0.425696	0.749109
C103	C	0.318602	0.345864	0.707285
C104	C	0.385629	0.272583	0.710027
C105	C	0.385594	0.272616	1.127890
C106	C	0.318562	0.345894	1.195681
C107	C	0.285033	0.425725	1.186402
C108	C	0.318547	0.432277	1.109325
C109	C	0.385582	0.359000	1.041536
C110	C	1.015778	-0.329888	0.404350
C111	C	1.082831	-0.403167	0.336560
C112	C	1.116363	-0.482998	0.345839
C113	C	1.082845	-0.489550	0.422916
C114	C	1.015798	-0.416272	0.490705
C115	C	1.015731	0.001600	0.490756
C116	C	1.082773	-0.001160	0.422984
C117	C	1.116310	-0.045730	0.345899
C118	C	1.082807	-0.087550	0.336585
C119	C	1.015770	-0.084794	0.404356
C120	C	1.015724	-0.329835	0.822211
C121	C	1.082748	-0.403104	0.824971
C122	C	1.116283	-0.482942	0.783156
C123	C	1.082782	-0.489509	0.738587
C124	C	1.015755	-0.416241	0.735832
H125	H	0.291338	-0.090189	0.827677
H126	H	0.988492	-0.421601	0.699537
H127	H	0.412943	-0.095181	0.978723
H128	H	0.212037	-0.084763	0.822266
H129	H	0.779743	0.384430	0.829810
H130	H	0.988511	-0.421618	0.553456
O131	O	0.285961	0.509783	1.100209
C132	C	0.247163	0.520428	1.055139
H133	H	0.277454	0.455699	1.017438
H134	H	0.261846	0.556931	1.013833
H135	H	0.170818	0.557263	1.097698
O136	O	0.872959	-0.126522	0.228456
C137	C	0.917863	-0.210327	0.183745
H138	H	0.865841	-0.221331	0.196376
H139	H	0.965192	-0.256452	0.201846
H140	H	0.958865	-0.220965	0.116860
O141	O	0.286081	0.073652	0.664040
C142	C	0.330015	0.109985	0.627751
H143	H	0.357703	0.117319	0.662721
H144	H	0.279683	0.174828	0.628122
H145	H	0.388181	0.067191	0.563068
H146	H	0.291304	0.340550	0.671004
O147	O	0.418134	0.365478	0.966717
C148	C	0.456914	0.407381	0.959265
H149	H	0.426641	0.447540	1.021515
H150	H	0.442194	0.449919	0.921588
H151	H	0.533265	0.358570	0.928666
O152	O	0.219997	0.496837	1.252323
C153	C	0.252766	0.495367	1.300902
H154	H	0.309798	0.427164	1.287789
H155	H	0.195522	0.523652	1.366973
H156	H	0.279473	0.534095	1.287229
O157	O	0.983139	-0.125296	0.395254
C158	C	0.944408	-0.091960	0.350132
H159	H	0.924282	-0.025305	0.355207
H160	H	0.881817	-0.089500	0.374336
H161	H	0.995803	-0.134117	0.284367
O162	O	0.983287	0.044907	0.565575
C163	C	1.027228	0.081232	0.559247
H164	H	1.095176	0.044560	0.499096
H165	H	1.038770	0.078442	0.610304
H166	H	0.983271	0.150068	0.563224
O167	O	1.115360	-0.396863	0.868250
C168	C	1.181726	-0.478646	0.861709
H169	H	1.170730	-0.524954	0.845364
H170	H	1.176271	-0.477616	0.921601
H171	H	1.251840	-0.499499	0.812875
O172	O	0.418367	0.067956	0.669353
C173	C	0.512293	0.008651	0.612576
H174	H	0.540721	-0.049358	0.631888
H175	H	0.547020	0.038554	0.608780
H176	H	0.525091	-0.011200	0.551151
H177	H	0.291282	0.340544	1.258435
O178	O	0.418155	0.195002	0.669530
C179	C	0.401741	0.152317	0.724305
H180	H	0.393404	0.179584	0.780803
H181	H	0.461270	0.081993	0.695411
H182	H	0.337277	0.160854	0.740992
H183	H	0.412939	-0.095191	0.832661
O184	O	1.181285	-0.554132	0.785921
C185	C	1.148551	-0.600056	0.818896
H186	H	1.071372	-0.555491	0.857048
H187	H	1.174874	-0.629691	0.858066
H188	H	1.172937	-0.652120	0.768239
H189	H	1.110156	-0.554557	0.430462
H190	H	0.859040	0.423541	0.689369
O191	O	1.115283	0.039537	0.431939
C192	C	1.098885	0.100831	0.393076
H193	H	1.090576	0.083001	0.344653
H194	H	1.158411	0.103631	0.364223
H195	H	1.034412	0.165422	0.438926
O196	O	0.115428	-0.130879	0.868137
C197	C	0.209362	-0.195336	0.816549
H198	H	0.227722	-0.212157	0.752233
H199	H	0.228636	-0.253796	0.836062
H200	H	0.247685	-0.172180	0.819638
H201	H	0.988480	-0.264892	0.396779
H202	H	0.542324	0.061108	0.300953
H203	H	0.988430	-0.264834	0.856262
H204	H	0.779768	0.384283	0.625832
O205	O	0.614735	0.131109	0.353834
C206	C	0.660170	0.163473	0.308941
H207	H	0.733346	0.108739	0.260820
H208	H	0.658932	0.204261	0.350655
H209	H	0.624973	0.203588	0.279048
O210	O	0.220053	0.496942	0.746427
C211	C	0.252822	0.542833	0.713420
H212	H	0.309844	0.525053	0.721619
H213	H	0.195575	0.613599	0.745370
H214	H	0.279543	0.526954	0.646583
O215	O	1.115224	-0.567043	0.698070
C216	C	1.043709	-0.573161	0.726864
H217	H	0.986711	-0.526154	0.790355
H218	H	1.069295	-0.640181	0.727803
H219	H	1.017292	-0.558097	0.685720
O220	O	0.219939	-0.008959	1.252086
C221	C	0.197588	-0.055448	1.227325
H222	H	0.216074	-0.059453	1.162981
H223	H	0.121826	-0.022439	1.268767
H224	H	0.236789	-0.122042	1.230205
H225	H	1.170895	-0.047967	0.290722
H226	H	1.110122	-0.123838	0.273813
H227	H	-0.011578	-0.118784	0.856263
H228	H	0.779836	-0.175469	0.185502
H229	H	0.621621	-0.085844	0.346562
O230	O	0.418020	0.195141	1.137057
C231	C	0.374012	0.205089	1.219621
H232	H	0.346462	0.269122	1.256107
H233	H	0.424251	0.152392	1.231510
H234	H	0.315736	0.201798	1.238008
H235	H	1.110110	-0.397815	0.273807
H236	H	0.779810	0.028408	0.185557
H237	H	1.170957	-0.542659	0.290634
O238	O	0.285992	-0.096651	1.100152
C239	C	0.247243	-0.063309	1.055044
H240	H	0.227107	0.003350	1.060127
H241	H	0.184657	-0.060858	1.079255
H242	H	0.298630	-0.105456	0.989276
O243	O	-0.017063	0.045134	0.692784
C244	C	-0.055864	0.131018	0.723057
H245	H	-0.075829	0.147009	0.788018
H246	H	-0.118565	0.172689	0.720542
H247	H	-0.004576	0.142806	0.685091
O248	O	0.286137	0.073440	1.270525
C249	C	0.357648	0.038790	1.282515
H250	H	0.414646	-0.029381	1.240195
H251	H	0.332056	0.039966	1.347440
H252	H	0.384068	0.077765	1.269605
O253	O	0.115367	0.039388	0.697868
C254	C	0.154128	0.006046	0.615157
H255	H	0.174262	-0.060612	0.600689
H256	H	0.216719	0.003591	0.578654
H257	H	0.102751	0.048195	0.599244
O258	O	0.183838	0.034583	0.703125
C259	C	0.089912	0.099036	0.754783
H260	H	0.061554	0.082023	0.810458
H261	H	0.055135	0.105679	0.722084
H262	H	0.077097	0.161522	0.773580
H263	H	0.412902	0.364298	0.832702
O264	O	0.528405	0.523162	0.849872
C265	C	0.483507	0.571542	0.929997
H266	H	0.535533	0.554632	0.945267
H267	H	0.436177	0.557321	0.972234
H268	H	0.442505	0.641794	0.937283
H269	H	0.412871	0.061567	1.135479
O270	O	0.286110	0.509714	0.834380
C271	C	0.330076	0.499765	0.874288
H272	H	0.357692	0.435694	0.883958
H273	H	0.279788	0.552409	0.934969
H274	H	0.388298	0.503146	0.836210
O275	O	0.614452	0.566379	0.918836
C276	C	0.540251	0.648512	0.935001
H277	H	0.552057	0.661499	0.876048
H278	H	0.532890	0.696988	0.974705
H279	H	0.475806	0.653467	0.967322
H280	H	0.621555	0.558422	0.702586
