data_functionalizedCrystal
_audit_creation_method	'MofGen! by Chris Wilmer'
_symmetry_space_group_name_H-M	'P1'
_symmetry_Int_Tables_number	1
_symmetry_cell_setting	triclinic
loop_
_symmetry_equiv_pos_as_xyz
  x,y,z
_cell_length_a	10.489741
_cell_length_b	10.489741
_cell_length_c	8.965430
_cell_angle_alpha	89.999293
_cell_angle_beta	89.998843
_cell_angle_gamma	95.460826
loop_
_atom_site_label
_atom_site_type_symbol
_atom_site_fract_x
_atom_site_fract_y
_atom_site_fract_z
O1	O	1.694053	-0.179958	-0.123946
O2	O	1.322858	-0.196851	-0.123969
O3	O	1.516902	-0.002807	-0.123948
O4	O	1.500009	-0.374003	-0.123967
O5	O	1.516886	-0.002820	0.124130
O6	O	1.322841	-0.196864	0.124110
O7	O	1.694037	-0.179971	0.124133
Cu8	Cu	1.508438	-0.188419	0.146773
Cu9	Cu	1.508457	-0.188404	-0.146609
O10	O	1.499993	-0.374016	0.124112
C11	C	1.275318	-0.195582	0.000067
C12	C	1.133688	-0.191765	0.000059
C13	C	1.065548	-0.068300	0.000079
C14	C	0.973430	-0.126617	-0.122237
C15	C	0.973447	-0.126659	0.122349
C16	C	1.043435	-0.250133	-0.122358
C17	C	1.043462	-0.250158	0.122338
C18	C	0.951371	-0.308564	-0.000007
C19	C	1.515618	0.044718	0.000090
C20	C	1.511801	0.186348	0.000087
C21	C	1.741577	-0.181241	0.000093
C22	C	1.883206	-0.185058	0.000092
C23	C	1.501277	-0.421541	0.000070
C24	C	1.505094	-0.563170	0.000063
N25	N	1.508433	-0.188429	0.353122
C26	C	1.388336	0.254488	0.000069
C27	C	1.446652	0.346604	0.122388
C28	C	1.446697	0.346591	-0.122198
C29	C	1.570167	0.276599	0.122508
C30	C	1.570195	0.276576	-0.122189
C31	C	1.628600	0.368665	0.000161
N32	N	1.508471	-0.188384	-0.352958
C33	C	1.418666	-0.278138	0.450418
C34	C	1.534163	-0.303949	0.549838
C35	C	1.392986	-0.162629	0.549830
C36	C	1.623988	-0.214298	0.450352
C37	C	1.482735	-0.072927	0.450336
C38	C	1.598314	-0.098690	0.549711
H39	H	1.074270	-0.302327	-0.225883
N40	N	1.455407	0.049554	0.395476
N41	N	1.434945	0.136755	0.484867
H42	H	1.415633	0.223260	0.446122
N43	N	1.127822	0.059049	-0.000046
N44	N	1.062715	0.152843	-0.001213
H45	H	1.106695	0.242783	-0.001305
N46	N	1.260988	0.192212	0.000219
N47	N	1.186466	0.210891	0.105079
H48	H	1.096527	0.166909	0.105192
H49	H	1.721659	-0.236216	0.406840
N50	N	0.934550	-0.061071	-0.251962
N51	N	0.975676	0.053191	-0.273759
H52	H	0.948227	0.099490	-0.365376
H53	H	1.295338	-0.140828	0.593530
N54	N	1.561438	-0.426462	0.604677
N55	N	1.482258	-0.489907	0.686254
H56	H	1.501511	-0.576436	0.724979
N57	N	1.381170	0.385488	-0.251930
N58	N	1.368577	0.501379	-0.273260
H59	H	1.322292	0.528849	-0.364878
H60	H	1.342824	-0.354072	0.406821
N61	N	1.635677	0.237607	-0.251908
N62	N	1.649903	0.121902	-0.272048
H63	H	1.696143	0.094376	-0.363673
H64	H	1.674327	-0.022803	0.593034
N65	N	0.934553	-0.061128	0.252080
N66	N	0.818662	-0.048533	0.273412
H67	H	0.791194	-0.002245	0.365028
N68	N	0.889378	-0.436027	-0.000105
N69	N	0.907845	-0.510356	-0.105226
H70	H	0.864062	-0.600377	-0.105303
H71	H	1.730204	0.418089	0.000235
H72	H	1.074502	-0.302361	0.225749
H73	H	1.622355	0.245761	0.226035
N74	N	1.381098	0.385495	0.252104
N75	N	1.266833	0.344378	0.273891
H76	H	1.220527	0.371840	0.365498
