data_functionalizedCrystal
_audit_creation_method	'MofGen! by Chris Wilmer'
_symmetry_space_group_name_H-M	'P1'
_symmetry_Int_Tables_number	1
_symmetry_cell_setting	triclinic
loop_
_symmetry_equiv_pos_as_xyz
  x,y,z
_cell_length_a	10.654545
_cell_length_b	14.044220
_cell_length_c	9.130313
_cell_angle_alpha	89.994483
_cell_angle_beta	89.996934
_cell_angle_gamma	88.835978
loop_
_atom_site_label
_atom_site_type_symbol
_atom_site_fract_x
_atom_site_fract_y
_atom_site_fract_z
O1	O	1.681229	0.133211	-0.121789
O2	O	1.317026	0.145909	-0.121796
O3	O	1.493661	0.001540	-0.121778
O4	O	1.504594	0.277580	-0.121807
O5	O	1.493647	0.001535	0.121821
O6	O	1.317012	0.145905	0.121803
O7	O	1.681216	0.133207	0.121810
Cu8	Cu	1.499113	0.139555	0.144049
Cu9	Cu	1.499129	0.139560	-0.144035
O10	O	1.504581	0.277576	0.121792
C11	C	1.270128	0.144975	0.000003
C12	C	1.130404	0.142189	0.000001
C13	C	1.064760	0.140874	0.132788
C14	C	0.933476	0.138240	0.132788
C15	C	0.933491	0.138239	-0.132797
C16	C	1.064773	0.140866	-0.132796
C17	C	1.488868	-0.033808	0.000022
C18	C	1.474593	-0.139128	0.000023
C19	C	1.448494	-0.331961	0.000002
C20	C	1.549742	-0.388929	-0.000001
C21	C	1.535220	-0.496228	-0.000013
C22	C	1.463014	-0.224652	0.000014
C23	C	1.728114	0.134140	0.000008
C24	C	1.867838	0.136927	0.000000
C25	C	1.509373	0.312924	-0.000011
C26	C	1.523649	0.418244	-0.000022
N27	N	1.499110	0.139551	0.346671
N28	N	1.499140	0.139557	-0.346658
C29	C	1.577356	0.075652	0.423331
C30	C	1.577368	0.075652	0.576668
C31	C	1.420886	0.203460	0.576672
C32	C	1.420868	0.203454	0.423338
H33	H	0.880035	0.137171	0.240916
H34	H	1.357185	0.255489	0.639109
N35	N	1.340921	0.268730	0.345044
N36	N	1.271073	0.325784	0.413510
H37	H	1.214608	0.371880	0.358216
H38	H	1.641064	0.023617	0.360913
N39	N	1.131840	0.142220	-0.268439
N40	N	1.201000	0.210428	-0.298078
H41	H	1.248370	0.211380	-0.393870
N42	N	1.326068	-0.371843	0.000033
N43	N	1.230862	-0.318349	0.000058
H44	H	1.144397	-0.346524	0.000090
N45	N	1.672159	-0.349015	0.000010
N46	N	1.683938	-0.260643	0.000025
H47	H	1.770391	-0.232448	0.000039
N48	N	1.657267	0.010365	0.654982
N49	N	1.610793	-0.048799	0.740544
H50	H	1.667217	-0.094919	0.795850
N51	N	1.131781	0.142238	0.268443
N52	N	1.073148	0.141071	0.386992
H53	H	1.120477	0.142036	0.482805
H54	H	0.880038	0.137163	-0.240915
