data_functionalizedCrystal
_audit_creation_method	'MofGen! by Chris Wilmer'
_symmetry_space_group_name_H-M	'P1'
_symmetry_Int_Tables_number	1
_symmetry_cell_setting	triclinic
loop_
_symmetry_equiv_pos_as_xyz
  x,y,z
_cell_length_a	30.700619
_cell_length_b	30.711499
_cell_length_c	30.700862
_cell_angle_alpha	59.999422
_cell_angle_beta	90.000764
_cell_angle_gamma	60.000156
loop_
_atom_site_label
_atom_site_type_symbol
_atom_site_fract_x
_atom_site_fract_y
_atom_site_fract_z
O1	O	-0.371240	-0.311664	0.012939
O2	O	-0.307903	-0.222498	-0.012912
O3	O	-0.307897	-0.311662	0.076281
O4	O	-0.371246	-0.222501	-0.076254
O5	O	-0.235450	-0.384080	0.076280
O6	O	-0.235456	-0.294917	-0.012912
O7	O	-0.298793	-0.384083	0.012938
Zn8	Zn	-0.255622	-0.350998	0.000013
Zn9	Zn	-0.351074	-0.255583	0.000014
O10	O	-0.298798	-0.294919	-0.076254
C11	C	-0.234782	-0.215957	-0.018790
C12	C	-0.261665	-0.246518	-0.015094
C13	C	-0.261113	-0.163186	-0.019157
C14	C	-0.155900	-0.215967	-0.018785
C15	C	-0.098443	-0.246538	-0.015084
C16	C	-0.182352	-0.163196	-0.019152
C17	C	-0.234774	-0.137115	-0.018785
C18	C	-0.261648	-0.083377	-0.015085
C19	C	-0.182360	-0.241919	-0.019156
C20	C	-0.574937	-0.535532	0.039256
C21	C	-0.548480	-0.588304	0.039624
C22	C	-0.496062	-0.535528	0.039254
C23	C	-0.469726	-0.588300	0.039623
C24	C	-0.496059	-0.614379	0.039255
C25	C	-0.548483	-0.509573	0.039623
C26	C	-0.765148	-0.393543	0.024977
C27	C	-0.819013	-0.364516	0.020941
C28	C	-0.846033	-0.389435	0.018915
C29	C	-0.904441	-0.357958	0.014528
C30	C	-0.819183	-0.443385	0.020931
C31	C	-0.765320	-0.472412	0.024974
C32	C	-0.738302	-0.447489	0.026998
C33	C	-0.447888	-0.790249	0.024977
C34	C	-0.423061	-0.840060	0.020940
C35	C	-0.371116	-0.865043	0.018910
C36	C	-0.344195	-0.919044	0.014525
C37	C	-0.343997	-0.840217	0.020924
C38	C	-0.368821	-0.790415	0.024971
C39	C	-0.420772	-0.765432	0.026994
C40	C	-0.447904	-0.393526	0.024970
C41	C	-0.423082	-0.364491	0.020924
C42	C	-0.371135	-0.389405	0.018896
C43	C	-0.344219	-0.357924	0.014507
C44	C	-0.344015	-0.443351	0.020910
C45	C	-0.368840	-0.472382	0.024953
C46	C	-0.420784	-0.447468	0.026988
C47	C	-0.679897	-0.478965	0.031378
C48	C	-0.633342	-0.504056	0.034871
C49	C	-0.469149	-0.504047	0.034867
C50	C	-0.447696	-0.478953	0.031372
C51	C	-0.469142	-0.668380	0.034870
C52	C	-0.447686	-0.711426	0.031377
C53	C	-0.496424	-0.071073	-0.503895
C54	C	-0.548847	-0.018303	-0.530231
C55	C	-0.496425	-0.071073	-0.425019
C56	C	-0.548848	-0.018302	-0.451475
C57	C	-0.575303	0.007774	-0.503896
C58	C	-0.470089	-0.097030	-0.451473
C59	C	-0.368655	-0.213067	-0.552056
C60	C	-0.343652	-0.242096	-0.576882
C61	C	-0.370605	-0.217180	-0.628829
C62	C	-0.343501	-0.248659	-0.655746
C63	C	-0.422560	-0.163231	-0.655950
C64	C	-0.447556	-0.134202	-0.631127
C65	C	-0.420601	-0.159123	-0.579178
C66	C	-0.765517	0.183638	-0.631663
C67	C	-0.819384	0.233448	-0.656666
C68	C	-0.846408	0.258434	-0.629716
C69	C	-0.904815	0.312433	-0.656817
C70	C	-0.819559	0.233610	-0.577762
C71	C	-0.765692	0.183809	-0.552765
C72	C	-0.738675	0.158824	-0.579721
C73	C	-0.368657	-0.213065	-0.234808
C74	C	-0.343657	-0.242098	-0.180940
C75	C	-0.370610	-0.217182	-0.153919
C76	C	-0.343507	-0.248660	-0.095511
C77	C	-0.422563	-0.163237	-0.180766
C78	C	-0.447561	-0.134208	-0.234632
C79	C	-0.420601	-0.159125	-0.261650
C80	C	-0.447711	-0.127644	-0.552263
C81	C	-0.469319	-0.102552	-0.530809
C82	C	-0.469320	-0.102551	-0.366614
C83	C	-0.447713	-0.127642	-0.320058
C84	C	-0.633710	0.061774	-0.531001
C85	C	-0.680266	0.104819	-0.552609
O86	O	0.076296	-0.384111	0.012951
O87	O	-0.076239	-0.294939	-0.012901
O88	O	0.012951	-0.384107	0.076292
O89	O	-0.012895	-0.294943	-0.076242
O90	O	0.012959	-0.311693	0.076296
O91	O	-0.076231	-0.222525	-0.012897
O92	O	0.076304	-0.311697	0.012955
Zn93	Zn	0.000037	-0.255614	0.000030
Zn94	Zn	0.000027	-0.351022	0.000024
O95	O	-0.012887	-0.222529	-0.076238
O96	O	-0.298768	0.063273	0.012952
O97	O	-0.235434	-0.063365	-0.012898
O98	O	-0.235430	-0.063371	0.076294
O99	O	-0.298771	0.063279	-0.076240
O100	O	-0.307881	-0.063362	0.076289
O101	O	-0.307884	-0.063356	-0.012903
O102	O	-0.371218	0.063282	0.012948
Zn103	Zn	-0.351054	-0.000036	0.000022
Zn104	Zn	-0.255598	-0.000047	0.000028
O105	O	-0.371221	0.063287	-0.076245
O106	O	-1.076612	0.456751	-0.692425
O107	O	-0.924076	0.330112	-0.629078
O108	O	-1.013264	0.330107	-0.629078
O109	O	-0.987424	0.456756	-0.692425
O110	O	-1.013262	0.330105	-0.701522
O111	O	-0.924074	0.330110	-0.701522
O112	O	-1.076611	0.456749	-0.764869
Zn113	Zn	-1.000342	0.393429	-0.744698
Zn114	Zn	-1.000344	0.393431	-0.649249
O115	O	-0.987423	0.456754	-0.764869
O116	O	-0.307897	-0.311662	-0.764512
O117	O	-0.371242	-0.222504	-0.701170
O118	O	-0.371238	-0.311666	-0.701168
O119	O	-0.307901	-0.222500	-0.764514
O120	O	-0.298790	-0.384085	-0.628722
O121	O	-0.298794	-0.294924	-0.628724
O122	O	-0.235449	-0.384081	-0.692066
Zn123	Zn	-0.255619	-0.351001	-0.648892
Zn124	Zn	-0.351072	-0.255585	-0.744343
O125	O	-0.235453	-0.294919	-0.692068
C126	C	-0.155902	-0.469477	0.234822
C127	C	-0.098445	-0.523214	0.261701
C128	C	-0.182358	-0.443400	0.261156
C129	C	-0.234781	-0.390629	0.155945
C130	C	-0.261661	-0.360062	0.098488
C131	C	-0.261117	-0.364672	0.182399
C132	C	-0.234781	-0.390629	0.234821
C133	C	-0.261660	-0.360063	0.261699
C134	C	-0.182358	-0.443400	0.182400
C135	C	0.018840	-0.390663	0.234836
C136	C	0.015146	-0.360099	0.261716
C137	C	0.019204	-0.443432	0.261169
C138	C	0.018837	-0.390660	0.155958
C139	C	0.015138	-0.360092	0.098502
C140	C	0.019201	-0.443428	0.182411
C141	C	0.018832	-0.469506	0.234832
C142	C	0.015128	-0.523241	0.261709
C143	C	0.019209	-0.364705	0.182414
C144	C	-0.234765	-0.215985	0.234825
C145	C	-0.261646	-0.246550	0.261699
C146	C	-0.182341	-0.241951	0.261161
C147	C	-0.234763	-0.137132	0.155954
C148	C	-0.261643	-0.083386	0.098499
C149	C	-0.182339	-0.163217	0.182410
C150	C	-0.155884	-0.215995	0.234830
C151	C	-0.098425	-0.246570	0.261709
C152	C	-0.261100	-0.163208	0.182405
C153	C	-0.039190	0.007413	-0.503879
C154	C	-0.039563	-0.018662	-0.530215
C155	C	-0.039195	-0.071433	-0.425004
C156	C	-0.039568	-0.097388	-0.451460
C157	C	-0.039199	-0.071430	-0.503881
C158	C	-0.039559	-0.018665	-0.451458
C159	C	-0.024893	0.183268	-0.552039
C160	C	-0.020851	0.233076	-0.576864
C161	C	-0.018824	0.258062	-0.628810
C162	C	-0.014431	0.312059	-0.655727
C163	C	-0.020843	0.233240	-0.655932
C164	C	-0.024892	0.183442	-0.631109
C165	C	-0.026917	0.158456	-0.579160
C166	C	-0.024930	-0.133846	-0.631649
C167	C	-0.020897	-0.162698	-0.656651
C168	C	-0.018872	-0.216650	-0.629703
C169	C	-0.014491	-0.247942	-0.656803
C170	C	-0.020888	-0.241747	-0.577749
C171	C	-0.024931	-0.212891	-0.552751
C172	C	-0.026948	-0.158938	-0.579707
C173	C	-0.024913	-0.133861	-0.234793
C174	C	-0.020869	-0.162720	-0.180925
C175	C	-0.018846	-0.216672	-0.153905
C176	C	-0.014459	-0.247967	-0.095498
C177	C	-0.020863	-0.241766	-0.180753
C178	C	-0.024905	-0.212907	-0.234618
C179	C	-0.026934	-0.158950	-0.261636
C180	C	-0.031302	0.104454	-0.552246
C181	C	-0.034800	0.061410	-0.530793
C182	C	-0.034810	-0.102724	-0.366599
C183	C	-0.031317	-0.127664	-0.320044
C184	C	-0.034818	-0.102718	-0.530987
C185	C	-0.031327	-0.127655	-0.552594
O186	O	-0.012891	-0.294956	0.371290
O187	O	0.012961	-0.384118	0.307950
O188	O	-0.076232	-0.294954	0.307942
O189	O	0.076302	-0.384120	0.371299
O190	O	-0.076227	-0.222536	0.235498
O191	O	0.012966	-0.311700	0.235507
O192	O	-0.012886	-0.222538	0.298846
Zn193	Zn	0.000041	-0.255621	0.255674
Zn194	Zn	0.000034	-0.351035	0.351122
O195	O	0.076307	-0.311702	0.298855
C196	C	-0.574940	0.464532	-0.503873
C197	C	-0.548484	0.490489	-0.530205
C198	C	-0.496061	0.385670	-0.424997
C199	C	-0.469724	0.411747	-0.451448
C200	C	-0.496060	0.464525	-0.503868
C201	C	-0.548484	0.411754	-0.451454
C202	C	-0.765157	0.526974	-0.552046
C203	C	-0.819024	0.555834	-0.576874
C204	C	-0.846046	0.609795	-0.628819
C205	C	-0.904456	0.641096	-0.655738
C206	C	-0.819196	0.634891	-0.655936
C207	C	-0.765331	0.606027	-0.631110
C208	C	-0.738311	0.552066	-0.579163
C209	C	-0.447889	0.606523	-0.631617
C210	C	-0.423061	0.635550	-0.656614
C211	C	-0.371114	0.610631	-0.629662
C212	C	-0.344192	0.642104	-0.656757
C213	C	-0.343993	0.556675	-0.577710
C214	C	-0.368817	0.527642	-0.552718
C215	C	-0.420771	0.552575	-0.579677
C216	C	-0.447894	0.209782	-0.234795
C217	C	-0.423069	0.159969	-0.180929
C218	C	-0.371119	0.134976	-0.153905
C219	C	-0.344200	0.080968	-0.095499
C220	C	-0.344000	0.159801	-0.180748
C221	C	-0.368827	0.209614	-0.234612
C222	C	-0.420774	0.234597	-0.261634
C223	C	-0.679904	0.520774	-0.552246
C224	C	-0.633347	0.495829	-0.530790
C225	C	-0.469144	0.331662	-0.366593
C226	C	-0.447689	0.288610	-0.320040
C227	C	-0.469142	0.496002	-0.530967
C228	C	-0.447686	0.521093	-0.552570
H229	H	-0.426655	-0.610119	0.040212
H230	H	-0.026542	0.162930	-0.509740
H231	H	-0.490193	0.230123	-0.256793
H232	H	-0.161108	-0.141375	-0.019747
O233	O	-0.156946	-0.469408	0.157067
C234	C	-0.082292	-0.499042	0.125617
C235	C	-0.111004	-0.469614	0.154341
H236	H	-0.045149	-0.499206	0.123393
H237	H	-0.070243	-0.548359	0.148613
H238	H	-0.110256	-0.471305	0.083539
H239	H	-0.083070	-0.497302	0.196418
H240	H	-0.123062	-0.420291	0.131304
O241	O	-0.026775	-0.237313	-0.260699
C242	C	0.014492	-0.279551	-0.309301
C243	C	0.016680	-0.251934	-0.279768
H244	H	0.049614	-0.291369	-0.324736
H245	H	0.016663	-0.323095	-0.280756
H246	H	-0.024451	-0.244590	-0.344309
H247	H	0.055616	-0.286849	-0.244760
H248	H	0.014479	-0.208379	-0.308348
O249	O	-0.312473	-0.313954	0.156986
C250	C	-0.373594	-0.207894	0.082322
C251	C	-0.315421	-0.265295	0.111036
H252	H	-0.375995	-0.168534	0.045171
H253	H	-0.399916	-0.218860	0.070283
H254	H	-0.387933	-0.193781	0.110280
H255	H	-0.301033	-0.279438	0.083108
H256	H	-0.289135	-0.254297	0.123084
H257	H	-0.304187	-0.141357	-0.019756
H258	H	0.019798	-0.465254	0.161171
H259	H	-0.301351	-0.286021	-0.554796
H260	H	-0.570081	0.003526	-0.573306
O261	O	-0.156944	-0.137267	0.157066
C262	C	-0.082221	-0.150830	0.125736
C263	C	-0.110931	-0.180287	0.154434
H264	H	-0.045008	-0.185603	0.123609
H265	H	-0.110114	-0.108571	0.083628
H266	H	-0.070268	-0.136518	0.148763
H267	H	-0.122887	-0.194638	0.131452
H268	H	-0.083021	-0.222520	0.196545
H269	H	-0.161105	-0.284416	0.304233
O270	O	-0.342542	0.475217	-0.502267
C271	C	-0.345768	0.395569	-0.428783
C272	C	-0.375579	0.454927	-0.485926
H273	H	-0.372469	0.379154	-0.415549
H274	H	-0.307790	0.358383	-0.427834
H275	H	-0.334983	0.405252	-0.400645
H276	H	-0.386400	0.445304	-0.514096
H277	H	-0.413533	0.492095	-0.486831
O278	O	-0.498029	-0.081816	-0.657539
C279	C	-0.573641	-0.006632	-0.738595
C280	C	-0.516486	-0.065969	-0.708740
H281	H	-0.588576	0.006206	-0.780001
H282	H	-0.600956	-0.014466	-0.715372
H283	H	-0.573687	0.032321	-0.742525
H284	H	-0.516388	-0.104950	-0.704803
H285	H	-0.489195	-0.058084	-0.731975
O286	O	-0.448673	-0.139127	-0.706396
C287	C	-0.445122	-0.148879	-0.779692
C288	C	-0.415489	-0.176253	-0.722555
H289	H	-0.418301	-0.178876	-0.792778
H290	H	-0.483093	-0.147164	-0.780713
H291	H	-0.455899	-0.100300	-0.807902
H292	H	-0.404675	-0.224842	-0.694312
H293	H	-0.377540	-0.177921	-0.721577
O294	O	-0.156975	-0.469391	0.312511
C295	C	-0.082275	-0.499184	0.373682
C296	C	-0.110965	-0.469730	0.315502
H297	H	-0.045065	-0.499481	0.376121
H298	H	-0.110182	-0.471458	0.388049
H299	H	-0.070320	-0.548465	0.399958
H300	H	-0.122923	-0.420453	0.289186
H301	H	-0.083041	-0.497502	0.301179
H302	H	-0.304174	-0.141380	0.161166
O303	O	-0.418332	0.385615	-0.426040
C304	C	-0.342435	0.303853	-0.345259
C305	C	-0.400628	0.333371	-0.373973
H306	H	-0.328107	0.261616	-0.303155
H307	H	-0.316124	0.289511	-0.368247
H308	H	-0.340005	0.338613	-0.343108
H309	H	-0.403109	0.298644	-0.376131
H310	H	-0.426913	0.347727	-0.350974
O311	O	-0.342523	-0.524835	0.026990
C312	C	-0.307785	-0.632374	0.077415
C313	C	-0.337607	-0.573012	0.075171
H314	H	-0.303792	-0.671344	0.116370
H315	H	-0.331042	-0.624565	0.042301
H316	H	-0.266406	-0.645168	0.075246
H317	H	-0.378987	-0.560185	0.077355
H318	H	-0.314309	-0.580852	0.110281
H319	H	-0.019216	-0.285698	-0.158750
H320	H	-0.161125	-0.284382	-0.019749
O321	O	0.020005	-0.469552	0.312582
C322	C	0.066994	-0.560036	0.403241
C323	C	0.066161	-0.530528	0.345043
H324	H	0.104302	-0.609343	0.429500
H325	H	0.067225	-0.532359	0.417639
H326	H	0.030045	-0.560259	0.405661
H327	H	0.103104	-0.530299	0.342578
H328	H	0.065903	-0.558214	0.330670
O329	O	0.019993	-0.314098	0.157047
C330	C	0.067028	-0.270483	0.113590
C331	C	0.066201	-0.327832	0.142298
H332	H	0.104389	-0.281570	0.101667
H333	H	0.030125	-0.231112	0.076370
H334	H	0.067197	-0.256319	0.141518
H335	H	0.066050	-0.342052	0.114412
H336	H	0.103100	-0.367167	0.179524
H337	H	-0.346737	-0.770206	0.026612
H338	H	-0.040164	-0.139850	-0.430220
O339	O	-0.040211	0.007411	-0.581580
C340	C	-0.041194	0.089152	-0.657470
C341	C	-0.040472	0.059698	-0.599307
H342	H	-0.041417	0.131439	-0.671823
H343	H	-0.004241	0.054416	-0.659892
H344	H	-0.078501	0.103430	-0.683767
H345	H	-0.003190	0.045422	-0.572975
H346	H	-0.077450	0.094453	-0.596927
O347	O	-0.040292	0.007464	-0.426204
C348	C	-0.041301	0.089222	-0.432093
C349	C	-0.040481	0.059703	-0.460758
H350	H	-0.041443	0.131455	-0.460013
H351	H	-0.078643	0.103570	-0.420138
H352	H	-0.004383	0.054460	-0.394885
H353	H	-0.077373	0.094433	-0.497984
H354	H	-0.003115	0.045342	-0.472672
O355	O	-0.018809	0.257181	-0.550546
C356	C	0.031625	0.279579	-0.515808
C357	C	0.029374	0.252275	-0.545631
H358	H	0.070582	0.275610	-0.511815
H359	H	-0.003487	0.330123	-0.539064
H360	H	0.029457	0.253176	-0.474429
H361	H	0.031558	0.278630	-0.587011
H362	H	0.064482	0.201727	-0.522335
O363	O	-0.739699	0.159757	-0.502293
C364	C	-0.745543	0.165200	-0.426683
C365	C	-0.775048	0.192489	-0.483836
H366	H	-0.774107	0.191661	-0.411748
H367	H	-0.730153	0.114678	-0.399366
H368	H	-0.710507	0.169085	-0.426639
H369	H	-0.810105	0.188649	-0.483932
H370	H	-0.790398	0.243000	-0.511129
O371	O	-0.018940	-0.138247	-0.154933
C372	C	-0.019352	-0.056813	-0.160783
C373	C	-0.021549	-0.084458	-0.190284
H374	H	-0.021449	-0.013327	-0.189348
H375	H	-0.054506	-0.044889	-0.145399
H376	H	0.019567	-0.091788	-0.125744
H377	H	-0.060445	-0.049513	-0.225344
H378	H	0.013632	-0.096396	-0.205629
H379	H	-0.569732	0.389941	-0.430215
O380	O	-0.293545	-0.467495	0.018965
C381	C	-0.220264	-0.457716	0.012714
C382	C	-0.277417	-0.430314	0.014921
H383	H	-0.207211	-0.427661	0.009433
H384	H	-0.192016	-0.506273	0.050550
H385	H	-0.219267	-0.459479	-0.023516
H386	H	-0.278465	-0.428508	0.051127
H387	H	-0.305639	-0.381773	-0.022940
H388	H	-0.743522	0.163301	-0.653616
O389	O	-0.342526	-0.237288	-0.501569
C390	C	-0.341815	-0.279195	-0.410810
C391	C	-0.371449	-0.251804	-0.467954
H392	H	-0.365193	-0.290927	-0.383619
H393	H	-0.300390	-0.322758	-0.395643
H394	H	-0.337941	-0.244132	-0.410876
H395	H	-0.375363	-0.286821	-0.467934
H396	H	-0.412856	-0.208229	-0.483098
O397	O	-0.026974	-0.081391	-0.261086
C398	C	-0.077370	0.026045	-0.334169
C399	C	-0.075113	-0.033326	-0.304432
H400	H	-0.116282	0.064918	-0.369227
H401	H	-0.075265	0.039073	-0.305762
H402	H	-0.042210	0.018082	-0.349553
H403	H	-0.110267	-0.025410	-0.289045
H404	H	-0.077192	-0.046337	-0.332860
H405	H	-0.019195	0.253590	-0.698228
H406	H	-0.026536	0.163236	-0.653195
H407	H	-0.026577	-0.089915	-0.653602
O408	O	-0.739326	-0.524796	0.026903
C409	C	-0.745168	-0.599978	0.026497
C410	C	-0.774673	-0.540644	0.024298
H411	H	-0.773731	-0.612817	0.024404
H412	H	-0.729785	-0.592138	-0.008657
H413	H	-0.710128	-0.638932	0.065416
H414	H	-0.809734	-0.501662	-0.014598
H415	H	-0.790017	-0.548536	0.059479
H416	H	-0.445169	-0.320564	0.019281
H417	H	-0.019253	-0.142263	-0.698950
H418	H	-0.019247	-0.285672	-0.555809
O419	O	-0.026859	-0.237363	-0.502278
C420	C	-0.026456	-0.318791	-0.426665
C421	C	-0.024258	-0.291148	-0.483821
H422	H	-0.024365	-0.362273	-0.411730
H423	H	0.008700	-0.330719	-0.399351
H424	H	-0.065374	-0.283812	-0.426617
H425	H	0.014637	-0.326097	-0.483921
H426	H	-0.059441	-0.279205	-0.511111
H427	H	-0.569724	0.532955	-0.573276
O428	O	-0.449480	0.135915	-0.154941
C429	C	-0.530536	0.141359	-0.160796
C430	C	-0.500681	0.168652	-0.190293
H431	H	-0.571941	0.167823	-0.189363
H432	H	-0.507312	0.090839	-0.145414
H433	H	-0.534466	0.145234	-0.125756
H434	H	-0.496744	0.164821	-0.225355
H435	H	-0.523918	0.219160	-0.205636
O436	O	-0.738985	0.474544	-0.501595
C437	C	-0.744504	0.399194	-0.425790
C438	C	-0.774207	0.458564	-0.482926
H439	H	-0.772971	0.386263	-0.410674
H440	H	-0.709484	0.360269	-0.425787
H441	H	-0.729073	0.407124	-0.398593
H442	H	-0.789672	0.450694	-0.510156
H443	H	-0.809201	0.497470	-0.482886
O444	O	-0.342399	-0.237360	-0.260970
C445	C	-0.261477	-0.318606	-0.255474
C446	C	-0.291156	-0.291175	-0.225774
H447	H	-0.220037	-0.362113	-0.227034
H448	H	-0.284778	-0.330446	-0.270879
H449	H	-0.257633	-0.283536	-0.290514
H450	H	-0.295006	-0.326215	-0.190713
H451	H	-0.267842	-0.279320	-0.210409
H452	H	-0.841562	0.253960	-0.555822
O453	O	-0.573895	-0.614262	0.040326
C454	C	-0.654636	-0.609456	0.041438
C455	C	-0.625928	-0.579981	0.040621
H456	H	-0.696705	-0.581759	0.041688
H457	H	-0.656863	-0.609712	0.004508
H458	H	-0.631572	-0.658750	0.078766
H459	H	-0.648967	-0.530675	0.003318
H460	H	-0.623694	-0.579773	0.077576
H461	H	-0.301699	0.139450	-0.158742
O462	O	-0.845181	0.531565	-0.550560
C463	C	-0.918020	0.547252	-0.515825
C464	C	-0.888456	0.574816	-0.545644
H465	H	-0.953007	0.582202	-0.511830
H466	H	-0.933471	0.535406	-0.539084
H467	H	-0.889440	0.503716	-0.474446
H468	H	-0.917004	0.618369	-0.587023
H469	H	-0.872996	0.586618	-0.522343
O470	O	-0.845531	0.687327	-0.706378
C471	C	-0.928588	0.766820	-0.779671
C472	C	-0.898832	0.707442	-0.722539
H473	H	-0.971684	0.783093	-0.792758
H474	H	-0.927886	0.804074	-0.780680
H475	H	-0.908208	0.757223	-0.807886
H476	H	-0.919190	0.716980	-0.694290
H477	H	-0.899530	0.670207	-0.721573
O478	O	-0.739337	0.630500	-0.657515
C479	C	-0.745183	0.711939	-0.738561
C480	C	-0.774687	0.684295	-0.708714
H481	H	-0.773748	0.755429	-0.779964
H482	H	-0.729795	0.723854	-0.715328
H483	H	-0.710147	0.676966	-0.742495
H484	H	-0.809745	0.719237	-0.704773
H485	H	-0.790036	0.672364	-0.731959
O486	O	-0.342398	0.233633	-0.260614
C487	C	-0.261363	0.228230	-0.254744
C488	C	-0.291229	0.200960	-0.225238
H489	H	-0.219992	0.201835	-0.226152
H490	H	-0.257363	0.224318	-0.289761
H491	H	-0.284646	0.278763	-0.270157
H492	H	-0.267973	0.150420	-0.209790
H493	H	-0.295235	0.204921	-0.190246
H494	H	-0.490190	0.626826	-0.653571
H495	H	-0.569727	-0.467106	0.040212
O496	O	-0.498377	-0.369222	0.026907
C497	C	-0.574175	-0.287951	0.026510
C498	C	-0.517021	-0.315400	0.024304
H499	H	-0.589262	-0.244439	0.024418
H500	H	-0.601408	-0.276117	-0.008643
H501	H	-0.574151	-0.323008	0.065430
H502	H	-0.516994	-0.280373	-0.014593
H503	H	-0.489813	-0.327249	0.059483
O504	O	-0.449494	0.687978	-0.707063
C505	C	-0.530538	0.763149	-0.782688
C506	C	-0.500665	0.703775	-0.725554
H507	H	-0.571911	0.775932	-0.797659
H508	H	-0.534533	0.802138	-0.782749
H509	H	-0.507263	0.755306	-0.809968
H510	H	-0.523914	0.711557	-0.698241
H511	H	-0.496664	0.664806	-0.725535
O512	O	-0.293566	0.532545	-0.551514
C513	C	-0.236489	0.548536	-0.517111
C514	C	-0.293623	0.575930	-0.546774
H515	H	-0.236515	0.583605	-0.513280
H516	H	-0.221355	0.505006	-0.475672
H517	H	-0.209291	0.536729	-0.540459
H518	H	-0.320862	0.587775	-0.523472
H519	H	-0.308714	0.619437	-0.588216
O520	O	-0.738973	-0.369279	0.026983
C521	C	-0.744484	-0.288001	0.026581
C522	C	-0.774192	-0.315411	0.024307
H523	H	-0.772949	-0.244437	0.024407
H524	H	-0.709467	-0.323017	0.065523
H525	H	-0.729048	-0.276235	-0.008545
H526	H	-0.789663	-0.327176	0.059405
H527	H	-0.809183	-0.280378	-0.014657
O528	O	-0.449377	-0.864169	0.018904
C529	C	-0.484115	-0.886576	-0.031520
C530	C	-0.454292	-0.859268	-0.029276
H531	H	-0.488108	-0.882611	-0.070475
H532	H	-0.460858	-0.937118	0.003595
H533	H	-0.525494	-0.860172	-0.029352
H534	H	-0.412913	-0.885624	-0.031460
H535	H	-0.477590	-0.808721	-0.064387
H536	H	-0.841186	-0.463671	0.019284
O537	O	-0.845170	-0.312062	0.018901
C538	C	-0.918014	-0.204523	-0.031530
C539	C	-0.888449	-0.263889	-0.029281
H540	H	-0.953005	-0.165557	-0.070486
H541	H	-0.933460	-0.212329	0.003583
H542	H	-0.889435	-0.191726	-0.029365
H543	H	-0.916996	-0.276719	-0.031462
H544	H	-0.872995	-0.256051	-0.064390
O545	O	-0.498341	-0.766077	0.026968
C546	C	-0.574151	-0.771157	0.026528
C547	C	-0.517012	-0.798602	0.024283
H548	H	-0.589268	-0.797433	0.024348
H549	H	-0.574157	-0.775069	0.065463
H550	H	-0.601345	-0.720614	-0.008605
H551	H	-0.489786	-0.849153	0.059389
H552	H	-0.517049	-0.794643	-0.014674
H553	H	-0.570086	0.003520	-0.430234
O554	O	-0.293548	-0.864541	0.018928
C555	C	-0.220249	-0.941363	0.012727
C556	C	-0.277387	-0.913867	0.014974
H557	H	-0.207161	-0.981256	0.009541
H558	H	-0.219228	-0.904424	-0.023528
H559	H	-0.192041	-0.958790	0.050548
H560	H	-0.305629	-0.896443	-0.022821
H561	H	-0.278365	-0.950827	0.051253
O562	O	-0.418685	-0.147649	-0.426089
C563	C	-0.328019	-0.191300	-0.382593
C564	C	-0.386207	-0.133932	-0.411327
H565	H	-0.301742	-0.180227	-0.370659
H566	H	-0.325562	-0.230652	-0.345377
H567	H	-0.313670	-0.205484	-0.410507
H568	H	-0.400593	-0.119693	-0.383455
H569	H	-0.388631	-0.094616	-0.448549
O570	O	-0.293167	-0.294456	-0.154824
C571	C	-0.202297	-0.343989	-0.106287
C572	C	-0.259458	-0.284661	-0.135835
H573	H	-0.175025	-0.336086	-0.090935
H574	H	-0.202196	-0.382980	-0.071232
H575	H	-0.187347	-0.356811	-0.134855
H576	H	-0.274443	-0.271781	-0.107309
H577	H	-0.259526	-0.245705	-0.170896
O578	O	-0.845391	0.257461	-0.707119
C579	C	-0.839531	0.252054	-0.782746
C580	C	-0.810016	0.224794	-0.725607
H581	H	-0.810940	0.225663	-0.797715
H582	H	-0.874540	0.248126	-0.782819
H583	H	-0.854957	0.302590	-0.810021
H584	H	-0.794556	0.174250	-0.698299
H585	H	-0.775033	0.228770	-0.725576
H586	H	-0.489862	-0.090284	-0.256488
H587	H	-0.444510	-0.142949	-0.158763
