data_functionalizedCrystal
_audit_creation_method	'MofGen! by Chris Wilmer'
_symmetry_space_group_name_H-M	'P1'
_symmetry_Int_Tables_number	1
_symmetry_cell_setting	triclinic
loop_
_symmetry_equiv_pos_as_xyz
  x,y,z
_cell_length_a	10.654545
_cell_length_b	15.995350
_cell_length_c	9.730223
_cell_angle_alpha	89.997832
_cell_angle_beta	89.997167
_cell_angle_gamma	83.987727
loop_
_atom_site_label
_atom_site_type_symbol
_atom_site_fract_x
_atom_site_fract_y
_atom_site_fract_z
O1	O	1.666306	0.117584	-0.114269
O2	O	1.300681	0.128793	-0.114274
O3	O	1.493488	0.001359	-0.114270
O4	O	1.473499	0.245018	-0.114273
O5	O	1.493476	0.001355	0.114310
O6	O	1.300668	0.128789	0.114306
O7	O	1.666294	0.117581	0.114311
Zn8	Zn	1.483479	0.123184	0.150601
Zn9	Zn	1.483495	0.123189	-0.150563
O10	O	1.473486	0.245015	0.114307
C11	C	1.253887	0.127969	0.000015
C12	C	1.114476	0.125509	0.000013
C13	C	1.048980	0.124349	0.124613
C14	C	0.917991	0.122024	0.124613
C15	C	0.918005	0.122022	-0.124597
C16	C	1.048992	0.124341	-0.124596
C17	C	1.492655	-0.029842	0.000017
C18	C	1.490178	-0.122807	0.000010
C19	C	1.481281	-0.460606	0.000014
C20	C	1.343967	-0.413968	-0.000500
C21	C	1.346445	-0.317264	0.000015
C22	C	1.485694	-0.293020	0.000011
C23	C	1.553415	-0.333707	0.130540
C24	C	1.549965	-0.430363	0.130649
C25	C	1.552816	-0.430700	-0.129289
C26	C	1.552784	-0.333755	-0.131014
C27	C	1.488195	-0.198308	0.000014
C28	C	1.478783	-0.555319	0.000021
C29	C	1.713087	0.118405	0.000019
C30	C	1.852499	0.120865	0.000012
N31	N	1.483477	0.123181	0.356137
C32	C	1.474319	0.276216	0.000017
C33	C	1.476797	0.369181	0.000016
N34	N	1.483507	0.123186	-0.356100
C35	C	1.568881	0.066777	0.428065
C36	C	1.568894	0.066777	0.571948
C37	C	1.398094	0.179593	0.571963
C38	C	1.398077	0.179587	0.428082
H39	H	1.293211	-0.289149	-0.093553
H40	H	1.102321	0.125283	-0.226066
N41	N	1.661025	0.005950	0.649521
H42	H	1.613065	-0.031429	0.709233
H43	H	1.715095	-0.029720	0.582013
H44	H	1.503271	-0.306792	-0.227576
N45	N	1.271259	-0.438932	-0.124482
H46	H	1.326620	-0.480719	-0.181522
H47	H	1.194054	-0.465318	-0.093217
H48	H	1.507927	-0.451499	-0.228222
H49	H	1.289322	-0.433880	0.092582
N50	N	1.275454	-0.280758	0.124167
H51	H	1.242433	-0.327496	0.178778
H52	H	1.334062	-0.250570	0.183537
H53	H	1.328524	0.225518	0.369515
N54	N	0.847348	0.120769	0.259003
H55	H	0.908826	0.121270	0.337933
H56	H	0.783412	0.171923	0.264847
N57	N	0.847376	0.120762	-0.258992
H58	H	0.754457	0.119118	-0.240088
H59	H	0.860089	0.172980	-0.313410
H60	H	1.500573	-0.448952	0.228224
N61	N	1.305988	0.240429	0.649561
H62	H	1.318958	0.231876	0.751624
H63	H	1.320482	0.299918	0.624396
H64	H	1.102292	0.125300	0.226078
H65	H	1.650779	-0.462027	0.136569
H66	H	1.655717	-0.318989	0.135392
H67	H	1.654330	-0.317805	-0.138898
N68	N	1.491123	-0.296471	0.259218
H69	H	1.419048	-0.253258	0.233258
H70	H	1.457785	-0.342526	0.315170
H71	H	1.654057	-0.461875	-0.130169
N72	N	1.660985	0.005941	0.350463
H73	H	1.715087	-0.029791	0.417868
H74	H	1.612907	-0.031376	0.290782
