data_functionalizedCrystal
_audit_creation_method	'MofGen! by Chris Wilmer'
_symmetry_space_group_name_H-M	'P1'
_symmetry_Int_Tables_number	1
_symmetry_cell_setting	triclinic
loop_
_symmetry_equiv_pos_as_xyz
  x,y,z
_cell_length_a	13.635800
_cell_length_b	10.965402
_cell_length_c	11.102288
_cell_angle_alpha	76.859143
_cell_angle_beta	108.605689
_cell_angle_gamma	106.348632
loop_
_atom_site_label
_atom_site_type_symbol
_atom_site_fract_x
_atom_site_fract_y
_atom_site_fract_z
V1	V	-1.863139	0.396262	-0.175870
O2	O	-1.846322	0.388718	0.008420
O3	O	-1.852845	0.393552	-0.348690
O4	O	-1.767518	0.569085	-0.173178
O5	O	-1.932239	0.211970	-0.168307
V6	V	-2.112405	0.374219	-0.153825
O7	O	-1.977305	0.444614	-0.224227
O8	O	-2.223338	0.325866	-0.105468
O9	O	-2.011096	0.376929	0.018995
O10	O	-2.187920	0.381762	-0.338114
O11	O	-2.102003	0.558511	-0.161388
O12	O	-2.096422	0.201396	-0.156516
C13	C	-1.781039	0.387300	-0.390819
C14	C	-1.812789	0.386237	-0.532102
C15	C	-1.916628	0.392078	-0.604951
C16	C	-1.946453	0.391088	-0.737702
C17	C	-1.768592	0.378411	-0.724743
C18	C	-1.738766	0.379410	-0.591995
C19	C	-1.672196	0.611209	-0.166935
C20	C	-1.634750	0.752493	-0.165878
V21	V	-1.363139	0.396262	-0.175870
O22	O	-1.346322	0.388718	0.008420
O23	O	-1.352845	0.393552	-0.348690
O24	O	-1.267518	0.569085	-0.173178
O25	O	-1.432239	0.211970	-0.168307
V26	V	-1.612405	0.374219	-0.153825
O27	O	-1.477305	0.444614	-0.224227
O28	O	-1.723338	0.325866	-0.105468
O29	O	-1.511096	0.376929	0.018995
O30	O	-1.687920	0.381762	-0.338114
O31	O	-1.602003	0.558511	-0.161388
O32	O	-1.596422	0.201396	-0.156516
C33	C	-1.603221	0.969785	-0.280752
C34	C	-1.638409	0.837036	-0.281762
C35	C	-1.595890	0.800703	-0.048976
C36	C	-1.560696	0.933449	-0.047966
C37	C	-1.526907	1.159267	-0.162775
C38	C	-1.564368	1.017988	-0.163859
C39	C	-1.914575	0.383177	0.061118
C40	C	-1.872440	0.384249	0.202399
C41	C	-2.023418	0.159265	-0.162764
C42	C	-2.050484	0.017980	-0.163814
C43	C	-1.281039	0.387300	-0.390819
C44	C	-1.312789	0.386237	-0.532102
C45	C	-1.172196	0.611209	-0.166935
C46	C	-1.134750	0.752493	-0.165878
C47	C	-1.414575	0.383177	0.061118
C48	C	-1.372440	0.384249	0.202399
C49	C	-1.974710	-0.041930	-0.170657
C50	C	-2.000149	-0.174681	-0.171652
C51	C	-2.177143	-0.187602	-0.158965
C52	C	-2.151701	-0.054854	-0.157961
C53	C	-1.416628	0.392078	-0.604951
C54	C	-1.446453	0.391088	-0.737702
C55	C	-1.268592	0.378411	-0.724743
C56	C	-1.238766	0.379410	-0.591995
H57	H	-1.976904	0.397635	-0.556189
H58	H	-2.031005	0.395847	-0.797010
H59	H	-1.708330	0.372850	-0.773524
H60	H	-1.592908	0.731857	0.045379
H61	H	-1.892293	0.017367	-0.175418
H62	H	-1.654205	0.374658	-0.532680
C63	C	-1.517956	0.986480	0.080625
C64	C	-1.420609	0.947069	0.182552
C65	C	-1.377865	1.000101	0.311138
C66	C	-1.432468	1.092543	0.337797
C67	C	-1.529820	1.131958	0.235867
C68	C	-1.572564	1.078927	0.107281
H69	H	-1.380184	0.878634	0.162821
H70	H	-1.305798	0.970922	0.386593
H71	H	-1.400826	1.131800	0.432983
H72	H	-1.570246	1.200394	0.255598
H73	H	-1.644631	1.108106	0.031826
H74	H	-1.606209	1.038613	-0.375118
H75	H	-1.208330	0.372850	-0.773524
H76	H	-1.670041	0.797797	-0.376948
H77	H	-1.938443	-0.223454	-0.177220
H78	H	-2.259554	-0.246919	-0.154202
H79	H	-2.213410	-0.006076	-0.152385
H80	H	-1.476904	0.397635	-0.556189
H81	H	-1.531005	0.395847	-0.797010
H82	H	-1.154205	0.374658	-0.532680
