data_functionalizedCrystal
_audit_creation_method	'MofGen! by Chris Wilmer'
_symmetry_space_group_name_H-M	'P1'
_symmetry_Int_Tables_number	1
_symmetry_cell_setting	triclinic
loop_
_symmetry_equiv_pos_as_xyz
  x,y,z
_cell_length_a	14.044191
_cell_length_b	10.654558
_cell_length_c	9.730223
_cell_angle_alpha	89.999578
_cell_angle_beta	89.996136
_cell_angle_gamma	91.159999
loop_
_atom_site_label
_atom_site_type_symbol
_atom_site_fract_x
_atom_site_fract_y
_atom_site_fract_z
O1	O	1.259702	-0.303022	0.114159
O2	O	0.983660	-0.292079	0.114189
O3	O	1.128024	-0.115450	0.114168
O4	O	1.115338	-0.479652	0.114181
O5	O	1.128022	-0.115454	-0.114412
O6	O	0.983658	-0.292084	-0.114391
O7	O	1.259700	-0.303027	-0.114421
Zn8	Zn	1.121679	-0.297556	-0.150698
Zn9	Zn	1.121681	-0.297550	0.150466
O10	O	1.115336	-0.479656	-0.114399
C11	C	0.948313	-0.287295	-0.000097
C12	C	0.842993	-0.273016	-0.000085
C13	C	1.295047	-0.307811	-0.000132
C14	C	1.400367	-0.322090	-0.000135
C15	C	1.650158	-0.246925	-0.000109
C16	C	1.593197	-0.348175	-0.000110
C17	C	1.485896	-0.333658	-0.000124
C18	C	1.757468	-0.261440	-0.000096
C19	C	1.127090	-0.068560	-0.000121
C20	C	1.124298	0.071163	-0.000116
C21	C	1.116270	-0.526546	-0.000108
C22	C	1.119062	-0.666269	-0.000103
C23	C	1.122984	0.136806	-0.124713
C24	C	1.120369	0.268091	-0.124707
C25	C	1.120379	0.268079	0.124503
C26	C	1.123001	0.136796	0.124496
C27	C	1.122974	0.136814	-0.268593
C28	C	1.120359	0.268099	-0.268587
N29	N	1.121684	-0.297560	-0.356234
C30	C	1.185625	-0.219379	-0.428170
C31	C	1.185623	-0.219364	-0.572053
C32	C	1.057735	-0.375721	-0.572052
C33	C	1.057734	-0.375729	-0.428171
C34	C	1.259463	-0.129111	-0.428172
C35	C	1.259460	-0.129096	-0.572055
N36	N	1.121683	-0.297537	0.356003
H37	H	1.625016	-0.445761	-0.000101
H38	H	1.005660	-0.439378	-0.369602
H39	H	1.243265	-0.030951	-0.389119
N40	N	1.345848	-0.176213	-0.372206
N41	N	1.410543	-0.211474	-0.450613
H42	H	1.471548	-0.244758	-0.411087
N43	N	1.230540	-0.011753	-0.628016
N44	N	1.208886	0.076111	-0.549607
H45	H	1.188458	0.158981	-0.589130
N46	N	1.124348	0.069724	0.251756
N47	N	1.126690	-0.047491	0.251736
H48	H	1.127644	-0.094864	0.341617
N49	N	1.610234	-0.124519	-0.000123
N50	N	1.521860	-0.112754	-0.000131
H51	H	1.493652	-0.026306	-0.000137
H52	H	1.119323	0.321534	0.225958
H53	H	1.189947	0.105255	-0.323850
N54	N	1.038220	0.080480	-0.324582
N55	N	0.972558	0.148077	-0.366506
H56	H	0.912698	0.108291	-0.406046
H57	H	1.005668	-0.439363	-0.630638
H58	H	1.187915	0.313012	-0.313250
H59	H	1.332355	-0.157942	-0.611113
N60	N	1.036311	0.307723	-0.337790
N61	N	0.956070	0.274455	-0.293815
H62	H	0.896706	0.302449	-0.342662
