data_functionalizedCrystal
_audit_creation_method	'MofGen! by Chris Wilmer'
_symmetry_space_group_name_H-M	'P1'
_symmetry_Int_Tables_number	1
_symmetry_cell_setting	triclinic
loop_
_symmetry_equiv_pos_as_xyz
  x,y,z
_cell_length_a	12.784890
_cell_length_b	12.837942
_cell_length_c	8.140239
_cell_angle_alpha	89.996939
_cell_angle_beta	89.998296
_cell_angle_gamma	83.967749
loop_
_atom_site_label
_atom_site_type_symbol
_atom_site_fract_x
_atom_site_fract_y
_atom_site_fract_z
O1	O	1.410967	0.006425	-0.136563
O2	O	1.744300	0.339759	0.196770
O3	O	2.077633	0.673092	0.530104
O4	O	1.105967	0.050420	-0.136577
O5	O	1.439300	0.383753	0.196756
O6	O	1.772634	0.717086	0.530090
O7	O	1.251704	-0.121871	-0.136560
O8	O	1.585037	0.211463	0.196773
O9	O	1.918370	0.544796	0.530107
O10	O	1.265230	0.178716	-0.136580
O11	O	1.598563	0.512049	0.196754
O12	O	1.931896	0.845382	0.530087
O13	O	1.251695	-0.121872	0.136667
O14	O	1.585028	0.211462	0.470000
O15	O	1.918361	0.544795	0.803334
O16	O	1.105958	0.050419	0.136650
O17	O	1.439291	0.383752	0.469984
O18	O	1.772624	0.717085	0.803317
O19	O	1.410958	0.006424	0.136664
O20	O	1.744291	0.339758	0.469997
O21	O	2.077624	0.673091	0.803331
Zn22	Zn	1.258456	0.028421	0.180038
Zn23	Zn	1.591790	0.361755	0.513371
Zn24	Zn	1.925123	0.695088	0.846705
Zn25	Zn	1.258468	0.028423	-0.179951
Zn26	Zn	1.591802	0.361756	0.153383
Zn27	Zn	1.925135	0.695089	0.486716
O28	O	1.265221	0.178715	0.136647
O29	O	1.598554	0.512048	0.469981
O30	O	1.931887	0.845381	0.803314
C31	C	1.066653	0.053280	0.000035
C32	C	1.399986	0.386614	0.333368
C33	C	1.733319	0.719947	0.666702
C34	C	0.949521	0.061794	0.000030
C35	C	1.282854	0.395128	0.333363
C36	C	1.616188	0.728461	0.666696
C37	C	1.247130	-0.160080	0.000052
C38	C	1.580463	0.173253	0.333386
C39	C	1.913797	0.506587	0.666719
C40	C	1.233502	-0.273929	0.000049
C41	C	1.566835	0.059405	0.333382
C42	C	1.900169	0.392738	0.666716
C43	C	0.781351	0.168495	0.000021
C44	C	1.114685	0.501828	0.333354
C45	C	1.448018	0.835162	0.666687
C46	C	0.891407	0.160502	0.000021
C47	C	1.224740	0.493835	0.333354
C48	C	1.558074	0.827169	0.666688
C49	C	0.897572	-0.028928	0.000033
C50	C	1.230905	0.304406	0.333366
C51	C	1.564239	0.637739	0.666700
C52	C	0.787516	-0.020935	0.000032
C53	C	1.120850	0.312398	0.333366
C54	C	1.454183	0.645732	0.666699
C55	C	0.729410	0.077780	0.000029
C56	C	1.062743	0.411113	0.333362
C57	C	1.396077	0.744446	0.666695
C58	C	0.619353	0.085771	0.000040
C59	C	0.952686	0.419105	0.333373
C60	C	1.286019	0.752438	0.666707
C61	C	0.625519	-0.103657	0.000040
C62	C	0.958853	0.229676	0.333373
C63	C	1.292186	0.563009	0.666707
C64	C	0.735575	-0.111650	0.000041
C65	C	1.068908	0.221683	0.333374
C66	C	1.402242	0.555017	0.666707
C67	C	1.397334	-0.529655	0.000022
C68	C	1.730667	-0.196322	0.333356
C69	C	2.064000	0.137011	0.666689
C70	C	1.384534	-0.636627	0.000019
C71	C	1.717867	-0.303294	0.333352
C72	C	2.051201	0.030039	0.666686
C73	C	1.195104	-0.594847	0.000027
C74	C	1.528437	-0.261513	0.333361
C75	C	1.861771	0.071820	0.666694
C76	C	1.207904	-0.487875	0.000031
C77	C	1.541237	-0.154541	0.333364
C78	C	1.874570	0.178792	0.666697
C79	C	1.309022	-0.455284	0.000031
C80	C	1.642355	-0.121950	0.333364
C81	C	1.975688	0.211383	0.666697
C82	C	1.321821	-0.348309	0.000046
C83	C	1.655154	-0.014976	0.333379
C84	C	1.988487	0.318357	0.666712
C85	C	1.132391	-0.306531	0.000042
C86	C	1.465724	0.026802	0.333376
C87	C	1.799058	0.360136	0.666709
C88	C	1.119592	-0.413503	0.000039
C89	C	1.452925	-0.080170	0.333372
C90	C	1.786258	0.253164	0.666706
C91	C	1.450272	0.003563	0.000049
C92	C	1.783605	0.336897	0.333382
C93	C	2.116938	0.670230	0.666715
C94	C	1.567404	-0.004950	0.000043
C95	C	1.900737	0.328383	0.333376
C96	C	2.234070	0.661716	0.666710
C97	C	1.269795	0.216924	0.000031
C98	C	1.603128	0.550257	0.333365
C99	C	1.936461	0.883590	0.666698
C100	C	1.283422	0.330772	0.000024
C101	C	1.616756	0.664106	0.333357
C102	C	1.950089	0.997439	0.666690
N103	N	1.258456	0.028419	0.425720
N104	N	1.591789	0.361752	0.759054
N105	N	1.925122	0.695086	1.092387
N106	N	1.258476	0.028416	-0.425633
N107	N	1.591810	0.361749	-0.092300
N108	N	1.925143	0.695083	0.241033
H109	H	0.572044	0.166150	0.000045
H110	H	0.905377	0.499483	0.333379
H111	H	1.238710	0.832817	0.666712
H112	H	0.933693	0.234372	0.000018
H113	H	1.267027	0.567705	0.333351
H114	H	1.600360	0.901038	0.666684
Cl115	Cl	1.524450	-0.488679	0.000063
Cl116	Cl	1.857783	-0.155346	0.333396
Cl117	Cl	2.191116	0.177987	0.666730
H118	H	1.404156	-0.321777	0.000052
H119	H	1.737489	0.011557	0.333385
H120	H	2.070823	0.344890	0.666718
H121	H	1.456447	-0.697179	0.000007
H122	H	1.789781	-0.363846	0.333340
H123	H	2.123114	-0.030512	0.666674
H124	H	1.112778	-0.621402	0.000010
H125	H	1.446111	-0.288069	0.333343
H126	H	1.779445	0.045264	0.666676
Cl127	Cl	0.970637	-0.153015	0.000033
Cl128	Cl	1.303971	0.180319	0.333367
Cl129	Cl	1.637304	0.513652	0.666700
H130	H	1.037264	-0.440054	0.000033
H131	H	1.370597	-0.106721	0.333366
H132	H	1.703930	0.226613	0.666699
H133	H	1.060481	-0.245964	0.000062
H134	H	1.393814	0.087369	0.333395
H135	H	1.727148	0.420702	0.666729
Cl136	Cl	0.708300	0.292589	0.000045
Cl137	Cl	1.041633	0.625922	0.333379
Cl138	Cl	1.374966	0.959256	0.666712
H139	H	0.782900	-0.192020	0.000038
H140	H	1.116233	0.141313	0.333371
H141	H	1.449567	0.474646	0.666705
H142	H	0.583217	-0.177525	-0.000084
H143	H	0.916551	0.155809	0.333249
H144	H	1.249884	0.489142	0.666582
