data_functionalizedCrystal
_audit_creation_method	'MofGen! by Chris Wilmer'
_symmetry_space_group_name_H-M	'P1'
_symmetry_Int_Tables_number	1
_symmetry_cell_setting	triclinic
loop_
_symmetry_equiv_pos_as_xyz
  x,y,z
_cell_length_a	18.215407
_cell_length_b	19.805405
_cell_length_c	18.215399
_cell_angle_alpha	90.028795
_cell_angle_beta	89.982632
_cell_angle_gamma	89.974829
loop_
_atom_site_label
_atom_site_type_symbol
_atom_site_fract_x
_atom_site_fract_y
_atom_site_fract_z
Zn1	Zn	1.125057	0.269516	-0.416063
Zn2	Zn	1.124960	0.382707	-0.292995
Zn3	Zn	1.001990	0.269533	-0.293016
Zn4	Zn	1.001950	0.382664	-0.416025
O5	O	1.063489	0.326105	-0.354525
O6	O	1.228029	0.284543	-0.399745
O7	O	1.108623	0.367719	-0.190013
O8	O	1.018373	0.174814	-0.309363
O9	O	1.227957	0.367704	-0.309327
O10	O	1.108790	0.174802	-0.399765
O11	O	1.018278	0.284570	-0.190029
O12	O	0.899000	0.284528	-0.309326
O13	O	1.018304	0.367629	-0.519015
O14	O	0.898971	0.367645	-0.399701
O15	O	1.108751	0.284501	-0.519042
O16	O	1.108584	0.477418	-0.309291
O17	O	1.018210	0.477386	-0.399680
C18	C	0.872283	0.326084	-0.354512
C19	C	0.790484	0.326092	-0.354524
C20	C	0.602326	0.282879	-0.401679
C21	C	0.525468	0.282885	-0.401681
C22	C	0.525404	0.369350	-0.307384
C23	C	0.602261	0.369340	-0.307378
C24	C	0.640721	0.326106	-0.354530
C25	C	0.487004	0.326121	-0.354538
C26	C	0.403671	0.326128	-0.354540
C27	C	0.724060	0.326098	-0.354527
C28	C	1.063402	0.501961	-0.354495
C29	C	1.063432	0.577193	-0.354507
C30	C	1.110535	0.612531	-0.307492
C31	C	1.110565	0.683220	-0.307510
C32	C	1.063487	0.718569	-0.354541
C33	C	1.016382	0.683225	-0.401562
C34	C	1.016356	0.612538	-0.401547
C35	C	1.016483	0.968298	-0.401626
C36	C	1.016510	1.038991	-0.401637
C37	C	1.110691	1.038980	-0.307590
C38	C	1.110666	0.968293	-0.307575
C39	C	1.063564	0.932956	-0.354598
C40	C	1.063533	0.856307	-0.354578
C41	C	1.063513	0.795216	-0.354558
C42	C	1.255442	0.326126	-0.354538
C43	C	1.337241	0.326135	-0.354544
C44	C	1.063534	0.326058	-0.546478
C45	C	1.063553	0.326038	-0.628277
C46	C	1.063590	1.149562	-0.354579
C47	C	1.063618	1.074330	-0.354624
C48	C	1.110666	0.282713	-0.816486
C49	C	1.110674	0.282693	-0.893345
C50	C	1.016493	0.369259	-0.893305
C51	C	1.016481	0.369275	-0.816448
C52	C	1.063571	0.326003	-0.778040
C53	C	1.063592	0.325967	-0.931756
C54	C	1.063601	0.325946	-1.015090
C55	C	1.063561	0.326023	-0.694701
C56	C	1.063487	0.326103	-0.163319
C57	C	1.063610	0.325932	-0.081520
H58	H	0.633523	0.404542	-0.268980
C59	C	0.483238	0.235333	-0.453551
N60	N	0.451431	0.199516	-0.492622
H61	H	0.978126	0.404527	-0.785144
C62	C	0.483092	0.416910	-0.255525
N63	N	0.451223	0.452735	-0.216465
H64	H	0.978053	0.712012	-0.439859
C65	C	1.162324	0.573654	-0.255751
N66	N	1.201334	0.544374	-0.216780
H67	H	0.978001	0.583766	-0.439832
H68	H	0.978155	0.404492	-0.924586
H69	H	1.148920	0.711989	-0.269225
H70	H	1.149008	0.247476	-0.785217
H71	H	0.633638	0.247672	-0.440070
C72	C	1.162448	0.929413	-0.255831
N73	N	1.201452	0.900130	-0.216855
H74	H	1.149047	1.067760	-0.269305
C75	C	0.964707	0.929437	-0.453391
N76	N	0.925720	0.900164	-0.492396
C77	C	0.964722	1.077873	-0.453381
N78	N	0.925718	1.107159	-0.492353
H79	H	1.149022	0.247441	-0.924645
