data_functionalizedCrystal
_audit_creation_method	'MofGen! by Chris Wilmer'
_symmetry_space_group_name_H-M	'P1'
_symmetry_Int_Tables_number	1
_symmetry_cell_setting	triclinic
loop_
_symmetry_equiv_pos_as_xyz
  x,y,z
_cell_length_a	10.540539
_cell_length_b	15.625691
_cell_length_c	14.750779
_cell_angle_alpha	85.141148
_cell_angle_beta	77.226612
_cell_angle_gamma	84.374599
loop_
_atom_site_label
_atom_site_type_symbol
_atom_site_fract_x
_atom_site_fract_y
_atom_site_fract_z
O1	O	1.673186	0.135003	0.032793
O2	O	1.304962	0.146043	0.028962
O3	O	1.484433	0.019578	0.072967
O4	O	1.493715	0.261469	-0.011212
O5	O	1.535168	-0.016169	-0.074245
O6	O	1.355697	0.110297	-0.118250
O7	O	1.723921	0.099257	-0.114419
Zn8	Zn	1.547864	0.099101	-0.139708
Zn9	Zn	1.481019	0.146199	0.054251
O10	O	1.544450	0.225722	-0.158424
C11	C	1.282937	0.127342	-0.044354
C12	C	1.141719	0.124867	-0.043488
C13	C	1.505188	-0.029269	0.010142
C14	C	1.491432	-0.121560	0.042266
N15	N	1.593493	0.066958	-0.272079
C16	C	0.948157	0.029892	-0.010810
C17	C	1.094929	0.032485	-0.011342
C18	C	1.055880	0.189737	0.025102
C19	C	0.908974	0.186599	0.026261
C20	C	0.966383	0.147828	-0.141801
C21	C	1.113837	0.148411	-0.143199
C22	C	1.745946	0.117958	-0.041101
C23	C	1.887161	0.120435	-0.041961
C24	C	1.523694	0.274569	-0.095597
C25	C	1.537449	0.366862	-0.127715
C26	C	1.444400	0.767868	0.167805
C27	C	1.457322	0.854584	0.137591
C28	C	1.512626	0.815583	-0.022883
C29	C	1.499703	0.728862	0.007318
C30	C	1.465591	0.705013	0.102663
C31	C	1.520893	0.666007	-0.057824
C32	C	1.507978	0.579294	-0.027625
C33	C	1.473871	0.555436	0.067716
C34	C	1.452675	0.618299	0.132862
C35	C	1.555014	0.689858	-0.153169
C36	C	1.576205	0.627002	-0.218311
C37	C	1.563280	0.540288	-0.188113
C38	C	1.529174	0.516430	-0.092771
C39	C	1.584476	0.477425	-0.253259
C40	C	1.571560	0.390712	-0.223060
C41	C	1.516258	0.429717	-0.062572
C42	C	1.307958	0.268069	-0.693875
C43	C	1.339942	0.245551	-0.786539
C44	C	1.498904	0.133608	-0.747550
C45	C	1.466929	0.156114	-0.654880
C46	C	1.371456	0.223346	-0.628051
C47	C	1.530427	0.111391	-0.589056
C48	C	1.498459	0.133898	-0.496395
C49	C	1.402993	0.201129	-0.469559
C50	C	1.339488	0.245854	-0.535390
C51	C	1.625906	0.044163	-0.615888
C52	C	1.689404	-0.000560	-0.550064
C53	C	1.657430	0.021943	-0.457400
C54	C	1.561963	0.089174	-0.430564
C55	C	1.720934	-0.022781	-0.391569
C56	C	1.688966	-0.000274	-0.298908
C57	C	1.529995	0.111681	-0.337903
N58	N	1.435399	0.178335	0.186624
H59	H	1.154531	-0.017128	-0.059428
C60	C	1.794418	-0.074517	-0.579587
N61	N	1.873511	-0.130224	-0.601822
C62	C	1.118082	0.004700	0.086770
N63	N	1.135518	-0.016227	0.160673
H64	H	1.073570	0.174045	0.098411
H65	H	0.953566	0.102459	-0.195115
C66	C	0.932266	-0.039189	-0.075093
N67	N	0.920287	-0.091223	-0.123512
H68	H	1.798678	-0.077517	-0.413428
C69	C	1.193337	0.084109	-0.211937
N70	N	1.253213	0.035670	-0.263706
C71	C	1.094528	0.282415	-0.002561
N72	N	1.123643	0.352220	-0.023397
C73	C	1.424914	0.185607	-0.308375
N74	N	1.345755	0.241275	-0.286130
C75	C	1.603918	0.059652	-0.777073
N76	N	1.683012	0.003944	-0.799308
H77	H	1.612263	0.496856	-0.330889
C78	C	1.270078	0.294754	-0.858945
N79	N	1.217458	0.331814	-0.913480
C80	C	1.433999	0.923725	0.209260
N81	N	1.416433	0.975803	0.263241
C82	C	0.874116	0.000452	0.087258
N83	N	0.818343	-0.021721	0.161122
C84	C	1.158784	0.237729	-0.181731
N85	N	1.192646	0.305006	-0.210751
C86	C	0.836809	0.162812	0.126597
N87	N	0.782461	0.144891	0.202172
C88	C	0.852082	0.277609	0.000200
N89	N	0.809234	0.346158	-0.019420
H90	H	1.424876	0.598882	0.210501
C91	C	1.758814	-0.049474	-0.226497
N92	N	1.811427	-0.086532	-0.171956
C93	C	1.569314	0.785239	-0.186383
N94	N	1.580116	0.857078	-0.211399
H95	H	1.488458	0.410300	0.015066
H96	H	1.463360	0.484827	0.092302
C97	C	0.912583	0.237783	-0.173941
N98	N	0.872051	0.305536	-0.198141
H99	H	1.230205	0.322811	-0.672029
C100	C	1.613717	0.653249	-0.323189
N101	N	1.641964	0.673018	-0.402184
C102	C	1.406833	0.741633	0.272689
N103	N	1.378530	0.721872	0.351684
H104	H	1.540405	0.835014	-0.100513
H105	H	1.376970	0.219457	-0.394108
C106	C	1.594867	0.321567	-0.294720
N107	N	1.612426	0.269487	-0.348696
H108	H	1.261735	0.300595	-0.513544
H109	H	1.651935	0.025843	-0.691341
