data_functionalizedCrystal
_audit_creation_method	'MofGen! by Chris Wilmer'
_symmetry_space_group_name_H-M	'P1'
_symmetry_Int_Tables_number	1
_symmetry_cell_setting	triclinic
loop_
_symmetry_equiv_pos_as_xyz
  x,y,z
_cell_length_a	21.395364
_cell_length_b	21.395361
_cell_length_c	21.395356
_cell_angle_alpha	90.028219
_cell_angle_beta	89.976233
_cell_angle_gamma	89.971134
loop_
_atom_site_label
_atom_site_type_symbol
_atom_site_fract_x
_atom_site_fract_y
_atom_site_fract_z
Zn1	Zn	0.957854	0.249482	-0.354262
Zn2	Zn	0.957758	0.354259	-0.249484
Zn3	Zn	0.853071	0.249496	-0.249498
Zn4	Zn	0.853038	0.354223	-0.354223
O5	O	0.905430	0.301865	-0.301867
O6	O	1.045519	0.263390	-0.340373
O7	O	0.943845	0.340383	-0.161808
O8	O	0.867024	0.161816	-0.263418
O9	O	1.045449	0.340369	-0.263393
O10	O	0.944008	0.161806	-0.340387
O11	O	0.866931	0.263414	-0.161819
O12	O	0.765388	0.263379	-0.263380
O13	O	0.866969	0.340308	-0.441906
O14	O	0.765365	0.340321	-0.340321
O15	O	0.943976	0.263356	-0.441935
O16	O	0.943814	0.441932	-0.263355
O17	O	0.866876	0.441906	-0.340307
C18	C	0.742643	0.301848	-0.301849
C19	C	0.673001	0.301856	-0.301856
C20	C	0.171209	0.342002	-0.341891
C21	C	0.236645	0.342002	-0.341885
C22	C	0.269363	0.301879	-0.301887
C23	C	0.236641	0.261763	-0.261881
C24	C	0.171207	0.261769	-0.261884
C25	C	0.373052	0.245414	-0.297036
C26	C	0.438485	0.245408	-0.297037
C27	C	0.471184	0.301862	-0.301873
C28	C	0.438442	0.358325	-0.306721
C29	C	0.373008	0.358330	-0.306724
C30	C	0.340316	0.301869	-0.301878
C31	C	0.574851	0.341978	-0.341866
C32	C	0.640288	0.341980	-0.341855
C33	C	0.640282	0.261735	-0.261855
C34	C	0.574847	0.261739	-0.261862
C35	C	0.542135	0.301860	-0.301871
C36	C	0.905348	0.464653	-0.301839
C37	C	0.905370	0.534294	-0.301848
C38	C	0.945467	0.567000	-0.261822
C39	C	0.945496	0.632435	-0.261838
C40	C	0.905418	0.665162	-0.301875
C41	C	0.865318	0.632448	-0.341909
C42	C	0.865294	0.567014	-0.341896
C43	C	0.849003	0.768875	-0.306789
C44	C	0.849026	0.834308	-0.306798
C45	C	0.905491	0.866983	-0.301921
C46	C	0.961936	0.834217	-0.297020
C47	C	0.961912	0.768783	-0.297007
C48	C	0.905439	0.736115	-0.301895
C49	C	0.945623	0.970642	-0.261910
C50	C	0.945654	1.036078	-0.261931
C51	C	0.865470	1.036090	-0.341999
C52	C	0.865445	0.970654	-0.341981
C53	C	0.905521	0.937934	-0.301933
C54	C	1.068854	0.301882	-0.301885
C55	C	1.138495	0.301890	-0.301893
C56	C	0.905480	0.301826	-0.465290
C57	C	0.905501	0.301810	-0.534931
C58	C	0.905531	1.138442	-0.301919
C59	C	0.905575	1.068800	-0.301969
C60	C	0.865462	0.261728	-0.567640
C61	C	0.865460	0.261716	-0.633076
C62	C	0.905508	0.301780	-0.665800
C63	C	0.945549	0.341870	-0.633083
C64	C	0.945545	0.341885	-0.567649
C65	C	0.961960	0.306707	-0.769486
C66	C	0.961964	0.306688	-0.834919
C67	C	0.905518	0.301738	-0.867621
C68	C	0.849065	0.296793	-0.834881
C69	C	0.849062	0.296808	-0.769447
C70	C	0.905515	0.301768	-0.736752
C71	C	0.865474	0.261641	-0.971282
C72	C	0.865471	0.261633	-1.036719
C73	C	0.945565	0.341784	-1.036725
C74	C	0.945562	0.341795	-0.971289
C75	C	0.905518	0.301720	-0.938572
C76	C	0.905417	0.301859	-0.139079
C77	C	0.905518	0.301699	-0.069438
H78	H	0.548216	0.374648	-0.374443
H79	H	0.978155	0.374490	-0.659731
Cl80	Cl	0.681408	0.211299	-0.211565
Cl81	Cl	1.032925	0.875287	-0.290881
Cl82	Cl	0.815118	0.211351	-0.526513
Cl83	Cl	0.778068	0.875493	-0.312957
H84	H	0.144571	0.229102	-0.229313
H85	H	0.978152	0.374524	-0.541018
H86	H	0.548210	0.229073	-0.229294
H87	H	0.978101	0.540361	-0.229214
Cl88	Cl	0.778100	0.290566	-0.875984
Cl89	Cl	1.032927	0.312936	-0.728383
H90	H	0.346352	0.404304	-0.310670
H91	H	0.263284	0.229095	-0.229313
H92	H	0.144580	0.374674	-0.374468
Cl93	Cl	0.995904	0.392182	-0.930167
Cl94	Cl	0.277780	0.392433	-0.392173
Cl95	Cl	0.815031	0.929536	-0.392300
Cl96	Cl	0.479639	0.174427	-0.290952
H97	H	0.346434	0.199440	-0.293088
H98	H	0.978173	0.374404	-1.063368
H99	H	1.007931	0.310711	-0.861571
Cl100	Cl	0.996071	1.077195	-0.211612
Cl101	Cl	0.778011	0.727805	-0.312922
H102	H	1.007870	0.742106	-0.293018
H103	H	0.978150	0.659070	-0.229244
H104	H	0.465064	0.404295	-0.310663
H105	H	0.832840	1.062735	-0.374600
Cl106	Cl	0.996003	0.929505	-0.211565
Cl107	Cl	0.815130	0.211266	-0.930149
H108	H	0.832642	0.540384	-0.374491
Cl109	Cl	0.814936	0.673590	-0.392244
Cl110	Cl	0.815114	0.211257	-1.077839
Cl111	Cl	0.681415	0.392416	-0.392139
H112	H	0.832857	0.229073	-0.659713
Cl113	Cl	0.778097	0.290597	-0.728291
