data_functionalizedCrystal
_audit_creation_method	'MofGen! by Chris Wilmer'
_symmetry_space_group_name_H-M	'P1'
_symmetry_Int_Tables_number	1
_symmetry_cell_setting	triclinic
loop_
_symmetry_equiv_pos_as_xyz
  x,y,z
_cell_length_a	12.837943
_cell_length_b	11.804365
_cell_length_c	12.837942
_cell_angle_alpha	76.894514
_cell_angle_beta	94.828940
_cell_angle_gamma	103.120467
loop_
_atom_site_label
_atom_site_type_symbol
_atom_site_fract_x
_atom_site_fract_y
_atom_site_fract_z
O1	O	1.421392	0.099004	0.253097
O2	O	1.118260	0.099011	0.239652
O3	O	1.263103	0.099001	0.094809
O4	O	1.276549	0.099015	0.397940
O5	O	1.224967	-0.099053	0.132898
O6	O	1.080124	-0.099042	0.277741
O7	O	1.383256	-0.099049	0.291186
Cu8	Cu	1.228208	-0.117129	0.287942
Cu9	Cu	1.273308	0.117092	0.242897
O10	O	1.238413	-0.099038	0.436029
C11	C	1.060123	-0.000014	0.254155
C12	C	0.943709	-0.000012	0.240610
N13	N	1.196495	-0.281868	0.319624
C14	C	0.718833	-0.000021	0.403441
C15	C	0.609451	-0.000020	0.390720
C16	C	0.615558	-0.000016	0.202448
C17	C	0.724941	-0.000017	0.215170
C18	C	0.776574	-0.000018	0.315669
C19	C	0.885960	-0.000011	0.328388
C20	C	0.892064	-0.000016	0.140119
C21	C	0.782682	-0.000015	0.127397
C22	C	1.381182	-0.655830	0.135107
C23	C	1.405172	-0.531170	0.111135
C24	C	1.353004	-0.468838	0.163255
C25	C	1.276844	-0.531179	0.239351
C26	C	1.252858	-0.655851	0.263332
C27	C	1.224680	-0.468859	0.291480
C28	C	1.148520	-0.531200	0.367576
C29	C	1.124537	-0.655859	0.391552
C30	C	1.176705	-0.718191	0.339432
C31	C	1.248666	-0.344187	0.267499
C32	C	1.120341	-0.344208	0.395724
C33	C	1.096352	-0.468868	0.419696
C34	C	1.441394	-0.000021	0.276683
C35	C	1.557810	-0.000015	0.290226
C36	C	1.239494	-0.000025	0.074784
C37	C	1.225950	-0.000023	-0.041631
N38	N	1.305029	0.281830	0.211207
C39	C	1.388783	-0.000002	-0.266509
C40	C	1.376062	0.000000	-0.375892
C41	C	1.187790	-0.000008	-0.369783
C42	C	1.200511	-0.000010	-0.260400
C43	C	1.301010	-0.000009	-0.208767
C44	C	1.313729	-0.000020	-0.099380
C45	C	1.125459	-0.000019	-0.093275
C46	C	1.112738	-0.000017	-0.202658
C47	C	1.262023	-0.000010	0.456053
C48	C	1.275568	-0.000004	0.572467
H49	H	0.760874	-0.000020	0.485272
H50	H	1.062532	-0.706617	0.453523
O51	O	1.478801	-0.470678	0.036858
C52	C	1.513316	-0.330611	-0.131434
C53	C	1.429972	-0.398897	-0.047199
H54	H	1.473864	-0.272578	-0.199425
H55	H	1.581541	-0.271962	-0.092802
H56	H	1.546236	-0.396817	-0.164467
H57	H	1.396969	-0.332777	-0.014136
H58	H	1.361810	-0.457564	-0.085885
H59	H	0.740624	-0.000028	0.045576
O60	O	0.948013	-0.000173	0.054802
C61	C	0.966997	-0.102804	-0.082455
C62	C	0.903525	-0.102767	0.014130
H63	H	0.931066	-0.185755	-0.115353
H64	H	0.962923	-0.019974	-0.147375
H65	H	1.054050	-0.102743	-0.056087
H66	H	0.816446	-0.102870	-0.012137
H67	H	0.907688	-0.185590	0.079027
H68	H	0.562441	-0.000025	0.462194
H69	H	1.310676	-0.293440	0.205542
O70	O	1.376495	-0.347745	0.139977
C71	C	1.512402	-0.168821	0.136784
C72	C	1.485952	-0.305964	0.163177
H73	H	1.600892	-0.135000	0.155551
H74	H	1.493881	-0.134925	0.048259
H75	H	1.461984	-0.135008	0.187076
H76	H	1.536354	-0.339878	0.112956
H77	H	1.504443	-0.339780	0.251722
O78	O	1.022438	-0.529616	0.493625
C79	C	0.928576	-0.721684	0.587336
C80	C	1.012322	-0.653036	0.503609
H81	H	0.920353	-0.821481	0.595419
H82	H	0.955193	-0.697258	0.667866
H83	H	0.848120	-0.697120	0.560650
H84	H	1.092805	-0.677562	0.530195
H85	H	0.985615	-0.677467	0.423099
H86	H	0.927998	-0.000014	0.410221
O87	O	0.565535	0.000140	0.104750
C88	C	0.556969	0.102783	-0.079768
C89	C	0.613734	0.102739	0.030809
H90	H	0.595900	0.185737	-0.139574
H91	H	0.564054	0.019956	-0.107835
H92	H	0.468866	0.102720	-0.073733
H93	H	0.701855	0.102844	0.024862
H94	H	0.606562	0.185558	0.058837
O95	O	1.153238	-0.839289	0.362811
C96	C	1.048450	-1.018202	0.467613
C97	C	1.074905	-0.881059	0.441225
H98	H	0.985132	-1.052014	0.531029
H99	H	1.016746	-1.052113	0.392160
H100	H	1.123958	-1.052009	0.499236
H101	H	0.999443	-0.847151	0.409628
H102	H	1.106653	-0.847229	0.516705
H103	H	1.423656	-0.706588	0.092683
H104	H	1.077864	-0.293458	0.438167
O105	O	1.486486	0.000051	-0.216521
C106	C	1.671870	-0.000019	-0.234105
C107	C	1.561286	-0.000053	-0.290851
H108	H	1.732371	-0.000128	-0.294170
H109	H	1.698561	0.082887	-0.199021
H110	H	1.666524	-0.082883	-0.167082
H111	H	1.566545	0.082755	-0.357917
H112	H	1.534636	-0.083013	-0.325860
O113	O	1.090111	0.000059	-0.419798
C114	C	0.904702	0.000006	-0.402201
C115	C	1.015267	-0.000048	-0.345432
H116	H	0.844155	-0.000106	-0.342097
H117	H	0.909948	0.082921	-0.469159
H118	H	0.878136	-0.082849	-0.437370
H119	H	1.041898	0.082751	-0.310198
H120	H	1.009958	-0.083018	-0.278527
O121	O	1.040138	0.000133	-0.037329
C122	C	0.902900	0.102757	-0.018327
C123	C	0.999491	0.102727	-0.081792
H124	H	0.870022	0.185707	-0.054236
H125	H	0.837962	0.019926	-0.022427
H126	H	0.929261	0.102693	0.068729
H127	H	0.973230	0.102832	-0.168873
H128	H	1.064406	0.185550	-0.077602
H129	H	1.395560	-0.000023	-0.057341
H130	H	1.447537	0.000010	-0.422903
H131	H	1.030914	-0.000013	-0.244714
