data_functionalizedCrystal
_audit_creation_method	'MofGen! by Chris Wilmer'
_symmetry_space_group_name_H-M	'P1'
_symmetry_Int_Tables_number	1
_symmetry_cell_setting	triclinic
loop_
_symmetry_equiv_pos_as_xyz
  x,y,z
_cell_length_a	13.635800
_cell_length_b	10.992723
_cell_length_c	10.992410
_cell_angle_alpha	88.169042
_cell_angle_beta	71.235349
_cell_angle_gamma	108.770285
loop_
_atom_site_label
_atom_site_type_symbol
_atom_site_fract_x
_atom_site_fract_y
_atom_site_fract_z
V1	V	-2.057141	-0.177763	0.400582
O2	O	-2.036187	0.008542	0.392968
O3	O	-2.045946	-0.352473	0.397831
O4	O	-2.045936	-0.175028	0.575295
O5	O	-2.036197	-0.170131	0.214276
V6	V	-2.295585	-0.155478	0.378300
O7	O	-2.195045	-0.226645	0.449460
O8	O	-2.382779	-0.106596	0.329421
O9	O	-2.195176	0.019232	0.381050
O10	O	-2.375237	-0.341783	0.385913
O11	O	-2.375227	-0.163110	0.564605
O12	O	-2.195186	-0.158213	0.203587
V13	V	-1.557141	-0.177763	0.400582
O14	O	-1.536187	0.008542	0.392968
O15	O	-1.545946	-0.352473	0.397831
O16	O	-1.545936	-0.175028	0.575295
O17	O	-1.536197	-0.170131	0.214276
V18	V	-1.795585	-0.155478	0.378300
O19	O	-1.695045	-0.226645	0.449460
O20	O	-1.882779	-0.106596	0.329421
O21	O	-1.695176	0.019232	0.381050
O22	O	-1.875237	-0.341783	0.385913
O23	O	-1.875227	-0.163110	0.564605
O24	O	-1.695186	-0.158213	0.203587
C25	C	-1.971190	-0.395064	0.391509
C26	C	-2.002767	-0.537892	0.390424
C27	C	-2.158733	-0.748833	0.396136
C28	C	-2.126095	-0.600354	0.397761
C29	C	-1.991304	-0.607105	0.509425
C30	C	-2.024886	-0.755778	0.508444
C31	C	-1.959198	-0.717504	0.262824
C32	C	-1.928021	-0.568782	0.262474
C33	C	-1.971177	-0.168714	0.617879
C34	C	-2.002744	-0.167634	0.760708
C35	C	-2.101604	0.061816	0.387369
C36	C	-2.059646	0.204643	0.388462
C37	C	-2.101617	-0.164532	0.160995
C38	C	-2.059668	-0.165605	0.018165
C39	C	-1.471190	-0.395064	0.391509
C40	C	-1.502767	-0.537892	0.390424
C41	C	-1.471177	-0.168714	0.617879
C42	C	-1.502744	-0.167634	0.760708
C43	C	-1.936304	-0.157797	0.955832
C44	C	-1.903530	-0.159452	0.807348
C45	C	-2.101764	-0.294316	0.837804
C46	C	-2.133920	-0.293195	0.986371
C47	C	-2.072781	-0.047894	0.948354
C48	C	-2.037426	-0.047293	0.799341
C49	C	-1.601604	0.061816	0.387369
C50	C	-1.559646	0.204643	0.388462
C51	C	-1.601617	-0.164532	0.160995
C52	C	-1.559668	-0.165605	0.018165
C53	C	-1.436618	-0.733182	0.381645
C54	C	-1.403563	-0.584536	0.382264
C55	C	-1.538076	-0.576528	0.270610
C56	C	-1.570207	-0.725073	0.269346
C57	C	-1.635964	-0.763655	0.514964
C58	C	-1.601423	-0.615140	0.517558
C59	C	-1.436304	-0.157797	0.955832
C60	C	-1.403530	-0.159452	0.807348
C61	C	-1.601764	-0.294316	0.837804
C62	C	-1.633920	-0.293195	0.986371
C63	C	-1.572781	-0.047894	0.948354
C64	C	-1.537426	-0.047293	0.799341
H65	H	-2.187508	-0.774000	0.310573
H66	H	-1.374999	-0.558771	0.467876
H67	H	-1.329218	-0.532093	0.290984
N68	N	-1.496832	-0.748286	0.143339
H69	H	-1.444298	-0.662107	0.088881
H70	H	-1.453146	-0.800324	0.162645
N71	N	-2.203738	-0.575641	0.519388
H72	H	-2.243864	-0.521570	0.494778
H73	H	-2.259255	-0.661324	0.572100
N74	N	-1.929460	-0.796999	0.508694
H75	H	-1.950580	-0.893843	0.508292
H76	H	-1.862658	-0.749861	0.428960
N77	N	-1.860666	-0.756177	0.253788
H78	H	-1.797122	-0.677300	0.253933
H79	H	-1.881034	-0.823812	0.330665
N80	N	-2.071472	-0.412669	0.803881
H81	H	-2.004803	-0.408560	0.827338
H82	H	-2.135775	-0.493629	0.853987
H83	H	-1.521314	0.048305	0.968719
H84	H	-1.874948	-0.245203	0.782528
N85	N	-1.919790	-0.269832	1.019373
H86	H	-1.861980	-0.235092	1.060622
H87	H	-1.991920	-0.325576	1.088306
H88	H	-1.676953	-0.304877	0.809000
H89	H	-2.095614	-0.807600	0.603052
H90	H	-1.374948	-0.245203	0.782528
H91	H	-1.608482	-0.045806	0.766830
N92	N	-1.874163	-0.553546	0.508321
H93	H	-1.827287	-0.483733	0.430484
H94	H	-1.873872	-0.515294	0.590582
H95	H	-1.423711	-0.779603	0.466729
H96	H	-2.045148	-0.586919	0.604107
N97	N	-1.985349	-0.751210	0.141984
H98	H	-1.980489	-0.670203	0.090786
H99	H	-1.930494	-0.788743	0.086843
N100	N	-2.123631	-0.411253	1.047667
H101	H	-2.098289	-0.463530	0.978114
H102	H	-2.067904	-0.382574	1.092721
H103	H	-2.224922	-0.304211	1.029001
N104	N	-1.359919	-0.760396	0.260836
H105	H	-1.404580	-0.812834	0.210527
H106	H	-1.306137	-0.675497	0.204852
N107	N	-1.686915	-0.779242	0.269099
H108	H	-1.717279	-0.706607	0.269804
H109	H	-1.686734	-0.820948	0.188521
N110	N	-1.571481	-0.412675	0.803885
H111	H	-1.493707	-0.384517	0.738638
H112	H	-1.575885	-0.463108	0.885079
H113	H	-2.176953	-0.304877	0.809000
N114	N	-2.004616	0.079537	0.975327
H115	H	-1.964542	0.062250	1.033083
H116	H	-1.948944	0.134203	0.890639
H117	H	-1.725892	-0.804773	0.521245
H118	H	-1.610889	-0.546292	0.271990
H119	H	-1.936941	-0.522188	0.174363
H120	H	-1.465790	0.046420	0.746989
H121	H	-2.138546	-0.553204	0.312705
H122	H	-1.329293	-0.068363	0.754014
H123	H	-1.662273	-0.052498	0.989195
N124	N	-1.444961	-0.504685	0.145934
H125	H	-1.377666	-0.527762	0.139395
H126	H	-1.468576	-0.530230	0.069471
H127	H	-1.829293	-0.068363	0.754014
N128	N	-1.700621	-0.575128	0.535276
H129	H	-1.725788	-0.592982	0.458597
H130	H	-1.762547	-0.626339	0.617692
N131	N	-1.807072	-0.510398	0.245502
H132	H	-1.785050	-0.412937	0.240800
H133	H	-1.794100	-0.547415	0.321788
N134	N	-1.858658	-0.036317	0.980782
H135	H	-1.902692	0.014837	1.032737
H136	H	-1.815945	-0.061167	1.031115
N137	N	-1.942535	0.076849	0.730027
H138	H	-1.877350	0.055241	0.673827
H139	H	-1.966110	0.127730	0.673775
H140	H	-1.626148	-0.382324	1.032635
N141	N	-1.631786	-0.829250	0.635064
H142	H	-1.580435	-0.880196	0.608705
H143	H	-1.603751	-0.761247	0.687340
H144	H	-2.108482	-0.045806	0.766830
N145	N	-2.191318	-0.053980	1.002446
H146	H	-2.236338	-0.132558	1.071828
H147	H	-2.194161	0.027356	1.041365
H148	H	-1.576921	-0.591244	0.606202
N149	N	-1.358658	-0.036317	0.980782
H150	H	-1.402692	0.014837	1.032737
H151	H	-1.315945	-0.061167	1.031115
H152	H	-2.233142	-0.802970	0.486778
H153	H	-1.423844	-0.242373	1.003819
N154	N	-1.754457	-0.307777	1.042852
H155	H	-1.786488	-0.314909	0.971220
H156	H	-1.796029	-0.388762	1.109765
