data_functionalizedCrystal
_audit_creation_method	'MofGen! by Chris Wilmer'
_symmetry_space_group_name_H-M	'P1'
_symmetry_Int_Tables_number	1
_symmetry_cell_setting	triclinic
loop_
_symmetry_equiv_pos_as_xyz
  x,y,z
_cell_length_a	18.760492
_cell_length_b	23.096457
_cell_length_c	18.760492
_cell_angle_alpha	60.000313
_cell_angle_beta	89.997236
_cell_angle_gamma	59.999189
loop_
_atom_site_label
_atom_site_type_symbol
_atom_site_fract_x
_atom_site_fract_y
_atom_site_fract_z
Zr1	Zr	0.686718	0.633709	-0.093501
O2	O	0.572909	0.754498	-0.207312
O3	O	0.721604	0.512922	-0.058616
O4	O	0.721615	0.633708	-0.207317
O5	O	0.572893	0.633713	0.058691
O6	O	0.838919	0.633705	-0.207315
O7	O	0.572898	0.633712	-0.058611
O8	O	0.838901	0.417641	0.058683
O9	O	0.572912	0.849776	-0.207307
O10	O	0.824029	0.562600	-0.043732
O11	O	0.736482	0.562603	0.043809
O12	O	0.736494	0.704813	-0.131267
O13	O	0.648947	0.704815	-0.043726
Zr14	Zr	0.873798	0.633704	0.093586
Zr15	Zr	0.873806	0.633704	-0.093499
Zr16	Zr	0.686710	0.633709	0.093583
Zr17	Zr	0.686723	0.785667	-0.093493
Zr18	Zr	0.873793	0.481747	0.093578
O19	O	0.838912	0.754491	0.058701
O20	O	0.838923	0.754490	-0.207309
O21	O	0.572897	0.754498	0.058697
O22	O	0.987608	0.512915	0.207397
O23	O	0.987619	0.512915	-0.058613
O24	O	0.721593	0.512923	0.207394
O25	O	0.987623	0.633700	-0.058606
O26	O	0.838902	0.633705	0.207401
O27	O	0.721597	0.633708	0.207400
O28	O	0.987618	0.633701	0.058696
O29	O	0.721621	0.849772	-0.207305
O30	O	0.838895	0.417641	0.207390
O31	O	0.987605	0.417637	0.207392
O32	O	0.987611	0.417637	0.058685
O33	O	0.572905	0.849776	-0.058600
O34	O	0.721615	0.849772	-0.058598
O35	O	0.824022	0.562601	0.131352
O36	O	0.911569	0.562598	0.043811
O37	O	0.824034	0.704810	-0.043724
O38	O	0.736487	0.704813	0.043816
C39	C	0.780252	0.443631	0.000033
C40	C	0.780250	0.379121	0.000029
C41	C	0.546240	0.633713	0.000040
C42	C	0.466816	0.633716	0.000039
C43	C	0.429499	0.633718	0.064663
C44	C	0.429508	0.633708	-0.064583
C45	C	0.354888	0.633706	-0.064584
C46	C	0.317571	0.633709	0.000041
C47	C	0.354873	0.633714	0.064666
C48	C	0.317585	0.633693	-0.129203
C49	C	0.242961	0.633690	-0.129205
C50	C	0.205639	0.633699	-0.064583
C51	C	0.242945	0.633704	0.000044
C52	C	0.205628	0.633707	0.064668
C53	C	0.242930	0.633718	0.129293
C54	C	0.317551	0.633722	0.129288
C55	C	0.131017	0.633695	-0.064578
C56	C	0.131003	0.633702	0.064671
C57	C	0.825943	0.348819	-0.045669
C58	C	0.825951	0.288196	-0.045662
C59	C	0.780250	0.257890	0.000032
C60	C	0.734555	0.288197	0.045740
C61	C	0.734555	0.348812	0.045739
N62	N	0.705884	0.195497	-0.006306
N63	N	0.705885	0.137916	-0.006309
C64	C	0.780249	0.075259	0.000040
N65	N	0.854610	0.072364	0.006375
N66	N	0.854607	0.129953	0.006374
C67	C	0.780246	0.192163	0.000038
C68	C	0.825955	-0.020778	-0.045653
C69	C	0.825966	-0.081405	-0.045640
C70	C	0.734562	-0.081398	0.045757
C71	C	0.734559	-0.020778	0.045749
C72	C	0.780254	0.009531	0.000039
C73	C	1.014276	0.633700	0.000045
C74	C	1.093700	0.633697	0.000046
C75	C	0.780268	0.633706	-0.233972
C76	C	0.780272	0.633706	-0.313394
C77	C	0.780264	0.823782	0.000052
C78	C	0.780266	0.888292	0.000056
C79	C	0.825941	0.559470	-0.603515
C80	C	0.734553	0.707942	-0.694899
C81	C	0.734559	0.707944	-0.620279
C82	C	0.780256	0.633707	-0.537272
C83	C	0.825946	0.559469	-0.528886
C84	C	0.688862	0.782180	-0.628658
C85	C	0.688865	0.782184	-0.554035
C86	C	0.734567	0.707947	-0.471026
C87	C	0.780261	0.633706	-0.462643
C88	C	0.825957	0.559469	-0.379637
C89	C	0.871657	0.485228	-0.371252
C90	C	0.871649	0.485232	-0.445878
C91	C	0.734575	0.707943	-0.396400
C92	C	0.825963	0.559468	-0.305008
C93	C	0.780248	0.633707	0.234056
C94	C	0.780245	0.633707	0.313478
C95	C	1.014270	0.443624	0.000035
C96	C	1.093692	0.379112	0.000033
C97	C	0.780242	0.443631	0.234046
C98	C	0.780237	0.379122	0.313465
C99	C	1.014260	0.443625	0.234049
C100	C	1.093678	0.379112	0.313469
C101	C	0.546256	0.823789	-0.233964
C102	C	0.466838	0.888301	-0.313384
C103	C	0.546246	0.823789	0.000049
C104	C	0.466824	0.888301	0.000052
C105	C	0.780274	0.823782	-0.233962
C106	C	0.780280	0.888292	-0.313380
C107	C	1.085294	0.348818	-0.045672
C108	C	1.159912	0.288210	-0.045692
C109	C	1.242927	0.257894	-0.000001
C110	C	1.251323	0.288194	0.045706
C111	C	1.176706	0.348805	0.045720
C112	C	0.825929	0.348826	0.396465
C113	C	0.825920	0.288220	0.471095
C114	C	0.780224	0.257908	0.462722
C115	C	0.734527	0.288210	0.379714
C116	C	0.734530	0.348818	0.305086
C117	C	1.176681	0.348815	0.305070
C118	C	1.251310	0.288208	0.379686
C119	C	1.242935	0.257894	0.462700
C120	C	1.159924	0.288197	0.471098
C121	C	1.085297	0.348808	0.396482
C122	C	0.383836	0.918605	-0.304985
C123	C	0.309207	0.979231	-0.379601
C124	C	0.317582	1.009548	-0.462616
C125	C	0.400593	0.979241	-0.471013
C126	C	0.475220	0.918620	-0.396398
C127	C	0.475222	0.918602	0.045749
C128	C	0.400604	0.979226	0.045749
C129	C	0.317589	1.009545	0.000055
C130	C	0.309193	0.979241	-0.045649
C131	C	0.383810	0.918622	-0.045652
C132	C	0.825984	0.918585	-0.304980
C133	C	0.826007	0.979191	-0.379595
C134	C	0.780318	1.009506	-0.462610
C135	C	0.734612	0.979207	-0.471009
C136	C	0.734595	0.918598	-0.396395
H137	H	0.212540	0.633715	0.181914
C138	C	0.201936	0.633672	-0.200282
H139	H	0.152153	0.633663	-0.191023
H140	H	0.184935	0.681156	-0.256073
H141	H	0.243411	0.586170	-0.197586
H142	H	0.407401	1.003933	-0.538612
C143	C	0.235518	1.076222	0.000068
H144	H	0.252417	1.089916	0.033838
H145	H	0.201758	1.123520	-0.058146
H146	H	0.201756	1.056354	0.024543
C147	C	0.409855	1.012541	0.096034
H148	H	0.469983	0.985788	0.123257
H149	H	0.382660	1.069765	0.056604
H150	H	0.382640	1.002604	0.139279
H151	H	1.017707	0.373501	-0.082890
H152	H	0.241593	1.003936	-0.082851
H153	H	1.017715	0.373468	0.403333
C154	C	0.638592	0.863834	-0.719957
H155	H	0.611369	0.908048	-0.714264
H156	H	0.678030	0.866924	-0.750975
H157	H	0.595347	0.866913	-0.750958
H158	H	0.863140	0.373500	0.403299
H159	H	1.183555	0.373463	0.082944
H160	H	0.651655	0.842636	-0.560871
H161	H	0.376961	0.893953	-0.082862
C162	C	0.876199	0.254892	0.562393
H163	H	0.903424	0.281618	0.556684
H164	H	0.836764	0.264832	0.593411
H165	H	0.919442	0.197662	0.593402
H166	H	0.697348	0.003897	0.082958
H167	H	0.459898	0.633700	-0.117195
H168	H	0.377000	0.893924	-0.237398
C169	C	0.780336	1.076180	-0.544678
H170	H	0.814094	1.089882	-0.527778
H171	H	0.804802	1.056322	-0.578446
H172	H	0.722115	1.123482	-0.578433
C173	C	0.876249	0.885246	-0.213673
H174	H	0.903476	0.911968	-0.219369
H175	H	0.836809	0.895183	-0.182659
H176	H	0.919491	0.828016	-0.182668
H177	H	1.153059	0.263547	-0.082912
H178	H	0.697361	0.768389	-0.403230
C179	C	1.342610	0.254878	0.370434
H180	H	1.336903	0.281605	0.310306
H181	H	1.373629	0.264815	0.397632
H182	H	1.373618	0.197648	0.397644
C183	C	0.089954	0.633708	0.135756
H184	H	0.040167	0.633708	0.126502
H185	H	0.131415	0.586224	0.191544
H186	H	0.072939	0.681210	0.133064
C187	C	0.876203	0.477811	-0.594291
H188	H	0.869655	0.488439	-0.650620
H189	H	0.936321	0.447306	-0.563286
H190	H	0.853627	0.447313	-0.563285
H191	H	0.697414	1.003899	-0.538610
C192	C	0.780227	0.191237	0.544815
H193	H	0.746465	0.177522	0.527948
H194	H	0.838448	0.143949	0.578571
H195	H	0.755756	0.211118	0.578568
C196	C	0.876228	0.477806	-0.213705
H197	H	0.903436	0.433596	-0.219403
H198	H	0.919471	0.474718	-0.182694
H199	H	0.836778	0.474721	-0.182695
H200	H	0.863225	1.003854	-0.372740
C201	C	0.684277	0.254851	0.370515
H202	H	0.690834	0.214409	0.426852
H203	H	0.624156	0.298353	0.339511
H204	H	0.706860	0.231190	0.339519
H205	H	1.303678	0.208540	-0.000019
C206	C	0.684305	0.885291	-0.405646
H207	H	0.657092	0.912037	-0.465774
H208	H	0.723729	0.828064	-0.378441
H209	H	0.641050	0.895243	-0.378444
H210	H	0.697325	0.373477	0.237506
C211	C	0.358590	0.633723	0.200373
H212	H	0.408383	0.633715	0.191121
H213	H	0.317131	0.681213	0.197698
H214	H	0.375596	0.586227	0.256160
H215	H	0.459870	0.633731	0.117278
H216	H	0.241623	1.003897	-0.372747
C217	C	0.358631	0.633694	-0.200284
H218	H	0.408408	0.633710	-0.191036
H219	H	0.375645	0.586202	-0.197606
H220	H	0.317164	0.681188	-0.256072
C221	C	1.342641	0.254834	0.095970
H222	H	1.385870	0.214391	0.089419
H223	H	1.349208	0.298335	0.073420
H224	H	1.349187	0.231173	0.156094
H225	H	1.153117	0.263507	0.538698
H226	H	0.908858	0.424784	-0.303658
H227	H	0.542810	0.893921	0.082965
H228	H	0.908855	0.424788	-0.439060
C229	C	0.684290	-0.114724	0.096020
H230	H	0.657078	-0.087994	0.123239
H231	H	0.641051	-0.104793	0.056581
H232	H	0.723737	-0.171953	0.139268
C233	C	0.684293	0.789595	-0.786199
H234	H	0.690838	0.778963	-0.829442
H235	H	0.624176	0.820104	-0.792744
H236	H	0.706874	0.820091	-0.792746
H237	H	1.183516	0.373488	0.237482
H238	H	0.100653	0.633680	-0.117191
H239	H	1.303708	0.208541	0.523450
C240	C	0.235487	1.076219	-0.544685
H241	H	0.184857	1.089913	-0.527786
H242	H	0.235469	1.123519	-0.578453
H243	H	0.235480	1.056342	-0.578439
H244	H	0.863166	0.003898	-0.082870
C245	C	0.566519	0.885260	-0.405643
H246	H	0.609772	0.844810	-0.349320
H247	H	0.573026	0.861626	-0.436657
H248	H	0.573089	0.928763	-0.436649
H249	H	0.863153	0.373493	-0.082886
H250	H	0.863161	0.263520	-0.082877
H251	H	0.697346	0.263517	0.082945
H252	H	0.697345	0.373485	0.082952
H253	H	0.863180	-0.106082	-0.082849
