data_functionalizedCrystal
_audit_creation_method	'MofGen! by Chris Wilmer'
_symmetry_space_group_name_H-M	'P1'
_symmetry_Int_Tables_number	1
_symmetry_cell_setting	triclinic
loop_
_symmetry_equiv_pos_as_xyz
  x,y,z
_cell_length_a	27.731993
_cell_length_b	14.853567
_cell_length_c	13.930277
_cell_angle_alpha	89.999243
_cell_angle_beta	89.995673
_cell_angle_gamma	96.872339
loop_
_atom_site_label
_atom_site_type_symbol
_atom_site_fract_x
_atom_site_fract_y
_atom_site_fract_z
O1	O	0.641447	-0.107035	0.079565
O2	O	1.141447	0.392965	0.579565
O3	O	0.500726	-0.123397	0.079623
O4	O	1.000726	0.376603	0.579623
O5	O	0.574845	0.016076	0.079595
O6	O	1.074845	0.516076	0.579595
O7	O	0.567328	-0.246508	0.079593
O8	O	1.067328	0.253492	0.579593
O9	O	0.574835	0.016079	-0.080067
O10	O	1.074835	0.516079	0.419933
O11	O	0.500716	-0.123394	-0.080039
O12	O	1.000716	0.376606	0.419961
O13	O	0.641437	-0.107032	-0.080097
O14	O	1.141437	0.392968	0.419903
Zn15	Zn	0.571075	-0.115213	-0.105418
Zn16	Zn	1.071075	0.384787	0.394582
Zn17	Zn	0.571088	-0.115216	0.104944
Zn18	Zn	1.071088	0.384784	0.604944
O19	O	0.567317	-0.246505	-0.080069
O20	O	1.067317	0.253495	0.419931
C21	C	0.482712	-0.123060	-0.000201
C22	C	0.982712	0.376940	0.499799
C23	C	0.429051	-0.122048	-0.000179
C24	C	0.929051	0.377952	0.499821
C25	C	0.045862	-0.114719	0.086807
C26	C	0.545862	0.385281	0.586807
C27	C	0.247538	-0.118574	0.086833
C28	C	0.747538	0.381426	0.586833
O29	O	0.273618	-0.119038	0.160851
O30	O	0.773618	0.380962	0.660851
N31	N	0.272755	-0.119055	-0.000197
N32	N	0.772755	0.380945	0.499803
C33	C	0.247550	-0.118566	-0.087239
C34	C	0.747550	0.381434	0.412761
O35	O	0.273627	-0.119054	-0.161263
O36	O	0.773627	0.380946	0.338737
C37	C	0.045876	-0.114704	-0.087264
C38	C	0.545876	0.385296	0.412736
C39	C	0.020661	-0.114233	-0.000229
C40	C	0.520661	0.385767	0.499771
C41	C	0.020647	-0.114246	0.173835
C42	C	0.520647	0.385754	0.673835
C43	C	-0.029769	-0.113288	0.173828
C44	C	0.470231	0.386712	0.673828
C45	C	-0.054970	-0.112802	0.086792
C46	C	0.445030	0.387198	0.586792
C47	C	-0.029755	-0.113274	-0.000236
C48	C	0.470245	0.386726	0.499764
C49	C	0.020673	-0.114209	-0.174306
C50	C	0.520673	0.385791	0.325694
C51	C	-0.029749	-0.113241	-0.174304
C52	C	0.470251	0.386759	0.325696
C53	C	-0.054964	-0.112770	-0.087269
C54	C	0.445036	0.387230	0.412731
C55	C	-0.105373	-0.111829	-0.087279
C56	C	0.394627	0.388171	0.412721
N57	N	-0.130590	-0.111348	-0.000250
N58	N	0.369410	0.388652	0.499750
C59	C	-0.105388	-0.111835	0.086786
C60	C	0.394612	0.388165	0.586786
C61	C	0.353432	-0.120595	-0.087220
C62	C	0.853432	0.379405	0.412780
C63	C	0.403850	-0.121562	-0.087214
C64	C	0.903850	0.378438	0.412786
C65	C	0.403834	-0.121568	0.086858
C66	C	0.903834	0.378432	0.586858
C67	C	0.353415	-0.120608	0.086851
C68	C	0.853415	0.379392	0.586851
C69	C	0.328215	-0.120114	-0.000191
C70	C	0.828215	0.379886	0.499809
C71	C	-0.211266	-0.109822	0.086764
C72	C	0.288734	0.390178	0.586764
C73	C	-0.261687	-0.108867	0.086749
C74	C	0.238313	0.391133	0.586749
C75	C	-0.261666	-0.108856	-0.087323
C76	C	0.238334	0.391144	0.412677
C77	C	-0.211250	-0.109816	-0.087309
C78	C	0.288750	0.390184	0.412691
C79	C	-0.186051	-0.110296	-0.000257
C80	C	0.313949	0.389704	0.499743
O81	O	-0.131483	-0.111355	-0.161260
O82	O	0.368517	0.388645	0.338740
O83	O	-0.131472	-0.111326	0.160798
O84	O	0.368528	0.388674	0.660798
C85	C	0.096278	-0.115678	0.086814
C86	C	0.596278	0.384322	0.586814
C87	C	0.121493	-0.116150	-0.000214
C88	C	0.621493	0.383850	0.499786
C89	C	0.096292	-0.115664	-0.087250
C90	C	0.596292	0.384336	0.412750
C91	C	0.171911	-0.117117	-0.000208
C92	C	0.671911	0.382883	0.499792
C93	C	0.197113	-0.117604	0.086827
C94	C	0.697113	0.382396	0.586827
C95	C	0.171896	-0.117123	0.173857
C96	C	0.671896	0.382877	0.673857
C97	C	0.121480	-0.116164	0.173850
C98	C	0.621480	0.383836	0.673850
C99	C	0.121509	-0.116145	-0.174280
C100	C	0.621509	0.383855	0.325720
C101	C	0.171925	-0.117105	-0.174265
C102	C	0.671925	0.382895	0.325735
C103	C	0.197126	-0.117591	-0.087230
C104	C	0.697126	0.382409	0.412770
C105	C	0.574500	0.049661	-0.000233
C106	C	1.074500	0.549661	0.499767
C107	C	0.573479	0.149728	-0.000224
C108	C	1.073479	0.649728	0.499776
C109	C	0.659451	-0.107369	-0.000271
C110	C	1.159451	0.392631	0.499729
C111	C	0.713112	-0.108381	-0.000287
C112	C	1.213112	0.391619	0.499713
N113	N	0.571069	-0.115209	-0.248984
N114	N	1.071069	0.384791	0.251016
C115	C	0.567663	-0.280090	-0.000239
C116	C	1.067663	0.219910	0.499761
C117	C	0.568684	-0.380156	-0.000242
C118	C	1.068684	0.119844	0.499758
C119	C	0.525136	0.561457	-0.000222
C120	C	1.025136	1.061457	0.499778
C121	C	0.613191	0.584203	-0.000258
C122	C	1.113191	1.084203	0.499742
C123	C	0.614151	0.490185	-0.000253
C124	C	1.114151	0.990185	0.499747
C125	C	0.570602	0.431799	-0.000234
C126	C	1.070602	0.931799	0.499766
C127	C	0.526094	0.467431	-0.000220
C128	C	1.026094	0.967431	0.499780
C129	C	0.658658	0.454546	-0.000277
C130	C	1.158658	0.954546	0.499723
C131	C	0.659620	0.360523	-0.000272
C132	C	1.159620	0.860523	0.499728
C133	C	0.616071	0.302135	-0.000246
C134	C	1.116071	0.802135	0.499754
C135	C	0.571561	0.337772	-0.000232
C136	C	1.071561	0.837772	0.499768
C137	C	0.528012	0.279386	-0.000212
C138	C	1.028012	0.779386	0.499788
C139	C	0.483502	0.315021	-0.000191
C140	C	0.983502	0.815021	0.499809
C141	C	0.482545	0.409043	-0.000194
C142	C	0.982545	0.909043	0.499806
C143	C	0.617027	0.208114	-0.000243
C144	C	1.117027	0.708114	0.499757
C145	C	0.528971	0.185359	-0.000210
C146	C	1.028971	0.685359	0.499790
C147	C	0.538267	-0.176951	-0.701241
C148	C	1.038267	0.323049	-0.201241
C149	C	0.603923	-0.053474	-0.701234
C150	C	1.103923	0.446526	-0.201234
C151	C	0.603917	-0.053472	-0.600739
C152	C	1.103917	0.446528	-0.100739
C153	C	0.571086	-0.115210	-0.550489
C154	C	1.071086	0.384790	-0.050489
C155	C	0.538261	-0.176952	-0.600736
C156	C	1.038261	0.323048	-0.100736
C157	C	0.636745	0.008263	-0.550485
C158	C	1.136745	0.508263	-0.050485
C159	C	0.636741	0.008267	-0.449983
C160	C	1.136741	0.508267	0.050017
C161	C	0.603907	-0.053468	-0.399732
C162	C	1.103907	0.446532	0.100268
C163	C	0.571080	-0.115211	-0.449984
C164	C	1.071080	0.384789	0.050016
C165	C	0.538250	-0.176950	-0.399735
C166	C	1.038250	0.323050	0.100265
C167	C	0.505420	-0.238690	-0.449986
C168	C	1.005420	0.261310	0.050014
C169	C	0.505428	-0.238687	-0.550485
C170	C	1.005428	0.261313	-0.050485
C171	C	0.603900	-0.053471	-0.299233
C172	C	1.103900	0.446529	0.200767
C173	C	0.538244	-0.176951	-0.299230
C174	C	1.038244	0.323049	0.200770
N175	N	0.571098	-0.115212	0.248510
N176	N	1.071098	0.384788	0.748510
H177	H	-0.050294	-0.112900	0.244701
H178	H	0.449706	0.387100	0.744701
H179	H	0.511507	-0.227223	-0.258323
H180	H	1.011507	0.272777	0.241677
H181	H	0.041161	-0.114639	0.244714
H182	H	0.541161	0.385361	0.744714
H183	H	0.332888	-0.120224	0.157723
H184	H	0.832888	0.379776	0.657723
H185	H	0.041194	-0.114590	-0.245180
H186	H	0.541194	0.385410	0.254820
C187	C	0.706558	0.518775	-0.000304
C188	C	1.206558	1.018775	0.499696
N189	N	0.742638	0.567158	-0.000324
N190	N	1.242638	1.067158	0.499676
C191	C	0.431565	-0.122096	0.182598
C192	C	0.931565	0.377904	0.682598
N193	N	0.452455	-0.122486	0.254706
N194	N	0.952455	0.377514	0.754706
H195	H	-0.050265	-0.112847	-0.245186
H196	H	0.449735	0.387153	0.254814
H197	H	0.448045	0.267471	-0.000182
H198	H	0.948045	0.767471	0.499818
C199	C	0.640035	0.014434	-0.756512
C200	C	1.140035	0.514434	-0.256512
N201	N	0.667235	0.065588	-0.798151
N202	N	1.167235	0.565588	-0.298151
H203	H	0.192423	-0.117524	0.244725
H204	H	0.692423	0.382476	0.744725
C205	C	0.469308	-0.306601	-0.394699
C206	C	0.969308	0.193399	0.105301
N207	N	0.442108	-0.357750	-0.353052
N208	N	0.942108	0.142250	0.146948
C209	C	0.708582	0.321333	-0.000289
C210	C	1.208582	0.821333	0.499711
N211	N	0.745460	0.291815	-0.000298
N212	N	1.245460	0.791815	0.499702
H213	H	0.446307	0.438066	-0.000177
H214	H	0.946307	0.938066	0.499823
H215	H	0.332919	-0.120190	-0.158104
H216	H	0.832919	0.379810	0.341896
C217	C	0.476176	0.600656	-0.000207
C218	C	0.976176	1.100656	0.499793
N219	N	0.439300	0.630182	-0.000200
N220	N	0.939300	1.130182	0.499800
H221	H	0.663477	0.058524	-0.591401
H222	H	1.163477	0.558524	-0.091401
H223	H	0.493508	0.137826	-0.000190
H224	H	0.993508	0.637826	0.499810
H225	H	0.663472	0.058539	-0.409075
H226	H	1.163472	0.558539	0.090925
H227	H	0.648646	0.631746	-0.000282
H228	H	1.148646	1.131746	0.499718
C229	C	0.665986	0.168919	-0.000267
C230	C	1.165986	0.668919	0.499733
N231	N	0.702864	0.139399	-0.000283
N232	N	1.202864	0.639399	0.499717
H233	H	0.478699	-0.288954	-0.591405
H234	H	0.978699	0.211046	-0.091405
C235	C	0.502153	-0.244855	-0.756517
C236	C	1.002153	0.255145	-0.256517
N237	N	0.474951	-0.296000	-0.798152
N238	N	0.974951	0.204000	-0.298152
H239	H	-0.282215	-0.108485	0.157627
H240	H	0.217785	0.391515	0.657627
C241	C	-0.183555	-0.110355	0.182525
C242	C	0.316445	0.389645	0.682525
N243	N	-0.162683	-0.110764	0.254652
N244	N	0.337317	0.389236	0.754652
H245	H	0.424375	-0.121961	-0.158087
H246	H	0.924375	0.378039	0.341913
C247	C	-0.183514	-0.110341	-0.183051
C248	C	0.316486	0.389659	0.316949
N249	N	-0.162625	-0.110728	-0.255167
N250	N	0.337375	0.389272	0.244833
C251	C	0.640010	0.014438	-0.243962
C252	C	1.140010	0.514438	0.256038
N253	N	0.667210	0.065593	-0.202333
N254	N	1.167210	0.565593	0.297667
H255	H	-0.282195	-0.108464	-0.158185
H256	H	0.217805	0.391536	0.341815
H257	H	0.100954	-0.115780	0.244723
H258	H	0.600954	0.384220	0.744723
H259	H	0.192450	-0.117496	-0.245145
H260	H	0.692450	0.382504	0.254855
C261	C	0.093793	-0.115626	-0.270031
C262	C	0.593793	0.384374	0.229969
N263	N	0.072919	-0.115246	-0.342158
N264	N	0.572919	0.384754	0.157842
