data_functionalizedCrystal
_audit_creation_method	'MofGen! by Chris Wilmer'
_symmetry_space_group_name_H-M	'P1'
_symmetry_Int_Tables_number	1
_symmetry_cell_setting	triclinic
loop_
_symmetry_equiv_pos_as_xyz
  x,y,z
_cell_length_a	17.019282
_cell_length_b	27.732046
_cell_length_c	15.500227
_cell_angle_alpha	87.201825
_cell_angle_beta	91.034464
_cell_angle_gamma	96.983222
loop_
_atom_site_label
_atom_site_type_symbol
_atom_site_fract_x
_atom_site_fract_y
_atom_site_fract_z
O1	O	1.045623	-0.061734	0.005972
O2	O	1.545623	0.438266	0.505972
O3	O	0.816738	-0.069061	-0.011089
O4	O	1.316738	0.430939	0.488911
O5	O	0.938289	0.004955	-0.002009
O6	O	1.438289	0.504955	0.497991
O7	O	0.924072	-0.135750	-0.003108
O8	O	1.424072	0.364250	0.496892
O9	O	0.930913	0.000481	0.141328
O10	O	1.430913	0.500481	0.641328
O11	O	0.809363	-0.073535	0.132248
O12	O	1.309363	0.426465	0.632248
O13	O	1.038247	-0.066208	0.149310
O14	O	1.538247	0.433792	0.649310
Cu15	Cu	0.923132	-0.070280	0.153867
Cu16	Cu	1.423132	0.429720	0.653867
Cu17	Cu	0.931854	-0.064989	-0.015646
Cu18	Cu	1.431854	0.435011	0.484354
O19	O	0.916697	-0.140223	0.140230
O20	O	1.416697	0.359777	0.640230
C21	C	0.783777	-0.070933	0.058398
C22	C	1.283777	0.429067	0.558398
C23	C	0.696552	-0.069840	0.051897
C24	C	1.196552	0.430160	0.551897
C25	C	0.651557	-0.071764	0.126978
C26	C	1.151557	0.428236	0.626978
C27	C	0.569601	-0.070729	0.120872
C28	C	1.069601	0.429271	0.620872
C29	C	0.532641	-0.067774	0.039684
C30	C	1.032641	0.432226	0.539684
C31	C	0.577642	-0.065848	-0.035403
C32	C	1.077642	0.434152	0.464597
C33	C	0.659597	-0.066880	-0.029296
C34	C	1.159597	0.433120	0.470704
C35	C	0.285391	-0.064535	0.017336
C36	C	0.785391	0.435465	0.517336
C37	C	0.203429	-0.063505	0.011235
C38	C	0.703429	0.436495	0.511235
C39	C	0.195395	-0.068385	0.167511
C40	C	0.695395	0.431615	0.667511
C41	C	0.277351	-0.069419	0.173610
C42	C	0.777351	0.430581	0.673610
C43	C	0.322345	-0.067491	0.098524
C44	C	0.822345	0.432509	0.598524
C45	C	0.448868	-0.066718	0.033441
C46	C	0.948868	0.433282	0.533441
C47	C	0.406117	-0.068544	0.104768
C48	C	0.906117	0.431456	0.604768
C49	C	0.934303	0.020726	0.069641
C50	C	1.434303	0.520726	0.569641
C51	C	0.933404	0.074387	0.069583
C52	C	1.433404	0.574387	0.569583
C53	C	0.999580	0.412793	0.074486
C54	C	1.499580	0.912793	0.574486
C55	C	0.996248	0.614473	0.074234
C56	C	1.496248	1.114473	0.574234
O57	O	1.056759	0.645355	0.078708
O58	O	1.556759	1.145355	0.578708
N59	N	0.924173	0.634044	0.068863
N60	N	1.424173	1.134044	0.568863
C61	C	0.852927	0.603190	0.063549
C62	C	1.352927	1.103190	0.563549
O63	O	0.791547	0.624464	0.058966
O64	O	1.291547	1.124464	0.558966
C65	C	0.856260	0.401511	0.063795
C66	C	1.356260	0.901511	0.563795
C67	C	0.928339	0.381944	0.069175
C68	C	1.428339	0.881944	0.569175
C69	C	1.071653	0.393225	0.079864
C70	C	1.571653	0.893225	0.579864
C71	C	1.072485	0.342807	0.079932
C72	C	1.572485	0.842807	0.579932
C73	C	1.001244	0.311958	0.074621
C74	C	1.501244	0.811958	0.574621
C75	C	0.929171	0.331526	0.069242
C76	C	1.429171	0.831526	0.569242
C77	C	0.785015	0.370659	0.058475
C78	C	1.285015	0.870659	0.558475
C79	C	0.785855	0.320237	0.058534
C80	C	1.285855	0.820237	0.558534
C81	C	0.857934	0.300669	0.063914
C82	C	1.357934	0.800669	0.563914
C83	C	0.858762	0.250260	0.063999
C84	C	1.358762	0.750260	0.563999
N85	N	0.930837	0.230689	0.069370
N86	N	1.430837	0.730689	0.569370
C87	C	1.002078	0.261539	0.074681
C88	C	1.502078	0.761539	0.574681
C89	C	0.851182	0.709075	0.063422
C90	C	1.351182	1.209075	0.563422
C91	C	0.850349	0.759495	0.063362
C92	C	1.350349	1.259495	0.563362
C93	C	0.993670	0.770774	0.074045
C94	C	1.493670	1.270774	0.574045
C95	C	0.994502	0.720354	0.074111
C96	C	1.494502	1.220354	0.574111
C97	C	0.923257	0.689505	0.068793
C98	C	1.423257	1.189505	0.568793
C99	C	1.003820	0.155658	0.074823
C100	C	1.503820	0.655658	0.574823
C101	C	1.004645	0.105236	0.074894
C102	C	1.504645	0.605236	0.574894
C103	C	0.861325	0.093961	0.064206
C104	C	1.361325	0.593961	0.564206
C105	C	0.860498	0.144379	0.064140
C106	C	1.360498	0.644379	0.564140
C107	C	0.931752	0.175227	0.069446
C108	C	1.431752	0.675227	0.569446
O109	O	0.798284	0.219349	0.059518
O110	O	1.298284	0.719349	0.559518
O111	O	1.063450	0.240256	0.079244
O112	O	1.563450	0.740256	0.579244
C113	C	0.998748	0.463210	0.074418
C114	C	1.498748	0.963210	0.574418
C115	C	0.926675	0.482778	0.069039
C116	C	1.426675	0.982778	0.569039
C117	C	0.855434	0.451929	0.063729
C118	C	1.355434	0.951929	0.563729
C119	C	0.925842	0.533198	0.068980
C120	C	1.425842	1.033198	0.568980
C121	C	0.997083	0.564047	0.074290
C122	C	1.497083	1.064047	0.574290
C123	C	1.069157	0.544477	0.079661
C124	C	1.569157	1.044477	0.579661
C125	C	1.069989	0.494059	0.079729
C126	C	1.569989	0.994059	0.579729
C127	C	0.783360	0.471499	0.058358
C128	C	1.283360	0.971499	0.558358
C129	C	0.782533	0.521917	0.058292
C130	C	1.282533	1.021917	0.558292
C131	C	0.853774	0.552766	0.063602
C132	C	1.353774	1.052766	0.563602
C133	C	1.071209	-0.064336	0.079821
C134	C	1.571209	0.435664	0.579821
C135	C	1.158434	-0.065429	0.086316
C136	C	1.658434	0.434571	0.586316
N137	N	0.917002	-0.074001	0.273094
N138	N	1.417002	0.425999	0.773094
C139	C	0.920685	0.844005	0.068589
C140	C	1.420685	1.344005	0.568589
C141	C	0.921589	0.790344	0.068673
C142	C	1.421589	1.290344	0.568673
N143	N	0.937990	-0.061264	-0.134873
N144	N	1.437990	0.438736	0.365127
C145	C	0.968525	-0.042649	0.322220
C146	C	1.468525	0.457351	0.822220
C147	C	0.963897	-0.045468	0.412447
C148	C	1.463897	0.454532	0.912447
C149	C	0.907749	-0.079641	0.453547
C150	C	1.407749	0.420359	0.953547
C151	C	0.856220	-0.110993	0.404415
C152	C	1.356220	0.389007	0.904415
C153	C	0.860846	-0.108172	0.314189
C154	C	1.360846	0.391828	0.814189
C155	C	0.891087	-0.089796	0.725769
C156	C	1.391087	0.410204	1.225769
C157	C	0.886467	-0.092616	0.816002
C158	C	1.386467	0.407384	1.316002
C159	C	0.994143	-0.027089	0.824027
C160	C	1.494143	0.472911	1.324027
C161	C	0.998766	-0.024273	0.733800
C162	C	1.498766	0.475727	1.233800
C163	C	0.947235	-0.055624	0.684675
C164	C	1.447235	0.444376	1.184675
C165	C	0.903018	-0.082524	0.545773
C166	C	1.403018	0.417476	1.045773
C167	C	0.951963	-0.052739	0.592450
C168	C	1.451963	0.447261	1.092450
H169	H	1.061842	0.180769	0.079141
H170	H	1.561842	0.680769	0.579141
H171	H	1.129670	0.418338	0.084186
H172	H	1.629670	0.918338	0.584186
O173	O	0.772603	0.780594	0.057576
O174	O	1.272603	1.280594	0.557576
H175	H	0.783982	0.820837	0.058434
H176	H	1.283982	1.320837	0.558434
O177	O	1.082393	0.084134	0.080683
O178	O	1.582393	0.584134	0.580683
H179	H	1.113596	0.094704	0.141647
H180	H	1.613596	0.594704	0.641647
H181	H	1.005850	-0.019939	0.452445
H182	H	1.505850	0.480061	0.952445
O183	O	0.774333	0.675804	0.057704
O184	O	1.274333	1.175804	0.557704
H185	H	0.724082	0.697888	0.053972
H186	H	1.224082	1.197888	0.553972
O187	O	0.835517	-0.123613	0.672790
O188	O	1.335517	0.376387	1.172790
H189	H	0.795706	-0.147853	0.716531
H190	H	1.295706	0.352147	1.216531
H191	H	0.810499	-0.138816	0.437883
H192	H	1.310499	0.361184	0.937883
O193	O	0.709008	0.286965	0.052800
O194	O	1.209008	0.786965	0.552800
H195	H	0.702953	0.261905	0.110994
H196	H	1.202953	0.761905	0.610994
H197	H	0.307439	-0.071823	0.239722
H198	H	0.807439	0.428177	0.739722
O199	O	0.805279	-0.141989	0.261197
O200	O	1.305279	0.358011	0.761197
H201	H	0.765464	-0.166229	0.304933
H202	H	1.265464	0.333771	0.804933
H203	H	0.158752	-0.069954	0.228642
H204	H	0.658752	0.430046	0.728642
H205	H	0.997676	-0.024913	0.558983
H206	H	1.497676	0.475087	1.058983
H207	H	0.322016	-0.062963	-0.043805
H208	H	0.822016	0.437037	0.456195
O209	O	0.537787	-0.062658	-0.122975
O210	O	1.037787	0.437342	0.377025
H211	H	0.493239	-0.094986	-0.130065
H212	H	0.993239	0.405014	0.369935
O213	O	0.842465	-0.119383	0.590110
O214	O	1.342465	0.380617	1.090110
H215	H	0.807410	-0.140712	0.540795
H216	H	1.307410	0.359288	1.040795
O217	O	0.409003	-0.063530	-0.054126
O218	O	0.909003	0.436470	0.445874
H219	H	0.419252	-0.095470	-0.090986
H220	H	0.919252	0.404530	0.409014
O221	O	0.163560	-0.060314	-0.076335
O222	O	0.663560	0.439686	0.423665
H223	H	0.208616	-0.059142	-0.127523
H224	H	0.708616	0.440858	0.372477
O225	O	0.708132	-0.064808	-0.110275
O226	O	1.208132	0.435192	0.389725
H227	H	0.668663	-0.062584	-0.167757
H228	H	1.168663	0.437416	0.332243
H229	H	0.436214	-0.070947	0.170871
H230	H	0.936214	0.429053	0.670871
H231	H	1.131179	0.326881	0.084309
H232	H	1.631179	0.826881	0.584309
O233	O	0.691413	-0.074957	0.214549
O234	O	1.191413	0.425043	0.714549
H235	H	0.735974	-0.042635	0.221636
H236	H	1.235974	0.457365	0.721636
H237	H	0.532972	-0.072288	0.182011
H238	H	1.032972	0.427712	0.682011
H239	H	1.053195	0.704426	0.078491
H240	H	1.553195	1.204426	0.578491
O241	O	1.059319	0.012589	0.689469
O242	O	1.559319	0.512589	1.189469
H243	H	1.094364	0.033920	0.738788
H244	H	1.594364	0.533920	1.238788
O245	O	0.782759	0.165489	0.058340
O246	O	1.282759	0.665489	0.558340
H247	H	0.733362	0.135565	0.054655
H248	H	1.233362	0.635565	0.554655
O249	O	1.070512	0.804052	0.079767
O250	O	1.570512	1.304052	0.579767
H251	H	1.057816	0.842398	0.078814
H252	H	1.557816	1.342398	0.578814
H253	H	1.128683	0.478133	0.084110
H254	H	1.628683	0.978133	0.584110
H255	H	0.726321	0.386582	0.054089
H256	H	1.226321	0.886582	0.554089
H257	H	0.803322	0.068834	0.059885
H258	H	1.303322	0.568834	0.559885
O259	O	1.145999	0.577754	0.085390
O260	O	1.645999	1.077754	0.585390
H261	H	1.133302	0.616100	0.084434
H262	H	1.633302	1.116100	0.584434
H263	H	0.723833	0.537843	0.053918
H264	H	1.223833	1.037843	0.553918
O265	O	0.706517	0.438228	0.052645
O266	O	1.206517	0.938228	0.552645
H267	H	0.656265	0.460311	0.048909
H268	H	1.156265	0.960311	0.548909
H269	H	1.014250	-0.014824	0.288762
H270	H	1.514250	0.485176	0.788762
H271	H	1.036096	-0.001564	0.864032
H272	H	1.536096	0.498436	1.364032
H273	H	0.840742	-0.120445	0.849460
H274	H	1.340742	0.379555	1.349460
